0:0:0
     RDKit          3D

 91 99  0  0  1  0  0  0  0  0999 V2000
  -30.8660  -19.8110   19.7450 C   0  0  0  0  0  3  0  0  0  0  0  0
  -30.2640  -21.1020   19.7450 C   0  0  0  0  0  3  0  0  0  0  0  0
  -28.7630  -18.8000   20.2620 C   0  0  0  0  0  3  0  0  0  0  0  0
  -30.1480  -18.6190   20.0290 C   0  0  0  0  0  0  0  0  0  0  0  0
  -28.8840  -21.3060   20.0220 C   0  0  0  0  0  0  0  0  0  0  0  0
  -28.1460  -20.0870   20.2360 C   0  0  0  0  0  0  0  0  0  0  0  0
  -26.8010  -20.1070   20.4120 F   0  0  0  0  0  0  0  0  0  0  0  0
  -27.0580  -22.7770   20.8730 C   0  0  0  0  0  1  0  0  0  0  0  0
  -28.2880  -22.6310   20.0790 N   0  0  0  0  0  0  0  0  0  0  0  0
  -29.0120  -23.9370   19.9080 C   0  0  0  0  0  2  0  0  0  0  0  0
  -28.1500  -25.1260   19.3020 C   0  0  0  0  0  2  0  0  0  0  0  0
  -28.4000  -26.5300   19.7030 O   0  0  0  0  0  0  0  0  0  0  0  0
  -24.6240  -31.6500   23.0770 C   0  0  0  0  0  0  0  0  0  0  0  0
  -27.2970  -27.3970   19.6760 C   0  0  0  0  0  0  0  0  0  0  0  0
  -23.4450  -30.3560   21.3410 C   0  0  0  0  0  3  0  0  0  0  0  0
  -24.9170  -28.9660   19.7860 C   0  0  0  0  0  0  0  0  0  0  0  0
  -25.9750  -30.7420   21.1750 C   0  0  0  0  0  2  0  0  0  0  0  0
  -26.0770  -29.4210   20.4270 C   0  0  0  0  0  0  0  0  0  0  0  0
  -27.2720  -28.6410   20.3760 C   0  0  0  0  0  3  0  0  0  0  0  0
  -26.1280  -27.0270   18.9720 C   0  0  0  0  0  3  0  0  0  0  0  0
  -24.9450  -27.7790   19.0460 C   0  0  0  0  0  3  0  0  0  0  0  0
  -23.6630  -29.8020   19.9100 C   0  0  0  0  0  2  0  0  0  0  0  0
  -24.7000  -30.9300   21.9210 N   0  0  0  0  0  0  0  0  0  0  0  0
  -23.5380  -31.8610   23.6330 O   0  0  0  0  0  0  0  0  0  0  0  0
  -22.8110  -29.2500   22.2170 C   0  0  0  0  0  0  0  0  0  0  0  0
  -21.4820  -29.0820   22.1080 N   0  0  0  0  0  0  0  0  0  0  0  0
  -23.5130  -28.5530   22.9550 O   0  0  0  0  0  0  0  0  0  0  0  0
  -20.9750  -29.7010   21.4920 H   0  0  0  0  0  0  0  0  0  0  0  0
  -18.1100  -27.8710   22.6090 C   0  0  0  0  0  0  0  0  0  0  0  0
  -20.6790  -28.0800   22.8090 C   0  0  0  0  0  3  0  0  0  0  0  0
  -20.7440  -26.7120   22.0900 C   0  0  0  0  0  2  0  0  0  0  0  0
  -19.6020  -26.5020   21.0910 C   0  0  0  0  0  2  0  0  0  0  0  0
  -18.2450  -26.5940   21.7960 C   0  0  0  0  0  2  0  0  0  0  0  0
  -19.2530  -28.5780   23.0680 C   0  0  0  0  0  0  0  0  0  0  0  0
  -19.0710  -29.7780   23.7890 C   0  0  0  0  0  3  0  0  0  0  0  0
  -17.7790  -30.2710   24.0550 C   0  0  0  0  0  3  0  0  0  0  0  0
  -16.6510  -29.5640   23.6040 C   0  0  0  0  0  3  0  0  0  0  0  0
  -16.8180  -28.3640   22.8900 C   0  0  0  0  0  3  0  0  0  0  0  0
  -25.8970  -32.2620   23.7410 C   0  0  0  0  0  3  0  0  0  0  0  0
  -26.3850  -31.4480   25.0020 C   0  0  1  0  0  0  0  0  0  0  0  0
  -25.2730  -31.1970   26.0480 C   0  0  0  0  0  1  0  0  0  0  0  0
  -26.9500  -30.0740   24.5750 C   0  0  0  0  0  1  0  0  0  0  0  0
  -27.5380  -32.2070   25.7000 C   0  0  0  0  0  1  0  0  0  0  0  0
  -25.5860  -33.6490   24.1080 N   0  0  0  0  0  0  0  0  0  0  0  0
  -25.9240  -34.7220   23.3810 C   0  0  0  0  0  0  0  0  0  0  0  0
  -26.6000  -34.6470   22.3510 O   0  0  0  0  0  0  0  0  0  0  0  0
  -24.9960  -33.7820   24.9170 H   0  0  0  0  0  0  0  0  0  0  0  0
  -24.1890  -36.5140   23.0710 C   0  0  0  0  0  1  0  0  0  0  0  0
  -25.4330  -36.0970   23.8730 C   0  0  0  0  0  3  0  0  0  0  0  0
  -27.5620  -36.9690   24.7250 C   0  0  0  0  0  1  0  0  0  0  0  0
  -26.4590  -37.1590   23.7870 N   0  0  0  0  0  0  0  0  0  0  0  0
  -26.0470  -38.0710   23.9620 H   0  0  0  0  0  0  0  0  0  0  0  0
  -30.9440  -17.2570   20.0890 C   0  0  0  0  0  2  0  0  0  0  0  0
  -30.9920  -14.7490   20.0900 C   0  0  0  0  0  0  0  0  0  0  0  0
  -30.6550  -12.5110   19.0330 C   0  0  0  0  0  2  0  0  0  0  0  0
  -29.6790  -12.6030   17.8400 C   0  0  0  0  0  2  0  0  0  0  0  0
  -28.2290  -12.4220   18.3260 C   0  0  0  0  0  2  0  0  0  0  0  0
  -27.9060  -13.3320   19.5410 C   0  0  0  0  0  3  0  0  0  0  0  0
  -28.9950  -13.2120   20.6250 C   0  0  0  0  0  2  0  0  0  0  0  0
  -30.2840  -13.5650   20.0100 N   0  0  0  0  0  0  0  0  0  0  0  0
  -32.0960  -14.8200   19.5390 O   0  0  0  0  0  0  0  0  0  0  0  0
  -29.9070  -15.9820   21.9340 C   0  0  0  0  0  1  0  0  0  0  0  0
  -30.3980  -15.9200   20.5520 N   0  0  0  0  0  0  0  0  0  0  0  0
  -25.5590  -13.9580   20.3720 C   0  0  0  0  0  0  0  0  0  0  0  0
  -24.5000  -13.1970   20.7840 C   0  0  0  0  0  0  0  0  0  0  0  0
  -24.9430  -11.8410   20.7300 C   0  0  0  0  0  0  0  0  0  0  0  0
  -26.5770  -13.0650   20.0840 N   0  0  0  0  0  0  0  0  0  0  0  0
  -26.2160  -11.7860   20.3600 N   0  0  0  0  0  0  0  0  0  0  0  0
  -24.2090  -10.5880   20.9500 C   0  0  0  0  0  0  0  0  0  0  0  0
  -24.6340   -9.6420   21.9090 C   0  0  0  0  0  3  0  0  0  0  0  0
  -23.9020   -8.4520   22.1140 C   0  0  0  0  0  3  0  0  0  0  0  0
  -22.7320   -8.2010   21.3580 C   0  0  0  0  0  0  0  0  0  0  0  0
  -22.3260   -9.1350   20.3880 C   0  0  0  0  0  3  0  0  0  0  0  0
  -23.0580  -10.3160   20.1840 C   0  0  0  0  0  3  0  0  0  0  0  0
  -21.9720   -7.0610   21.4680 O   0  0  0  0  0  0  0  0  0  0  0  0
  -21.8600   -6.3840   22.6540 C   0  0  0  0  0  0  0  0  0  0  0  0
  -21.3600   -7.0030   23.8220 C   0  0  0  0  0  3  0  0  0  0  0  0
  -21.1980   -6.2500   25.0010 C   0  0  0  0  0  3  0  0  0  0  0  0
  -21.5240   -4.8810   25.0160 C   0  0  0  0  0  0  0  0  0  0  0  0
  -22.0170   -4.2620   23.8530 C   0  0  0  0  0  3  0  0  0  0  0  0
  -22.1820   -5.0110   22.6750 C   0  0  0  0  0  0  0  0  0  0  0  0
  -22.6370   -4.4070   21.5520 F   0  0  0  0  0  0  0  0  0  0  0  0
  -21.3600   -4.1560   26.1470 F   0  0  0  0  0  0  0  0  0  0  0  0
  -23.1220  -13.6920   21.1210 C   0  0  0  0  0  0  0  0  0  0  0  0
  -22.4320  -13.0120   22.0280 N   0  0  0  0  0  0  0  0  0  0  0  0
  -22.6720  -14.7190   20.6130 O   0  0  0  0  0  0  0  0  0  0  0  0
  -22.8120  -12.1840   22.4600 H   0  0  0  0  0  0  0  0  0  0  0  0
  -21.5090  -13.3260   22.2940 H   0  0  0  0  0  0  0  0  0  0  0  0
  -25.7350  -15.3260   20.1980 N   0  0  0  0  0  0  0  0  0  0  0  0
  -24.9850  -15.9900   20.3580 H   0  0  0  0  0  0  0  0  0  0  0  0
  -26.5850  -15.7590   19.8580 H   0  0  0  0  0  0  0  0  0  0  0  0
  1  4  1  0
  2  1  2  0
  2  5  1  0
  4 53  1  0
  4  3  2  0
  5  9  1  0
  5  6  2  0
  6  3  1  0
  6  7  1  0
  9  8  1  0
 10  9  1  0
 11 12  1  0
 11 10  1  0
 13 24  2  0
 14 12  1  0
 14 19  1  0
 15 23  1  0
 15 25  1  0
 16 22  1  0
 16 18  1  0
 17 23  1  0
 18 17  1  0
 19 18  2  0
 20 21  1  0
 20 14  2  0
 21 16  2  0
 22 15  1  0
 23 13  1  0
 25 27  2  0
 26 25  1  0
 28 26  1  0
 29 38  2  0
 29 34  1  0
 30 26  1  0
 30 34  1  0
 31 30  1  0
 32 33  1  0
 32 31  1  0
 33 29  1  0
 34 35  2  0
 35 36  1  0
 37 36  2  0
 38 37  1  0
 39 13  1  0
 39 44  1  0
 39 40  1  0
 40 43  1  1
 40 41  1  0
 42 40  1  0
 44 47  1  0
 45 49  1  0
 45 44  1  0
 46 45  2  0
 49 48  1  0
 51 49  1  0
 51 52  1  0
 51 50  1  0
 53 63  1  0
 54 63  1  0
 55 60  1  0
 56 57  1  0
 56 55  1  0
 58 57  1  0
 58 67  1  0
 58 59  1  0
 60 54  1  0
 60 59  1  0
 61 54  2  0
 63 62  1  0
 64 65  2  0
 65 84  1  0
 66 65  1  0
 66 69  1  0
 67 68  1  0
 67 64  1  0
 68 66  2  0
 69 70  1  0
 70 71  2  0
 72 75  1  0
 72 71  1  0
 73 72  2  0
 74 73  1  0
 74 69  2  0
 75 76  1  0
 76 81  2  0
 76 77  1  0
 77 78  2  0
 78 79  1  0
 79 83  1  0
 80 79  2  0
 81 80  1  0
 82 81  1  0
 84 85  1  0
 85 88  1  0
 85 87  1  0
 86 84  2  0
 89 90  1  0
 89 64  1  0
 91 89  1  0
M  ISO  4  11 101  12 101  54 100  63 100
M  END
>  <TORSDO>  (1) 
F 20

>  <SCORE>  (1) 
-12.551

>  <name>  (1) 
0

>  <ligand_id>  (1) 
0

>  <original_smiles>  (1) 
[H]c1c([H])c([H])c2c(c1[H])C([H])([H])C([H])([H])C([H])([H])C2([H])N([H])C(=O)C1([H])N(C(=O)C([H])(N([H])C(=O)C([H])(N([H])C([H])([H])[H])C([H])([H])[H])C(C([H])([H])[H])(C([H])([H])[H])C([H])([H])[H])C([H])([H])c2c([H])c(OC([H])([H])C([H])([H])N(c3c([H])c([H])c(C([H])([H])N(C(=O)N4C([H])([H])C([H])([H])C([H])([H])C([H])(n5nc(-c6c([H])c([H])c(Oc7c([H])c([H])c(F)c([H])c7F)c([H])c6[H])c(C(=O)N([H])[H])c5N([H])[H])C4([H])[H])C([H])([H])[H])c([H])c3F)C([H])([H])[H])c([H])c([H])c2C1([H])[H]

>  <smiles>  (1) 
[H]c1c([H])c([H])c2c(c1[H])C([H])([H])C([H])([H])C([H])([H])C2([H])N([H])C(=O)C1([H])N(C(=O)C([H])(N([H])C(=O)C([H])(N([H])C([H])([H])[H])C([H])([H])[H])C(C([H])([H])[H])(C([H])([H])[H])C([H])([H])[H])C([H])([H])c2c([H])c(OC([H])([H])C([H])([H])N(c3c([H])c([H])c(C([H])([H])N(C(=O)N4C([H])([H])C([H])([H])C([H])([H])C([H])(n5nc(-c6c([H])c([H])c(Oc7c([H])c([H])c(F)c([H])c7F)c([H])c6[H])c(C(=O)N([H])[H])c5N([H])[H])C4([H])[H])C([H])([H])[H])c([H])c3F)C([H])([H])[H])c([H])c([H])c2C1([H])[H]

$$$$
1:0:0
     RDKit          3D

 92100  0  0  1  0  0  0  0  0999 V2000
  -28.8460  -21.4950   20.3470 N   0  0  0  0  0  0  0  0  0  0  0  0
  -30.5420  -19.5900   19.9800 C   0  0  0  0  0  3  0  0  0  0  0  0
  -30.8760  -18.1850   19.9930 C   0  0  0  0  0  3  0  0  0  0  0  0
  -28.3080  -19.0630   20.6380 C   0  0  0  0  0  3  0  0  0  0  0  0
  -29.2420  -20.0910   20.3120 C   0  0  0  0  0  0  0  0  0  0  0  0
  -29.9170  -17.1920   20.3470 C   0  0  0  0  0  0  0  0  0  0  0  0
  -28.6330  -17.6830   20.6650 C   0  0  0  0  0  0  0  0  0  0  0  0
  -27.6750  -16.7890   21.0080 F   0  0  0  0  0  0  0  0  0  0  0  0
  -30.8430  -14.7530   19.9110 C   0  0  0  0  0  0  0  0  0  0  0  0
  -30.6080  -12.5280   18.8050 C   0  0  0  0  0  2  0  0  0  0  0  0
  -29.5970  -12.6720   17.6450 C   0  0  0  0  0  2  0  0  0  0  0  0
  -28.1460  -12.5100   18.1440 C   0  0  0  0  0  2  0  0  0  0  0  0
  -27.8560  -13.3500   19.4160 C   0  0  0  0  0  3  0  0  0  0  0  0
  -28.9670  -13.1480   20.4720 C   0  0  0  0  0  2  0  0  0  0  0  0
  -30.2500  -13.5160   19.8430 N   0  0  0  0  0  0  0  0  0  0  0  0
  -31.9600  -14.9620   19.4290 O   0  0  0  0  0  0  0  0  0  0  0  0
  -30.0520  -15.7340   20.4470 N   0  0  0  0  0  0  0  0  0  0  0  0
  -29.2350  -15.3290   20.8790 H   0  0  0  0  0  0  0  0  0  0  0  0
  -25.4970  -13.9570   20.2430 C   0  0  0  0  0  0  0  0  0  0  0  0
  -24.4440  -13.1880   20.6530 C   0  0  0  0  0  0  0  0  0  0  0  0
  -24.8950  -11.8350   20.5870 C   0  0  0  0  0  0  0  0  0  0  0  0
  -26.5280  -13.0730   19.9590 N   0  0  0  0  0  0  0  0  0  0  0  0
  -26.1700  -11.7910   20.2220 N   0  0  0  0  0  0  0  0  0  0  0  0
  -24.1690  -10.5760   20.7970 C   0  0  0  0  0  0  0  0  0  0  0  0
  -24.5790   -9.6420   21.7740 C   0  0  0  0  0  3  0  0  0  0  0  0
  -23.8530   -8.4470   21.9690 C   0  0  0  0  0  3  0  0  0  0  0  0
  -22.7030   -8.1800   21.1890 C   0  0  0  0  0  0  0  0  0  0  0  0
  -22.3130   -9.1030   20.2040 C   0  0  0  0  0  3  0  0  0  0  0  0
  -23.0390  -10.2900   20.0060 C   0  0  0  0  0  3  0  0  0  0  0  0
  -21.9520   -7.0330   21.2900 O   0  0  0  0  0  0  0  0  0  0  0  0
  -21.7960   -6.3800   22.4860 C   0  0  0  0  0  0  0  0  0  0  0  0
  -21.2460   -7.0190   23.6180 C   0  0  0  0  0  3  0  0  0  0  0  0
  -21.0370   -6.2900   24.8060 C   0  0  0  0  0  3  0  0  0  0  0  0
  -21.3680   -4.9240   24.8630 C   0  0  0  0  0  0  0  0  0  0  0  0
  -21.9110   -4.2840   23.7350 C   0  0  0  0  0  3  0  0  0  0  0  0
  -22.1220   -5.0100   22.5490 C   0  0  0  0  0  0  0  0  0  0  0  0
  -22.6250   -4.3830   21.4580 F   0  0  0  0  0  0  0  0  0  0  0  0
  -21.1620   -4.2210   26.0010 F   0  0  0  0  0  0  0  0  0  0  0  0
  -23.0650  -13.6730   20.9990 C   0  0  0  0  0  0  0  0  0  0  0  0
  -22.3830  -12.9840   21.9070 N   0  0  0  0  0  0  0  0  0  0  0  0
  -22.6040  -14.7000   20.5020 O   0  0  0  0  0  0  0  0  0  0  0  0
  -22.7700  -12.1540   22.3320 H   0  0  0  0  0  0  0  0  0  0  0  0
  -21.4610  -13.2910   22.1820 H   0  0  0  0  0  0  0  0  0  0  0  0
  -25.6570  -15.3280   20.0750 N   0  0  0  0  0  0  0  0  0  0  0  0
  -24.9150  -15.9810   20.2980 H   0  0  0  0  0  0  0  0  0  0  0  0
  -26.5460  -15.7840   19.9170 H   0  0  0  0  0  0  0  0  0  0  0  0
  -28.9330  -22.2590   22.7210 C   0  0  0  0  0  1  0  0  0  0  0  0
  -28.0530  -21.9110   21.5120 C   0  0  0  0  0  2  0  0  0  0  0  0
  -29.6030  -22.6260   19.7170 C   0  0  0  0  0  2  0  0  0  0  0  0
  -28.8130  -23.9530   19.2460 C   0  0  0  0  0  2  0  0  0  0  0  0
  -28.5140  -25.1800   20.2240 C   0  0  0  0  0  2  0  0  0  0  0  0
  -28.5120  -26.5630   19.6870 O   0  0  0  0  0  0  0  0  0  0  0  0
  -24.6500  -31.6730   23.0310 C   0  0  0  0  0  0  0  0  0  0  0  0
  -27.3470  -27.3350   19.7550 C   0  0  0  0  0  0  0  0  0  0  0  0
  -23.4560  -30.3070   21.3520 C   0  0  0  0  0  3  0  0  0  0  0  0
  -24.9260  -28.8530   19.8450 C   0  0  0  0  0  0  0  0  0  0  0  0
  -25.9770  -30.7150   21.1360 C   0  0  0  0  0  2  0  0  0  0  0  0
  -26.0880  -29.3660   20.4350 C   0  0  0  0  0  0  0  0  0  0  0  0
  -27.3030  -28.6220   20.3730 C   0  0  0  0  0  3  0  0  0  0  0  0
  -26.1610  -26.8600   19.1580 C   0  0  0  0  0  3  0  0  0  0  0  0
  -24.9630  -27.6050   19.1970 C   0  0  0  0  0  3  0  0  0  0  0  0
  -23.6650  -29.6870   19.9450 C   0  0  0  0  0  2  0  0  0  0  0  0
  -24.7130  -30.9150   21.8970 N   0  0  0  0  0  0  0  0  0  0  0  0
  -23.5690  -31.8960   23.5960 O   0  0  0  0  0  0  0  0  0  0  0  0
  -22.8410  -29.2350   22.2840 C   0  0  0  0  0  0  0  0  0  0  0  0
  -21.5180  -29.0250   22.1740 N   0  0  0  0  0  0  0  0  0  0  0  0
  -23.5520  -28.5960   23.0640 O   0  0  0  0  0  0  0  0  0  0  0  0
  -21.0010  -29.5960   21.5190 H   0  0  0  0  0  0  0  0  0  0  0  0
  -18.1850  -27.7210   22.6840 C   0  0  0  0  0  0  0  0  0  0  0  0
  -20.7390  -28.0360   22.9190 C   0  0  0  0  0  3  0  0  0  0  0  0
  -20.8670  -26.6330   22.2810 C   0  0  0  0  0  2  0  0  0  0  0  0
  -19.7560  -26.3260   21.2740 C   0  0  0  0  0  2  0  0  0  0  0  0
  -18.3830  -26.4070   21.9480 C   0  0  0  0  0  2  0  0  0  0  0  0
  -19.2910  -28.4930   23.1260 C   0  0  0  0  0  0  0  0  0  0  0  0
  -19.0510  -29.7230   23.7750 C   0  0  0  0  0  3  0  0  0  0  0  0
  -17.7380  -30.1830   23.9860 C   0  0  0  0  0  3  0  0  0  0  0  0
  -16.6450  -29.4070   23.5610 C   0  0  0  0  0  3  0  0  0  0  0  0
  -16.8700  -28.1780   22.9150 C   0  0  0  0  0  3  0  0  0  0  0  0
  -25.9260  -32.3170   23.6560 C   0  0  0  0  0  3  0  0  0  0  0  0
  -25.5770  -33.6840   24.0710 N   0  0  0  0  0  0  0  0  0  0  0  0
  -25.8570  -34.7880   23.3650 C   0  0  0  0  0  0  0  0  0  0  0  0
  -26.5050  -34.7640   22.3150 O   0  0  0  0  0  0  0  0  0  0  0  0
  -24.9980  -33.7730   24.8920 H   0  0  0  0  0  0  0  0  0  0  0  0
  -24.0640  -36.5370   23.1500 C   0  0  0  0  0  1  0  0  0  0  0  0
  -25.3360  -36.1320   23.9100 C   0  0  0  0  0  3  0  0  0  0  0  0
  -27.4590  -37.0430   24.7420 C   0  0  0  0  0  1  0  0  0  0  0  0
  -26.3310  -37.2240   23.8330 N   0  0  0  0  0  0  0  0  0  0  0  0
  -25.8980  -38.1200   24.0390 H   0  0  0  0  0  0  0  0  0  0  0  0
  -26.5000  -31.4980   24.8770 C   0  0  1  0  0  0  0  0  0  0  0  0
  -25.4440  -31.1680   25.9580 C   0  0  0  0  0  1  0  0  0  0  0  0
  -27.1160  -30.1640   24.3980 C   0  0  0  0  0  1  0  0  0  0  0  0
  -27.6400  -32.2950   25.5530 C   0  0  0  0  0  1  0  0  0  0  0  0
  1 48  1  0
  2  3  2  0
  2  5  1  0
  3  6  1  0
  4  7  1  0
  5  1  1  0
  5  4  2  0
  6 17  1  0
  6  7  2  0
  7  8  1  0
  9 17  1  0
 10 15  1  0
 11 12  1  0
 11 10  1  0
 13 12  1  0
 13 22  1  0
 13 14  1  0
 15  9  1  0
 15 14  1  0
 16  9  2  0
 17 18  1  0
 19 20  2  0
 20 39  1  0
 21 20  1  0
 21 24  1  0
 22 23  1  0
 22 19  1  0
 23 21  2  0
 24 25  1  0
 25 26  2  0
 27 30  1  0
 27 26  1  0
 28 27  2  0
 29 28  1  0
 29 24  2  0
 30 31  1  0
 31 36  2  0
 31 32  1  0
 32 33  2  0
 33 34  1  0
 34 38  1  0
 35 34  2  0
 36 35  1  0
 37 36  1  0
 39 40  1  0
 40 43  1  0
 40 42  1  0
 41 39  2  0
 44 19  1  0
 44 45  1  0
 46 44  1  0
 48 47  1  0
 49  1  1  0
 50 49  1  0
 50 51  1  0
 52 54  1  0
 52 51  1  0
 53 64  2  0
 54 59  1  0
 55 63  1  0
 55 65  1  0
 56 62  1  0
 56 58  1  0
 57 63  1  0
 58 57  1  0
 59 58  2  0
 60 61  1  0
 60 54  2  0
 61 56  2  0
 62 55  1  0
 63 53  1  0
 65 67  2  0
 66 65  1  0
 68 66  1  0
 69 78  2  0
 69 74  1  0
 70 66  1  0
 70 74  1  0
 71 70  1  0
 72 73  1  0
 72 71  1  0
 73 69  1  0
 74 75  2  0
 75 76  1  0
 77 76  2  0
 78 77  1  0
 79 53  1  0
 79 80  1  0
 79 89  1  0
 80 83  1  0
 81 85  1  0
 81 80  1  0
 82 81  2  0
 85 84  1  0
 87 85  1  0
 87 88  1  0
 87 86  1  0
 89 92  1  1
 89 90  1  0
 91 89  1  0
M  ISO  4   9 100  17 100  51 101  52 101
M  END
>  <TORSDO>  (2) 
F 21

>  <SCORE>  (2) 
-12.464

>  <name>  (2) 
1

>  <ligand_id>  (2) 
1

>  <original_smiles>  (2) 
[H]c1c([H])c([H])c2c(c1[H])C([H])([H])C([H])([H])C([H])([H])C2([H])N([H])C(=O)C1([H])N(C(=O)C([H])(N([H])C(=O)C([H])(N([H])C([H])([H])[H])C([H])([H])[H])C(C([H])([H])[H])(C([H])([H])[H])C([H])([H])[H])C([H])([H])c2c([H])c(OC([H])([H])C([H])([H])C([H])([H])N(c3c([H])c([H])c(N([H])C(=O)N4C([H])([H])C([H])([H])C([H])([H])C([H])(n5nc(-c6c([H])c([H])c(Oc7c([H])c([H])c(F)c([H])c7F)c([H])c6[H])c(C(=O)N([H])[H])c5N([H])[H])C4([H])[H])c(F)c3[H])C([H])([H])C([H])([H])[H])c([H])c([H])c2C1([H])[H]

>  <smiles>  (2) 
[H]c1c([H])c([H])c2c(c1[H])C([H])([H])C([H])([H])C([H])([H])C2([H])N([H])C(=O)C1([H])N(C(=O)C([H])(N([H])C(=O)C([H])(N([H])C([H])([H])[H])C([H])([H])[H])C(C([H])([H])[H])(C([H])([H])[H])C([H])([H])[H])C([H])([H])c2c([H])c(OC([H])([H])C([H])([H])C([H])([H])N(c3c([H])c([H])c(N([H])C(=O)N4C([H])([H])C([H])([H])C([H])([H])C([H])(n5nc(-c6c([H])c([H])c(Oc7c([H])c([H])c(F)c([H])c7F)c([H])c6[H])c(C(=O)N([H])[H])c5N([H])[H])C4([H])[H])c(F)c3[H])C([H])([H])C([H])([H])[H])c([H])c([H])c2C1([H])[H]

$$$$
2:0:0
     RDKit          3D

 90 98  0  0  1  0  0  0  0  0999 V2000
  -30.9700  -18.5900   19.7710 C   0  0  0  0  0  3  0  0  0  0  0  0
  -30.8820  -20.0350   19.6790 C   0  0  0  0  0  3  0  0  0  0  0  0
  -28.7940  -18.5570   20.6680 C   0  0  0  0  0  3  0  0  0  0  0  0
  -29.9120  -17.7530   20.2370 C   0  0  0  0  0  0  0  0  0  0  0  0
  -29.7370  -20.8460   20.0320 C   0  0  0  0  0  0  0  0  0  0  0  0
  -28.7080  -20.0100   20.5930 C   0  0  0  0  0  0  0  0  0  0  0  0
  -27.5530  -20.5980   20.9930 F   0  0  0  0  0  0  0  0  0  0  0  0
  -30.5550  -15.0860   20.1180 C   0  0  0  0  0  0  0  0  0  0  0  0
  -30.4170  -12.7090   19.2330 C   0  0  0  0  0  2  0  0  0  0  0  0
  -29.4700  -12.5890   18.0140 C   0  0  0  0  0  2  0  0  0  0  0  0
  -28.0010  -12.4330   18.4630 C   0  0  0  0  0  2  0  0  0  0  0  0
  -27.6000  -13.3700   19.6360 C   0  0  0  0  0  3  0  0  0  0  0  0
  -28.6810  -13.4340   20.7360 C   0  0  0  0  0  2  0  0  0  0  0  0
  -29.9400  -13.8310   20.0870 N   0  0  0  0  0  0  0  0  0  0  0  0
  -31.7840  -15.1120   19.9890 O   0  0  0  0  0  0  0  0  0  0  0  0
  -29.0170  -16.2540   18.6270 C   0  0  0  0  0  1  0  0  0  0  0  0
  -29.7770  -16.2720   19.8860 N   0  0  0  0  0  0  0  0  0  0  0  0
  -25.2310  -13.9700   20.3880 C   0  0  0  0  0  0  0  0  0  0  0  0
  -24.1680  -13.2010   20.7680 C   0  0  0  0  0  0  0  0  0  0  0  0
  -24.6350  -11.8500   20.7570 C   0  0  0  0  0  0  0  0  0  0  0  0
  -26.2730  -13.0860   20.1560 N   0  0  0  0  0  0  0  0  0  0  0  0
  -25.9250  -11.8090   20.4470 N   0  0  0  0  0  0  0  0  0  0  0  0
  -23.9150  -10.5890   20.9630 C   0  0  0  0  0  0  0  0  0  0  0  0
  -24.3520   -9.6390   21.9120 C   0  0  0  0  0  3  0  0  0  0  0  0
  -23.6320   -8.4410   22.1070 C   0  0  0  0  0  3  0  0  0  0  0  0
  -22.4610   -8.1860   21.3530 C   0  0  0  0  0  0  0  0  0  0  0  0
  -22.0440   -9.1260   20.3940 C   0  0  0  0  0  3  0  0  0  0  0  0
  -22.7650  -10.3140   20.1970 C   0  0  0  0  0  3  0  0  0  0  0  0
  -21.7110   -7.0400   21.4590 O   0  0  0  0  0  0  0  0  0  0  0  0
  -21.6670   -6.3150   22.6220 C   0  0  0  0  0  0  0  0  0  0  0  0
  -21.2370   -6.8840   23.8400 C   0  0  0  0  0  3  0  0  0  0  0  0
  -21.1410   -6.0840   24.9960 C   0  0  0  0  0  3  0  0  0  0  0  0
  -21.4640   -4.7140   24.9350 C   0  0  0  0  0  0  0  0  0  0  0  0
  -21.8860   -4.1450   23.7210 C   0  0  0  0  0  3  0  0  0  0  0  0
  -21.9850   -4.9430   22.5680 C   0  0  0  0  0  0  0  0  0  0  0  0
  -22.3730   -4.3840   21.3960 F   0  0  0  0  0  0  0  0  0  0  0  0
  -21.3620   -3.9440   26.0440 F   0  0  0  0  0  0  0  0  0  0  0  0
  -22.7690  -13.6780   21.0280 C   0  0  0  0  0  0  0  0  0  0  0  0
  -22.0390  -12.9920   21.8990 N   0  0  0  0  0  0  0  0  0  0  0  0
  -22.3320  -14.6960   20.4930 O   0  0  0  0  0  0  0  0  0  0  0  0
  -22.4050  -12.1700   22.3570 H   0  0  0  0  0  0  0  0  0  0  0  0
  -21.0980  -13.2940   22.1150 H   0  0  0  0  0  0  0  0  0  0  0  0
  -25.3910  -15.3400   20.1930 N   0  0  0  0  0  0  0  0  0  0  0  0
  -24.6230  -15.9930   20.3130 H   0  0  0  0  0  0  0  0  0  0  0  0
  -26.2450  -15.7800   19.8820 H   0  0  0  0  0  0  0  0  0  0  0  0
  -30.5510  -22.6680   18.6110 C   0  0  0  0  0  1  0  0  0  0  0  0
  -29.6270  -22.3020   19.6890 N   0  0  0  0  0  0  0  0  0  0  0  0
  -29.1830  -23.5630   20.4830 C   0  0  0  0  0  2  0  0  0  0  0  0
  -28.3720  -24.8540   19.7730 C   0  0  0  0  0  2  0  0  0  0  0  0
  -28.4850  -26.3560   20.1250 O   0  0  0  0  0  0  0  0  0  0  0  0
  -24.7150  -31.8780   23.1240 C   0  0  0  0  0  0  0  0  0  0  0  0
  -27.3890  -27.2830   20.0330 C   0  0  0  0  0  0  0  0  0  0  0  0
  -23.5360  -30.4790   21.4670 C   0  0  0  0  0  3  0  0  0  0  0  0
  -25.0130  -28.9540   20.0200 C   0  0  0  0  0  0  0  0  0  0  0  0
  -26.0800  -30.8040   21.3010 C   0  0  0  0  0  2  0  0  0  0  0  0
  -26.1790  -29.4250   20.6340 C   0  0  0  0  0  0  0  0  0  0  0  0
  -27.3630  -28.6030   20.6280 C   0  0  0  0  0  3  0  0  0  0  0  0
  -26.1990  -26.9110   19.3640 C   0  0  0  0  0  3  0  0  0  0  0  0
  -25.0330  -27.7100   19.3700 C   0  0  0  0  0  3  0  0  0  0  0  0
  -23.7660  -29.8200   20.0810 C   0  0  0  0  0  2  0  0  0  0  0  0
  -24.7960  -31.0760   22.0200 N   0  0  0  0  0  0  0  0  0  0  0  0
  -23.6250  -32.1360   23.6580 O   0  0  0  0  0  0  0  0  0  0  0  0
  -22.8800  -29.4500   22.4200 C   0  0  0  0  0  0  0  0  0  0  0  0
  -21.5500  -29.2800   22.3150 N   0  0  0  0  0  0  0  0  0  0  0  0
  -23.5680  -28.8060   23.2160 O   0  0  0  0  0  0  0  0  0  0  0  0
  -21.0520  -29.8530   21.6480 H   0  0  0  0  0  0  0  0  0  0  0  0
  -18.1760  -28.0830   22.8720 C   0  0  0  0  0  0  0  0  0  0  0  0
  -20.7430  -28.3230   23.0790 C   0  0  0  0  0  3  0  0  0  0  0  0
  -20.8210  -26.9090   22.4600 C   0  0  0  0  0  2  0  0  0  0  0  0
  -19.6900  -26.6220   21.4660 C   0  0  0  0  0  2  0  0  0  0  0  0
  -18.3270  -26.7540   22.1510 C   0  0  0  0  0  2  0  0  0  0  0  0
  -19.3100  -28.8270   23.2930 C   0  0  0  0  0  0  0  0  0  0  0  0
  -19.1130  -30.0720   23.9310 C   0  0  0  0  0  3  0  0  0  0  0  0
  -17.8160  -30.5720   24.1480 C   0  0  0  0  0  3  0  0  0  0  0  0
  -16.6960  -29.8240   23.7410 C   0  0  0  0  0  3  0  0  0  0  0  0
  -16.8790  -28.5810   23.1090 C   0  0  0  0  0  3  0  0  0  0  0  0
  -25.9850  -32.5270   23.7560 C   0  0  0  0  0  3  0  0  0  0  0  0
  -26.5170  -31.7460   25.0200 C   0  0  1  0  0  0  0  0  0  0  0  0
  -25.4320  -31.4740   26.0880 C   0  0  0  0  0  1  0  0  0  0  0  0
  -27.1210  -30.3830   24.6100 C   0  0  0  0  0  1  0  0  0  0  0  0
  -27.6550  -32.5500   25.6910 C   0  0  0  0  0  1  0  0  0  0  0  0
  -25.6470  -33.9140   24.1150 N   0  0  0  0  0  0  0  0  0  0  0  0
  -25.9520  -34.9900   23.3780 C   0  0  0  0  0  0  0  0  0  0  0  0
  -26.6150  -34.9210   22.3390 O   0  0  0  0  0  0  0  0  0  0  0  0
  -25.0580  -34.0390   24.9250 H   0  0  0  0  0  0  0  0  0  0  0  0
  -24.1870  -36.7580   23.0780 C   0  0  0  0  0  1  0  0  0  0  0  0
  -25.4440  -36.3590   23.8700 C   0  0  0  0  0  3  0  0  0  0  0  0
  -27.5650  -37.2700   24.7050 C   0  0  0  0  0  1  0  0  0  0  0  0
  -26.4550  -37.4350   23.7710 N   0  0  0  0  0  0  0  0  0  0  0  0
  -26.0330  -38.3440   23.9380 H   0  0  0  0  0  0  0  0  0  0  0  0
  1  4  1  0
  2  1  2  0
  2  5  1  0
  4  3  2  0
  5  6  2  0
  6  3  1  0
  6  7  1  0
  9 14  1  0
 10 11  1  0
 10  9  1  0
 12 11  1  0
 12 21  1  0
 12 13  1  0
 14  8  1  0
 14 13  1  0
 15  8  2  0
 16 17  1  0
 17  8  1  0
 17  4  1  0
 18 19  2  0
 19 38  1  0
 20 19  1  0
 20 23  1  0
 21 18  1  0
 21 22  1  0
 22 20  2  0
 23 24  1  0
 24 25  2  0
 26 29  1  0
 26 25  1  0
 27 26  2  0
 28 27  1  0
 28 23  2  0
 29 30  1  0
 30 31  1  0
 31 32  2  0
 33 32  1  0
 33 37  1  0
 34 33  2  0
 35 30  2  0
 35 34  1  0
 36 35  1  0
 38 39  1  0
 39 42  1  0
 39 41  1  0
 40 38  2  0
 43 44  1  0
 43 18  1  0
 45 43  1  0
 46 47  1  0
 47  5  1  0
 47 48  1  0
 49 50  1  0
 49 48  1  0
 51 62  2  0
 52 50  1  0
 52 57  1  0
 53 61  1  0
 53 63  1  0
 54 60  1  0
 54 56  1  0
 55 61  1  0
 56 55  1  0
 57 56  2  0
 58 59  1  0
 58 52  2  0
 59 54  2  0
 60 53  1  0
 61 51  1  0
 63 65  2  0
 64 63  1  0
 66 64  1  0
 67 76  2  0
 67 72  1  0
 68 64  1  0
 68 72  1  0
 69 68  1  0
 70 71  1  0
 70 69  1  0
 71 67  1  0
 72 73  2  0
 73 74  1  0
 75 74  2  0
 76 75  1  0
 77 51  1  0
 77 82  1  0
 77 78  1  0
 78 81  1  1
 78 79  1  0
 80 78  1  0
 82 85  1  0
 83 87  1  0
 83 82  1  0
 84 83  2  0
 87 86  1  0
 89 87  1  0
 89 90  1  0
 89 88  1  0
M  ISO  4   8 100  17 100  49 101  50 101
M  END
>  <TORSDO>  (3) 
F 19

>  <SCORE>  (3) 
-13.731

>  <name>  (3) 
2

>  <ligand_id>  (3) 
2

>  <original_smiles>  (3) 
[H]c1c([H])c([H])c2c(c1[H])C([H])([H])C([H])([H])C([H])([H])C2([H])N([H])C(=O)C1([H])N(C(=O)C([H])(N([H])C(=O)C([H])(N([H])C([H])([H])[H])C([H])([H])[H])C(C([H])([H])[H])(C([H])([H])[H])C([H])([H])[H])C([H])([H])c2c([H])c(OC([H])([H])C([H])([H])N(c3c([H])c([H])c(N(C(=O)N4C([H])([H])C([H])([H])C([H])([H])C([H])(n5nc(-c6c([H])c([H])c(Oc7c([H])c([H])c(F)c([H])c7F)c([H])c6[H])c(C(=O)N([H])[H])c5N([H])[H])C4([H])[H])C([H])([H])[H])c([H])c3F)C([H])([H])[H])c([H])c([H])c2C1([H])[H]

>  <smiles>  (3) 
[H]c1c([H])c([H])c2c(c1[H])C([H])([H])C([H])([H])C([H])([H])C2([H])N([H])C(=O)C1([H])N(C(=O)C([H])(N([H])C(=O)C([H])(N([H])C([H])([H])[H])C([H])([H])[H])C(C([H])([H])[H])(C([H])([H])[H])C([H])([H])[H])C([H])([H])c2c([H])c(OC([H])([H])C([H])([H])N(c3c([H])c([H])c(N(C(=O)N4C([H])([H])C([H])([H])C([H])([H])C([H])(n5nc(-c6c([H])c([H])c(Oc7c([H])c([H])c(F)c([H])c7F)c([H])c6[H])c(C(=O)N([H])[H])c5N([H])[H])C4([H])[H])C([H])([H])[H])c([H])c3F)C([H])([H])[H])c([H])c([H])c2C1([H])[H]

$$$$
3:0:0
     RDKit          3D

 91 99  0  0  1  0  0  0  0  0999 V2000
  -30.6040  -18.0400   20.5980 C   0  0  0  0  0  3  0  0  0  0  0  0
  -28.2190  -18.9520   19.4760 C   0  0  0  0  0  3  0  0  0  0  0  0
  -29.6140  -17.0660   20.3110 C   0  0  0  0  0  0  0  0  0  0  0  0
  -29.1570  -19.9530   19.8550 C   0  0  0  0  0  0  0  0  0  0  0  0
  -30.3790  -19.4410   20.3930 C   0  0  0  0  0  0  0  0  0  0  0  0
  -28.4270  -17.5600   19.7140 C   0  0  0  0  0  0  0  0  0  0  0  0
  -31.3830  -20.2890   20.7110 F   0  0  0  0  0  0  0  0  0  0  0  0
  -27.4520  -16.6870   19.3690 F   0  0  0  0  0  0  0  0  0  0  0  0
  -30.5300  -14.6460   20.3810 C   0  0  0  0  0  0  0  0  0  0  0  0
  -30.3560  -12.4080   19.3300 C   0  0  0  0  0  2  0  0  0  0  0  0
  -29.4070  -12.5560   18.1180 C   0  0  0  0  0  2  0  0  0  0  0  0
  -27.9290  -12.4280   18.5360 C   0  0  0  0  0  2  0  0  0  0  0  0
  -27.5820  -13.2710   19.7900 C   0  0  0  0  0  3  0  0  0  0  0  0
  -28.6350  -13.0610   20.9000 C   0  0  0  0  0  2  0  0  0  0  0  0
  -29.9490  -13.4070   20.3350 N   0  0  0  0  0  0  0  0  0  0  0  0
  -31.6900  -14.8310   19.9970 O   0  0  0  0  0  0  0  0  0  0  0  0
  -29.6870  -15.6630   20.7290 N   0  0  0  0  0  0  0  0  0  0  0  0
  -28.8090  -15.3060   21.0760 H   0  0  0  0  0  0  0  0  0  0  0  0
  -25.1870  -13.8870   20.5090 C   0  0  0  0  0  0  0  0  0  0  0  0
  -24.1190  -13.1190   20.8740 C   0  0  0  0  0  0  0  0  0  0  0  0
  -24.5740  -11.7640   20.8450 C   0  0  0  0  0  0  0  0  0  0  0  0
  -26.2300  -13.0020   20.2690 N   0  0  0  0  0  0  0  0  0  0  0  0
  -25.8640  -11.7200   20.5360 N   0  0  0  0  0  0  0  0  0  0  0  0
  -23.8430  -10.5090   21.0390 C   0  0  0  0  0  0  0  0  0  0  0  0
  -24.2790   -9.5400   21.9680 C   0  0  0  0  0  3  0  0  0  0  0  0
  -23.5490   -8.3460   22.1500 C   0  0  0  0  0  3  0  0  0  0  0  0
  -22.3690   -8.1150   21.4050 C   0  0  0  0  0  0  0  0  0  0  0  0
  -21.9530   -9.0730   20.4640 C   0  0  0  0  0  3  0  0  0  0  0  0
  -22.6830  -10.2570   20.2780 C   0  0  0  0  0  3  0  0  0  0  0  0
  -21.6080   -6.9740   21.4990 O   0  0  0  0  0  0  0  0  0  0  0  0
  -21.5760   -6.2230   22.6480 C   0  0  0  0  0  0  0  0  0  0  0  0
  -21.1910   -6.7750   23.8890 C   0  0  0  0  0  3  0  0  0  0  0  0
  -21.1010   -5.9510   25.0290 C   0  0  0  0  0  3  0  0  0  0  0  0
  -21.3920   -4.5780   24.9310 C   0  0  0  0  0  0  0  0  0  0  0  0
  -21.7720   -4.0240   23.6960 C   0  0  0  0  0  3  0  0  0  0  0  0
  -21.8620   -4.8450   22.5570 C   0  0  0  0  0  0  0  0  0  0  0  0
  -22.2070   -4.3030   21.3640 F   0  0  0  0  0  0  0  0  0  0  0  0
  -21.2990   -3.7860   26.0240 F   0  0  0  0  0  0  0  0  0  0  0  0
  -22.7220  -13.6020   21.1410 C   0  0  0  0  0  0  0  0  0  0  0  0
  -21.9870  -12.9120   22.0030 N   0  0  0  0  0  0  0  0  0  0  0  0
  -22.2890  -14.6260   20.6110 O   0  0  0  0  0  0  0  0  0  0  0  0
  -22.3550  -12.0860   22.4540 H   0  0  0  0  0  0  0  0  0  0  0  0
  -21.0450  -13.2050   22.2200 H   0  0  0  0  0  0  0  0  0  0  0  0
  -25.3360  -15.2600   20.3470 N   0  0  0  0  0  0  0  0  0  0  0  0
  -24.5470  -15.8850   20.4960 H   0  0  0  0  0  0  0  0  0  0  0  0
  -26.1550  -15.7360   19.9800 H   0  0  0  0  0  0  0  0  0  0  0  0
  -28.8300  -21.3200   19.6080 O   0  0  0  0  0  0  0  0  0  0  0  0
  -29.3030  -22.4620   20.4190 C   0  0  0  0  0  2  0  0  0  0  0  0
  -29.1080  -23.9620   19.8460 C   0  0  0  0  0  3  0  0  0  0  0  0
  -28.1740  -25.0450   20.5590 C   0  0  0  0  0  3  0  0  0  0  0  0
  -28.3630  -26.4860   20.2210 O   0  0  0  0  0  0  0  0  0  0  0  0
  -24.6170  -31.9110   23.2470 C   0  0  0  0  0  0  0  0  0  0  0  0
  -27.2460  -27.3360   20.2150 C   0  0  0  0  0  0  0  0  0  0  0  0
  -23.4240  -30.5070   21.6050 C   0  0  0  0  0  3  0  0  0  0  0  0
  -24.8840  -28.9520   20.1940 C   0  0  0  0  0  0  0  0  0  0  0  0
  -25.9680  -30.8160   21.4470 C   0  0  0  0  0  2  0  0  0  0  0  0
  -26.0490  -29.4370   20.8000 C   0  0  0  0  0  0  0  0  0  0  0  0
  -27.2350  -28.6400   20.8010 C   0  0  0  0  0  3  0  0  0  0  0  0
  -26.0620  -26.9100   19.5750 C   0  0  0  0  0  3  0  0  0  0  0  0
  -24.8940  -27.6950   19.5670 C   0  0  0  0  0  3  0  0  0  0  0  0
  -23.6480  -29.8270   20.2290 C   0  0  0  0  0  2  0  0  0  0  0  0
  -24.6880  -31.0960   22.1550 N   0  0  0  0  0  0  0  0  0  0  0  0
  -23.5300  -32.1930   23.7720 O   0  0  0  0  0  0  0  0  0  0  0  0
  -22.7560  -29.4960   22.5670 C   0  0  0  0  0  0  0  0  0  0  0  0
  -21.4290  -29.3290   22.4430 N   0  0  0  0  0  0  0  0  0  0  0  0
  -23.4330  -28.8590   23.3810 O   0  0  0  0  0  0  0  0  0  0  0  0
  -20.9400  -29.9020   21.7680 H   0  0  0  0  0  0  0  0  0  0  0  0
  -18.0440  -28.1450   22.9620 C   0  0  0  0  0  0  0  0  0  0  0  0
  -20.6080  -28.3870   23.2020 C   0  0  0  0  0  3  0  0  0  0  0  0
  -20.6980  -26.9670   22.5910 C   0  0  0  0  0  2  0  0  0  0  0  0
  -19.5600  -26.6410   21.6140 C   0  0  0  0  0  2  0  0  0  0  0  0
  -18.2020  -26.7850   22.3000 C   0  0  0  0  0  2  0  0  0  0  0  0
  -19.1730  -28.9020   23.3750 C   0  0  0  0  0  0  0  0  0  0  0  0
  -18.9680  -30.1720   23.9600 C   0  0  0  0  0  3  0  0  0  0  0  0
  -17.6700  -30.6870   24.1290 C   0  0  0  0  0  3  0  0  0  0  0  0
  -16.5570  -29.9290   23.7280 C   0  0  0  0  0  3  0  0  0  0  0  0
  -16.7450  -28.6590   23.1530 C   0  0  0  0  0  3  0  0  0  0  0  0
  -25.8970  -32.5450   23.8770 C   0  0  0  0  0  3  0  0  0  0  0  0
  -26.4030  -31.7790   25.1610 C   0  0  1  0  0  0  0  0  0  0  0  0
  -25.3000  -31.5480   26.2190 C   0  0  0  0  0  1  0  0  0  0  0  0
  -26.9900  -30.3990   24.7850 C   0  0  0  0  0  1  0  0  0  0  0  0
  -27.5540  -32.5730   25.8230 C   0  0  0  0  0  1  0  0  0  0  0  0
  -25.5860  -33.9450   24.2010 N   0  0  0  0  0  0  0  0  0  0  0  0
  -25.9150  -34.9950   23.4400 C   0  0  0  0  0  0  0  0  0  0  0  0
  -26.5880  -34.8870   22.4100 O   0  0  0  0  0  0  0  0  0  0  0  0
  -24.9970  -34.1030   25.0060 H   0  0  0  0  0  0  0  0  0  0  0  0
  -24.1830  -36.7780   23.0760 C   0  0  0  0  0  1  0  0  0  0  0  0
  -25.4240  -36.3840   23.8920 C   0  0  0  0  0  3  0  0  0  0  0  0
  -27.5570  -37.2750   24.7180 C   0  0  0  0  0  1  0  0  0  0  0  0
  -26.4550  -37.4380   23.7730 N   0  0  0  0  0  0  0  0  0  0  0  0
  -26.0490  -38.3590   23.9150 H   0  0  0  0  0  0  0  0  0  0  0  0
  2  6  2  0
  2  4  1  0
  3  1  2  0
  3 17  1  0
  4  5  2  0
  5  1  1  0
  5  7  1  0
  6  3  1  0
  8  6  1  0
  9 17  1  0
 10 15  1  0
 11 12  1  0
 11 10  1  0
 13 12  1  0
 13 22  1  0
 13 14  1  0
 15  9  1  0
 15 14  1  0
 16  9  2  0
 17 18  1  0
 19 20  2  0
 20 39  1  0
 21 20  1  0
 21 24  1  0
 22 19  1  0
 22 23  1  0
 23 21  2  0
 24 25  1  0
 25 26  2  0
 27 30  1  0
 27 26  1  0
 28 27  2  0
 29 28  1  0
 29 24  2  0
 30 31  1  0
 31 32  1  0
 32 33  2  0
 34 33  1  0
 34 38  1  0
 35 34  2  0
 36 31  2  0
 36 35  1  0
 37 36  1  0
 39 40  1  0
 40 43  1  0
 40 42  1  0
 41 39  2  0
 44 45  1  0
 44 19  1  0
 46 44  1  0
 47  4  1  0
 47 48  1  0
 49 48  1  0
 49 50  2  0
 51 50  1  0
 52 63  2  0
 53 51  1  0
 53 58  1  0
 54 62  1  0
 54 64  1  0
 55 61  1  0
 55 57  1  0
 56 62  1  0
 57 58  2  0
 57 56  1  0
 59 53  2  0
 60 59  1  0
 60 55  2  0
 61 54  1  0
 62 52  1  0
 64 66  2  0
 65 64  1  0
 67 65  1  0
 68 77  2  0
 68 73  1  0
 69 65  1  0
 69 73  1  0
 70 69  1  0
 71 72  1  0
 71 70  1  0
 72 68  1  0
 73 74  2  0
 74 75  1  0
 76 75  2  0
 77 76  1  0
 78 52  1  0
 78 83  1  0
 78 79  1  0
 79 82  1  1
 79 80  1  0
 81 79  1  0
 83 86  1  0
 84 88  1  0
 84 83  1  0
 85 84  2  0
 88 87  1  0
 90 88  1  0
 90 91  1  0
 90 89  1  0
M  ISO  4   9 100  17 100  50 101  51 101
M  END
>  <TORSDO>  (4) 
F 20

>  <SCORE>  (4) 
-14.179

>  <name>  (4) 
3

>  <ligand_id>  (4) 
3

>  <original_smiles>  (4) 
[H]c1c([H])c([H])c2c(c1[H])C([H])([H])C([H])([H])C([H])([H])C2([H])N([H])C(=O)C1([H])N(C(=O)C([H])(N([H])C(=O)C([H])(N([H])C([H])([H])[H])C([H])([H])[H])C(C([H])([H])[H])(C([H])([H])[H])C([H])([H])[H])C([H])([H])c2c([H])c(OC([H])([H])C([H])([H])C([H])([H])Oc3c([H])c(F)c(N([H])C(=O)N4C([H])([H])C([H])([H])C([H])([H])C([H])(n5nc(-c6c([H])c([H])c(Oc7c([H])c([H])c(F)c([H])c7F)c([H])c6[H])c(C(=O)N([H])[H])c5N([H])[H])C4([H])[H])c([H])c3F)c([H])c([H])c2C1([H])[H]

>  <smiles>  (4) 
[H]c1c([H])c([H])c2c(c1[H])C([H])([H])C([H])([H])C([H])([H])C2([H])N([H])C(=O)C1([H])N(C(=O)C([H])(N([H])C(=O)C([H])(N([H])C([H])([H])[H])C([H])([H])[H])C(C([H])([H])[H])(C([H])([H])[H])C([H])([H])[H])C([H])([H])c2c([H])c(OC([H])([H])C([H])([H])C([H])([H])Oc3c([H])c(F)c(N([H])C(=O)N4C([H])([H])C([H])([H])C([H])([H])C([H])(n5nc(-c6c([H])c([H])c(Oc7c([H])c([H])c(F)c([H])c7F)c([H])c6[H])c(C(=O)N([H])[H])c5N([H])[H])C4([H])[H])c([H])c3F)c([H])c([H])c2C1([H])[H]

$$$$
4:0:0
     RDKit          3D

 92101  0  0  1  0  0  0  0  0999 V2000
  -28.9360  -24.0310   18.9430 C   0  0  0  0  0  2  0  0  0  0  0  0
  -29.1060  -24.0560   21.3500 C   0  0  0  0  0  2  0  0  0  0  0  0
  -28.8210  -22.4330   18.9570 C   0  0  0  0  0  2  0  0  0  0  0  0
  -28.9530  -22.4690   21.3770 C   0  0  0  0  0  2  0  0  0  0  0  0
  -28.3780  -24.8120   20.1890 C   0  0  0  0  0  3  0  0  0  0  0  0
  -29.3730  -21.7360   20.1490 N   0  0  0  0  0  0  0  0  0  0  0  0
  -30.0010  -19.4630   19.0690 C   0  0  0  0  0  3  0  0  0  0  0  0
  -30.2670  -18.0370   19.1460 C   0  0  0  0  0  3  0  0  0  0  0  0
  -29.4110  -19.4870   21.3520 C   0  0  0  0  0  3  0  0  0  0  0  0
  -29.5820  -20.2740   20.1780 C   0  0  0  0  0  0  0  0  0  0  0  0
  -30.1390  -17.2630   20.3470 C   0  0  0  0  0  0  0  0  0  0  0  0
  -29.6560  -18.0740   21.4370 C   0  0  0  0  0  0  0  0  0  0  0  0
  -29.3920  -17.5130   22.6400 F   0  0  0  0  0  0  0  0  0  0  0  0
  -30.9230  -14.8160   19.6210 C   0  0  0  0  0  0  0  0  0  0  0  0
  -30.5910  -12.5930   18.4710 C   0  0  0  0  0  2  0  0  0  0  0  0
  -29.4870  -12.6920   17.3940 C   0  0  0  0  0  2  0  0  0  0  0  0
  -28.0980  -12.4540   18.0130 C   0  0  0  0  0  2  0  0  0  0  0  0
  -27.8870  -13.2740   19.3110 C   0  0  0  0  0  3  0  0  0  0  0  0
  -29.0880  -13.1420   20.2690 C   0  0  0  0  0  2  0  0  0  0  0  0
  -30.2930  -13.5790   19.5440 N   0  0  0  0  0  0  0  0  0  0  0  0
  -31.9250  -15.0180   18.9270 O   0  0  0  0  0  0  0  0  0  0  0  0
  -30.8030  -15.3760   21.9100 C   0  0  0  0  0  1  0  0  0  0  0  0
  -30.4740  -15.7860   20.5280 N   0  0  0  0  0  0  0  0  0  0  0  0
  -25.6660  -13.7920   20.4820 C   0  0  0  0  0  0  0  0  0  0  0  0
  -24.6480  -12.9900   20.9210 C   0  0  0  0  0  0  0  0  0  0  0  0
  -25.0570  -11.6490   20.6480 C   0  0  0  0  0  0  0  0  0  0  0  0
  -26.6290  -12.9390   19.9700 N   0  0  0  0  0  0  0  0  0  0  0  0
  -26.2790  -11.6360   20.1290 N   0  0  0  0  0  0  0  0  0  0  0  0
  -24.3300  -10.3810   20.7970 C   0  0  0  0  0  0  0  0  0  0  0  0
  -24.8190   -9.3390   21.6170 C   0  0  0  0  0  3  0  0  0  0  0  0
  -24.0920   -8.1380   21.7580 C   0  0  0  0  0  3  0  0  0  0  0  0
  -22.8620   -7.9680   21.0790 C   0  0  0  0  0  0  0  0  0  0  0  0
  -22.3900   -8.9990   20.2470 C   0  0  0  0  0  3  0  0  0  0  0  0
  -23.1180  -10.1920   20.1030 C   0  0  0  0  0  3  0  0  0  0  0  0
  -22.1000   -6.8270   21.1360 O   0  0  0  0  0  0  0  0  0  0  0  0
  -22.0530   -6.0480   22.2640 C   0  0  0  0  0  0  0  0  0  0  0  0
  -21.6450   -6.5690   23.5120 C   0  0  0  0  0  3  0  0  0  0  0  0
  -21.5440   -5.7180   24.6300 C   0  0  0  0  0  3  0  0  0  0  0  0
  -21.8390   -4.3480   24.5030 C   0  0  0  0  0  0  0  0  0  0  0  0
  -22.2400   -3.8260   23.2610 C   0  0  0  0  0  3  0  0  0  0  0  0
  -22.3440   -4.6740   22.1430 C   0  0  0  0  0  0  0  0  0  0  0  0
  -22.7080   -4.1630   20.9430 F   0  0  0  0  0  0  0  0  0  0  0  0
  -21.7350   -3.5290   25.5760 F   0  0  0  0  0  0  0  0  0  0  0  0
  -23.3290  -13.4450   21.4750 C   0  0  0  0  0  0  0  0  0  0  0  0
  -22.7380  -12.6640   22.3710 N   0  0  0  0  0  0  0  0  0  0  0  0
  -22.8370  -14.5240   21.1470 O   0  0  0  0  0  0  0  0  0  0  0  0
  -23.1510  -11.7870   22.6530 H   0  0  0  0  0  0  0  0  0  0  0  0
  -21.8600  -12.9460   22.7840 H   0  0  0  0  0  0  0  0  0  0  0  0
  -25.8450  -15.1720   20.4530 N   0  0  0  0  0  0  0  0  0  0  0  0
  -25.1360  -15.8200   20.7760 H   0  0  0  0  0  0  0  0  0  0  0  0
  -26.6600  -15.6340   20.0700 H   0  0  0  0  0  0  0  0  0  0  0  0
  -28.5360  -26.3320   20.1970 O   0  0  0  0  0  0  0  0  0  0  0  0
  -24.7440  -31.8330   23.1280 C   0  0  0  0  0  0  0  0  0  0  0  0
  -27.4280  -27.2230   20.1280 C   0  0  0  0  0  0  0  0  0  0  0  0
  -23.5830  -30.4340   21.4590 C   0  0  0  0  0  3  0  0  0  0  0  0
  -25.0690  -28.8840   20.0580 C   0  0  0  0  0  0  0  0  0  0  0  0
  -26.1310  -30.7430   21.3370 C   0  0  0  0  0  2  0  0  0  0  0  0
  -26.2270  -29.3600   20.6860 C   0  0  0  0  0  0  0  0  0  0  0  0
  -27.4080  -28.5430   20.7040 C   0  0  0  0  0  3  0  0  0  0  0  0
  -26.2490  -26.8270   19.4600 C   0  0  0  0  0  3  0  0  0  0  0  0
  -25.0880  -27.6270   19.4320 C   0  0  0  0  0  3  0  0  0  0  0  0
  -23.8310  -29.7610   20.0830 C   0  0  0  0  0  2  0  0  0  0  0  0
  -24.8370  -31.0240   22.0310 N   0  0  0  0  0  0  0  0  0  0  0  0
  -23.6480  -32.1050   23.6400 O   0  0  0  0  0  0  0  0  0  0  0  0
  -22.8990  -29.4170   22.4030 C   0  0  0  0  0  0  0  0  0  0  0  0
  -21.5670  -29.2760   22.2850 N   0  0  0  0  0  0  0  0  0  0  0  0
  -23.5670  -28.7570   23.2050 O   0  0  0  0  0  0  0  0  0  0  0  0
  -21.0870  -29.8590   21.6140 H   0  0  0  0  0  0  0  0  0  0  0  0
  -18.1600  -28.1810   22.8270 C   0  0  0  0  0  0  0  0  0  0  0  0
  -20.7320  -28.3410   23.0420 C   0  0  0  0  0  3  0  0  0  0  0  0
  -20.7690  -26.9280   22.4130 C   0  0  0  0  0  2  0  0  0  0  0  0
  -19.6330  -26.6820   21.4150 C   0  0  0  0  0  2  0  0  0  0  0  0
  -18.2730  -26.8520   22.0970 C   0  0  0  0  0  2  0  0  0  0  0  0
  -19.3150  -28.8870   23.2560 C   0  0  0  0  0  0  0  0  0  0  0  0
  -19.1550  -30.1330   23.8990 C   0  0  0  0  0  3  0  0  0  0  0  0
  -17.8730  -30.6720   24.1170 C   0  0  0  0  0  3  0  0  0  0  0  0
  -16.7330  -29.9610   23.7040 C   0  0  0  0  0  3  0  0  0  0  0  0
  -16.8770  -28.7170   23.0640 C   0  0  0  0  0  3  0  0  0  0  0  0
  -26.0090  -32.4710   23.7810 C   0  0  0  0  0  3  0  0  0  0  0  0
  -25.6750  -33.8570   24.1410 N   0  0  0  0  0  0  0  0  0  0  0  0
  -25.9810  -34.9330   23.4040 C   0  0  0  0  0  0  0  0  0  0  0  0
  -26.6430  -34.8640   22.3650 O   0  0  0  0  0  0  0  0  0  0  0  0
  -25.0850  -33.9840   24.9520 H   0  0  0  0  0  0  0  0  0  0  0  0
  -24.2120  -36.6970   23.1090 C   0  0  0  0  0  1  0  0  0  0  0  0
  -25.4730  -36.3030   23.8950 C   0  0  0  0  0  3  0  0  0  0  0  0
  -27.6000  -37.2160   24.7130 C   0  0  0  0  0  1  0  0  0  0  0  0
  -26.4810  -37.3790   23.7890 N   0  0  0  0  0  0  0  0  0  0  0  0
  -26.0570  -38.2870   23.9600 H   0  0  0  0  0  0  0  0  0  0  0  0
  -26.5180  -31.6810   25.0500 C   0  0  1  0  0  0  0  0  0  0  0  0
  -25.4150  -31.4090   26.0990 C   0  0  0  0  0  1  0  0  0  0  0  0
  -27.1240  -30.3190   24.6400 C   0  0  0  0  0  1  0  0  0  0  0  0
  -27.6500  -32.4760   25.7410 C   0  0  0  0  0  1  0  0  0  0  0  0
  1  3  1  0
  1  5  1  0
  2  4  1  0
  3  6  1  0
  5 52  1  0
  5  2  1  0
  6 10  1  0
  6  4  1  0
  7  8  2  0
  7 10  1  0
  8 11  1  0
  9 12  1  0
 10  9  2  0
 11 23  1  0
 11 12  2  0
 12 13  1  0
 14 23  1  0
 15 20  1  0
 16 17  1  0
 16 15  1  0
 18 17  1  0
 18 27  1  0
 18 19  1  0
 20 14  1  0
 20 19  1  0
 21 14  2  0
 23 22  1  0
 24 25  2  0
 25 44  1  0
 26 29  1  0
 26 25  1  0
 27 28  1  0
 27 24  1  0
 28 26  2  0
 29 30  1  0
 30 31  2  0
 32 35  1  0
 32 31  1  0
 33 32  2  0
 34 33  1  0
 34 29  2  0
 35 36  1  0
 36 37  1  0
 37 38  2  0
 39 38  1  0
 39 43  1  0
 40 39  2  0
 41 36  2  0
 41 40  1  0
 42 41  1  0
 44 45  1  0
 45 47  1  0
 45 48  1  0
 46 44  2  0
 49 24  1  0
 49 50  1  0
 51 49  1  0
 53 64  2  0
 54 52  1  0
 54 59  1  0
 55 63  1  0
 55 65  1  0
 56 62  1  0
 56 58  1  0
 57 63  1  0
 58 59  2  0
 58 57  1  0
 60 54  2  0
 61 60  1  0
 61 56  2  0
 62 55  1  0
 63 53  1  0
 65 67  2  0
 66 65  1  0
 68 66  1  0
 69 78  2  0
 69 74  1  0
 70 66  1  0
 70 74  1  0
 71 70  1  0
 72 73  1  0
 72 71  1  0
 73 69  1  0
 74 75  2  0
 75 76  1  0
 77 76  2  0
 78 77  1  0
 79 53  1  0
 79 80  1  0
 79 89  1  0
 80 83  1  0
 81 85  1  0
 81 80  1  0
 82 81  2  0
 85 84  1  0
 87 85  1  0
 87 88  1  0
 87 86  1  0
 89 92  1  1
 89 90  1  0
 91 89  1  0
M  ISO  4   5 101  14 100  23 100  52 101
M  END
>  <TORSDO>  (5) 
F 17

>  <SCORE>  (5) 
-12.045

>  <name>  (5) 
4

>  <ligand_id>  (5) 
4

>  <original_smiles>  (5) 
[H]c1c([H])c([H])c2c(c1[H])C([H])([H])C([H])([H])C([H])([H])C2([H])N([H])C(=O)C1([H])N(C(=O)C([H])(N([H])C(=O)C([H])(N([H])C([H])([H])[H])C([H])([H])[H])C(C([H])([H])[H])(C([H])([H])[H])C([H])([H])[H])C([H])([H])c2c([H])c(OC3([H])C([H])([H])C([H])([H])N(c4c([H])c([H])c(N(C(=O)N5C([H])([H])C([H])([H])C([H])([H])C([H])(n6nc(-c7c([H])c([H])c(Oc8c([H])c([H])c(F)c([H])c8F)c([H])c7[H])c(C(=O)N([H])[H])c6N([H])[H])C5([H])[H])C([H])([H])[H])c(F)c4[H])C([H])([H])C3([H])[H])c([H])c([H])c2C1([H])[H]

>  <smiles>  (5) 
[H]c1c([H])c([H])c2c(c1[H])C([H])([H])C([H])([H])C([H])([H])C2([H])N([H])C(=O)C1([H])N(C(=O)C([H])(N([H])C(=O)C([H])(N([H])C([H])([H])[H])C([H])([H])[H])C(C([H])([H])[H])(C([H])([H])[H])C([H])([H])[H])C([H])([H])c2c([H])c(OC3([H])C([H])([H])C([H])([H])N(c4c([H])c([H])c(N(C(=O)N5C([H])([H])C([H])([H])C([H])([H])C([H])(n6nc(-c7c([H])c([H])c(Oc8c([H])c([H])c(F)c([H])c8F)c([H])c7[H])c(C(=O)N([H])[H])c6N([H])[H])C5([H])[H])C([H])([H])[H])c(F)c4[H])C([H])([H])C3([H])[H])c([H])c([H])c2C1([H])[H]

$$$$
5:0:0
     RDKit          3D

 92100  0  0  1  0  0  0  0  0999 V2000
  -28.9910  -19.2310   21.1560 C   0  0  0  0  0  3  0  0  0  0  0  0
  -28.9830  -20.6650   21.0770 C   0  0  0  0  0  3  0  0  0  0  0  0
  -29.6670  -20.5190   18.7900 C   0  0  0  0  0  3  0  0  0  0  0  0
  -29.3380  -18.3970   20.0510 C   0  0  0  0  0  0  0  0  0  0  0  0
  -29.3080  -21.3640   19.8790 C   0  0  0  0  0  0  0  0  0  0  0  0
  -29.6810  -19.0960   18.8650 C   0  0  0  0  0  0  0  0  0  0  0  0
  -30.0040  -18.3930   17.7530 F   0  0  0  0  0  0  0  0  0  0  0  0
  -30.7700  -23.1750   19.3620 C   0  0  0  0  0  1  0  0  0  0  0  0
  -29.3960  -22.8030   19.7190 N   0  0  0  0  0  0  0  0  0  0  0  0
  -27.1280  -23.4870   20.6060 C   0  0  0  0  0  1  0  0  0  0  0  0
  -28.5820  -23.9120   20.3520 C   0  0  0  0  0  3  0  0  0  0  0  0
  -28.5690  -25.3040   19.5310 C   0  0  0  0  0  2  0  0  0  0  0  0
  -28.4070  -26.6090   20.2120 O   0  0  0  0  0  0  0  0  0  0  0  0
  -24.6080  -31.9130   23.2430 C   0  0  0  0  0  0  0  0  0  0  0  0
  -27.2500  -27.3990   20.1440 C   0  0  0  0  0  0  0  0  0  0  0  0
  -23.4090  -30.5150   21.5980 C   0  0  0  0  0  3  0  0  0  0  0  0
  -24.8660  -28.9850   20.1530 C   0  0  0  0  0  0  0  0  0  0  0  0
  -25.9420  -30.8570   21.4040 C   0  0  0  0  0  2  0  0  0  0  0  0
  -26.0290  -29.4830   20.7500 C   0  0  0  0  0  0  0  0  0  0  0  0
  -27.2180  -28.6980   20.7400 C   0  0  0  0  0  3  0  0  0  0  0  0
  -26.0570  -26.9440   19.5360 C   0  0  0  0  0  3  0  0  0  0  0  0
  -24.8820  -27.7220   19.5380 C   0  0  0  0  0  3  0  0  0  0  0  0
  -23.6220  -29.8480   20.2110 C   0  0  0  0  0  2  0  0  0  0  0  0
  -24.6730  -31.1120   22.1390 N   0  0  0  0  0  0  0  0  0  0  0  0
  -23.5250  -32.1790   23.7840 O   0  0  0  0  0  0  0  0  0  0  0  0
  -22.7600  -29.4880   22.5540 C   0  0  0  0  0  0  0  0  0  0  0  0
  -21.4350  -29.2970   22.4280 N   0  0  0  0  0  0  0  0  0  0  0  0
  -23.4460  -28.8630   23.3690 O   0  0  0  0  0  0  0  0  0  0  0  0
  -20.9420  -29.8560   21.7460 H   0  0  0  0  0  0  0  0  0  0  0  0
  -18.0690  -28.0760   22.9280 C   0  0  0  0  0  0  0  0  0  0  0  0
  -20.6260  -28.3480   23.1920 C   0  0  0  0  0  3  0  0  0  0  0  0
  -20.7350  -26.9230   22.6010 C   0  0  0  0  0  2  0  0  0  0  0  0
  -19.6300  -26.6030   21.5890 C   0  0  0  0  0  2  0  0  0  0  0  0
  -18.2500  -26.7330   22.2390 C   0  0  0  0  0  2  0  0  0  0  0  0
  -19.1840  -28.8400   23.3610 C   0  0  0  0  0  0  0  0  0  0  0  0
  -18.9610  -30.0970   23.9640 C   0  0  0  0  0  3  0  0  0  0  0  0
  -17.6540  -30.5900   24.1390 C   0  0  0  0  0  3  0  0  0  0  0  0
  -16.5520  -29.8220   23.7230 C   0  0  0  0  0  3  0  0  0  0  0  0
  -16.7610  -28.5670   23.1240 C   0  0  0  0  0  3  0  0  0  0  0  0
  -25.8880  -32.5510   23.8670 C   0  0  0  0  0  3  0  0  0  0  0  0
  -26.3970  -31.7910   25.1540 C   0  0  1  0  0  0  0  0  0  0  0  0
  -25.2960  -31.5580   26.2150 C   0  0  0  0  0  1  0  0  0  0  0  0
  -26.9860  -30.4130   24.7750 C   0  0  0  0  0  1  0  0  0  0  0  0
  -27.5420  -32.5930   25.8170 C   0  0  0  0  0  1  0  0  0  0  0  0
  -25.5790  -33.9530   24.1840 N   0  0  0  0  0  0  0  0  0  0  0  0
  -25.9250  -34.9980   23.4210 C   0  0  0  0  0  0  0  0  0  0  0  0
  -26.6060  -34.8830   22.3990 O   0  0  0  0  0  0  0  0  0  0  0  0
  -24.9790  -34.1160   24.9790 H   0  0  0  0  0  0  0  0  0  0  0  0
  -24.2170  -36.8000   23.0190 C   0  0  0  0  0  1  0  0  0  0  0  0
  -25.4370  -36.3920   23.8620 C   0  0  0  0  0  3  0  0  0  0  0  0
  -27.5540  -37.2680   24.7440 C   0  0  0  0  0  1  0  0  0  0  0  0
  -26.4800  -37.4380   23.7690 N   0  0  0  0  0  0  0  0  0  0  0  0
  -26.0770  -38.3620   23.8990 H   0  0  0  0  0  0  0  0  0  0  0  0
  -29.1620  -16.8170   20.0320 C   0  0  0  0  0  2  0  0  0  0  0  0
  -30.6790  -14.7500   20.1110 C   0  0  0  0  0  0  0  0  0  0  0  0
  -30.3550  -12.5430   18.9990 C   0  0  0  0  0  2  0  0  0  0  0  0
  -29.3570  -12.6780   17.8300 C   0  0  0  0  0  2  0  0  0  0  0  0
  -27.9110  -12.5140   18.3320 C   0  0  0  0  0  2  0  0  0  0  0  0
  -27.6140  -13.3580   19.6010 C   0  0  0  0  0  3  0  0  0  0  0  0
  -28.7290  -13.2140   20.6610 C   0  0  0  0  0  2  0  0  0  0  0  0
  -29.9990  -13.5600   20.0130 N   0  0  0  0  0  0  0  0  0  0  0  0
  -31.8150  -14.8540   19.6350 O   0  0  0  0  0  0  0  0  0  0  0  0
  -30.7840  -16.4270   21.8690 C   0  0  0  0  0  1  0  0  0  0  0  0
  -30.0850  -15.8380   20.7250 N   0  0  0  0  0  0  0  0  0  0  0  0
  -25.2630  -13.9360   20.4510 C   0  0  0  0  0  0  0  0  0  0  0  0
  -24.2160  -13.1540   20.8580 C   0  0  0  0  0  0  0  0  0  0  0  0
  -24.6770  -11.8040   20.7810 C   0  0  0  0  0  0  0  0  0  0  0  0
  -26.2950  -13.0610   20.1500 N   0  0  0  0  0  0  0  0  0  0  0  0
  -25.9520  -11.7730   20.4100 N   0  0  0  0  0  0  0  0  0  0  0  0
  -23.9600  -10.5390   20.9830 C   0  0  0  0  0  0  0  0  0  0  0  0
  -24.4180   -9.5680   21.9000 C   0  0  0  0  0  3  0  0  0  0  0  0
  -23.6990   -8.3680   22.0910 C   0  0  0  0  0  3  0  0  0  0  0  0
  -22.5080   -8.1300   21.3660 C   0  0  0  0  0  0  0  0  0  0  0  0
  -22.0680   -9.0910   20.4360 C   0  0  0  0  0  3  0  0  0  0  0  0
  -22.7870  -10.2810   20.2430 C   0  0  0  0  0  3  0  0  0  0  0  0
  -21.7590   -6.9830   21.4670 O   0  0  0  0  0  0  0  0  0  0  0  0
  -21.7240   -6.2460   22.6230 C   0  0  0  0  0  0  0  0  0  0  0  0
  -21.2780   -6.7960   23.8450 C   0  0  0  0  0  3  0  0  0  0  0  0
  -21.1930   -5.9830   24.9940 C   0  0  0  0  0  3  0  0  0  0  0  0
  -21.5450   -4.6220   24.9220 C   0  0  0  0  0  0  0  0  0  0  0  0
  -21.9850   -4.0720   23.7050 C   0  0  0  0  0  3  0  0  0  0  0  0
  -22.0720   -4.8810   22.5580 C   0  0  0  0  0  0  0  0  0  0  0  0
  -22.4760   -4.3410   21.3840 F   0  0  0  0  0  0  0  0  0  0  0  0
  -21.4560   -3.8400   26.0220 F   0  0  0  0  0  0  0  0  0  0  0  0
  -22.8340  -13.6270   21.2040 C   0  0  0  0  0  0  0  0  0  0  0  0
  -22.1450  -12.9120   22.0860 N   0  0  0  0  0  0  0  0  0  0  0  0
  -22.3750  -14.6650   20.7290 O   0  0  0  0  0  0  0  0  0  0  0  0
  -22.5290  -12.0700   22.4890 H   0  0  0  0  0  0  0  0  0  0  0  0
  -21.2200  -13.2110   22.3610 H   0  0  0  0  0  0  0  0  0  0  0  0
  -25.4150  -15.3090   20.2870 N   0  0  0  0  0  0  0  0  0  0  0  0
  -24.6520  -15.9570   20.4470 H   0  0  0  0  0  0  0  0  0  0  0  0
  -26.2370  -15.7540   19.9020 H   0  0  0  0  0  0  0  0  0  0  0  0
  2  1  1  0
  3  6  2  0
  3  5  1  0
  4  1  2  0
  5  2  2  0
  6  4  1  0
  7  6  1  0
  8  9  1  0
  9  5  1  0
  9 11  1  0
 11 10  1  0
 12 13  1  0
 12 11  1  0
 14 25  2  0
 15 13  1  0
 15 20  1  0
 16 24  1  0
 16 26  1  0
 17 23  1  0
 17 19  1  0
 18 24  1  0
 19 18  1  0
 20 19  2  0
 21 22  1  0
 21 15  2  0
 22 17  2  0
 23 16  1  0
 24 14  1  0
 26 28  2  0
 27 26  1  0
 29 27  1  0
 30 39  2  0
 30 35  1  0
 31 27  1  0
 31 35  1  0
 32 31  1  0
 33 34  1  0
 33 32  1  0
 34 30  1  0
 35 36  2  0
 36 37  1  0
 38 37  2  0
 39 38  1  0
 40 14  1  0
 40 45  1  0
 40 41  1  0
 41 44  1  1
 41 42  1  0
 43 41  1  0
 45 48  1  0
 46 50  1  0
 46 45  1  0
 47 46  2  0
 50 49  1  0
 52 50  1  0
 52 53  1  0
 52 51  1  0
 54  4  1  0
 54 64  1  0
 55 64  1  0
 56 61  1  0
 57 58  1  0
 57 56  1  0
 59 58  1  0
 59 68  1  0
 59 60  1  0
 61 55  1  0
 61 60  1  0
 62 55  2  0
 64 63  1  0
 65 66  2  0
 66 85  1  0
 67 66  1  0
 67 70  1  0
 68 69  1  0
 68 65  1  0
 69 67  2  0
 70 71  1  0
 71 72  2  0
 73 76  1  0
 73 72  1  0
 74 73  2  0
 75 74  1  0
 75 70  2  0
 76 77  1  0
 77 78  1  0
 78 79  2  0
 80 79  1  0
 80 84  1  0
 81 80  2  0
 82 77  2  0
 82 81  1  0
 83 82  1  0
 85 86  1  0
 86 89  1  0
 86 88  1  0
 87 85  2  0
 90 91  1  0
 90 65  1  0
 92 90  1  0
M  ISO  4  12 101  13 101  55 100  64 100
M  END
>  <TORSDO>  (6) 
F 20

>  <SCORE>  (6) 
-13.724

>  <name>  (6) 
5

>  <ligand_id>  (6) 
5

>  <original_smiles>  (6) 
[H]c1c([H])c([H])c2c(c1[H])C([H])([H])C([H])([H])C([H])([H])C2([H])N([H])C(=O)C1([H])N(C(=O)C([H])(N([H])C(=O)C([H])(N([H])C([H])([H])[H])C([H])([H])[H])C(C([H])([H])[H])(C([H])([H])[H])C([H])([H])[H])C([H])([H])c2c([H])c(OC([H])([H])C([H])(N(c3c([H])c([H])c(C([H])([H])N(C(=O)N4C([H])([H])C([H])([H])C([H])([H])C([H])(n5nc(-c6c([H])c([H])c(Oc7c([H])c([H])c(F)c([H])c7F)c([H])c6[H])c(C(=O)N([H])[H])c5N([H])[H])C4([H])[H])C([H])([H])[H])c(F)c3[H])C([H])([H])[H])C([H])([H])[H])c([H])c([H])c2C1([H])[H]

>  <smiles>  (6) 
[H]c1c([H])c([H])c2c(c1[H])C([H])([H])C([H])([H])C([H])([H])C2([H])N([H])C(=O)C1([H])N(C(=O)C([H])(N([H])C(=O)C([H])(N([H])C([H])([H])[H])C([H])([H])[H])C(C([H])([H])[H])(C([H])([H])[H])C([H])([H])[H])C([H])([H])c2c([H])c(OC([H])([H])C([H])(N(c3c([H])c([H])c(C([H])([H])N(C(=O)N4C([H])([H])C([H])([H])C([H])([H])C([H])(n5nc(-c6c([H])c([H])c(Oc7c([H])c([H])c(F)c([H])c7F)c([H])c6[H])c(C(=O)N([H])[H])c5N([H])[H])C4([H])[H])C([H])([H])[H])c(F)c3[H])C([H])([H])[H])C([H])([H])[H])c([H])c([H])c2C1([H])[H]

$$$$
6:0:0
     RDKit          3D

 90 99  0  0  1  0  0  0  0  0999 V2000
  -30.6170  -15.0300   20.3890 C   0  0  0  0  0  0  0  0  0  0  0  0
  -30.4750  -12.6690   19.4880 C   0  0  0  0  0  2  0  0  0  0  0  0
  -29.5620  -12.5740   18.2430 C   0  0  0  0  0  2  0  0  0  0  0  0
  -28.0720  -12.4740   18.6290 C   0  0  0  0  0  2  0  0  0  0  0  0
  -27.6640  -13.4000   19.8060 C   0  0  0  0  0  3  0  0  0  0  0  0
  -28.7070  -13.4050   20.9420 C   0  0  0  0  0  2  0  0  0  0  0  0
  -29.9860  -13.7900   20.3310 N   0  0  0  0  0  0  0  0  0  0  0  0
  -31.8530  -15.0350   20.3220 O   0  0  0  0  0  0  0  0  0  0  0  0
  -29.7180  -18.4810   21.3920 C   0  0  0  0  0  3  0  0  0  0  0  0
  -29.5170  -19.9370   21.3400 C   0  0  0  0  0  3  0  0  0  0  0  0
  -29.5900  -19.8700   18.9750 C   0  0  0  0  0  3  0  0  0  0  0  0
  -29.7950  -18.4460   19.0420 C   0  0  0  0  0  0  0  0  0  0  0  0
  -29.8550  -17.6660   20.2130 C   0  0  0  0  0  0  0  0  0  0  0  0
  -29.4150  -20.7110   20.1210 C   0  0  0  0  0  0  0  0  0  0  0  0
  -29.9630  -17.5570   17.8530 C   0  0  0  0  0  2  0  0  0  0  0  0
  -29.8000  -16.1270   18.4180 C   0  0  0  0  0  2  0  0  0  0  0  0
  -29.9160  -16.1720   19.8990 N   0  0  0  0  0  0  0  0  0  0  0  0
  -25.2670  -14.0110   20.4600 C   0  0  0  0  0  0  0  0  0  0  0  0
  -24.1880  -13.2510   20.8160 C   0  0  0  0  0  0  0  0  0  0  0  0
  -24.6420  -11.8970   20.8280 C   0  0  0  0  0  0  0  0  0  0  0  0
  -26.3120  -13.1220   20.2780 N   0  0  0  0  0  0  0  0  0  0  0  0
  -25.9430  -11.8460   20.5630 N   0  0  0  0  0  0  0  0  0  0  0  0
  -23.9020  -10.6430   21.0150 C   0  0  0  0  0  0  0  0  0  0  0  0
  -24.3070   -9.6830   21.9690 C   0  0  0  0  0  3  0  0  0  0  0  0
  -23.5690   -8.4920   22.1450 C   0  0  0  0  0  3  0  0  0  0  0  0
  -22.4110   -8.2540   21.3670 C   0  0  0  0  0  0  0  0  0  0  0  0
  -22.0260   -9.2010   20.4010 C   0  0  0  0  0  3  0  0  0  0  0  0
  -22.7650  -10.3820   20.2250 C   0  0  0  0  0  3  0  0  0  0  0  0
  -21.6450   -7.1170   21.4540 O   0  0  0  0  0  0  0  0  0  0  0  0
  -21.5640   -6.3890   22.6140 C   0  0  0  0  0  0  0  0  0  0  0  0
  -21.1180   -6.9610   23.8250 C   0  0  0  0  0  3  0  0  0  0  0  0
  -20.9890   -6.1590   24.9780 C   0  0  0  0  0  3  0  0  0  0  0  0
  -21.2950   -4.7860   24.9190 C   0  0  0  0  0  0  0  0  0  0  0  0
  -21.7340   -4.2140   23.7120 C   0  0  0  0  0  3  0  0  0  0  0  0
  -21.8660   -5.0120   22.5640 C   0  0  0  0  0  0  0  0  0  0  0  0
  -22.2680   -4.4510   21.3980 F   0  0  0  0  0  0  0  0  0  0  0  0
  -21.1610   -4.0130   26.0220 F   0  0  0  0  0  0  0  0  0  0  0  0
  -22.7850  -13.7390   21.0300 C   0  0  0  0  0  0  0  0  0  0  0  0
  -22.0260  -13.0690   21.8910 N   0  0  0  0  0  0  0  0  0  0  0  0
  -22.3690  -14.7530   20.4710 O   0  0  0  0  0  0  0  0  0  0  0  0
  -22.3680  -12.2470   22.3650 H   0  0  0  0  0  0  0  0  0  0  0  0
  -21.0840  -13.3840   22.0790 H   0  0  0  0  0  0  0  0  0  0  0  0
  -25.4440  -15.3760   20.2480 N   0  0  0  0  0  0  0  0  0  0  0  0
  -24.6650  -16.0260   20.2670 H   0  0  0  0  0  0  0  0  0  0  0  0
  -26.2950  -15.7880   19.8880 H   0  0  0  0  0  0  0  0  0  0  0  0
  -29.1110  -22.1470   19.8850 N   0  0  0  0  0  0  0  0  0  0  0  0
  -29.0420  -22.3400   18.8880 H   0  0  0  0  0  0  0  0  0  0  0  0
  -29.1250  -23.4950   20.6540 C   0  0  0  0  0  3  0  0  0  0  0  0
  -28.3030  -24.8210   20.0270 C   0  0  0  0  0  3  0  0  0  0  0  0
  -28.4160  -26.3160   20.4200 O   0  0  0  0  0  0  0  0  0  0  0  0
  -24.6460  -31.9250   23.2780 C   0  0  0  0  0  0  0  0  0  0  0  0
  -27.3320  -27.2560   20.2960 C   0  0  0  0  0  0  0  0  0  0  0  0
  -23.4870  -30.5120   21.6220 C   0  0  0  0  0  3  0  0  0  0  0  0
  -24.9750  -28.9560   20.2200 C   0  0  0  0  0  0  0  0  0  0  0  0
  -26.0390  -30.8110   21.4980 C   0  0  0  0  0  2  0  0  0  0  0  0
  -26.1370  -29.4220   20.8460 C   0  0  0  0  0  0  0  0  0  0  0  0
  -27.3130  -28.5870   20.8690 C   0  0  0  0  0  3  0  0  0  0  0  0
  -26.1470  -26.8900   19.6180 C   0  0  0  0  0  3  0  0  0  0  0  0
  -24.9920  -27.7010   19.5910 C   0  0  0  0  0  3  0  0  0  0  0  0
  -23.7360  -29.8360   20.2480 C   0  0  0  0  0  2  0  0  0  0  0  0
  -24.7420  -31.1050   22.1880 N   0  0  0  0  0  0  0  0  0  0  0  0
  -23.5490  -32.1980   23.7890 O   0  0  0  0  0  0  0  0  0  0  0  0
  -22.8050  -29.5000   22.5760 C   0  0  0  0  0  0  0  0  0  0  0  0
  -21.4780  -29.3300   22.4390 N   0  0  0  0  0  0  0  0  0  0  0  0
  -23.4730  -28.8710   23.4000 O   0  0  0  0  0  0  0  0  0  0  0  0
  -20.9970  -29.8850   21.7450 H   0  0  0  0  0  0  0  0  0  0  0  0
  -18.0900  -28.1430   22.9330 C   0  0  0  0  0  0  0  0  0  0  0  0
  -20.6510  -28.3910   23.2030 C   0  0  0  0  0  3  0  0  0  0  0  0
  -20.7460  -26.9630   22.6180 C   0  0  0  0  0  2  0  0  0  0  0  0
  -19.6420  -26.6520   21.6020 C   0  0  0  0  0  2  0  0  0  0  0  0
  -18.2610  -26.7990   22.2450 C   0  0  0  0  0  2  0  0  0  0  0  0
  -19.2120  -28.8960   23.3690 C   0  0  0  0  0  0  0  0  0  0  0  0
  -18.9970  -30.1540   23.9740 C   0  0  0  0  0  3  0  0  0  0  0  0
  -17.6930  -30.6570   24.1470 C   0  0  0  0  0  3  0  0  0  0  0  0
  -16.5860  -29.9000   23.7270 C   0  0  0  0  0  3  0  0  0  0  0  0
  -16.7860  -28.6450   23.1240 C   0  0  0  0  0  3  0  0  0  0  0  0
  -25.9080  -32.5740   23.9230 C   0  0  0  0  0  3  0  0  0  0  0  0
  -25.5820  -33.9750   24.2310 N   0  0  0  0  0  0  0  0  0  0  0  0
  -25.9080  -35.0240   23.4630 C   0  0  0  0  0  0  0  0  0  0  0  0
  -26.5830  -34.9140   22.4370 O   0  0  0  0  0  0  0  0  0  0  0  0
  -24.9820  -34.1320   25.0280 H   0  0  0  0  0  0  0  0  0  0  0  0
  -24.1580  -36.7940   23.0980 C   0  0  0  0  0  1  0  0  0  0  0  0
  -25.4100  -36.4140   23.9050 C   0  0  0  0  0  3  0  0  0  0  0  0
  -27.5410  -37.3350   24.7060 C   0  0  0  0  0  1  0  0  0  0  0  0
  -26.4300  -37.4770   23.7690 N   0  0  0  0  0  0  0  0  0  0  0  0
  -26.0150  -38.3950   23.9060 H   0  0  0  0  0  0  0  0  0  0  0  0
  -26.3960  -31.8240   25.2240 C   0  0  1  0  0  0  0  0  0  0  0  0
  -25.2780  -31.6040   26.2710 C   0  0  0  0  0  1  0  0  0  0  0  0
  -26.9890  -30.4410   24.8740 C   0  0  0  0  0  1  0  0  0  0  0  0
  -27.5290  -32.6320   25.8970 C   0  0  0  0  0  1  0  0  0  0  0  0
  2  7  1  0
  3  4  1  0
  3  2  1  0
  5  4  1  0
  5 21  1  0
  5  6  1  0
  7  1  1  0
  7  6  1  0
  8  1  2  0
 10  9  1  0
 11 12  2  0
 11 14  1  0
 12 13  1  0
 13  9  2  0
 14 10  2  0
 15 16  1  0
 15 12  1  0
 16 17  1  0
 17 13  1  0
 17  1  1  0
 18 19  2  0
 19 20  1  0
 19 38  1  0
 20 23  1  0
 21 18  1  0
 21 22  1  0
 22 20  2  0
 23 24  1  0
 24 25  2  0
 26 29  1  0
 26 25  1  0
 27 26  2  0
 28 27  1  0
 28 23  2  0
 29 30  1  0
 30 31  1  0
 31 32  2  0
 33 32  1  0
 33 37  1  0
 34 33  2  0
 35 30  2  0
 35 34  1  0
 36 35  1  0
 38 39  1  0
 39 42  1  0
 39 41  1  0
 40 38  2  0
 43 44  1  0
 43 18  1  0
 45 43  1  0
 46 14  1  0
 46 48  1  0
 47 46  1  0
 49 50  1  0
 49 48  2  0
 51 62  2  0
 52 50  1  0
 52 57  1  0
 53 61  1  0
 53 63  1  0
 54 60  1  0
 54 56  1  0
 55 61  1  0
 56 57  2  0
 56 55  1  0
 58 52  2  0
 59 58  1  0
 59 54  2  0
 60 53  1  0
 61 51  1  0
 63 65  2  0
 64 63  1  0
 66 64  1  0
 67 76  2  0
 67 72  1  0
 68 64  1  0
 68 72  1  0
 69 68  1  0
 70 71  1  0
 70 69  1  0
 71 67  1  0
 72 73  2  0
 73 74  1  0
 75 74  2  0
 76 75  1  0
 77 51  1  0
 77 78  1  0
 77 87  1  0
 78 81  1  0
 79 83  1  0
 79 78  1  0
 80 79  2  0
 83 82  1  0
 85 83  1  0
 85 86  1  0
 85 84  1  0
 87 90  1  1
 87 88  1  0
 89 87  1  0
M  ISO  4   1 100  17 100  49 101  50 101
M  END
>  <TORSDO>  (7) 
F 18

>  <SCORE>  (7) 
-13.429

>  <name>  (7) 
6

>  <ligand_id>  (7) 
6

>  <original_smiles>  (7) 
[H]c1c([H])c([H])c2c(c1[H])C([H])([H])C([H])([H])C([H])([H])C2([H])N([H])C(=O)C1([H])N(C(=O)C([H])(N([H])C(=O)C([H])(N([H])C([H])([H])[H])C([H])([H])[H])C(C([H])([H])[H])(C([H])([H])[H])C([H])([H])[H])C([H])([H])c2c([H])c(OC([H])([H])C([H])([H])N([H])c3c([H])c([H])c4c(c3[H])C([H])([H])C([H])([H])N4C(=O)N3C([H])([H])C([H])([H])C([H])([H])C([H])(n4nc(-c5c([H])c([H])c(Oc6c([H])c([H])c(F)c([H])c6F)c([H])c5[H])c(C(=O)N([H])[H])c4N([H])[H])C3([H])[H])c([H])c([H])c2C1([H])[H]

>  <smiles>  (7) 
[H]c1c([H])c([H])c2c(c1[H])C([H])([H])C([H])([H])C([H])([H])C2([H])N([H])C(=O)C1([H])N(C(=O)C([H])(N([H])C(=O)C([H])(N([H])C([H])([H])[H])C([H])([H])[H])C(C([H])([H])[H])(C([H])([H])[H])C([H])([H])[H])C([H])([H])c2c([H])c(OC([H])([H])C([H])([H])N([H])c3c([H])c([H])c4c(c3[H])C([H])([H])C([H])([H])N4C(=O)N3C([H])([H])C([H])([H])C([H])([H])C([H])(n4nc(-c5c([H])c([H])c(Oc6c([H])c([H])c(F)c([H])c6F)c([H])c5[H])c(C(=O)N([H])[H])c4N([H])[H])C3([H])[H])c([H])c([H])c2C1([H])[H]

$$$$
7:0:0
     RDKit          3D

 91 99  0  0  1  0  0  0  0  0999 V2000
  -29.3040  -21.4690   20.8250 N   0  0  0  0  0  0  0  0  0  0  0  0
  -30.2440  -17.9420   19.4090 C   0  0  0  0  0  3  0  0  0  0  0  0
  -29.6660  -17.7500   21.7060 C   0  0  0  0  0  3  0  0  0  0  0  0
  -29.9620  -19.3600   19.4700 C   0  0  0  0  0  3  0  0  0  0  0  0
  -29.3880  -19.1450   21.7640 C   0  0  0  0  0  3  0  0  0  0  0  0
  -30.1330  -17.0740   20.5420 C   0  0  0  0  0  0  0  0  0  0  0  0
  -29.5440  -20.0340   20.6640 C   0  0  0  0  0  0  0  0  0  0  0  0
  -30.8480  -14.7210   19.6270 C   0  0  0  0  0  0  0  0  0  0  0  0
  -30.4530  -12.5550   18.4110 C   0  0  0  0  0  2  0  0  0  0  0  0
  -29.3430  -12.6890   17.3460 C   0  0  0  0  0  2  0  0  0  0  0  0
  -27.9500  -12.4770   17.9680 C   0  0  0  0  0  2  0  0  0  0  0  0
  -27.7600  -13.2860   19.2760 C   0  0  0  0  0  3  0  0  0  0  0  0
  -28.9600  -13.1060   20.2270 C   0  0  0  0  0  2  0  0  0  0  0  0
  -30.1810  -13.5140   19.5100 N   0  0  0  0  0  0  0  0  0  0  0  0
  -31.8210  -14.9580   18.9040 O   0  0  0  0  0  0  0  0  0  0  0  0
  -30.8070  -15.1180   21.9690 C   0  0  0  0  0  1  0  0  0  0  0  0
  -30.4660  -15.6120   20.6200 N   0  0  0  0  0  0  0  0  0  0  0  0
  -25.5020  -13.8240   20.3780 C   0  0  0  0  0  0  0  0  0  0  0  0
  -24.4950  -13.0230   20.8460 C   0  0  0  0  0  0  0  0  0  0  0  0
  -24.9400  -11.6780   20.6580 C   0  0  0  0  0  0  0  0  0  0  0  0
  -26.4950  -12.9650   19.9330 N   0  0  0  0  0  0  0  0  0  0  0  0
  -26.1710  -11.6650   20.1620 N   0  0  0  0  0  0  0  0  0  0  0  0
  -24.2410  -10.4040   20.8670 C   0  0  0  0  0  0  0  0  0  0  0  0
  -24.7050   -9.4490   21.7970 C   0  0  0  0  0  3  0  0  0  0  0  0
  -24.0040   -8.2410   21.9940 C   0  0  0  0  0  3  0  0  0  0  0  0
  -22.8250   -7.9760   21.2600 C   0  0  0  0  0  0  0  0  0  0  0  0
  -22.3760   -8.9210   20.3200 C   0  0  0  0  0  3  0  0  0  0  0  0
  -23.0790  -10.1220   20.1210 C   0  0  0  0  0  3  0  0  0  0  0  0
  -22.0910   -6.8190   21.3650 O   0  0  0  0  0  0  0  0  0  0  0  0
  -21.9550   -6.1590   22.5600 C   0  0  0  0  0  0  0  0  0  0  0  0
  -21.3970   -6.7860   23.6970 C   0  0  0  0  0  3  0  0  0  0  0  0
  -21.2120   -6.0510   24.8850 C   0  0  0  0  0  3  0  0  0  0  0  0
  -21.5740   -4.6910   24.9370 C   0  0  0  0  0  0  0  0  0  0  0  0
  -22.1260   -4.0650   23.8050 C   0  0  0  0  0  3  0  0  0  0  0  0
  -22.3130   -4.7980   22.6200 C   0  0  0  0  0  0  0  0  0  0  0  0
  -22.8240   -4.1830   21.5250 F   0  0  0  0  0  0  0  0  0  0  0  0
  -21.3890   -3.9830   26.0760 F   0  0  0  0  0  0  0  0  0  0  0  0
  -23.1550  -13.4770   21.3490 C   0  0  0  0  0  0  0  0  0  0  0  0
  -22.5750  -12.7450   22.2920 N   0  0  0  0  0  0  0  0  0  0  0  0
  -22.6360  -14.5140   20.9390 O   0  0  0  0  0  0  0  0  0  0  0  0
  -23.0110  -11.9040   22.6410 H   0  0  0  0  0  0  0  0  0  0  0  0
  -21.6830  -13.0260   22.6700 H   0  0  0  0  0  0  0  0  0  0  0  0
  -25.6480  -15.2040   20.2730 N   0  0  0  0  0  0  0  0  0  0  0  0
  -24.9170  -15.8480   20.5560 H   0  0  0  0  0  0  0  0  0  0  0  0
  -26.4580  -15.6700   19.8830 H   0  0  0  0  0  0  0  0  0  0  0  0
  -31.1590  -21.9980   22.4230 C   0  0  0  0  0  1  0  0  0  0  0  0
  -29.6440  -22.0000   22.1560 C   0  0  0  0  0  2  0  0  0  0  0  0
  -29.4220  -22.5110   19.7440 C   0  0  0  0  0  2  0  0  0  0  0  0
  -28.4730  -23.8330   19.7160 C   0  0  0  0  0  2  0  0  0  0  0  0
  -28.7780  -25.1950   20.5100 C   0  0  0  0  0  2  0  0  0  0  0  0
  -28.5970  -26.5530   19.9190 O   0  0  0  0  0  0  0  0  0  0  0  0
  -24.6950  -31.7910   23.0920 C   0  0  0  0  0  0  0  0  0  0  0  0
  -27.4150  -27.3050   20.0120 C   0  0  0  0  0  0  0  0  0  0  0  0
  -23.5180  -30.3830   21.4360 C   0  0  0  0  0  3  0  0  0  0  0  0
  -25.0030  -28.8570   20.0130 C   0  0  0  0  0  0  0  0  0  0  0  0
  -26.0480  -30.7570   21.2500 C   0  0  0  0  0  2  0  0  0  0  0  0
  -26.1610  -29.3780   20.6070 C   0  0  0  0  0  0  0  0  0  0  0  0
  -27.3690  -28.6170   20.5850 C   0  0  0  0  0  3  0  0  0  0  0  0
  -26.2290  -26.8220   19.4200 C   0  0  0  0  0  3  0  0  0  0  0  0
  -25.0390  -27.5840   19.4150 C   0  0  0  0  0  3  0  0  0  0  0  0
  -23.7490  -29.7100   20.0560 C   0  0  0  0  0  2  0  0  0  0  0  0
  -24.7740  -30.9930   21.9850 N   0  0  0  0  0  0  0  0  0  0  0  0
  -23.6070  -32.0460   23.6290 O   0  0  0  0  0  0  0  0  0  0  0  0
  -22.8710  -29.3530   22.3900 C   0  0  0  0  0  0  0  0  0  0  0  0
  -21.5500  -29.1480   22.2510 N   0  0  0  0  0  0  0  0  0  0  0  0
  -23.5570  -28.7390   23.2120 O   0  0  0  0  0  0  0  0  0  0  0  0
  -21.0580  -29.6970   21.5590 H   0  0  0  0  0  0  0  0  0  0  0  0
  -18.1950  -27.8850   22.7320 C   0  0  0  0  0  0  0  0  0  0  0  0
  -20.7470  -28.1870   23.0090 C   0  0  0  0  0  3  0  0  0  0  0  0
  -20.8770  -26.7640   22.4170 C   0  0  0  0  0  2  0  0  0  0  0  0
  -19.7830  -26.4350   21.3970 C   0  0  0  0  0  2  0  0  0  0  0  0
  -18.3970  -26.5470   22.0390 C   0  0  0  0  0  2  0  0  0  0  0  0
  -19.2990  -28.6620   23.1720 C   0  0  0  0  0  0  0  0  0  0  0  0
  -19.0590  -29.9120   23.7800 C   0  0  0  0  0  3  0  0  0  0  0  0
  -17.7450  -30.3880   23.9510 C   0  0  0  0  0  3  0  0  0  0  0  0
  -16.6540  -29.6090   23.5290 C   0  0  0  0  0  3  0  0  0  0  0  0
  -16.8810  -28.3600   22.9250 C   0  0  0  0  0  3  0  0  0  0  0  0
  -25.9670  -32.4400   23.7240 C   0  0  0  0  0  3  0  0  0  0  0  0
  -25.6120  -33.8090   24.1240 N   0  0  0  0  0  0  0  0  0  0  0  0
  -25.9130  -34.9110   23.4210 C   0  0  0  0  0  0  0  0  0  0  0  0
  -26.5900  -34.8790   22.3890 O   0  0  0  0  0  0  0  0  0  0  0  0
  -25.0010  -33.9020   24.9230 H   0  0  0  0  0  0  0  0  0  0  0  0
  -24.1540  -36.6890   23.1370 C   0  0  0  0  0  1  0  0  0  0  0  0
  -25.3860  -36.2580   23.9510 C   0  0  0  0  0  3  0  0  0  0  0  0
  -27.4810  -37.1380   24.8810 C   0  0  0  0  0  1  0  0  0  0  0  0
  -26.3950  -37.3380   23.9230 N   0  0  0  0  0  0  0  0  0  0  0  0
  -25.9640  -38.2370   24.1180 H   0  0  0  0  0  0  0  0  0  0  0  0
  -26.5300  -31.6280   24.9550 C   0  0  1  0  0  0  0  0  0  0  0  0
  -25.4600  -31.2630   26.0100 C   0  0  0  0  0  1  0  0  0  0  0  0
  -27.1880  -30.3090   24.4850 C   0  0  0  0  0  1  0  0  0  0  0  0
  -27.6410  -32.4450   25.6550 C   0  0  0  0  0  1  0  0  0  0  0  0
  1 47  1  0
  2  4  2  0
  2  6  1  0
  3  5  1  0
  4  7  1  0
  6 17  1  0
  6  3  2  0
  7  1  1  0
  7  5  2  0
  8 17  1  0
  9 14  1  0
 10 11  1  0
 10  9  1  0
 12 11  1  0
 12 21  1  0
 12 13  1  0
 14  8  1  0
 14 13  1  0
 15  8  2  0
 17 16  1  0
 18 19  2  0
 19 38  1  0
 20 19  1  0
 20 23  1  0
 21 22  1  0
 21 18  1  0
 22 20  2  0
 23 24  1  0
 24 25  2  0
 26 29  1  0
 26 25  1  0
 27 26  2  0
 28 27  1  0
 28 23  2  0
 29 30  1  0
 30 35  2  0
 30 31  1  0
 31 32  2  0
 32 33  1  0
 33 37  1  0
 34 33  2  0
 35 34  1  0
 36 35  1  0
 38 39  1  0
 39 41  1  0
 39 42  1  0
 40 38  2  0
 43 18  1  0
 43 44  1  0
 45 43  1  0
 47 46  1  0
 48  1  1  0
 49 48  1  0
 49 50  1  0
 51 53  1  0
 51 50  1  0
 52 63  2  0
 53 58  1  0
 54 62  1  0
 54 64  1  0
 55 61  1  0
 55 57  1  0
 56 62  1  0
 57 56  1  0
 58 57  2  0
 59 53  2  0
 60 59  1  0
 60 55  2  0
 61 54  1  0
 62 52  1  0
 64 66  2  0
 65 64  1  0
 67 65  1  0
 68 77  2  0
 68 73  1  0
 69 65  1  0
 69 73  1  0
 70 69  1  0
 71 72  1  0
 71 70  1  0
 72 68  1  0
 73 74  2  0
 74 75  1  0
 76 75  2  0
 77 76  1  0
 78 52  1  0
 78 79  1  0
 78 88  1  0
 79 82  1  0
 80 84  1  0
 80 79  1  0
 81 80  2  0
 84 83  1  0
 86 84  1  0
 86 87  1  0
 86 85  1  0
 88 91  1  1
 88 89  1  0
 90 88  1  0
M  ISO  4   8 100  17 100  50 101  51 101
M  END
>  <TORSDO>  (8) 
F 21

>  <SCORE>  (8) 
-11.035

>  <name>  (8) 
7

>  <ligand_id>  (8) 
7

>  <original_smiles>  (8) 
[H]c1c([H])c([H])c2c(c1[H])C([H])([H])C([H])([H])C([H])([H])C2([H])N([H])C(=O)C1([H])N(C(=O)C([H])(N([H])C(=O)C([H])(N([H])C([H])([H])[H])C([H])([H])[H])C(C([H])([H])[H])(C([H])([H])[H])C([H])([H])[H])C([H])([H])c2c([H])c(OC([H])([H])C([H])([H])C([H])([H])N(c3c([H])c([H])c(N(C(=O)N4C([H])([H])C([H])([H])C([H])([H])C([H])(n5nc(-c6c([H])c([H])c(Oc7c([H])c([H])c(F)c([H])c7F)c([H])c6[H])c(C(=O)N([H])[H])c5N([H])[H])C4([H])[H])C([H])([H])[H])c([H])c3[H])C([H])([H])C([H])([H])[H])c([H])c([H])c2C1([H])[H]

>  <smiles>  (8) 
[H]c1c([H])c([H])c2c(c1[H])C([H])([H])C([H])([H])C([H])([H])C2([H])N([H])C(=O)C1([H])N(C(=O)C([H])(N([H])C(=O)C([H])(N([H])C([H])([H])[H])C([H])([H])[H])C(C([H])([H])[H])(C([H])([H])[H])C([H])([H])[H])C([H])([H])c2c([H])c(OC([H])([H])C([H])([H])C([H])([H])N(c3c([H])c([H])c(N(C(=O)N4C([H])([H])C([H])([H])C([H])([H])C([H])(n5nc(-c6c([H])c([H])c(Oc7c([H])c([H])c(F)c([H])c7F)c([H])c6[H])c(C(=O)N([H])[H])c5N([H])[H])C4([H])[H])C([H])([H])[H])c([H])c3[H])C([H])([H])C([H])([H])[H])c([H])c([H])c2C1([H])[H]

$$$$
8:0:0
     RDKit          3D

 93101  0  0  1  0  0  0  0  0999 V2000
  -30.7360  -23.0100   21.6290 C   0  0  0  0  0  2  0  0  0  0  0  0
  -30.5310  -20.5300   22.3090 C   0  0  0  0  0  3  0  0  0  0  0  0
  -30.5770  -19.1390   22.0270 C   0  0  0  0  0  3  0  0  0  0  0  0
  -30.4400  -21.0210   19.9510 C   0  0  0  0  0  3  0  0  0  0  0  0
  -30.5110  -21.5060   21.2790 C   0  0  0  0  0  0  0  0  0  0  0  0
  -30.6260  -18.6590   20.6930 C   0  0  0  0  0  0  0  0  0  0  0  0
  -30.4890  -19.6270   19.6640 C   0  0  0  0  0  0  0  0  0  0  0  0
  -30.4700  -19.2190   18.3720 F   0  0  0  0  0  0  0  0  0  0  0  0
  -31.0810  -17.2000   20.3560 C   0  0  0  0  0  2  0  0  0  0  0  0
  -30.7930  -14.7540   20.0820 C   0  0  0  0  0  0  0  0  0  0  0  0
  -30.4560  -12.5620   18.9450 C   0  0  0  0  0  2  0  0  0  0  0  0
  -29.4590  -12.7050   17.7760 C   0  0  0  0  0  2  0  0  0  0  0  0
  -28.0060  -12.5230   18.2680 C   0  0  0  0  0  2  0  0  0  0  0  0
  -27.7170  -13.3230   19.5690 C   0  0  0  0  0  3  0  0  0  0  0  0
  -28.8430  -13.1240   20.6080 C   0  0  0  0  0  2  0  0  0  0  0  0
  -30.0910  -13.5700   19.9740 N   0  0  0  0  0  0  0  0  0  0  0  0
  -31.9360  -14.7860   19.6090 O   0  0  0  0  0  0  0  0  0  0  0  0
  -28.8880  -16.2240   21.0380 C   0  0  0  0  0  1  0  0  0  0  0  0
  -30.2330  -15.9600   20.5050 N   0  0  0  0  0  0  0  0  0  0  0  0
  -25.3700  -13.8620   20.4620 C   0  0  0  0  0  0  0  0  0  0  0  0
  -24.3420  -13.0630   20.8730 C   0  0  0  0  0  0  0  0  0  0  0  0
  -24.8200  -11.7200   20.7650 C   0  0  0  0  0  0  0  0  0  0  0  0
  -26.4080  -13.0090   20.1280 N   0  0  0  0  0  0  0  0  0  0  0  0
  -26.0860  -11.7120   20.3700 N   0  0  0  0  0  0  0  0  0  0  0  0
  -24.1230  -10.4440   20.9550 C   0  0  0  0  0  0  0  0  0  0  0  0
  -24.5750   -9.4860   21.8910 C   0  0  0  0  0  3  0  0  0  0  0  0
  -23.8730   -8.2750   22.0700 C   0  0  0  0  0  3  0  0  0  0  0  0
  -22.7050   -8.0140   21.3140 C   0  0  0  0  0  0  0  0  0  0  0  0
  -22.2740   -8.9590   20.3660 C   0  0  0  0  0  3  0  0  0  0  0  0
  -22.9770  -10.1610   20.1840 C   0  0  0  0  0  3  0  0  0  0  0  0
  -21.9740   -6.8540   21.4070 O   0  0  0  0  0  0  0  0  0  0  0  0
  -21.8640   -6.1640   22.5870 C   0  0  0  0  0  0  0  0  0  0  0  0
  -21.3030   -6.7450   23.7440 C   0  0  0  0  0  3  0  0  0  0  0  0
  -21.1440   -5.9770   24.9130 C   0  0  0  0  0  3  0  0  0  0  0  0
  -21.5370   -4.6240   24.9250 C   0  0  0  0  0  0  0  0  0  0  0  0
  -22.0910   -4.0410   23.7730 C   0  0  0  0  0  3  0  0  0  0  0  0
  -22.2510   -4.8070   22.6050 C   0  0  0  0  0  0  0  0  0  0  0  0
  -22.7660   -4.2360   21.4890 F   0  0  0  0  0  0  0  0  0  0  0  0
  -21.3780   -3.8790   26.0440 F   0  0  0  0  0  0  0  0  0  0  0  0
  -22.9620  -13.5090   21.2560 C   0  0  0  0  0  0  0  0  0  0  0  0
  -22.3020  -12.7700   22.1400 N   0  0  0  0  0  0  0  0  0  0  0  0
  -22.4790  -14.5490   20.8020 O   0  0  0  0  0  0  0  0  0  0  0  0
  -22.7110  -11.9280   22.5200 H   0  0  0  0  0  0  0  0  0  0  0  0
  -21.3750  -13.0450   22.4340 H   0  0  0  0  0  0  0  0  0  0  0  0
  -25.4950  -15.2410   20.3260 N   0  0  0  0  0  0  0  0  0  0  0  0
  -24.7140  -15.8560   20.5200 H   0  0  0  0  0  0  0  0  0  0  0  0
  -26.3080  -15.7330   19.9900 H   0  0  0  0  0  0  0  0  0  0  0  0
  -29.7490  -24.0370   21.1590 N   0  0  0  0  0  4  0  0  0  0  0  0
  -28.8210  -23.6500   21.2040 H   0  0  0  0  0  0  0  0  0  0  0  0
  -29.9460  -24.2260   20.1900 H   0  0  0  0  0  0  0  0  0  0  0  0
  -29.7600  -25.3260   21.9430 C   0  0  0  0  0  2  0  0  0  0  0  0
  -29.5670  -26.6650   21.1420 C   0  0  0  0  0  2  0  0  0  0  0  0
  -28.5230  -26.6690   20.1450 O   0  0  0  0  0  0  0  0  0  0  0  0
  -24.6270  -31.9240   23.2030 C   0  0  0  0  0  0  0  0  0  0  0  0
  -27.4140  -27.5060   20.1890 C   0  0  0  0  0  0  0  0  0  0  0  0
  -23.4720  -30.5000   21.5440 C   0  0  0  0  0  3  0  0  0  0  0  0
  -24.9820  -28.9840   20.1460 C   0  0  0  0  0  0  0  0  0  0  0  0
  -25.9970  -30.8940   21.3910 C   0  0  0  0  0  2  0  0  0  0  0  0
  -26.1210  -29.5220   20.7600 C   0  0  0  0  0  0  0  0  0  0  0  0
  -27.3390  -28.7930   20.7860 C   0  0  0  0  0  3  0  0  0  0  0  0
  -26.2670  -27.0110   19.5370 C   0  0  0  0  0  3  0  0  0  0  0  0
  -25.0520  -27.7260   19.5240 C   0  0  0  0  0  3  0  0  0  0  0  0
  -23.7150  -29.8140   20.1740 C   0  0  0  0  0  2  0  0  0  0  0  0
  -24.7130  -31.1230   22.1010 N   0  0  0  0  0  0  0  0  0  0  0  0
  -23.5330  -32.1770   23.7290 O   0  0  0  0  0  0  0  0  0  0  0  0
  -22.8170  -29.4760   22.4990 C   0  0  0  0  0  0  0  0  0  0  0  0
  -21.4940  -29.2900   22.3650 N   0  0  0  0  0  0  0  0  0  0  0  0
  -23.4970  -28.8480   23.3130 O   0  0  0  0  0  0  0  0  0  0  0  0
  -21.0110  -29.8350   21.6650 H   0  0  0  0  0  0  0  0  0  0  0  0
  -18.1130  -28.1160   22.8820 C   0  0  0  0  0  0  0  0  0  0  0  0
  -20.6750  -28.3450   23.1240 C   0  0  0  0  0  3  0  0  0  0  0  0
  -20.7590  -26.9300   22.5090 C   0  0  0  0  0  2  0  0  0  0  0  0
  -19.6390  -26.6410   21.5050 C   0  0  0  0  0  2  0  0  0  0  0  0
  -18.2680  -26.7830   22.1700 C   0  0  0  0  0  2  0  0  0  0  0  0
  -19.2440  -28.8590   23.3130 C   0  0  0  0  0  0  0  0  0  0  0  0
  -19.0450  -30.1100   23.9370 C   0  0  0  0  0  3  0  0  0  0  0  0
  -17.7460  -30.6170   24.1380 C   0  0  0  0  0  3  0  0  0  0  0  0
  -16.6300  -29.8700   23.7230 C   0  0  0  0  0  3  0  0  0  0  0  0
  -16.8130  -28.6220   23.1020 C   0  0  0  0  0  3  0  0  0  0  0  0
  -25.8930  -32.5760   23.8390 C   0  0  0  0  0  3  0  0  0  0  0  0
  -25.5640  -33.9710   24.1530 N   0  0  0  0  0  0  0  0  0  0  0  0
  -25.9090  -35.0230   23.3970 C   0  0  0  0  0  0  0  0  0  0  0  0
  -26.6050  -34.9190   22.3830 O   0  0  0  0  0  0  0  0  0  0  0  0
  -24.9500  -34.1250   24.9390 H   0  0  0  0  0  0  0  0  0  0  0  0
  -24.1870  -36.8070   22.9770 C   0  0  0  0  0  1  0  0  0  0  0  0
  -25.3990  -36.4080   23.8350 C   0  0  0  0  0  3  0  0  0  0  0  0
  -27.4910  -37.3050   24.7540 C   0  0  0  0  0  1  0  0  0  0  0  0
  -26.4280  -37.4660   23.7650 N   0  0  0  0  0  0  0  0  0  0  0  0
  -26.0120  -38.3840   23.8940 H   0  0  0  0  0  0  0  0  0  0  0  0
  -26.3990  -31.8190   25.1290 C   0  0  1  0  0  0  0  0  0  0  0  0
  -25.2940  -31.5700   26.1820 C   0  0  0  0  0  1  0  0  0  0  0  0
  -27.0060  -30.4460   24.7540 C   0  0  0  0  0  1  0  0  0  0  0  0
  -27.5210  -32.6410   25.8030 C   0  0  0  0  0  1  0  0  0  0  0  0
  3  2  1  0
  4  5  1  0
  5  1  1  0
  5  2  2  0
  6  3  2  0
  7  4  2  0
  7  6  1  0
  8  7  1  0
  9 19  1  0
  9  6  1  0
 10 19  1  0
 11 16  1  0
 12 13  1  0
 12 11  1  0
 14 13  1  0
 14 23  1  0
 14 15  1  0
 16 10  1  0
 16 15  1  0
 17 10  2  0
 19 18  1  0
 20 21  2  0
 21 40  1  0
 22 21  1  0
 22 25  1  0
 23 24  1  0
 23 20  1  0
 24 22  2  0
 25 26  1  0
 26 27  2  0
 28 31  1  0
 28 27  1  0
 29 28  2  0
 30 29  1  0
 30 25  2  0
 31 32  1  0
 32 37  2  0
 32 33  1  0
 33 34  2  0
 34 35  1  0
 35 39  1  0
 36 35  2  0
 37 36  1  0
 38 37  1  0
 40 41  1  0
 41 44  1  0
 41 43  1  0
 42 40  2  0
 45 20  1  0
 45 46  1  0
 47 45  1  0
 48 49  1  0
 48  1  1  0
 48 51  1  0
 50 48  1  0
 52 51  1  0
 53 55  1  0
 53 52  1  0
 54 65  2  0
 55 60  1  0
 56 64  1  0
 56 66  1  0
 57 63  1  0
 57 59  1  0
 58 64  1  0
 59 60  2  0
 59 58  1  0
 61 55  2  0
 62 61  1  0
 62 57  2  0
 63 56  1  0
 64 54  1  0
 66 68  2  0
 67 66  1  0
 69 67  1  0
 70 79  2  0
 70 75  1  0
 71 67  1  0
 71 75  1  0
 72 71  1  0
 73 74  1  0
 73 72  1  0
 74 70  1  0
 75 76  2  0
 76 77  1  0
 78 77  2  0
 79 78  1  0
 80 54  1  0
 80 81  1  0
 80 90  1  0
 81 84  1  0
 82 86  1  0
 82 81  1  0
 83 82  2  0
 86 85  1  0
 88 86  1  0
 88 89  1  0
 88 87  1  0
 90 93  1  1
 90 91  1  0
 92 90  1  0
M  ISO  4  10 100  19 100  52 101  53 101
M  END
>  <TORSDO>  (9) 
F 21

>  <SCORE>  (9) 
-13.149

>  <name>  (9) 
8

>  <ligand_id>  (9) 
8

>  <original_smiles>  (9) 
[H]c1c([H])c([H])c2c(c1[H])C([H])([H])C([H])([H])C([H])([H])C2([H])N([H])C(=O)C1([H])N(C(=O)C([H])(N([H])C(=O)C([H])(N([H])C([H])([H])[H])C([H])([H])[H])C(C([H])([H])[H])(C([H])([H])[H])C([H])([H])[H])C([H])([H])c2c([H])c(OC([H])([H])C([H])([H])[N+]([H])([H])C([H])([H])c3c([H])c([H])c(C([H])([H])N(C(=O)N4C([H])([H])C([H])([H])C([H])([H])C([H])(n5nc(-c6c([H])c([H])c(Oc7c([H])c([H])c(F)c([H])c7F)c([H])c6[H])c(C(=O)N([H])[H])c5N([H])[H])C4([H])[H])C([H])([H])[H])c(F)c3[H])c([H])c([H])c2C1([H])[H]

>  <smiles>  (9) 
[H]c1c([H])c([H])c2c(c1[H])C([H])([H])C([H])([H])C([H])([H])C2([H])N([H])C(=O)C1([H])N(C(=O)C([H])(N([H])C(=O)C([H])(N([H])C([H])([H])[H])C([H])([H])[H])C(C([H])([H])[H])(C([H])([H])[H])C([H])([H])[H])C([H])([H])c2c([H])c(OC([H])([H])C([H])([H])[N+]([H])([H])C([H])([H])c3c([H])c([H])c(C([H])([H])N(C(=O)N4C([H])([H])C([H])([H])C([H])([H])C([H])(n5nc(-c6c([H])c([H])c(Oc7c([H])c([H])c(F)c([H])c7F)c([H])c6[H])c(C(=O)N([H])[H])c5N([H])[H])C4([H])[H])C([H])([H])[H])c(F)c3[H])c([H])c([H])c2C1([H])[H]

$$$$
9:0:0
     RDKit          3D

 96105  0  0  1  0  0  0  0  0999 V2000
  -28.6440  -20.9600   21.5350 C   0  0  0  0  0  2  0  0  0  0  0  0
  -28.8130  -17.6600   19.4960 C   0  0  0  0  0  3  0  0  0  0  0  0
  -30.1690  -18.8920   21.5960 C   0  0  0  0  0  3  0  0  0  0  0  0
  -28.3960  -18.9360   19.9420 C   0  0  0  0  0  0  0  0  0  0  0  0
  -29.0900  -19.5840   20.9910 C   0  0  0  0  0  0  0  0  0  0  0  0
  -29.9400  -16.9960   20.0450 C   0  0  0  0  0  0  0  0  0  0  0  0
  -30.5910  -17.6180   21.1430 C   0  0  0  0  0  0  0  0  0  0  0  0
  -27.2020  -19.5950   19.2700 C   0  0  0  0  0  1  0  0  0  0  0  0
  -31.6540  -17.0320   21.7440 F   0  0  0  0  0  0  0  0  0  0  0  0
  -31.1380  -14.7920   19.9340 C   0  0  0  0  0  0  0  0  0  0  0  0
  -30.7940  -12.5520   18.9880 C   0  0  0  0  0  2  0  0  0  0  0  0
  -29.8090  -12.6460   17.8020 C   0  0  0  0  0  2  0  0  0  0  0  0
  -28.3520  -12.5720   18.2890 C   0  0  0  0  0  2  0  0  0  0  0  0
  -28.0530  -13.4900   19.5050 C   0  0  0  0  0  3  0  0  0  0  0  0
  -29.1510  -13.3820   20.5870 C   0  0  0  0  0  2  0  0  0  0  0  0
  -30.4430  -13.6210   19.9340 N   0  0  0  0  0  0  0  0  0  0  0  0
  -32.3640  -14.8110   19.8060 O   0  0  0  0  0  0  0  0  0  0  0  0
  -30.4490  -15.8250   19.3600 N   0  0  0  0  0  0  0  0  0  0  0  0
  -25.7030  -14.1310   20.3240 C   0  0  0  0  0  0  0  0  0  0  0  0
  -24.6330  -13.3740   20.7180 C   0  0  0  0  0  0  0  0  0  0  0  0
  -25.0680  -12.0150   20.6620 C   0  0  0  0  0  0  0  0  0  0  0  0
  -26.7210  -13.2330   20.0480 N   0  0  0  0  0  0  0  0  0  0  0  0
  -26.3480  -11.9560   20.3170 N   0  0  0  0  0  0  0  0  0  0  0  0
  -24.3260  -10.7620   20.8610 C   0  0  0  0  0  0  0  0  0  0  0  0
  -24.7220   -9.8140   21.8300 C   0  0  0  0  0  3  0  0  0  0  0  0
  -23.9810   -8.6290   22.0160 C   0  0  0  0  0  3  0  0  0  0  0  0
  -22.8280   -8.3810   21.2330 C   0  0  0  0  0  0  0  0  0  0  0  0
  -22.4520   -9.3170   20.2540 C   0  0  0  0  0  3  0  0  0  0  0  0
  -23.1950  -10.4950   20.0660 C   0  0  0  0  0  3  0  0  0  0  0  0
  -22.0620   -7.2450   21.3270 O   0  0  0  0  0  0  0  0  0  0  0  0
  -21.8800   -6.5960   22.5220 C   0  0  0  0  0  0  0  0  0  0  0  0
  -21.2790   -7.2300   23.6310 C   0  0  0  0  0  3  0  0  0  0  0  0
  -21.0490   -6.5040   24.8170 C   0  0  0  0  0  3  0  0  0  0  0  0
  -21.4100   -5.1460   24.8930 C   0  0  0  0  0  0  0  0  0  0  0  0
  -22.0030   -4.5110   23.7880 C   0  0  0  0  0  3  0  0  0  0  0  0
  -22.2340   -5.2330   22.6050 C   0  0  0  0  0  0  0  0  0  0  0  0
  -22.7870   -4.6120   21.5350 F   0  0  0  0  0  0  0  0  0  0  0  0
  -21.1810   -4.4470   26.0290 F   0  0  0  0  0  0  0  0  0  0  0  0
  -23.2530  -13.8730   21.0360 C   0  0  0  0  0  0  0  0  0  0  0  0
  -22.5500  -13.1980   21.9370 N   0  0  0  0  0  0  0  0  0  0  0  0
  -22.8090  -14.8970   20.5180 O   0  0  0  0  0  0  0  0  0  0  0  0
  -22.9220  -12.3690   22.3770 H   0  0  0  0  0  0  0  0  0  0  0  0
  -21.6250  -13.5140   22.1920 H   0  0  0  0  0  0  0  0  0  0  0  0
  -25.8890  -15.4990   20.1540 N   0  0  0  0  0  0  0  0  0  0  0  0
  -25.1450  -16.1700   20.3050 H   0  0  0  0  0  0  0  0  0  0  0  0
  -26.7530  -15.9280   19.8460 H   0  0  0  0  0  0  0  0  0  0  0  0
  -31.6720  -17.2580   17.6490 C   0  0  0  0  0  1  0  0  0  0  0  0
  -30.7580  -16.0430   17.9210 C   0  0  0  0  0  2  0  0  0  0  0  0
  -28.4500  -23.3330   20.6960 C   0  0  0  0  0  0  0  0  0  0  0  0
  -30.6570  -23.7520   19.9150 C   0  0  0  0  0  2  0  0  0  0  0  0
  -30.5450  -22.3510   20.5460 C   0  0  0  0  0  2  0  0  0  0  0  0
  -29.3740  -24.5050   20.3140 C   0  0  0  0  0  3  0  0  0  0  0  0
  -29.1310  -22.1750   20.8420 N   0  0  0  0  0  0  0  0  0  0  0  0
  -27.2420  -23.4790   20.9030 O   0  0  0  0  0  0  0  0  0  0  0  0
  -28.8370  -25.5180   19.2460 C   0  0  0  0  0  2  0  0  0  0  0  0
  -28.6990  -26.8840   19.7260 O   0  0  0  0  0  0  0  0  0  0  0  0
  -24.6630  -31.7340   23.0590 C   0  0  0  0  0  0  0  0  0  0  0  0
  -27.4820  -27.5560   19.7270 C   0  0  0  0  0  0  0  0  0  0  0  0
  -23.5150  -30.3770   21.3440 C   0  0  0  0  0  3  0  0  0  0  0  0
  -25.0270  -28.9920   19.8280 C   0  0  0  0  0  0  0  0  0  0  0  0
  -26.0270  -30.8480   21.1660 C   0  0  0  0  0  2  0  0  0  0  0  0
  -26.1670  -29.5180   20.4440 C   0  0  0  0  0  0  0  0  0  0  0  0
  -27.3920  -28.8080   20.3900 C   0  0  0  0  0  3  0  0  0  0  0  0
  -26.3120  -27.0590   19.1000 C   0  0  0  0  0  3  0  0  0  0  0  0
  -25.0970  -27.7640   19.1540 C   0  0  0  0  0  3  0  0  0  0  0  0
  -23.7490  -29.7940   19.9260 C   0  0  0  0  0  2  0  0  0  0  0  0
  -24.7540  -31.0000   21.9140 N   0  0  0  0  0  0  0  0  0  0  0  0
  -23.5720  -31.9260   23.6150 O   0  0  0  0  0  0  0  0  0  0  0  0
  -22.9140  -29.2720   22.2420 C   0  0  0  0  0  0  0  0  0  0  0  0
  -21.5960  -29.0470   22.1170 N   0  0  0  0  0  0  0  0  0  0  0  0
  -23.6320  -28.6240   23.0100 O   0  0  0  0  0  0  0  0  0  0  0  0
  -21.0770  -29.6250   21.4720 H   0  0  0  0  0  0  0  0  0  0  0  0
  -18.2710  -27.7160   22.5990 C   0  0  0  0  0  0  0  0  0  0  0  0
  -20.8260  -28.0320   22.8350 C   0  0  0  0  0  3  0  0  0  0  0  0
  -20.9570  -26.6490   22.1540 C   0  0  0  0  0  2  0  0  0  0  0  0
  -19.8420  -26.3670   21.1430 C   0  0  0  0  0  2  0  0  0  0  0  0
  -18.4700  -26.4240   21.8240 C   0  0  0  0  0  2  0  0  0  0  0  0
  -19.3770  -28.4790   23.0590 C   0  0  0  0  0  0  0  0  0  0  0  0
  -19.1360  -29.6910   23.7430 C   0  0  0  0  0  3  0  0  0  0  0  0
  -17.8210  -30.1400   23.9710 C   0  0  0  0  0  3  0  0  0  0  0  0
  -16.7300  -29.3730   23.5260 C   0  0  0  0  0  3  0  0  0  0  0  0
  -16.9560  -28.1630   22.8460 C   0  0  0  0  0  3  0  0  0  0  0  0
  -25.9210  -32.3870   23.7120 C   0  0  0  0  0  3  0  0  0  0  0  0
  -26.4520  -31.5940   24.9690 C   0  0  1  0  0  0  0  0  0  0  0  0
  -25.3580  -31.2850   26.0170 C   0  0  0  0  0  1  0  0  0  0  0  0
  -27.0860  -30.2510   24.5380 C   0  0  0  0  0  1  0  0  0  0  0  0
  -27.5680  -32.4070   25.6670 C   0  0  0  0  0  1  0  0  0  0  0  0
  -25.5640  -33.7640   24.0800 N   0  0  0  0  0  0  0  0  0  0  0  0
  -25.8740  -34.8490   23.3580 C   0  0  0  0  0  0  0  0  0  0  0  0
  -26.5620  -34.7990   22.3350 O   0  0  0  0  0  0  0  0  0  0  0  0
  -24.9540  -33.8750   24.8770 H   0  0  0  0  0  0  0  0  0  0  0  0
  -24.1070  -36.6040   23.0170 C   0  0  0  0  0  1  0  0  0  0  0  0
  -25.3350  -36.2060   23.8500 C   0  0  0  0  0  3  0  0  0  0  0  0
  -27.4110  -37.1260   24.7840 C   0  0  0  0  0  1  0  0  0  0  0  0
  -26.3400  -37.2900   23.8040 N   0  0  0  0  0  0  0  0  0  0  0  0
  -25.9030  -38.1950   23.9610 H   0  0  0  0  0  0  0  0  0  0  0  0
  2  4  2  0
  2  6  1  0
  4  5  1  0
  5  1  1  0
  5  3  2  0
  6  7  2  0
  7  3  1  0
  7  9  1  0
  8  4  1  0
 10 16  1  0
 11 16  1  0
 12 13  1  0
 12 11  1  0
 14 13  1  0
 14 22  1  0
 14 15  1  0
 16 15  1  0
 17 10  2  0
 18 10  1  0
 18  6  1  0
 19 20  2  0
 20 39  1  0
 21 20  1  0
 21 24  1  0
 22 23  1  0
 22 19  1  0
 23 21  2  0
 24 25  1  0
 25 26  2  0
 27 30  1  0
 27 26  1  0
 28 27  2  0
 29 28  1  0
 29 24  2  0
 30 31  1  0
 31 36  2  0
 31 32  1  0
 32 33  2  0
 33 34  1  0
 34 38  1  0
 35 34  2  0
 36 35  1  0
 37 36  1  0
 39 40  1  0
 40 43  1  0
 40 42  1  0
 41 39  2  0
 44 45  1  0
 44 19  1  0
 46 44  1  0
 47 48  1  0
 48 18  1  0
 49 53  1  0
 49 54  2  0
 50 52  1  0
 50 51  1  0
 51 53  1  0
 52 55  1  0
 52 49  1  0
 53  1  1  0
 55 56  1  0
 56 58  1  0
 57 68  2  0
 58 63  1  0
 59 67  1  0
 59 69  1  0
 60 66  1  0
 60 62  1  0
 61 67  1  0
 62 61  1  0
 63 62  2  0
 64 65  1  0
 64 58  2  0
 65 60  2  0
 66 59  1  0
 67 57  1  0
 69 71  2  0
 70 69  1  0
 72 70  1  0
 73 82  2  0
 73 78  1  0
 74 70  1  0
 74 78  1  0
 75 74  1  0
 76 77  1  0
 76 75  1  0
 77 73  1  0
 78 79  2  0
 79 80  1  0
 81 80  2  0
 82 81  1  0
 83 57  1  0
 83 88  1  0
 83 84  1  0
 84 87  1  1
 84 85  1  0
 86 84  1  0
 88 91  1  0
 89 93  1  0
 89 88  1  0
 90 89  2  0
 93 92  1  0
 95 93  1  0
 95 96  1  0
 95 94  1  0
M  ISO  4  10 100  18 100  55 101  56 101
M  END
>  <TORSDO>  (10) 
F 20

>  <SCORE>  (10) 
-12.443

>  <name>  (10) 
9

>  <ligand_id>  (10) 
9

>  <original_smiles>  (10) 
[H]c1c([H])c([H])c2c(c1[H])C([H])([H])C([H])([H])C([H])([H])C2([H])N([H])C(=O)C1([H])N(C(=O)C([H])(N([H])C(=O)C([H])(N([H])C([H])([H])[H])C([H])([H])[H])C(C([H])([H])[H])(C([H])([H])[H])C([H])([H])[H])C([H])([H])c2c([H])c(OC([H])([H])C3([H])C(=O)N(C([H])([H])c4c([H])c(F)c(N(C(=O)N5C([H])([H])C([H])([H])C([H])([H])C([H])(n6nc(-c7c([H])c([H])c(Oc8c([H])c([H])c(F)c([H])c8F)c([H])c7[H])c(C(=O)N([H])[H])c6N([H])[H])C5([H])[H])C([H])([H])C([H])([H])[H])c([H])c4C([H])([H])[H])C([H])([H])C3([H])[H])c([H])c([H])c2C1([H])[H]

>  <smiles>  (10) 
[H]c1c([H])c([H])c2c(c1[H])C([H])([H])C([H])([H])C([H])([H])C2([H])N([H])C(=O)C1([H])N(C(=O)C([H])(N([H])C(=O)C([H])(N([H])C([H])([H])[H])C([H])([H])[H])C(C([H])([H])[H])(C([H])([H])[H])C([H])([H])[H])C([H])([H])c2c([H])c(OC([H])([H])C3([H])C(=O)N(C([H])([H])c4c([H])c(F)c(N(C(=O)N5C([H])([H])C([H])([H])C([H])([H])C([H])(n6nc(-c7c([H])c([H])c(Oc8c([H])c([H])c(F)c([H])c8F)c([H])c7[H])c(C(=O)N([H])[H])c6N([H])[H])C5([H])[H])C([H])([H])C([H])([H])[H])c([H])c4C([H])([H])[H])C([H])([H])C3([H])[H])c([H])c([H])c2C1([H])[H]

$$$$
10:0:0
     RDKit          3D

 95 95  0  0  1  0  0  0  0  0999 V2000
  -23.4980  -25.6740   20.2840 C   0  0  0  0  0 15  0  0  0  0  0  0
  -25.7620  -21.6060   18.7910 C   0  0  0  0  0  3  0  0  0  0  0  0
  -24.8500  -22.9110   18.8730 C   0  0  0  0  0  3  0  0  0  0  0  0
  -26.7800  -20.9060   19.7190 C   0  0  0  0  0  3  0  0  0  0  0  0
  -24.6000  -24.0130   19.9180 C   0  0  0  0  0  3  0  0  0  0  0  0
  -26.5310  -22.0180   20.7460 C   0  0  0  0  0  0  0  0  0  0  0  0
  -25.6260  -23.3160   20.8240 C   0  0  0  0  0  0  0  0  0  0  0  0
  -27.2540  -21.8240   21.8750 F   0  0  0  0  0  0  0  0  0  0  0  0
  -25.7790  -23.9730   21.9990 F   0  0  0  0  0  0  0  0  0  0  0  0
  -27.7760  -19.1420   19.8530 C   0  0  0  0  0  1  0  0  0  0  0  0
  -30.3940  -16.7760   19.9300 C   0  0  0  0  0  0  0  0  0  0  0  0
  -31.2250  -14.2050   19.3800 C   0  0  0  0  0  2  0  0  0  0  0  0
  -30.5050  -13.4440   18.2250 C   0  0  0  0  0  2  0  0  0  0  0  0
  -29.1390  -12.9230   18.6990 C   0  0  0  0  0  2  0  0  0  0  0  0
  -28.4720  -13.9490   19.6410 C   0  0  0  0  0  3  0  0  0  0  0  0
  -29.3740  -14.4780   20.7500 C   0  0  0  0  0  2  0  0  0  0  0  0
  -30.2980  -15.3010   19.9950 N   0  0  0  0  0  0  0  0  0  0  0  0
  -31.6520  -16.8840   19.7910 O   0  0  0  0  0  0  0  0  0  0  0  0
  -29.3820  -18.0970   19.8450 N   0  0  0  0  0  0  0  0  0  0  0  0
  -30.0850  -18.8170   19.7460 H   0  0  0  0  0  0  0  0  0  0  0  0
  -26.2040  -14.3810   20.5880 C   0  0  0  0  0  0  0  0  0  0  0  0
  -25.1960  -13.5510   20.9660 C   0  0  0  0  0  0  0  0  0  0  0  0
  -25.6960  -12.2190   20.8130 C   0  0  0  0  0  0  0  0  0  0  0  0
  -27.2230  -13.5420   20.1970 N   0  0  0  0  0  0  0  0  0  0  0  0
  -26.9590  -12.2350   20.4150 N   0  0  0  0  0  0  0  0  0  0  0  0
  -25.0220  -10.9290   20.9510 C   0  0  0  0  0  0  0  0  0  0  0  0
  -25.3380  -10.0400   22.0000 C   0  0  0  0  0  3  0  0  0  0  0  0
  -24.6550   -8.8120   22.1200 C   0  0  0  0  0  3  0  0  0  0  0  0
  -23.6470   -8.4690   21.1870 C   0  0  0  0  0  0  0  0  0  0  0  0
  -23.3570   -9.3480   20.1310 C   0  0  0  0  0  3  0  0  0  0  0  0
  -24.0410  -10.5680   20.0090 C   0  0  0  0  0  3  0  0  0  0  0  0
  -22.9450   -7.2890   21.2110 O   0  0  0  0  0  0  0  0  0  0  0  0
  -22.4170   -6.7920   22.3750 C   0  0  0  0  0  0  0  0  0  0  0  0
  -21.5500   -7.5560   23.1860 C   0  0  0  0  0  3  0  0  0  0  0  0
  -20.9760   -6.9820   24.3380 C   0  0  0  0  0  3  0  0  0  0  0  0
  -21.2590   -5.6430   24.6720 C   0  0  0  0  0  0  0  0  0  0  0  0
  -22.1170   -4.8800   23.8620 C   0  0  0  0  0  3  0  0  0  0  0  0
  -22.6920   -5.4540   22.7150 C   0  0  0  0  0  0  0  0  0  0  0  0
  -23.5040   -4.7080   21.9250 F   0  0  0  0  0  0  0  0  0  0  0  0
  -20.6990   -5.0860   25.7720 F   0  0  0  0  0  0  0  0  0  0  0  0
  -23.8110  -13.9730   21.3400 C   0  0  0  0  0  0  0  0  0  0  0  0
  -23.1730  -13.2350   22.2380 N   0  0  0  0  0  0  0  0  0  0  0  0
  -23.3100  -14.9940   20.8700 O   0  0  0  0  0  0  0  0  0  0  0  0
  -23.6000  -12.4110   22.6340 H   0  0  0  0  0  0  0  0  0  0  0  0
  -22.2440  -13.4960   22.5370 H   0  0  0  0  0  0  0  0  0  0  0  0
  -26.3390  -15.7660   20.5080 N   0  0  0  0  0  0  0  0  0  0  0  0
  -25.5760  -16.3970   20.7280 H   0  0  0  0  0  0  0  0  0  0  0  0
  -27.1570  -16.2390   20.1470 H   0  0  0  0  0  0  0  0  0  0  0  0
  -21.9560  -27.0560   18.4860 C   0  0  0  0  0  1  0  0  0  0  0  0
  -22.6630  -27.3240   19.7590 N   0  0  0  0  0  2  0  0  0  0  0  0
  -23.5150  -27.7210   19.3940 H   0  0  0  0  0  0  0  0  0  0  0  0
  -21.9710  -29.0560   20.4950 C   0  0  0  0  0 15  0  0  0  0  0  0
  -22.4610  -30.1410   22.5090 C   0  0  0  0  0 15  0  0  0  0  0  0
  -24.2490  -29.4950   23.7180 C   0  0  0  0  0 15  0  0  0  0  0  0
  -25.9750  -28.7680   23.0280 O   0  0  0  0  0  1  0  0  0  0  0  0
  -24.6120  -31.9390   22.9110 C   0  0  0  0  0  0  0  0  0  0  0  0
  -26.7460  -28.0710   21.9060 C   0  0  0  0  0  3  0  0  0  0  0  0
  -24.2150  -29.5340   21.2330 C   0  0  0  0  0  2  0  0  0  0  0  0
  -25.7530  -29.0520   19.7880 C   0  0  0  0  0  3  0  0  0  0  0  0
  -26.2160  -31.1050   21.2530 C   0  0  0  0  0  2  0  0  0  0  0  0
  -26.6510  -29.7890   20.6200 C   0  0  0  0  0  3  0  0  0  0  0  0
  -27.5590  -29.0380   21.3560 C   0  0  0  0  0  2  0  0  0  0  0  0
  -26.3640  -27.1150   20.8800 C   0  0  0  0  0  2  0  0  0  0  0  0
  -25.8210  -27.6570   19.7110 C   0  0  0  0  0  2  0  0  0  0  0  0
  -24.4230  -29.5590   19.7300 C   0  0  0  0  0  2  0  0  0  0  0  0
  -24.8890  -30.9710   21.8440 N   0  0  0  0  0  0  0  0  0  0  0  0
  -23.4630  -32.2060   23.3080 O   0  0  0  0  0  0  0  0  0  0  0  0
  -23.6910  -27.7840   22.1760 C   0  0  0  0  0  2  0  0  0  0  0  0
  -22.4470  -27.4850   22.9880 N   0  0  0  0  0  0  0  0  0  0  0  0
  -24.3710  -27.0240   22.7750 O   0  0  0  0  0  1  0  0  0  0  0  0
  -22.7440  -26.7060   23.5580 H   0  0  0  0  0  0  0  0  0  0  0  0
  -18.3270  -28.4900   22.8550 C   0  0  0  0  0  0  0  0  0  0  0  0
  -20.8760  -27.7440   23.3950 C   0  0  0  0  0  3  0  0  0  0  0  0
  -20.3400  -26.4930   22.7480 C   0  0  0  0  0  2  0  0  0  0  0  0
  -19.4440  -26.6580   21.5320 C   0  0  0  0  0  2  0  0  0  0  0  0
  -18.1500  -27.3020   21.9410 C   0  0  0  0  0  2  0  0  0  0  0  0
  -19.6110  -28.8600   23.4200 C   0  0  0  0  0  0  0  0  0  0  0  0
  -19.4870  -30.0390   24.2460 C   0  0  0  0  0  3  0  0  0  0  0  0
  -18.2670  -30.7510   24.4580 C   0  0  0  0  0  3  0  0  0  0  0  0
  -17.0560  -30.3050   23.9120 C   0  0  0  0  0  3  0  0  0  0  0  0
  -17.1010  -29.1660   23.1090 C   0  0  0  0  0  3  0  0  0  0  0  0
  -25.6960  -32.5950   23.9130 C   0  0  0  0  0  3  0  0  0  0  0  0
  -25.2800  -33.9860   24.1710 N   0  0  0  0  0  0  0  0  0  0  0  0
  -25.7710  -35.0490   23.5300 C   0  0  0  0  0  0  0  0  0  0  0  0
  -26.6270  -34.9430   22.6510 O   0  0  0  0  0  0  0  0  0  0  0  0
  -24.5190  -34.1230   24.8210 H   0  0  0  0  0  0  0  0  0  0  0  0
  -24.1210  -36.8300   22.8970 C   0  0  0  0  0  1  0  0  0  0  0  0
  -25.2210  -36.4410   23.9000 C   0  0  0  0  0  3  0  0  0  0  0  0
  -27.2010  -37.3400   25.0400 C   0  0  0  0  0  1  0  0  0  0  0  0
  -26.2630  -37.4920   23.9310 N   0  0  0  0  0  0  0  0  0  0  0  0
  -25.8480  -38.4170   23.9930 H   0  0  0  0  0  0  0  0  0  0  0  0
  -25.9580  -31.9530   25.3770 C   0  0  1  0  0  0  0  0  0  0  0  0
  -24.6900  -31.7320   26.2650 C   0  0  0  0  0  1  0  0  0  0  0  0
  -26.8140  -30.6600   25.3060 C   0  0  0  0  0  1  0  0  0  0  0  0
  -26.8570  -32.8970   26.2250 C   0  0  0  0  0  1  0  0  0  0  0  0
  2  3  2  0
  2  4  1  0
  3  5  1  0
  4  6  2  0
  5  7  2  0
  6  7  1  0
  6  8  1  0
  7  9  1  0
 11 17  1  0
 12 17  1  0
 13 14  1  0
 13 12  1  0
 15 14  1  0
 15 24  1  0
 15 16  1  0
 17 16  1  0
 18 11  2  0
 19 10  1  0
 19 11  1  0
 20 19  1  0
 21 22  2  0
 22 41  1  0
 23 26  1  0
 23 22  1  0
 24 25  1  0
 24 21  1  0
 25 23  2  0
 26 27  1  0
 27 28  2  0
 29 32  1  0
 29 28  1  0
 30 29  2  0
 31 30  1  0
 31 26  2  0
 32 33  1  0
 33 38  2  0
 33 34  1  0
 34 35  2  0
 35 36  1  0
 36 40  1  0
 37 36  2  0
 38 37  1  0
 39 38  1  0
 41 42  1  0
 42 45  1  0
 42 44  1  0
 43 41  2  0
 46 21  1  0
 46 47  1  0
 48 46  1  0
 49 50  1  0
 51 50  1  0
 56 67  2  0
 57 55  1  0
 58 66  1  0
 59 64  1  0
 59 61  1  0
 60 66  1  0
 61 60  1  0
 61 62  1  0
 62 57  1  0
 63 57  1  0
 64 63  1  0
 65 59  1  0
 65 58  1  0
 66 56  1  0
 68 70  1  0
 68 69  1  0
 69 71  1  0
 72 81  2  0
 72 77  1  0
 73 69  1  0
 73 77  1  0
 74 73  1  0
 75 76  1  0
 75 74  1  0
 76 72  1  0
 77 78  2  0
 78 79  1  0
 80 79  2  0
 81 80  1  0
 82 56  1  0
 82 83  1  0
 82 92  1  0
 83 86  1  0
 84 88  1  0
 84 83  1  0
 85 84  2  0
 88 87  1  0
 88 90  1  0
 90 91  1  0
 90 89  1  0
 92 95  1  1
 92 93  1  0
 94 92  1  0
M  ISO  4  11 100  19 100  54 101  55 101
M  END
>  <TORSDO>  (11) 
F 22

>  <SCORE>  (11) 
-11.087

>  <name>  (11) 
10

>  <ligand_id>  (11) 
10

>  <original_smiles>  (11) 
[H]c1c([H])c([H])c2c(c1[H])C([H])([H])C([H])([H])C([H])([H])C2([H])N([H])C(=O)C1([H])N(C(=O)C([H])(N([H])C(=O)C([H])(N([H])C([H])([H])[H])C([H])([H])[H])C(C([H])([H])[H])(C([H])([H])[H])C([H])([H])[H])C([H])([H])c2c([H])c(OC([H])([H])C([H])([H])C([H])([H])[N+]([H])(C([H])([H])[H])C([H])([H])c3c([H])c([H])c(C([H])([H])N([H])C(=O)N4C([H])([H])C([H])([H])C([H])([H])C([H])(n5nc(-c6c([H])c([H])c(Oc7c([H])c([H])c(F)c([H])c7F)c([H])c6[H])c(C(=O)N([H])[H])c5N([H])[H])C4([H])[H])c(F)c3F)c([H])c([H])c2C1([H])[H]

>  <smiles>  (11) 
[H]c1c([H])c([H])c2c(c1[H])C([H])([H])C([H])([H])C([H])([H])C2([H])N([H])C(=O)C1([H])N(C(=O)C([H])(N([H])C(=O)C([H])(N([H])C([H])([H])[H])C([H])([H])[H])C(C([H])([H])[H])(C([H])([H])[H])C([H])([H])[H])C([H])([H])c2c([H])c(OC([H])([H])C([H])([H])C([H])([H])[N+]([H])(C([H])([H])[H])C([H])([H])c3c([H])c([H])c(C([H])([H])N([H])C(=O)N4C([H])([H])C([H])([H])C([H])([H])C([H])(n5nc(-c6c([H])c([H])c(Oc7c([H])c([H])c(F)c([H])c7F)c([H])c6[H])c(C(=O)N([H])[H])c5N([H])[H])C4([H])[H])c(F)c3F)c([H])c([H])c2C1([H])[H]

$$$$
11:0:0
     RDKit          3D

 90 98  0  0  1  0  0  0  0  0999 V2000
  -30.9700  -18.5900   19.7710 C   0  0  0  0  0  3  0  0  0  0  0  0
  -30.8820  -20.0350   19.6790 C   0  0  0  0  0  3  0  0  0  0  0  0
  -28.7940  -18.5570   20.6680 C   0  0  0  0  0  3  0  0  0  0  0  0
  -29.9120  -17.7530   20.2370 C   0  0  0  0  0  0  0  0  0  0  0  0
  -29.7370  -20.8460   20.0320 C   0  0  0  0  0  0  0  0  0  0  0  0
  -28.7080  -20.0100   20.5930 C   0  0  0  0  0  0  0  0  0  0  0  0
  -27.5530  -20.5980   20.9930 F   0  0  0  0  0  0  0  0  0  0  0  0
  -30.5550  -15.0860   20.1180 C   0  0  0  0  0  0  0  0  0  0  0  0
  -30.4170  -12.7090   19.2330 C   0  0  0  0  0  2  0  0  0  0  0  0
  -29.4700  -12.5890   18.0140 C   0  0  0  0  0  2  0  0  0  0  0  0
  -28.0010  -12.4330   18.4630 C   0  0  0  0  0  2  0  0  0  0  0  0
  -27.6000  -13.3700   19.6360 C   0  0  0  0  0  3  0  0  0  0  0  0
  -28.6810  -13.4340   20.7360 C   0  0  0  0  0  2  0  0  0  0  0  0
  -29.9400  -13.8310   20.0870 N   0  0  0  0  0  0  0  0  0  0  0  0
  -31.7840  -15.1120   19.9890 O   0  0  0  0  0  0  0  0  0  0  0  0
  -29.0170  -16.2540   18.6270 C   0  0  0  0  0  1  0  0  0  0  0  0
  -29.7770  -16.2720   19.8860 N   0  0  0  0  0  0  0  0  0  0  0  0
  -25.2310  -13.9700   20.3880 C   0  0  0  0  0  0  0  0  0  0  0  0
  -24.1680  -13.2010   20.7680 C   0  0  0  0  0  0  0  0  0  0  0  0
  -24.6350  -11.8500   20.7570 C   0  0  0  0  0  0  0  0  0  0  0  0
  -26.2730  -13.0860   20.1560 N   0  0  0  0  0  0  0  0  0  0  0  0
  -25.9250  -11.8090   20.4470 N   0  0  0  0  0  0  0  0  0  0  0  0
  -23.9150  -10.5890   20.9630 C   0  0  0  0  0  0  0  0  0  0  0  0
  -24.3520   -9.6390   21.9120 C   0  0  0  0  0  3  0  0  0  0  0  0
  -23.6320   -8.4410   22.1070 C   0  0  0  0  0  3  0  0  0  0  0  0
  -22.4610   -8.1860   21.3530 C   0  0  0  0  0  0  0  0  0  0  0  0
  -22.0440   -9.1260   20.3940 C   0  0  0  0  0  3  0  0  0  0  0  0
  -22.7650  -10.3140   20.1970 C   0  0  0  0  0  3  0  0  0  0  0  0
  -21.7110   -7.0400   21.4590 O   0  0  0  0  0  0  0  0  0  0  0  0
  -21.6670   -6.3150   22.6220 C   0  0  0  0  0  0  0  0  0  0  0  0
  -21.2370   -6.8840   23.8400 C   0  0  0  0  0  3  0  0  0  0  0  0
  -21.1410   -6.0840   24.9960 C   0  0  0  0  0  3  0  0  0  0  0  0
  -21.4640   -4.7140   24.9350 C   0  0  0  0  0  0  0  0  0  0  0  0
  -21.8860   -4.1450   23.7210 C   0  0  0  0  0  3  0  0  0  0  0  0
  -21.9850   -4.9430   22.5680 C   0  0  0  0  0  0  0  0  0  0  0  0
  -22.3730   -4.3840   21.3960 F   0  0  0  0  0  0  0  0  0  0  0  0
  -21.3620   -3.9440   26.0440 F   0  0  0  0  0  0  0  0  0  0  0  0
  -22.7690  -13.6780   21.0280 C   0  0  0  0  0  0  0  0  0  0  0  0
  -22.0390  -12.9920   21.8990 N   0  0  0  0  0  0  0  0  0  0  0  0
  -22.3320  -14.6960   20.4930 O   0  0  0  0  0  0  0  0  0  0  0  0
  -22.4050  -12.1700   22.3570 H   0  0  0  0  0  0  0  0  0  0  0  0
  -21.0980  -13.2940   22.1150 H   0  0  0  0  0  0  0  0  0  0  0  0
  -25.3910  -15.3400   20.1930 N   0  0  0  0  0  0  0  0  0  0  0  0
  -24.6230  -15.9930   20.3130 H   0  0  0  0  0  0  0  0  0  0  0  0
  -26.2450  -15.7800   19.8820 H   0  0  0  0  0  0  0  0  0  0  0  0
  -30.5510  -22.6680   18.6110 C   0  0  0  0  0  1  0  0  0  0  0  0
  -29.6270  -22.3020   19.6890 N   0  0  0  0  0  0  0  0  0  0  0  0
  -29.1830  -23.5630   20.4830 C   0  0  0  0  0  2  0  0  0  0  0  0
  -28.3720  -24.8540   19.7730 C   0  0  0  0  0  2  0  0  0  0  0  0
  -28.4850  -26.3560   20.1250 O   0  0  0  0  0  0  0  0  0  0  0  0
  -24.7150  -31.8780   23.1240 C   0  0  0  0  0  0  0  0  0  0  0  0
  -27.3890  -27.2830   20.0330 C   0  0  0  0  0  0  0  0  0  0  0  0
  -23.5360  -30.4790   21.4670 C   0  0  0  0  0  3  0  0  0  0  0  0
  -25.0130  -28.9540   20.0200 C   0  0  0  0  0  0  0  0  0  0  0  0
  -26.0800  -30.8040   21.3010 C   0  0  0  0  0  2  0  0  0  0  0  0
  -26.1790  -29.4250   20.6340 C   0  0  0  0  0  0  0  0  0  0  0  0
  -27.3630  -28.6030   20.6280 C   0  0  0  0  0  3  0  0  0  0  0  0
  -26.1990  -26.9110   19.3640 C   0  0  0  0  0  3  0  0  0  0  0  0
  -25.0330  -27.7100   19.3700 C   0  0  0  0  0  3  0  0  0  0  0  0
  -23.7660  -29.8200   20.0810 C   0  0  0  0  0  2  0  0  0  0  0  0
  -24.7960  -31.0760   22.0200 N   0  0  0  0  0  0  0  0  0  0  0  0
  -23.6250  -32.1360   23.6580 O   0  0  0  0  0  0  0  0  0  0  0  0
  -22.8800  -29.4500   22.4200 C   0  0  0  0  0  0  0  0  0  0  0  0
  -21.5500  -29.2800   22.3150 N   0  0  0  0  0  0  0  0  0  0  0  0
  -23.5680  -28.8060   23.2160 O   0  0  0  0  0  0  0  0  0  0  0  0
  -21.0520  -29.8530   21.6480 H   0  0  0  0  0  0  0  0  0  0  0  0
  -18.1760  -28.0830   22.8720 C   0  0  0  0  0  0  0  0  0  0  0  0
  -20.7430  -28.3230   23.0790 C   0  0  0  0  0  3  0  0  0  0  0  0
  -20.8210  -26.9090   22.4600 C   0  0  0  0  0  2  0  0  0  0  0  0
  -19.6900  -26.6220   21.4660 C   0  0  0  0  0  2  0  0  0  0  0  0
  -18.3270  -26.7540   22.1510 C   0  0  0  0  0  2  0  0  0  0  0  0
  -19.3100  -28.8270   23.2930 C   0  0  0  0  0  0  0  0  0  0  0  0
  -19.1130  -30.0720   23.9310 C   0  0  0  0  0  3  0  0  0  0  0  0
  -17.8160  -30.5720   24.1480 C   0  0  0  0  0  3  0  0  0  0  0  0
  -16.6960  -29.8240   23.7410 C   0  0  0  0  0  3  0  0  0  0  0  0
  -16.8790  -28.5810   23.1090 C   0  0  0  0  0  3  0  0  0  0  0  0
  -25.9850  -32.5270   23.7560 C   0  0  0  0  0  3  0  0  0  0  0  0
  -26.5170  -31.7460   25.0200 C   0  0  1  0  0  0  0  0  0  0  0  0
  -25.4320  -31.4740   26.0880 C   0  0  0  0  0  1  0  0  0  0  0  0
  -27.1210  -30.3830   24.6100 C   0  0  0  0  0  1  0  0  0  0  0  0
  -27.6550  -32.5500   25.6910 C   0  0  0  0  0  1  0  0  0  0  0  0
  -25.6470  -33.9140   24.1150 N   0  0  0  0  0  0  0  0  0  0  0  0
  -25.9520  -34.9900   23.3780 C   0  0  0  0  0  0  0  0  0  0  0  0
  -26.6150  -34.9210   22.3390 O   0  0  0  0  0  0  0  0  0  0  0  0
  -25.0580  -34.0390   24.9250 H   0  0  0  0  0  0  0  0  0  0  0  0
  -24.1870  -36.7580   23.0780 C   0  0  0  0  0  1  0  0  0  0  0  0
  -25.4440  -36.3590   23.8700 C   0  0  0  0  0  3  0  0  0  0  0  0
  -27.5650  -37.2700   24.7050 C   0  0  0  0  0  1  0  0  0  0  0  0
  -26.4550  -37.4350   23.7710 N   0  0  0  0  0  0  0  0  0  0  0  0
  -26.0330  -38.3440   23.9380 H   0  0  0  0  0  0  0  0  0  0  0  0
  1  4  1  0
  2  1  2  0
  2  5  1  0
  4  3  2  0
  5  6  2  0
  6  3  1  0
  6  7  1  0
  9 14  1  0
 10 11  1  0
 10  9  1  0
 12 11  1  0
 12 21  1  0
 12 13  1  0
 14  8  1  0
 14 13  1  0
 15  8  2  0
 16 17  1  0
 17  8  1  0
 17  4  1  0
 18 19  2  0
 19 38  1  0
 20 19  1  0
 20 23  1  0
 21 18  1  0
 21 22  1  0
 22 20  2  0
 23 24  1  0
 24 25  2  0
 26 29  1  0
 26 25  1  0
 27 26  2  0
 28 27  1  0
 28 23  2  0
 29 30  1  0
 30 31  1  0
 31 32  2  0
 33 32  1  0
 33 37  1  0
 34 33  2  0
 35 30  2  0
 35 34  1  0
 36 35  1  0
 38 39  1  0
 39 42  1  0
 39 41  1  0
 40 38  2  0
 43 44  1  0
 43 18  1  0
 45 43  1  0
 46 47  1  0
 47  5  1  0
 47 48  1  0
 49 50  1  0
 49 48  1  0
 51 62  2  0
 52 50  1  0
 52 57  1  0
 53 61  1  0
 53 63  1  0
 54 60  1  0
 54 56  1  0
 55 61  1  0
 56 55  1  0
 57 56  2  0
 58 59  1  0
 58 52  2  0
 59 54  2  0
 60 53  1  0
 61 51  1  0
 63 65  2  0
 64 63  1  0
 66 64  1  0
 67 76  2  0
 67 72  1  0
 68 64  1  0
 68 72  1  0
 69 68  1  0
 70 71  1  0
 70 69  1  0
 71 67  1  0
 72 73  2  0
 73 74  1  0
 75 74  2  0
 76 75  1  0
 77 51  1  0
 77 82  1  0
 77 78  1  0
 78 81  1  1
 78 79  1  0
 80 78  1  0
 82 85  1  0
 83 87  1  0
 83 82  1  0
 84 83  2  0
 87 86  1  0
 89 87  1  0
 89 90  1  0
 89 88  1  0
M  ISO  4   8 100  17 100  49 101  50 101
M  END
>  <TORSDO>  (12) 
F 19

>  <SCORE>  (12) 
-13.731

>  <name>  (12) 
11

>  <ligand_id>  (12) 
11

>  <original_smiles>  (12) 
[H]c1c([H])c([H])c2c(c1[H])C([H])([H])C([H])([H])C([H])([H])C2([H])N([H])C(=O)C1([H])N(C(=O)C([H])(N([H])C(=O)C([H])(N([H])C([H])([H])[H])C([H])([H])[H])C(C([H])([H])[H])(C([H])([H])[H])C([H])([H])[H])C([H])([H])c2c([H])c(OC([H])([H])C([H])([H])N(c3c([H])c([H])c(N(C(=O)N4C([H])([H])C([H])([H])C([H])([H])C([H])(n5nc(-c6c([H])c([H])c(Oc7c([H])c([H])c(F)c([H])c7F)c([H])c6[H])c(C(=O)N([H])[H])c5N([H])[H])C4([H])[H])C([H])([H])[H])c([H])c3F)C([H])([H])[H])c([H])c([H])c2C1([H])[H]

>  <smiles>  (12) 
[H]c1c([H])c([H])c2c(c1[H])C([H])([H])C([H])([H])C([H])([H])C2([H])N([H])C(=O)C1([H])N(C(=O)C([H])(N([H])C(=O)C([H])(N([H])C([H])([H])[H])C([H])([H])[H])C(C([H])([H])[H])(C([H])([H])[H])C([H])([H])[H])C([H])([H])c2c([H])c(OC([H])([H])C([H])([H])N(c3c([H])c([H])c(N(C(=O)N4C([H])([H])C([H])([H])C([H])([H])C([H])(n5nc(-c6c([H])c([H])c(Oc7c([H])c([H])c(F)c([H])c7F)c([H])c6[H])c(C(=O)N([H])[H])c5N([H])[H])C4([H])[H])C([H])([H])[H])c([H])c3F)C([H])([H])[H])c([H])c([H])c2C1([H])[H]

$$$$
12:0:0
     RDKit          3D

 89 97  0  0  1  0  0  0  0  0999 V2000
  -30.0090  -18.7360   21.4030 C   0  0  0  0  0  3  0  0  0  0  0  0
  -29.6900  -20.1420   21.1870 C   0  0  0  0  0  3  0  0  0  0  0  0
  -29.0030  -19.5870   19.0090 C   0  0  0  0  0  3  0  0  0  0  0  0
  -29.8580  -17.6600   20.4440 C   0  0  0  0  0  0  0  0  0  0  0  0
  -29.1450  -20.6590   19.9670 C   0  0  0  0  0  0  0  0  0  0  0  0
  -29.3390  -18.1810   19.2140 C   0  0  0  0  0  0  0  0  0  0  0  0
  -29.1000  -17.3060   18.2050 F   0  0  0  0  0  0  0  0  0  0  0  0
  -30.6390  -15.0730   20.0730 C   0  0  0  0  0  0  0  0  0  0  0  0
  -30.4150  -12.7690   19.0230 C   0  0  0  0  0  2  0  0  0  0  0  0
  -29.4300  -12.7720   17.8330 C   0  0  0  0  0  2  0  0  0  0  0  0
  -27.9900  -12.5490   18.3240 C   0  0  0  0  0  2  0  0  0  0  0  0
  -27.6430  -13.4560   19.5310 C   0  0  0  0  0  3  0  0  0  0  0  0
  -28.7350  -13.4180   20.6180 C   0  0  0  0  0  2  0  0  0  0  0  0
  -30.0030  -13.8300   19.9900 N   0  0  0  0  0  0  0  0  0  0  0  0
  -31.7520  -15.1680   19.5400 O   0  0  0  0  0  0  0  0  0  0  0  0
  -30.2670  -15.9440   22.2370 C   0  0  0  0  0  1  0  0  0  0  0  0
  -30.0850  -16.1690   20.7930 N   0  0  0  0  0  0  0  0  0  0  0  0
  -25.3020  -14.0400   20.3880 C   0  0  0  0  0  0  0  0  0  0  0  0
  -24.2530  -13.2630   20.7950 C   0  0  0  0  0  0  0  0  0  0  0  0
  -24.7080  -11.9100   20.7210 C   0  0  0  0  0  0  0  0  0  0  0  0
  -26.3260  -13.1590   20.0810 N   0  0  0  0  0  0  0  0  0  0  0  0
  -25.9820  -11.8730   20.3500 N   0  0  0  0  0  0  0  0  0  0  0  0
  -23.9860  -10.6470   20.9230 C   0  0  0  0  0  0  0  0  0  0  0  0
  -24.4170   -9.6900   21.8660 C   0  0  0  0  0  3  0  0  0  0  0  0
  -23.6920   -8.4930   22.0560 C   0  0  0  0  0  3  0  0  0  0  0  0
  -22.5210   -8.2460   21.3010 C   0  0  0  0  0  0  0  0  0  0  0  0
  -22.1080   -9.1920   20.3460 C   0  0  0  0  0  3  0  0  0  0  0  0
  -22.8340  -10.3810   20.1560 C   0  0  0  0  0  3  0  0  0  0  0  0
  -21.7660   -7.1010   21.3990 O   0  0  0  0  0  0  0  0  0  0  0  0
  -21.6640   -6.4060   22.5760 C   0  0  0  0  0  0  0  0  0  0  0  0
  -21.1640   -7.0010   23.7540 C   0  0  0  0  0  3  0  0  0  0  0  0
  -21.0110   -6.2300   24.9240 C   0  0  0  0  0  3  0  0  0  0  0  0
  -21.3480   -4.8630   24.9150 C   0  0  0  0  0  0  0  0  0  0  0  0
  -21.8420   -4.2670   23.7410 C   0  0  0  0  0  3  0  0  0  0  0  0
  -21.9970   -5.0360   22.5750 C   0  0  0  0  0  0  0  0  0  0  0  0
  -22.4520   -4.4500   21.4410 F   0  0  0  0  0  0  0  0  0  0  0  0
  -21.1950   -4.1190   26.0350 F   0  0  0  0  0  0  0  0  0  0  0  0
  -22.8720  -13.7430   21.1360 C   0  0  0  0  0  0  0  0  0  0  0  0
  -22.1790  -13.0360   22.0210 N   0  0  0  0  0  0  0  0  0  0  0  0
  -22.4180  -14.7770   20.6510 O   0  0  0  0  0  0  0  0  0  0  0  0
  -22.5610  -12.1990   22.4360 H   0  0  0  0  0  0  0  0  0  0  0  0
  -21.2520  -13.3350   22.2880 H   0  0  0  0  0  0  0  0  0  0  0  0
  -25.4610  -15.4120   20.2310 N   0  0  0  0  0  0  0  0  0  0  0  0
  -24.7040  -16.0620   20.4170 H   0  0  0  0  0  0  0  0  0  0  0  0
  -26.2940  -15.8640   19.8740 H   0  0  0  0  0  0  0  0  0  0  0  0
  -28.6940  -22.0230   19.6510 O   0  0  0  0  0  0  0  0  0  0  0  0
  -28.9120  -23.3910   20.3360 C   0  0  0  0  0  3  0  0  0  0  0  0
  -28.0140  -24.7710   19.9470 C   0  0  0  0  0  3  0  0  0  0  0  0
  -28.2590  -26.2700   20.3170 O   0  0  0  0  0  0  0  0  0  0  0  0
  -24.6200  -31.9600   23.3200 C   0  0  0  0  0  0  0  0  0  0  0  0
  -27.2100  -27.2610   20.2520 C   0  0  0  0  0  0  0  0  0  0  0  0
  -23.4280  -30.5630   21.6810 C   0  0  0  0  0  3  0  0  0  0  0  0
  -24.8790  -29.0080   20.2400 C   0  0  0  0  0  0  0  0  0  0  0  0
  -25.9810  -30.8330   21.5180 C   0  0  0  0  0  2  0  0  0  0  0  0
  -26.0560  -29.4440   20.8600 C   0  0  0  0  0  0  0  0  0  0  0  0
  -27.2200  -28.5840   20.8550 C   0  0  0  0  0  3  0  0  0  0  0  0
  -26.0100  -26.9370   19.5830 C   0  0  0  0  0  3  0  0  0  0  0  0
  -24.8690  -27.7690   19.5870 C   0  0  0  0  0  3  0  0  0  0  0  0
  -23.6480  -29.9010   20.2970 C   0  0  0  0  0  2  0  0  0  0  0  0
  -24.6960  -31.1400   22.2280 N   0  0  0  0  0  0  0  0  0  0  0  0
  -23.5330  -32.2400   23.8480 O   0  0  0  0  0  0  0  0  0  0  0  0
  -22.7560  -29.5460   22.6360 C   0  0  0  0  0  0  0  0  0  0  0  0
  -21.4330  -29.3530   22.4960 N   0  0  0  0  0  0  0  0  0  0  0  0
  -23.4290  -28.9340   23.4690 O   0  0  0  0  0  0  0  0  0  0  0  0
  -20.9450  -29.9030   21.8020 H   0  0  0  0  0  0  0  0  0  0  0  0
  -18.0670  -28.0970   22.9630 C   0  0  0  0  0  0  0  0  0  0  0  0
  -20.6180  -28.4080   23.2640 C   0  0  0  0  0  3  0  0  0  0  0  0
  -20.7530  -26.9720   22.7060 C   0  0  0  0  0  2  0  0  0  0  0  0
  -19.6700  -26.6200   21.6810 C   0  0  0  0  0  2  0  0  0  0  0  0
  -18.2770  -26.7460   22.3010 C   0  0  0  0  0  2  0  0  0  0  0  0
  -19.1660  -28.8830   23.4020 C   0  0  0  0  0  0  0  0  0  0  0  0
  -18.9130  -30.1470   23.9770 C   0  0  0  0  0  3  0  0  0  0  0  0
  -17.5960  -30.6220   24.1250 C   0  0  0  0  0  3  0  0  0  0  0  0
  -16.5130  -29.8330   23.7020 C   0  0  0  0  0  3  0  0  0  0  0  0
  -16.7500  -28.5730   23.1250 C   0  0  0  0  0  3  0  0  0  0  0  0
  -25.8940  -32.6020   23.9480 C   0  0  0  0  0  3  0  0  0  0  0  0
  -26.3970  -31.8440   25.2400 C   0  0  1  0  0  0  0  0  0  0  0  0
  -25.2900  -31.6120   26.2960 C   0  0  0  0  0  1  0  0  0  0  0  0
  -26.9920  -30.4650   24.8740 C   0  0  0  0  0  1  0  0  0  0  0  0
  -27.5360  -32.6520   25.9040 C   0  0  0  0  0  1  0  0  0  0  0  0
  -25.5810  -34.0030   24.2640 N   0  0  0  0  0  0  0  0  0  0  0  0
  -25.8950  -35.0500   23.4890 C   0  0  0  0  0  0  0  0  0  0  0  0
  -26.5460  -34.9390   22.4480 O   0  0  0  0  0  0  0  0  0  0  0  0
  -24.9970  -34.1650   25.0720 H   0  0  0  0  0  0  0  0  0  0  0  0
  -24.1390  -36.8250   23.1650 C   0  0  0  0  0  1  0  0  0  0  0  0
  -25.4100  -36.4430   23.9390 C   0  0  0  0  0  3  0  0  0  0  0  0
  -27.5640  -37.3600   24.6850 C   0  0  0  0  0  1  0  0  0  0  0  0
  -26.4290  -37.5030   23.7750 N   0  0  0  0  0  0  0  0  0  0  0  0
  -26.0190  -38.4210   23.9250 H   0  0  0  0  0  0  0  0  0  0  0  0
  2  1  1  0
  3  6  2  0
  3  5  1  0
  4 17  1  0
  4  1  2  0
  5  2  2  0
  6  4  1  0
  7  6  1  0
  8 17  1  0
  9 14  1  0
 10 11  1  0
 10  9  1  0
 12 11  1  0
 12 21  1  0
 12 13  1  0
 14  8  1  0
 14 13  1  0
 15  8  2  0
 17 16  1  0
 18 19  2  0
 19 38  1  0
 20 19  1  0
 20 23  1  0
 21 22  1  0
 21 18  1  0
 22 20  2  0
 23 24  1  0
 24 25  2  0
 26 29  1  0
 26 25  1  0
 27 26  2  0
 28 27  1  0
 28 23  2  0
 29 30  1  0
 30 31  1  0
 31 32  2  0
 33 32  1  0
 33 37  1  0
 34 33  2  0
 35 30  2  0
 35 34  1  0
 36 35  1  0
 38 39  1  0
 39 42  1  0
 39 41  1  0
 40 38  2  0
 43 18  1  0
 43 44  1  0
 45 43  1  0
 46  5  1  0
 46 47  1  0
 48 49  1  0
 48 47  2  0
 50 61  2  0
 51 49  1  0
 51 56  1  0
 52 60  1  0
 52 62  1  0
 53 59  1  0
 53 55  1  0
 54 60  1  0
 55 54  1  0
 56 55  2  0
 57 58  1  0
 57 51  2  0
 58 53  2  0
 59 52  1  0
 60 50  1  0
 62 64  2  0
 63 62  1  0
 65 63  1  0
 66 75  2  0
 66 71  1  0
 67 63  1  0
 67 71  1  0
 68 67  1  0
 69 70  1  0
 69 68  1  0
 70 66  1  0
 71 72  2  0
 72 73  1  0
 74 73  2  0
 75 74  1  0
 76 50  1  0
 76 81  1  0
 76 77  1  0
 77 80  1  1
 77 78  1  0
 79 77  1  0
 81 84  1  0
 82 86  1  0
 82 81  1  0
 83 82  2  0
 86 85  1  0
 88 89  1  0
 88 86  1  0
 88 87  1  0
M  ISO  4   8 100  17 100  48 101  49 101
M  END
>  <TORSDO>  (13) 
F 19

>  <SCORE>  (13) 
-13.571

>  <name>  (13) 
12

>  <ligand_id>  (13) 
12

>  <original_smiles>  (13) 
[H]c1c([H])c([H])c2c(c1[H])C([H])([H])C([H])([H])C([H])([H])C2([H])N([H])C(=O)C1([H])N(C(=O)C([H])(N([H])C(=O)C([H])(N([H])C([H])([H])[H])C([H])([H])[H])C(C([H])([H])[H])(C([H])([H])[H])C([H])([H])[H])C([H])([H])c2c([H])c(OC([H])([H])C([H])([H])Oc3c([H])c([H])c(N(C(=O)N4C([H])([H])C([H])([H])C([H])([H])C([H])(n5nc(-c6c([H])c([H])c(Oc7c([H])c([H])c(F)c([H])c7F)c([H])c6[H])c(C(=O)N([H])[H])c5N([H])[H])C4([H])[H])C([H])([H])[H])c(F)c3[H])c([H])c([H])c2C1([H])[H]

>  <smiles>  (13) 
[H]c1c([H])c([H])c2c(c1[H])C([H])([H])C([H])([H])C([H])([H])C2([H])N([H])C(=O)C1([H])N(C(=O)C([H])(N([H])C(=O)C([H])(N([H])C([H])([H])[H])C([H])([H])[H])C(C([H])([H])[H])(C([H])([H])[H])C([H])([H])[H])C([H])([H])c2c([H])c(OC([H])([H])C([H])([H])Oc3c([H])c([H])c(N(C(=O)N4C([H])([H])C([H])([H])C([H])([H])C([H])(n5nc(-c6c([H])c([H])c(Oc7c([H])c([H])c(F)c([H])c7F)c([H])c6[H])c(C(=O)N([H])[H])c5N([H])[H])C4([H])[H])C([H])([H])[H])c(F)c3[H])c([H])c([H])c2C1([H])[H]

$$$$
13:0:0
     RDKit          3D

 92100  0  0  1  0  0  0  0  0999 V2000
  -30.1540  -21.6960   20.5780 C   0  0  0  0  0  0  0  0  0  0  0  0
  -29.1800  -22.5970   20.2390 N   0  0  0  0  0  0  0  0  0  0  0  0
  -31.2290  -22.1220   21.0090 O   0  0  0  0  0  0  0  0  0  0  0  0
  -28.3030  -22.2470   19.8780 H   0  0  0  0  0  0  0  0  0  0  0  0
  -31.2010  -19.3550   20.3740 C   0  0  0  0  0  3  0  0  0  0  0  0
  -31.1730  -17.9280   20.3800 C   0  0  0  0  0  3  0  0  0  0  0  0
  -28.8010  -19.4450   20.4500 C   0  0  0  0  0  3  0  0  0  0  0  0
  -30.0260  -20.1630   20.4170 C   0  0  0  0  0  0  0  0  0  0  0  0
  -29.9490  -17.2140   20.4350 C   0  0  0  0  0  0  0  0  0  0  0  0
  -28.7700  -18.0130   20.4580 C   0  0  0  0  0  0  0  0  0  0  0  0
  -27.5720  -17.3840   20.5040 F   0  0  0  0  0  0  0  0  0  0  0  0
  -30.5780  -14.7090   20.0550 C   0  0  0  0  0  0  0  0  0  0  0  0
  -30.2750  -12.5140   18.9210 C   0  0  0  0  0  2  0  0  0  0  0  0
  -29.2600  -12.7020   17.7720 C   0  0  0  0  0  2  0  0  0  0  0  0
  -27.8150  -12.5410   18.2850 C   0  0  0  0  0  2  0  0  0  0  0  0
  -27.5450  -13.3600   19.5760 C   0  0  0  0  0  3  0  0  0  0  0  0
  -28.6670  -13.1470   20.6170 C   0  0  0  0  0  2  0  0  0  0  0  0
  -29.9430  -13.4960   19.9730 N   0  0  0  0  0  0  0  0  0  0  0  0
  -31.7180  -14.8600   19.6060 O   0  0  0  0  0  0  0  0  0  0  0  0
  -29.8090  -15.7550   20.4910 N   0  0  0  0  0  0  0  0  0  0  0  0
  -28.9030  -15.4620   20.8260 H   0  0  0  0  0  0  0  0  0  0  0  0
  -25.2020  -13.9640   20.4430 C   0  0  0  0  0  0  0  0  0  0  0  0
  -24.1490  -13.1930   20.8520 C   0  0  0  0  0  0  0  0  0  0  0  0
  -24.5940  -11.8380   20.7620 C   0  0  0  0  0  0  0  0  0  0  0  0
  -26.2230  -13.0800   20.1310 N   0  0  0  0  0  0  0  0  0  0  0  0
  -25.8650  -11.7940   20.3810 N   0  0  0  0  0  0  0  0  0  0  0  0
  -23.8650  -10.5790   20.9610 C   0  0  0  0  0  0  0  0  0  0  0  0
  -24.3100   -9.6050   21.8820 C   0  0  0  0  0  3  0  0  0  0  0  0
  -23.5810   -8.4110   22.0690 C   0  0  0  0  0  3  0  0  0  0  0  0
  -22.3930   -8.1820   21.3370 C   0  0  0  0  0  0  0  0  0  0  0  0
  -21.9650   -9.1450   20.4050 C   0  0  0  0  0  3  0  0  0  0  0  0
  -22.6950  -10.3310   20.2150 C   0  0  0  0  0  3  0  0  0  0  0  0
  -21.6330   -7.0410   21.4330 O   0  0  0  0  0  0  0  0  0  0  0  0
  -21.5640   -6.3210   22.5990 C   0  0  0  0  0  0  0  0  0  0  0  0
  -21.1030   -6.8940   23.8030 C   0  0  0  0  0  3  0  0  0  0  0  0
  -20.9810   -6.0990   24.9610 C   0  0  0  0  0  3  0  0  0  0  0  0
  -21.3110   -4.7320   24.9140 C   0  0  0  0  0  0  0  0  0  0  0  0
  -21.7650   -4.1570   23.7140 C   0  0  0  0  0  3  0  0  0  0  0  0
  -21.8880   -4.9490   22.5580 C   0  0  0  0  0  0  0  0  0  0  0  0
  -22.3050   -4.3860   21.3990 F   0  0  0  0  0  0  0  0  0  0  0  0
  -21.1870   -3.9650   26.0230 F   0  0  0  0  0  0  0  0  0  0  0  0
  -22.7760  -13.6780   21.2170 C   0  0  0  0  0  0  0  0  0  0  0  0
  -22.0920  -12.9670   22.1060 N   0  0  0  0  0  0  0  0  0  0  0  0
  -22.3200  -14.7200   20.7490 O   0  0  0  0  0  0  0  0  0  0  0  0
  -22.4730  -12.1230   22.5070 H   0  0  0  0  0  0  0  0  0  0  0  0
  -21.1720  -13.2740   22.3920 H   0  0  0  0  0  0  0  0  0  0  0  0
  -25.3700  -15.3370   20.2950 N   0  0  0  0  0  0  0  0  0  0  0  0
  -24.6230  -15.9930   20.4960 H   0  0  0  0  0  0  0  0  0  0  0  0
  -26.2270  -15.7990   20.0180 H   0  0  0  0  0  0  0  0  0  0  0  0
  -29.3480  -24.0970   20.3960 C   0  0  0  0  0  3  0  0  0  0  0  0
  -28.1900  -25.0720   19.9160 C   0  0  0  0  0  3  0  0  0  0  0  0
  -28.3700  -26.5270   20.1480 O   0  0  0  0  0  0  0  0  0  0  0  0
  -24.6040  -31.8730   23.1920 C   0  0  0  0  0  0  0  0  0  0  0  0
  -27.2410  -27.3600   20.0970 C   0  0  0  0  0  0  0  0  0  0  0  0
  -23.4070  -30.4820   21.5410 C   0  0  0  0  0  3  0  0  0  0  0  0
  -24.8640  -28.9530   20.1010 C   0  0  0  0  0  0  0  0  0  0  0  0
  -25.9430  -30.8190   21.3560 C   0  0  0  0  0  2  0  0  0  0  0  0
  -26.0300  -29.4460   20.7000 C   0  0  0  0  0  0  0  0  0  0  0  0
  -27.2210  -28.6610   20.6880 C   0  0  0  0  0  3  0  0  0  0  0  0
  -26.0500  -26.9220   19.4710 C   0  0  0  0  0  3  0  0  0  0  0  0
  -24.8760  -27.6960   19.4780 C   0  0  0  0  0  3  0  0  0  0  0  0
  -23.6220  -29.8190   20.1550 C   0  0  0  0  0  2  0  0  0  0  0  0
  -24.6700  -31.0740   22.0870 N   0  0  0  0  0  0  0  0  0  0  0  0
  -23.5200  -32.1410   23.7290 O   0  0  0  0  0  0  0  0  0  0  0  0
  -22.7510  -29.4530   22.4930 C   0  0  0  0  0  0  0  0  0  0  0  0
  -21.4240  -29.2800   22.3730 N   0  0  0  0  0  0  0  0  0  0  0  0
  -23.4340  -28.8160   23.2980 O   0  0  0  0  0  0  0  0  0  0  0  0
  -20.9320  -29.8460   21.6960 H   0  0  0  0  0  0  0  0  0  0  0  0
  -18.0430  -28.1060   22.9010 C   0  0  0  0  0  0  0  0  0  0  0  0
  -20.6070  -28.3350   23.1370 C   0  0  0  0  0  3  0  0  0  0  0  0
  -20.6870  -26.9150   22.5310 C   0  0  0  0  0  2  0  0  0  0  0  0
  -19.5660  -26.6230   21.5290 C   0  0  0  0  0  2  0  0  0  0  0  0
  -18.1950  -26.7690   22.1970 C   0  0  0  0  0  2  0  0  0  0  0  0
  -19.1760  -28.8490   23.3280 C   0  0  0  0  0  0  0  0  0  0  0  0
  -18.9780  -30.1020   23.9480 C   0  0  0  0  0  3  0  0  0  0  0  0
  -17.6810  -30.6130   24.1440 C   0  0  0  0  0  3  0  0  0  0  0  0
  -16.5630  -29.8670   23.7320 C   0  0  0  0  0  3  0  0  0  0  0  0
  -16.7450  -28.6150   23.1170 C   0  0  0  0  0  3  0  0  0  0  0  0
  -25.8840  -32.5060   23.8180 C   0  0  0  0  0  3  0  0  0  0  0  0
  -26.3910  -31.7390   25.1020 C   0  0  1  0  0  0  0  0  0  0  0  0
  -25.2900  -31.5050   26.1620 C   0  0  0  0  0  1  0  0  0  0  0  0
  -26.9770  -30.3610   24.7180 C   0  0  0  0  0  1  0  0  0  0  0  0
  -27.5370  -32.5360   25.7700 C   0  0  0  0  0  1  0  0  0  0  0  0
  -25.5750  -33.9070   24.1420 N   0  0  0  0  0  0  0  0  0  0  0  0
  -25.8980  -34.9550   23.3730 C   0  0  0  0  0  0  0  0  0  0  0  0
  -26.5600  -34.8460   22.3370 O   0  0  0  0  0  0  0  0  0  0  0  0
  -24.9870  -34.0650   24.9470 H   0  0  0  0  0  0  0  0  0  0  0  0
  -24.1610  -36.7400   23.0240 C   0  0  0  0  0  1  0  0  0  0  0  0
  -25.4130  -36.3450   23.8250 C   0  0  0  0  0  3  0  0  0  0  0  0
  -27.5500  -37.2460   24.6320 C   0  0  0  0  0  1  0  0  0  0  0  0
  -26.4410  -37.4010   23.6930 N   0  0  0  0  0  0  0  0  0  0  0  0
  -26.0330  -38.3210   23.8330 H   0  0  0  0  0  0  0  0  0  0  0  0
  1  3  2  0
  2 50  1  0
  2  1  1  0
  4  2  1  0
  5  6  2  0
  5  8  1  0
  6  9  1  0
  7 10  1  0
  8  7  2  0
  8  1  1  0
  9 10  2  0
  9 20  1  0
 10 11  1  0
 12 20  1  0
 13 18  1  0
 14 15  1  0
 14 13  1  0
 16 15  1  0
 16 25  1  0
 16 17  1  0
 18 12  1  0
 18 17  1  0
 19 12  2  0
 20 21  1  0
 22 23  2  0
 23 42  1  0
 24 23  1  0
 24 27  1  0
 25 26  1  0
 25 22  1  0
 26 24  2  0
 27 28  1  0
 28 29  2  0
 30 33  1  0
 30 29  1  0
 31 30  2  0
 32 31  1  0
 32 27  2  0
 33 34  1  0
 34 35  1  0
 35 36  2  0
 37 36  1  0
 37 41  1  0
 38 37  2  0
 39 34  2  0
 39 38  1  0
 40 39  1  0
 42 43  1  0
 43 46  1  0
 43 45  1  0
 44 42  2  0
 47 22  1  0
 47 48  1  0
 49 47  1  0
 51 52  1  0
 51 50  2  0
 53 64  2  0
 54 52  1  0
 54 59  1  0
 55 63  1  0
 55 65  1  0
 56 62  1  0
 56 58  1  0
 57 63  1  0
 58 57  1  0
 59 58  2  0
 60 61  1  0
 60 54  2  0
 61 56  2  0
 62 55  1  0
 63 53  1  0
 65 67  2  0
 66 65  1  0
 68 66  1  0
 69 78  2  0
 69 74  1  0
 70 66  1  0
 70 74  1  0
 71 70  1  0
 72 73  1  0
 72 71  1  0
 73 69  1  0
 74 75  2  0
 75 76  1  0
 77 76  2  0
 78 77  1  0
 79 53  1  0
 79 84  1  0
 79 80  1  0
 80 83  1  1
 80 81  1  0
 82 80  1  0
 84 87  1  0
 85 89  1  0
 85 84  1  0
 86 85  2  0
 89 88  1  0
 91 89  1  0
 91 92  1  0
 91 90  1  0
M  ISO  4  12 100  20 100  51 101  52 101
M  END
>  <TORSDO>  (14) 
F 19

>  <SCORE>  (14) 
-14.373

>  <name>  (14) 
13

>  <ligand_id>  (14) 
13

>  <original_smiles>  (14) 
[H]c1c([H])c([H])c2c(c1[H])C([H])([H])C([H])([H])C([H])([H])C2([H])N([H])C(=O)C1([H])N(C(=O)C([H])(N([H])C(=O)C([H])(N([H])C([H])([H])[H])C([H])([H])[H])C(C([H])([H])[H])(C([H])([H])[H])C([H])([H])[H])C([H])([H])c2c([H])c(OC([H])([H])C([H])([H])N([H])C(=O)c3c([H])c([H])c(N([H])C(=O)N4C([H])([H])C([H])([H])C([H])([H])C([H])(n5nc(-c6c([H])c([H])c(Oc7c([H])c([H])c(F)c([H])c7F)c([H])c6[H])c(C(=O)N([H])[H])c5N([H])[H])C4([H])[H])c(F)c3[H])c([H])c([H])c2C1([H])[H]

>  <smiles>  (14) 
[H]c1c([H])c([H])c2c(c1[H])C([H])([H])C([H])([H])C([H])([H])C2([H])N([H])C(=O)C1([H])N(C(=O)C([H])(N([H])C(=O)C([H])(N([H])C([H])([H])[H])C([H])([H])[H])C(C([H])([H])[H])(C([H])([H])[H])C([H])([H])[H])C([H])([H])c2c([H])c(OC([H])([H])C([H])([H])N([H])C(=O)c3c([H])c([H])c(N([H])C(=O)N4C([H])([H])C([H])([H])C([H])([H])C([H])(n5nc(-c6c([H])c([H])c(Oc7c([H])c([H])c(F)c([H])c7F)c([H])c6[H])c(C(=O)N([H])[H])c5N([H])[H])C4([H])[H])c(F)c3[H])c([H])c([H])c2C1([H])[H]

$$$$
14:0:0
     RDKit          3D

 90 98  0  0  1  0  0  0  0  0999 V2000
  -27.8170  -21.8590   21.4820 C   0  0  0  0  0  1  0  0  0  0  0  0
  -28.8510  -21.5230   20.5000 N   0  0  0  0  0  0  0  0  0  0  0  0
  -28.7220  -17.7450   21.0840 C   0  0  0  0  0  3  0  0  0  0  0  0
  -30.7610  -18.1740   19.9040 C   0  0  0  0  0  3  0  0  0  0  0  0
  -28.4120  -19.1270   21.0620 C   0  0  0  0  0  3  0  0  0  0  0  0
  -30.4460  -19.5830   19.8980 C   0  0  0  0  0  3  0  0  0  0  0  0
  -29.8940  -17.2100   20.5020 C   0  0  0  0  0  0  0  0  0  0  0  0
  -29.2500  -20.1210   20.4770 C   0  0  0  0  0  0  0  0  0  0  0  0
  -30.8040  -14.7780   20.0020 C   0  0  0  0  0  0  0  0  0  0  0  0
  -30.5680  -12.5550   18.8950 C   0  0  0  0  0  2  0  0  0  0  0  0
  -29.5430  -12.6930   17.7450 C   0  0  0  0  0  2  0  0  0  0  0  0
  -28.0960  -12.5270   18.2590 C   0  0  0  0  0  2  0  0  0  0  0  0
  -27.8160  -13.3560   19.5390 C   0  0  0  0  0  3  0  0  0  0  0  0
  -28.9430  -13.1550   20.5780 C   0  0  0  0  0  2  0  0  0  0  0  0
  -30.2160  -13.5380   19.9390 N   0  0  0  0  0  0  0  0  0  0  0  0
  -31.9070  -14.9980   19.4920 O   0  0  0  0  0  0  0  0  0  0  0  0
  -30.0250  -15.7490   20.5770 N   0  0  0  0  0  0  0  0  0  0  0  0
  -29.2520  -15.3170   21.0570 H   0  0  0  0  0  0  0  0  0  0  0  0
  -25.4770  -13.9400   20.4360 C   0  0  0  0  0  0  0  0  0  0  0  0
  -24.4300  -13.1580   20.8450 C   0  0  0  0  0  0  0  0  0  0  0  0
  -24.8770  -11.8060   20.7260 C   0  0  0  0  0  0  0  0  0  0  0  0
  -26.4970  -13.0630   20.0970 N   0  0  0  0  0  0  0  0  0  0  0  0
  -26.1430  -11.7730   20.3300 N   0  0  0  0  0  0  0  0  0  0  0  0
  -24.1550  -10.5410   20.9120 C   0  0  0  0  0  0  0  0  0  0  0  0
  -24.5700   -9.5860   21.8660 C   0  0  0  0  0  3  0  0  0  0  0  0
  -23.8490   -8.3850   22.0370 C   0  0  0  0  0  3  0  0  0  0  0  0
  -22.6960   -8.1310   21.2560 C   0  0  0  0  0  0  0  0  0  0  0  0
  -22.3000   -9.0750   20.2930 C   0  0  0  0  0  3  0  0  0  0  0  0
  -23.0220  -10.2670   20.1180 C   0  0  0  0  0  3  0  0  0  0  0  0
  -21.9470   -6.9820   21.3370 O   0  0  0  0  0  0  0  0  0  0  0  0
  -21.7830   -6.3130   22.5230 C   0  0  0  0  0  0  0  0  0  0  0  0
  -21.2160   -6.9340   23.6580 C   0  0  0  0  0  3  0  0  0  0  0  0
  -21.0030   -6.1890   24.8340 C   0  0  0  0  0  3  0  0  0  0  0  0
  -21.3430   -4.8240   24.8770 C   0  0  0  0  0  0  0  0  0  0  0  0
  -21.9000   -4.2020   23.7460 C   0  0  0  0  0  3  0  0  0  0  0  0
  -22.1170   -4.9440   22.5710 C   0  0  0  0  0  0  0  0  0  0  0  0
  -22.6350   -4.3350   21.4780 F   0  0  0  0  0  0  0  0  0  0  0  0
  -21.1300   -4.1060   26.0040 F   0  0  0  0  0  0  0  0  0  0  0  0
  -23.0560  -13.6310   21.2290 C   0  0  0  0  0  0  0  0  0  0  0  0
  -22.3810  -12.9020   22.1100 N   0  0  0  0  0  0  0  0  0  0  0  0
  -22.5940  -14.6800   20.7830 O   0  0  0  0  0  0  0  0  0  0  0  0
  -22.7660  -12.0500   22.4920 H   0  0  0  0  0  0  0  0  0  0  0  0
  -21.4620  -13.1980   22.4070 H   0  0  0  0  0  0  0  0  0  0  0  0
  -25.6430  -15.3160   20.3050 N   0  0  0  0  0  0  0  0  0  0  0  0
  -24.8930  -15.9730   20.4890 H   0  0  0  0  0  0  0  0  0  0  0  0
  -26.4660  -15.7550   19.9150 H   0  0  0  0  0  0  0  0  0  0  0  0
  -29.6530  -22.6970   20.0230 C   0  0  0  0  0  2  0  0  0  0  0  0
  -28.8940  -24.0390   19.5470 C   0  0  0  0  0  2  0  0  0  0  0  0
  -28.5450  -25.2350   20.5460 C   0  0  0  0  0  2  0  0  0  0  0  0
  -28.5920  -26.6390   20.0720 O   0  0  0  0  0  0  0  0  0  0  0  0
  -24.7880  -31.8390   23.3650 C   0  0  0  0  0  0  0  0  0  0  0  0
  -27.4430  -27.4370   20.1310 C   0  0  0  0  0  0  0  0  0  0  0  0
  -23.5970  -30.5090   21.6570 C   0  0  0  0  0  3  0  0  0  0  0  0
  -25.0610  -29.0190   20.1780 C   0  0  0  0  0  0  0  0  0  0  0  0
  -26.1320  -30.8500   21.4970 C   0  0  0  0  0  2  0  0  0  0  0  0
  -26.2240  -29.4970   20.7980 C   0  0  0  0  0  0  0  0  0  0  0  0
  -27.4180  -28.7190   20.7590 C   0  0  0  0  0  3  0  0  0  0  0  0
  -26.2560  -26.9960   19.5080 C   0  0  0  0  0  3  0  0  0  0  0  0
  -25.0780  -27.7730   19.5280 C   0  0  0  0  0  3  0  0  0  0  0  0
  -23.8200  -29.8880   20.2520 C   0  0  0  0  0  2  0  0  0  0  0  0
  -24.8570  -31.0810   22.2320 N   0  0  0  0  0  0  0  0  0  0  0  0
  -23.7020  -32.0930   23.9060 O   0  0  0  0  0  0  0  0  0  0  0  0
  -22.9320  -29.4510   22.5700 C   0  0  0  0  0  0  0  0  0  0  0  0
  -21.6070  -29.2760   22.4240 N   0  0  0  0  0  0  0  0  0  0  0  0
  -23.6040  -28.7930   23.3670 O   0  0  0  0  0  0  0  0  0  0  0  0
  -21.1260  -29.8590   21.7520 H   0  0  0  0  0  0  0  0  0  0  0  0
  -18.2290  -28.0480   22.8280 C   0  0  0  0  0  0  0  0  0  0  0  0
  -20.7820  -28.3050   23.1450 C   0  0  0  0  0  3  0  0  0  0  0  0
  -20.8980  -26.8990   22.5110 C   0  0  0  0  0  2  0  0  0  0  0  0
  -19.8110  -26.6160   21.4700 C   0  0  0  0  0  2  0  0  0  0  0  0
  -18.4190  -26.7280   22.1000 C   0  0  0  0  0  2  0  0  0  0  0  0
  -19.3390  -28.7960   23.3030 C   0  0  0  0  0  0  0  0  0  0  0  0
  -19.1070  -30.0330   23.9430 C   0  0  0  0  0  3  0  0  0  0  0  0
  -17.7980  -30.5220   24.1150 C   0  0  0  0  0  3  0  0  0  0  0  0
  -16.7020  -29.7700   23.6570 C   0  0  0  0  0  3  0  0  0  0  0  0
  -16.9180  -28.5350   23.0190 C   0  0  0  0  0  3  0  0  0  0  0  0
  -26.0670  -32.4430   24.0250 C   0  0  0  0  0  3  0  0  0  0  0  0
  -26.5630  -31.6270   25.2810 C   0  0  1  0  0  0  0  0  0  0  0  0
  -25.4530  -31.3550   26.3250 C   0  0  0  0  0  1  0  0  0  0  0  0
  -27.1460  -30.2630   24.8440 C   0  0  0  0  0  1  0  0  0  0  0  0
  -27.7090  -32.3910   25.9840 C   0  0  0  0  0  1  0  0  0  0  0  0
  -25.7600  -33.8310   24.3990 N   0  0  0  0  0  0  0  0  0  0  0  0
  -26.1160  -34.9080   23.6890 C   0  0  0  0  0  0  0  0  0  0  0  0
  -26.8050  -34.8380   22.6660 O   0  0  0  0  0  0  0  0  0  0  0  0
  -25.1460  -33.9580   25.1900 H   0  0  0  0  0  0  0  0  0  0  0  0
  -24.4150  -36.7330   23.3560 C   0  0  0  0  0  1  0  0  0  0  0  0
  -25.6280  -36.2820   24.1870 C   0  0  0  0  0  3  0  0  0  0  0  0
  -27.7440  -37.1110   25.1140 C   0  0  0  0  0  1  0  0  0  0  0  0
  -26.6720  -37.3290   24.1460 N   0  0  0  0  0  0  0  0  0  0  0  0
  -26.2710  -38.2470   24.3180 H   0  0  0  0  0  0  0  0  0  0  0  0
  2  1  1  0
  4  7  1  0
  5  3  1  0
  6  4  2  0
  6  8  1  0
  7 17  1  0
  7  3  2  0
  8  2  1  0
  8  5  2  0
  9 17  1  0
 10 15  1  0
 11 12  1  0
 11 10  1  0
 13 12  1  0
 13 22  1  0
 13 14  1  0
 15  9  1  0
 15 14  1  0
 16  9  2  0
 17 18  1  0
 19 20  2  0
 20 39  1  0
 21 20  1  0
 21 24  1  0
 22 23  1  0
 22 19  1  0
 23 21  2  0
 24 25  1  0
 25 26  2  0
 27 30  1  0
 27 26  1  0
 28 27  2  0
 29 28  1  0
 29 24  2  0
 30 31  1  0
 31 36  2  0
 31 32  1  0
 32 33  2  0
 33 34  1  0
 34 38  1  0
 35 34  2  0
 36 35  1  0
 37 36  1  0
 39 40  1  0
 40 43  1  0
 40 42  1  0
 41 39  2  0
 44 19  1  0
 44 45  1  0
 46 44  1  0
 47  2  1  0
 48 47  1  0
 48 49  1  0
 50 52  1  0
 50 49  1  0
 51 62  2  0
 52 57  1  0
 53 61  1  0
 53 63  1  0
 54 60  1  0
 54 56  1  0
 55 61  1  0
 56 55  1  0
 57 56  2  0
 58 59  1  0
 58 52  2  0
 59 54  2  0
 60 53  1  0
 61 51  1  0
 63 65  2  0
 64 63  1  0
 66 64  1  0
 67 76  2  0
 67 72  1  0
 68 64  1  0
 68 72  1  0
 69 68  1  0
 70 71  1  0
 70 69  1  0
 71 67  1  0
 72 73  2  0
 73 74  1  0
 75 74  2  0
 76 75  1  0
 77 51  1  0
 77 82  1  0
 77 78  1  0
 78 81  1  1
 78 79  1  0
 80 78  1  0
 82 85  1  0
 83 87  1  0
 83 82  1  0
 84 83  2  0
 87 86  1  0
 89 87  1  0
 89 90  1  0
 89 88  1  0
M  ISO  4   9 100  17 100  49 101  50 101
M  END
>  <TORSDO>  (15) 
F 20

>  <SCORE>  (15) 
-12.465

>  <name>  (15) 
14

>  <ligand_id>  (15) 
14

>  <original_smiles>  (15) 
[H]c1c([H])c([H])c2c(c1[H])C([H])([H])C([H])([H])C([H])([H])C2([H])N([H])C(=O)C1([H])N(C(=O)C([H])(N([H])C(=O)C([H])(N([H])C([H])([H])[H])C([H])([H])[H])C(C([H])([H])[H])(C([H])([H])[H])C([H])([H])[H])C([H])([H])c2c([H])c(OC([H])([H])C([H])([H])C([H])([H])N(c3c([H])c([H])c(N([H])C(=O)N4C([H])([H])C([H])([H])C([H])([H])C([H])(n5nc(-c6c([H])c([H])c(Oc7c([H])c([H])c(F)c([H])c7F)c([H])c6[H])c(C(=O)N([H])[H])c5N([H])[H])C4([H])[H])c([H])c3[H])C([H])([H])[H])c([H])c([H])c2C1([H])[H]

>  <smiles>  (15) 
[H]c1c([H])c([H])c2c(c1[H])C([H])([H])C([H])([H])C([H])([H])C2([H])N([H])C(=O)C1([H])N(C(=O)C([H])(N([H])C(=O)C([H])(N([H])C([H])([H])[H])C([H])([H])[H])C(C([H])([H])[H])(C([H])([H])[H])C([H])([H])[H])C([H])([H])c2c([H])c(OC([H])([H])C([H])([H])C([H])([H])N(c3c([H])c([H])c(N([H])C(=O)N4C([H])([H])C([H])([H])C([H])([H])C([H])(n5nc(-c6c([H])c([H])c(Oc7c([H])c([H])c(F)c([H])c7F)c([H])c6[H])c(C(=O)N([H])[H])c5N([H])[H])C4([H])[H])c([H])c3[H])C([H])([H])[H])c([H])c([H])c2C1([H])[H]

$$$$
16:0:0
     RDKit          3D

 95104  0  0  1  0  0  0  0  0999 V2000
  -30.0450  -20.8050   23.0550 C   0  0  0  0  0  3  0  0  0  0  0  0
  -29.5530  -20.7850   20.6800 C   0  0  0  0  0  3  0  0  0  0  0  0
  -29.5380  -22.1140   23.1510 C   0  0  0  0  0  3  0  0  0  0  0  0
  -29.0620  -22.1050   20.7660 C   0  0  0  0  0  3  0  0  0  0  0  0
  -30.0650  -20.1280   21.8190 C   0  0  0  0  0  0  0  0  0  0  0  0
  -29.0600  -22.7830   22.0060 C   0  0  0  0  0  0  0  0  0  0  0  0
  -32.5560  -17.2890   22.1120 C   0  0  0  0  0  3  0  0  0  0  0  0
  -31.9670  -18.5640   22.1850 C   0  0  0  0  0  3  0  0  0  0  0  0
  -31.8300  -16.2110   21.5780 C   0  0  0  0  0  3  0  0  0  0  0  0
  -29.9190  -17.6860   21.2050 C   0  0  0  0  0  3  0  0  0  0  0  0
  -30.6470  -18.7790   21.7300 C   0  0  0  0  0  0  0  0  0  0  0  0
  -30.5100  -16.4050   21.1140 C   0  0  0  0  0  0  0  0  0  0  0  0
  -30.1240  -14.5590   19.5510 C   0  0  0  0  0  0  0  0  0  0  0  0
  -29.5880  -12.5780   18.1850 C   0  0  0  0  0  2  0  0  0  0  0  0
  -28.4120  -12.8620   17.2340 C   0  0  0  0  0  2  0  0  0  0  0  0
  -27.0680  -12.5940   17.9370 C   0  0  0  0  0  2  0  0  0  0  0  0
  -26.9750  -13.2780   19.3270 C   0  0  0  0  0  3  0  0  0  0  0  0
  -28.2400  -12.9920   20.1670 C   0  0  0  0  0  2  0  0  0  0  0  0
  -29.4150  -13.4130   19.3820 N   0  0  0  0  0  0  0  0  0  0  0  0
  -31.0170  -14.9170   18.7770 O   0  0  0  0  0  0  0  0  0  0  0  0
  -29.7650  -15.3160   20.5980 N   0  0  0  0  0  0  0  0  0  0  0  0
  -28.9160  -15.0590   21.0800 H   0  0  0  0  0  0  0  0  0  0  0  0
  -24.7220  -13.6720   20.5100 C   0  0  0  0  0  0  0  0  0  0  0  0
  -23.7960  -12.8050   21.0230 C   0  0  0  0  0  0  0  0  0  0  0  0
  -24.3250  -11.4950   20.8190 C   0  0  0  0  0  0  0  0  0  0  0  0
  -25.7580  -12.8830   20.0320 N   0  0  0  0  0  0  0  0  0  0  0  0
  -25.5320  -11.5650   20.2710 N   0  0  0  0  0  0  0  0  0  0  0  0
  -23.7300  -10.1730   21.0610 C   0  0  0  0  0  0  0  0  0  0  0  0
  -24.2850   -9.2730   21.9950 C   0  0  0  0  0  3  0  0  0  0  0  0
  -23.6840   -8.0160   22.2230 C   0  0  0  0  0  3  0  0  0  0  0  0
  -22.5140   -7.6510   21.5160 C   0  0  0  0  0  0  0  0  0  0  0  0
  -21.9790   -8.5420   20.5700 C   0  0  0  0  0  3  0  0  0  0  0  0
  -22.5810   -9.7900   20.3400 C   0  0  0  0  0  3  0  0  0  0  0  0
  -21.8760   -6.4420   21.6530 O   0  0  0  0  0  0  0  0  0  0  0  0
  -21.8230   -5.7890   22.8590 C   0  0  0  0  0  0  0  0  0  0  0  0
  -21.2240   -6.3710   23.9960 C   0  0  0  0  0  3  0  0  0  0  0  0
  -21.1300   -5.6370   25.1950 C   0  0  0  0  0  3  0  0  0  0  0  0
  -21.6240   -4.3210   25.2570 C   0  0  0  0  0  0  0  0  0  0  0  0
  -22.2170   -3.7370   24.1240 C   0  0  0  0  0  3  0  0  0  0  0  0
  -22.3130   -4.4680   22.9270 C   0  0  0  0  0  0  0  0  0  0  0  0
  -22.8660   -3.8940   21.8320 F   0  0  0  0  0  0  0  0  0  0  0  0
  -21.5270   -3.6130   26.4070 F   0  0  0  0  0  0  0  0  0  0  0  0
  -22.4510  -13.1630   21.5870 C   0  0  0  0  0  0  0  0  0  0  0  0
  -21.9860  -12.4180   22.5840 N   0  0  0  0  0  0  0  0  0  0  0  0
  -21.8240  -14.1400   21.1770 O   0  0  0  0  0  0  0  0  0  0  0  0
  -22.5080  -11.6290   22.9340 H   0  0  0  0  0  0  0  0  0  0  0  0
  -21.0940  -12.6410   23.0040 H   0  0  0  0  0  0  0  0  0  0  0  0
  -24.7650  -15.0580   20.3910 N   0  0  0  0  0  0  0  0  0  0  0  0
  -23.9960  -15.6530   20.6810 H   0  0  0  0  0  0  0  0  0  0  0  0
  -25.5140  -15.5710   19.9390 H   0  0  0  0  0  0  0  0  0  0  0  0
  -28.5960  -24.0960   22.1550 N   0  0  0  0  0  0  0  0  0  0  0  0
  -28.4940  -24.4330   23.1100 H   0  0  0  0  0  0  0  0  0  0  0  0
  -28.9290  -25.1220   21.1700 C   0  0  0  0  0  2  0  0  0  0  0  0
  -27.8030  -25.3410   20.1460 C   0  0  0  0  0  2  0  0  0  0  0  0
  -27.9300  -26.6470   19.5740 O   0  0  0  0  0  0  0  0  0  0  0  0
  -24.5610  -31.6300   23.3330 C   0  0  0  0  0  0  0  0  0  0  0  0
  -26.8060  -27.4310   19.6830 C   0  0  0  0  0  0  0  0  0  0  0  0
  -23.2000  -30.4710   21.6230 C   0  0  0  0  0  3  0  0  0  0  0  0
  -24.4970  -29.0260   19.9700 C   0  0  0  0  0  0  0  0  0  0  0  0
  -25.7270  -30.7340   21.3230 C   0  0  0  0  0  2  0  0  0  0  0  0
  -25.7080  -29.4370   20.5430 C   0  0  0  0  0  0  0  0  0  0  0  0
  -26.8690  -28.6480   20.3930 C   0  0  0  0  0  3  0  0  0  0  0  0
  -25.5820  -27.0310   19.1030 C   0  0  0  0  0  3  0  0  0  0  0  0
  -24.4270  -27.8220   19.2470 C   0  0  0  0  0  3  0  0  0  0  0  0
  -23.3030  -29.9320   20.1710 C   0  0  0  0  0  2  0  0  0  0  0  0
  -24.5180  -30.9510   22.1530 N   0  0  0  0  0  0  0  0  0  0  0  0
  -23.5260  -31.8950   23.9570 O   0  0  0  0  0  0  0  0  0  0  0  0
  -22.5430  -29.3880   22.5070 C   0  0  0  0  0  0  0  0  0  0  0  0
  -21.2240  -29.2000   22.3420 N   0  0  0  0  0  0  0  0  0  0  0  0
  -23.2170  -28.7220   23.2980 O   0  0  0  0  0  0  0  0  0  0  0  0
  -20.7420  -29.7910   21.6780 H   0  0  0  0  0  0  0  0  0  0  0  0
  -17.8700  -27.8900   22.6210 C   0  0  0  0  0  0  0  0  0  0  0  0
  -20.4010  -28.2110   23.0360 C   0  0  0  0  0  3  0  0  0  0  0  0
  -20.5780  -26.8060   22.4160 C   0  0  0  0  0  2  0  0  0  0  0  0
  -19.5400  -26.4890   21.3360 C   0  0  0  0  0  2  0  0  0  0  0  0
  -18.1240  -26.5710   21.9120 C   0  0  0  0  0  2  0  0  0  0  0  0
  -18.9410  -28.6680   23.1350 C   0  0  0  0  0  0  0  0  0  0  0  0
  -18.6540  -29.9040   23.7540 C   0  0  0  0  0  3  0  0  0  0  0  0
  -17.3290  -30.3610   23.8680 C   0  0  0  0  0  3  0  0  0  0  0  0
  -16.2710  -29.5790   23.3730 C   0  0  0  0  0  3  0  0  0  0  0  0
  -16.5420  -28.3460   22.7540 C   0  0  0  0  0  3  0  0  0  0  0  0
  -25.9100  -32.1260   23.9440 C   0  0  0  0  0  3  0  0  0  0  0  0
  -26.4040  -31.2460   25.1570 C   0  0  1  0  0  0  0  0  0  0  0  0
  -25.3060  -30.9680   26.2110 C   0  0  0  0  0  1  0  0  0  0  0  0
  -26.9370  -29.8830   24.6590 C   0  0  0  0  0  1  0  0  0  0  0  0
  -27.5830  -31.9490   25.8700 C   0  0  0  0  0  1  0  0  0  0  0  0
  -25.7230  -33.5220   24.3550 N   0  0  0  0  0  0  0  0  0  0  0  0
  -26.1360  -34.5850   23.6500 C   0  0  0  0  0  0  0  0  0  0  0  0
  -26.7870  -34.4830   22.6070 O   0  0  0  0  0  0  0  0  0  0  0  0
  -25.1490  -33.6810   25.1710 H   0  0  0  0  0  0  0  0  0  0  0  0
  -24.5710  -36.5360   23.4000 C   0  0  0  0  0  1  0  0  0  0  0  0
  -25.7680  -35.9800   24.1880 C   0  0  0  0  0  3  0  0  0  0  0  0
  -27.9640  -36.6270   25.0730 C   0  0  0  0  0  1  0  0  0  0  0  0
  -26.8890  -36.9440   24.1370 N   0  0  0  0  0  0  0  0  0  0  0  0
  -26.5640  -37.8860   24.3350 H   0  0  0  0  0  0  0  0  0  0  0  0
  1  3  1  0
  2  4  2  0
  2  5  1  0
  4  6  1  0
  5  1  2  0
  6 51  1  0
  6  3  2  0
  7  8  1  0
  9  7  2  0
 10 11  1  0
 11  5  1  0
 11  8  2  0
 12 10  2  0
 12  9  1  0
 13 21  1  0
 14 19  1  0
 15 16  1  0
 15 14  1  0
 17 16  1  0
 17 26  1  0
 17 18  1  0
 19 13  1  0
 19 18  1  0
 20 13  2  0
 21 22  1  0
 21 12  1  0
 23 24  2  0
 24 43  1  0
 25 24  1  0
 25 28  1  0
 26 27  1  0
 26 23  1  0
 27 25  2  0
 28 29  1  0
 29 30  2  0
 31 34  1  0
 31 30  1  0
 32 31  2  0
 33 32  1  0
 33 28  2  0
 34 35  1  0
 35 40  2  0
 35 36  1  0
 36 37  2  0
 37 38  1  0
 38 42  1  0
 39 38  2  0
 40 39  1  0
 41 40  1  0
 43 44  1  0
 44 46  1  0
 44 47  1  0
 45 43  2  0
 48 23  1  0
 48 49  1  0
 50 48  1  0
 51 52  1  0
 53 51  1  0
 54 53  1  0
 55 57  1  0
 55 54  1  0
 56 67  2  0
 57 62  1  0
 58 66  1  0
 58 68  1  0
 59 65  1  0
 59 61  1  0
 60 66  1  0
 61 60  1  0
 62 61  2  0
 63 64  1  0
 63 57  2  0
 64 59  2  0
 65 58  1  0
 66 56  1  0
 68 70  2  0
 69 68  1  0
 71 69  1  0
 72 81  2  0
 72 77  1  0
 73 69  1  0
 73 77  1  0
 74 73  1  0
 75 76  1  0
 75 74  1  0
 76 72  1  0
 77 78  2  0
 78 79  1  0
 80 79  2  0
 81 80  1  0
 82 56  1  0
 82 87  1  0
 82 83  1  0
 83 86  1  1
 83 84  1  0
 85 83  1  0
 87 90  1  0
 88 92  1  0
 88 87  1  0
 89 88  2  0
 92 91  1  0
 94 92  1  0
 94 95  1  0
 94 93  1  0
M  ISO  4  13 100  21 100  54 101  55 101
M  END
>  <TORSDO>  (16) 
F 20

>  <SCORE>  (16) 
-8.581

>  <name>  (16) 
16

>  <ligand_id>  (16) 
16

>  <original_smiles>  (16) 
[H]c1c([H])c(-c2c([H])c([H])c(N([H])C([H])([H])C([H])([H])Oc3c([H])c([H])c4c(c3[H])C([H])([H])N(C(=O)C([H])(N([H])C(=O)C([H])(N([H])C([H])([H])[H])C([H])([H])[H])C(C([H])([H])[H])(C([H])([H])[H])C([H])([H])[H])C([H])(C(=O)N([H])C3([H])c5c([H])c([H])c([H])c([H])c5C([H])([H])C([H])([H])C3([H])[H])C4([H])[H])c([H])c2[H])c([H])c(N([H])C(=O)N2C([H])([H])C([H])([H])C([H])([H])C([H])(n3nc(-c4c([H])c([H])c(Oc5c([H])c([H])c(F)c([H])c5F)c([H])c4[H])c(C(=O)N([H])[H])c3N([H])[H])C2([H])[H])c1[H]

>  <smiles>  (16) 
[H]c1c([H])c(-c2c([H])c([H])c(N([H])C([H])([H])C([H])([H])Oc3c([H])c([H])c4c(c3[H])C([H])([H])N(C(=O)C([H])(N([H])C(=O)C([H])(N([H])C([H])([H])[H])C([H])([H])[H])C(C([H])([H])[H])(C([H])([H])[H])C([H])([H])[H])C([H])(C(=O)N([H])C3([H])c5c([H])c([H])c([H])c([H])c5C([H])([H])C([H])([H])C3([H])[H])C4([H])[H])c([H])c2[H])c([H])c(N([H])C(=O)N2C([H])([H])C([H])([H])C([H])([H])C([H])(n3nc(-c4c([H])c([H])c(Oc5c([H])c([H])c(F)c([H])c5F)c([H])c4[H])c(C(=O)N([H])[H])c3N([H])[H])C2([H])[H])c1[H]

$$$$
17:0:0
     RDKit          3D

 89 98  0  0  1  0  0  0  0  0999 V2000
  -27.4700  -23.5460   19.0590 C   0  0  0  0  0  2  0  0  0  0  0  0
  -27.4710  -21.9720   19.3250 C   0  0  0  0  0  2  0  0  0  0  0  0
  -29.0300  -23.0000   20.6750 C   0  0  0  0  0  2  0  0  0  0  0  0
  -27.9630  -24.3080   20.3240 C   0  0  0  0  0  3  0  0  0  0  0  0
  -28.6100  -21.5620   20.1670 N   0  0  0  0  0  0  0  0  0  0  0  0
  -30.6540  -18.0370   20.7500 C   0  0  0  0  0  3  0  0  0  0  0  0
  -30.2870  -19.4800   20.7300 C   0  0  0  0  0  3  0  0  0  0  0  0
  -28.2480  -18.9090   19.8590 C   0  0  0  0  0  3  0  0  0  0  0  0
  -29.8580  -16.8770   20.3430 C   0  0  0  0  0  0  0  0  0  0  0  0
  -29.0410  -20.0700   20.2670 C   0  0  0  0  0  0  0  0  0  0  0  0
  -28.6030  -17.4600   19.8820 C   0  0  0  0  0  0  0  0  0  0  0  0
  -27.6670  -16.6110   19.4000 F   0  0  0  0  0  0  0  0  0  0  0  0
  -30.4490  -15.3020   20.2260 C   0  0  0  0  0  0  0  0  0  0  0  0
  -30.3710  -12.8520   19.4040 C   0  0  0  0  0  2  0  0  0  0  0  0
  -29.4570  -12.6450   18.1710 C   0  0  0  0  0  2  0  0  0  0  0  0
  -28.0150  -12.3600   18.6200 C   0  0  0  0  0  2  0  0  0  0  0  0
  -27.5560  -13.3350   19.7310 C   0  0  0  0  0  3  0  0  0  0  0  0
  -28.6020  -13.5390   20.8470 C   0  0  0  0  0  2  0  0  0  0  0  0
  -29.8410  -14.0140   20.2130 N   0  0  0  0  0  0  0  0  0  0  0  0
  -31.6700  -15.2180   20.0140 O   0  0  0  0  0  0  0  0  0  0  0  0
  -25.1970  -13.8730   20.5270 C   0  0  0  0  0  0  0  0  0  0  0  0
  -24.1440  -13.0850   20.8990 C   0  0  0  0  0  0  0  0  0  0  0  0
  -24.6200  -11.7390   20.8490 C   0  0  0  0  0  0  0  0  0  0  0  0
  -26.2400  -13.0060   20.2580 N   0  0  0  0  0  0  0  0  0  0  0  0
  -25.9070  -11.7170   20.5240 N   0  0  0  0  0  0  0  0  0  0  0  0
  -23.9020  -10.4700   21.0350 C   0  0  0  0  0  0  0  0  0  0  0  0
  -24.3320   -9.5080   21.9750 C   0  0  0  0  0  3  0  0  0  0  0  0
  -23.6130   -8.3060   22.1470 C   0  0  0  0  0  3  0  0  0  0  0  0
  -22.4490   -8.0570   21.3800 C   0  0  0  0  0  0  0  0  0  0  0  0
  -22.0400   -9.0080   20.4280 C   0  0  0  0  0  3  0  0  0  0  0  0
  -22.7600  -10.2020   20.2540 C   0  0  0  0  0  3  0  0  0  0  0  0
  -21.7010   -6.9080   21.4620 O   0  0  0  0  0  0  0  0  0  0  0  0
  -21.6200   -6.1840   22.6250 C   0  0  0  0  0  0  0  0  0  0  0  0
  -21.1070   -6.7430   23.8170 C   0  0  0  0  0  3  0  0  0  0  0  0
  -20.9770   -5.9430   24.9700 C   0  0  0  0  0  3  0  0  0  0  0  0
  -21.3500   -4.5860   24.9320 C   0  0  0  0  0  0  0  0  0  0  0  0
  -21.8550   -4.0270   23.7450 C   0  0  0  0  0  3  0  0  0  0  0  0
  -21.9860   -4.8240   22.5940 C   0  0  0  0  0  0  0  0  0  0  0  0
  -22.4540   -4.2740   21.4480 F   0  0  0  0  0  0  0  0  0  0  0  0
  -21.2170   -3.8150   26.0370 F   0  0  0  0  0  0  0  0  0  0  0  0
  -22.7460  -13.5500   21.1820 C   0  0  0  0  0  0  0  0  0  0  0  0
  -22.0310  -12.8460   22.0510 N   0  0  0  0  0  0  0  0  0  0  0  0
  -22.2980  -14.5750   20.6680 O   0  0  0  0  0  0  0  0  0  0  0  0
  -22.4100  -12.0170   22.4890 H   0  0  0  0  0  0  0  0  0  0  0  0
  -21.0920  -13.1360   22.2830 H   0  0  0  0  0  0  0  0  0  0  0  0
  -25.3490  -15.2450   20.3670 N   0  0  0  0  0  0  0  0  0  0  0  0
  -24.5830  -15.8940   20.5040 H   0  0  0  0  0  0  0  0  0  0  0  0
  -26.1960  -15.6950   20.0290 H   0  0  0  0  0  0  0  0  0  0  0  0
  -28.1710  -25.9410   20.2950 O   0  0  0  0  0  0  0  0  0  0  0  0
  -24.6200  -31.8770   23.2910 C   0  0  0  0  0  0  0  0  0  0  0  0
  -27.1450  -27.0140   20.2640 C   0  0  0  0  0  0  0  0  0  0  0  0
  -23.4150  -30.4920   21.6530 C   0  0  0  0  0  3  0  0  0  0  0  0
  -24.8510  -28.8880   20.2270 C   0  0  0  0  0  0  0  0  0  0  0  0
  -25.9810  -30.7000   21.4970 C   0  0  0  0  0  2  0  0  0  0  0  0
  -26.0430  -29.2930   20.8410 C   0  0  0  0  0  0  0  0  0  0  0  0
  -27.1870  -28.3780   20.8310 C   0  0  0  0  0  3  0  0  0  0  0  0
  -25.9210  -26.7550   19.6110 C   0  0  0  0  0  3  0  0  0  0  0  0
  -24.8120  -27.6380   19.5930 C   0  0  0  0  0  3  0  0  0  0  0  0
  -23.6370  -29.8130   20.2750 C   0  0  0  0  0  2  0  0  0  0  0  0
  -24.6940  -31.0490   22.2010 N   0  0  0  0  0  0  0  0  0  0  0  0
  -23.5340  -32.1710   23.8160 O   0  0  0  0  0  0  0  0  0  0  0  0
  -22.7210  -29.4940   22.6170 C   0  0  0  0  0  0  0  0  0  0  0  0
  -21.3920  -29.3230   22.4830 N   0  0  0  0  0  0  0  0  0  0  0  0
  -23.3830  -28.8750   23.4530 O   0  0  0  0  0  0  0  0  0  0  0  0
  -20.9100  -29.8760   21.7880 H   0  0  0  0  0  0  0  0  0  0  0  0
  -18.0120  -28.0970   22.9650 C   0  0  0  0  0  0  0  0  0  0  0  0
  -20.5660  -28.3860   23.2520 C   0  0  0  0  0  3  0  0  0  0  0  0
  -20.6850  -26.9490   22.6910 C   0  0  0  0  0  2  0  0  0  0  0  0
  -19.5950  -26.6100   21.6680 C   0  0  0  0  0  2  0  0  0  0  0  0
  -18.2060  -26.7470   22.2970 C   0  0  0  0  0  2  0  0  0  0  0  0
  -19.1190  -28.8740   23.3980 C   0  0  0  0  0  0  0  0  0  0  0  0
  -18.8810  -30.1360   23.9840 C   0  0  0  0  0  3  0  0  0  0  0  0
  -17.5690  -30.6220   24.1400 C   0  0  0  0  0  3  0  0  0  0  0  0
  -16.4760  -29.8430   23.7210 C   0  0  0  0  0  3  0  0  0  0  0  0
  -16.6980  -28.5830   23.1380 C   0  0  0  0  0  3  0  0  0  0  0  0
  -25.8960  -32.5130   23.9220 C   0  0  0  0  0  3  0  0  0  0  0  0
  -25.5910  -33.9180   24.2460 N   0  0  0  0  0  0  0  0  0  0  0  0
  -25.9100  -34.9690   23.4780 C   0  0  0  0  0  0  0  0  0  0  0  0
  -26.5570  -34.8580   22.4350 O   0  0  0  0  0  0  0  0  0  0  0  0
  -25.0170  -34.0770   25.0610 H   0  0  0  0  0  0  0  0  0  0  0  0
  -24.1780  -36.7710   23.1650 C   0  0  0  0  0  1  0  0  0  0  0  0
  -25.4410  -36.3640   23.9410 C   0  0  0  0  0  3  0  0  0  0  0  0
  -27.5950  -37.2570   24.7120 C   0  0  0  0  0  1  0  0  0  0  0  0
  -26.4730  -37.4120   23.7900 N   0  0  0  0  0  0  0  0  0  0  0  0
  -26.0710  -38.3360   23.9300 H   0  0  0  0  0  0  0  0  0  0  0  0
  -26.3900  -31.7540   25.2150 C   0  0  1  0  0  0  0  0  0  0  0  0
  -25.2840  -31.5400   26.2760 C   0  0  0  0  0  1  0  0  0  0  0  0
  -26.9650  -30.3650   24.8540 C   0  0  0  0  0  1  0  0  0  0  0  0
  -27.5400  -32.5460   25.8790 C   0  0  0  0  0  1  0  0  0  0  0  0
  1  2  1  0
  1  4  1  0
  2  5  1  0
  4 49  1  0
  4  3  1  0
  5 10  1  0
  5  3  1  0
  7  6  1  0
  8 11  2  0
  8 10  1  0
  9  6  2  0
 10  7  2  0
 11  9  1  0
 12 11  1  0
 13  9  1  0
 14 19  1  0
 15 16  1  0
 15 14  1  0
 17 16  1  0
 17 24  1  0
 17 18  1  0
 19 13  1  0
 19 18  1  0
 20 13  2  0
 21 22  2  0
 22 41  1  0
 23 22  1  0
 23 26  1  0
 24 25  1  0
 24 21  1  0
 25 23  2  0
 26 27  1  0
 27 28  2  0
 29 32  1  0
 29 28  1  0
 30 29  2  0
 31 30  1  0
 31 26  2  0
 32 33  1  0
 33 34  1  0
 34 35  2  0
 36 35  1  0
 36 40  1  0
 37 36  2  0
 38 33  2  0
 38 37  1  0
 39 38  1  0
 41 42  1  0
 42 45  1  0
 42 44  1  0
 43 41  2  0
 46 47  1  0
 46 21  1  0
 48 46  1  0
 50 61  2  0
 51 49  1  0
 51 56  1  0
 52 60  1  0
 52 62  1  0
 53 59  1  0
 53 55  1  0
 54 60  1  0
 55 54  1  0
 56 55  2  0
 57 51  2  0
 58 57  1  0
 58 53  2  0
 59 52  1  0
 60 50  1  0
 62 64  2  0
 63 62  1  0
 65 63  1  0
 66 75  2  0
 66 71  1  0
 67 63  1  0
 67 71  1  0
 68 67  1  0
 69 70  1  0
 69 68  1  0
 70 66  1  0
 71 72  2  0
 72 73  1  0
 74 73  2  0
 75 74  1  0
 76 50  1  0
 76 77  1  0
 76 86  1  0
 77 80  1  0
 78 82  1  0
 78 77  1  0
 79 78  2  0
 82 81  1  0
 84 85  1  0
 84 82  1  0
 84 83  1  0
 86 89  1  1
 86 87  1  0
 88 86  1  0
M  ISO  4   4 101   9 100  13 100  49 101
M  END
>  <TORSDO>  (17) 
F 17

>  <SCORE>  (17) 
-15.312

>  <name>  (17) 
17

>  <ligand_id>  (17) 
17

>  <original_smiles>  (17) 
[H]c1c([H])c([H])c2c(c1[H])C([H])([H])C([H])([H])C([H])([H])C2([H])N([H])C(=O)C1([H])N(C(=O)C([H])(N([H])C(=O)C([H])(N([H])C([H])([H])[H])C([H])([H])[H])C(C([H])([H])[H])(C([H])([H])[H])C([H])([H])[H])C([H])([H])c2c([H])c(OC3([H])C([H])([H])N(c4c([H])c([H])c(C(=O)N5C([H])([H])C([H])([H])C([H])([H])C([H])(n6nc(-c7c([H])c([H])c(Oc8c([H])c([H])c(F)c([H])c8F)c([H])c7[H])c(C(=O)N([H])[H])c6N([H])[H])C5([H])[H])c(F)c4[H])C([H])([H])C3([H])[H])c([H])c([H])c2C1([H])[H]

>  <smiles>  (17) 
[H]c1c([H])c([H])c2c(c1[H])C([H])([H])C([H])([H])C([H])([H])C2([H])N([H])C(=O)C1([H])N(C(=O)C([H])(N([H])C(=O)C([H])(N([H])C([H])([H])[H])C([H])([H])[H])C(C([H])([H])[H])(C([H])([H])[H])C([H])([H])[H])C([H])([H])c2c([H])c(OC3([H])C([H])([H])N(c4c([H])c([H])c(C(=O)N5C([H])([H])C([H])([H])C([H])([H])C([H])(n6nc(-c7c([H])c([H])c(Oc8c([H])c([H])c(F)c([H])c8F)c([H])c7[H])c(C(=O)N([H])[H])c6N([H])[H])C5([H])[H])c(F)c4[H])C([H])([H])C3([H])[H])c([H])c([H])c2C1([H])[H]

$$$$
18:0:0
     RDKit          3D

 93102  0  0  1  0  0  0  0  0999 V2000
  -30.5420  -23.8450   20.0250 C   0  0  0  0  0  2  0  0  0  0  0  0
  -30.5500  -22.4380   20.6310 C   0  0  0  0  0  2  0  0  0  0  0  0
  -28.3100  -23.0050   20.0050 C   0  0  0  0  0  2  0  0  0  0  0  0
  -29.0980  -24.3150   20.2110 C   0  0  0  0  0  3  0  0  0  0  0  0
  -29.2020  -21.8720   20.3840 N   0  0  1  0  0  4  0  0  0  0  0  0
  -28.8710  -21.5000   21.2610 H   0  0  0  0  0  0  0  0  0  0  0  0
  -29.1650  -20.7590   19.4010 C   0  0  0  0  0  2  0  0  0  0  0  0
  -30.8080  -18.8000   19.5420 C   0  0  0  0  0  3  0  0  0  0  0  0
  -28.7040  -18.6410   20.7470 C   0  0  0  0  0  3  0  0  0  0  0  0
  -31.1040  -17.4610   19.8830 C   0  0  0  0  0  3  0  0  0  0  0  0
  -28.9970  -17.3040   21.0850 C   0  0  0  0  0  3  0  0  0  0  0  0
  -29.5880  -19.3890   19.9400 C   0  0  0  0  0  0  0  0  0  0  0  0
  -30.1760  -16.6810   20.6200 C   0  0  0  0  0  0  0  0  0  0  0  0
  -30.8790  -14.3570   20.0880 C   0  0  0  0  0  0  0  0  0  0  0  0
  -30.4630  -12.2390   18.8940 C   0  0  0  0  0  2  0  0  0  0  0  0
  -29.4670  -12.5040   17.7470 C   0  0  0  0  0  2  0  0  0  0  0  0
  -28.0150  -12.3820   18.2460 C   0  0  0  0  0  2  0  0  0  0  0  0
  -27.7620  -13.1970   19.5440 C   0  0  0  0  0  3  0  0  0  0  0  0
  -28.8630  -12.9160   20.5920 C   0  0  0  0  0  2  0  0  0  0  0  0
  -30.1750  -13.1960   19.9750 N   0  0  0  0  0  0  0  0  0  0  0  0
  -31.9340  -14.5560   19.4790 O   0  0  0  0  0  0  0  0  0  0  0  0
  -30.3250  -15.2860   20.8890 N   0  0  0  0  0  0  0  0  0  0  0  0
  -29.6140  -14.9020   21.4920 H   0  0  0  0  0  0  0  0  0  0  0  0
  -25.4130  -13.8360   20.3900 C   0  0  0  0  0  0  0  0  0  0  0  0
  -24.3480  -13.0770   20.7930 C   0  0  0  0  0  0  0  0  0  0  0  0
  -24.7780  -11.7160   20.7070 C   0  0  0  0  0  0  0  0  0  0  0  0
  -26.4260  -12.9400   20.0830 N   0  0  0  0  0  0  0  0  0  0  0  0
  -26.0490  -11.6590   20.3290 N   0  0  0  0  0  0  0  0  0  0  0  0
  -24.0360  -10.4650   20.9080 C   0  0  0  0  0  0  0  0  0  0  0  0
  -24.4580   -9.4970   21.8460 C   0  0  0  0  0  3  0  0  0  0  0  0
  -23.7160   -8.3110   22.0340 C   0  0  0  0  0  3  0  0  0  0  0  0
  -22.5390   -8.0830   21.2810 C   0  0  0  0  0  0  0  0  0  0  0  0
  -22.1380   -9.0390   20.3290 C   0  0  0  0  0  3  0  0  0  0  0  0
  -22.8800  -10.2160   20.1410 C   0  0  0  0  0  3  0  0  0  0  0  0
  -21.7700   -6.9490   21.3760 O   0  0  0  0  0  0  0  0  0  0  0  0
  -21.6600   -6.2500   22.5520 C   0  0  0  0  0  0  0  0  0  0  0  0
  -21.1750   -6.8510   23.7320 C   0  0  0  0  0  3  0  0  0  0  0  0
  -21.0140   -6.0790   24.9010 C   0  0  0  0  0  3  0  0  0  0  0  0
  -21.3290   -4.7070   24.8870 C   0  0  0  0  0  0  0  0  0  0  0  0
  -21.8070   -4.1050   23.7100 C   0  0  0  0  0  3  0  0  0  0  0  0
  -21.9710   -4.8750   22.5450 C   0  0  0  0  0  0  0  0  0  0  0  0
  -22.4120   -4.2860   21.4080 F   0  0  0  0  0  0  0  0  0  0  0  0
  -21.1670   -3.9630   26.0070 F   0  0  0  0  0  0  0  0  0  0  0  0
  -22.9770  -13.5750   21.1520 C   0  0  0  0  0  0  0  0  0  0  0  0
  -22.2820  -12.8710   22.0390 N   0  0  0  0  0  0  0  0  0  0  0  0
  -22.5330  -14.6200   20.6820 O   0  0  0  0  0  0  0  0  0  0  0  0
  -22.6570  -12.0230   22.4400 H   0  0  0  0  0  0  0  0  0  0  0  0
  -21.3630  -13.1850   22.3210 H   0  0  0  0  0  0  0  0  0  0  0  0
  -25.5990  -15.2070   20.2460 N   0  0  0  0  0  0  0  0  0  0  0  0
  -24.8640  -15.8790   20.4360 H   0  0  0  0  0  0  0  0  0  0  0  0
  -26.4520  -15.6370   19.9100 H   0  0  0  0  0  0  0  0  0  0  0  0
  -28.6930  -25.4890   19.2800 C   0  0  0  0  0  2  0  0  0  0  0  0
  -28.4630  -26.6940   20.0190 O   0  0  0  0  0  0  0  0  0  0  0  0
  -24.5830  -31.7600   23.1220 C   0  0  0  0  0  0  0  0  0  0  0  0
  -27.2510  -27.3580   19.9940 C   0  0  0  0  0  0  0  0  0  0  0  0
  -23.3840  -30.3760   21.4590 C   0  0  0  0  0  3  0  0  0  0  0  0
  -24.8450  -28.8590   20.0230 C   0  0  0  0  0  0  0  0  0  0  0  0
  -25.9120  -30.7400   21.2780 C   0  0  0  0  0  2  0  0  0  0  0  0
  -25.9990  -29.3760   20.6220 C   0  0  0  0  0  0  0  0  0  0  0  0
  -27.1980  -28.6320   20.6070 C   0  0  0  0  0  3  0  0  0  0  0  0
  -26.0670  -26.8450   19.4090 C   0  0  0  0  0  3  0  0  0  0  0  0
  -24.8740  -27.5920   19.4170 C   0  0  0  0  0  3  0  0  0  0  0  0
  -23.6000  -29.7160   20.0710 C   0  0  0  0  0  2  0  0  0  0  0  0
  -24.6440  -30.9720   22.0110 N   0  0  0  0  0  0  0  0  0  0  0  0
  -23.5000  -32.0230   23.6620 O   0  0  0  0  0  0  0  0  0  0  0  0
  -22.7310  -29.3410   22.4030 C   0  0  0  0  0  0  0  0  0  0  0  0
  -21.4050  -29.1720   22.2780 N   0  0  0  0  0  0  0  0  0  0  0  0
  -23.4150  -28.6950   23.2030 O   0  0  0  0  0  0  0  0  0  0  0  0
  -20.9160  -29.7460   21.6050 H   0  0  0  0  0  0  0  0  0  0  0  0
  -18.0230  -28.0070   22.7750 C   0  0  0  0  0  0  0  0  0  0  0  0
  -20.5850  -28.2270   23.0350 C   0  0  0  0  0  3  0  0  0  0  0  0
  -20.6660  -26.8080   22.4270 C   0  0  0  0  0  2  0  0  0  0  0  0
  -19.5540  -26.5200   21.4150 C   0  0  0  0  0  2  0  0  0  0  0  0
  -18.1780  -26.6690   22.0710 C   0  0  0  0  0  2  0  0  0  0  0  0
  -19.1540  -28.7460   23.2130 C   0  0  0  0  0  0  0  0  0  0  0  0
  -18.9550  -30.0000   23.8310 C   0  0  0  0  0  3  0  0  0  0  0  0
  -17.6580  -30.5140   24.0160 C   0  0  0  0  0  3  0  0  0  0  0  0
  -16.5410  -29.7720   23.5950 C   0  0  0  0  0  3  0  0  0  0  0  0
  -16.7250  -28.5200   22.9790 C   0  0  0  0  0  3  0  0  0  0  0  0
  -25.8670  -32.3840   23.7550 C   0  0  0  0  0  3  0  0  0  0  0  0
  -26.3990  -31.5800   25.0050 C   0  0  1  0  0  0  0  0  0  0  0  0
  -25.3150  -31.2990   26.0720 C   0  0  0  0  0  1  0  0  0  0  0  0
  -26.9930  -30.2200   24.5670 C   0  0  0  0  0  1  0  0  0  0  0  0
  -27.5460  -32.3660   25.6850 C   0  0  0  0  0  1  0  0  0  0  0  0
  -25.5470  -33.7680   24.1260 N   0  0  0  0  0  0  0  0  0  0  0  0
  -25.8760  -34.8450   23.4000 C   0  0  0  0  0  0  0  0  0  0  0  0
  -26.5520  -34.7770   22.3690 O   0  0  0  0  0  0  0  0  0  0  0  0
  -24.9480  -33.8950   24.9280 H   0  0  0  0  0  0  0  0  0  0  0  0
  -24.1420  -36.6380   23.0810 C   0  0  0  0  0  1  0  0  0  0  0  0
  -25.3750  -36.2150   23.8960 C   0  0  0  0  0  3  0  0  0  0  0  0
  -27.4930  -37.0830   24.7840 C   0  0  0  0  0  1  0  0  0  0  0  0
  -26.4030  -37.2760   23.8300 N   0  0  0  0  0  0  0  0  0  0  0  0
  -25.9890  -38.1880   24.0030 H   0  0  0  0  0  0  0  0  0  0  0  0
  1  4  1  0
  1  2  1  0
  3  4  1  0
  3  5  1  0
  4 52  1  0
  5  2  1  0
  5  6  1  1
  7 12  1  0
  7  5  1  0
  8 10  2  0
  8 12  1  0
  9 11  1  0
 10 13  1  0
 12  9  2  0
 13 22  1  0
 13 11  2  0
 14 22  1  0
 15 20  1  0
 16 17  1  0
 16 15  1  0
 18 17  1  0
 18 27  1  0
 18 19  1  0
 20 14  1  0
 20 19  1  0
 21 14  2  0
 22 23  1  0
 24 25  2  0
 25 44  1  0
 26 25  1  0
 26 29  1  0
 27 28  1  0
 27 24  1  0
 28 26  2  0
 29 30  1  0
 30 31  2  0
 32 35  1  0
 32 31  1  0
 33 32  2  0
 34 33  1  0
 34 29  2  0
 35 36  1  0
 36 37  1  0
 37 38  2  0
 39 38  1  0
 39 43  1  0
 40 39  2  0
 41 36  2  0
 41 40  1  0
 42 41  1  0
 44 45  1  0
 45 48  1  0
 45 47  1  0
 46 44  2  0
 49 24  1  0
 49 50  1  0
 51 49  1  0
 52 53  1  0
 54 65  2  0
 55 53  1  0
 55 60  1  0
 56 64  1  0
 56 66  1  0
 57 63  1  0
 57 59  1  0
 58 64  1  0
 59 58  1  0
 60 59  2  0
 61 62  1  0
 61 55  2  0
 62 57  2  0
 63 56  1  0
 64 54  1  0
 66 68  2  0
 67 66  1  0
 69 67  1  0
 70 79  2  0
 70 75  1  0
 71 67  1  0
 71 75  1  0
 72 71  1  0
 73 74  1  0
 73 72  1  0
 74 70  1  0
 75 76  2  0
 76 77  1  0
 78 77  2  0
 79 78  1  0
 80 54  1  0
 80 85  1  0
 80 81  1  0
 81 84  1  1
 81 82  1  0
 83 81  1  0
 85 88  1  0
 86 90  1  0
 86 85  1  0
 87 86  2  0
 90 89  1  0
 92 90  1  0
 92 93  1  0
 92 91  1  0
M  ISO  4  14 100  22 100  52 101  53 101
M  END
>  <TORSDO>  (18) 
F 19

>  <SCORE>  (18) 
-13.851

>  <name>  (18) 
18

>  <ligand_id>  (18) 
18

>  <original_smiles>  (18) 
[H]c1c([H])c([H])c2c(c1[H])C([H])([H])C([H])([H])C([H])([H])C2([H])N([H])C(=O)C1([H])N(C(=O)C([H])(N([H])C(=O)C([H])(N([H])C([H])([H])[H])C([H])([H])[H])C(C([H])([H])[H])(C([H])([H])[H])C([H])([H])[H])C([H])([H])c2c([H])c(OC([H])([H])C3([H])C([H])([H])C([H])([H])[N+]([H])(C([H])([H])c4c([H])c([H])c(N([H])C(=O)N5C([H])([H])C([H])([H])C([H])([H])C([H])(n6nc(-c7c([H])c([H])c(Oc8c([H])c([H])c(F)c([H])c8F)c([H])c7[H])c(C(=O)N([H])[H])c6N([H])[H])C5([H])[H])c([H])c4[H])C3([H])[H])c([H])c([H])c2C1([H])[H]

>  <smiles>  (18) 
[H]c1c([H])c([H])c2c(c1[H])C([H])([H])C([H])([H])C([H])([H])C2([H])N([H])C(=O)C1([H])N(C(=O)C([H])(N([H])C(=O)C([H])(N([H])C([H])([H])[H])C([H])([H])[H])C(C([H])([H])[H])(C([H])([H])[H])C([H])([H])[H])C([H])([H])c2c([H])c(OC([H])([H])C3([H])C([H])([H])C([H])([H])[N+]([H])(C([H])([H])c4c([H])c([H])c(N([H])C(=O)N5C([H])([H])C([H])([H])C([H])([H])C([H])(n6nc(-c7c([H])c([H])c(Oc8c([H])c([H])c(F)c([H])c8F)c([H])c7[H])c(C(=O)N([H])[H])c6N([H])[H])C5([H])[H])c([H])c4[H])C3([H])[H])c([H])c([H])c2C1([H])[H]

$$$$
19:0:0
     RDKit          3D

 96105  0  0  1  0  0  0  0  0999 V2000
  -30.5080  -18.9650   20.2640 C   0  0  0  0  0  3  0  0  0  0  0  0
  -28.5700  -18.4520   18.9340 C   0  0  0  0  0  3  0  0  0  0  0  0
  -30.1030  -20.3290   20.3570 C   0  0  0  0  0  3  0  0  0  0  0  0
  -28.1520  -19.8080   19.0480 C   0  0  0  0  0  3  0  0  0  0  0  0
  -29.7610  -17.9940   19.5410 C   0  0  0  0  0  0  0  0  0  0  0  0
  -28.9080  -20.7870   19.7460 C   0  0  0  0  0  0  0  0  0  0  0  0
  -28.4200  -22.1310   19.7670 N   0  0  0  0  0  0  0  0  0  0  0  0
  -27.5370  -22.2750   19.2850 H   0  0  0  0  0  0  0  0  0  0  0  0
  -29.1090  -23.3380   21.8440 C   0  0  0  0  0  1  0  0  0  0  0  0
  -29.0190  -23.3880   20.3110 C   0  0  0  0  0  3  0  0  0  0  0  0
  -28.1510  -24.6440   19.8790 C   0  0  0  0  0  2  0  0  0  0  0  0
  -28.4430  -26.0200   20.3290 O   0  0  0  0  0  0  0  0  0  0  0  0
  -24.8840  -31.4500   23.4560 C   0  0  0  0  0  0  0  0  0  0  0  0
  -27.3850  -26.9400   20.2560 C   0  0  0  0  0  0  0  0  0  0  0  0
  -23.6810  -30.2090   21.6940 C   0  0  0  0  0  3  0  0  0  0  0  0
  -25.1100  -28.6720   20.2410 C   0  0  0  0  0  0  0  0  0  0  0  0
  -26.2390  -30.4010   21.6340 C   0  0  0  0  0  2  0  0  0  0  0  0
  -26.2750  -29.0600   20.9150 C   0  0  0  0  0  0  0  0  0  0  0  0
  -27.4150  -28.2040   20.9210 C   0  0  0  0  0  3  0  0  0  0  0  0
  -26.2050  -26.6210   19.5400 C   0  0  0  0  0  3  0  0  0  0  0  0
  -25.0760  -27.4560   19.5470 C   0  0  0  0  0  3  0  0  0  0  0  0
  -23.9180  -29.6040   20.2870 C   0  0  0  0  0  2  0  0  0  0  0  0
  -24.9520  -30.6990   22.3200 N   0  0  0  0  0  0  0  0  0  0  0  0
  -23.7940  -31.7570   23.9600 O   0  0  0  0  0  0  0  0  0  0  0  0
  -22.9280  -29.1760   22.5660 C   0  0  0  0  0  0  0  0  0  0  0  0
  -21.6050  -29.0620   22.3580 N   0  0  0  0  0  0  0  0  0  0  0  0
  -23.5350  -28.4830   23.3870 O   0  0  0  0  0  0  0  0  0  0  0  0
  -21.1800  -29.6720   21.6740 H   0  0  0  0  0  0  0  0  0  0  0  0
  -18.1550  -28.0080   22.6320 C   0  0  0  0  0  0  0  0  0  0  0  0
  -20.7060  -28.1290   23.0400 C   0  0  0  0  0  3  0  0  0  0  0  0
  -20.7710  -26.7230   22.3980 C   0  0  0  0  0  2  0  0  0  0  0  0
  -19.7080  -26.5030   21.3170 C   0  0  0  0  0  2  0  0  0  0  0  0
  -18.3020  -26.6860   21.8990 C   0  0  0  0  0  2  0  0  0  0  0  0
  -19.2850  -28.6930   23.1540 C   0  0  0  0  0  0  0  0  0  0  0  0
  -19.0960  -29.9350   23.7970 C   0  0  0  0  0  3  0  0  0  0  0  0
  -17.8090  -30.4930   23.9230 C   0  0  0  0  0  3  0  0  0  0  0  0
  -16.6940  -29.8050   23.4180 C   0  0  0  0  0  3  0  0  0  0  0  0
  -16.8660  -28.5640   22.7780 C   0  0  0  0  0  3  0  0  0  0  0  0
  -26.1700  -31.9770   24.1620 C   0  0  0  0  0  3  0  0  0  0  0  0
  -25.9610  -33.4010   24.4570 N   0  0  0  0  0  0  0  0  0  0  0  0
  -26.4130  -34.4110   23.7010 C   0  0  0  0  0  0  0  0  0  0  0  0
  -27.1200  -34.2350   22.7050 O   0  0  0  0  0  0  0  0  0  0  0  0
  -25.3460  -33.6160   25.2290 H   0  0  0  0  0  0  0  0  0  0  0  0
  -24.8410  -36.3230   23.2530 C   0  0  0  0  0  1  0  0  0  0  0  0
  -26.0180  -35.8410   24.1160 C   0  0  0  0  0  3  0  0  0  0  0  0
  -28.1800  -36.5840   25.0130 C   0  0  0  0  0  1  0  0  0  0  0  0
  -27.1330  -36.8090   24.0200 N   0  0  0  0  0  0  0  0  0  0  0  0
  -26.7920  -37.7610   24.1300 H   0  0  0  0  0  0  0  0  0  0  0  0
  -26.5270  -31.1830   25.4780 C   0  0  1  0  0  0  0  0  0  0  0  0
  -25.3440  -31.0580   26.4670 C   0  0  0  0  0  1  0  0  0  0  0  0
  -27.0160  -29.7550   25.1430 C   0  0  0  0  0  1  0  0  0  0  0  0
  -27.6900  -31.8880   26.2150 C   0  0  0  0  0  1  0  0  0  0  0  0
  -30.3550  -16.5680   19.2660 C   0  0  0  0  0  2  0  0  0  0  0  0
  -30.4860  -14.1190   19.5250 C   0  0  0  0  0  0  0  0  0  0  0  0
  -30.0360  -11.9460   18.4020 C   0  0  0  0  0  2  0  0  0  0  0  0
  -28.9630  -12.1190   17.3060 C   0  0  0  0  0  2  0  0  0  0  0  0
  -27.5500  -11.9610   17.9010 C   0  0  0  0  0  2  0  0  0  0  0  0
  -27.3520  -12.7860   19.2020 C   0  0  0  0  0  3  0  0  0  0  0  0
  -28.5360  -12.5790   20.1740 C   0  0  0  0  0  3  0  0  0  0  0  0
  -29.7620  -12.9510   19.4560 N   0  0  0  0  0  0  0  0  0  0  0  0
  -31.5780  -14.1830   18.9500 O   0  0  0  0  0  0  0  0  0  0  0  0
  -29.8880  -15.2990   19.9450 N   0  0  0  0  0  0  0  0  0  0  0  0
  -25.0570  -13.3660   20.2030 C   0  0  0  0  0  0  0  0  0  0  0  0
  -24.0420  -12.5860   20.6800 C   0  0  0  0  0  0  0  0  0  0  0  0
  -24.4900  -11.2350   20.5540 C   0  0  0  0  0  0  0  0  0  0  0  0
  -26.0670  -12.4930   19.8300 N   0  0  0  0  0  0  0  0  0  0  0  0
  -25.7350  -11.2030   20.0990 N   0  0  0  0  0  0  0  0  0  0  0  0
  -23.7800   -9.9690   20.7860 C   0  0  0  0  0  0  0  0  0  0  0  0
  -24.3470   -8.9380   21.5670 C   0  0  0  0  0  3  0  0  0  0  0  0
  -23.6370   -7.7380   21.7930 C   0  0  0  0  0  3  0  0  0  0  0  0
  -22.3470   -7.5620   21.2390 C   0  0  0  0  0  0  0  0  0  0  0  0
  -21.7980   -8.5820   20.4440 C   0  0  0  0  0  3  0  0  0  0  0  0
  -22.5060   -9.7730   20.2160 C   0  0  0  0  0  3  0  0  0  0  0  0
  -21.5960   -6.4210   21.3840 O   0  0  0  0  0  0  0  0  0  0  0  0
  -21.6350   -5.6730   22.5340 C   0  0  0  0  0  0  0  0  0  0  0  0
  -21.3540   -6.2380   23.7980 C   0  0  0  0  0  3  0  0  0  0  0  0
  -21.3380   -5.4200   24.9460 C   0  0  0  0  0  3  0  0  0  0  0  0
  -21.5910   -4.0400   24.8310 C   0  0  0  0  0  0  0  0  0  0  0  0
  -21.8640   -3.4760   23.5730 C   0  0  0  0  0  3  0  0  0  0  0  0
  -21.8820   -4.2900   22.4280 C   0  0  0  0  0  0  0  0  0  0  0  0
  -22.1260   -3.7380   21.2150 F   0  0  0  0  0  0  0  0  0  0  0  0
  -21.5670   -3.2530   25.9330 F   0  0  0  0  0  0  0  0  0  0  0  0
  -22.6900  -13.0590   21.1280 C   0  0  0  0  0  0  0  0  0  0  0  0
  -22.0920  -12.3780   22.0990 N   0  0  0  0  0  0  0  0  0  0  0  0
  -22.1770  -14.0700   20.6500 O   0  0  0  0  0  0  0  0  0  0  0  0
  -22.5210  -11.5580   22.5020 H   0  0  0  0  0  0  0  0  0  0  0  0
  -21.1910  -12.6780   22.4420 H   0  0  0  0  0  0  0  0  0  0  0  0
  -25.1940  -14.7400   20.0280 N   0  0  0  0  0  0  0  0  0  0  0  0
  -24.3760  -15.3320   20.1290 H   0  0  0  0  0  0  0  0  0  0  0  0
  -25.8770  -15.1280   19.3910 H   0  0  0  0  0  0  0  0  0  0  0  0
  -29.5980  -15.5000   21.3760 C   0  0  0  0  0  2  0  0  0  0  0  0
  -28.2310  -14.9170   21.7970 C   0  0  0  0  0  2  0  0  0  0  0  0
  -27.1000  -13.4310   23.3960 C   0  0  0  0  0  1  0  0  0  0  0  0
  -28.7820  -12.5060   21.8720 C   0  0  0  0  0  2  0  0  0  0  0  0
  -28.3430  -13.6980   22.6350 N   0  0  1  0  0  4  0  0  0  0  0  0
  -29.0510  -13.8800   23.3330 H   0  0  0  0  0  0  0  0  0  0  0  0
  1  3  1  0
  2  4  2  0
  2  5  1  0
  4  6  1  0
  5  1  2  0
  6  7  1  0
  6  3  2  0
  7 10  1  0
  8  7  1  0
 10  9  1  0
 11 10  1  0
 11 12  1  0
 13 24  2  0
 14 12  1  0
 14 19  1  0
 15 23  1  0
 15 25  1  0
 16 22  1  0
 16 18  1  0
 17 23  1  0
 18 19  2  0
 18 17  1  0
 20 21  1  0
 20 14  2  0
 21 16  2  0
 22 15  1  0
 23 13  1  0
 25 27  2  0
 26 25  1  0
 28 26  1  0
 29 38  2  0
 29 34  1  0
 30 26  1  0
 30 34  1  0
 31 30  1  0
 32 33  1  0
 32 31  1  0
 33 29  1  0
 34 35  2  0
 35 36  1  0
 37 36  2  0
 38 37  1  0
 39 13  1  0
 39 40  1  0
 39 49  1  0
 40 43  1  0
 41 45  1  0
 41 40  1  0
 42 41  2  0
 45 44  1  0
 47 45  1  0
 47 48  1  0
 47 46  1  0
 49 52  1  1
 49 50  1  0
 51 49  1  0
 53  5  1  0
 53 62  1  0
 54 62  1  0
 55 60  1  0
 56 57  1  0
 56 55  1  0
 58 57  1  0
 58 66  1  0
 58 59  1  0
 59 94  1  0
 60 54  1  0
 60 59  1  0
 61 54  2  0
 62 91  1  0
 63 64  2  0
 64 83  1  0
 65 64  1  0
 65 68  1  0
 66 67  1  0
 66 63  1  0
 67 65  2  0
 68 69  1  0
 69 70  2  0
 71 74  1  0
 71 70  1  0
 72 71  2  0
 73 72  1  0
 73 68  2  0
 74 75  1  0
 75 76  1  0
 76 77  2  0
 78 77  1  0
 78 82  1  0
 79 78  2  0
 80 75  2  0
 80 79  1  0
 81 80  1  0
 83 84  1  0
 84 87  1  0
 84 86  1  0
 85 83  2  0
 88 89  1  0
 88 63  1  0
 90 88  1  0
 91 92  1  0
 92 95  1  0
 94 95  1  0
 95 96  1  1
 95 93  1  0
M  ISO  4  11 101  12 101  54 100  62 100
M  END
>  <TORSDO>  (19) 
F 23

>  <SCORE>  (19) 
-5.448

>  <name>  (19) 
19

>  <ligand_id>  (19) 
19

>  <original_smiles>  (19) 
[H]c1c([H])c([H])c2c(c1[H])C([H])([H])C([H])([H])C([H])([H])C2([H])N([H])C(=O)C1([H])N(C(=O)C([H])(N([H])C(=O)C([H])(N([H])C([H])([H])[H])C([H])([H])[H])C(C([H])([H])[H])(C([H])([H])[H])C([H])([H])[H])C([H])([H])c2c([H])c(OC([H])([H])C([H])(N([H])c3c([H])c([H])c(C([H])([H])N(C(=O)N4C([H])([H])C([H])([H])C([H])([H])C([H])(n5nc(-c6c([H])c([H])c(Oc7c([H])c([H])c(F)c([H])c7F)c([H])c6[H])c(C(=O)N([H])[H])c5N([H])[H])C4([H])[H])C([H])([H])C([H])([H])[N+]([H])(C([H])([H])[H])C([H])([H])[H])c([H])c3[H])C([H])([H])[H])c([H])c([H])c2C1([H])[H]

>  <smiles>  (19) 
[H]c1c([H])c([H])c2c(c1[H])C([H])([H])C([H])([H])C([H])([H])C2([H])N([H])C(=O)C1([H])N(C(=O)C([H])(N([H])C(=O)C([H])(N([H])C([H])([H])[H])C([H])([H])[H])C(C([H])([H])[H])(C([H])([H])[H])C([H])([H])[H])C([H])([H])c2c([H])c(OC([H])([H])C([H])(N([H])c3c([H])c([H])c(C([H])([H])N(C(=O)N4C([H])([H])C([H])([H])C([H])([H])C([H])(n5nc(-c6c([H])c([H])c(Oc7c([H])c([H])c(F)c([H])c7F)c([H])c6[H])c(C(=O)N([H])[H])c5N([H])[H])C4([H])[H])C([H])([H])C([H])([H])[N+]([H])(C([H])([H])[H])C([H])([H])[H])c([H])c3[H])C([H])([H])[H])c([H])c([H])c2C1([H])[H]

$$$$
20:0:0
     RDKit          3D

 92100  0  0  1  0  0  0  0  0999 V2000
  -28.7030  -19.7410   20.3230 C   0  0  0  0  0  3  0  0  0  0  0  0
  -31.1240  -18.3700   20.2910 C   0  0  0  0  0  3  0  0  0  0  0  0
  -29.8370  -20.6170   20.2060 C   0  0  0  0  0  0  0  0  0  0  0  0
  -29.9910  -17.5160   20.4170 C   0  0  0  0  0  0  0  0  0  0  0  0
  -28.7660  -18.2760   20.4160 C   0  0  0  0  0  0  0  0  0  0  0  0
  -31.0540  -19.8150   20.1690 C   0  0  0  0  0  0  0  0  0  0  0  0
  -32.2500  -20.4250   19.9830 F   0  0  0  0  0  0  0  0  0  0  0  0
  -30.7690  -14.8950   20.0780 C   0  0  0  0  0  0  0  0  0  0  0  0
  -30.5830  -12.6230   18.9810 C   0  0  0  0  0  2  0  0  0  0  0  0
  -29.5580  -12.6880   17.8230 C   0  0  0  0  0  2  0  0  0  0  0  0
  -28.1230  -12.4730   18.3400 C   0  0  0  0  0  2  0  0  0  0  0  0
  -27.8200  -13.3080   19.6120 C   0  0  0  0  0  3  0  0  0  0  0  0
  -28.9500  -13.1910   20.6570 C   0  0  0  0  0  2  0  0  0  0  0  0
  -30.1900  -13.6320   20.0030 N   0  0  0  0  0  0  0  0  0  0  0  0
  -31.9280  -15.0280   19.6680 O   0  0  0  0  0  0  0  0  0  0  0  0
  -29.9670  -15.9880   20.4740 N   0  0  0  0  0  0  0  0  0  0  0  0
  -29.1010  -15.6540   20.8710 H   0  0  0  0  0  0  0  0  0  0  0  0
  -25.4850  -13.8630   20.5090 C   0  0  0  0  0  0  0  0  0  0  0  0
  -24.4410  -13.0730   20.9070 C   0  0  0  0  0  0  0  0  0  0  0  0
  -24.8990  -11.7240   20.7930 C   0  0  0  0  0  0  0  0  0  0  0  0
  -26.5110  -12.9940   20.1730 N   0  0  0  0  0  0  0  0  0  0  0  0
  -26.1700  -11.7010   20.4080 N   0  0  0  0  0  0  0  0  0  0  0  0
  -24.1820  -10.4550   20.9740 C   0  0  0  0  0  0  0  0  0  0  0  0
  -24.6130   -9.4880   21.9090 C   0  0  0  0  0  3  0  0  0  0  0  0
  -23.8950   -8.2850   22.0770 C   0  0  0  0  0  3  0  0  0  0  0  0
  -22.7300   -8.0410   21.3100 C   0  0  0  0  0  0  0  0  0  0  0  0
  -22.3190   -8.9950   20.3650 C   0  0  0  0  0  3  0  0  0  0  0  0
  -23.0380  -10.1900   20.1950 C   0  0  0  0  0  3  0  0  0  0  0  0
  -21.9830   -6.8900   21.3890 O   0  0  0  0  0  0  0  0  0  0  0  0
  -21.8580   -6.1910   22.5630 C   0  0  0  0  0  0  0  0  0  0  0  0
  -21.3130   -6.7800   23.7260 C   0  0  0  0  0  3  0  0  0  0  0  0
  -21.1380   -6.0070   24.8910 C   0  0  0  0  0  3  0  0  0  0  0  0
  -21.4970   -4.6450   24.8940 C   0  0  0  0  0  0  0  0  0  0  0  0
  -22.0340   -4.0550   23.7360 C   0  0  0  0  0  3  0  0  0  0  0  0
  -22.2110   -4.8260   22.5740 C   0  0  0  0  0  0  0  0  0  0  0  0
  -22.7090   -4.2480   21.4540 F   0  0  0  0  0  0  0  0  0  0  0  0
  -21.3210   -3.9010   26.0100 F   0  0  0  0  0  0  0  0  0  0  0  0
  -23.0630  -13.5390   21.2780 C   0  0  0  0  0  0  0  0  0  0  0  0
  -22.4010  -12.8320   22.1880 N   0  0  0  0  0  0  0  0  0  0  0  0
  -22.5840  -14.5650   20.7980 O   0  0  0  0  0  0  0  0  0  0  0  0
  -22.8030  -12.0020   22.5960 H   0  0  0  0  0  0  0  0  0  0  0  0
  -21.4800  -13.1260   22.4800 H   0  0  0  0  0  0  0  0  0  0  0  0
  -25.6420  -15.2410   20.3840 N   0  0  0  0  0  0  0  0  0  0  0  0
  -24.8880  -15.8870   20.5860 H   0  0  0  0  0  0  0  0  0  0  0  0
  -26.4800  -15.7010   20.0550 H   0  0  0  0  0  0  0  0  0  0  0  0
  -31.1390  -22.7100   20.3540 C   0  0  0  0  0  1  0  0  0  0  0  0
  -29.8130  -22.1250   20.1320 N   0  0  0  0  0  0  0  0  0  0  0  0
  -28.7340  -23.2240   20.3800 C   0  0  0  0  0  2  0  0  0  0  0  0
  -28.7410  -24.7030   19.5530 C   0  0  0  0  0  2  0  0  0  0  0  0
  -28.6250  -26.1600   20.0870 O   0  0  0  0  0  0  0  0  0  0  0  0
  -24.6560  -31.6350   22.9340 C   0  0  0  0  0  0  0  0  0  0  0  0
  -27.5140  -27.0650   19.9430 C   0  0  0  0  0  0  0  0  0  0  0  0
  -23.5630  -30.2100   21.2440 C   0  0  0  0  0  3  0  0  0  0  0  0
  -25.1170  -28.7110   19.8500 C   0  0  0  0  0  0  0  0  0  0  0  0
  -26.1090  -30.5780   21.1660 C   0  0  0  0  0  2  0  0  0  0  0  0
  -26.2560  -29.2000   20.5000 C   0  0  0  0  0  0  0  0  0  0  0  0
  -27.4510  -28.3910   20.5330 C   0  0  0  0  0  3  0  0  0  0  0  0
  -26.3440  -26.6720   19.2560 C   0  0  0  0  0  3  0  0  0  0  0  0
  -25.1750  -27.4610   19.2140 C   0  0  0  0  0  3  0  0  0  0  0  0
  -23.8550  -29.5590   19.8660 C   0  0  0  0  0  2  0  0  0  0  0  0
  -24.7920  -30.8300   21.8360 N   0  0  0  0  0  0  0  0  0  0  0  0
  -23.5430  -31.8710   23.4300 O   0  0  0  0  0  0  0  0  0  0  0  0
  -22.8970  -29.1660   22.1750 C   0  0  0  0  0  0  0  0  0  0  0  0
  -21.5690  -28.9930   22.0520 N   0  0  0  0  0  0  0  0  0  0  0  0
  -23.5770  -28.5140   22.9710 O   0  0  0  0  0  0  0  0  0  0  0  0
  -21.0770  -29.5720   21.3850 H   0  0  0  0  0  0  0  0  0  0  0  0
  -18.1800  -27.8510   22.6280 C   0  0  0  0  0  0  0  0  0  0  0  0
  -20.7560  -28.0290   22.7970 C   0  0  0  0  0  3  0  0  0  0  0  0
  -20.7900  -26.6360   22.1260 C   0  0  0  0  0  2  0  0  0  0  0  0
  -19.6370  -26.4100   21.1430 C   0  0  0  0  0  2  0  0  0  0  0  0
  -18.2880  -26.5470   21.8570 C   0  0  0  0  0  2  0  0  0  0  0  0
  -19.3380  -28.5550   23.0560 C   0  0  0  0  0  0  0  0  0  0  0  0
  -19.1810  -29.7780   23.7420 C   0  0  0  0  0  3  0  0  0  0  0  0
  -17.8990  -30.2980   24.0020 C   0  0  0  0  0  3  0  0  0  0  0  0
  -16.7570  -29.5910   23.5910 C   0  0  0  0  0  3  0  0  0  0  0  0
  -16.8980  -28.3680   22.9100 C   0  0  0  0  0  3  0  0  0  0  0  0
  -25.8880  -32.3140   23.6070 C   0  0  0  0  0  3  0  0  0  0  0  0
  -26.4290  -31.5170   24.8560 C   0  0  1  0  0  0  0  0  0  0  0  0
  -25.3360  -31.1640   25.8920 C   0  0  0  0  0  1  0  0  0  0  0  0
  -27.1050  -30.1980   24.4180 C   0  0  0  0  0  1  0  0  0  0  0  0
  -27.5170  -32.3500   25.5770 C   0  0  0  0  0  1  0  0  0  0  0  0
  -25.4870  -33.6740   24.0030 N   0  0  0  0  0  0  0  0  0  0  0  0
  -25.7710  -34.7870   23.3130 C   0  0  0  0  0  0  0  0  0  0  0  0
  -26.4650  -34.7800   22.2930 O   0  0  0  0  0  0  0  0  0  0  0  0
  -24.8680  -33.7480   24.7970 H   0  0  0  0  0  0  0  0  0  0  0  0
  -23.9520  -36.5000   23.0240 C   0  0  0  0  0  1  0  0  0  0  0  0
  -25.1970  -36.1180   23.8380 C   0  0  0  0  0  3  0  0  0  0  0  0
  -27.2560  -37.0760   24.7740 C   0  0  0  0  0  1  0  0  0  0  0  0
  -26.1710  -37.2320   23.8090 N   0  0  0  0  0  0  0  0  0  0  0  0
  -25.7100  -38.1180   23.9930 H   0  0  0  0  0  0  0  0  0  0  0  0
  -26.4120  -17.9770   19.9790 C   0  0  0  0  0  1  0  0  0  0  0  0
  -27.6360  -17.4860   20.5070 O   0  0  0  0  0  0  0  0  0  0  0  0
  1  5  1  0
  2  4  1  0
  3  1  2  0
  4 16  1  0
  5  4  2  0
  5 92  1  0
  6  3  1  0
  6  2  2  0
  7  6  1  0
  8 16  1  0
  9 14  1  0
 10 11  1  0
 10  9  1  0
 12 11  1  0
 12 21  1  0
 12 13  1  0
 14  8  1  0
 14 13  1  0
 15  8  2  0
 16 17  1  0
 18 19  2  0
 19 38  1  0
 20 19  1  0
 20 23  1  0
 21 22  1  0
 21 18  1  0
 22 20  2  0
 23 24  1  0
 24 25  2  0
 26 29  1  0
 26 25  1  0
 27 26  2  0
 28 27  1  0
 28 23  2  0
 29 30  1  0
 30 35  2  0
 30 31  1  0
 31 32  2  0
 32 33  1  0
 33 37  1  0
 34 33  2  0
 35 34  1  0
 36 35  1  0
 38 39  1  0
 39 42  1  0
 39 41  1  0
 40 38  2  0
 43 18  1  0
 43 44  1  0
 45 43  1  0
 47  3  1  0
 47 46  1  0
 47 48  1  0
 49 50  1  0
 49 48  1  0
 51 62  2  0
 52 50  1  0
 52 57  1  0
 53 61  1  0
 53 63  1  0
 54 60  1  0
 54 56  1  0
 55 61  1  0
 56 57  2  0
 56 55  1  0
 58 52  2  0
 59 58  1  0
 59 54  2  0
 60 53  1  0
 61 51  1  0
 63 65  2  0
 64 63  1  0
 66 64  1  0
 67 76  2  0
 67 72  1  0
 68 64  1  0
 68 72  1  0
 69 68  1  0
 70 71  1  0
 70 69  1  0
 71 67  1  0
 72 73  2  0
 73 74  1  0
 75 74  2  0
 76 75  1  0
 77 51  1  0
 77 82  1  0
 77 78  1  0
 78 81  1  1
 78 79  1  0
 80 78  1  0
 82 85  1  0
 83 87  1  0
 83 82  1  0
 84 83  2  0
 87 86  1  0
 89 87  1  0
 89 90  1  0
 89 88  1  0
 91 92  1  0
M  ISO  4   8 100  16 100  49 101  50 101
M  END
>  <TORSDO>  (20) 
F 20

>  <SCORE>  (20) 
-14.194

>  <name>  (20) 
20

>  <ligand_id>  (20) 
20

>  <original_smiles>  (20) 
[H]c1c([H])c([H])c2c(c1[H])C([H])([H])C([H])([H])C([H])([H])C2([H])N([H])C(=O)C1([H])N(C(=O)C([H])(N([H])C(=O)C([H])(N([H])C([H])([H])[H])C([H])([H])[H])C(C([H])([H])[H])(C([H])([H])[H])C([H])([H])[H])C([H])([H])c2c([H])c(OC([H])([H])C([H])([H])N(c3c([H])c(OC([H])([H])[H])c(N([H])C(=O)N4C([H])([H])C([H])([H])C([H])([H])C([H])(n5nc(-c6c([H])c([H])c(Oc7c([H])c([H])c(F)c([H])c7F)c([H])c6[H])c(C(=O)N([H])[H])c5N([H])[H])C4([H])[H])c([H])c3F)C([H])([H])[H])c([H])c([H])c2C1([H])[H]

>  <smiles>  (20) 
[H]c1c([H])c([H])c2c(c1[H])C([H])([H])C([H])([H])C([H])([H])C2([H])N([H])C(=O)C1([H])N(C(=O)C([H])(N([H])C(=O)C([H])(N([H])C([H])([H])[H])C([H])([H])[H])C(C([H])([H])[H])(C([H])([H])[H])C([H])([H])[H])C([H])([H])c2c([H])c(OC([H])([H])C([H])([H])N(c3c([H])c(OC([H])([H])[H])c(N([H])C(=O)N4C([H])([H])C([H])([H])C([H])([H])C([H])(n5nc(-c6c([H])c([H])c(Oc7c([H])c([H])c(F)c([H])c7F)c([H])c6[H])c(C(=O)N([H])[H])c5N([H])[H])C4([H])[H])c([H])c3F)C([H])([H])[H])c([H])c([H])c2C1([H])[H]

$$$$
21:0:0
     RDKit          3D

 90 98  0  0  1  0  0  0  0  0999 V2000
  -27.7180  -22.0460   18.5320 C   0  0  0  0  0  1  0  0  0  0  0  0
  -28.6910  -22.0160   19.6240 N   0  0  0  0  0  0  0  0  0  0  0  0
  -29.9290  -18.3050   18.9510 C   0  0  0  0  0  3  0  0  0  0  0  0
  -29.5870  -18.5670   21.2550 C   0  0  0  0  0  3  0  0  0  0  0  0
  -29.5980  -19.7200   18.7850 C   0  0  0  0  0  3  0  0  0  0  0  0
  -29.2780  -19.9730   21.0920 C   0  0  0  0  0  3  0  0  0  0  0  0
  -29.9300  -17.6190   20.2110 C   0  0  0  0  0  0  0  0  0  0  0  0
  -29.2410  -20.6460   19.8360 C   0  0  0  0  0  0  0  0  0  0  0  0
  -30.7490  -15.0210   19.7830 C   0  0  0  0  0  0  0  0  0  0  0  0
  -30.4990  -12.7110   18.7460 C   0  0  0  0  0  2  0  0  0  0  0  0
  -29.4480  -12.7030   17.6110 C   0  0  0  0  0  2  0  0  0  0  0  0
  -28.0350  -12.4820   18.1790 C   0  0  0  0  0  2  0  0  0  0  0  0
  -27.7570  -13.3520   19.4290 C   0  0  0  0  0  3  0  0  0  0  0  0
  -28.9150  -13.3220   20.4410 C   0  0  0  0  0  2  0  0  0  0  0  0
  -30.1330  -13.7630   19.7400 N   0  0  0  0  0  0  0  0  0  0  0  0
  -31.8200  -15.1440   19.1780 O   0  0  0  0  0  0  0  0  0  0  0  0
  -30.2570  -15.8650   21.9550 C   0  0  0  0  0  1  0  0  0  0  0  0
  -30.1920  -16.1200   20.5110 N   0  0  0  0  0  0  0  0  0  0  0  0
  -25.4900  -13.9060   20.4790 C   0  0  0  0  0  0  0  0  0  0  0  0
  -24.4600  -13.1230   20.9190 C   0  0  0  0  0  0  0  0  0  0  0  0
  -24.8890  -11.7700   20.7420 C   0  0  0  0  0  0  0  0  0  0  0  0
  -26.4780  -13.0330   20.0530 N   0  0  0  0  0  0  0  0  0  0  0  0
  -26.1330  -11.7390   20.2760 N   0  0  0  0  0  0  0  0  0  0  0  0
  -24.1630  -10.5090   20.9330 C   0  0  0  0  0  0  0  0  0  0  0  0
  -24.6110   -9.5320   21.8490 C   0  0  0  0  0  3  0  0  0  0  0  0
  -23.8860   -8.3340   22.0310 C   0  0  0  0  0  3  0  0  0  0  0  0
  -22.7000   -8.1020   21.2970 C   0  0  0  0  0  0  0  0  0  0  0  0
  -22.2700   -9.0670   20.3680 C   0  0  0  0  0  3  0  0  0  0  0  0
  -22.9950  -10.2570   20.1840 C   0  0  0  0  0  3  0  0  0  0  0  0
  -21.9470   -6.9560   21.3860 O   0  0  0  0  0  0  0  0  0  0  0  0
  -21.8120   -6.2730   22.5690 C   0  0  0  0  0  0  0  0  0  0  0  0
  -21.2800   -6.8830   23.7250 C   0  0  0  0  0  3  0  0  0  0  0  0
  -21.0970   -6.1250   24.8990 C   0  0  0  0  0  3  0  0  0  0  0  0
  -21.4320   -4.7590   24.9160 C   0  0  0  0  0  0  0  0  0  0  0  0
  -21.9560   -4.1480   23.7630 C   0  0  0  0  0  3  0  0  0  0  0  0
  -22.1440   -4.9030   22.5930 C   0  0  0  0  0  0  0  0  0  0  0  0
  -22.6290   -4.3040   21.4790 F   0  0  0  0  0  0  0  0  0  0  0  0
  -21.2480   -4.0300   26.0410 F   0  0  0  0  0  0  0  0  0  0  0  0
  -23.1160  -13.5960   21.3860 C   0  0  0  0  0  0  0  0  0  0  0  0
  -22.4910  -12.8680   22.3030 N   0  0  0  0  0  0  0  0  0  0  0  0
  -22.6320  -14.6480   20.9690 O   0  0  0  0  0  0  0  0  0  0  0  0
  -22.8990  -12.0160   22.6600 H   0  0  0  0  0  0  0  0  0  0  0  0
  -21.5920  -13.1680   22.6550 H   0  0  0  0  0  0  0  0  0  0  0  0
  -25.6640  -15.2840   20.3830 N   0  0  0  0  0  0  0  0  0  0  0  0
  -24.9330  -15.9390   20.6350 H   0  0  0  0  0  0  0  0  0  0  0  0
  -26.4880  -15.7390   20.0120 H   0  0  0  0  0  0  0  0  0  0  0  0
  -29.1720  -23.4440   20.0180 C   0  0  0  0  0  2  0  0  0  0  0  0
  -27.3970  -24.4680   21.5700 C   0  0  0  0  0  1  0  0  0  0  0  0
  -28.0860  -24.7140   20.2120 C   0  0  0  0  0  3  0  0  0  0  0  0
  -28.3990  -26.2380   20.1460 O   0  0  0  0  0  0  0  0  0  0  0  0
  -24.6800  -31.7710   23.2370 C   0  0  0  0  0  0  0  0  0  0  0  0
  -27.3450  -27.2210   20.0680 C   0  0  0  0  0  0  0  0  0  0  0  0
  -23.5230  -30.4330   21.5220 C   0  0  0  0  0  3  0  0  0  0  0  0
  -25.0090  -28.9410   20.0570 C   0  0  0  0  0  0  0  0  0  0  0  0
  -26.0750  -30.7350   21.4100 C   0  0  0  0  0  2  0  0  0  0  0  0
  -26.1720  -29.3710   20.7070 C   0  0  0  0  0  0  0  0  0  0  0  0
  -27.3440  -28.5270   20.7010 C   0  0  0  0  0  3  0  0  0  0  0  0
  -26.1630  -26.9000   19.3630 C   0  0  0  0  0  3  0  0  0  0  0  0
  -25.0150  -27.7190   19.3710 C   0  0  0  0  0  3  0  0  0  0  0  0
  -23.7750  -29.8230   20.1180 C   0  0  0  0  0  2  0  0  0  0  0  0
  -24.7770  -31.0000   22.1110 N   0  0  0  0  0  0  0  0  0  0  0  0
  -23.5810  -32.0210   23.7560 O   0  0  0  0  0  0  0  0  0  0  0  0
  -22.8430  -29.3740   22.4290 C   0  0  0  0  0  0  0  0  0  0  0  0
  -21.5140  -29.2160   22.2950 N   0  0  0  0  0  0  0  0  0  0  0  0
  -23.5140  -28.7050   23.2170 O   0  0  0  0  0  0  0  0  0  0  0  0
  -21.0290  -29.8090   21.6370 H   0  0  0  0  0  0  0  0  0  0  0  0
  -18.1180  -28.0500   22.7760 C   0  0  0  0  0  0  0  0  0  0  0  0
  -20.6870  -28.2450   23.0170 C   0  0  0  0  0  3  0  0  0  0  0  0
  -20.7520  -26.8520   22.3480 C   0  0  0  0  0  2  0  0  0  0  0  0
  -19.6250  -26.6160   21.3360 C   0  0  0  0  0  2  0  0  0  0  0  0
  -18.2580  -26.7440   22.0110 C   0  0  0  0  0  2  0  0  0  0  0  0
  -19.2600  -28.7620   23.2350 C   0  0  0  0  0  0  0  0  0  0  0  0
  -19.0730  -29.9870   23.9110 C   0  0  0  0  0  3  0  0  0  0  0  0
  -17.7800  -30.4970   24.1350 C   0  0  0  0  0  3  0  0  0  0  0  0
  -16.6550  -29.7810   23.6910 C   0  0  0  0  0  3  0  0  0  0  0  0
  -16.8250  -28.5590   23.0170 C   0  0  0  0  0  3  0  0  0  0  0  0
  -25.9390  -32.3960   23.9100 C   0  0  0  0  0  3  0  0  0  0  0  0
  -26.4220  -31.5940   25.1800 C   0  0  1  0  0  0  0  0  0  0  0  0
  -25.3040  -31.3320   26.2170 C   0  0  0  0  0  1  0  0  0  0  0  0
  -27.0140  -30.2240   24.7760 C   0  0  0  0  0  1  0  0  0  0  0  0
  -27.5530  -32.3740   25.8910 C   0  0  0  0  0  1  0  0  0  0  0  0
  -25.6140  -33.7840   24.2710 N   0  0  0  0  0  0  0  0  0  0  0  0
  -25.9430  -34.8600   23.5420 C   0  0  0  0  0  0  0  0  0  0  0  0
  -26.6170  -34.7870   22.5120 O   0  0  0  0  0  0  0  0  0  0  0  0
  -25.0180  -33.9150   25.0760 H   0  0  0  0  0  0  0  0  0  0  0  0
  -24.1920  -36.6450   23.2390 C   0  0  0  0  0  1  0  0  0  0  0  0
  -25.4440  -36.2350   24.0320 C   0  0  0  0  0  3  0  0  0  0  0  0
  -27.5720  -37.1300   24.8710 C   0  0  0  0  0  1  0  0  0  0  0  0
  -26.4640  -37.3020   23.9360 N   0  0  0  0  0  0  0  0  0  0  0  0
  -26.0470  -38.2140   24.0990 H   0  0  0  0  0  0  0  0  0  0  0  0
  1  2  1  0
  2  8  1  0
  2 47  1  0
  3  7  1  0
  5  3  2  0
  5  8  1  0
  6  4  1  0
  7 18  1  0
  7  4  2  0
  8  6  2  0
  9 18  1  0
 10 15  1  0
 11 12  1  0
 11 10  1  0
 13 12  1  0
 13 22  1  0
 13 14  1  0
 15  9  1  0
 15 14  1  0
 16  9  2  0
 18 17  1  0
 19 20  2  0
 20 39  1  0
 21 20  1  0
 21 24  1  0
 22 23  1  0
 22 19  1  0
 23 21  2  0
 24 25  1  0
 25 26  2  0
 27 30  1  0
 27 26  1  0
 28 27  2  0
 29 28  1  0
 29 24  2  0
 30 31  1  0
 31 36  2  0
 31 32  1  0
 32 33  2  0
 33 34  1  0
 34 38  1  0
 35 34  2  0
 36 35  1  0
 37 36  1  0
 39 40  1  0
 40 43  1  0
 40 42  1  0
 41 39  2  0
 44 19  1  0
 44 45  1  0
 46 44  1  0
 47 49  1  0
 49 48  1  0
 50 49  1  0
 51 62  2  0
 52 50  1  0
 52 57  1  0
 53 61  1  0
 53 63  1  0
 54 60  1  0
 54 56  1  0
 55 61  1  0
 56 55  1  0
 57 56  2  0
 58 59  1  0
 58 52  2  0
 59 54  2  0
 60 53  1  0
 61 51  1  0
 63 65  2  0
 64 63  1  0
 66 64  1  0
 67 76  2  0
 67 72  1  0
 68 64  1  0
 68 72  1  0
 69 68  1  0
 70 71  1  0
 70 69  1  0
 71 67  1  0
 72 73  2  0
 73 74  1  0
 75 74  2  0
 76 75  1  0
 77 51  1  0
 77 82  1  0
 77 78  1  0
 78 81  1  1
 78 79  1  0
 80 78  1  0
 82 85  1  0
 83 87  1  0
 83 82  1  0
 84 83  2  0
 87 86  1  0
 89 87  1  0
 89 90  1  0
 89 88  1  0
M  ISO  4   9 100  18 100  49 101  50 101
M  END
>  <TORSDO>  (21) 
F 19

>  <SCORE>  (21) 
-13.201

>  <name>  (21) 
21

>  <ligand_id>  (21) 
21

>  <original_smiles>  (21) 
[H]c1c([H])c([H])c2c(c1[H])C([H])([H])C([H])([H])C([H])([H])C2([H])N([H])C(=O)C1([H])N(C(=O)C([H])(N([H])C(=O)C([H])(N([H])C([H])([H])[H])C([H])([H])[H])C(C([H])([H])[H])(C([H])([H])[H])C([H])([H])[H])C([H])([H])c2c([H])c(OC([H])(C([H])([H])[H])C([H])([H])N(c3c([H])c([H])c(N(C(=O)N4C([H])([H])C([H])([H])C([H])([H])C([H])(n5nc(-c6c([H])c([H])c(Oc7c([H])c([H])c(F)c([H])c7F)c([H])c6[H])c(C(=O)N([H])[H])c5N([H])[H])C4([H])[H])C([H])([H])[H])c([H])c3[H])C([H])([H])[H])c([H])c([H])c2C1([H])[H]

>  <smiles>  (21) 
[H]c1c([H])c([H])c2c(c1[H])C([H])([H])C([H])([H])C([H])([H])C2([H])N([H])C(=O)C1([H])N(C(=O)C([H])(N([H])C(=O)C([H])(N([H])C([H])([H])[H])C([H])([H])[H])C(C([H])([H])[H])(C([H])([H])[H])C([H])([H])[H])C([H])([H])c2c([H])c(OC([H])(C([H])([H])[H])C([H])([H])N(c3c([H])c([H])c(N(C(=O)N4C([H])([H])C([H])([H])C([H])([H])C([H])(n5nc(-c6c([H])c([H])c(Oc7c([H])c([H])c(F)c([H])c7F)c([H])c6[H])c(C(=O)N([H])[H])c5N([H])[H])C4([H])[H])C([H])([H])[H])c([H])c3[H])C([H])([H])[H])c([H])c([H])c2C1([H])[H]

$$$$
22:0:0
     RDKit          3D

103111  0  0  1  0  0  0  0  0999 V2000
  -27.1150  -19.6750   20.3900 C   0  0  0  0  0  2  0  0  0  0  0  0
  -24.6510  -18.8260   20.6670 C   0  0  0  0  0  3  0  0  0  0  0  0
  -23.6030  -17.8330   20.5060 C   0  0  0  0  0  3  0  0  0  0  0  0
  -25.5070  -18.3230   18.5290 C   0  0  0  0  0  3  0  0  0  0  0  0
  -25.7510  -19.0210   19.7700 C   0  0  0  0  0  0  0  0  0  0  0  0
  -23.6200  -16.8140   19.4610 C   0  0  0  0  0  0  0  0  0  0  0  0
  -24.4320  -17.3340   18.3500 C   0  0  0  0  0  0  0  0  0  0  0  0
  -24.4320  -16.6120   17.1780 F   0  0  0  0  0  0  0  0  0  0  0  0
  -24.8850  -11.8900   21.5560 C   0  0  0  0  0  2  0  0  0  0  0  0
  -26.5060  -15.0230   21.7010 C   0  0  0  0  0  3  0  0  0  0  0  0
  -23.0420  -13.4180   20.0410 C   0  0  0  0  0 15  0  0  0  0  0  0
  -25.1520  -15.9720   20.8100 C   0  0  0  0  0  3  0  0  0  0  0  0
  -26.6700  -13.1900   22.0020 C   0  0  0  0  0  2  0  0  0  0  0  0
  -23.7480  -15.3440   19.8110 N   0  0  0  0  0  2  0  0  0  0  0  0
  -29.6210  -12.8590   20.6370 C   0  0  0  0  0  0  0  0  0  0  0  0
  -30.7140  -10.9360   19.0900 C   0  0  0  0  0  2  0  0  0  0  0  0
  -29.8190  -10.4600   17.8700 C   0  0  0  0  0  2  0  0  0  0  0  0
  -28.3670  -10.0990   18.2160 C   0  0  0  0  0  2  0  0  0  0  0  0
  -28.0380  -11.0880   19.2680 C   0  0  0  0  0  3  0  0  0  0  0  0
  -28.9000  -10.7080   20.4650 C   0  0  0  0  0  2  0  0  0  0  0  0
  -29.9450  -11.5870   20.2550 N   0  0  0  0  0  0  0  0  0  0  0  0
  -30.4400  -13.6420   20.0120 O   0  0  0  0  0  0  0  0  0  0  0  0
  -28.7520  -12.5160   23.0360 C   0  0  0  0  0  1  0  0  0  0  0  0
  -28.4080  -12.9410   21.6650 N   0  0  0  0  0  0  0  0  0  0  0  0
  -26.0000  -12.2650   19.6130 C   0  0  0  0  0  3  0  0  0  0  0  0
  -25.1630  -12.0940   20.6550 C   0  0  0  0  0  3  0  0  0  0  0  0
  -24.9900  -10.4910   20.3610 C   0  0  0  0  0  3  0  0  0  0  0  0
  -26.7220  -11.1600   19.6600 N   0  0  0  0  0  0  0  0  0  0  0  0
  -26.1460  -10.0430   20.0350 N   0  0  0  0  0  2  0  0  0  0  0  0
  -24.1250   -9.2350   20.9250 C   0  0  0  0  0  0  0  0  0  0  0  0
  -24.4280   -8.5640   22.1800 C   0  0  0  0  0  3  0  0  0  0  0  0
  -23.7130   -7.4420   22.7000 C   0  0  0  0  0  3  0  0  0  0  0  0
  -22.6760   -6.8630   21.9420 C   0  0  0  0  0  0  0  0  0  0  0  0
  -22.3480   -7.4620   20.7350 C   0  0  0  0  0  3  0  0  0  0  0  0
  -23.0390   -8.5810   20.2280 C   0  0  0  0  0  3  0  0  0  0  0  0
  -22.0270   -5.6720   22.2090 O   0  0  0  0  0  0  0  0  0  0  0  0
  -21.0680   -5.5510   23.2010 C   0  0  0  0  0  0  0  0  0  0  0  0
  -19.8190   -6.2040   23.1130 C   0  0  0  0  0  3  0  0  0  0  0  0
  -18.8360   -5.9990   24.1120 C   0  0  0  0  0  3  0  0  0  0  0  0
  -19.0950   -5.1220   25.1830 C   0  0  0  0  0  0  0  0  0  0  0  0
  -20.3410   -4.4670   25.2820 C   0  0  0  0  0  3  0  0  0  0  0  0
  -21.3190   -4.6940   24.2860 C   0  0  0  0  0  0  0  0  0  0  0  0
  -22.5060   -4.0540   24.3830 F   0  0  0  0  0  0  0  0  0  0  0  0
  -18.1550   -4.9140   26.1450 F   0  0  0  0  0  0  0  0  0  0  0  0
  -24.1260  -13.3330   22.2530 C   0  0  0  0  0  3  0  0  0  0  0  0
  -23.0410  -12.9190   23.0190 N   0  0  0  0  0  0  0  0  0  0  0  0
  -23.4610  -14.3850   22.1050 O   0  0  0  0  0  1  0  0  0  0  0  0
  -23.3200  -12.3630   23.8120 H   0  0  0  0  0  0  0  0  0  0  0  0
  -22.5620  -13.7880   23.3860 H   0  0  0  0  0  0  0  0  0  0  0  0
  -26.4330  -13.2380   18.7540 N   0  0  0  0  0  0  0  0  0  0  0  0
  -26.0670  -14.1320   18.4900 H   0  0  0  0  0  0  0  0  0  0  0  0
  -27.2130  -12.9230   18.1480 H   0  0  0  0  0  0  0  0  0  0  0  0
  -30.3180  -20.7060   18.6300 C   0  0  0  0  0  2  0  0  0  0  0  0
  -30.3080  -21.7780   19.7200 C   0  0  0  0  0  2  0  0  0  0  0  0
  -28.9730  -19.9790   18.7070 C   0  0  0  0  0  2  0  0  0  0  0  0
  -28.9950  -21.6310   20.5440 C   0  0  0  0  0  3  0  0  0  0  0  0
  -28.1060  -20.6400   19.7330 N   0  0  2  0  0  4  0  0  0  0  0  0
  -27.4930  -21.2290   19.1910 H   0  0  0  0  0  0  0  0  0  0  0  0
  -27.7000  -22.9800   22.1360 C   0  0  0  0  0  1  0  0  0  0  0  0
  -28.5070  -23.0560   20.9070 N   0  0  0  0  0  0  0  0  0  0  0  0
  -29.5130  -24.1570   21.2500 C   0  0  0  0  0  2  0  0  0  0  0  0
  -29.0040  -25.6560   21.4620 C   0  0  0  0  0  2  0  0  0  0  0  0
  -29.1560  -26.6640   20.4340 O   0  0  0  0  0  0  0  0  0  0  0  0
  -24.6870  -31.6610   23.1050 C   0  0  0  0  0  0  0  0  0  0  0  0
  -28.0180  -27.4290   20.2820 C   0  0  0  0  0  0  0  0  0  0  0  0
  -23.8210  -30.2080   21.3090 C   0  0  0  0  0  3  0  0  0  0  0  0
  -25.5480  -28.7870   20.0700 C   0  0  0  0  0  0  0  0  0  0  0  0
  -26.3310  -30.6910   21.4920 C   0  0  0  0  0  2  0  0  0  0  0  0
  -26.5870  -29.3520   20.8220 C   0  0  0  0  0  0  0  0  0  0  0  0
  -27.8340  -28.6820   20.9220 C   0  0  0  0  0  3  0  0  0  0  0  0
  -26.9780  -26.9150   19.4860 C   0  0  0  0  0  3  0  0  0  0  0  0
  -25.7360  -27.5650   19.4040 C   0  0  0  0  0  3  0  0  0  0  0  0
  -24.2630  -29.5720   19.9680 C   0  0  0  0  0  2  0  0  0  0  0  0
  -24.9560  -30.8680   22.0270 N   0  0  0  0  0  0  0  0  0  0  0  0
  -23.5240  -31.8640   23.4790 O   0  0  0  0  0  0  0  0  0  0  0  0
  -23.1020  -29.1340   22.1570 C   0  0  0  0  0  0  0  0  0  0  0  0
  -21.7730  -29.0330   21.9940 N   0  0  0  0  0  0  0  0  0  0  0  0
  -23.7360  -28.4040   22.9250 O   0  0  0  0  0  0  0  0  0  0  0  0
  -21.3280  -29.6780   21.3580 H   0  0  0  0  0  0  0  0  0  0  0  0
  -18.3130  -28.1460   22.5740 C   0  0  0  0  0  0  0  0  0  0  0  0
  -20.8960  -28.0700   22.6600 C   0  0  0  0  0  3  0  0  0  0  0  0
  -20.7820  -26.7610   21.8450 C   0  0  0  0  0  2  0  0  0  0  0  0
  -19.5820  -26.7430   20.8920 C   0  0  0  0  0  2  0  0  0  0  0  0
  -18.2750  -26.9260   21.6690 C   0  0  0  0  0  2  0  0  0  0  0  0
  -19.5430  -28.6920   23.0260 C   0  0  0  0  0  0  0  0  0  0  0  0
  -19.5220  -29.8480   23.8360 C   0  0  0  0  0  3  0  0  0  0  0  0
  -18.3030  -30.4530   24.1970 C   0  0  0  0  0  3  0  0  0  0  0  0
  -17.0870  -29.8970   23.7600 C   0  0  0  0  0  3  0  0  0  0  0  0
  -17.0950  -28.7440   22.9560 C   0  0  0  0  0  3  0  0  0  0  0  0
  -25.8260  -32.3680   23.9030 C   0  0  0  0  0  3  0  0  0  0  0  0
  -25.3850  -33.7410   24.1880 N   0  0  0  0  0  0  0  0  0  0  0  0
  -25.7140  -34.8150   23.4560 C   0  0  0  0  0  0  0  0  0  0  0  0
  -26.4920  -34.7580   22.5000 O   0  0  0  0  0  0  0  0  0  0  0  0
  -24.7080  -33.8530   24.9270 H   0  0  0  0  0  0  0  0  0  0  0  0
  -23.8760  -36.4550   22.9350 C   0  0  0  0  0  1  0  0  0  0  0  0
  -25.0800  -36.1660   23.8460 C   0  0  0  0  0  3  0  0  0  0  0  0
  -27.0490  -37.2520   24.8350 C   0  0  0  0  0  1  0  0  0  0  0  0
  -26.0270  -37.3020   23.7920 N   0  0  0  0  0  0  0  0  0  0  0  0
  -25.5340  -38.1860   23.8760 H   0  0  0  0  0  0  0  0  0  0  0  0
  -26.2020  -31.6200   25.2420 C   0  0  1  0  0  0  0  0  0  0  0  0
  -24.9850  -31.3010   26.1420 C   0  0  0  0  0  1  0  0  0  0  0  0
  -26.9260  -30.2880   24.9400 C   0  0  0  0  0  1  0  0  0  0  0  0
  -27.1920  -32.4780   26.0670 C   0  0  0  0  0  1  0  0  0  0  0  0
  3  2  1  0
  4  5  1  0
  5  1  1  0
  5  2  2  0
  6 14  1  0
  6  3  2  0
  7  4  2  0
  7  6  1  0
  8  7  1  0
  9 45  1  0
 10 13  1  0
 12 10  2  0
 14 12  1  0
 15 24  1  0
 16 21  1  0
 17 18  1  0
 17 16  1  0
 19 18  1  0
 19 28  1  0
 19 20  1  0
 21 20  1  0
 21 15  1  0
 22 15  2  0
 24 13  1  0
 24 23  1  0
 25 50  1  0
 25 28  1  0
 25 26  1  0
 26  9  1  0
 27 26  1  0
 27 30  1  0
 28 29  1  0
 29 27  1  0
 30 31  1  0
 31 32  2  0
 33 36  1  0
 33 32  1  0
 34 33  2  0
 35 34  1  0
 35 30  2  0
 36 37  1  0
 37 42  1  0
 38 37  2  0
 38 39  1  0
 39 40  2  0
 40 41  1  0
 40 44  1  0
 42 43  1  0
 42 41  2  0
 45 47  1  0
 45 46  1  0
 46 49  1  0
 46 48  1  0
 51 50  1  0
 52 50  1  0
 53 55  1  0
 53 54  1  0
 54 56  1  0
 55 57  1  0
 56 60  1  0
 57  1  1  0
 57 56  1  0
 57 58  1  6
 60 61  1  0
 60 59  1  0
 61 62  1  0
 63 62  1  0
 64 75  2  0
 65 63  1  0
 65 70  1  0
 66 74  1  0
 66 76  1  0
 67 69  1  0
 68 74  1  0
 69 70  2  0
 69 68  1  0
 71 65  2  0
 72 71  1  0
 72 67  2  0
 73 67  1  0
 73 66  1  0
 74 64  1  0
 76 78  2  0
 77 76  1  0
 79 77  1  0
 80 89  2  0
 80 85  1  0
 81 77  1  0
 81 85  1  0
 82 81  1  0
 83 84  1  0
 83 82  1  0
 84 80  1  0
 85 86  2  0
 86 87  1  0
 88 87  2  0
 89 88  1  0
 90 64  1  0
 90 91  1  0
 90100  1  0
 91 94  1  0
 92 96  1  0
 92 91  1  0
 93 92  2  0
 96 95  1  0
 98 96  1  0
 98 99  1  0
 98 97  1  0
100103  1  1
100101  1  0
102100  1  0
M  ISO  4  15 100  24 100  62 101  63 101
M  END
>  <TORSDO>  (22) 
F 22

>  <SCORE>  (22) 
15.563

>  <name>  (22) 
22

>  <ligand_id>  (22) 
22

>  <original_smiles>  (22) 
[H]c1c([H])c([H])c2c(c1[H])C([H])([H])C([H])([H])C([H])([H])C2([H])N([H])C(=O)C1([H])N(C(=O)C([H])(N([H])C(=O)C([H])(N([H])C([H])([H])[H])C([H])([H])[H])C(C([H])([H])[H])(C([H])([H])[H])C([H])([H])[H])C([H])([H])c2c([H])c(OC([H])([H])C([H])([H])N(C([H])([H])[H])C3([H])C([H])([H])C([H])([H])C([H])([H])[N+]3([H])C([H])([H])c3c([H])c([H])c(N4C([H])([H])C([H])([H])C([H])(N(C(=O)N5C([H])([H])C([H])([H])C([H])([H])C([H])(n6nc(-c7c([H])c([H])c(Oc8c([H])c([H])c(F)c([H])c8F)c([H])c7[H])c(C(=O)N([H])[H])c6N([H])[H])C5([H])[H])C([H])([H])[H])C([H])([H])C4([H])[H])c(F)c3[H])c([H])c([H])c2C1([H])[H]

>  <smiles>  (22) 
[H]c1c([H])c([H])c2c(c1[H])C([H])([H])C([H])([H])C([H])([H])C2([H])N([H])C(=O)C1([H])N(C(=O)C([H])(N([H])C(=O)C([H])(N([H])C([H])([H])[H])C([H])([H])[H])C(C([H])([H])[H])(C([H])([H])[H])C([H])([H])[H])C([H])([H])c2c([H])c(OC([H])([H])C([H])([H])N(C([H])([H])[H])C3([H])C([H])([H])C([H])([H])C([H])([H])[N+]3([H])C([H])([H])c3c([H])c([H])c(N4C([H])([H])C([H])([H])C([H])(N(C(=O)N5C([H])([H])C([H])([H])C([H])([H])C([H])(n6nc(-c7c([H])c([H])c(Oc8c([H])c([H])c(F)c([H])c8F)c([H])c7[H])c(C(=O)N([H])[H])c6N([H])[H])C5([H])[H])C([H])([H])[H])C([H])([H])C4([H])[H])c(F)c3[H])c([H])c([H])c2C1([H])[H]

$$$$
23:0:0
     RDKit          3D

 91100  0  0  1  0  0  0  0  0999 V2000
  -29.2050  -24.4170   21.7210 C   0  0  0  0  0  2  0  0  0  0  0  0
  -29.2820  -22.8660   21.9110 C   0  0  0  0  0  2  0  0  0  0  0  0
  -28.3910  -23.3450   19.7840 C   0  0  0  0  0  2  0  0  0  0  0  0
  -28.1520  -24.7430   20.6430 C   0  0  0  0  0  3  0  0  0  0  0  0
  -29.0020  -22.2120   20.6290 N   0  0  0  0  0  0  0  0  0  0  0  0
  -30.2590  -19.9940   21.1420 C   0  0  0  0  0  3  0  0  0  0  0  0
  -30.4600  -18.5490   21.0980 C   0  0  0  0  0  3  0  0  0  0  0  0
  -28.3690  -19.8120   19.7630 C   0  0  0  0  0  3  0  0  0  0  0  0
  -29.2010  -20.7310   20.4880 C   0  0  0  0  0  0  0  0  0  0  0  0
  -29.5960  -17.6370   20.4060 C   0  0  0  0  0  0  0  0  0  0  0  0
  -28.5380  -18.3620   19.7470 C   0  0  0  0  0  0  0  0  0  0  0  0
  -27.6120  -17.6270   19.0850 F   0  0  0  0  0  0  0  0  0  0  0  0
  -30.4690  -14.9960   20.3510 C   0  0  0  0  0  0  0  0  0  0  0  0
  -30.4100  -12.6450   19.3920 C   0  0  0  0  0  2  0  0  0  0  0  0
  -29.4690  -12.5940   18.1640 C   0  0  0  0  0  2  0  0  0  0  0  0
  -28.0060  -12.3710   18.5980 C   0  0  0  0  0  2  0  0  0  0  0  0
  -27.5930  -13.2920   19.7760 C   0  0  0  0  0  3  0  0  0  0  0  0
  -28.6470  -13.2890   20.9030 C   0  0  0  0  0  2  0  0  0  0  0  0
  -29.9180  -13.7170   20.3000 N   0  0  0  0  0  0  0  0  0  0  0  0
  -31.6730  -15.1150   20.0920 O   0  0  0  0  0  0  0  0  0  0  0  0
  -29.5860  -16.1010   20.4670 N   0  0  0  0  0  0  0  0  0  0  0  0
  -28.6400  -15.7530   20.4890 H   0  0  0  0  0  0  0  0  0  0  0  0
  -25.2090  -13.8650   20.5130 C   0  0  0  0  0  0  0  0  0  0  0  0
  -24.1460  -13.0850   20.8780 C   0  0  0  0  0  0  0  0  0  0  0  0
  -24.6150  -11.7350   20.8430 C   0  0  0  0  0  0  0  0  0  0  0  0
  -26.2540  -12.9900   20.2690 N   0  0  0  0  0  0  0  0  0  0  0  0
  -25.9060  -11.7050   20.5350 N   0  0  0  0  0  0  0  0  0  0  0  0
  -23.8920  -10.4700   21.0270 C   0  0  0  0  0  0  0  0  0  0  0  0
  -24.3130   -9.5080   21.9710 C   0  0  0  0  0  3  0  0  0  0  0  0
  -23.5890   -8.3090   22.1420 C   0  0  0  0  0  3  0  0  0  0  0  0
  -22.4300   -8.0620   21.3690 C   0  0  0  0  0  0  0  0  0  0  0  0
  -22.0290   -9.0130   20.4130 C   0  0  0  0  0  3  0  0  0  0  0  0
  -22.7530  -10.2030   20.2400 C   0  0  0  0  0  3  0  0  0  0  0  0
  -21.6790   -6.9150   21.4480 O   0  0  0  0  0  0  0  0  0  0  0  0
  -21.6000   -6.1860   22.6080 C   0  0  0  0  0  0  0  0  0  0  0  0
  -21.1170   -6.7480   23.8110 C   0  0  0  0  0  3  0  0  0  0  0  0
  -20.9880   -5.9440   24.9600 C   0  0  0  0  0  3  0  0  0  0  0  0
  -21.3290   -4.5800   24.9090 C   0  0  0  0  0  0  0  0  0  0  0  0
  -21.8050   -4.0170   23.7110 C   0  0  0  0  0  3  0  0  0  0  0  0
  -21.9360   -4.8180   22.5630 C   0  0  0  0  0  0  0  0  0  0  0  0
  -22.3740   -4.2660   21.4060 F   0  0  0  0  0  0  0  0  0  0  0  0
  -21.1980   -3.8060   26.0110 F   0  0  0  0  0  0  0  0  0  0  0  0
  -22.7460  -13.5560   21.1450 C   0  0  0  0  0  0  0  0  0  0  0  0
  -22.0150  -12.8540   22.0020 N   0  0  0  0  0  0  0  0  0  0  0  0
  -22.3080  -14.5840   20.6290 O   0  0  0  0  0  0  0  0  0  0  0  0
  -22.3810  -12.0210   22.4410 H   0  0  0  0  0  0  0  0  0  0  0  0
  -21.0750  -13.1510   22.2240 H   0  0  0  0  0  0  0  0  0  0  0  0
  -25.3640  -15.2380   20.3410 N   0  0  0  0  0  0  0  0  0  0  0  0
  -24.5860  -15.8770   20.4650 H   0  0  0  0  0  0  0  0  0  0  0  0
  -26.1810  -15.6920   19.9530 H   0  0  0  0  0  0  0  0  0  0  0  0
  -28.2810  -26.2390   20.2200 O   0  0  0  0  0  0  0  0  0  0  0  0
  -24.6120  -31.8920   23.2410 C   0  0  0  0  0  0  0  0  0  0  0  0
  -27.1940  -27.1820   20.2270 C   0  0  0  0  0  0  0  0  0  0  0  0
  -23.4100  -30.4920   21.6040 C   0  0  0  0  0  3  0  0  0  0  0  0
  -24.8560  -28.9070   20.1890 C   0  0  0  0  0  0  0  0  0  0  0  0
  -25.9600  -30.7650   21.4290 C   0  0  0  0  0  2  0  0  0  0  0  0
  -26.0360  -29.3680   20.7870 C   0  0  0  0  0  0  0  0  0  0  0  0
  -27.2090  -28.5240   20.7820 C   0  0  0  0  0  3  0  0  0  0  0  0
  -25.9860  -26.8080   19.6040 C   0  0  0  0  0  3  0  0  0  0  0  0
  -24.8430  -27.6410   19.5820 C   0  0  0  0  0  3  0  0  0  0  0  0
  -23.6290  -29.8040   20.2290 C   0  0  0  0  0  2  0  0  0  0  0  0
  -24.6820  -31.0710   22.1480 N   0  0  0  0  0  0  0  0  0  0  0  0
  -23.5260  -32.1740   23.7700 O   0  0  0  0  0  0  0  0  0  0  0  0
  -22.7320  -29.4890   22.5720 C   0  0  0  0  0  0  0  0  0  0  0  0
  -21.4050  -29.3160   22.4440 N   0  0  0  0  0  0  0  0  0  0  0  0
  -23.4040  -28.8670   23.3990 O   0  0  0  0  0  0  0  0  0  0  0  0
  -20.9180  -29.8710   21.7540 H   0  0  0  0  0  0  0  0  0  0  0  0
  -18.0250  -28.1110   22.9460 C   0  0  0  0  0  0  0  0  0  0  0  0
  -20.5820  -28.3800   23.2170 C   0  0  0  0  0  3  0  0  0  0  0  0
  -20.6880  -26.9450   22.6490 C   0  0  0  0  0  2  0  0  0  0  0  0
  -19.5880  -26.6170   21.6340 C   0  0  0  0  0  2  0  0  0  0  0  0
  -18.2060  -26.7620   22.2740 C   0  0  0  0  0  2  0  0  0  0  0  0
  -19.1410  -28.8780   23.3750 C   0  0  0  0  0  0  0  0  0  0  0  0
  -18.9170  -30.1420   23.9650 C   0  0  0  0  0  3  0  0  0  0  0  0
  -17.6100  -30.6380   24.1290 C   0  0  0  0  0  3  0  0  0  0  0  0
  -16.5090  -29.8690   23.7150 C   0  0  0  0  0  3  0  0  0  0  0  0
  -16.7170  -28.6080   23.1300 C   0  0  0  0  0  3  0  0  0  0  0  0
  -25.8910  -32.5290   23.8660 C   0  0  0  0  0  3  0  0  0  0  0  0
  -25.5810  -33.9290   24.1950 N   0  0  0  0  0  0  0  0  0  0  0  0
  -25.9110  -34.9840   23.4370 C   0  0  0  0  0  0  0  0  0  0  0  0
  -26.5750  -34.8790   22.4020 O   0  0  0  0  0  0  0  0  0  0  0  0
  -24.9910  -34.0840   25.0000 H   0  0  0  0  0  0  0  0  0  0  0  0
  -24.1820  -36.7800   23.0960 C   0  0  0  0  0  1  0  0  0  0  0  0
  -25.4290  -36.3740   23.8980 C   0  0  0  0  0  3  0  0  0  0  0  0
  -27.5700  -37.2570   24.7130 C   0  0  0  0  0  1  0  0  0  0  0  0
  -26.4620  -37.4260   23.7780 N   0  0  0  0  0  0  0  0  0  0  0  0
  -26.0570  -38.3460   23.9310 H   0  0  0  0  0  0  0  0  0  0  0  0
  -26.3990  -31.7640   25.1500 C   0  0  1  0  0  0  0  0  0  0  0  0
  -25.3020  -31.5380   26.2170 C   0  0  0  0  0  1  0  0  0  0  0  0
  -26.9790  -30.3820   24.7710 C   0  0  0  0  0  1  0  0  0  0  0  0
  -27.5500  -32.5580   25.8120 C   0  0  0  0  0  1  0  0  0  0  0  0
  1  2  1  0
  3  5  1  0
  3  4  1  0
  4 51  1  0
  4  1  1  0
  5  2  1  0
  7  6  1  0
  8  9  1  0
  9  5  1  0
  9  6  2  0
 10 21  1  0
 10  7  2  0
 11  8  2  0
 11 10  1  0
 12 11  1  0
 13 21  1  0
 14 19  1  0
 15 16  1  0
 15 14  1  0
 17 16  1  0
 17 26  1  0
 17 18  1  0
 19 13  1  0
 19 18  1  0
 20 13  2  0
 21 22  1  0
 23 24  2  0
 24 43  1  0
 25 24  1  0
 25 28  1  0
 26 23  1  0
 26 27  1  0
 27 25  2  0
 28 29  1  0
 29 30  2  0
 31 34  1  0
 31 30  1  0
 32 31  2  0
 33 32  1  0
 33 28  2  0
 34 35  1  0
 35 36  1  0
 36 37  2  0
 38 37  1  0
 38 42  1  0
 39 38  2  0
 40 35  2  0
 40 39  1  0
 41 40  1  0
 43 44  1  0
 44 47  1  0
 44 46  1  0
 45 43  2  0
 48 49  1  0
 48 23  1  0
 50 48  1  0
 51 53  1  0
 52 63  2  0
 53 58  1  0
 54 62  1  0
 54 64  1  0
 55 61  1  0
 55 57  1  0
 56 62  1  0
 57 56  1  0
 58 57  2  0
 59 53  2  0
 60 59  1  0
 60 55  2  0
 61 54  1  0
 62 52  1  0
 64 66  2  0
 65 64  1  0
 67 65  1  0
 68 77  2  0
 68 73  1  0
 69 65  1  0
 69 73  1  0
 70 69  1  0
 71 72  1  0
 71 70  1  0
 72 68  1  0
 73 74  2  0
 74 75  1  0
 76 75  2  0
 77 76  1  0
 78 52  1  0
 78 79  1  0
 78 88  1  0
 79 82  1  0
 80 84  1  0
 80 79  1  0
 81 80  2  0
 84 83  1  0
 86 84  1  0
 86 87  1  0
 86 85  1  0
 88 91  1  1
 88 89  1  0
 90 88  1  0
M  ISO  4   4 101  13 100  21 100  51 101
M  END
>  <TORSDO>  (23) 
F 17

>  <SCORE>  (23) 
-15.443

>  <name>  (23) 
23

>  <ligand_id>  (23) 
23

>  <original_smiles>  (23) 
[H]c1c([H])c([H])c2c(c1[H])C([H])([H])C([H])([H])C([H])([H])C2([H])N([H])C(=O)C1([H])N(C(=O)C([H])(N([H])C(=O)C([H])(N([H])C([H])([H])[H])C([H])([H])[H])C(C([H])([H])[H])(C([H])([H])[H])C([H])([H])[H])C([H])([H])c2c([H])c(OC3([H])C([H])([H])N(c4c([H])c([H])c(N([H])C(=O)N5C([H])([H])C([H])([H])C([H])([H])C([H])(n6nc(-c7c([H])c([H])c(Oc8c([H])c([H])c(F)c([H])c8F)c([H])c7[H])c(C(=O)N([H])[H])c6N([H])[H])C5([H])[H])c(F)c4[H])C([H])([H])C3([H])[H])c([H])c([H])c2C1([H])[H]

>  <smiles>  (23) 
[H]c1c([H])c([H])c2c(c1[H])C([H])([H])C([H])([H])C([H])([H])C2([H])N([H])C(=O)C1([H])N(C(=O)C([H])(N([H])C(=O)C([H])(N([H])C([H])([H])[H])C([H])([H])[H])C(C([H])([H])[H])(C([H])([H])[H])C([H])([H])[H])C([H])([H])c2c([H])c(OC3([H])C([H])([H])N(c4c([H])c([H])c(N([H])C(=O)N5C([H])([H])C([H])([H])C([H])([H])C([H])(n6nc(-c7c([H])c([H])c(Oc8c([H])c([H])c(F)c([H])c8F)c([H])c7[H])c(C(=O)N([H])[H])c6N([H])[H])C5([H])[H])c(F)c4[H])C([H])([H])C3([H])[H])c([H])c([H])c2C1([H])[H]

$$$$
24:0:0
     RDKit          3D

 89 97  0  0  1  0  0  0  0  0999 V2000
  -30.0090  -18.7360   21.4030 C   0  0  0  0  0  3  0  0  0  0  0  0
  -29.6900  -20.1420   21.1870 C   0  0  0  0  0  3  0  0  0  0  0  0
  -29.0030  -19.5870   19.0090 C   0  0  0  0  0  3  0  0  0  0  0  0
  -29.8580  -17.6600   20.4440 C   0  0  0  0  0  0  0  0  0  0  0  0
  -29.1450  -20.6590   19.9670 C   0  0  0  0  0  0  0  0  0  0  0  0
  -29.3390  -18.1810   19.2140 C   0  0  0  0  0  0  0  0  0  0  0  0
  -29.1000  -17.3060   18.2050 F   0  0  0  0  0  0  0  0  0  0  0  0
  -30.6390  -15.0730   20.0730 C   0  0  0  0  0  0  0  0  0  0  0  0
  -30.4150  -12.7690   19.0230 C   0  0  0  0  0  2  0  0  0  0  0  0
  -29.4300  -12.7720   17.8330 C   0  0  0  0  0  2  0  0  0  0  0  0
  -27.9900  -12.5490   18.3240 C   0  0  0  0  0  2  0  0  0  0  0  0
  -27.6430  -13.4560   19.5310 C   0  0  0  0  0  3  0  0  0  0  0  0
  -28.7350  -13.4180   20.6180 C   0  0  0  0  0  2  0  0  0  0  0  0
  -30.0030  -13.8300   19.9900 N   0  0  0  0  0  0  0  0  0  0  0  0
  -31.7520  -15.1680   19.5400 O   0  0  0  0  0  0  0  0  0  0  0  0
  -30.2670  -15.9440   22.2370 C   0  0  0  0  0  1  0  0  0  0  0  0
  -30.0850  -16.1690   20.7930 N   0  0  0  0  0  0  0  0  0  0  0  0
  -25.3020  -14.0400   20.3880 C   0  0  0  0  0  0  0  0  0  0  0  0
  -24.2530  -13.2630   20.7950 C   0  0  0  0  0  0  0  0  0  0  0  0
  -24.7080  -11.9100   20.7210 C   0  0  0  0  0  0  0  0  0  0  0  0
  -26.3260  -13.1590   20.0810 N   0  0  0  0  0  0  0  0  0  0  0  0
  -25.9820  -11.8730   20.3500 N   0  0  0  0  0  0  0  0  0  0  0  0
  -23.9860  -10.6470   20.9230 C   0  0  0  0  0  0  0  0  0  0  0  0
  -24.4170   -9.6900   21.8660 C   0  0  0  0  0  3  0  0  0  0  0  0
  -23.6920   -8.4930   22.0560 C   0  0  0  0  0  3  0  0  0  0  0  0
  -22.5210   -8.2460   21.3010 C   0  0  0  0  0  0  0  0  0  0  0  0
  -22.1080   -9.1920   20.3460 C   0  0  0  0  0  3  0  0  0  0  0  0
  -22.8340  -10.3810   20.1560 C   0  0  0  0  0  3  0  0  0  0  0  0
  -21.7660   -7.1010   21.3990 O   0  0  0  0  0  0  0  0  0  0  0  0
  -21.6640   -6.4060   22.5760 C   0  0  0  0  0  0  0  0  0  0  0  0
  -21.1640   -7.0010   23.7540 C   0  0  0  0  0  3  0  0  0  0  0  0
  -21.0110   -6.2300   24.9240 C   0  0  0  0  0  3  0  0  0  0  0  0
  -21.3480   -4.8630   24.9150 C   0  0  0  0  0  0  0  0  0  0  0  0
  -21.8420   -4.2670   23.7410 C   0  0  0  0  0  3  0  0  0  0  0  0
  -21.9970   -5.0360   22.5750 C   0  0  0  0  0  0  0  0  0  0  0  0
  -22.4520   -4.4500   21.4410 F   0  0  0  0  0  0  0  0  0  0  0  0
  -21.1950   -4.1190   26.0350 F   0  0  0  0  0  0  0  0  0  0  0  0
  -22.8720  -13.7430   21.1360 C   0  0  0  0  0  0  0  0  0  0  0  0
  -22.1790  -13.0360   22.0210 N   0  0  0  0  0  0  0  0  0  0  0  0
  -22.4180  -14.7770   20.6510 O   0  0  0  0  0  0  0  0  0  0  0  0
  -22.5610  -12.1990   22.4360 H   0  0  0  0  0  0  0  0  0  0  0  0
  -21.2520  -13.3350   22.2880 H   0  0  0  0  0  0  0  0  0  0  0  0
  -25.4610  -15.4120   20.2310 N   0  0  0  0  0  0  0  0  0  0  0  0
  -24.7040  -16.0620   20.4170 H   0  0  0  0  0  0  0  0  0  0  0  0
  -26.2940  -15.8640   19.8740 H   0  0  0  0  0  0  0  0  0  0  0  0
  -28.6940  -22.0230   19.6510 O   0  0  0  0  0  0  0  0  0  0  0  0
  -28.9120  -23.3910   20.3360 C   0  0  0  0  0  3  0  0  0  0  0  0
  -28.0140  -24.7710   19.9470 C   0  0  0  0  0  3  0  0  0  0  0  0
  -28.2590  -26.2700   20.3170 O   0  0  0  0  0  0  0  0  0  0  0  0
  -24.6200  -31.9600   23.3200 C   0  0  0  0  0  0  0  0  0  0  0  0
  -27.2100  -27.2610   20.2520 C   0  0  0  0  0  0  0  0  0  0  0  0
  -23.4280  -30.5630   21.6810 C   0  0  0  0  0  3  0  0  0  0  0  0
  -24.8790  -29.0080   20.2400 C   0  0  0  0  0  0  0  0  0  0  0  0
  -25.9810  -30.8330   21.5180 C   0  0  0  0  0  2  0  0  0  0  0  0
  -26.0560  -29.4440   20.8600 C   0  0  0  0  0  0  0  0  0  0  0  0
  -27.2200  -28.5840   20.8550 C   0  0  0  0  0  3  0  0  0  0  0  0
  -26.0100  -26.9370   19.5830 C   0  0  0  0  0  3  0  0  0  0  0  0
  -24.8690  -27.7690   19.5870 C   0  0  0  0  0  3  0  0  0  0  0  0
  -23.6480  -29.9010   20.2970 C   0  0  0  0  0  2  0  0  0  0  0  0
  -24.6960  -31.1400   22.2280 N   0  0  0  0  0  0  0  0  0  0  0  0
  -23.5330  -32.2400   23.8480 O   0  0  0  0  0  0  0  0  0  0  0  0
  -22.7560  -29.5460   22.6360 C   0  0  0  0  0  0  0  0  0  0  0  0
  -21.4330  -29.3530   22.4960 N   0  0  0  0  0  0  0  0  0  0  0  0
  -23.4290  -28.9340   23.4690 O   0  0  0  0  0  0  0  0  0  0  0  0
  -20.9450  -29.9030   21.8020 H   0  0  0  0  0  0  0  0  0  0  0  0
  -18.0670  -28.0970   22.9630 C   0  0  0  0  0  0  0  0  0  0  0  0
  -20.6180  -28.4080   23.2640 C   0  0  0  0  0  3  0  0  0  0  0  0
  -20.7530  -26.9720   22.7060 C   0  0  0  0  0  2  0  0  0  0  0  0
  -19.6700  -26.6200   21.6810 C   0  0  0  0  0  2  0  0  0  0  0  0
  -18.2770  -26.7460   22.3010 C   0  0  0  0  0  2  0  0  0  0  0  0
  -19.1660  -28.8830   23.4020 C   0  0  0  0  0  0  0  0  0  0  0  0
  -18.9130  -30.1470   23.9770 C   0  0  0  0  0  3  0  0  0  0  0  0
  -17.5960  -30.6220   24.1250 C   0  0  0  0  0  3  0  0  0  0  0  0
  -16.5130  -29.8330   23.7020 C   0  0  0  0  0  3  0  0  0  0  0  0
  -16.7500  -28.5730   23.1250 C   0  0  0  0  0  3  0  0  0  0  0  0
  -25.8940  -32.6020   23.9480 C   0  0  0  0  0  3  0  0  0  0  0  0
  -26.3970  -31.8440   25.2400 C   0  0  1  0  0  0  0  0  0  0  0  0
  -25.2900  -31.6120   26.2960 C   0  0  0  0  0  1  0  0  0  0  0  0
  -26.9920  -30.4650   24.8740 C   0  0  0  0  0  1  0  0  0  0  0  0
  -27.5360  -32.6520   25.9040 C   0  0  0  0  0  1  0  0  0  0  0  0
  -25.5810  -34.0030   24.2640 N   0  0  0  0  0  0  0  0  0  0  0  0
  -25.8950  -35.0500   23.4890 C   0  0  0  0  0  0  0  0  0  0  0  0
  -26.5460  -34.9390   22.4480 O   0  0  0  0  0  0  0  0  0  0  0  0
  -24.9970  -34.1650   25.0720 H   0  0  0  0  0  0  0  0  0  0  0  0
  -24.1390  -36.8250   23.1650 C   0  0  0  0  0  1  0  0  0  0  0  0
  -25.4100  -36.4430   23.9390 C   0  0  0  0  0  3  0  0  0  0  0  0
  -27.5640  -37.3600   24.6850 C   0  0  0  0  0  1  0  0  0  0  0  0
  -26.4290  -37.5030   23.7750 N   0  0  0  0  0  0  0  0  0  0  0  0
  -26.0190  -38.4210   23.9250 H   0  0  0  0  0  0  0  0  0  0  0  0
  2  1  1  0
  3  6  2  0
  3  5  1  0
  4 17  1  0
  4  1  2  0
  5  2  2  0
  6  4  1  0
  7  6  1  0
  8 17  1  0
  9 14  1  0
 10 11  1  0
 10  9  1  0
 12 11  1  0
 12 21  1  0
 12 13  1  0
 14  8  1  0
 14 13  1  0
 15  8  2  0
 17 16  1  0
 18 19  2  0
 19 38  1  0
 20 19  1  0
 20 23  1  0
 21 22  1  0
 21 18  1  0
 22 20  2  0
 23 24  1  0
 24 25  2  0
 26 29  1  0
 26 25  1  0
 27 26  2  0
 28 27  1  0
 28 23  2  0
 29 30  1  0
 30 31  1  0
 31 32  2  0
 33 32  1  0
 33 37  1  0
 34 33  2  0
 35 30  2  0
 35 34  1  0
 36 35  1  0
 38 39  1  0
 39 42  1  0
 39 41  1  0
 40 38  2  0
 43 18  1  0
 43 44  1  0
 45 43  1  0
 46  5  1  0
 46 47  1  0
 48 49  1  0
 48 47  2  0
 50 61  2  0
 51 49  1  0
 51 56  1  0
 52 60  1  0
 52 62  1  0
 53 59  1  0
 53 55  1  0
 54 60  1  0
 55 54  1  0
 56 55  2  0
 57 58  1  0
 57 51  2  0
 58 53  2  0
 59 52  1  0
 60 50  1  0
 62 64  2  0
 63 62  1  0
 65 63  1  0
 66 75  2  0
 66 71  1  0
 67 63  1  0
 67 71  1  0
 68 67  1  0
 69 70  1  0
 69 68  1  0
 70 66  1  0
 71 72  2  0
 72 73  1  0
 74 73  2  0
 75 74  1  0
 76 50  1  0
 76 81  1  0
 76 77  1  0
 77 80  1  1
 77 78  1  0
 79 77  1  0
 81 84  1  0
 82 86  1  0
 82 81  1  0
 83 82  2  0
 86 85  1  0
 88 89  1  0
 88 86  1  0
 88 87  1  0
M  ISO  4   8 100  17 100  48 101  49 101
M  END
>  <TORSDO>  (24) 
F 19

>  <SCORE>  (24) 
-13.571

>  <name>  (24) 
24

>  <ligand_id>  (24) 
24

>  <original_smiles>  (24) 
[H]c1c([H])c([H])c2c(c1[H])C([H])([H])C([H])([H])C([H])([H])C2([H])N([H])C(=O)C1([H])N(C(=O)C([H])(N([H])C(=O)C([H])(N([H])C([H])([H])[H])C([H])([H])[H])C(C([H])([H])[H])(C([H])([H])[H])C([H])([H])[H])C([H])([H])c2c([H])c(OC([H])([H])C([H])([H])Oc3c([H])c([H])c(N(C(=O)N4C([H])([H])C([H])([H])C([H])([H])C([H])(n5nc(-c6c([H])c([H])c(Oc7c([H])c([H])c(F)c([H])c7F)c([H])c6[H])c(C(=O)N([H])[H])c5N([H])[H])C4([H])[H])C([H])([H])[H])c(F)c3[H])c([H])c([H])c2C1([H])[H]

>  <smiles>  (24) 
[H]c1c([H])c([H])c2c(c1[H])C([H])([H])C([H])([H])C([H])([H])C2([H])N([H])C(=O)C1([H])N(C(=O)C([H])(N([H])C(=O)C([H])(N([H])C([H])([H])[H])C([H])([H])[H])C(C([H])([H])[H])(C([H])([H])[H])C([H])([H])[H])C([H])([H])c2c([H])c(OC([H])([H])C([H])([H])Oc3c([H])c([H])c(N(C(=O)N4C([H])([H])C([H])([H])C([H])([H])C([H])(n5nc(-c6c([H])c([H])c(Oc7c([H])c([H])c(F)c([H])c7F)c([H])c6[H])c(C(=O)N([H])[H])c5N([H])[H])C4([H])[H])C([H])([H])[H])c(F)c3[H])c([H])c([H])c2C1([H])[H]

$$$$
25:0:0
     RDKit          3D

 89 97  0  0  1  0  0  0  0  0999 V2000
  -30.6180  -18.5840   20.2340 C   0  0  0  0  0  3  0  0  0  0  0  0
  -30.3220  -20.0210   20.1180 C   0  0  0  0  0  3  0  0  0  0  0  0
  -28.3230  -18.1100   19.9970 C   0  0  0  0  0  3  0  0  0  0  0  0
  -29.6220  -17.5390   20.1790 C   0  0  0  0  0  0  0  0  0  0  0  0
  -28.9990  -20.5680   19.9200 C   0  0  0  0  0  0  0  0  0  0  0  0
  -28.0300  -19.5160   19.8660 C   0  0  0  0  0  0  0  0  0  0  0  0
  -26.7350  -19.8670   19.6790 F   0  0  0  0  0  0  0  0  0  0  0  0
  -30.5800  -14.9230   20.0660 C   0  0  0  0  0  0  0  0  0  0  0  0
  -30.4510  -12.5660   19.1460 C   0  0  0  0  0  2  0  0  0  0  0  0
  -29.4680  -12.5400   17.9490 C   0  0  0  0  0  2  0  0  0  0  0  0
  -28.0140  -12.3550   18.4280 C   0  0  0  0  0  2  0  0  0  0  0  0
  -27.6620  -13.2860   19.6170 C   0  0  0  0  0  3  0  0  0  0  0  0
  -28.7540  -13.2570   20.7090 C   0  0  0  0  0  2  0  0  0  0  0  0
  -30.0190  -13.6500   20.0680 N   0  0  0  0  0  0  0  0  0  0  0  0
  -31.7560  -15.0460   19.7010 O   0  0  0  0  0  0  0  0  0  0  0  0
  -29.7160  -16.0150   20.3160 N   0  0  0  0  0  0  0  0  0  0  0  0
  -28.8300  -15.6250   20.5980 H   0  0  0  0  0  0  0  0  0  0  0  0
  -25.3230  -13.9140   20.4530 C   0  0  0  0  0  0  0  0  0  0  0  0
  -24.2550  -13.1600   20.8530 C   0  0  0  0  0  0  0  0  0  0  0  0
  -24.6820  -11.7990   20.7750 C   0  0  0  0  0  0  0  0  0  0  0  0
  -26.3340  -13.0150   20.1560 N   0  0  0  0  0  0  0  0  0  0  0  0
  -25.9580  -11.7360   20.4130 N   0  0  0  0  0  0  0  0  0  0  0  0
  -23.9310  -10.5510   20.9660 C   0  0  0  0  0  0  0  0  0  0  0  0
  -24.3600   -9.5610   21.8760 C   0  0  0  0  0  3  0  0  0  0  0  0
  -23.6090   -8.3800   22.0560 C   0  0  0  0  0  3  0  0  0  0  0  0
  -22.4150   -8.1800   21.3260 C   0  0  0  0  0  0  0  0  0  0  0  0
  -22.0020   -9.1580   20.4040 C   0  0  0  0  0  3  0  0  0  0  0  0
  -22.7540  -10.3310   20.2210 C   0  0  0  0  0  3  0  0  0  0  0  0
  -21.6350   -7.0520   21.4170 O   0  0  0  0  0  0  0  0  0  0  0  0
  -21.5790   -6.3060   22.5670 C   0  0  0  0  0  0  0  0  0  0  0  0
  -21.1440   -6.8560   23.7920 C   0  0  0  0  0  3  0  0  0  0  0  0
  -21.0370   -6.0370   24.9340 C   0  0  0  0  0  3  0  0  0  0  0  0
  -21.3540   -4.6680   24.8510 C   0  0  0  0  0  0  0  0  0  0  0  0
  -21.7830   -4.1170   23.6300 C   0  0  0  0  0  3  0  0  0  0  0  0
  -21.8920   -4.9330   22.4910 C   0  0  0  0  0  0  0  0  0  0  0  0
  -22.2850   -4.3930   21.3120 F   0  0  0  0  0  0  0  0  0  0  0  0
  -21.2440   -3.8790   25.9450 F   0  0  0  0  0  0  0  0  0  0  0  0
  -22.8820  -13.6670   21.1860 C   0  0  0  0  0  0  0  0  0  0  0  0
  -22.1720  -12.9770   22.0720 N   0  0  0  0  0  0  0  0  0  0  0  0
  -22.4480  -14.7080   20.6950 O   0  0  0  0  0  0  0  0  0  0  0  0
  -22.5360  -12.1340   22.4910 H   0  0  0  0  0  0  0  0  0  0  0  0
  -21.2520  -13.2980   22.3390 H   0  0  0  0  0  0  0  0  0  0  0  0
  -25.5110  -15.2840   20.2900 N   0  0  0  0  0  0  0  0  0  0  0  0
  -24.7430  -15.9360   20.4050 H   0  0  0  0  0  0  0  0  0  0  0  0
  -26.3000  -15.6870   19.8030 H   0  0  0  0  0  0  0  0  0  0  0  0
  -28.5040  -21.9350   19.7320 O   0  0  0  0  0  0  0  0  0  0  0  0
  -29.0950  -23.3350   19.9090 C   0  0  0  0  0  3  0  0  0  0  0  0
  -28.1160  -24.6810   19.6400 C   0  0  0  0  0  3  0  0  0  0  0  0
  -28.3620  -26.1910   19.9150 O   0  0  0  0  0  0  0  0  0  0  0  0
  -24.5360  -31.6270   23.0850 C   0  0  0  0  0  0  0  0  0  0  0  0
  -27.2770  -27.1420   19.8750 C   0  0  0  0  0  0  0  0  0  0  0  0
  -23.3960  -30.2890   21.3560 C   0  0  0  0  0  3  0  0  0  0  0  0
  -24.9060  -28.8230   19.8830 C   0  0  0  0  0  0  0  0  0  0  0  0
  -25.9460  -30.6220   21.2520 C   0  0  0  0  0  2  0  0  0  0  0  0
  -26.0640  -29.2680   20.5340 C   0  0  0  0  0  0  0  0  0  0  0  0
  -27.2500  -28.4450   20.5130 C   0  0  0  0  0  3  0  0  0  0  0  0
  -26.0890  -26.7970   19.1910 C   0  0  0  0  0  3  0  0  0  0  0  0
  -24.9310  -27.6010   19.1980 C   0  0  0  0  0  3  0  0  0  0  0  0
  -23.6570  -29.6880   19.9500 C   0  0  0  0  0  2  0  0  0  0  0  0
  -24.6450  -30.8640   21.9540 N   0  0  0  0  0  0  0  0  0  0  0  0
  -23.4340  -31.8620   23.6050 O   0  0  0  0  0  0  0  0  0  0  0  0
  -22.7240  -29.2200   22.2530 C   0  0  0  0  0  0  0  0  0  0  0  0
  -21.3950  -29.0550   22.1190 N   0  0  0  0  0  0  0  0  0  0  0  0
  -23.3990  -28.5440   23.0340 O   0  0  0  0  0  0  0  0  0  0  0  0
  -20.9070  -29.6540   21.4680 H   0  0  0  0  0  0  0  0  0  0  0  0
  -18.0080  -27.8640   22.6020 C   0  0  0  0  0  0  0  0  0  0  0  0
  -20.5770  -28.0710   22.8320 C   0  0  0  0  0  3  0  0  0  0  0  0
  -20.6440  -26.6870   22.1430 C   0  0  0  0  0  2  0  0  0  0  0  0
  -19.5160  -26.4610   21.1320 C   0  0  0  0  0  2  0  0  0  0  0  0
  -18.1500  -26.5720   21.8170 C   0  0  0  0  0  2  0  0  0  0  0  0
  -19.1480  -28.5760   23.0650 C   0  0  0  0  0  0  0  0  0  0  0  0
  -18.9590  -29.7890   23.7640 C   0  0  0  0  0  3  0  0  0  0  0  0
  -17.6650  -30.2900   24.0000 C   0  0  0  0  0  3  0  0  0  0  0  0
  -16.5420  -29.5740   23.5510 C   0  0  0  0  0  3  0  0  0  0  0  0
  -16.7140  -28.3630   22.8590 C   0  0  0  0  0  3  0  0  0  0  0  0
  -25.7880  -32.2560   23.7670 C   0  0  0  0  0  3  0  0  0  0  0  0
  -26.2640  -31.4600   25.0450 C   0  0  1  0  0  0  0  0  0  0  0  0
  -25.1360  -31.1940   26.0690 C   0  0  0  0  0  1  0  0  0  0  0  0
  -26.8680  -30.0930   24.6470 C   0  0  0  0  0  1  0  0  0  0  0  0
  -27.3860  -32.2460   25.7630 C   0  0  0  0  0  1  0  0  0  0  0  0
  -25.4530  -33.6440   24.1230 N   0  0  0  0  0  0  0  0  0  0  0  0
  -25.7720  -34.7190   23.3900 C   0  0  0  0  0  0  0  0  0  0  0  0
  -26.4450  -34.6480   22.3590 O   0  0  0  0  0  0  0  0  0  0  0  0
  -24.8550  -33.7720   24.9260 H   0  0  0  0  0  0  0  0  0  0  0  0
  -24.0050  -36.4870   23.0910 C   0  0  0  0  0  1  0  0  0  0  0  0
  -25.2650  -36.0920   23.8780 C   0  0  0  0  0  3  0  0  0  0  0  0
  -27.3890  -37.0120   24.7010 C   0  0  0  0  0  1  0  0  0  0  0  0
  -26.2770  -37.1660   23.7680 N   0  0  0  0  0  0  0  0  0  0  0  0
  -25.8530  -38.0770   23.9260 H   0  0  0  0  0  0  0  0  0  0  0  0
  2  1  2  0
  3  4  2  0
  4  1  1  0
  4 16  1  0
  5  2  1  0
  6  5  2  0
  6  3  1  0
  7  6  1  0
  8 14  1  0
  8 16  1  0
  9 14  1  0
 10 11  1  0
 10  9  1  0
 12 11  1  0
 12 21  1  0
 12 13  1  0
 14 13  1  0
 15  8  2  0
 16 17  1  0
 18 19  2  0
 19 38  1  0
 20 19  1  0
 20 23  1  0
 21 22  1  0
 21 18  1  0
 22 20  2  0
 23 24  1  0
 24 25  2  0
 26 29  1  0
 26 25  1  0
 27 26  2  0
 28 27  1  0
 28 23  2  0
 29 30  1  0
 30 31  1  0
 31 32  2  0
 33 32  1  0
 33 37  1  0
 34 33  2  0
 35 30  2  0
 35 34  1  0
 36 35  1  0
 38 39  1  0
 39 42  1  0
 39 41  1  0
 40 38  2  0
 43 44  1  0
 43 18  1  0
 45 43  1  0
 46 47  1  0
 46  5  1  0
 48 47  2  0
 48 49  1  0
 50 61  2  0
 51 49  1  0
 51 56  1  0
 52 60  1  0
 52 62  1  0
 53 59  1  0
 53 55  1  0
 54 60  1  0
 55 54  1  0
 56 55  2  0
 57 58  1  0
 57 51  2  0
 58 53  2  0
 59 52  1  0
 60 50  1  0
 62 64  2  0
 63 62  1  0
 65 63  1  0
 66 75  2  0
 66 71  1  0
 67 63  1  0
 67 71  1  0
 68 67  1  0
 69 70  1  0
 69 68  1  0
 70 66  1  0
 71 72  2  0
 72 73  1  0
 74 73  2  0
 75 74  1  0
 76 50  1  0
 76 81  1  0
 76 77  1  0
 77 80  1  1
 77 78  1  0
 79 77  1  0
 81 84  1  0
 82 86  1  0
 82 81  1  0
 83 82  2  0
 86 85  1  0
 88 86  1  0
 88 89  1  0
 88 87  1  0
M  ISO  4   8 100  16 100  48 101  49 101
M  END
>  <TORSDO>  (25) 
F 19

>  <SCORE>  (25) 
-13.742

>  <name>  (25) 
25

>  <ligand_id>  (25) 
25

>  <original_smiles>  (25) 
[H]c1c([H])c([H])c2c(c1[H])C([H])([H])C([H])([H])C([H])([H])C2([H])N([H])C(=O)C1([H])N(C(=O)C([H])(N([H])C(=O)C([H])(N([H])C([H])([H])[H])C([H])([H])[H])C(C([H])([H])[H])(C([H])([H])[H])C([H])([H])[H])C([H])([H])c2c([H])c(OC([H])([H])C([H])([H])Oc3c([H])c([H])c(N([H])C(=O)N4C([H])([H])C([H])([H])C([H])([H])C([H])(n5nc(-c6c([H])c([H])c(Oc7c([H])c([H])c(F)c([H])c7F)c([H])c6[H])c(C(=O)N([H])[H])c5N([H])[H])C4([H])[H])c([H])c3F)c([H])c([H])c2C1([H])[H]

>  <smiles>  (25) 
[H]c1c([H])c([H])c2c(c1[H])C([H])([H])C([H])([H])C([H])([H])C2([H])N([H])C(=O)C1([H])N(C(=O)C([H])(N([H])C(=O)C([H])(N([H])C([H])([H])[H])C([H])([H])[H])C(C([H])([H])[H])(C([H])([H])[H])C([H])([H])[H])C([H])([H])c2c([H])c(OC([H])([H])C([H])([H])Oc3c([H])c([H])c(N([H])C(=O)N4C([H])([H])C([H])([H])C([H])([H])C([H])(n5nc(-c6c([H])c([H])c(Oc7c([H])c([H])c(F)c([H])c7F)c([H])c6[H])c(C(=O)N([H])[H])c5N([H])[H])C4([H])[H])c([H])c3F)c([H])c([H])c2C1([H])[H]

$$$$
26:0:0
     RDKit          3D

 93101  0  0  1  0  0  0  0  0999 V2000
  -29.5050  -22.0070   20.1470 N   0  0  0  0  0  4  0  0  0  0  0  0
  -28.7990  -21.7830   20.8290 H   0  0  0  0  0  0  0  0  0  0  0  0
  -29.1720  -21.7090   19.2450 H   0  0  0  0  0  0  0  0  0  0  0  0
  -30.7240  -21.2180   20.4590 C   0  0  0  0  0  2  0  0  0  0  0  0
  -30.8460  -18.9490   19.2670 C   0  0  0  0  0  3  0  0  0  0  0  0
  -30.7690  -17.5360   19.2650 C   0  0  0  0  0  3  0  0  0  0  0  0
  -30.1220  -18.9900   21.5830 C   0  0  0  0  0  3  0  0  0  0  0  0
  -30.5330  -19.6930   20.4280 C   0  0  0  0  0  0  0  0  0  0  0  0
  -30.3750  -16.8320   20.4320 C   0  0  0  0  0  0  0  0  0  0  0  0
  -30.0390  -17.5790   21.5820 C   0  0  0  0  0  0  0  0  0  0  0  0
  -29.6380  -16.9300   22.7020 F   0  0  0  0  0  0  0  0  0  0  0  0
  -30.8270  -14.4420   19.7830 C   0  0  0  0  0  0  0  0  0  0  0  0
  -30.3900  -12.3090   18.6220 C   0  0  0  0  0  2  0  0  0  0  0  0
  -29.3510  -12.5540   17.5080 C   0  0  0  0  0  2  0  0  0  0  0  0
  -27.9160  -12.4400   18.0600 C   0  0  0  0  0  2  0  0  0  0  0  0
  -27.7100  -13.2600   19.3620 C   0  0  0  0  0  3  0  0  0  0  0  0
  -28.8490  -12.9850   20.3700 C   0  0  0  0  0  2  0  0  0  0  0  0
  -30.1330  -13.2730   19.7030 N   0  0  0  0  0  0  0  0  0  0  0  0
  -31.8870  -14.6270   19.1790 O   0  0  0  0  0  0  0  0  0  0  0  0
  -30.2370  -15.4090   20.5110 N   0  0  0  0  0  0  0  0  0  0  0  0
  -29.4970  -15.0950   21.1200 H   0  0  0  0  0  0  0  0  0  0  0  0
  -25.4060  -13.9120   20.3080 C   0  0  0  0  0  0  0  0  0  0  0  0
  -24.3480  -13.1570   20.7410 C   0  0  0  0  0  0  0  0  0  0  0  0
  -24.7570  -11.7950   20.6130 C   0  0  0  0  0  0  0  0  0  0  0  0
  -26.3950  -13.0080   19.9490 N   0  0  0  0  0  0  0  0  0  0  0  0
  -26.0110  -11.7280   20.1870 N   0  0  0  0  0  0  0  0  0  0  0  0
  -24.0070  -10.5480   20.8160 C   0  0  0  0  0  0  0  0  0  0  0  0
  -24.4120   -9.5890   21.7710 C   0  0  0  0  0  3  0  0  0  0  0  0
  -23.6650   -8.4070   21.9600 C   0  0  0  0  0  3  0  0  0  0  0  0
  -22.4990   -8.1750   21.1950 C   0  0  0  0  0  0  0  0  0  0  0  0
  -22.1120   -9.1220   20.2290 C   0  0  0  0  0  3  0  0  0  0  0  0
  -22.8590  -10.2960   20.0390 C   0  0  0  0  0  3  0  0  0  0  0  0
  -21.7240   -7.0440   21.2910 O   0  0  0  0  0  0  0  0  0  0  0  0
  -21.5430   -6.3960   22.4870 C   0  0  0  0  0  0  0  0  0  0  0  0
  -20.9910   -7.0470   23.6110 C   0  0  0  0  0  3  0  0  0  0  0  0
  -20.7590   -6.3250   24.8000 C   0  0  0  0  0  3  0  0  0  0  0  0
  -21.0680   -4.9540   24.8620 C   0  0  0  0  0  0  0  0  0  0  0  0
  -21.6130   -4.3020   23.7410 C   0  0  0  0  0  3  0  0  0  0  0  0
  -21.8470   -5.0220   22.5560 C   0  0  0  0  0  0  0  0  0  0  0  0
  -22.3520   -4.3850   21.4720 F   0  0  0  0  0  0  0  0  0  0  0  0
  -20.8380   -4.2570   25.9990 F   0  0  0  0  0  0  0  0  0  0  0  0
  -22.9990  -13.6660   21.1610 C   0  0  0  0  0  0  0  0  0  0  0  0
  -22.3440  -12.9720   22.0860 N   0  0  0  0  0  0  0  0  0  0  0  0
  -22.5380  -14.7110   20.7050 O   0  0  0  0  0  0  0  0  0  0  0  0
  -22.7310  -12.1250   22.4750 H   0  0  0  0  0  0  0  0  0  0  0  0
  -21.4430  -13.2940   22.4110 H   0  0  0  0  0  0  0  0  0  0  0  0
  -25.6040  -15.2820   20.1730 N   0  0  0  0  0  0  0  0  0  0  0  0
  -24.8770  -15.9590   20.3790 H   0  0  0  0  0  0  0  0  0  0  0  0
  -26.4460  -15.7050   19.8040 H   0  0  0  0  0  0  0  0  0  0  0  0
  -29.7250  -23.4840   20.1190 C   0  0  0  0  0  2  0  0  0  0  0  0
  -28.4980  -24.2990   19.6220 C   0  0  0  0  0  2  0  0  0  0  0  0
  -28.8030  -25.7680   19.2070 C   0  0  0  0  0  2  0  0  0  0  0  0
  -28.5100  -26.7740   20.1920 O   0  0  0  0  0  0  0  0  0  0  0  0
  -24.3950  -31.7400   23.2290 C   0  0  0  0  0  0  0  0  0  0  0  0
  -27.2880  -27.4260   20.1650 C   0  0  0  0  0  0  0  0  0  0  0  0
  -23.2790  -30.2980   21.5600 C   0  0  0  0  0  3  0  0  0  0  0  0
  -24.8220  -28.8300   20.1540 C   0  0  0  0  0  0  0  0  0  0  0  0
  -25.7910  -30.7610   21.4090 C   0  0  0  0  0  2  0  0  0  0  0  0
  -25.9450  -29.3960   20.7670 C   0  0  0  0  0  0  0  0  0  0  0  0
  -27.1750  -28.6970   20.7780 C   0  0  0  0  0  3  0  0  0  0  0  0
  -26.1380  -26.8680   19.5580 C   0  0  0  0  0  3  0  0  0  0  0  0
  -24.9130  -27.5630   19.5510 C   0  0  0  0  0  3  0  0  0  0  0  0
  -23.5420  -29.6350   20.1800 C   0  0  0  0  0  2  0  0  0  0  0  0
  -24.5050  -30.9490   22.1240 N   0  0  0  0  0  0  0  0  0  0  0  0
  -23.2940  -31.9630   23.7520 O   0  0  0  0  0  0  0  0  0  0  0  0
  -22.6560  -29.2440   22.5050 C   0  0  0  0  0  0  0  0  0  0  0  0
  -21.3540  -28.9730   22.3230 N   0  0  0  0  0  0  0  0  0  0  0  0
  -23.3430  -28.6720   23.3560 O   0  0  0  0  0  0  0  0  0  0  0  0
  -20.8580  -29.4900   21.6120 H   0  0  0  0  0  0  0  0  0  0  0  0
  -18.0550  -27.5380   22.6630 C   0  0  0  0  0  0  0  0  0  0  0  0
  -20.5680  -27.9890   23.0690 C   0  0  0  0  0  3  0  0  0  0  0  0
  -20.8070  -26.5610   22.5280 C   0  0  0  0  0  2  0  0  0  0  0  0
  -19.7890  -26.1400   21.4630 C   0  0  0  0  0  2  0  0  0  0  0  0
  -18.3670  -26.1930   22.0280 C   0  0  0  0  0  2  0  0  0  0  0  0
  -19.0890  -28.3870   23.1370 C   0  0  0  0  0  0  0  0  0  0  0  0
  -18.7470  -29.6410   23.6880 C   0  0  0  0  0  3  0  0  0  0  0  0
  -17.4030  -30.0480   23.7720 C   0  0  0  0  0  3  0  0  0  0  0  0
  -16.3820  -29.1970   23.3170 C   0  0  0  0  0  3  0  0  0  0  0  0
  -16.7080  -27.9440   22.7670 C   0  0  0  0  0  3  0  0  0  0  0  0
  -25.6430  -32.4240   23.8740 C   0  0  0  0  0  3  0  0  0  0  0  0
  -25.2790  -33.8130   24.1780 N   0  0  0  0  0  0  0  0  0  0  0  0
  -25.5850  -34.8650   23.4070 C   0  0  0  0  0  0  0  0  0  0  0  0
  -26.2750  -34.7700   22.3880 O   0  0  0  0  0  0  0  0  0  0  0  0
  -24.6650  -33.9590   24.9660 H   0  0  0  0  0  0  0  0  0  0  0  0
  -23.7900  -36.5800   23.0030 C   0  0  0  0  0  1  0  0  0  0  0  0
  -25.0390  -36.2420   23.8330 C   0  0  0  0  0  3  0  0  0  0  0  0
  -27.1260  -37.2290   24.6680 C   0  0  0  0  0  1  0  0  0  0  0  0
  -26.0290  -37.3320   23.7090 N   0  0  0  0  0  0  0  0  0  0  0  0
  -25.5860  -38.2390   23.8310 H   0  0  0  0  0  0  0  0  0  0  0  0
  -26.1550  -31.6840   25.1710 C   0  0  1  0  0  0  0  0  0  0  0  0
  -25.0430  -31.4140   26.2120 C   0  0  0  0  0  1  0  0  0  0  0  0
  -26.8000  -30.3280   24.8050 C   0  0  0  0  0  1  0  0  0  0  0  0
  -27.2540  -32.5290   25.8560 C   0  0  0  0  0  1  0  0  0  0  0  0
  1  4  1  0
  1  2  1  0
  3  1  1  0
  5  8  1  0
  6  5  2  0
  6  9  1  0
  8  4  1  0
  8  7  2  0
  9 20  1  0
  9 10  2  0
 10  7  1  0
 10 11  1  0
 12 20  1  0
 13 18  1  0
 14 15  1  0
 14 13  1  0
 16 15  1  0
 16 25  1  0
 16 17  1  0
 18 12  1  0
 18 17  1  0
 19 12  2  0
 20 21  1  0
 22 23  2  0
 23 42  1  0
 24 23  1  0
 24 27  1  0
 25 26  1  0
 25 22  1  0
 26 24  2  0
 27 28  1  0
 28 29  2  0
 30 33  1  0
 30 29  1  0
 31 30  2  0
 32 31  1  0
 32 27  2  0
 33 34  1  0
 34 39  2  0
 34 35  1  0
 35 36  2  0
 36 37  1  0
 37 41  1  0
 38 37  2  0
 39 38  1  0
 40 39  1  0
 42 43  1  0
 43 46  1  0
 43 45  1  0
 44 42  2  0
 47 22  1  0
 47 48  1  0
 49 47  1  0
 50  1  1  0
 51 50  1  0
 52 51  1  0
 52 53  1  0
 54 65  2  0
 55 53  1  0
 55 60  1  0
 56 64  1  0
 56 66  1  0
 57 63  1  0
 57 59  1  0
 58 64  1  0
 59 60  2  0
 59 58  1  0
 61 55  2  0
 62 61  1  0
 62 57  2  0
 63 56  1  0
 64 54  1  0
 66 68  2  0
 67 66  1  0
 69 67  1  0
 70 79  2  0
 70 75  1  0
 71 67  1  0
 71 75  1  0
 72 71  1  0
 73 74  1  0
 73 72  1  0
 74 70  1  0
 75 76  2  0
 76 77  1  0
 78 77  2  0
 79 78  1  0
 80 54  1  0
 80 81  1  0
 80 90  1  0
 81 84  1  0
 82 86  1  0
 82 81  1  0
 83 82  2  0
 86 85  1  0
 88 89  1  0
 88 86  1  0
 88 87  1  0
 90 93  1  1
 90 91  1  0
 92 90  1  0
M  ISO  4  12 100  20 100  52 101  53 101
M  END
>  <TORSDO>  (26) 
F 21

>  <SCORE>  (26) 
-11.941

>  <name>  (26) 
26

>  <ligand_id>  (26) 
26

>  <original_smiles>  (26) 
[H]c1c([H])c([H])c2c(c1[H])C([H])([H])C([H])([H])C([H])([H])C2([H])N([H])C(=O)C1([H])N(C(=O)C([H])(N([H])C(=O)C([H])(N([H])C([H])([H])[H])C([H])([H])[H])C(C([H])([H])[H])(C([H])([H])[H])C([H])([H])[H])C([H])([H])c2c([H])c(OC([H])([H])C([H])([H])C([H])([H])[N+]([H])([H])C([H])([H])c3c([H])c([H])c(N([H])C(=O)N4C([H])([H])C([H])([H])C([H])([H])C([H])(n5nc(-c6c([H])c([H])c(Oc7c([H])c([H])c(F)c([H])c7F)c([H])c6[H])c(C(=O)N([H])[H])c5N([H])[H])C4([H])[H])c(F)c3[H])c([H])c([H])c2C1([H])[H]

>  <smiles>  (26) 
[H]c1c([H])c([H])c2c(c1[H])C([H])([H])C([H])([H])C([H])([H])C2([H])N([H])C(=O)C1([H])N(C(=O)C([H])(N([H])C(=O)C([H])(N([H])C([H])([H])[H])C([H])([H])[H])C(C([H])([H])[H])(C([H])([H])[H])C([H])([H])[H])C([H])([H])c2c([H])c(OC([H])([H])C([H])([H])C([H])([H])[N+]([H])([H])C([H])([H])c3c([H])c([H])c(N([H])C(=O)N4C([H])([H])C([H])([H])C([H])([H])C([H])(n5nc(-c6c([H])c([H])c(Oc7c([H])c([H])c(F)c([H])c7F)c([H])c6[H])c(C(=O)N([H])[H])c5N([H])[H])C4([H])[H])c(F)c3[H])c([H])c([H])c2C1([H])[H]

$$$$
27:0:0
     RDKit          3D

 92100  0  0  1  0  0  0  0  0999 V2000
  -28.7230  -21.5630   19.8660 C   0  0  0  0  0  2  0  0  0  0  0  0
  -30.5350  -19.6260   19.9470 C   0  0  0  0  0  3  0  0  0  0  0  0
  -30.8760  -18.2380   20.0160 C   0  0  0  0  0  3  0  0  0  0  0  0
  -28.2630  -19.0790   20.5060 C   0  0  0  0  0  3  0  0  0  0  0  0
  -29.2060  -20.0850   20.1570 C   0  0  0  0  0  0  0  0  0  0  0  0
  -29.9110  -17.2330   20.3060 C   0  0  0  0  0  0  0  0  0  0  0  0
  -28.6030  -17.6980   20.5860 C   0  0  0  0  0  0  0  0  0  0  0  0
  -27.6330  -16.7890   20.8260 F   0  0  0  0  0  0  0  0  0  0  0  0
  -30.7990  -14.8390   20.6070 C   0  0  0  0  0  0  0  0  0  0  0  0
  -30.6910  -12.4860   19.8350 C   0  0  0  0  0  2  0  0  0  0  0  0
  -29.8430  -12.3980   18.5480 C   0  0  0  0  0  2  0  0  0  0  0  0
  -28.3240  -12.3770   18.8520 C   0  0  0  0  0  2  0  0  0  0  0  0
  -27.8580  -13.3030   20.0140 C   0  0  0  0  0  3  0  0  0  0  0  0
  -28.8560  -13.3160   21.1890 C   0  0  0  0  0  2  0  0  0  0  0  0
  -30.1790  -13.6160   20.6290 N   0  0  0  0  0  0  0  0  0  0  0  0
  -32.0280  -14.9160   20.6240 O   0  0  0  0  0  0  0  0  0  0  0  0
  -30.1450  -15.7060   18.4640 C   0  0  0  0  0  1  0  0  0  0  0  0
  -30.1070  -15.8330   19.9320 N   0  0  0  0  0  0  0  0  0  0  0  0
  -25.4130  -13.8510   20.5840 C   0  0  0  0  0  0  0  0  0  0  0  0
  -24.3400  -13.0620   20.8990 C   0  0  0  0  0  0  0  0  0  0  0  0
  -24.8350  -11.7230   20.9290 C   0  0  0  0  0  0  0  0  0  0  0  0
  -26.4930  -12.9930   20.4370 N   0  0  0  0  0  0  0  0  0  0  0  0
  -26.1440  -11.7080   20.7080 N   0  0  0  0  0  0  0  0  0  0  0  0
  -24.1240  -10.4510   21.1000 C   0  0  0  0  0  0  0  0  0  0  0  0
  -24.5160   -9.5050   22.0720 C   0  0  0  0  0  3  0  0  0  0  0  0
  -23.7950   -8.3000   22.2260 C   0  0  0  0  0  3  0  0  0  0  0  0
  -22.6730   -8.0340   21.4040 C   0  0  0  0  0  0  0  0  0  0  0  0
  -22.3030   -8.9710   20.4230 C   0  0  0  0  0  3  0  0  0  0  0  0
  -23.0240  -10.1650   20.2680 C   0  0  0  0  0  3  0  0  0  0  0  0
  -21.9320   -6.8790   21.4680 O   0  0  0  0  0  0  0  0  0  0  0  0
  -21.8230   -6.1550   22.6280 C   0  0  0  0  0  0  0  0  0  0  0  0
  -21.2600   -6.7090   23.7990 C   0  0  0  0  0  3  0  0  0  0  0  0
  -21.0980   -5.9090   24.9470 C   0  0  0  0  0  3  0  0  0  0  0  0
  -21.4930   -4.5580   24.9270 C   0  0  0  0  0  0  0  0  0  0  0  0
  -22.0530   -4.0050   23.7630 C   0  0  0  0  0  3  0  0  0  0  0  0
  -22.2130   -4.8000   22.6150 C   0  0  0  0  0  0  0  0  0  0  0  0
  -22.7310   -4.2580   21.4880 F   0  0  0  0  0  0  0  0  0  0  0  0
  -21.3330   -3.7880   26.0300 F   0  0  0  0  0  0  0  0  0  0  0  0
  -22.9220  -13.5210   21.0740 C   0  0  0  0  0  0  0  0  0  0  0  0
  -22.1620  -12.8460   21.9280 N   0  0  0  0  0  0  0  0  0  0  0  0
  -22.4970  -14.5200   20.4950 O   0  0  0  0  0  0  0  0  0  0  0  0
  -22.5130  -12.0380   22.4210 H   0  0  0  0  0  0  0  0  0  0  0  0
  -21.2150  -13.1500   22.0990 H   0  0  0  0  0  0  0  0  0  0  0  0
  -25.5470  -15.2170   20.3940 N   0  0  0  0  0  0  0  0  0  0  0  0
  -24.7780  -15.8630   20.5280 H   0  0  0  0  0  0  0  0  0  0  0  0
  -26.4500  -15.6870   20.3750 H   0  0  0  0  0  0  0  0  0  0  0  0
  -29.7560  -22.6810   21.8540 C   0  0  0  0  0  1  0  0  0  0  0  0
  -29.5130  -22.7420   20.3950 N   0  0  2  0  0  4  0  0  0  0  0  0
  -30.4290  -22.5670   20.0080 H   0  0  0  0  0  0  0  0  0  0  0  0
  -29.2170  -24.1430   19.8290 C   0  0  0  0  0  3  0  0  0  0  0  0
  -28.2640  -25.1800   20.5750 C   0  0  0  0  0  3  0  0  0  0  0  0
  -28.3680  -26.6020   20.1540 O   0  0  0  0  0  0  0  0  0  0  0  0
  -24.5500  -31.8970   23.2470 C   0  0  0  0  0  0  0  0  0  0  0  0
  -27.2210  -27.4060   20.1570 C   0  0  0  0  0  0  0  0  0  0  0  0
  -23.3640  -30.5110   21.5810 C   0  0  0  0  0  3  0  0  0  0  0  0
  -24.8360  -28.9820   20.1520 C   0  0  0  0  0  0  0  0  0  0  0  0
  -25.8990  -30.8550   21.4110 C   0  0  0  0  0  2  0  0  0  0  0  0
  -25.9960  -29.4840   20.7530 C   0  0  0  0  0  0  0  0  0  0  0  0
  -27.1920  -28.7120   20.7390 C   0  0  0  0  0  3  0  0  0  0  0  0
  -26.0400  -26.9520   19.5300 C   0  0  0  0  0  3  0  0  0  0  0  0
  -24.8580  -27.7210   19.5340 C   0  0  0  0  0  3  0  0  0  0  0  0
  -23.5920  -29.8470   20.1960 C   0  0  0  0  0  2  0  0  0  0  0  0
  -24.6240  -31.1020   22.1380 N   0  0  0  0  0  0  0  0  0  0  0  0
  -23.4620  -32.1610   23.7780 O   0  0  0  0  0  0  0  0  0  0  0  0
  -22.7020  -29.4810   22.5260 C   0  0  0  0  0  0  0  0  0  0  0  0
  -21.3770  -29.2970   22.3870 N   0  0  0  0  0  0  0  0  0  0  0  0
  -23.3800  -28.8500   23.3420 O   0  0  0  0  0  0  0  0  0  0  0  0
  -20.8870  -29.8620   21.7050 H   0  0  0  0  0  0  0  0  0  0  0  0
  -18.0040  -28.0810   22.8540 C   0  0  0  0  0  0  0  0  0  0  0  0
  -20.5590  -28.3430   23.1410 C   0  0  0  0  0  3  0  0  0  0  0  0
  -20.6670  -26.9200   22.5440 C   0  0  0  0  0  2  0  0  0  0  0  0
  -19.5720  -26.6100   21.5190 C   0  0  0  0  0  2  0  0  0  0  0  0
  -18.1880  -26.7420   22.1590 C   0  0  0  0  0  2  0  0  0  0  0  0
  -19.1180  -28.8400   23.3000 C   0  0  0  0  0  0  0  0  0  0  0  0
  -18.8930  -30.0930   23.9100 C   0  0  0  0  0  3  0  0  0  0  0  0
  -17.5840  -30.5880   24.0760 C   0  0  0  0  0  3  0  0  0  0  0  0
  -16.4850  -29.8260   23.6470 C   0  0  0  0  0  3  0  0  0  0  0  0
  -16.6950  -28.5740   23.0430 C   0  0  0  0  0  3  0  0  0  0  0  0
  -25.8250  -32.5300   23.8850 C   0  0  0  0  0  3  0  0  0  0  0  0
  -26.3130  -31.7700   25.1800 C   0  0  1  0  0  0  0  0  0  0  0  0
  -25.1990  -31.5490   26.2300 C   0  0  0  0  0  1  0  0  0  0  0  0
  -26.8990  -30.3890   24.8100 C   0  0  0  0  0  1  0  0  0  0  0  0
  -27.4530  -32.5670   25.8570 C   0  0  0  0  0  1  0  0  0  0  0  0
  -25.5190  -33.9340   24.1970 N   0  0  0  0  0  0  0  0  0  0  0  0
  -25.8820  -34.9770   23.4400 C   0  0  0  0  0  0  0  0  0  0  0  0
  -26.5740  -34.8580   22.4260 O   0  0  0  0  0  0  0  0  0  0  0  0
  -24.9130  -34.1010   24.9870 H   0  0  0  0  0  0  0  0  0  0  0  0
  -24.1960  -36.7900   23.0080 C   0  0  0  0  0  1  0  0  0  0  0  0
  -25.3970  -36.3750   23.8730 C   0  0  0  0  0  3  0  0  0  0  0  0
  -27.5030  -37.2330   24.7960 C   0  0  0  0  0  1  0  0  0  0  0  0
  -26.4480  -37.4120   23.8020 N   0  0  0  0  0  0  0  0  0  0  0  0
  -26.0500  -38.3390   23.9250 H   0  0  0  0  0  0  0  0  0  0  0  0
  1  5  1  0
  1 48  1  0
  2  3  2  0
  2  5  1  0
  3  6  1  0
  4  7  1  0
  5  4  2  0
  6  7  2  0
  7  8  1  0
  9 16  2  0
  9 15  1  0
 10 15  1  0
 11 12  1  0
 11 10  1  0
 13 12  1  0
 13 22  1  0
 13 14  1  0
 15 14  1  0
 17 18  1  0
 18  6  1  0
 18  9  1  0
 19 20  2  0
 20 21  1  0
 20 39  1  0
 21 24  1  0
 22 19  1  0
 22 23  1  0
 23 21  2  0
 24 25  1  0
 25 26  2  0
 27 30  1  0
 27 26  1  0
 28 27  2  0
 29 28  1  0
 29 24  2  0
 30 31  1  0
 31 32  1  0
 32 33  2  0
 34 33  1  0
 34 38  1  0
 35 34  2  0
 36 31  2  0
 36 35  1  0
 37 36  1  0
 39 40  1  0
 40 43  1  0
 40 42  1  0
 41 39  2  0
 44 45  1  0
 44 19  1  0
 46 44  1  0
 48 47  1  0
 48 49  1  6
 50 48  1  0
 50 51  2  0
 52 54  1  0
 52 51  1  0
 53 64  2  0
 54 59  1  0
 55 63  1  0
 55 65  1  0
 56 62  1  0
 56 58  1  0
 57 63  1  0
 58 57  1  0
 59 58  2  0
 60 61  1  0
 60 54  2  0
 61 56  2  0
 62 55  1  0
 63 53  1  0
 65 67  2  0
 66 65  1  0
 68 66  1  0
 69 78  2  0
 69 74  1  0
 70 66  1  0
 70 74  1  0
 71 70  1  0
 72 73  1  0
 72 71  1  0
 73 69  1  0
 74 75  2  0
 75 76  1  0
 77 76  2  0
 78 77  1  0
 79 53  1  0
 79 84  1  0
 79 80  1  0
 80 83  1  1
 80 81  1  0
 82 80  1  0
 84 87  1  0
 85 89  1  0
 85 84  1  0
 86 85  2  0
 89 88  1  0
 91 89  1  0
 91 92  1  0
 91 90  1  0
M  ISO  4   9 100  18 100  51 101  52 101
M  END
>  <TORSDO>  (27) 
F 20

>  <SCORE>  (27) 
-13.356

>  <name>  (27) 
27

>  <ligand_id>  (27) 
27

>  <original_smiles>  (27) 
[H]c1c([H])c([H])c2c(c1[H])C([H])([H])C([H])([H])C([H])([H])C2([H])N([H])C(=O)C1([H])N(C(=O)C([H])(N([H])C(=O)C([H])(N([H])C([H])([H])[H])C([H])([H])[H])C(C([H])([H])[H])(C([H])([H])[H])C([H])([H])[H])C([H])([H])c2c([H])c(OC([H])([H])C([H])([H])[N+]([H])(C([H])([H])[H])C([H])([H])c3c([H])c([H])c(N(C(=O)N4C([H])([H])C([H])([H])C([H])([H])C([H])(n5nc(-c6c([H])c([H])c(Oc7c([H])c([H])c(F)c([H])c7F)c([H])c6[H])c(C(=O)N([H])[H])c5N([H])[H])C4([H])[H])C([H])([H])[H])c(F)c3[H])c([H])c([H])c2C1([H])[H]

>  <smiles>  (27) 
[H]c1c([H])c([H])c2c(c1[H])C([H])([H])C([H])([H])C([H])([H])C2([H])N([H])C(=O)C1([H])N(C(=O)C([H])(N([H])C(=O)C([H])(N([H])C([H])([H])[H])C([H])([H])[H])C(C([H])([H])[H])(C([H])([H])[H])C([H])([H])[H])C([H])([H])c2c([H])c(OC([H])([H])C([H])([H])[N+]([H])(C([H])([H])[H])C([H])([H])c3c([H])c([H])c(N(C(=O)N4C([H])([H])C([H])([H])C([H])([H])C([H])(n5nc(-c6c([H])c([H])c(Oc7c([H])c([H])c(F)c([H])c7F)c([H])c6[H])c(C(=O)N([H])[H])c5N([H])[H])C4([H])[H])C([H])([H])[H])c(F)c3[H])c([H])c([H])c2C1([H])[H]

$$$$
28:0:0
     RDKit          3D

 89 97  0  0  1  0  0  0  0  0999 V2000
  -30.5460  -18.6110   20.2210 C   0  0  0  0  0  3  0  0  0  0  0  0
  -30.2410  -20.0490   20.1530 C   0  0  0  0  0  3  0  0  0  0  0  0
  -27.9440  -19.5450   20.2350 C   0  0  0  0  0  3  0  0  0  0  0  0
  -29.5460  -17.5730   20.3030 C   0  0  0  0  0  0  0  0  0  0  0  0
  -28.9050  -20.5990   20.1510 C   0  0  0  0  0  0  0  0  0  0  0  0
  -28.2360  -18.1370   20.3130 C   0  0  0  0  0  0  0  0  0  0  0  0
  -27.1940  -17.2770   20.3970 F   0  0  0  0  0  0  0  0  0  0  0  0
  -30.4790  -14.9550   20.1290 C   0  0  0  0  0  0  0  0  0  0  0  0
  -30.3510  -12.6130   19.1660 C   0  0  0  0  0  2  0  0  0  0  0  0
  -29.3720  -12.5990   17.9670 C   0  0  0  0  0  2  0  0  0  0  0  0
  -27.9180  -12.4040   18.4410 C   0  0  0  0  0  2  0  0  0  0  0  0
  -27.5580  -13.3160   19.6440 C   0  0  0  0  0  3  0  0  0  0  0  0
  -28.6500  -13.2740   20.7360 C   0  0  0  0  0  2  0  0  0  0  0  0
  -29.9140  -13.6830   20.1040 N   0  0  0  0  0  0  0  0  0  0  0  0
  -31.6550  -15.0810   19.7700 O   0  0  0  0  0  0  0  0  0  0  0  0
  -29.6270  -16.0470   20.4000 N   0  0  0  0  0  0  0  0  0  0  0  0
  -28.7250  -15.6830   20.6710 H   0  0  0  0  0  0  0  0  0  0  0  0
  -25.1940  -13.9040   20.4450 C   0  0  0  0  0  0  0  0  0  0  0  0
  -24.1370  -13.1330   20.8380 C   0  0  0  0  0  0  0  0  0  0  0  0
  -24.5940  -11.7800   20.7890 C   0  0  0  0  0  0  0  0  0  0  0  0
  -26.2300  -13.0240   20.1760 N   0  0  0  0  0  0  0  0  0  0  0  0
  -25.8770  -11.7400   20.4460 N   0  0  0  0  0  0  0  0  0  0  0  0
  -23.8650  -10.5230   20.9920 C   0  0  0  0  0  0  0  0  0  0  0  0
  -24.3170   -9.5480   21.9100 C   0  0  0  0  0  3  0  0  0  0  0  0
  -23.5870   -8.3550   22.1020 C   0  0  0  0  0  3  0  0  0  0  0  0
  -22.3920   -8.1280   21.3780 C   0  0  0  0  0  0  0  0  0  0  0  0
  -21.9590   -9.0920   20.4510 C   0  0  0  0  0  3  0  0  0  0  0  0
  -22.6900  -10.2770   20.2560 C   0  0  0  0  0  3  0  0  0  0  0  0
  -21.6330   -6.9880   21.4810 O   0  0  0  0  0  0  0  0  0  0  0  0
  -21.6050   -6.2440   22.6330 C   0  0  0  0  0  0  0  0  0  0  0  0
  -21.2010   -6.7960   23.8670 C   0  0  0  0  0  3  0  0  0  0  0  0
  -21.1210   -5.9770   25.0120 C   0  0  0  0  0  3  0  0  0  0  0  0
  -21.4330   -4.6080   24.9230 C   0  0  0  0  0  0  0  0  0  0  0  0
  -21.8300   -4.0550   23.6920 C   0  0  0  0  0  3  0  0  0  0  0  0
  -21.9130   -4.8710   22.5500 C   0  0  0  0  0  0  0  0  0  0  0  0
  -22.2750   -4.3280   21.3630 F   0  0  0  0  0  0  0  0  0  0  0  0
  -21.3480   -3.8200   26.0200 F   0  0  0  0  0  0  0  0  0  0  0  0
  -22.7500  -13.6170   21.1520 C   0  0  0  0  0  0  0  0  0  0  0  0
  -22.0480  -12.9280   22.0450 N   0  0  0  0  0  0  0  0  0  0  0  0
  -22.3010  -14.6440   20.6440 O   0  0  0  0  0  0  0  0  0  0  0  0
  -22.4240  -12.0990   22.4790 H   0  0  0  0  0  0  0  0  0  0  0  0
  -21.1200  -13.2360   22.2990 H   0  0  0  0  0  0  0  0  0  0  0  0
  -25.3460  -15.2740   20.2760 N   0  0  0  0  0  0  0  0  0  0  0  0
  -24.5840  -15.9140   20.4630 H   0  0  0  0  0  0  0  0  0  0  0  0
  -26.2120  -15.7600   20.0740 H   0  0  0  0  0  0  0  0  0  0  0  0
  -28.3840  -21.9650   20.0490 O   0  0  0  0  0  0  0  0  0  0  0  0
  -29.0000  -23.3650   20.1000 C   0  0  0  0  0  3  0  0  0  0  0  0
  -28.0120  -24.7130   19.8800 C   0  0  0  0  0  3  0  0  0  0  0  0
  -28.2930  -26.2290   20.0810 O   0  0  0  0  0  0  0  0  0  0  0  0
  -24.6330  -31.8210   23.1810 C   0  0  0  0  0  0  0  0  0  0  0  0
  -27.2260  -27.2010   20.0390 C   0  0  0  0  0  0  0  0  0  0  0  0
  -23.4360  -30.4670   21.5040 C   0  0  0  0  0  3  0  0  0  0  0  0
  -24.8900  -28.9320   20.0450 C   0  0  0  0  0  0  0  0  0  0  0  0
  -25.9900  -30.7420   21.3520 C   0  0  0  0  0  2  0  0  0  0  0  0
  -26.0680  -29.3680   20.6650 C   0  0  0  0  0  0  0  0  0  0  0  0
  -27.2360  -28.5200   20.6450 C   0  0  0  0  0  3  0  0  0  0  0  0
  -26.0190  -26.8630   19.3860 C   0  0  0  0  0  3  0  0  0  0  0  0
  -24.8780  -27.6930   19.3910 C   0  0  0  0  0  3  0  0  0  0  0  0
  -23.6610  -29.8260   20.1100 C   0  0  0  0  0  2  0  0  0  0  0  0
  -24.7060  -31.0300   22.0680 N   0  0  0  0  0  0  0  0  0  0  0  0
  -23.5450  -32.0930   23.7130 O   0  0  0  0  0  0  0  0  0  0  0  0
  -22.7570  -29.4350   22.4380 C   0  0  0  0  0  0  0  0  0  0  0  0
  -21.4250  -29.2850   22.3200 N   0  0  0  0  0  0  0  0  0  0  0  0
  -23.4290  -28.7740   23.2330 O   0  0  0  0  0  0  0  0  0  0  0  0
  -20.9390  -29.8710   21.6550 H   0  0  0  0  0  0  0  0  0  0  0  0
  -18.0300  -28.1400   22.8450 C   0  0  0  0  0  0  0  0  0  0  0  0
  -20.5990  -28.3340   23.0680 C   0  0  0  0  0  3  0  0  0  0  0  0
  -20.6560  -26.9260   22.4340 C   0  0  0  0  0  2  0  0  0  0  0  0
  -19.5270  -26.6710   21.4290 C   0  0  0  0  0  2  0  0  0  0  0  0
  -18.1620  -26.8190   22.1080 C   0  0  0  0  0  2  0  0  0  0  0  0
  -19.1730  -28.8600   23.2820 C   0  0  0  0  0  0  0  0  0  0  0  0
  -18.9940  -30.1000   23.9330 C   0  0  0  0  0  3  0  0  0  0  0  0
  -17.7040  -30.6200   24.1510 C   0  0  0  0  0  3  0  0  0  0  0  0
  -16.5750  -29.8960   23.7290 C   0  0  0  0  0  3  0  0  0  0  0  0
  -16.7390  -28.6580   23.0810 C   0  0  0  0  0  3  0  0  0  0  0  0
  -25.9100  -32.4410   23.8260 C   0  0  0  0  0  3  0  0  0  0  0  0
  -26.4050  -31.6510   25.1000 C   0  0  1  0  0  0  0  0  0  0  0  0
  -25.2980  -31.4130   26.1540 C   0  0  0  0  0  1  0  0  0  0  0  0
  -26.9800  -30.2730   24.7020 C   0  0  0  0  0  1  0  0  0  0  0  0
  -27.5560  -32.4270   25.7810 C   0  0  0  0  0  1  0  0  0  0  0  0
  -25.6030  -33.8370   24.1750 N   0  0  0  0  0  0  0  0  0  0  0  0
  -25.9270  -34.9010   23.4290 C   0  0  0  0  0  0  0  0  0  0  0  0
  -26.5820  -34.8090   22.3880 O   0  0  0  0  0  0  0  0  0  0  0  0
  -25.0210  -33.9810   24.9880 H   0  0  0  0  0  0  0  0  0  0  0  0
  -24.1860  -36.6940   23.1380 C   0  0  0  0  0  1  0  0  0  0  0  0
  -25.4500  -36.2840   23.9120 C   0  0  0  0  0  3  0  0  0  0  0  0
  -27.6020  -37.1710   24.6960 C   0  0  0  0  0  1  0  0  0  0  0  0
  -26.4770  -37.3420   23.7800 N   0  0  0  0  0  0  0  0  0  0  0  0
  -26.0720  -38.2600   23.9440 H   0  0  0  0  0  0  0  0  0  0  0  0
  1  4  1  0
  2  1  2  0
  3  6  1  0
  4  6  2  0
  4 16  1  0
  5  2  1  0
  5  3  2  0
  6  7  1  0
  8 16  1  0
  9 14  1  0
 10 11  1  0
 10  9  1  0
 12 11  1  0
 12 21  1  0
 12 13  1  0
 14  8  1  0
 14 13  1  0
 15  8  2  0
 16 17  1  0
 18 19  2  0
 19 38  1  0
 20 19  1  0
 20 23  1  0
 21 18  1  0
 21 22  1  0
 22 20  2  0
 23 24  1  0
 24 25  2  0
 26 29  1  0
 26 25  1  0
 27 26  2  0
 28 27  1  0
 28 23  2  0
 29 30  1  0
 30 31  1  0
 31 32  2  0
 33 32  1  0
 33 37  1  0
 34 33  2  0
 35 30  2  0
 35 34  1  0
 36 35  1  0
 38 39  1  0
 39 42  1  0
 39 41  1  0
 40 38  2  0
 43 18  1  0
 43 44  1  0
 45 43  1  0
 46 47  1  0
 46  5  1  0
 48 49  1  0
 48 47  2  0
 50 61  2  0
 51 49  1  0
 51 56  1  0
 52 60  1  0
 52 62  1  0
 53 59  1  0
 53 55  1  0
 54 60  1  0
 55 54  1  0
 56 55  2  0
 57 58  1  0
 57 51  2  0
 58 53  2  0
 59 52  1  0
 60 50  1  0
 62 64  2  0
 63 62  1  0
 65 63  1  0
 66 75  2  0
 66 71  1  0
 67 63  1  0
 67 71  1  0
 68 67  1  0
 69 70  1  0
 69 68  1  0
 70 66  1  0
 71 72  2  0
 72 73  1  0
 74 73  2  0
 75 74  1  0
 76 50  1  0
 76 81  1  0
 76 77  1  0
 77 80  1  1
 77 78  1  0
 79 77  1  0
 81 84  1  0
 82 86  1  0
 82 81  1  0
 83 82  2  0
 86 85  1  0
 88 86  1  0
 88 89  1  0
 88 87  1  0
M  ISO  4   8 100  16 100  48 101  49 101
M  END
>  <TORSDO>  (28) 
F 19

>  <SCORE>  (28) 
-14.356

>  <name>  (28) 
28

>  <ligand_id>  (28) 
28

>  <original_smiles>  (28) 
[H]c1c([H])c([H])c2c(c1[H])C([H])([H])C([H])([H])C([H])([H])C2([H])N([H])C(=O)C1([H])N(C(=O)C([H])(N([H])C(=O)C([H])(N([H])C([H])([H])[H])C([H])([H])[H])C(C([H])([H])[H])(C([H])([H])[H])C([H])([H])[H])C([H])([H])c2c([H])c(OC([H])([H])C([H])([H])Oc3c([H])c([H])c(N([H])C(=O)N4C([H])([H])C([H])([H])C([H])([H])C([H])(n5nc(-c6c([H])c([H])c(Oc7c([H])c([H])c(F)c([H])c7F)c([H])c6[H])c(C(=O)N([H])[H])c5N([H])[H])C4([H])[H])c(F)c3[H])c([H])c([H])c2C1([H])[H]

>  <smiles>  (28) 
[H]c1c([H])c([H])c2c(c1[H])C([H])([H])C([H])([H])C([H])([H])C2([H])N([H])C(=O)C1([H])N(C(=O)C([H])(N([H])C(=O)C([H])(N([H])C([H])([H])[H])C([H])([H])[H])C(C([H])([H])[H])(C([H])([H])[H])C([H])([H])[H])C([H])([H])c2c([H])c(OC([H])([H])C([H])([H])Oc3c([H])c([H])c(N([H])C(=O)N4C([H])([H])C([H])([H])C([H])([H])C([H])(n5nc(-c6c([H])c([H])c(Oc7c([H])c([H])c(F)c([H])c7F)c([H])c6[H])c(C(=O)N([H])[H])c5N([H])[H])C4([H])[H])c(F)c3[H])c([H])c([H])c2C1([H])[H]

$$$$
29:0:0
     RDKit          3D

103112  0  0  1  0  0  0  0  0999 V2000
  -30.0040  -19.8490   22.7640 C   0  0  0  0  0  3  0  0  0  0  0  0
  -31.2450  -22.3490   23.0330 C   0  0  0  0  0  3  0  0  0  0  0  0
  -29.5830  -20.9260   21.9570 C   0  0  0  0  0  0  0  0  0  0  0  0
  -31.6650  -21.2670   23.8330 C   0  0  0  0  0  0  0  0  0  0  0  0
  -30.2160  -22.1940   22.0670 C   0  0  0  0  0  0  0  0  0  0  0  0
  -31.0460  -20.0100   23.6910 C   0  0  0  0  0  0  0  0  0  0  0  0
  -31.5450  -18.6590   24.6490 Cl  0  0  0  0  0  0  0  0  0  0  0  0
  -32.6930  -21.4430   24.7620 N   0  0  0  0  0  0  0  0  0  0  0  0
  -33.3740  -22.1750   24.5900 H   0  0  0  0  0  0  0  0  0  0  0  0
  -33.1190  -20.5900   25.1140 H   0  0  0  0  0  0  0  0  0  0  0  0
  -28.4250  -20.6910   21.0010 C   0  0  0  0  0  2  0  0  0  0  0  0
  -28.5210  -21.4580   18.6290 C   0  0  0  0  0  1  0  0  0  0  0  0
  -28.8200  -20.4220   19.6180 N   0  0  0  0  0  0  0  0  0  0  0  0
  -29.6020  -18.1110   20.0510 C   0  0  0  0  0  3  0  0  0  0  0  0
  -31.1000  -18.1400   17.6910 C   0  0  0  0  0  3  0  0  0  0  0  0
  -29.6120  -19.2940   19.2610 C   0  0  0  0  0  0  0  0  0  0  0  0
  -30.3070  -16.9380   19.6700 C   0  0  0  0  0  0  0  0  0  0  0  0
  -30.4090  -19.2940   18.0830 C   0  0  0  0  0  0  0  0  0  0  0  0
  -31.0300  -16.9640   18.4450 C   0  0  0  0  0  0  0  0  0  0  0  0
  -30.5280  -20.3910   17.2940 F   0  0  0  0  0  0  0  0  0  0  0  0
  -31.6400  -15.8660   17.9380 F   0  0  0  0  0  0  0  0  0  0  0  0
  -30.1900  -15.8130   20.4780 O   0  0  0  0  0  0  0  0  0  0  0  0
  -31.0940  -14.7860   20.4400 C   0  0  0  0  0  0  0  0  0  0  0  0
  -30.8360  -12.5210   19.4970 C   0  0  0  0  0  2  0  0  0  0  0  0
  -29.9640  -12.6920   18.2320 C   0  0  0  0  0  2  0  0  0  0  0  0
  -28.4650  -12.6100   18.5840 C   0  0  0  0  0  2  0  0  0  0  0  0
  -28.0730  -13.5270   19.7720 C   0  0  0  0  0  3  0  0  0  0  0  0
  -29.0580  -13.3700   20.9480 C   0  0  0  0  0  2  0  0  0  0  0  0
  -30.4260  -13.5570   20.4480 N   0  0  0  0  0  0  0  0  0  0  0  0
  -32.2890  -14.9470   20.1810 O   0  0  0  0  0  0  0  0  0  0  0  0
  -25.6740  -14.2070   20.4030 C   0  0  0  0  0  0  0  0  0  0  0  0
  -24.5710  -13.4650   20.7240 C   0  0  0  0  0  0  0  0  0  0  0  0
  -24.9900  -12.1000   20.6980 C   0  0  0  0  0  0  0  0  0  0  0  0
  -26.6980  -13.2940   20.1990 N   0  0  0  0  0  0  0  0  0  0  0  0
  -26.2870  -12.0210   20.4380 N   0  0  0  0  0  0  0  0  0  0  0  0
  -24.2190  -10.8590   20.8500 C   0  0  0  0  0  0  0  0  0  0  0  0
  -24.5870   -9.8670   21.7850 C   0  0  0  0  0  3  0  0  0  0  0  0
  -23.8180   -8.6910   21.9210 C   0  0  0  0  0  3  0  0  0  0  0  0
  -22.6670   -8.4980   21.1210 C   0  0  0  0  0  0  0  0  0  0  0  0
  -22.3180   -9.4780   20.1750 C   0  0  0  0  0  3  0  0  0  0  0  0
  -23.0870  -10.6460   20.0370 C   0  0  0  0  0  3  0  0  0  0  0  0
  -21.8740   -7.3780   21.1690 O   0  0  0  0  0  0  0  0  0  0  0  0
  -21.7600   -6.6240   22.3090 C   0  0  0  0  0  0  0  0  0  0  0  0
  -21.3020   -7.1790   23.5250 C   0  0  0  0  0  3  0  0  0  0  0  0
  -21.1310   -6.3540   24.6540 C   0  0  0  0  0  3  0  0  0  0  0  0
  -21.4080   -4.9770   24.5700 C   0  0  0  0  0  0  0  0  0  0  0  0
  -21.8640   -4.4230   23.3610 C   0  0  0  0  0  3  0  0  0  0  0  0
  -22.0350   -5.2440   22.2340 C   0  0  0  0  0  0  0  0  0  0  0  0
  -22.4510   -4.7020   21.0630 F   0  0  0  0  0  0  0  0  0  0  0  0
  -21.2390   -4.1820   25.6520 F   0  0  0  0  0  0  0  0  0  0  0  0
  -23.1790  -13.9830   20.9480 C   0  0  0  0  0  0  0  0  0  0  0  0
  -22.4020  -13.3070   21.7880 N   0  0  0  0  0  0  0  0  0  0  0  0
  -22.7910  -15.0220   20.4150 O   0  0  0  0  0  0  0  0  0  0  0  0
  -22.7250  -12.4640   22.2360 H   0  0  0  0  0  0  0  0  0  0  0  0
  -21.4680  -13.6410   21.9840 H   0  0  0  0  0  0  0  0  0  0  0  0
  -25.8900  -15.5730   20.2480 N   0  0  0  0  0  0  0  0  0  0  0  0
  -25.1460  -16.2550   20.3340 H   0  0  0  0  0  0  0  0  0  0  0  0
  -26.7740  -15.9830   19.9760 H   0  0  0  0  0  0  0  0  0  0  0  0
  -29.8030  -23.2210   21.2320 O   0  0  0  0  0  0  0  0  0  0  0  0
  -30.5950  -24.4120   21.1600 C   0  0  0  0  0  2  0  0  0  0  0  0
  -30.3510  -25.1690   19.8400 C   0  0  0  0  0  2  0  0  0  0  0  0
  -28.9480  -25.7640   19.6440 C   0  0  0  0  0  2  0  0  0  0  0  0
  -28.8310  -27.0540   20.2500 O   0  0  0  0  0  0  0  0  0  0  0  0
  -24.6360  -31.9430   23.2600 C   0  0  0  0  0  0  0  0  0  0  0  0
  -27.6050  -27.6910   20.2010 C   0  0  0  0  0  0  0  0  0  0  0  0
  -23.5590  -30.5250   21.5420 C   0  0  0  0  0  3  0  0  0  0  0  0
  -25.1350  -29.0820   20.1500 C   0  0  0  0  0  0  0  0  0  0  0  0
  -26.0720  -30.9980   21.4550 C   0  0  0  0  0  2  0  0  0  0  0  0
  -26.2440  -29.6470   20.7930 C   0  0  0  0  0  0  0  0  0  0  0  0
  -27.4770  -28.9580   20.8160 C   0  0  0  0  0  3  0  0  0  0  0  0
  -26.4690  -27.1340   19.5650 C   0  0  0  0  0  3  0  0  0  0  0  0
  -25.2420  -27.8230   19.5370 C   0  0  0  0  0  3  0  0  0  0  0  0
  -23.8520  -29.8820   20.1610 C   0  0  0  0  0  2  0  0  0  0  0  0
  -24.7710  -31.1700   22.1450 N   0  0  0  0  0  0  0  0  0  0  0  0
  -23.5220  -32.1540   23.7620 O   0  0  0  0  0  0  0  0  0  0  0  0
  -22.9180  -29.4560   22.4560 C   0  0  0  0  0  0  0  0  0  0  0  0
  -21.6040  -29.2310   22.2830 N   0  0  0  0  0  0  0  0  0  0  0  0
  -23.5990  -28.8300   23.2720 O   0  0  0  0  0  0  0  0  0  0  0  0
  -21.1140  -29.7910   21.5990 H   0  0  0  0  0  0  0  0  0  0  0  0
  -18.2540  -27.9350   22.6750 C   0  0  0  0  0  0  0  0  0  0  0  0
  -20.7990  -28.2440   23.0010 C   0  0  0  0  0  3  0  0  0  0  0  0
  -20.9470  -26.8390   22.3710 C   0  0  0  0  0  2  0  0  0  0  0  0
  -19.8700  -26.5290   21.3270 C   0  0  0  0  0  2  0  0  0  0  0  0
  -18.4750  -26.6180   21.9520 C   0  0  0  0  0  2  0  0  0  0  0  0
  -19.3460  -28.7060   23.1540 C   0  0  0  0  0  0  0  0  0  0  0  0
  -19.0870  -29.9420   23.7870 C   0  0  0  0  0  3  0  0  0  0  0  0
  -17.7680  -30.4070   23.9470 C   0  0  0  0  0  3  0  0  0  0  0  0
  -16.6910  -29.6310   23.4850 C   0  0  0  0  0  3  0  0  0  0  0  0
  -16.9340  -28.3980   22.8560 C   0  0  0  0  0  3  0  0  0  0  0  0
  -25.8670  -32.6150   23.9440 C   0  0  0  0  0  3  0  0  0  0  0  0
  -26.3270  -31.8760   25.2600 C   0  0  1  0  0  0  0  0  0  0  0  0
  -25.1790  -31.6210   26.2640 C   0  0  0  0  0  1  0  0  0  0  0  0
  -26.9730  -30.5120   24.9230 C   0  0  0  0  0  1  0  0  0  0  0  0
  -27.4140  -32.7110   25.9760 C   0  0  0  0  0  1  0  0  0  0  0  0
  -25.5050  -34.0090   24.2320 N   0  0  0  0  0  0  0  0  0  0  0  0
  -25.8530  -35.0560   23.4700 C   0  0  0  0  0  0  0  0  0  0  0  0
  -26.5820  -34.9520   22.4790 O   0  0  0  0  0  0  0  0  0  0  0  0
  -24.8650  -34.1620   24.9960 H   0  0  0  0  0  0  0  0  0  0  0  0
  -24.0970  -36.7900   22.9890 C   0  0  0  0  0  1  0  0  0  0  0  0
  -25.3060  -36.4390   23.8720 C   0  0  0  0  0  3  0  0  0  0  0  0
  -27.3710  -37.4010   24.7890 C   0  0  0  0  0  1  0  0  0  0  0  0
  -26.3150  -37.5170   23.7860 N   0  0  0  0  0  0  0  0  0  0  0  0
  -25.8790  -38.4290   23.8910 H   0  0  0  0  0  0  0  0  0  0  0  0
  1  6  1  0
  2  4  1  0
  3  5  1  0
  3  1  2  0
  4  8  1  0
  5  2  2  0
  6  4  2  0
  6  7  1  0
  8 10  1  0
  9  8  1  0
 11  3  1  0
 12 13  1  0
 13 11  1  0
 15 18  2  0
 15 19  1  0
 16 13  1  0
 16 14  2  0
 17 14  1  0
 17 22  1  0
 18 16  1  0
 19 17  2  0
 20 18  1  0
 21 19  1  0
 23 29  1  0
 23 22  1  0
 24 29  1  0
 25 26  1  0
 25 24  1  0
 27 26  1  0
 27 34  1  0
 27 28  1  0
 29 28  1  0
 30 23  2  0
 31 32  2  0
 32 51  1  0
 33 32  1  0
 33 36  1  0
 34 31  1  0
 34 35  1  0
 35 33  2  0
 36 37  1  0
 37 38  2  0
 39 42  1  0
 39 38  1  0
 40 39  2  0
 41 40  1  0
 41 36  2  0
 42 43  1  0
 43 44  1  0
 44 45  2  0
 46 45  1  0
 46 50  1  0
 47 46  2  0
 48 43  2  0
 48 47  1  0
 49 48  1  0
 51 52  1  0
 52 55  1  0
 52 54  1  0
 53 51  2  0
 56 57  1  0
 56 31  1  0
 58 56  1  0
 59  5  1  0
 60 59  1  0
 61 60  1  0
 62 61  1  0
 62 63  1  0
 64 75  2  0
 65 63  1  0
 65 70  1  0
 66 74  1  0
 66 76  1  0
 67 73  1  0
 67 69  1  0
 68 74  1  0
 69 70  2  0
 69 68  1  0
 71 65  2  0
 72 71  1  0
 72 67  2  0
 73 66  1  0
 74 64  1  0
 76 78  2  0
 77 76  1  0
 79 77  1  0
 80 89  2  0
 80 85  1  0
 81 77  1  0
 81 85  1  0
 82 81  1  0
 83 84  1  0
 83 82  1  0
 84 80  1  0
 85 86  2  0
 86 87  1  0
 88 87  2  0
 89 88  1  0
 90 64  1  0
 90 95  1  0
 90 91  1  0
 91 94  1  1
 91 92  1  0
 93 91  1  0
 95 98  1  0
 96100  1  0
 96 95  1  0
 97 96  2  0
100 99  1  0
102100  1  0
102103  1  0
102101  1  0
M  ISO  4  22 100  23 100  62 101  63 101
M  END
>  <TORSDO>  (29) 
F 25

>  <SCORE>  (29) 
-9.875

>  <name>  (29) 
29

>  <ligand_id>  (29) 
29

>  <original_smiles>  (29) 
[H]c1c([H])c([H])c2c(c1[H])C([H])([H])C([H])([H])C([H])([H])C2([H])N([H])C(=O)C1([H])N(C(=O)C([H])(N([H])C(=O)C([H])(N([H])C([H])([H])[H])C([H])([H])[H])C(C([H])([H])[H])(C([H])([H])[H])C([H])([H])[H])C([H])([H])c2c([H])c(OC([H])([H])C([H])([H])C([H])([H])Oc3c([H])c(N([H])[H])c(Cl)c([H])c3C([H])([H])N(c3c([H])c(OC(=O)N4C([H])([H])C([H])([H])C([H])([H])C([H])(n5nc(-c6c([H])c([H])c(Oc7c([H])c([H])c(F)c([H])c7F)c([H])c6[H])c(C(=O)N([H])[H])c5N([H])[H])C4([H])[H])c(F)c([H])c3F)C([H])([H])[H])c([H])c([H])c2C1([H])[H]

>  <smiles>  (29) 
[H]c1c([H])c([H])c2c(c1[H])C([H])([H])C([H])([H])C([H])([H])C2([H])N([H])C(=O)C1([H])N(C(=O)C([H])(N([H])C(=O)C([H])(N([H])C([H])([H])[H])C([H])([H])[H])C(C([H])([H])[H])(C([H])([H])[H])C([H])([H])[H])C([H])([H])c2c([H])c(OC([H])([H])C([H])([H])C([H])([H])Oc3c([H])c(N([H])[H])c(Cl)c([H])c3C([H])([H])N(c3c([H])c(OC(=O)N4C([H])([H])C([H])([H])C([H])([H])C([H])(n5nc(-c6c([H])c([H])c(Oc7c([H])c([H])c(F)c([H])c7F)c([H])c6[H])c(C(=O)N([H])[H])c5N([H])[H])C4([H])[H])c(F)c([H])c3F)C([H])([H])[H])c([H])c([H])c2C1([H])[H]

$$$$
30:0:0
     RDKit          3D

 91 99  0  0  1  0  0  0  0  0999 V2000
  -29.8850  -21.7980   18.2530 C   0  0  0  0  0  1  0  0  0  0  0  0
  -29.7610  -21.4600   19.6750 N   0  0  0  0  0  0  0  0  0  0  0  0
  -29.1350  -19.3740   20.9770 C   0  0  0  0  0  3  0  0  0  0  0  0
  -29.1970  -17.9540   21.1470 C   0  0  0  0  0  3  0  0  0  0  0  0
  -30.6390  -19.1810   19.1240 C   0  0  0  0  0  3  0  0  0  0  0  0
  -29.8420  -20.0380   19.9400 C   0  0  0  0  0  0  0  0  0  0  0  0
  -29.9710  -17.1040   20.3060 C   0  0  0  0  0  0  0  0  0  0  0  0
  -30.6980  -17.7660   19.2790 C   0  0  0  0  0  0  0  0  0  0  0  0
  -31.4390  -17.0630   18.3900 F   0  0  0  0  0  0  0  0  0  0  0  0
  -30.6520  -14.6020   20.0450 C   0  0  0  0  0  0  0  0  0  0  0  0
  -30.3550  -12.4030   18.9310 C   0  0  0  0  0  2  0  0  0  0  0  0
  -29.3570  -12.6100   17.7720 C   0  0  0  0  0  2  0  0  0  0  0  0
  -27.9040  -12.4500   18.2630 C   0  0  0  0  0  2  0  0  0  0  0  0
  -27.6230  -13.2550   19.5590 C   0  0  0  0  0  3  0  0  0  0  0  0
  -28.7350  -13.0460   20.6110 C   0  0  0  0  0  2  0  0  0  0  0  0
  -30.0210  -13.3890   19.9810 N   0  0  0  0  0  0  0  0  0  0  0  0
  -31.7970  -14.7430   19.6120 O   0  0  0  0  0  0  0  0  0  0  0  0
  -29.8950  -15.6510   20.4990 N   0  0  0  0  0  0  0  0  0  0  0  0
  -29.0510  -15.3430   20.9570 H   0  0  0  0  0  0  0  0  0  0  0  0
  -25.2700  -13.8520   20.3960 C   0  0  0  0  0  0  0  0  0  0  0  0
  -24.2170  -13.0760   20.8040 C   0  0  0  0  0  0  0  0  0  0  0  0
  -24.6720  -11.7240   20.7300 C   0  0  0  0  0  0  0  0  0  0  0  0
  -26.2980  -12.9700   20.1020 N   0  0  0  0  0  0  0  0  0  0  0  0
  -25.9460  -11.6850   20.3640 N   0  0  0  0  0  0  0  0  0  0  0  0
  -23.9480  -10.4610   20.9360 C   0  0  0  0  0  0  0  0  0  0  0  0
  -24.3930   -9.4990   21.8720 C   0  0  0  0  0  3  0  0  0  0  0  0
  -23.6700   -8.3020   22.0650 C   0  0  0  0  0  3  0  0  0  0  0  0
  -22.4910   -8.0570   21.3230 C   0  0  0  0  0  0  0  0  0  0  0  0
  -22.0650   -9.0070   20.3750 C   0  0  0  0  0  3  0  0  0  0  0  0
  -22.7890  -10.1950   20.1800 C   0  0  0  0  0  3  0  0  0  0  0  0
  -21.7380   -6.9110   21.4240 O   0  0  0  0  0  0  0  0  0  0  0  0
  -21.6690   -6.1960   22.5920 C   0  0  0  0  0  0  0  0  0  0  0  0
  -21.1920   -6.7710   23.7910 C   0  0  0  0  0  3  0  0  0  0  0  0
  -21.0720   -5.9830   24.9520 C   0  0  0  0  0  3  0  0  0  0  0  0
  -21.4190   -4.6180   24.9160 C   0  0  0  0  0  0  0  0  0  0  0  0
  -21.8880   -4.0410   23.7220 C   0  0  0  0  0  3  0  0  0  0  0  0
  -22.0110   -4.8280   22.5630 C   0  0  0  0  0  0  0  0  0  0  0  0
  -22.4410   -4.2620   21.4100 F   0  0  0  0  0  0  0  0  0  0  0  0
  -21.2980   -3.8580   26.0290 F   0  0  0  0  0  0  0  0  0  0  0  0
  -22.8370  -13.5530   21.1470 C   0  0  0  0  0  0  0  0  0  0  0  0
  -22.1490  -12.8490   22.0380 N   0  0  0  0  0  0  0  0  0  0  0  0
  -22.3760  -14.5840   20.6590 O   0  0  0  0  0  0  0  0  0  0  0  0
  -22.5340  -12.0150   22.4570 H   0  0  0  0  0  0  0  0  0  0  0  0
  -21.2230  -13.1480   22.3060 H   0  0  0  0  0  0  0  0  0  0  0  0
  -25.4340  -15.2250   20.2300 N   0  0  0  0  0  0  0  0  0  0  0  0
  -24.6800  -15.8890   20.3720 H   0  0  0  0  0  0  0  0  0  0  0  0
  -26.2720  -15.6610   19.8660 H   0  0  0  0  0  0  0  0  0  0  0  0
  -28.9470  -22.4370   20.4610 C   0  0  0  0  0  2  0  0  0  0  0  0
  -29.3620  -23.9790   20.3670 C   0  0  0  0  0  3  0  0  0  0  0  0
  -28.1870  -25.0140   20.1220 C   0  0  0  0  0  3  0  0  0  0  0  0
  -28.4210  -26.4700   20.2240 O   0  0  0  0  0  0  0  0  0  0  0  0
  -24.6160  -31.8300   23.1820 C   0  0  0  0  0  0  0  0  0  0  0  0
  -27.2960  -27.3070   20.1510 C   0  0  0  0  0  0  0  0  0  0  0  0
  -23.4410  -30.4320   21.5210 C   0  0  0  0  0  3  0  0  0  0  0  0
  -24.9180  -28.9000   20.1070 C   0  0  0  0  0  0  0  0  0  0  0  0
  -25.9810  -30.7660   21.3760 C   0  0  0  0  0  2  0  0  0  0  0  0
  -26.0760  -29.3950   20.7220 C   0  0  0  0  0  0  0  0  0  0  0  0
  -27.2680  -28.6130   20.7300 C   0  0  0  0  0  3  0  0  0  0  0  0
  -26.1130  -26.8670   19.5100 C   0  0  0  0  0  3  0  0  0  0  0  0
  -24.9410  -27.6420   19.4860 C   0  0  0  0  0  3  0  0  0  0  0  0
  -23.6730  -29.7620   20.1410 C   0  0  0  0  0  2  0  0  0  0  0  0
  -24.6960  -31.0250   22.0830 N   0  0  0  0  0  0  0  0  0  0  0  0
  -23.5240  -32.1040   23.6990 O   0  0  0  0  0  0  0  0  0  0  0  0
  -22.7660  -29.4100   22.4680 C   0  0  0  0  0  0  0  0  0  0  0  0
  -21.4380  -29.2570   22.3410 N   0  0  0  0  0  0  0  0  0  0  0  0
  -23.4370  -28.7600   23.2740 O   0  0  0  0  0  0  0  0  0  0  0  0
  -20.9580  -29.8310   21.6610 H   0  0  0  0  0  0  0  0  0  0  0  0
  -18.0350  -28.1480   22.8640 C   0  0  0  0  0  0  0  0  0  0  0  0
  -20.6020  -28.3230   23.0990 C   0  0  0  0  0  3  0  0  0  0  0  0
  -20.6530  -26.9060   22.4820 C   0  0  0  0  0  2  0  0  0  0  0  0
  -19.5270  -26.6450   21.4780 C   0  0  0  0  0  2  0  0  0  0  0  0
  -18.1600  -26.8130   22.1480 C   0  0  0  0  0  2  0  0  0  0  0  0
  -19.1810  -28.8650   23.2950 C   0  0  0  0  0  0  0  0  0  0  0  0
  -19.0100  -30.1180   23.9250 C   0  0  0  0  0  3  0  0  0  0  0  0
  -17.7240  -30.6510   24.1270 C   0  0  0  0  0  3  0  0  0  0  0  0
  -16.5910  -29.9300   23.7120 C   0  0  0  0  0  3  0  0  0  0  0  0
  -16.7480  -28.6800   23.0850 C   0  0  0  0  0  3  0  0  0  0  0  0
  -25.8890  -32.4600   23.8270 C   0  0  0  0  0  3  0  0  0  0  0  0
  -26.3960  -31.6710   25.0980 C   0  0  1  0  0  0  0  0  0  0  0  0
  -25.2920  -31.4080   26.1470 C   0  0  0  0  0  1  0  0  0  0  0  0
  -26.9960  -30.3050   24.6930 C   0  0  0  0  0  1  0  0  0  0  0  0
  -27.5360  -32.4640   25.7820 C   0  0  0  0  0  1  0  0  0  0  0  0
  -25.5650  -33.8490   24.1760 N   0  0  0  0  0  0  0  0  0  0  0  0
  -25.8860  -34.9160   23.4300 C   0  0  0  0  0  0  0  0  0  0  0  0
  -26.5550  -34.8330   22.3970 O   0  0  0  0  0  0  0  0  0  0  0  0
  -24.9660  -33.9850   24.9770 H   0  0  0  0  0  0  0  0  0  0  0  0
  -24.1380  -36.6970   23.1040 C   0  0  0  0  0  1  0  0  0  0  0  0
  -25.3850  -36.2940   23.9080 C   0  0  0  0  0  3  0  0  0  0  0  0
  -27.5100  -37.1910   24.7470 C   0  0  0  0  0  1  0  0  0  0  0  0
  -26.4080  -37.3590   23.8040 N   0  0  0  0  0  0  0  0  0  0  0  0
  -25.9930  -38.2730   23.9610 H   0  0  0  0  0  0  0  0  0  0  0  0
  1  2  1  0
  2  6  1  0
  2 48  1  0
  3  4  1  0
  5  8  2  0
  5  6  1  0
  6  3  2  0
  7 18  1  0
  7  4  2  0
  8  7  1  0
  9  8  1  0
 10 18  1  0
 11 16  1  0
 12 13  1  0
 12 11  1  0
 14 13  1  0
 14 23  1  0
 14 15  1  0
 16 10  1  0
 16 15  1  0
 17 10  2  0
 18 19  1  0
 20 21  2  0
 21 40  1  0
 22 21  1  0
 22 25  1  0
 23 24  1  0
 23 20  1  0
 24 22  2  0
 25 26  1  0
 26 27  2  0
 28 31  1  0
 28 27  1  0
 29 28  2  0
 30 29  1  0
 30 25  2  0
 31 32  1  0
 32 33  1  0
 33 34  2  0
 35 34  1  0
 35 39  1  0
 36 35  2  0
 37 32  2  0
 37 36  1  0
 38 37  1  0
 40 41  1  0
 41 44  1  0
 41 43  1  0
 42 40  2  0
 45 46  1  0
 45 20  1  0
 47 45  1  0
 49 48  1  0
 50 51  1  0
 50 49  2  0
 52 63  2  0
 53 51  1  0
 53 58  1  0
 54 62  1  0
 54 64  1  0
 55 61  1  0
 55 57  1  0
 56 62  1  0
 57 58  2  0
 57 56  1  0
 59 53  2  0
 60 59  1  0
 60 55  2  0
 61 54  1  0
 62 52  1  0
 64 66  2  0
 65 64  1  0
 67 65  1  0
 68 77  2  0
 68 73  1  0
 69 65  1  0
 69 73  1  0
 70 69  1  0
 71 72  1  0
 71 70  1  0
 72 68  1  0
 73 74  2  0
 74 75  1  0
 76 75  2  0
 77 76  1  0
 78 52  1  0
 78 83  1  0
 78 79  1  0
 79 82  1  1
 79 80  1  0
 81 79  1  0
 83 86  1  0
 84 88  1  0
 84 83  1  0
 85 84  2  0
 88 87  1  0
 90 88  1  0
 90 91  1  0
 90 89  1  0
M  ISO  4  10 100  18 100  50 101  51 101
M  END
>  <TORSDO>  (30) 
F 20

>  <SCORE>  (30) 
-13.417

>  <name>  (30) 
30

>  <ligand_id>  (30) 
30

>  <original_smiles>  (30) 
[H]c1c([H])c([H])c2c(c1[H])C([H])([H])C([H])([H])C([H])([H])C2([H])N([H])C(=O)C1([H])N(C(=O)C([H])(N([H])C(=O)C([H])(N([H])C([H])([H])[H])C([H])([H])[H])C(C([H])([H])[H])(C([H])([H])[H])C([H])([H])[H])C([H])([H])c2c([H])c(OC([H])([H])C([H])([H])C([H])([H])N(c3c([H])c([H])c(N([H])C(=O)N4C([H])([H])C([H])([H])C([H])([H])C([H])(n5nc(-c6c([H])c([H])c(Oc7c([H])c([H])c(F)c([H])c7F)c([H])c6[H])c(C(=O)N([H])[H])c5N([H])[H])C4([H])[H])c(F)c3[H])C([H])([H])[H])c([H])c([H])c2C1([H])[H]

>  <smiles>  (30) 
[H]c1c([H])c([H])c2c(c1[H])C([H])([H])C([H])([H])C([H])([H])C2([H])N([H])C(=O)C1([H])N(C(=O)C([H])(N([H])C(=O)C([H])(N([H])C([H])([H])[H])C([H])([H])[H])C(C([H])([H])[H])(C([H])([H])[H])C([H])([H])[H])C([H])([H])c2c([H])c(OC([H])([H])C([H])([H])C([H])([H])N(c3c([H])c([H])c(N([H])C(=O)N4C([H])([H])C([H])([H])C([H])([H])C([H])(n5nc(-c6c([H])c([H])c(Oc7c([H])c([H])c(F)c([H])c7F)c([H])c6[H])c(C(=O)N([H])[H])c5N([H])[H])C4([H])[H])c(F)c3[H])C([H])([H])[H])c([H])c([H])c2C1([H])[H]

$$$$
31:0:0
     RDKit          3D

 93102  0  0  1  0  0  0  0  0999 V2000
  -28.2120  -23.1230   20.5950 C   0  0  0  0  0  2  0  0  0  0  0  0
  -30.1050  -23.7340   20.1980 C   0  0  0  0  0  2  0  0  0  0  0  0
  -29.0300  -24.3080   21.1390 C   0  0  0  0  0  3  0  0  0  0  0  0
  -29.4970  -22.4020   20.4260 N   0  0  2  0  0  4  0  0  0  0  0  0
  -29.8150  -22.0250   21.3050 H   0  0  0  0  0  0  0  0  0  0  0  0
  -29.5970  -21.3720   19.3390 C   0  0  0  0  0  2  0  0  0  0  0  0
  -31.0170  -19.2030   19.4270 C   0  0  0  0  0  3  0  0  0  0  0  0
  -31.1730  -17.8060   19.6390 C   0  0  0  0  0  3  0  0  0  0  0  0
  -28.7870  -19.1090   20.3450 C   0  0  0  0  0  3  0  0  0  0  0  0
  -29.8160  -19.8840   19.7540 C   0  0  0  0  0  0  0  0  0  0  0  0
  -30.1260  -17.0250   20.1930 C   0  0  0  0  0  0  0  0  0  0  0  0
  -28.9410  -17.7140   20.5660 C   0  0  0  0  0  0  0  0  0  0  0  0
  -27.6300  -16.8380   21.2750 Cl  0  0  0  0  0  0  0  0  0  0  0  0
  -30.8170  -14.6090   19.6860 C   0  0  0  0  0  0  0  0  0  0  0  0
  -30.4180  -12.4880   18.4730 C   0  0  0  0  0  2  0  0  0  0  0  0
  -29.3500  -12.7470   17.3880 C   0  0  0  0  0  2  0  0  0  0  0  0
  -27.9280  -12.5860   17.9650 C   0  0  0  0  0  2  0  0  0  0  0  0
  -27.7350  -13.3530   19.3010 C   0  0  0  0  0  3  0  0  0  0  0  0
  -28.9010  -13.0670   20.2750 C   0  0  0  0  0  2  0  0  0  0  0  0
  -30.1590  -13.4160   19.5900 N   0  0  0  0  0  0  0  0  0  0  0  0
  -31.8960  -14.8070   19.1210 O   0  0  0  0  0  0  0  0  0  0  0  0
  -30.1520  -15.5840   20.3570 N   0  0  0  0  0  0  0  0  0  0  0  0
  -29.3810  -15.2340   20.9070 H   0  0  0  0  0  0  0  0  0  0  0  0
  -25.4400  -13.9390   20.3060 C   0  0  0  0  0  0  0  0  0  0  0  0
  -24.4040  -13.1570   20.7390 C   0  0  0  0  0  0  0  0  0  0  0  0
  -24.8320  -11.8050   20.5660 C   0  0  0  0  0  0  0  0  0  0  0  0
  -26.4370  -13.0620   19.9050 N   0  0  0  0  0  0  0  0  0  0  0  0
  -26.0810  -11.7700   20.1170 N   0  0  0  0  0  0  0  0  0  0  0  0
  -24.1040  -10.5420   20.7480 C   0  0  0  0  0  0  0  0  0  0  0  0
  -24.5530   -9.5540   21.6510 C   0  0  0  0  0  3  0  0  0  0  0  0
  -23.8260   -8.3560   21.8200 C   0  0  0  0  0  3  0  0  0  0  0  0
  -22.6350   -8.1380   21.0870 C   0  0  0  0  0  0  0  0  0  0  0  0
  -22.2040   -9.1160   20.1730 C   0  0  0  0  0  3  0  0  0  0  0  0
  -22.9320  -10.3050   20.0010 C   0  0  0  0  0  3  0  0  0  0  0  0
  -21.8780   -6.9940   21.1690 O   0  0  0  0  0  0  0  0  0  0  0  0
  -21.7750   -6.2810   22.3360 C   0  0  0  0  0  0  0  0  0  0  0  0
  -21.2780   -6.8620   23.5230 C   0  0  0  0  0  3  0  0  0  0  0  0
  -21.1240   -6.0730   24.6800 C   0  0  0  0  0  3  0  0  0  0  0  0
  -21.4570   -4.7050   24.6530 C   0  0  0  0  0  0  0  0  0  0  0  0
  -21.9470   -4.1250   23.4700 C   0  0  0  0  0  3  0  0  0  0  0  0
  -22.1030   -4.9100   22.3140 C   0  0  0  0  0  0  0  0  0  0  0  0
  -22.5560   -4.3400   21.1710 F   0  0  0  0  0  0  0  0  0  0  0  0
  -21.3020   -3.9460   25.7620 F   0  0  0  0  0  0  0  0  0  0  0  0
  -23.0560  -13.6330   21.1970 C   0  0  0  0  0  0  0  0  0  0  0  0
  -22.4220  -12.8980   22.1050 N   0  0  0  0  0  0  0  0  0  0  0  0
  -22.5770  -14.6890   20.7860 O   0  0  0  0  0  0  0  0  0  0  0  0
  -22.8240  -12.0430   22.4580 H   0  0  0  0  0  0  0  0  0  0  0  0
  -21.5210  -13.1970   22.4510 H   0  0  0  0  0  0  0  0  0  0  0  0
  -25.6110  -15.3140   20.1990 N   0  0  0  0  0  0  0  0  0  0  0  0
  -24.8830  -15.9700   20.4570 H   0  0  0  0  0  0  0  0  0  0  0  0
  -26.4450  -15.7660   19.8500 H   0  0  0  0  0  0  0  0  0  0  0  0
  -28.5500  -25.7990   21.2210 C   0  0  0  0  0  2  0  0  0  0  0  0
  -28.3150  -26.5580   20.0170 O   0  0  0  0  0  0  0  0  0  0  0  0
  -24.3450  -31.7510   23.0200 C   0  0  0  0  0  0  0  0  0  0  0  0
  -27.1620  -27.3260   20.0290 C   0  0  0  0  0  0  0  0  0  0  0  0
  -23.1960  -30.2580   21.4190 C   0  0  0  0  0  3  0  0  0  0  0  0
  -24.7110  -28.7510   20.0180 C   0  0  0  0  0  0  0  0  0  0  0  0
  -25.7060  -30.7150   21.2000 C   0  0  0  0  0  2  0  0  0  0  0  0
  -25.8500  -29.3290   20.5950 C   0  0  0  0  0  0  0  0  0  0  0  0
  -27.0820  -28.6220   20.6040 C   0  0  0  0  0  3  0  0  0  0  0  0
  -26.0090  -26.7760   19.4390 C   0  0  0  0  0  3  0  0  0  0  0  0
  -24.7860  -27.4730   19.4380 C   0  0  0  0  0  3  0  0  0  0  0  0
  -23.4300  -29.5570   20.0530 C   0  0  0  0  0  2  0  0  0  0  0  0
  -24.4340  -30.9250   21.9370 N   0  0  0  0  0  0  0  0  0  0  0  0
  -23.2560  -31.9860   23.5610 O   0  0  0  0  0  0  0  0  0  0  0  0
  -22.5920  -29.2320   22.4060 C   0  0  0  0  0  0  0  0  0  0  0  0
  -21.2760  -28.9890   22.2930 N   0  0  0  0  0  0  0  0  0  0  0  0
  -23.3060  -28.6570   23.2320 O   0  0  0  0  0  0  0  0  0  0  0  0
  -20.7580  -29.5050   21.5960 H   0  0  0  0  0  0  0  0  0  0  0  0
  -17.9630  -27.6530   22.8410 C   0  0  0  0  0  0  0  0  0  0  0  0
  -20.5070  -28.0330   23.0900 C   0  0  0  0  0  3  0  0  0  0  0  0
  -20.6740  -26.5950   22.5460 C   0  0  0  0  0  2  0  0  0  0  0  0
  -19.5830  -26.2000   21.5470 C   0  0  0  0  0  2  0  0  0  0  0  0
  -18.1980  -26.2980   22.1940 C   0  0  0  0  0  2  0  0  0  0  0  0
  -19.0480  -28.4750   23.2470 C   0  0  0  0  0  0  0  0  0  0  0  0
  -18.7760  -29.7410   23.8100 C   0  0  0  0  0  3  0  0  0  0  0  0
  -17.4500  -30.1870   23.9710 C   0  0  0  0  0  3  0  0  0  0  0  0
  -16.3800  -29.3640   23.5810 C   0  0  0  0  0  3  0  0  0  0  0  0
  -16.6370  -28.0990   23.0210 C   0  0  0  0  0  3  0  0  0  0  0  0
  -25.6050  -32.4530   23.6160 C   0  0  0  0  0  3  0  0  0  0  0  0
  -26.2070  -31.6950   24.8630 C   0  0  1  0  0  0  0  0  0  0  0  0
  -25.1590  -31.3560   25.9480 C   0  0  0  0  0  1  0  0  0  0  0  0
  -26.8800  -30.3730   24.4250 C   0  0  0  0  0  1  0  0  0  0  0  0
  -27.3130  -32.5580   25.5170 C   0  0  0  0  0  1  0  0  0  0  0  0
  -25.2180  -33.8240   23.9780 N   0  0  0  0  0  0  0  0  0  0  0  0
  -25.4610  -34.9050   23.2260 C   0  0  0  0  0  0  0  0  0  0  0  0
  -26.1050  -34.8590   22.1740 O   0  0  0  0  0  0  0  0  0  0  0  0
  -24.6420  -33.9300   24.8000 H   0  0  0  0  0  0  0  0  0  0  0  0
  -23.6220  -36.5960   22.9350 C   0  0  0  0  0  1  0  0  0  0  0  0
  -24.9010  -36.2540   23.7180 C   0  0  0  0  0  3  0  0  0  0  0  0
  -26.9930  -37.2510   24.5320 C   0  0  0  0  0  1  0  0  0  0  0  0
  -25.8670  -37.3690   23.6080 N   0  0  0  0  0  0  0  0  0  0  0  0
  -25.4100  -38.2610   23.7780 H   0  0  0  0  0  0  0  0  0  0  0  0
  1  3  1  0
  2  4  1  0
  2  3  1  0
  3 52  1  0
  4  1  1  0
  4  5  1  1
  6 10  1  0
  6  4  1  0
  7  8  2  0
  7 10  1  0
  8 11  1  0
  9 12  1  0
 10  9  2  0
 11 22  1  0
 11 12  2  0
 12 13  1  0
 14 22  1  0
 15 20  1  0
 16 17  1  0
 16 15  1  0
 18 17  1  0
 18 27  1  0
 18 19  1  0
 20 14  1  0
 20 19  1  0
 21 14  2  0
 22 23  1  0
 24 25  2  0
 25 44  1  0
 26 25  1  0
 26 29  1  0
 27 28  1  0
 27 24  1  0
 28 26  2  0
 29 30  1  0
 30 31  2  0
 32 35  1  0
 32 31  1  0
 33 32  2  0
 34 33  1  0
 34 29  2  0
 35 36  1  0
 36 37  1  0
 37 38  2  0
 39 38  1  0
 39 43  1  0
 40 39  2  0
 41 36  2  0
 41 40  1  0
 42 41  1  0
 44 45  1  0
 45 48  1  0
 45 47  1  0
 46 44  2  0
 49 24  1  0
 49 50  1  0
 51 49  1  0
 53 55  1  0
 53 52  1  0
 54 65  2  0
 55 60  1  0
 56 64  1  0
 56 66  1  0
 57 63  1  0
 57 59  1  0
 58 64  1  0
 59 60  2  0
 59 58  1  0
 61 55  2  0
 62 61  1  0
 62 57  2  0
 63 56  1  0
 64 54  1  0
 66 68  2  0
 67 66  1  0
 69 67  1  0
 70 79  2  0
 70 75  1  0
 71 67  1  0
 71 75  1  0
 72 71  1  0
 73 74  1  0
 73 72  1  0
 74 70  1  0
 75 76  2  0
 76 77  1  0
 78 77  2  0
 79 78  1  0
 80 54  1  0
 80 85  1  0
 80 81  1  0
 81 84  1  1
 81 82  1  0
 83 81  1  0
 85 88  1  0
 86 90  1  0
 86 85  1  0
 87 86  2  0
 90 89  1  0
 92 90  1  0
 92 93  1  0
 92 91  1  0
M  ISO  4  14 100  22 100  52 101  53 101
M  END
>  <TORSDO>  (31) 
F 19

>  <SCORE>  (31) 
-11.958

>  <name>  (31) 
31

>  <ligand_id>  (31) 
31

>  <original_smiles>  (31) 
[H]c1c([H])c([H])c2c(c1[H])C([H])([H])C([H])([H])C([H])([H])C2([H])N([H])C(=O)C1([H])N(C(=O)C([H])(N([H])C(=O)C([H])(N([H])C([H])([H])[H])C([H])([H])[H])C(C([H])([H])[H])(C([H])([H])[H])C([H])([H])[H])C([H])([H])c2c([H])c(OC([H])([H])C3([H])C([H])([H])[N+]([H])(C([H])([H])c4c([H])c([H])c(N([H])C(=O)N5C([H])([H])C([H])([H])C([H])([H])C([H])(n6nc(-c7c([H])c([H])c(Oc8c([H])c([H])c(F)c([H])c8F)c([H])c7[H])c(C(=O)N([H])[H])c6N([H])[H])C5([H])[H])c(Cl)c4[H])C3([H])[H])c([H])c([H])c2C1([H])[H]

>  <smiles>  (31) 
[H]c1c([H])c([H])c2c(c1[H])C([H])([H])C([H])([H])C([H])([H])C2([H])N([H])C(=O)C1([H])N(C(=O)C([H])(N([H])C(=O)C([H])(N([H])C([H])([H])[H])C([H])([H])[H])C(C([H])([H])[H])(C([H])([H])[H])C([H])([H])[H])C([H])([H])c2c([H])c(OC([H])([H])C3([H])C([H])([H])[N+]([H])(C([H])([H])c4c([H])c([H])c(N([H])C(=O)N5C([H])([H])C([H])([H])C([H])([H])C([H])(n6nc(-c7c([H])c([H])c(Oc8c([H])c([H])c(F)c([H])c8F)c([H])c7[H])c(C(=O)N([H])[H])c6N([H])[H])C5([H])[H])c(Cl)c4[H])C3([H])[H])c([H])c([H])c2C1([H])[H]

$$$$
32:0:0
     RDKit          3D

 89 97  0  0  1  0  0  0  0  0999 V2000
  -30.5460  -18.6110   20.2210 C   0  0  0  0  0  3  0  0  0  0  0  0
  -30.2410  -20.0490   20.1530 C   0  0  0  0  0  3  0  0  0  0  0  0
  -27.9440  -19.5450   20.2350 C   0  0  0  0  0  3  0  0  0  0  0  0
  -29.5460  -17.5730   20.3030 C   0  0  0  0  0  0  0  0  0  0  0  0
  -28.9050  -20.5990   20.1510 C   0  0  0  0  0  0  0  0  0  0  0  0
  -28.2360  -18.1370   20.3130 C   0  0  0  0  0  0  0  0  0  0  0  0
  -27.1940  -17.2770   20.3970 F   0  0  0  0  0  0  0  0  0  0  0  0
  -30.4790  -14.9550   20.1290 C   0  0  0  0  0  0  0  0  0  0  0  0
  -30.3510  -12.6130   19.1660 C   0  0  0  0  0  2  0  0  0  0  0  0
  -29.3720  -12.5990   17.9670 C   0  0  0  0  0  2  0  0  0  0  0  0
  -27.9180  -12.4040   18.4410 C   0  0  0  0  0  2  0  0  0  0  0  0
  -27.5580  -13.3160   19.6440 C   0  0  0  0  0  3  0  0  0  0  0  0
  -28.6500  -13.2740   20.7360 C   0  0  0  0  0  2  0  0  0  0  0  0
  -29.9140  -13.6830   20.1040 N   0  0  0  0  0  0  0  0  0  0  0  0
  -31.6550  -15.0810   19.7700 O   0  0  0  0  0  0  0  0  0  0  0  0
  -29.6270  -16.0470   20.4000 N   0  0  0  0  0  0  0  0  0  0  0  0
  -28.7250  -15.6830   20.6710 H   0  0  0  0  0  0  0  0  0  0  0  0
  -25.1940  -13.9040   20.4450 C   0  0  0  0  0  0  0  0  0  0  0  0
  -24.1370  -13.1330   20.8380 C   0  0  0  0  0  0  0  0  0  0  0  0
  -24.5940  -11.7800   20.7890 C   0  0  0  0  0  0  0  0  0  0  0  0
  -26.2300  -13.0240   20.1760 N   0  0  0  0  0  0  0  0  0  0  0  0
  -25.8770  -11.7400   20.4460 N   0  0  0  0  0  0  0  0  0  0  0  0
  -23.8650  -10.5230   20.9920 C   0  0  0  0  0  0  0  0  0  0  0  0
  -24.3170   -9.5480   21.9100 C   0  0  0  0  0  3  0  0  0  0  0  0
  -23.5870   -8.3550   22.1020 C   0  0  0  0  0  3  0  0  0  0  0  0
  -22.3920   -8.1280   21.3780 C   0  0  0  0  0  0  0  0  0  0  0  0
  -21.9590   -9.0920   20.4510 C   0  0  0  0  0  3  0  0  0  0  0  0
  -22.6900  -10.2770   20.2560 C   0  0  0  0  0  3  0  0  0  0  0  0
  -21.6330   -6.9880   21.4810 O   0  0  0  0  0  0  0  0  0  0  0  0
  -21.6050   -6.2440   22.6330 C   0  0  0  0  0  0  0  0  0  0  0  0
  -21.2010   -6.7960   23.8670 C   0  0  0  0  0  3  0  0  0  0  0  0
  -21.1210   -5.9770   25.0120 C   0  0  0  0  0  3  0  0  0  0  0  0
  -21.4330   -4.6080   24.9230 C   0  0  0  0  0  0  0  0  0  0  0  0
  -21.8300   -4.0550   23.6920 C   0  0  0  0  0  3  0  0  0  0  0  0
  -21.9130   -4.8710   22.5500 C   0  0  0  0  0  0  0  0  0  0  0  0
  -22.2750   -4.3280   21.3630 F   0  0  0  0  0  0  0  0  0  0  0  0
  -21.3480   -3.8200   26.0200 F   0  0  0  0  0  0  0  0  0  0  0  0
  -22.7500  -13.6170   21.1520 C   0  0  0  0  0  0  0  0  0  0  0  0
  -22.0480  -12.9280   22.0450 N   0  0  0  0  0  0  0  0  0  0  0  0
  -22.3010  -14.6440   20.6440 O   0  0  0  0  0  0  0  0  0  0  0  0
  -22.4240  -12.0990   22.4790 H   0  0  0  0  0  0  0  0  0  0  0  0
  -21.1200  -13.2360   22.2990 H   0  0  0  0  0  0  0  0  0  0  0  0
  -25.3460  -15.2740   20.2760 N   0  0  0  0  0  0  0  0  0  0  0  0
  -24.5840  -15.9140   20.4630 H   0  0  0  0  0  0  0  0  0  0  0  0
  -26.2120  -15.7600   20.0740 H   0  0  0  0  0  0  0  0  0  0  0  0
  -28.3840  -21.9650   20.0490 O   0  0  0  0  0  0  0  0  0  0  0  0
  -29.0000  -23.3650   20.1000 C   0  0  0  0  0  3  0  0  0  0  0  0
  -28.0120  -24.7130   19.8800 C   0  0  0  0  0  3  0  0  0  0  0  0
  -28.2930  -26.2290   20.0810 O   0  0  0  0  0  0  0  0  0  0  0  0
  -24.6330  -31.8210   23.1810 C   0  0  0  0  0  0  0  0  0  0  0  0
  -27.2260  -27.2010   20.0390 C   0  0  0  0  0  0  0  0  0  0  0  0
  -23.4360  -30.4670   21.5040 C   0  0  0  0  0  3  0  0  0  0  0  0
  -24.8900  -28.9320   20.0450 C   0  0  0  0  0  0  0  0  0  0  0  0
  -25.9900  -30.7420   21.3520 C   0  0  0  0  0  2  0  0  0  0  0  0
  -26.0680  -29.3680   20.6650 C   0  0  0  0  0  0  0  0  0  0  0  0
  -27.2360  -28.5200   20.6450 C   0  0  0  0  0  3  0  0  0  0  0  0
  -26.0190  -26.8630   19.3860 C   0  0  0  0  0  3  0  0  0  0  0  0
  -24.8780  -27.6930   19.3910 C   0  0  0  0  0  3  0  0  0  0  0  0
  -23.6610  -29.8260   20.1100 C   0  0  0  0  0  2  0  0  0  0  0  0
  -24.7060  -31.0300   22.0680 N   0  0  0  0  0  0  0  0  0  0  0  0
  -23.5450  -32.0930   23.7130 O   0  0  0  0  0  0  0  0  0  0  0  0
  -22.7570  -29.4350   22.4380 C   0  0  0  0  0  0  0  0  0  0  0  0
  -21.4250  -29.2850   22.3200 N   0  0  0  0  0  0  0  0  0  0  0  0
  -23.4290  -28.7740   23.2330 O   0  0  0  0  0  0  0  0  0  0  0  0
  -20.9390  -29.8710   21.6550 H   0  0  0  0  0  0  0  0  0  0  0  0
  -18.0300  -28.1400   22.8450 C   0  0  0  0  0  0  0  0  0  0  0  0
  -20.5990  -28.3340   23.0680 C   0  0  0  0  0  3  0  0  0  0  0  0
  -20.6560  -26.9260   22.4340 C   0  0  0  0  0  2  0  0  0  0  0  0
  -19.5270  -26.6710   21.4290 C   0  0  0  0  0  2  0  0  0  0  0  0
  -18.1620  -26.8190   22.1080 C   0  0  0  0  0  2  0  0  0  0  0  0
  -19.1730  -28.8600   23.2820 C   0  0  0  0  0  0  0  0  0  0  0  0
  -18.9940  -30.1000   23.9330 C   0  0  0  0  0  3  0  0  0  0  0  0
  -17.7040  -30.6200   24.1510 C   0  0  0  0  0  3  0  0  0  0  0  0
  -16.5750  -29.8960   23.7290 C   0  0  0  0  0  3  0  0  0  0  0  0
  -16.7390  -28.6580   23.0810 C   0  0  0  0  0  3  0  0  0  0  0  0
  -25.9100  -32.4410   23.8260 C   0  0  0  0  0  3  0  0  0  0  0  0
  -26.4050  -31.6510   25.1000 C   0  0  1  0  0  0  0  0  0  0  0  0
  -25.2980  -31.4130   26.1540 C   0  0  0  0  0  1  0  0  0  0  0  0
  -26.9800  -30.2730   24.7020 C   0  0  0  0  0  1  0  0  0  0  0  0
  -27.5560  -32.4270   25.7810 C   0  0  0  0  0  1  0  0  0  0  0  0
  -25.6030  -33.8370   24.1750 N   0  0  0  0  0  0  0  0  0  0  0  0
  -25.9270  -34.9010   23.4290 C   0  0  0  0  0  0  0  0  0  0  0  0
  -26.5820  -34.8090   22.3880 O   0  0  0  0  0  0  0  0  0  0  0  0
  -25.0210  -33.9810   24.9880 H   0  0  0  0  0  0  0  0  0  0  0  0
  -24.1860  -36.6940   23.1380 C   0  0  0  0  0  1  0  0  0  0  0  0
  -25.4500  -36.2840   23.9120 C   0  0  0  0  0  3  0  0  0  0  0  0
  -27.6020  -37.1710   24.6960 C   0  0  0  0  0  1  0  0  0  0  0  0
  -26.4770  -37.3420   23.7800 N   0  0  0  0  0  0  0  0  0  0  0  0
  -26.0720  -38.2600   23.9440 H   0  0  0  0  0  0  0  0  0  0  0  0
  1  4  1  0
  2  1  2  0
  3  6  1  0
  4  6  2  0
  4 16  1  0
  5  2  1  0
  5  3  2  0
  6  7  1  0
  8 16  1  0
  9 14  1  0
 10 11  1  0
 10  9  1  0
 12 11  1  0
 12 21  1  0
 12 13  1  0
 14  8  1  0
 14 13  1  0
 15  8  2  0
 16 17  1  0
 18 19  2  0
 19 38  1  0
 20 19  1  0
 20 23  1  0
 21 18  1  0
 21 22  1  0
 22 20  2  0
 23 24  1  0
 24 25  2  0
 26 29  1  0
 26 25  1  0
 27 26  2  0
 28 27  1  0
 28 23  2  0
 29 30  1  0
 30 31  1  0
 31 32  2  0
 33 32  1  0
 33 37  1  0
 34 33  2  0
 35 30  2  0
 35 34  1  0
 36 35  1  0
 38 39  1  0
 39 42  1  0
 39 41  1  0
 40 38  2  0
 43 18  1  0
 43 44  1  0
 45 43  1  0
 46 47  1  0
 46  5  1  0
 48 49  1  0
 48 47  2  0
 50 61  2  0
 51 49  1  0
 51 56  1  0
 52 60  1  0
 52 62  1  0
 53 59  1  0
 53 55  1  0
 54 60  1  0
 55 54  1  0
 56 55  2  0
 57 58  1  0
 57 51  2  0
 58 53  2  0
 59 52  1  0
 60 50  1  0
 62 64  2  0
 63 62  1  0
 65 63  1  0
 66 75  2  0
 66 71  1  0
 67 63  1  0
 67 71  1  0
 68 67  1  0
 69 70  1  0
 69 68  1  0
 70 66  1  0
 71 72  2  0
 72 73  1  0
 74 73  2  0
 75 74  1  0
 76 50  1  0
 76 81  1  0
 76 77  1  0
 77 80  1  1
 77 78  1  0
 79 77  1  0
 81 84  1  0
 82 86  1  0
 82 81  1  0
 83 82  2  0
 86 85  1  0
 88 86  1  0
 88 89  1  0
 88 87  1  0
M  ISO  4   8 100  16 100  48 101  49 101
M  END
>  <TORSDO>  (32) 
F 19

>  <SCORE>  (32) 
-14.356

>  <name>  (32) 
32

>  <ligand_id>  (32) 
32

>  <original_smiles>  (32) 
[H]c1c([H])c([H])c2c(c1[H])C([H])([H])C([H])([H])C([H])([H])C2([H])N([H])C(=O)C1([H])N(C(=O)C([H])(N([H])C(=O)C([H])(N([H])C([H])([H])[H])C([H])([H])[H])C(C([H])([H])[H])(C([H])([H])[H])C([H])([H])[H])C([H])([H])c2c([H])c(OC([H])([H])C([H])([H])Oc3c([H])c([H])c(N([H])C(=O)N4C([H])([H])C([H])([H])C([H])([H])C([H])(n5nc(-c6c([H])c([H])c(Oc7c([H])c([H])c(F)c([H])c7F)c([H])c6[H])c(C(=O)N([H])[H])c5N([H])[H])C4([H])[H])c(F)c3[H])c([H])c([H])c2C1([H])[H]

>  <smiles>  (32) 
[H]c1c([H])c([H])c2c(c1[H])C([H])([H])C([H])([H])C([H])([H])C2([H])N([H])C(=O)C1([H])N(C(=O)C([H])(N([H])C(=O)C([H])(N([H])C([H])([H])[H])C([H])([H])[H])C(C([H])([H])[H])(C([H])([H])[H])C([H])([H])[H])C([H])([H])c2c([H])c(OC([H])([H])C([H])([H])Oc3c([H])c([H])c(N([H])C(=O)N4C([H])([H])C([H])([H])C([H])([H])C([H])(n5nc(-c6c([H])c([H])c(Oc7c([H])c([H])c(F)c([H])c7F)c([H])c6[H])c(C(=O)N([H])[H])c5N([H])[H])C4([H])[H])c(F)c3[H])c([H])c([H])c2C1([H])[H]

$$$$
33:0:0
     RDKit          3D

 92101  0  0  1  0  0  0  0  0999 V2000
  -29.0980  -23.4660   19.9390 C   0  0  0  0  0  0  0  0  0  0  0  0
  -26.9260  -24.0200   20.6550 C   0  0  0  0  0  2  0  0  0  0  0  0
  -27.1350  -22.4860   20.5000 C   0  0  0  0  0  2  0  0  0  0  0  0
  -28.0200  -24.6940   19.8280 C   0  0  0  0  0  3  0  0  0  0  0  0
  -28.5440  -22.1890   20.1850 N   0  0  0  0  0  0  0  0  0  0  0  0
  -30.3060  -23.6750   19.7950 O   0  0  0  0  0  0  0  0  0  0  0  0
  -28.1560  -19.6670   20.6930 C   0  0  0  0  0  3  0  0  0  0  0  0
  -28.4430  -18.2530   20.7040 C   0  0  0  0  0  3  0  0  0  0  0  0
  -30.5260  -18.6570   19.7000 C   0  0  0  0  0  3  0  0  0  0  0  0
  -29.0150  -20.7050   20.1860 C   0  0  0  0  0  0  0  0  0  0  0  0
  -29.6350  -17.6380   20.2090 C   0  0  0  0  0  0  0  0  0  0  0  0
  -30.2370  -20.1020   19.6860 C   0  0  0  0  0  0  0  0  0  0  0  0
  -31.1740  -20.9150   19.1420 F   0  0  0  0  0  0  0  0  0  0  0  0
  -30.5690  -15.0150   19.9190 C   0  0  0  0  0  0  0  0  0  0  0  0
  -30.4270  -12.6820   18.9330 C   0  0  0  0  0  2  0  0  0  0  0  0
  -29.4050  -12.6840   17.7700 C   0  0  0  0  0  2  0  0  0  0  0  0
  -27.9750  -12.4560   18.2950 C   0  0  0  0  0  2  0  0  0  0  0  0
  -27.6530  -13.3370   19.5290 C   0  0  0  0  0  3  0  0  0  0  0  0
  -28.7860  -13.3000   20.5780 C   0  0  0  0  0  2  0  0  0  0  0  0
  -30.0190  -13.7340   19.9040 N   0  0  0  0  0  0  0  0  0  0  0  0
  -31.7270  -15.1520   19.5110 O   0  0  0  0  0  0  0  0  0  0  0  0
  -29.7220  -16.1020   20.2540 N   0  0  0  0  0  0  0  0  0  0  0  0
  -28.8680  -15.7080   20.6150 H   0  0  0  0  0  0  0  0  0  0  0  0
  -25.3260  -13.8910   20.4490 C   0  0  0  0  0  0  0  0  0  0  0  0
  -24.2890  -13.1020   20.8630 C   0  0  0  0  0  0  0  0  0  0  0  0
  -24.7470  -11.7530   20.7500 C   0  0  0  0  0  0  0  0  0  0  0  0
  -26.3490  -13.0230   20.1060 N   0  0  0  0  0  0  0  0  0  0  0  0
  -26.0150  -11.7300   20.3500 N   0  0  0  0  0  0  0  0  0  0  0  0
  -24.0320  -10.4840   20.9420 C   0  0  0  0  0  0  0  0  0  0  0  0
  -24.4780   -9.5180   21.8720 C   0  0  0  0  0  3  0  0  0  0  0  0
  -23.7620   -8.3150   22.0530 C   0  0  0  0  0  3  0  0  0  0  0  0
  -22.5860   -8.0690   21.3040 C   0  0  0  0  0  0  0  0  0  0  0  0
  -22.1590   -9.0240   20.3660 C   0  0  0  0  0  3  0  0  0  0  0  0
  -22.8760  -10.2180   20.1830 C   0  0  0  0  0  3  0  0  0  0  0  0
  -21.8420   -6.9170   21.3970 O   0  0  0  0  0  0  0  0  0  0  0  0
  -21.7390   -6.2160   22.5720 C   0  0  0  0  0  0  0  0  0  0  0  0
  -21.2300   -6.8070   23.7480 C   0  0  0  0  0  3  0  0  0  0  0  0
  -21.0760   -6.0330   24.9150 C   0  0  0  0  0  3  0  0  0  0  0  0
  -21.4210   -4.6690   24.9070 C   0  0  0  0  0  0  0  0  0  0  0  0
  -21.9230   -4.0760   23.7340 C   0  0  0  0  0  3  0  0  0  0  0  0
  -22.0780   -4.8490   22.5700 C   0  0  0  0  0  0  0  0  0  0  0  0
  -22.5420   -4.2680   21.4360 F   0  0  0  0  0  0  0  0  0  0  0  0
  -21.2650   -3.9220   26.0260 F   0  0  0  0  0  0  0  0  0  0  0  0
  -22.9140  -13.5680   21.2460 C   0  0  0  0  0  0  0  0  0  0  0  0
  -22.2470  -12.8450   22.1380 N   0  0  0  0  0  0  0  0  0  0  0  0
  -22.4420  -14.6080   20.7890 O   0  0  0  0  0  0  0  0  0  0  0  0
  -22.6400  -12.0040   22.5310 H   0  0  0  0  0  0  0  0  0  0  0  0
  -21.3270  -13.1420   22.4370 H   0  0  0  0  0  0  0  0  0  0  0  0
  -25.4770  -15.2670   20.3070 N   0  0  0  0  0  0  0  0  0  0  0  0
  -24.7080  -15.9080   20.4730 H   0  0  0  0  0  0  0  0  0  0  0  0
  -26.2730  -15.7150   19.8730 H   0  0  0  0  0  0  0  0  0  0  0  0
  -28.2950  -26.2010   20.1590 O   0  0  0  0  0  0  0  0  0  0  0  0
  -24.6460  -31.8540   23.2250 C   0  0  0  0  0  0  0  0  0  0  0  0
  -27.2450  -27.1970   20.1010 C   0  0  0  0  0  0  0  0  0  0  0  0
  -23.4540  -30.4860   21.5570 C   0  0  0  0  0  3  0  0  0  0  0  0
  -24.9100  -28.9440   20.1050 C   0  0  0  0  0  0  0  0  0  0  0  0
  -26.0110  -30.7540   21.4100 C   0  0  0  0  0  2  0  0  0  0  0  0
  -26.0880  -29.3750   20.7280 C   0  0  0  0  0  0  0  0  0  0  0  0
  -27.2540  -28.5170   20.7130 C   0  0  0  0  0  3  0  0  0  0  0  0
  -26.0420  -26.8830   19.4270 C   0  0  0  0  0  3  0  0  0  0  0  0
  -24.9000  -27.7110   19.4410 C   0  0  0  0  0  3  0  0  0  0  0  0
  -23.6820  -29.8390   20.1670 C   0  0  0  0  0  2  0  0  0  0  0  0
  -24.7240  -31.0520   22.1190 N   0  0  0  0  0  0  0  0  0  0  0  0
  -23.5580  -32.1270   23.7550 O   0  0  0  0  0  0  0  0  0  0  0  0
  -22.7740  -29.4580   22.4980 C   0  0  0  0  0  0  0  0  0  0  0  0
  -21.4440  -29.2950   22.3710 N   0  0  0  0  0  0  0  0  0  0  0  0
  -23.4440  -28.8140   23.3080 O   0  0  0  0  0  0  0  0  0  0  0  0
  -20.9590  -29.8660   21.6940 H   0  0  0  0  0  0  0  0  0  0  0  0
  -18.0550  -28.1160   22.8800 C   0  0  0  0  0  0  0  0  0  0  0  0
  -20.6210  -28.3460   23.1250 C   0  0  0  0  0  3  0  0  0  0  0  0
  -20.7000  -26.9280   22.5100 C   0  0  0  0  0  2  0  0  0  0  0  0
  -19.5830  -26.6450   21.5000 C   0  0  0  0  0  2  0  0  0  0  0  0
  -18.2100  -26.7860   22.1630 C   0  0  0  0  0  2  0  0  0  0  0  0
  -19.1870  -28.8560   23.3180 C   0  0  0  0  0  0  0  0  0  0  0  0
  -18.9850  -30.1020   23.9510 C   0  0  0  0  0  3  0  0  0  0  0  0
  -17.6870  -30.6090   24.1480 C   0  0  0  0  0  3  0  0  0  0  0  0
  -16.5710  -29.8660   23.7230 C   0  0  0  0  0  3  0  0  0  0  0  0
  -16.7570  -28.6210   23.0960 C   0  0  0  0  0  3  0  0  0  0  0  0
  -25.9220  -32.4800   23.8660 C   0  0  0  0  0  3  0  0  0  0  0  0
  -25.6130  -33.8790   24.2030 N   0  0  0  0  0  0  0  0  0  0  0  0
  -25.9340  -34.9350   23.4440 C   0  0  0  0  0  0  0  0  0  0  0  0
  -26.5880  -34.8350   22.4030 O   0  0  0  0  0  0  0  0  0  0  0  0
  -25.0290  -34.0290   25.0110 H   0  0  0  0  0  0  0  0  0  0  0  0
  -24.1870  -36.7220   23.1430 C   0  0  0  0  0  1  0  0  0  0  0  0
  -25.4570  -36.3240   23.9140 C   0  0  0  0  0  3  0  0  0  0  0  0
  -27.6100  -37.2260   24.6760 C   0  0  0  0  0  1  0  0  0  0  0  0
  -26.4800  -37.3820   23.7630 N   0  0  0  0  0  0  0  0  0  0  0  0
  -26.0730  -38.3010   23.9170 H   0  0  0  0  0  0  0  0  0  0  0  0
  -26.4130  -31.7040   25.1500 C   0  0  1  0  0  0  0  0  0  0  0  0
  -25.3050  -31.4720   26.2040 C   0  0  0  0  0  1  0  0  0  0  0  0
  -26.9930  -30.3220   24.7710 C   0  0  0  0  0  1  0  0  0  0  0  0
  -27.5610  -32.4890   25.8280 C   0  0  0  0  0  1  0  0  0  0  0  0
  1  5  1  0
  3  2  1  0
  4  1  1  0
  4 52  1  0
  4  2  1  0
  5 10  1  0
  5  3  1  0
  6  1  2  0
  7  8  1  0
  9 11  1  0
 10  7  2  0
 11 22  1  0
 11  8  2  0
 12  9  2  0
 12 10  1  0
 13 12  1  0
 14 22  1  0
 15 20  1  0
 16 17  1  0
 16 15  1  0
 18 17  1  0
 18 27  1  0
 18 19  1  0
 20 14  1  0
 20 19  1  0
 21 14  2  0
 22 23  1  0
 24 25  2  0
 25 44  1  0
 26 25  1  0
 26 29  1  0
 27 28  1  0
 27 24  1  0
 28 26  2  0
 29 30  1  0
 30 31  2  0
 32 35  1  0
 32 31  1  0
 33 32  2  0
 34 33  1  0
 34 29  2  0
 35 36  1  0
 36 37  1  0
 37 38  2  0
 39 38  1  0
 39 43  1  0
 40 39  2  0
 41 36  2  0
 41 40  1  0
 42 41  1  0
 44 45  1  0
 45 48  1  0
 45 47  1  0
 46 44  2  0
 49 24  1  0
 49 50  1  0
 51 49  1  0
 53 64  2  0
 54 52  1  0
 54 59  1  0
 55 63  1  0
 55 65  1  0
 56 62  1  0
 56 58  1  0
 57 63  1  0
 58 57  1  0
 59 58  2  0
 60 61  1  0
 60 54  2  0
 61 56  2  0
 62 55  1  0
 63 53  1  0
 65 67  2  0
 66 65  1  0
 68 66  1  0
 69 78  2  0
 69 74  1  0
 70 66  1  0
 70 74  1  0
 71 70  1  0
 72 73  1  0
 72 71  1  0
 73 69  1  0
 74 75  2  0
 75 76  1  0
 77 76  2  0
 78 77  1  0
 79 53  1  0
 79 80  1  0
 79 89  1  0
 80 83  1  0
 81 85  1  0
 81 80  1  0
 82 81  2  0
 85 84  1  0
 87 85  1  0
 87 88  1  0
 87 86  1  0
 89 92  1  1
 89 90  1  0
 91 89  1  0
M  ISO  4   4 101  14 100  22 100  52 101
M  END
>  <TORSDO>  (33) 
F 17

>  <SCORE>  (33) 
-14.694

>  <name>  (33) 
33

>  <ligand_id>  (33) 
33

>  <original_smiles>  (33) 
[H]c1c([H])c([H])c2c(c1[H])C([H])([H])C([H])([H])C([H])([H])C2([H])N([H])C(=O)C1([H])N(C(=O)C([H])(N([H])C(=O)C([H])(N([H])C([H])([H])[H])C([H])([H])[H])C(C([H])([H])[H])(C([H])([H])[H])C([H])([H])[H])C([H])([H])c2c([H])c(OC3([H])C(=O)N(c4c([H])c([H])c(N([H])C(=O)N5C([H])([H])C([H])([H])C([H])([H])C([H])(n6nc(-c7c([H])c([H])c(Oc8c([H])c([H])c(F)c([H])c8F)c([H])c7[H])c(C(=O)N([H])[H])c6N([H])[H])C5([H])[H])c([H])c4F)C([H])([H])C3([H])[H])c([H])c([H])c2C1([H])[H]

>  <smiles>  (33) 
[H]c1c([H])c([H])c2c(c1[H])C([H])([H])C([H])([H])C([H])([H])C2([H])N([H])C(=O)C1([H])N(C(=O)C([H])(N([H])C(=O)C([H])(N([H])C([H])([H])[H])C([H])([H])[H])C(C([H])([H])[H])(C([H])([H])[H])C([H])([H])[H])C([H])([H])c2c([H])c(OC3([H])C(=O)N(c4c([H])c([H])c(N([H])C(=O)N5C([H])([H])C([H])([H])C([H])([H])C([H])(n6nc(-c7c([H])c([H])c(Oc8c([H])c([H])c(F)c([H])c8F)c([H])c7[H])c(C(=O)N([H])[H])c6N([H])[H])C5([H])[H])c([H])c4F)C([H])([H])C3([H])[H])c([H])c([H])c2C1([H])[H]

$$$$
34:0:0
     RDKit          3D

 91 99  0  0  1  0  0  0  0  0999 V2000
  -29.8150  -21.9040   18.2220 C   0  0  0  0  0  1  0  0  0  0  0  0
  -29.7810  -21.5580   19.6480 N   0  0  0  0  0  0  0  0  0  0  0  0
  -29.7450  -19.5820   21.2440 C   0  0  0  0  0  3  0  0  0  0  0  0
  -29.8500  -18.1780   21.4960 C   0  0  0  0  0  3  0  0  0  0  0  0
  -30.1880  -19.1710   18.9310 C   0  0  0  0  0  3  0  0  0  0  0  0
  -29.8970  -20.1380   19.9420 C   0  0  0  0  0  0  0  0  0  0  0  0
  -30.1240  -17.2260   20.4730 C   0  0  0  0  0  0  0  0  0  0  0  0
  -30.2810  -17.7680   19.1660 C   0  0  0  0  0  0  0  0  0  0  0  0
  -30.4900  -16.7500   17.7830 Cl  0  0  0  0  0  0  0  0  0  0  0  0
  -30.8560  -14.7480   20.3670 C   0  0  0  0  0  0  0  0  0  0  0  0
  -30.6520  -12.5140   19.3060 C   0  0  0  0  0  2  0  0  0  0  0  0
  -29.6950  -12.6580   18.1020 C   0  0  0  0  0  2  0  0  0  0  0  0
  -28.2250  -12.4890   18.5400 C   0  0  0  0  0  2  0  0  0  0  0  0
  -27.8770  -13.3360   19.7920 C   0  0  0  0  0  3  0  0  0  0  0  0
  -28.9470  -13.1690   20.8950 C   0  0  0  0  0  2  0  0  0  0  0  0
  -30.2510  -13.5210   20.3110 N   0  0  0  0  0  0  0  0  0  0  0  0
  -32.0070  -14.9170   19.9580 O   0  0  0  0  0  0  0  0  0  0  0  0
  -30.0730  -15.7930   20.7770 N   0  0  0  0  0  0  0  0  0  0  0  0
  -29.2420  -15.5000   21.2680 H   0  0  0  0  0  0  0  0  0  0  0  0
  -25.4890  -13.9170   20.5510 C   0  0  0  0  0  0  0  0  0  0  0  0
  -24.4270  -13.1360   20.9170 C   0  0  0  0  0  0  0  0  0  0  0  0
  -24.8890  -11.7850   20.8550 C   0  0  0  0  0  0  0  0  0  0  0  0
  -26.5320  -13.0420   20.2860 N   0  0  0  0  0  0  0  0  0  0  0  0
  -26.1760  -11.7540   20.5290 N   0  0  0  0  0  0  0  0  0  0  0  0
  -24.1650  -10.5190   21.0320 C   0  0  0  0  0  0  0  0  0  0  0  0
  -24.5800   -9.5550   21.9760 C   0  0  0  0  0  3  0  0  0  0  0  0
  -23.8560   -8.3550   22.1410 C   0  0  0  0  0  3  0  0  0  0  0  0
  -22.7030   -8.1080   21.3580 C   0  0  0  0  0  0  0  0  0  0  0  0
  -22.3070   -9.0610   20.4030 C   0  0  0  0  0  3  0  0  0  0  0  0
  -23.0330  -10.2520   20.2370 C   0  0  0  0  0  3  0  0  0  0  0  0
  -21.9530   -6.9580   21.4280 O   0  0  0  0  0  0  0  0  0  0  0  0
  -21.8310   -6.2500   22.5960 C   0  0  0  0  0  0  0  0  0  0  0  0
  -21.2590   -6.8170   23.7550 C   0  0  0  0  0  3  0  0  0  0  0  0
  -21.0890   -6.0310   24.9120 C   0  0  0  0  0  3  0  0  0  0  0  0
  -21.4820   -4.6790   24.9120 C   0  0  0  0  0  0  0  0  0  0  0  0
  -22.0490   -4.1120   23.7560 C   0  0  0  0  0  3  0  0  0  0  0  0
  -22.2200   -4.8950   22.6010 C   0  0  0  0  0  0  0  0  0  0  0  0
  -22.7460   -4.3380   21.4840 F   0  0  0  0  0  0  0  0  0  0  0  0
  -21.3140   -3.9210   26.0210 F   0  0  0  0  0  0  0  0  0  0  0  0
  -23.0320  -13.6080   21.2150 C   0  0  0  0  0  0  0  0  0  0  0  0
  -22.3180  -12.8980   22.0820 N   0  0  0  0  0  0  0  0  0  0  0  0
  -22.5850  -14.6390   20.7150 O   0  0  0  0  0  0  0  0  0  0  0  0
  -22.6940  -12.0660   22.5120 H   0  0  0  0  0  0  0  0  0  0  0  0
  -21.3810  -13.1940   22.3210 H   0  0  0  0  0  0  0  0  0  0  0  0
  -25.6530  -15.2900   20.3990 N   0  0  0  0  0  0  0  0  0  0  0  0
  -24.8900  -15.9450   20.5370 H   0  0  0  0  0  0  0  0  0  0  0  0
  -26.4990  -15.7350   20.0660 H   0  0  0  0  0  0  0  0  0  0  0  0
  -29.0410  -22.5470   20.4960 C   0  0  0  0  0  2  0  0  0  0  0  0
  -29.4470  -24.0960   20.3820 C   0  0  0  0  0  3  0  0  0  0  0  0
  -28.2870  -25.1270   20.0510 C   0  0  0  0  0  3  0  0  0  0  0  0
  -28.4940  -26.5850   20.2080 O   0  0  0  0  0  0  0  0  0  0  0  0
  -24.6370  -31.9010   23.1890 C   0  0  0  0  0  0  0  0  0  0  0  0
  -27.3600  -27.4130   20.1360 C   0  0  0  0  0  0  0  0  0  0  0  0
  -23.4750  -30.4990   21.5220 C   0  0  0  0  0  3  0  0  0  0  0  0
  -24.9680  -28.9840   20.1020 C   0  0  0  0  0  0  0  0  0  0  0  0
  -26.0120  -30.8550   21.3780 C   0  0  0  0  0  2  0  0  0  0  0  0
  -26.1200  -29.4860   20.7200 C   0  0  0  0  0  0  0  0  0  0  0  0
  -27.3180  -28.7130   20.7260 C   0  0  0  0  0  3  0  0  0  0  0  0
  -26.1820  -26.9650   19.4900 C   0  0  0  0  0  3  0  0  0  0  0  0
  -25.0020  -27.7310   19.4750 C   0  0  0  0  0  3  0  0  0  0  0  0
  -23.7160  -29.8370   20.1400 C   0  0  0  0  0  2  0  0  0  0  0  0
  -24.7260  -31.1020   22.0860 N   0  0  0  0  0  0  0  0  0  0  0  0
  -23.5430  -32.1620   23.7080 O   0  0  0  0  0  0  0  0  0  0  0  0
  -22.8130  -29.4650   22.4640 C   0  0  0  0  0  0  0  0  0  0  0  0
  -21.4880  -29.2920   22.3340 N   0  0  0  0  0  0  0  0  0  0  0  0
  -23.4930  -28.8260   23.2720 O   0  0  0  0  0  0  0  0  0  0  0  0
  -21.0000  -29.8600   21.6560 H   0  0  0  0  0  0  0  0  0  0  0  0
  -18.1020  -28.1240   22.8450 C   0  0  0  0  0  0  0  0  0  0  0  0
  -20.6670  -28.3440   23.0900 C   0  0  0  0  0  3  0  0  0  0  0  0
  -20.7440  -26.9270   22.4760 C   0  0  0  0  0  2  0  0  0  0  0  0
  -19.6260  -26.6440   21.4670 C   0  0  0  0  0  2  0  0  0  0  0  0
  -18.2540  -26.7900   22.1320 C   0  0  0  0  0  2  0  0  0  0  0  0
  -19.2360  -28.8590   23.2810 C   0  0  0  0  0  0  0  0  0  0  0  0
  -19.0400  -30.1090   23.9090 C   0  0  0  0  0  3  0  0  0  0  0  0
  -17.7440  -30.6210   24.1050 C   0  0  0  0  0  3  0  0  0  0  0  0
  -16.6250  -29.8810   23.6860 C   0  0  0  0  0  3  0  0  0  0  0  0
  -16.8050  -28.6340   23.0610 C   0  0  0  0  0  3  0  0  0  0  0  0
  -25.9040  -32.5450   23.8330 C   0  0  0  0  0  3  0  0  0  0  0  0
  -26.4080  -31.7760   25.1170 C   0  0  1  0  0  0  0  0  0  0  0  0
  -25.2970  -31.5220   26.1630 C   0  0  0  0  0  1  0  0  0  0  0  0
  -27.0170  -30.4060   24.7350 C   0  0  0  0  0  1  0  0  0  0  0  0
  -27.5350  -32.5840   25.8020 C   0  0  0  0  0  1  0  0  0  0  0  0
  -25.5730  -33.9390   24.1610 N   0  0  0  0  0  0  0  0  0  0  0  0
  -25.8900  -34.9960   23.4020 C   0  0  0  0  0  0  0  0  0  0  0  0
  -26.5610  -34.9020   22.3700 O   0  0  0  0  0  0  0  0  0  0  0  0
  -24.9760  -34.0860   24.9620 H   0  0  0  0  0  0  0  0  0  0  0  0
  -24.1430  -36.7700   23.0400 C   0  0  0  0  0  1  0  0  0  0  0  0
  -25.3830  -36.3770   23.8580 C   0  0  0  0  0  3  0  0  0  0  0  0
  -27.4930  -37.2960   24.7150 C   0  0  0  0  0  1  0  0  0  0  0  0
  -26.4030  -37.4430   23.7540 N   0  0  0  0  0  0  0  0  0  0  0  0
  -25.9830  -38.3590   23.8890 H   0  0  0  0  0  0  0  0  0  0  0  0
  1  2  1  0
  2  6  1  0
  2 48  1  0
  3  4  1  0
  5  8  2  0
  5  6  1  0
  6  3  2  0
  7 18  1  0
  7  4  2  0
  8  7  1  0
  9  8  1  0
 10 18  1  0
 11 16  1  0
 12 13  1  0
 12 11  1  0
 14 13  1  0
 14 23  1  0
 14 15  1  0
 16 10  1  0
 16 15  1  0
 17 10  2  0
 18 19  1  0
 20 21  2  0
 21 40  1  0
 22 21  1  0
 22 25  1  0
 23 24  1  0
 23 20  1  0
 24 22  2  0
 25 26  1  0
 26 27  2  0
 28 31  1  0
 28 27  1  0
 29 28  2  0
 30 29  1  0
 30 25  2  0
 31 32  1  0
 32 37  2  0
 32 33  1  0
 33 34  2  0
 34 35  1  0
 35 39  1  0
 36 35  2  0
 37 36  1  0
 38 37  1  0
 40 41  1  0
 41 44  1  0
 41 43  1  0
 42 40  2  0
 45 46  1  0
 45 20  1  0
 47 45  1  0
 49 48  1  0
 50 51  1  0
 50 49  2  0
 52 63  2  0
 53 51  1  0
 53 58  1  0
 54 62  1  0
 54 64  1  0
 55 61  1  0
 55 57  1  0
 56 62  1  0
 57 58  2  0
 57 56  1  0
 59 53  2  0
 60 59  1  0
 60 55  2  0
 61 54  1  0
 62 52  1  0
 64 66  2  0
 65 64  1  0
 67 65  1  0
 68 77  2  0
 68 73  1  0
 69 65  1  0
 69 73  1  0
 70 69  1  0
 71 72  1  0
 71 70  1  0
 72 68  1  0
 73 74  2  0
 74 75  1  0
 76 75  2  0
 77 76  1  0
 78 52  1  0
 78 83  1  0
 78 79  1  0
 79 82  1  1
 79 80  1  0
 81 79  1  0
 83 86  1  0
 84 88  1  0
 84 83  1  0
 85 84  2  0
 88 87  1  0
 90 88  1  0
 90 91  1  0
 90 89  1  0
M  ISO  4  10 100  18 100  50 101  51 101
M  END
>  <TORSDO>  (34) 
F 20

>  <SCORE>  (34) 
-13.064

>  <name>  (34) 
34

>  <ligand_id>  (34) 
34

>  <original_smiles>  (34) 
[H]c1c([H])c([H])c2c(c1[H])C([H])([H])C([H])([H])C([H])([H])C2([H])N([H])C(=O)C1([H])N(C(=O)C([H])(N([H])C(=O)C([H])(N([H])C([H])([H])[H])C([H])([H])[H])C(C([H])([H])[H])(C([H])([H])[H])C([H])([H])[H])C([H])([H])c2c([H])c(OC([H])([H])C([H])([H])C([H])([H])N(c3c([H])c([H])c(N([H])C(=O)N4C([H])([H])C([H])([H])C([H])([H])C([H])(n5nc(-c6c([H])c([H])c(Oc7c([H])c([H])c(F)c([H])c7F)c([H])c6[H])c(C(=O)N([H])[H])c5N([H])[H])C4([H])[H])c(Cl)c3[H])C([H])([H])[H])c([H])c([H])c2C1([H])[H]

>  <smiles>  (34) 
[H]c1c([H])c([H])c2c(c1[H])C([H])([H])C([H])([H])C([H])([H])C2([H])N([H])C(=O)C1([H])N(C(=O)C([H])(N([H])C(=O)C([H])(N([H])C([H])([H])[H])C([H])([H])[H])C(C([H])([H])[H])(C([H])([H])[H])C([H])([H])[H])C([H])([H])c2c([H])c(OC([H])([H])C([H])([H])C([H])([H])N(c3c([H])c([H])c(N([H])C(=O)N4C([H])([H])C([H])([H])C([H])([H])C([H])(n5nc(-c6c([H])c([H])c(Oc7c([H])c([H])c(F)c([H])c7F)c([H])c6[H])c(C(=O)N([H])[H])c5N([H])[H])C4([H])[H])c(Cl)c3[H])C([H])([H])[H])c([H])c([H])c2C1([H])[H]

$$$$
35:0:0
     RDKit          3D

 94103  0  0  1  0  0  0  0  0999 V2000
  -31.5490  -23.4480   20.7950 C   0  0  0  0  0  2  0  0  0  0  0  0
  -30.7350  -24.6070   20.2300 C   0  0  0  0  0  2  0  0  0  0  0  0
  -30.4780  -22.5350   21.3850 C   0  0  0  0  0  2  0  0  0  0  0  0
  -29.3650  -24.0080   19.8400 C   0  0  0  0  0  3  0  0  0  0  0  0
  -29.3470  -22.5870   20.4310 N   0  0  1  0  0  4  0  0  0  0  0  0
  -28.4980  -22.4550   20.9610 H   0  0  0  0  0  0  0  0  0  0  0  0
  -29.3920  -21.4430   19.4300 C   0  0  0  0  0  2  0  0  0  0  0  0
  -30.8390  -19.2580   19.6460 C   0  0  0  0  0  3  0  0  0  0  0  0
  -30.9940  -17.8530   19.8670 C   0  0  0  0  0  3  0  0  0  0  0  0
  -28.5590  -19.1480   20.4010 C   0  0  0  0  0  3  0  0  0  0  0  0
  -29.6130  -19.9450   19.8860 C   0  0  0  0  0  0  0  0  0  0  0  0
  -29.9170  -17.0550   20.3400 C   0  0  0  0  0  0  0  0  0  0  0  0
  -28.7100  -17.7470   20.6180 C   0  0  0  0  0  0  0  0  0  0  0  0
  -27.6500  -17.0350   21.0730 F   0  0  0  0  0  0  0  0  0  0  0  0
  -30.6840  -14.5810   20.0630 C   0  0  0  0  0  0  0  0  0  0  0  0
  -30.4060  -12.3630   18.9730 C   0  0  0  0  0  2  0  0  0  0  0  0
  -29.4060  -12.5290   17.8050 C   0  0  0  0  0  2  0  0  0  0  0  0
  -27.9540  -12.3810   18.3000 C   0  0  0  0  0  2  0  0  0  0  0  0
  -27.6660  -13.2250   19.5700 C   0  0  0  0  0  3  0  0  0  0  0  0
  -28.7710  -13.0260   20.6330 C   0  0  0  0  0  2  0  0  0  0  0  0
  -30.0610  -13.3610   20.0050 N   0  0  0  0  0  0  0  0  0  0  0  0
  -31.8120  -14.7500   19.5920 O   0  0  0  0  0  0  0  0  0  0  0  0
  -29.9220  -15.6080   20.5480 N   0  0  0  0  0  0  0  0  0  0  0  0
  -29.0700  -15.2820   20.9790 H   0  0  0  0  0  0  0  0  0  0  0  0
  -25.3120  -13.8450   20.3990 C   0  0  0  0  0  0  0  0  0  0  0  0
  -24.2520  -13.0810   20.8050 C   0  0  0  0  0  0  0  0  0  0  0  0
  -24.6970  -11.7250   20.7390 C   0  0  0  0  0  0  0  0  0  0  0  0
  -26.3350  -12.9560   20.1090 N   0  0  0  0  0  0  0  0  0  0  0  0
  -25.9720  -11.6750   20.3720 N   0  0  0  0  0  0  0  0  0  0  0  0
  -23.9640  -10.4690   20.9470 C   0  0  0  0  0  0  0  0  0  0  0  0
  -24.4100   -9.4970   21.8700 C   0  0  0  0  0  3  0  0  0  0  0  0
  -23.6770   -8.3070   22.0650 C   0  0  0  0  0  3  0  0  0  0  0  0
  -22.4830   -8.0810   21.3390 C   0  0  0  0  0  0  0  0  0  0  0  0
  -22.0560   -9.0420   20.4060 C   0  0  0  0  0  3  0  0  0  0  0  0
  -22.7900  -10.2240   20.2090 C   0  0  0  0  0  3  0  0  0  0  0  0
  -21.7210   -6.9420   21.4440 O   0  0  0  0  0  0  0  0  0  0  0  0
  -21.6740   -6.2130   22.6050 C   0  0  0  0  0  0  0  0  0  0  0  0
  -21.2750   -6.7890   23.8310 C   0  0  0  0  0  3  0  0  0  0  0  0
  -21.1720   -5.9870   24.9860 C   0  0  0  0  0  3  0  0  0  0  0  0
  -21.4590   -4.6100   24.9150 C   0  0  0  0  0  0  0  0  0  0  0  0
  -21.8530   -4.0340   23.6940 C   0  0  0  0  0  3  0  0  0  0  0  0
  -21.9570   -4.8340   22.5420 C   0  0  0  0  0  0  0  0  0  0  0  0
  -22.3150   -4.2700   21.3630 F   0  0  0  0  0  0  0  0  0  0  0  0
  -21.3540   -3.8390   26.0220 F   0  0  0  0  0  0  0  0  0  0  0  0
  -22.8750  -13.5720   21.1470 C   0  0  0  0  0  0  0  0  0  0  0  0
  -22.1800  -12.8780   22.0410 N   0  0  0  0  0  0  0  0  0  0  0  0
  -22.4270  -14.6090   20.6580 O   0  0  0  0  0  0  0  0  0  0  0  0
  -22.5570  -12.0410   22.4590 H   0  0  0  0  0  0  0  0  0  0  0  0
  -21.2590  -13.1910   22.3140 H   0  0  0  0  0  0  0  0  0  0  0  0
  -25.4840  -15.2160   20.2360 N   0  0  0  0  0  0  0  0  0  0  0  0
  -24.7430  -15.8770   20.4370 H   0  0  0  0  0  0  0  0  0  0  0  0
  -26.3540  -15.6680   19.9870 H   0  0  0  0  0  0  0  0  0  0  0  0
  -28.1990  -25.0010   20.2800 C   0  0  0  0  0  2  0  0  0  0  0  0
  -28.3510  -26.4320   19.9180 O   0  0  0  0  0  0  0  0  0  0  0  0
  -24.5220  -31.6900   23.0520 C   0  0  0  0  0  0  0  0  0  0  0  0
  -27.2100  -27.2420   19.9210 C   0  0  0  0  0  0  0  0  0  0  0  0
  -23.3440  -30.3140   21.3730 C   0  0  0  0  0  3  0  0  0  0  0  0
  -24.8210  -28.8090   19.9280 C   0  0  0  0  0  0  0  0  0  0  0  0
  -25.8790  -30.6690   21.2110 C   0  0  0  0  0  2  0  0  0  0  0  0
  -25.9790  -29.3060   20.5400 C   0  0  0  0  0  0  0  0  0  0  0  0
  -27.1780  -28.5350   20.5250 C   0  0  0  0  0  3  0  0  0  0  0  0
  -26.0320  -26.7970   19.2790 C   0  0  0  0  0  3  0  0  0  0  0  0
  -24.8490  -27.5590   19.2890 C   0  0  0  0  0  3  0  0  0  0  0  0
  -23.5750  -29.6690   19.9820 C   0  0  0  0  0  2  0  0  0  0  0  0
  -24.6000  -30.9070   21.9360 N   0  0  0  0  0  0  0  0  0  0  0  0
  -23.4330  -31.9440   23.5860 O   0  0  0  0  0  0  0  0  0  0  0  0
  -22.6870  -29.2700   22.3070 C   0  0  0  0  0  0  0  0  0  0  0  0
  -21.3590  -29.1010   22.1840 N   0  0  0  0  0  0  0  0  0  0  0  0
  -23.3700  -28.6150   23.0990 O   0  0  0  0  0  0  0  0  0  0  0  0
  -20.8680  -29.6810   21.5170 H   0  0  0  0  0  0  0  0  0  0  0  0
  -17.9770  -27.9240   22.6890 C   0  0  0  0  0  0  0  0  0  0  0  0
  -20.5410  -28.1430   22.9300 C   0  0  0  0  0  3  0  0  0  0  0  0
  -20.6180  -26.7340   22.2990 C   0  0  0  0  0  2  0  0  0  0  0  0
  -19.4970  -26.4630   21.2900 C   0  0  0  0  0  2  0  0  0  0  0  0
  -18.1270  -26.5990   21.9600 C   0  0  0  0  0  2  0  0  0  0  0  0
  -19.1110  -28.6570   23.1310 C   0  0  0  0  0  0  0  0  0  0  0  0
  -18.9160  -29.8980   23.7730 C   0  0  0  0  0  3  0  0  0  0  0  0
  -17.6190  -30.4080   23.9770 C   0  0  0  0  0  3  0  0  0  0  0  0
  -16.5000  -29.6720   23.5510 C   0  0  0  0  0  3  0  0  0  0  0  0
  -16.6800  -28.4310   22.9130 C   0  0  0  0  0  3  0  0  0  0  0  0
  -25.7940  -32.3200   23.6970 C   0  0  0  0  0  3  0  0  0  0  0  0
  -26.3170  -31.5180   24.9520 C   0  0  1  0  0  0  0  0  0  0  0  0
  -25.2240  -31.2370   26.0090 C   0  0  0  0  0  1  0  0  0  0  0  0
  -26.9170  -30.1600   24.5210 C   0  0  0  0  0  1  0  0  0  0  0  0
  -27.4560  -32.3070   25.6400 C   0  0  0  0  0  1  0  0  0  0  0  0
  -25.4650  -33.7030   24.0680 N   0  0  0  0  0  0  0  0  0  0  0  0
  -25.7910  -34.7840   23.3450 C   0  0  0  0  0  0  0  0  0  0  0  0
  -26.4710  -34.7210   22.3180 O   0  0  0  0  0  0  0  0  0  0  0  0
  -24.8610  -33.8250   24.8680 H   0  0  0  0  0  0  0  0  0  0  0  0
  -24.0460  -36.5690   23.0290 C   0  0  0  0  0  1  0  0  0  0  0  0
  -25.2820  -36.1520   23.8420 C   0  0  0  0  0  3  0  0  0  0  0  0
  -27.3980  -37.0320   24.7250 C   0  0  0  0  0  1  0  0  0  0  0  0
  -26.3040  -37.2190   23.7750 N   0  0  0  0  0  0  0  0  0  0  0  0
  -25.8860  -38.1290   23.9460 H   0  0  0  0  0  0  0  0  0  0  0  0
  1  3  1  0
  2  1  1  0
  4  2  1  0
  4 53  1  0
  4  5  1  0
  5  6  1  1
  5  3  1  0
  7 11  1  0
  7  5  1  0
  8  9  2  0
  8 11  1  0
  9 12  1  0
 10 13  1  0
 11 10  2  0
 12 23  1  0
 12 13  2  0
 13 14  1  0
 15 23  1  0
 16 21  1  0
 17 18  1  0
 17 16  1  0
 19 18  1  0
 19 28  1  0
 19 20  1  0
 21 15  1  0
 21 20  1  0
 22 15  2  0
 23 24  1  0
 25 26  2  0
 26 45  1  0
 27 26  1  0
 27 30  1  0
 28 29  1  0
 28 25  1  0
 29 27  2  0
 30 31  1  0
 31 32  2  0
 33 36  1  0
 33 32  1  0
 34 33  2  0
 35 34  1  0
 35 30  2  0
 36 37  1  0
 37 38  1  0
 38 39  2  0
 40 39  1  0
 40 44  1  0
 41 40  2  0
 42 37  2  0
 42 41  1  0
 43 42  1  0
 45 46  1  0
 46 49  1  0
 46 48  1  0
 47 45  2  0
 50 25  1  0
 50 51  1  0
 52 50  1  0
 54 56  1  0
 54 53  1  0
 55 66  2  0
 56 61  1  0
 57 65  1  0
 57 67  1  0
 58 64  1  0
 58 60  1  0
 59 65  1  0
 60 59  1  0
 61 60  2  0
 62 63  1  0
 62 56  2  0
 63 58  2  0
 64 57  1  0
 65 55  1  0
 67 69  2  0
 68 67  1  0
 70 68  1  0
 71 80  2  0
 71 76  1  0
 72 68  1  0
 72 76  1  0
 73 72  1  0
 74 75  1  0
 74 73  1  0
 75 71  1  0
 76 77  2  0
 77 78  1  0
 79 78  2  0
 80 79  1  0
 81 55  1  0
 81 86  1  0
 81 82  1  0
 82 85  1  1
 82 83  1  0
 84 82  1  0
 86 89  1  0
 87 91  1  0
 87 86  1  0
 88 87  2  0
 91 90  1  0
 93 91  1  0
 93 94  1  0
 93 92  1  0
M  ISO  4  15 100  23 100  53 101  54 101
M  END
>  <TORSDO>  (35) 
F 19

>  <SCORE>  (35) 
-13.893

>  <name>  (35) 
35

>  <ligand_id>  (35) 
35

>  <original_smiles>  (35) 
[H]c1c([H])c([H])c2c(c1[H])C([H])([H])C([H])([H])C([H])([H])C2([H])N([H])C(=O)C1([H])N(C(=O)C([H])(N([H])C(=O)C([H])(N([H])C([H])([H])[H])C([H])([H])[H])C(C([H])([H])[H])(C([H])([H])[H])C([H])([H])[H])C([H])([H])c2c([H])c(OC([H])([H])C3([H])C([H])([H])C([H])([H])C([H])([H])[N+]3([H])C([H])([H])c3c([H])c([H])c(N([H])C(=O)N4C([H])([H])C([H])([H])C([H])([H])C([H])(n5nc(-c6c([H])c([H])c(Oc7c([H])c([H])c(F)c([H])c7F)c([H])c6[H])c(C(=O)N([H])[H])c5N([H])[H])C4([H])[H])c(F)c3[H])c([H])c([H])c2C1([H])[H]

>  <smiles>  (35) 
[H]c1c([H])c([H])c2c(c1[H])C([H])([H])C([H])([H])C([H])([H])C2([H])N([H])C(=O)C1([H])N(C(=O)C([H])(N([H])C(=O)C([H])(N([H])C([H])([H])[H])C([H])([H])[H])C(C([H])([H])[H])(C([H])([H])[H])C([H])([H])[H])C([H])([H])c2c([H])c(OC([H])([H])C3([H])C([H])([H])C([H])([H])C([H])([H])[N+]3([H])C([H])([H])c3c([H])c([H])c(N([H])C(=O)N4C([H])([H])C([H])([H])C([H])([H])C([H])(n5nc(-c6c([H])c([H])c(Oc7c([H])c([H])c(F)c([H])c7F)c([H])c6[H])c(C(=O)N([H])[H])c5N([H])[H])C4([H])[H])c(F)c3[H])c([H])c([H])c2C1([H])[H]

$$$$
36:0:0
     RDKit          3D

 93101  0  0  1  0  0  0  0  0999 V2000
  -30.8450  -21.7160   19.2390 C   0  0  0  0  0  1  0  0  0  0  0  0
  -29.8730  -21.9660   20.3330 N   0  0  1  0  0  4  0  0  0  0  0  0
  -28.9520  -21.8510   19.9350 H   0  0  0  0  0  0  0  0  0  0  0  0
  -29.9750  -20.9560   21.4390 C   0  0  0  0  0  2  0  0  0  0  0  0
  -28.9230  -18.6520   20.9710 C   0  0  0  0  0  3  0  0  0  0  0  0
  -29.0260  -17.2440   20.8670 C   0  0  0  0  0  3  0  0  0  0  0  0
  -31.4480  -17.4190   20.9200 C   0  0  0  0  0  3  0  0  0  0  0  0
  -30.0810  -19.4580   21.0860 C   0  0  0  0  0  0  0  0  0  0  0  0
  -30.2900  -16.6100   20.8600 C   0  0  0  0  0  0  0  0  0  0  0  0
  -31.3450  -18.8240   21.0360 C   0  0  0  0  0  0  0  0  0  0  0  0
  -32.4750  -19.5620   21.1470 F   0  0  0  0  0  0  0  0  0  0  0  0
  -30.6910  -14.3900   19.9000 C   0  0  0  0  0  0  0  0  0  0  0  0
  -30.1320  -12.3840   18.5550 C   0  0  0  0  0  2  0  0  0  0  0  0
  -29.0690  -12.6960   17.4820 C   0  0  0  0  0  2  0  0  0  0  0  0
  -27.6510  -12.5450   18.0650 C   0  0  0  0  0  2  0  0  0  0  0  0
  -27.4800  -13.3080   19.4020 C   0  0  0  0  0  3  0  0  0  0  0  0
  -28.6360  -12.9830   20.3710 C   0  0  0  0  0  2  0  0  0  0  0  0
  -29.9150  -13.2840   19.7010 N   0  0  0  0  0  0  0  0  0  0  0  0
  -31.6420  -14.6670   19.1590 O   0  0  0  0  0  0  0  0  0  0  0  0
  -30.6010  -14.6690   22.3130 C   0  0  0  0  0  1  0  0  0  0  0  0
  -30.3760  -15.1840   20.9580 N   0  0  0  0  0  0  0  0  0  0  0  0
  -25.1900  -13.9260   20.3990 C   0  0  0  0  0  0  0  0  0  0  0  0
  -24.1500  -13.1600   20.8500 C   0  0  0  0  0  0  0  0  0  0  0  0
  -24.5730  -11.8020   20.7080 C   0  0  0  0  0  0  0  0  0  0  0  0
  -26.1810  -13.0370   20.0120 N   0  0  0  0  0  0  0  0  0  0  0  0
  -25.8180  -11.7520   20.2560 N   0  0  0  0  0  0  0  0  0  0  0  0
  -23.8420  -10.5470   20.9240 C   0  0  0  0  0  0  0  0  0  0  0  0
  -24.3210   -9.5550   21.8110 C   0  0  0  0  0  3  0  0  0  0  0  0
  -23.5920   -8.3630   22.0120 C   0  0  0  0  0  3  0  0  0  0  0  0
  -22.3720   -8.1530   21.3280 C   0  0  0  0  0  0  0  0  0  0  0  0
  -21.9110   -9.1320   20.4300 C   0  0  0  0  0  3  0  0  0  0  0  0
  -22.6390  -10.3170   20.2270 C   0  0  0  0  0  3  0  0  0  0  0  0
  -21.6100   -7.0150   21.4410 O   0  0  0  0  0  0  0  0  0  0  0  0
  -21.5930   -6.2720   22.5950 C   0  0  0  0  0  0  0  0  0  0  0  0
  -21.2170   -6.8330   23.8350 C   0  0  0  0  0  3  0  0  0  0  0  0
  -21.1460   -6.0170   24.9830 C   0  0  0  0  0  3  0  0  0  0  0  0
  -21.4400   -4.6430   24.8910 C   0  0  0  0  0  0  0  0  0  0  0  0
  -21.8090   -4.0830   23.6550 C   0  0  0  0  0  3  0  0  0  0  0  0
  -21.8830   -4.8950   22.5100 C   0  0  0  0  0  0  0  0  0  0  0  0
  -22.2190   -4.3470   21.3180 F   0  0  0  0  0  0  0  0  0  0  0  0
  -21.3630   -3.8580   25.9910 F   0  0  0  0  0  0  0  0  0  0  0  0
  -22.8030  -13.6510   21.2940 C   0  0  0  0  0  0  0  0  0  0  0  0
  -22.1700  -12.9460   22.2260 N   0  0  0  0  0  0  0  0  0  0  0  0
  -22.3250  -14.6940   20.8520 O   0  0  0  0  0  0  0  0  0  0  0  0
  -22.5730  -12.1020   22.6060 H   0  0  0  0  0  0  0  0  0  0  0  0
  -21.2730  -13.2580   22.5690 H   0  0  0  0  0  0  0  0  0  0  0  0
  -25.3680  -15.3000   20.2650 N   0  0  0  0  0  0  0  0  0  0  0  0
  -24.6290  -15.9610   20.4750 H   0  0  0  0  0  0  0  0  0  0  0  0
  -26.1770  -15.7320   19.8360 H   0  0  0  0  0  0  0  0  0  0  0  0
  -29.9520  -23.3560   20.9070 C   0  0  0  0  0  2  0  0  0  0  0  0
  -29.8470  -24.5810   19.9360 C   0  0  0  0  0  2  0  0  0  0  0  0
  -28.4620  -25.2690   19.8160 C   0  0  0  0  0  2  0  0  0  0  0  0
  -28.5040  -26.6680   20.1660 O   0  0  0  0  0  0  0  0  0  0  0  0
  -24.6280  -31.8830   23.1250 C   0  0  0  0  0  0  0  0  0  0  0  0
  -27.3170  -27.3840   20.1380 C   0  0  0  0  0  0  0  0  0  0  0  0
  -23.4410  -30.4440   21.5040 C   0  0  0  0  0  3  0  0  0  0  0  0
  -24.9110  -28.8900   20.1170 C   0  0  0  0  0  0  0  0  0  0  0  0
  -25.9690  -30.8100   21.3160 C   0  0  0  0  0  2  0  0  0  0  0  0
  -26.0660  -29.4270   20.7000 C   0  0  0  0  0  0  0  0  0  0  0  0
  -27.2710  -28.6820   20.7050 C   0  0  0  0  0  3  0  0  0  0  0  0
  -26.1340  -26.8650   19.5600 C   0  0  0  0  0  3  0  0  0  0  0  0
  -24.9420  -27.6080   19.5460 C   0  0  0  0  0  3  0  0  0  0  0  0
  -23.6630  -29.7430   20.1380 C   0  0  0  0  0  2  0  0  0  0  0  0
  -24.6970  -31.0610   22.0390 N   0  0  0  0  0  0  0  0  0  0  0  0
  -23.5410  -32.1590   23.6520 O   0  0  0  0  0  0  0  0  0  0  0  0
  -22.7910  -29.4350   22.4780 C   0  0  0  0  0  0  0  0  0  0  0  0
  -21.4640  -29.2620   22.3640 N   0  0  0  0  0  0  0  0  0  0  0  0
  -23.4770  -28.8120   23.2940 O   0  0  0  0  0  0  0  0  0  0  0  0
  -20.9730  -29.8150   21.6760 H   0  0  0  0  0  0  0  0  0  0  0  0
  -18.0800  -28.1270   22.9300 C   0  0  0  0  0  0  0  0  0  0  0  0
  -20.6470  -28.3360   23.1490 C   0  0  0  0  0  3  0  0  0  0  0  0
  -20.7110  -26.9050   22.5680 C   0  0  0  0  0  2  0  0  0  0  0  0
  -19.5820  -26.6050   21.5770 C   0  0  0  0  0  2  0  0  0  0  0  0
  -18.2160  -26.7760   22.2510 C   0  0  0  0  0  2  0  0  0  0  0  0
  -19.2210  -28.8670   23.3390 C   0  0  0  0  0  0  0  0  0  0  0  0
  -19.0380  -30.1340   23.9350 C   0  0  0  0  0  3  0  0  0  0  0  0
  -17.7480  -30.6600   24.1280 C   0  0  0  0  0  3  0  0  0  0  0  0
  -16.6210  -29.9160   23.7350 C   0  0  0  0  0  3  0  0  0  0  0  0
  -16.7880  -28.6520   23.1430 C   0  0  0  0  0  3  0  0  0  0  0  0
  -25.9070  -32.5340   23.7400 C   0  0  0  0  0  3  0  0  0  0  0  0
  -25.5730  -33.9240   24.0810 N   0  0  0  0  0  0  0  0  0  0  0  0
  -25.8770  -34.9850   23.3230 C   0  0  0  0  0  0  0  0  0  0  0  0
  -26.5390  -34.9010   22.2840 O   0  0  0  0  0  0  0  0  0  0  0  0
  -24.9840  -34.0620   24.8880 H   0  0  0  0  0  0  0  0  0  0  0  0
  -24.1100  -36.7440   22.9910 C   0  0  0  0  0  1  0  0  0  0  0  0
  -25.3660  -36.3620   23.7910 C   0  0  0  0  0  3  0  0  0  0  0  0
  -27.4890  -37.2850   24.6070 C   0  0  0  0  0  1  0  0  0  0  0  0
  -26.3760  -37.4350   23.6730 N   0  0  0  0  0  0  0  0  0  0  0  0
  -25.9540  -38.3470   23.8260 H   0  0  0  0  0  0  0  0  0  0  0  0
  -26.4480  -31.7640   25.0060 C   0  0  1  0  0  0  0  0  0  0  0  0
  -25.3680  -31.4950   26.0790 C   0  0  0  0  0  1  0  0  0  0  0  0
  -27.0580  -30.4030   24.5970 C   0  0  0  0  0  1  0  0  0  0  0  0
  -27.5860  -32.5780   25.6660 C   0  0  0  0  0  1  0  0  0  0  0  0
  1  2  1  0
  2 50  1  0
  2  4  1  0
  2  3  1  6
  5  8  1  0
  6  5  2  0
  7 10  1  0
  8  4  1  0
  9  6  1  0
  9  7  2  0
  9 21  1  0
 10  8  2  0
 10 11  1  0
 12 21  1  0
 13 18  1  0
 14 15  1  0
 14 13  1  0
 16 15  1  0
 16 25  1  0
 16 17  1  0
 18 12  1  0
 18 17  1  0
 19 12  2  0
 21 20  1  0
 22 23  2  0
 23 42  1  0
 24 23  1  0
 24 27  1  0
 25 26  1  0
 25 22  1  0
 26 24  2  0
 27 28  1  0
 28 29  2  0
 30 33  1  0
 30 29  1  0
 31 30  2  0
 32 31  1  0
 32 27  2  0
 33 34  1  0
 34 35  1  0
 35 36  2  0
 37 36  1  0
 37 41  1  0
 38 37  2  0
 39 34  2  0
 39 38  1  0
 40 39  1  0
 42 43  1  0
 43 46  1  0
 43 45  1  0
 44 42  2  0
 47 22  1  0
 47 48  1  0
 49 47  1  0
 51 50  1  0
 52 51  1  0
 52 53  1  0
 54 65  2  0
 55 53  1  0
 55 60  1  0
 56 64  1  0
 56 66  1  0
 57 63  1  0
 57 59  1  0
 58 64  1  0
 59 60  2  0
 59 58  1  0
 61 55  2  0
 62 61  1  0
 62 57  2  0
 63 56  1  0
 64 54  1  0
 66 68  2  0
 67 66  1  0
 69 67  1  0
 70 79  2  0
 70 75  1  0
 71 67  1  0
 71 75  1  0
 72 71  1  0
 73 74  1  0
 73 72  1  0
 74 70  1  0
 75 76  2  0
 76 77  1  0
 78 77  2  0
 79 78  1  0
 80 54  1  0
 80 81  1  0
 80 90  1  0
 81 84  1  0
 82 86  1  0
 82 81  1  0
 83 82  2  0
 86 85  1  0
 88 86  1  0
 88 89  1  0
 88 87  1  0
 90 93  1  1
 90 91  1  0
 92 90  1  0
M  ISO  4  12 100  21 100  52 101  53 101
M  END
>  <TORSDO>  (36) 
F 21

>  <SCORE>  (36) 
-11.941

>  <name>  (36) 
36

>  <ligand_id>  (36) 
36

>  <original_smiles>  (36) 
[H]c1c([H])c([H])c2c(c1[H])C([H])([H])C([H])([H])C([H])([H])C2([H])N([H])C(=O)C1([H])N(C(=O)C([H])(N([H])C(=O)C([H])(N([H])C([H])([H])[H])C([H])([H])[H])C(C([H])([H])[H])(C([H])([H])[H])C([H])([H])[H])C([H])([H])c2c([H])c(OC([H])([H])C([H])([H])C([H])([H])[N+]([H])(C([H])([H])[H])C([H])([H])c3c([H])c([H])c(N(C(=O)N4C([H])([H])C([H])([H])C([H])([H])C([H])(n5nc(-c6c([H])c([H])c(Oc7c([H])c([H])c(F)c([H])c7F)c([H])c6[H])c(C(=O)N([H])[H])c5N([H])[H])C4([H])[H])C([H])([H])[H])c([H])c3F)c([H])c([H])c2C1([H])[H]

>  <smiles>  (36) 
[H]c1c([H])c([H])c2c(c1[H])C([H])([H])C([H])([H])C([H])([H])C2([H])N([H])C(=O)C1([H])N(C(=O)C([H])(N([H])C(=O)C([H])(N([H])C([H])([H])[H])C([H])([H])[H])C(C([H])([H])[H])(C([H])([H])[H])C([H])([H])[H])C([H])([H])c2c([H])c(OC([H])([H])C([H])([H])C([H])([H])[N+]([H])(C([H])([H])[H])C([H])([H])c3c([H])c([H])c(N(C(=O)N4C([H])([H])C([H])([H])C([H])([H])C([H])(n5nc(-c6c([H])c([H])c(Oc7c([H])c([H])c(F)c([H])c7F)c([H])c6[H])c(C(=O)N([H])[H])c5N([H])[H])C4([H])[H])C([H])([H])[H])c([H])c3F)c([H])c([H])c2C1([H])[H]

$$$$
37:0:0
     RDKit          3D

 92101  0  0  1  0  0  0  0  0999 V2000
  -28.2910  -24.1050   19.0990 C   0  0  0  0  0  2  0  0  0  0  0  0
  -29.2150  -24.2870   21.3260 C   0  0  0  0  0  2  0  0  0  0  0  0
  -28.1720  -22.5240   19.2810 C   0  0  0  0  0  2  0  0  0  0  0  0
  -29.1050  -22.7100   21.5120 C   0  0  0  0  0  2  0  0  0  0  0  0
  -28.1580  -24.9750   20.3960 C   0  0  0  0  0  3  0  0  0  0  0  0
  -29.0960  -21.9000   20.2670 N   0  0  0  0  0  0  0  0  0  0  0  0
  -30.1750  -19.7840   21.2460 C   0  0  0  0  0  3  0  0  0  0  0  0
  -30.3750  -18.3560   21.3000 C   0  0  0  0  0  3  0  0  0  0  0  0
  -28.6930  -19.5140   19.4150 C   0  0  0  0  0  3  0  0  0  0  0  0
  -28.8790  -18.0830   19.4630 C   0  0  0  0  0  0  0  0  0  0  0  0
  -29.3110  -20.4430   20.3110 C   0  0  0  0  0  0  0  0  0  0  0  0
  -29.7330  -17.4400   20.4170 C   0  0  0  0  0  0  0  0  0  0  0  0
  -28.1070  -17.2320   18.4700 C   0  0  0  0  0  1  0  0  0  0  0  0
  -30.5820  -14.9050   20.3620 C   0  0  0  0  0  0  0  0  0  0  0  0
  -30.4700  -12.6040   19.3690 C   0  0  0  0  0  2  0  0  0  0  0  0
  -29.5140  -12.6450   18.1530 C   0  0  0  0  0  2  0  0  0  0  0  0
  -28.0490  -12.4460   18.5930 C   0  0  0  0  0  2  0  0  0  0  0  0
  -27.6680  -13.3310   19.8100 C   0  0  0  0  0  3  0  0  0  0  0  0
  -28.7370  -13.2500   20.9230 C   0  0  0  0  0  2  0  0  0  0  0  0
  -30.0220  -13.6440   20.3250 N   0  0  0  0  0  0  0  0  0  0  0  0
  -31.7560  -15.0680   20.0140 O   0  0  0  0  0  0  0  0  0  0  0  0
  -29.7160  -15.9600   20.6270 N   0  0  0  0  0  0  0  0  0  0  0  0
  -28.7990  -15.6080   20.8560 H   0  0  0  0  0  0  0  0  0  0  0  0
  -25.2870  -13.9020   20.5760 C   0  0  0  0  0  0  0  0  0  0  0  0
  -24.2270  -13.1170   20.9410 C   0  0  0  0  0  0  0  0  0  0  0  0
  -24.6940  -11.7690   20.8770 C   0  0  0  0  0  0  0  0  0  0  0  0
  -26.3310  -13.0290   20.3080 N   0  0  0  0  0  0  0  0  0  0  0  0
  -25.9810  -11.7410   20.5530 N   0  0  0  0  0  0  0  0  0  0  0  0
  -23.9730  -10.5010   21.0500 C   0  0  0  0  0  0  0  0  0  0  0  0
  -24.3930   -9.5360   21.9910 C   0  0  0  0  0  3  0  0  0  0  0  0
  -23.6710   -8.3330   22.1520 C   0  0  0  0  0  3  0  0  0  0  0  0
  -22.5170   -8.0880   21.3710 C   0  0  0  0  0  0  0  0  0  0  0  0
  -22.1170   -9.0420   20.4200 C   0  0  0  0  0  3  0  0  0  0  0  0
  -22.8390  -10.2370   20.2570 C   0  0  0  0  0  3  0  0  0  0  0  0
  -21.7680   -6.9380   21.4410 O   0  0  0  0  0  0  0  0  0  0  0  0
  -21.6580   -6.2210   22.6060 C   0  0  0  0  0  0  0  0  0  0  0  0
  -21.0890   -6.7770   23.7720 C   0  0  0  0  0  3  0  0  0  0  0  0
  -20.9310   -5.9830   24.9260 C   0  0  0  0  0  3  0  0  0  0  0  0
  -21.3320   -4.6340   24.9130 C   0  0  0  0  0  0  0  0  0  0  0  0
  -21.8940   -4.0770   23.7510 C   0  0  0  0  0  3  0  0  0  0  0  0
  -22.0540   -4.8670   22.5990 C   0  0  0  0  0  0  0  0  0  0  0  0
  -22.5760   -4.3210   21.4760 F   0  0  0  0  0  0  0  0  0  0  0  0
  -21.1730   -3.8680   26.0180 F   0  0  0  0  0  0  0  0  0  0  0  0
  -22.8320  -13.5860   21.2370 C   0  0  0  0  0  0  0  0  0  0  0  0
  -22.1190  -12.8780   22.1070 N   0  0  0  0  0  0  0  0  0  0  0  0
  -22.3820  -14.6150   20.7340 O   0  0  0  0  0  0  0  0  0  0  0  0
  -22.4950  -12.0450   22.5350 H   0  0  0  0  0  0  0  0  0  0  0  0
  -21.1840  -13.1740   22.3470 H   0  0  0  0  0  0  0  0  0  0  0  0
  -25.4410  -15.2760   20.4260 N   0  0  0  0  0  0  0  0  0  0  0  0
  -24.6680  -15.9180   20.5640 H   0  0  0  0  0  0  0  0  0  0  0  0
  -26.2790  -15.7340   20.0930 H   0  0  0  0  0  0  0  0  0  0  0  0
  -28.3280  -26.4790   20.2700 O   0  0  0  0  0  0  0  0  0  0  0  0
  -24.6360  -31.9480   23.3430 C   0  0  0  0  0  0  0  0  0  0  0  0
  -27.2180  -27.3600   20.2430 C   0  0  0  0  0  0  0  0  0  0  0  0
  -23.4260  -30.5740   21.6880 C   0  0  0  0  0  3  0  0  0  0  0  0
  -24.8680  -29.0230   20.2420 C   0  0  0  0  0  0  0  0  0  0  0  0
  -25.9700  -30.8700   21.5070 C   0  0  0  0  0  2  0  0  0  0  0  0
  -26.0430  -29.4920   20.8420 C   0  0  0  0  0  0  0  0  0  0  0  0
  -27.2210  -28.6770   20.8240 C   0  0  0  0  0  3  0  0  0  0  0  0
  -26.0170  -26.9570   19.6200 C   0  0  0  0  0  3  0  0  0  0  0  0
  -24.8610  -27.7650   19.6180 C   0  0  0  0  0  3  0  0  0  0  0  0
  -23.6380  -29.9090   20.3000 C   0  0  0  0  0  2  0  0  0  0  0  0
  -24.6970  -31.1490   22.2360 N   0  0  0  0  0  0  0  0  0  0  0  0
  -23.5540  -32.2260   23.8810 O   0  0  0  0  0  0  0  0  0  0  0  0
  -22.7540  -29.5550   22.6390 C   0  0  0  0  0  0  0  0  0  0  0  0
  -21.4310  -29.3700   22.4960 N   0  0  0  0  0  0  0  0  0  0  0  0
  -23.4260  -28.9310   23.4650 O   0  0  0  0  0  0  0  0  0  0  0  0
  -20.9470  -29.9250   21.8030 H   0  0  0  0  0  0  0  0  0  0  0  0
  -18.0550  -28.1470   22.9550 C   0  0  0  0  0  0  0  0  0  0  0  0
  -20.6090  -28.4240   23.2540 C   0  0  0  0  0  3  0  0  0  0  0  0
  -20.7270  -26.9960   22.6750 C   0  0  0  0  0  2  0  0  0  0  0  0
  -19.6400  -26.6700   21.6460 C   0  0  0  0  0  2  0  0  0  0  0  0
  -18.2480  -26.8030   22.2750 C   0  0  0  0  0  2  0  0  0  0  0  0
  -19.1640  -28.9170   23.4000 C   0  0  0  0  0  0  0  0  0  0  0  0
  -18.9280  -30.1750   23.9950 C   0  0  0  0  0  3  0  0  0  0  0  0
  -17.6170  -30.6650   24.1480 C   0  0  0  0  0  3  0  0  0  0  0  0
  -16.5230  -29.8940   23.7180 C   0  0  0  0  0  3  0  0  0  0  0  0
  -16.7430  -28.6360   23.1280 C   0  0  0  0  0  3  0  0  0  0  0  0
  -25.9210  -32.5690   23.9730 C   0  0  0  0  0  3  0  0  0  0  0  0
  -25.6260  -33.9740   24.2930 N   0  0  0  0  0  0  0  0  0  0  0  0
  -25.9290  -35.0150   23.5060 C   0  0  0  0  0  0  0  0  0  0  0  0
  -26.5550  -34.8940   22.4500 O   0  0  0  0  0  0  0  0  0  0  0  0
  -25.0680  -34.1420   25.1170 H   0  0  0  0  0  0  0  0  0  0  0  0
  -24.1790  -36.7990   23.2170 C   0  0  0  0  0  1  0  0  0  0  0  0
  -25.4660  -36.4120   23.9630 C   0  0  0  0  0  3  0  0  0  0  0  0
  -27.6350  -37.3260   24.6640 C   0  0  0  0  0  1  0  0  0  0  0  0
  -26.4880  -37.4650   23.7710 N   0  0  0  0  0  0  0  0  0  0  0  0
  -26.0850  -38.3880   23.9120 H   0  0  0  0  0  0  0  0  0  0  0  0
  -26.4140  -31.8010   25.2620 C   0  0  1  0  0  0  0  0  0  0  0  0
  -25.3060  -31.5820   26.3180 C   0  0  0  0  0  1  0  0  0  0  0  0
  -26.9880  -30.4150   24.8880 C   0  0  0  0  0  1  0  0  0  0  0  0
  -27.5660  -32.5870   25.9310 C   0  0  0  0  0  1  0  0  0  0  0  0
  1  3  1  0
  1  5  1  0
  2  4  1  0
  3  6  1  0
  5 52  1  0
  5  2  1  0
  6 11  1  0
  6  4  1  0
  7  8  1  0
  9 10  2  0
  9 11  1  0
 10 12  1  0
 11  7  2  0
 12 22  1  0
 12  8  2  0
 13 10  1  0
 14 22  1  0
 15 20  1  0
 16 17  1  0
 16 15  1  0
 18 17  1  0
 18 27  1  0
 18 19  1  0
 20 14  1  0
 20 19  1  0
 21 14  2  0
 22 23  1  0
 24 25  2  0
 25 44  1  0
 26 25  1  0
 26 29  1  0
 27 28  1  0
 27 24  1  0
 28 26  2  0
 29 30  1  0
 30 31  2  0
 32 35  1  0
 32 31  1  0
 33 32  2  0
 34 33  1  0
 34 29  2  0
 35 36  1  0
 36 37  1  0
 37 38  2  0
 39 38  1  0
 39 43  1  0
 40 39  2  0
 41 36  2  0
 41 40  1  0
 42 41  1  0
 44 45  1  0
 45 48  1  0
 45 47  1  0
 46 44  2  0
 49 50  1  0
 49 24  1  0
 51 49  1  0
 53 64  2  0
 54 52  1  0
 54 59  1  0
 55 63  1  0
 55 65  1  0
 56 62  1  0
 56 58  1  0
 57 63  1  0
 58 57  1  0
 59 58  2  0
 60 54  2  0
 61 60  1  0
 61 56  2  0
 62 55  1  0
 63 53  1  0
 65 67  2  0
 66 65  1  0
 68 66  1  0
 69 78  2  0
 69 74  1  0
 70 66  1  0
 70 74  1  0
 71 70  1  0
 72 73  1  0
 72 71  1  0
 73 69  1  0
 74 75  2  0
 75 76  1  0
 77 76  2  0
 78 77  1  0
 79 53  1  0
 79 80  1  0
 79 89  1  0
 80 83  1  0
 81 85  1  0
 81 80  1  0
 82 81  2  0
 85 84  1  0
 87 88  1  0
 87 85  1  0
 87 86  1  0
 89 92  1  1
 89 90  1  0
 91 89  1  0
M  ISO  4   5 101  14 100  22 100  52 101
M  END
>  <TORSDO>  (37) 
F 17

>  <SCORE>  (37) 
-15.240

>  <name>  (37) 
37

>  <ligand_id>  (37) 
37

>  <original_smiles>  (37) 
[H]c1c([H])c([H])c2c(c1[H])C([H])([H])C([H])([H])C([H])([H])C2([H])N([H])C(=O)C1([H])N(C(=O)C([H])(N([H])C(=O)C([H])(N([H])C([H])([H])[H])C([H])([H])[H])C(C([H])([H])[H])(C([H])([H])[H])C([H])([H])[H])C([H])([H])c2c([H])c(OC3([H])C([H])([H])C([H])([H])N(c4c([H])c([H])c(N([H])C(=O)N5C([H])([H])C([H])([H])C([H])([H])C([H])(n6nc(-c7c([H])c([H])c(Oc8c([H])c([H])c(F)c([H])c8F)c([H])c7[H])c(C(=O)N([H])[H])c6N([H])[H])C5([H])[H])c(C([H])([H])[H])c4[H])C([H])([H])C3([H])[H])c([H])c([H])c2C1([H])[H]

>  <smiles>  (37) 
[H]c1c([H])c([H])c2c(c1[H])C([H])([H])C([H])([H])C([H])([H])C2([H])N([H])C(=O)C1([H])N(C(=O)C([H])(N([H])C(=O)C([H])(N([H])C([H])([H])[H])C([H])([H])[H])C(C([H])([H])[H])(C([H])([H])[H])C([H])([H])[H])C([H])([H])c2c([H])c(OC3([H])C([H])([H])C([H])([H])N(c4c([H])c([H])c(N([H])C(=O)N5C([H])([H])C([H])([H])C([H])([H])C([H])(n6nc(-c7c([H])c([H])c(Oc8c([H])c([H])c(F)c([H])c8F)c([H])c7[H])c(C(=O)N([H])[H])c6N([H])[H])C5([H])[H])c(C([H])([H])[H])c4[H])C([H])([H])C3([H])[H])c([H])c([H])c2C1([H])[H]

$$$$
38:0:0
     RDKit          3D

 90 99  0  0  1  0  0  0  0  0999 V2000
  -29.1270  -24.4210   21.7300 C   0  0  0  0  0  2  0  0  0  0  0  0
  -29.2060  -22.8660   21.8870 C   0  0  0  0  0  2  0  0  0  0  0  0
  -28.4420  -23.3910   19.7210 C   0  0  0  0  0  2  0  0  0  0  0  0
  -28.1410  -24.7640   20.5960 C   0  0  0  0  0  3  0  0  0  0  0  0
  -28.9880  -22.2370   20.5810 N   0  0  0  0  0  0  0  0  0  0  0  0
  -30.1550  -19.9910   21.1770 C   0  0  0  0  0  3  0  0  0  0  0  0
  -28.4820  -19.8780   19.5370 C   0  0  0  0  0  3  0  0  0  0  0  0
  -30.3590  -18.5470   21.1040 C   0  0  0  0  0  3  0  0  0  0  0  0
  -28.6590  -18.4290   19.4880 C   0  0  0  0  0  3  0  0  0  0  0  0
  -29.2000  -20.7620   20.4120 C   0  0  0  0  0  0  0  0  0  0  0  0
  -29.6080  -17.6650   20.2610 C   0  0  0  0  0  0  0  0  0  0  0  0
  -30.4700  -15.0200   20.1680 C   0  0  0  0  0  0  0  0  0  0  0  0
  -30.3850  -12.6760   19.1950 C   0  0  0  0  0  2  0  0  0  0  0  0
  -29.4100  -12.6390   17.9940 C   0  0  0  0  0  2  0  0  0  0  0  0
  -27.9600  -12.4140   18.4650 C   0  0  0  0  0  2  0  0  0  0  0  0
  -27.5810  -13.3190   19.6670 C   0  0  0  0  0  3  0  0  0  0  0  0
  -28.6700  -13.3050   20.7620 C   0  0  0  0  0  2  0  0  0  0  0  0
  -29.9200  -13.7410   20.1260 N   0  0  0  0  0  0  0  0  0  0  0  0
  -31.6660  -15.1410   19.8770 O   0  0  0  0  0  0  0  0  0  0  0  0
  -29.5890  -16.1270   20.3100 N   0  0  0  0  0  0  0  0  0  0  0  0
  -28.6480  -15.7720   20.3860 H   0  0  0  0  0  0  0  0  0  0  0  0
  -25.2170  -13.8810   20.4730 C   0  0  0  0  0  0  0  0  0  0  0  0
  -24.1680  -13.0970   20.8660 C   0  0  0  0  0  0  0  0  0  0  0  0
  -24.6390  -11.7490   20.8100 C   0  0  0  0  0  0  0  0  0  0  0  0
  -26.2580  -13.0100   20.1960 N   0  0  0  0  0  0  0  0  0  0  0  0
  -25.9210  -11.7220   20.4650 N   0  0  0  0  0  0  0  0  0  0  0  0
  -23.9240  -10.4820   21.0040 C   0  0  0  0  0  0  0  0  0  0  0  0
  -24.3720   -9.5140   21.9310 C   0  0  0  0  0  3  0  0  0  0  0  0
  -23.6560   -8.3120   22.1140 C   0  0  0  0  0  3  0  0  0  0  0  0
  -22.4760   -8.0680   21.3700 C   0  0  0  0  0  0  0  0  0  0  0  0
  -22.0470   -9.0230   20.4320 C   0  0  0  0  0  3  0  0  0  0  0  0
  -22.7640  -10.2170   20.2470 C   0  0  0  0  0  3  0  0  0  0  0  0
  -21.7300   -6.9180   21.4630 O   0  0  0  0  0  0  0  0  0  0  0  0
  -21.6810   -6.1840   22.6210 C   0  0  0  0  0  0  0  0  0  0  0  0
  -21.2370   -6.7430   23.8400 C   0  0  0  0  0  3  0  0  0  0  0  0
  -21.1380   -5.9330   24.9880 C   0  0  0  0  0  3  0  0  0  0  0  0
  -21.4710   -4.5670   24.9200 C   0  0  0  0  0  0  0  0  0  0  0  0
  -21.9090   -4.0090   23.7060 C   0  0  0  0  0  3  0  0  0  0  0  0
  -22.0100   -4.8150   22.5590 C   0  0  0  0  0  0  0  0  0  0  0  0
  -22.4120   -4.2670   21.3870 F   0  0  0  0  0  0  0  0  0  0  0  0
  -21.3680   -3.7880   26.0220 F   0  0  0  0  0  0  0  0  0  0  0  0
  -22.7750  -13.5640   21.1770 C   0  0  0  0  0  0  0  0  0  0  0  0
  -22.0720  -12.8550   22.0520 N   0  0  0  0  0  0  0  0  0  0  0  0
  -22.3210  -14.5930   20.6780 O   0  0  0  0  0  0  0  0  0  0  0  0
  -22.4530  -12.0220   22.4760 H   0  0  0  0  0  0  0  0  0  0  0  0
  -21.1380  -13.1510   22.3020 H   0  0  0  0  0  0  0  0  0  0  0  0
  -25.3620  -15.2540   20.2990 N   0  0  0  0  0  0  0  0  0  0  0  0
  -24.5780  -15.8870   20.4140 H   0  0  0  0  0  0  0  0  0  0  0  0
  -26.1610  -15.6970   19.8650 H   0  0  0  0  0  0  0  0  0  0  0  0
  -28.2900  -26.2670   20.2130 O   0  0  0  0  0  0  0  0  0  0  0  0
  -24.6360  -31.9120   23.2610 C   0  0  0  0  0  0  0  0  0  0  0  0
  -27.2050  -27.2100   20.2250 C   0  0  0  0  0  0  0  0  0  0  0  0
  -23.4290  -30.5170   21.6260 C   0  0  0  0  0  3  0  0  0  0  0  0
  -24.8690  -28.9350   20.2010 C   0  0  0  0  0  0  0  0  0  0  0  0
  -25.9790  -30.7890   21.4440 C   0  0  0  0  0  2  0  0  0  0  0  0
  -26.0520  -29.3950   20.7960 C   0  0  0  0  0  0  0  0  0  0  0  0
  -27.2230  -28.5500   20.7830 C   0  0  0  0  0  3  0  0  0  0  0  0
  -25.9950  -26.8400   19.6050 C   0  0  0  0  0  3  0  0  0  0  0  0
  -24.8530  -27.6710   19.5900 C   0  0  0  0  0  3  0  0  0  0  0  0
  -23.6420  -29.8330   20.2480 C   0  0  0  0  0  2  0  0  0  0  0  0
  -24.7020  -31.0940   22.1650 N   0  0  0  0  0  0  0  0  0  0  0  0
  -23.5530  -32.1960   23.7940 O   0  0  0  0  0  0  0  0  0  0  0  0
  -22.7540  -29.5120   22.5910 C   0  0  0  0  0  0  0  0  0  0  0  0
  -21.4260  -29.3370   22.4660 N   0  0  0  0  0  0  0  0  0  0  0  0
  -23.4270  -28.8890   23.4170 O   0  0  0  0  0  0  0  0  0  0  0  0
  -20.9370  -29.8900   21.7760 H   0  0  0  0  0  0  0  0  0  0  0  0
  -18.0500  -28.1200   22.9650 C   0  0  0  0  0  0  0  0  0  0  0  0
  -20.6080  -28.3990   23.2390 C   0  0  0  0  0  3  0  0  0  0  0  0
  -20.7190  -26.9640   22.6740 C   0  0  0  0  0  2  0  0  0  0  0  0
  -19.6220  -26.6300   21.6580 C   0  0  0  0  0  2  0  0  0  0  0  0
  -18.2380  -26.7690   22.2960 C   0  0  0  0  0  2  0  0  0  0  0  0
  -19.1630  -28.8920   23.3940 C   0  0  0  0  0  0  0  0  0  0  0  0
  -18.9340  -30.1560   23.9810 C   0  0  0  0  0  3  0  0  0  0  0  0
  -17.6240  -30.6480   24.1420 C   0  0  0  0  0  3  0  0  0  0  0  0
  -16.5260  -29.8740   23.7280 C   0  0  0  0  0  3  0  0  0  0  0  0
  -16.7400  -28.6120   23.1460 C   0  0  0  0  0  3  0  0  0  0  0  0
  -25.9170  -32.5480   23.8830 C   0  0  0  0  0  3  0  0  0  0  0  0
  -25.6090  -33.9480   24.2140 N   0  0  0  0  0  0  0  0  0  0  0  0
  -25.9370  -35.0030   23.4560 C   0  0  0  0  0  0  0  0  0  0  0  0
  -26.5960  -34.8990   22.4190 O   0  0  0  0  0  0  0  0  0  0  0  0
  -25.0230  -34.1010   25.0220 H   0  0  0  0  0  0  0  0  0  0  0  0
  -24.2060  -36.8000   23.1270 C   0  0  0  0  0  1  0  0  0  0  0  0
  -25.4580  -36.3920   23.9210 C   0  0  0  0  0  3  0  0  0  0  0  0
  -27.6040  -37.2780   24.7220 C   0  0  0  0  0  1  0  0  0  0  0  0
  -26.4900  -37.4450   23.7930 N   0  0  0  0  0  0  0  0  0  0  0  0
  -26.0870  -38.3650   23.9450 H   0  0  0  0  0  0  0  0  0  0  0  0
  -26.4280  -31.7800   25.1650 C   0  0  1  0  0  0  0  0  0  0  0  0
  -25.3330  -31.5590   26.2360 C   0  0  0  0  0  1  0  0  0  0  0  0
  -26.9980  -30.3950   24.7840 C   0  0  0  0  0  1  0  0  0  0  0  0
  -27.5850  -32.5690   25.8220 C   0  0  0  0  0  1  0  0  0  0  0  0
  1  2  1  0
  3  5  1  0
  3  4  1  0
  4 50  1  0
  4  1  1  0
  5  2  1  0
  7 10  1  0
  8  6  1  0
  9  7  2  0
  9 11  1  0
 10  5  1  0
 10  6  2  0
 11 20  1  0
 11  8  2  0
 12 20  1  0
 13 18  1  0
 14 15  1  0
 14 13  1  0
 16 15  1  0
 16 25  1  0
 16 17  1  0
 18 12  1  0
 18 17  1  0
 19 12  2  0
 20 21  1  0
 22 23  2  0
 23 42  1  0
 24 23  1  0
 24 27  1  0
 25 26  1  0
 25 22  1  0
 26 24  2  0
 27 28  1  0
 28 29  2  0
 30 33  1  0
 30 29  1  0
 31 30  2  0
 32 31  1  0
 32 27  2  0
 33 34  1  0
 34 35  1  0
 35 36  2  0
 37 36  1  0
 37 41  1  0
 38 37  2  0
 39 34  2  0
 39 38  1  0
 40 39  1  0
 42 43  1  0
 43 46  1  0
 43 45  1  0
 44 42  2  0
 47 48  1  0
 47 22  1  0
 49 47  1  0
 50 52  1  0
 51 62  2  0
 52 57  1  0
 53 61  1  0
 53 63  1  0
 54 60  1  0
 54 56  1  0
 55 61  1  0
 56 55  1  0
 57 56  2  0
 58 52  2  0
 59 58  1  0
 59 54  2  0
 60 53  1  0
 61 51  1  0
 63 65  2  0
 64 63  1  0
 66 64  1  0
 67 76  2  0
 67 72  1  0
 68 64  1  0
 68 72  1  0
 69 68  1  0
 70 71  1  0
 70 69  1  0
 71 67  1  0
 72 73  2  0
 73 74  1  0
 75 74  2  0
 76 75  1  0
 77 51  1  0
 77 78  1  0
 77 87  1  0
 78 81  1  0
 79 83  1  0
 79 78  1  0
 80 79  2  0
 83 82  1  0
 85 83  1  0
 85 86  1  0
 85 84  1  0
 87 90  1  1
 87 88  1  0
 89 87  1  0
M  ISO  4   4 101  12 100  20 100  50 101
M  END
>  <TORSDO>  (38) 
F 17

>  <SCORE>  (38) 
-15.242

>  <name>  (38) 
38

>  <ligand_id>  (38) 
38

>  <original_smiles>  (38) 
[H]c1c([H])c([H])c2c(c1[H])C([H])([H])C([H])([H])C([H])([H])C2([H])N([H])C(=O)C1([H])N(C(=O)C([H])(N([H])C(=O)C([H])(N([H])C([H])([H])[H])C([H])([H])[H])C(C([H])([H])[H])(C([H])([H])[H])C([H])([H])[H])C([H])([H])c2c([H])c(OC3([H])C([H])([H])N(c4c([H])c([H])c(N([H])C(=O)N5C([H])([H])C([H])([H])C([H])([H])C([H])(n6nc(-c7c([H])c([H])c(Oc8c([H])c([H])c(F)c([H])c8F)c([H])c7[H])c(C(=O)N([H])[H])c6N([H])[H])C5([H])[H])c([H])c4[H])C([H])([H])C3([H])[H])c([H])c([H])c2C1([H])[H]

>  <smiles>  (38) 
[H]c1c([H])c([H])c2c(c1[H])C([H])([H])C([H])([H])C([H])([H])C2([H])N([H])C(=O)C1([H])N(C(=O)C([H])(N([H])C(=O)C([H])(N([H])C([H])([H])[H])C([H])([H])[H])C(C([H])([H])[H])(C([H])([H])[H])C([H])([H])[H])C([H])([H])c2c([H])c(OC3([H])C([H])([H])N(c4c([H])c([H])c(N([H])C(=O)N5C([H])([H])C([H])([H])C([H])([H])C([H])(n6nc(-c7c([H])c([H])c(Oc8c([H])c([H])c(F)c([H])c8F)c([H])c7[H])c(C(=O)N([H])[H])c6N([H])[H])C5([H])[H])c([H])c4[H])C([H])([H])C3([H])[H])c([H])c([H])c2C1([H])[H]

$$$$
39:0:0
     RDKit          3D

 90 98  0  0  1  0  0  0  0  0999 V2000
  -28.6110  -17.9390   20.7180 C   0  0  0  0  0  3  0  0  0  0  0  0
  -28.5950  -19.3640   20.7270 C   0  0  0  0  0  3  0  0  0  0  0  0
  -31.0190  -17.9310   20.7120 C   0  0  0  0  0  3  0  0  0  0  0  0
  -29.8160  -17.1790   20.6950 C   0  0  0  0  0  0  0  0  0  0  0  0
  -29.7990  -20.1170   20.7340 C   0  0  0  0  0  0  0  0  0  0  0  0
  -31.0090  -19.3590   20.7350 C   0  0  0  0  0  0  0  0  0  0  0  0
  -32.5230  -20.1940   20.7680 Cl  0  0  0  0  0  0  0  0  0  0  0  0
  -30.5740  -14.6890   20.3840 C   0  0  0  0  0  0  0  0  0  0  0  0
  -30.3940  -12.4450   19.3070 C   0  0  0  0  0  2  0  0  0  0  0  0
  -29.4500  -12.5500   18.0840 C   0  0  0  0  0  2  0  0  0  0  0  0
  -27.9760  -12.3870   18.5130 C   0  0  0  0  0  2  0  0  0  0  0  0
  -27.6050  -13.2700   19.7360 C   0  0  0  0  0  3  0  0  0  0  0  0
  -28.6540  -13.1180   20.8590 C   0  0  0  0  0  2  0  0  0  0  0  0
  -29.9690  -13.4600   20.2910 N   0  0  0  0  0  0  0  0  0  0  0  0
  -31.7460  -14.8620   20.0300 O   0  0  0  0  0  0  0  0  0  0  0  0
  -29.7190  -15.7180   20.6880 N   0  0  0  0  0  0  0  0  0  0  0  0
  -28.7840  -15.3710   20.8290 H   0  0  0  0  0  0  0  0  0  0  0  0
  -25.2220  -13.8910   20.4620 C   0  0  0  0  0  0  0  0  0  0  0  0
  -24.1490  -13.1270   20.8410 C   0  0  0  0  0  0  0  0  0  0  0  0
  -24.6000  -11.7720   20.8040 C   0  0  0  0  0  0  0  0  0  0  0  0
  -26.2560  -13.0000   20.2210 N   0  0  0  0  0  0  0  0  0  0  0  0
  -25.8890  -11.7210   20.4910 N   0  0  0  0  0  0  0  0  0  0  0  0
  -23.8660  -10.5140   20.9960 C   0  0  0  0  0  0  0  0  0  0  0  0
  -24.2910   -9.5480   21.9350 C   0  0  0  0  0  3  0  0  0  0  0  0
  -23.5600   -8.3520   22.1120 C   0  0  0  0  0  3  0  0  0  0  0  0
  -22.3930   -8.1180   21.3490 C   0  0  0  0  0  0  0  0  0  0  0  0
  -21.9850   -9.0740   20.4040 C   0  0  0  0  0  3  0  0  0  0  0  0
  -22.7120  -10.2620   20.2260 C   0  0  0  0  0  3  0  0  0  0  0  0
  -21.6320   -6.9760   21.4380 O   0  0  0  0  0  0  0  0  0  0  0  0
  -21.5660   -6.2430   22.5940 C   0  0  0  0  0  0  0  0  0  0  0  0
  -21.1140   -6.8060   23.8100 C   0  0  0  0  0  3  0  0  0  0  0  0
  -20.9950   -6.0000   24.9580 C   0  0  0  0  0  3  0  0  0  0  0  0
  -21.3140   -4.6310   24.8950 C   0  0  0  0  0  0  0  0  0  0  0  0
  -21.7580   -4.0670   23.6850 C   0  0  0  0  0  3  0  0  0  0  0  0
  -21.8790   -4.8690   22.5380 C   0  0  0  0  0  0  0  0  0  0  0  0
  -22.2870   -4.3160   21.3710 F   0  0  0  0  0  0  0  0  0  0  0  0
  -21.1920   -3.8550   25.9970 F   0  0  0  0  0  0  0  0  0  0  0  0
  -22.7550  -13.6140   21.1110 C   0  0  0  0  0  0  0  0  0  0  0  0
  -22.0200  -12.9310   21.9830 N   0  0  0  0  0  0  0  0  0  0  0  0
  -22.3210  -14.6360   20.5810 O   0  0  0  0  0  0  0  0  0  0  0  0
  -22.3800  -12.1040   22.4330 H   0  0  0  0  0  0  0  0  0  0  0  0
  -21.0830  -13.2390   22.1990 H   0  0  0  0  0  0  0  0  0  0  0  0
  -25.3940  -15.2600   20.2780 N   0  0  0  0  0  0  0  0  0  0  0  0
  -24.6200  -15.9100   20.3620 H   0  0  0  0  0  0  0  0  0  0  0  0
  -26.2110  -15.6700   19.8400 H   0  0  0  0  0  0  0  0  0  0  0  0
  -29.8820  -21.5240   20.7670 O   0  0  0  0  0  0  0  0  0  0  0  0
  -28.7430  -22.4150   20.5370 C   0  0  0  0  0  2  0  0  0  0  0  0
  -29.1180  -23.9640   20.6120 C   0  0  0  0  0  3  0  0  0  0  0  0
  -28.0940  -25.0420   20.0470 C   0  0  0  0  0  3  0  0  0  0  0  0
  -28.3400  -26.4910   20.2650 O   0  0  0  0  0  0  0  0  0  0  0  0
  -24.6280  -31.8950   23.2630 C   0  0  0  0  0  0  0  0  0  0  0  0
  -27.2380  -27.3590   20.1850 C   0  0  0  0  0  0  0  0  0  0  0  0
  -23.4310  -30.5200   21.6020 C   0  0  0  0  0  3  0  0  0  0  0  0
  -24.8850  -28.9890   20.1630 C   0  0  0  0  0  0  0  0  0  0  0  0
  -25.9710  -30.8400   21.4320 C   0  0  0  0  0  2  0  0  0  0  0  0
  -26.0510  -29.4640   20.7780 C   0  0  0  0  0  0  0  0  0  0  0  0
  -27.2290  -28.6570   20.7840 C   0  0  0  0  0  3  0  0  0  0  0  0
  -26.0530  -26.9530   19.5250 C   0  0  0  0  0  3  0  0  0  0  0  0
  -24.8890  -27.7400   19.5270 C   0  0  0  0  0  3  0  0  0  0  0  0
  -23.6520  -29.8640   20.2140 C   0  0  0  0  0  2  0  0  0  0  0  0
  -24.6960  -31.1000   22.1560 N   0  0  0  0  0  0  0  0  0  0  0  0
  -23.5430  -32.1660   23.7960 O   0  0  0  0  0  0  0  0  0  0  0  0
  -22.7620  -29.4890   22.5420 C   0  0  0  0  0  0  0  0  0  0  0  0
  -21.4350  -29.3230   22.4100 N   0  0  0  0  0  0  0  0  0  0  0  0
  -23.4320  -28.8440   23.3500 O   0  0  0  0  0  0  0  0  0  0  0  0
  -20.9510  -29.8850   21.7230 H   0  0  0  0  0  0  0  0  0  0  0  0
  -18.0470  -28.1560   22.8980 C   0  0  0  0  0  0  0  0  0  0  0  0
  -20.6080  -28.3840   23.1700 C   0  0  0  0  0  3  0  0  0  0  0  0
  -20.6940  -26.9620   22.5700 C   0  0  0  0  0  2  0  0  0  0  0  0
  -19.5880  -26.6670   21.5520 C   0  0  0  0  0  2  0  0  0  0  0  0
  -18.2080  -26.8160   22.1980 C   0  0  0  0  0  2  0  0  0  0  0  0
  -19.1740  -28.8990   23.3390 C   0  0  0  0  0  0  0  0  0  0  0  0
  -18.9670  -30.1530   23.9520 C   0  0  0  0  0  3  0  0  0  0  0  0
  -17.6680  -30.6670   24.1250 C   0  0  0  0  0  3  0  0  0  0  0  0
  -16.5550  -29.9210   23.7000 C   0  0  0  0  0  3  0  0  0  0  0  0
  -16.7460  -28.6650   23.0940 C   0  0  0  0  0  3  0  0  0  0  0  0
  -25.9100  -32.5200   23.8950 C   0  0  0  0  0  3  0  0  0  0  0  0
  -26.4140  -31.7410   25.1720 C   0  0  1  0  0  0  0  0  0  0  0  0
  -25.3060  -31.5020   26.2240 C   0  0  0  0  0  1  0  0  0  0  0  0
  -26.9920  -30.3620   24.7810 C   0  0  0  0  0  1  0  0  0  0  0  0
  -27.5700  -32.5190   25.8420 C   0  0  0  0  0  1  0  0  0  0  0  0
  -25.6030  -33.9190   24.2260 N   0  0  0  0  0  0  0  0  0  0  0  0
  -25.9290  -34.9690   23.4620 C   0  0  0  0  0  0  0  0  0  0  0  0
  -26.5840  -34.8620   22.4220 O   0  0  0  0  0  0  0  0  0  0  0  0
  -25.0240  -34.0770   25.0360 H   0  0  0  0  0  0  0  0  0  0  0  0
  -24.1860  -36.7510   23.1360 C   0  0  0  0  0  1  0  0  0  0  0  0
  -25.4510  -36.3620   23.9180 C   0  0  0  0  0  3  0  0  0  0  0  0
  -27.6020  -37.2580   24.6960 C   0  0  0  0  0  1  0  0  0  0  0  0
  -26.4810  -37.4150   23.7720 N   0  0  0  0  0  0  0  0  0  0  0  0
  -26.0780  -38.3360   23.9190 H   0  0  0  0  0  0  0  0  0  0  0  0
  1  2  1  0
  2  5  2  0
  3  6  2  0
  4  3  1  0
  4  1  2  0
  5  6  1  0
  5 46  1  0
  6  7  1  0
  8 16  1  0
  9 14  1  0
 10 11  1  0
 10  9  1  0
 12 11  1  0
 12 21  1  0
 12 13  1  0
 14  8  1  0
 14 13  1  0
 15  8  2  0
 16  4  1  0
 16 17  1  0
 18 19  2  0
 19 38  1  0
 20 19  1  0
 20 23  1  0
 21 18  1  0
 21 22  1  0
 22 20  2  0
 23 24  1  0
 24 25  2  0
 26 29  1  0
 26 25  1  0
 27 26  2  0
 28 27  1  0
 28 23  2  0
 29 30  1  0
 30 31  1  0
 31 32  2  0
 33 32  1  0
 33 37  1  0
 34 33  2  0
 35 30  2  0
 35 34  1  0
 36 35  1  0
 38 39  1  0
 39 42  1  0
 39 41  1  0
 40 38  2  0
 43 44  1  0
 43 18  1  0
 45 43  1  0
 47 48  1  0
 47 46  1  0
 49 50  1  0
 49 48  2  0
 51 62  2  0
 52 50  1  0
 52 57  1  0
 53 61  1  0
 53 63  1  0
 54 60  1  0
 54 56  1  0
 55 61  1  0
 56 57  2  0
 56 55  1  0
 58 59  1  0
 58 52  2  0
 59 54  2  0
 60 53  1  0
 61 51  1  0
 63 65  2  0
 64 63  1  0
 66 64  1  0
 67 76  2  0
 67 72  1  0
 68 64  1  0
 68 72  1  0
 69 68  1  0
 70 71  1  0
 70 69  1  0
 71 67  1  0
 72 73  2  0
 73 74  1  0
 75 74  2  0
 76 75  1  0
 77 51  1  0
 77 82  1  0
 77 78  1  0
 78 81  1  1
 78 79  1  0
 80 78  1  0
 82 85  1  0
 83 87  1  0
 83 82  1  0
 84 83  2  0
 87 86  1  0
 89 87  1  0
 89 90  1  0
 89 88  1  0
M  ISO  4   8 100  16 100  49 101  50 101
M  END
>  <TORSDO>  (39) 
F 20

>  <SCORE>  (39) 
-13.848

>  <name>  (39) 
39

>  <ligand_id>  (39) 
39

>  <original_smiles>  (39) 
[H]c1c([H])c([H])c2c(c1[H])C([H])([H])C([H])([H])C([H])([H])C2([H])N([H])C(=O)C1([H])N(C(=O)C([H])(N([H])C(=O)C([H])(N([H])C([H])([H])[H])C([H])([H])[H])C(C([H])([H])[H])(C([H])([H])[H])C([H])([H])[H])C([H])([H])c2c([H])c(OC([H])([H])C([H])([H])C([H])([H])Oc3c([H])c([H])c(N([H])C(=O)N4C([H])([H])C([H])([H])C([H])([H])C([H])(n5nc(-c6c([H])c([H])c(Oc7c([H])c([H])c(F)c([H])c7F)c([H])c6[H])c(C(=O)N([H])[H])c5N([H])[H])C4([H])[H])c([H])c3Cl)c([H])c([H])c2C1([H])[H]

>  <smiles>  (39) 
[H]c1c([H])c([H])c2c(c1[H])C([H])([H])C([H])([H])C([H])([H])C2([H])N([H])C(=O)C1([H])N(C(=O)C([H])(N([H])C(=O)C([H])(N([H])C([H])([H])[H])C([H])([H])[H])C(C([H])([H])[H])(C([H])([H])[H])C([H])([H])[H])C([H])([H])c2c([H])c(OC([H])([H])C([H])([H])C([H])([H])Oc3c([H])c([H])c(N([H])C(=O)N4C([H])([H])C([H])([H])C([H])([H])C([H])(n5nc(-c6c([H])c([H])c(Oc7c([H])c([H])c(F)c([H])c7F)c([H])c6[H])c(C(=O)N([H])[H])c5N([H])[H])C4([H])[H])c([H])c3Cl)c([H])c([H])c2C1([H])[H]

$$$$
40:0:0
     RDKit          3D

 92101  0  0  1  0  0  0  0  0999 V2000
  -29.7580  -21.6730   21.4470 C   0  0  0  0  0  0  0  0  0  0  0  0
  -29.2370  -22.6390   20.6230 N   0  0  0  0  0  0  0  0  0  0  0  0
  -30.2080  -21.9940   22.5490 O   0  0  0  0  0  0  0  0  0  0  0  0
  -28.8270  -22.3220   19.7550 H   0  0  0  0  0  0  0  0  0  0  0  0
  -30.7340  -14.8580   20.2030 C   0  0  0  0  0  0  0  0  0  0  0  0
  -30.5590  -12.5410   19.3140 C   0  0  0  0  0  2  0  0  0  0  0  0
  -29.6000  -12.5400   18.1050 C   0  0  0  0  0  2  0  0  0  0  0  0
  -28.1180  -12.4670   18.5410 C   0  0  0  0  0  2  0  0  0  0  0  0
  -27.7680  -13.3460   19.7740 C   0  0  0  0  0  3  0  0  0  0  0  0
  -28.8560  -13.2850   20.8640 C   0  0  0  0  0  2  0  0  0  0  0  0
  -30.1270  -13.6240   20.2160 N   0  0  0  0  0  0  0  0  0  0  0  0
  -31.9510  -14.9390   20.0030 O   0  0  0  0  0  0  0  0  0  0  0  0
  -29.8620  -19.1560   22.0930 C   0  0  0  0  0  3  0  0  0  0  0  0
  -29.9560  -17.7520   21.8130 C   0  0  0  0  0  3  0  0  0  0  0  0
  -29.8270  -19.6940   19.7330 C   0  0  0  0  0  3  0  0  0  0  0  0
  -29.7820  -20.1660   21.0730 C   0  0  0  0  0  0  0  0  0  0  0  0
  -29.9070  -18.2910   19.4730 C   0  0  0  0  0  0  0  0  0  0  0  0
  -29.9750  -17.3030   20.4670 C   0  0  0  0  0  0  0  0  0  0  0  0
  -29.9090  -17.6460   18.1190 C   0  0  0  0  0  2  0  0  0  0  0  0
  -29.5990  -16.1700   18.4560 C   0  0  0  0  0  2  0  0  0  0  0  0
  -29.9280  -15.9520   19.8980 N   0  0  0  0  0  0  0  0  0  0  0  0
  -25.4070  -13.9250   20.5780 C   0  0  0  0  0  0  0  0  0  0  0  0
  -24.3470  -13.1460   20.9510 C   0  0  0  0  0  0  0  0  0  0  0  0
  -24.8110  -11.7960   20.8850 C   0  0  0  0  0  0  0  0  0  0  0  0
  -26.4420  -13.0490   20.2990 N   0  0  0  0  0  0  0  0  0  0  0  0
  -26.0940  -11.7640   20.5490 N   0  0  0  0  0  0  0  0  0  0  0  0
  -24.0930  -10.5280   21.0650 C   0  0  0  0  0  0  0  0  0  0  0  0
  -24.5180   -9.5630   22.0070 C   0  0  0  0  0  3  0  0  0  0  0  0
  -23.7940   -8.3630   22.1770 C   0  0  0  0  0  3  0  0  0  0  0  0
  -22.6350   -8.1200   21.4060 C   0  0  0  0  0  0  0  0  0  0  0  0
  -22.2310   -9.0700   20.4510 C   0  0  0  0  0  3  0  0  0  0  0  0
  -22.9540  -10.2620   20.2780 C   0  0  0  0  0  3  0  0  0  0  0  0
  -21.8840   -6.9720   21.4840 O   0  0  0  0  0  0  0  0  0  0  0  0
  -21.7660   -6.2680   22.6560 C   0  0  0  0  0  0  0  0  0  0  0  0
  -21.2270   -6.8500   23.8260 C   0  0  0  0  0  3  0  0  0  0  0  0
  -21.0590   -6.0700   24.9880 C   0  0  0  0  0  3  0  0  0  0  0  0
  -21.4170   -4.7090   24.9810 C   0  0  0  0  0  0  0  0  0  0  0  0
  -21.9500   -4.1270   23.8170 C   0  0  0  0  0  3  0  0  0  0  0  0
  -22.1190   -4.9030   22.6570 C   0  0  0  0  0  0  0  0  0  0  0  0
  -22.6110   -4.3310   21.5310 F   0  0  0  0  0  0  0  0  0  0  0  0
  -21.2520   -3.9590   26.0960 F   0  0  0  0  0  0  0  0  0  0  0  0
  -22.9540  -13.6160   21.2600 C   0  0  0  0  0  0  0  0  0  0  0  0
  -22.2470  -12.9130   22.1380 N   0  0  0  0  0  0  0  0  0  0  0  0
  -22.5000  -14.6430   20.7570 O   0  0  0  0  0  0  0  0  0  0  0  0
  -22.6260  -12.0850   22.5680 H   0  0  0  0  0  0  0  0  0  0  0  0
  -21.3180  -13.2160   22.3920 H   0  0  0  0  0  0  0  0  0  0  0  0
  -25.5710  -15.3010   20.4320 N   0  0  0  0  0  0  0  0  0  0  0  0
  -24.8270  -15.9680   20.6090 H   0  0  0  0  0  0  0  0  0  0  0  0
  -26.4430  -15.7440   20.1600 H   0  0  0  0  0  0  0  0  0  0  0  0
  -29.3510  -24.1400   20.8380 C   0  0  0  0  0  3  0  0  0  0  0  0
  -28.2990  -25.1100   20.1330 C   0  0  0  0  0  3  0  0  0  0  0  0
  -28.4430  -26.5800   20.3310 O   0  0  0  0  0  0  0  0  0  0  0  0
  -24.6410  -31.9370   23.2890 C   0  0  0  0  0  0  0  0  0  0  0  0
  -27.3110  -27.4110   20.2400 C   0  0  0  0  0  0  0  0  0  0  0  0
  -23.4560  -30.5350   21.6340 C   0  0  0  0  0  3  0  0  0  0  0  0
  -24.9290  -28.9990   20.2120 C   0  0  0  0  0  0  0  0  0  0  0  0
  -25.9900  -30.8820   21.4570 C   0  0  0  0  0  2  0  0  0  0  0  0
  -26.0880  -29.5030   20.8120 C   0  0  0  0  0  0  0  0  0  0  0  0
  -27.2810  -28.7210   20.8130 C   0  0  0  0  0  3  0  0  0  0  0  0
  -26.1300  -26.9680   19.6010 C   0  0  0  0  0  3  0  0  0  0  0  0
  -24.9500  -27.7370   19.6000 C   0  0  0  0  0  3  0  0  0  0  0  0
  -23.6850  -29.8630   20.2530 C   0  0  0  0  0  2  0  0  0  0  0  0
  -24.7140  -31.1370   22.1830 N   0  0  0  0  0  0  0  0  0  0  0  0
  -23.5550  -32.1990   23.8240 O   0  0  0  0  0  0  0  0  0  0  0  0
  -22.7970  -29.5080   22.5870 C   0  0  0  0  0  0  0  0  0  0  0  0
  -21.4740  -29.3200   22.4530 N   0  0  0  0  0  0  0  0  0  0  0  0
  -23.4800  -28.8820   23.4030 O   0  0  0  0  0  0  0  0  0  0  0  0
  -20.9850  -29.8730   21.7630 H   0  0  0  0  0  0  0  0  0  0  0  0
  -18.1050  -28.1020   22.9440 C   0  0  0  0  0  0  0  0  0  0  0  0
  -20.6630  -28.3720   23.2180 C   0  0  0  0  0  3  0  0  0  0  0  0
  -20.7710  -26.9440   22.6340 C   0  0  0  0  0  2  0  0  0  0  0  0
  -19.6720  -26.6220   21.6150 C   0  0  0  0  0  2  0  0  0  0  0  0
  -18.2900  -26.7570   22.2610 C   0  0  0  0  0  2  0  0  0  0  0  0
  -19.2200  -28.8660   23.3810 C   0  0  0  0  0  0  0  0  0  0  0  0
  -18.9940  -30.1240   23.9810 C   0  0  0  0  0  3  0  0  0  0  0  0
  -17.6880  -30.6190   24.1490 C   0  0  0  0  0  3  0  0  0  0  0  0
  -16.5870  -29.8530   23.7280 C   0  0  0  0  0  3  0  0  0  0  0  0
  -16.7970  -28.5980   23.1310 C   0  0  0  0  0  3  0  0  0  0  0  0
  -25.9170  -32.5770   23.9150 C   0  0  0  0  0  3  0  0  0  0  0  0
  -25.6000  -33.9770   24.2340 N   0  0  0  0  0  0  0  0  0  0  0  0
  -25.9220  -35.0240   23.4610 C   0  0  0  0  0  0  0  0  0  0  0  0
  -26.5860  -34.9110   22.4260 O   0  0  0  0  0  0  0  0  0  0  0  0
  -24.9940  -34.1330   25.0270 H   0  0  0  0  0  0  0  0  0  0  0  0
  -24.1770  -36.8020   23.1010 C   0  0  0  0  0  1  0  0  0  0  0  0
  -25.4280  -36.4140   23.9060 C   0  0  0  0  0  3  0  0  0  0  0  0
  -27.5620  -37.3270   24.7090 C   0  0  0  0  0  1  0  0  0  0  0  0
  -26.4520  -37.4730   23.7710 N   0  0  0  0  0  0  0  0  0  0  0  0
  -26.0390  -38.3910   23.9110 H   0  0  0  0  0  0  0  0  0  0  0  0
  -26.4250  -31.8170   25.2020 C   0  0  1  0  0  0  0  0  0  0  0  0
  -25.3210  -31.5820   26.2610 C   0  0  0  0  0  1  0  0  0  0  0  0
  -27.0210  -30.4400   24.8270 C   0  0  0  0  0  1  0  0  0  0  0  0
  -27.5640  -32.6220   25.8720 C   0  0  0  0  0  1  0  0  0  0  0  0
  1  3  2  0
  2 50  1  0
  2  1  1  0
  4  2  1  0
  5 11  1  0
  6 11  1  0
  7  8  1  0
  7  6  1  0
  9  8  1  0
  9 25  1  0
  9 10  1  0
 11 10  1  0
 12  5  2  0
 14 13  1  0
 15 16  1  0
 16  1  1  0
 16 13  2  0
 17 15  2  0
 17 18  1  0
 18 14  2  0
 19 20  1  0
 19 17  1  0
 20 21  1  0
 21  5  1  0
 21 18  1  0
 22 23  2  0
 23 42  1  0
 24 23  1  0
 24 27  1  0
 25 26  1  0
 25 22  1  0
 26 24  2  0
 27 28  1  0
 28 29  2  0
 30 33  1  0
 30 29  1  0
 31 30  2  0
 32 31  1  0
 32 27  2  0
 33 34  1  0
 34 39  2  0
 34 35  1  0
 35 36  2  0
 37 36  1  0
 37 41  1  0
 38 37  2  0
 39 38  1  0
 40 39  1  0
 42 43  1  0
 43 46  1  0
 43 45  1  0
 44 42  2  0
 47 22  1  0
 47 48  1  0
 49 47  1  0
 51 52  1  0
 51 50  2  0
 53 64  2  0
 54 52  1  0
 54 59  1  0
 55 63  1  0
 55 65  1  0
 56 62  1  0
 56 58  1  0
 57 63  1  0
 58 59  2  0
 58 57  1  0
 60 54  2  0
 61 60  1  0
 61 56  2  0
 62 55  1  0
 63 53  1  0
 65 67  2  0
 66 65  1  0
 68 66  1  0
 69 78  2  0
 69 74  1  0
 70 66  1  0
 70 74  1  0
 71 70  1  0
 72 73  1  0
 72 71  1  0
 73 69  1  0
 74 75  2  0
 75 76  1  0
 77 76  2  0
 78 77  1  0
 79 53  1  0
 79 80  1  0
 79 89  1  0
 80 83  1  0
 81 85  1  0
 81 80  1  0
 82 81  2  0
 85 84  1  0
 87 85  1  0
 87 88  1  0
 87 86  1  0
 89 92  1  1
 89 90  1  0
 91 89  1  0
M  ISO  4   5 100  21 100  51 101  52 101
M  END
>  <TORSDO>  (40) 
F 18

>  <SCORE>  (40) 
-13.266

>  <name>  (40) 
40

>  <ligand_id>  (40) 
40

>  <original_smiles>  (40) 
[H]c1c([H])c([H])c2c(c1[H])C([H])([H])C([H])([H])C([H])([H])C2([H])N([H])C(=O)C1([H])N(C(=O)C([H])(N([H])C(=O)C([H])(N([H])C([H])([H])[H])C([H])([H])[H])C(C([H])([H])[H])(C([H])([H])[H])C([H])([H])[H])C([H])([H])c2c([H])c(OC([H])([H])C([H])([H])N([H])C(=O)c3c([H])c([H])c4c(c3[H])C([H])([H])C([H])([H])N4C(=O)N3C([H])([H])C([H])([H])C([H])([H])C([H])(n4nc(-c5c([H])c([H])c(Oc6c([H])c([H])c(F)c([H])c6F)c([H])c5[H])c(C(=O)N([H])[H])c4N([H])[H])C3([H])[H])c([H])c([H])c2C1([H])[H]

>  <smiles>  (40) 
[H]c1c([H])c([H])c2c(c1[H])C([H])([H])C([H])([H])C([H])([H])C2([H])N([H])C(=O)C1([H])N(C(=O)C([H])(N([H])C(=O)C([H])(N([H])C([H])([H])[H])C([H])([H])[H])C(C([H])([H])[H])(C([H])([H])[H])C([H])([H])[H])C([H])([H])c2c([H])c(OC([H])([H])C([H])([H])N([H])C(=O)c3c([H])c([H])c4c(c3[H])C([H])([H])C([H])([H])N4C(=O)N3C([H])([H])C([H])([H])C([H])([H])C([H])(n4nc(-c5c([H])c([H])c(Oc6c([H])c([H])c(F)c([H])c6F)c([H])c5[H])c(C(=O)N([H])[H])c4N([H])[H])C3([H])[H])c([H])c([H])c2C1([H])[H]

$$$$
41:0:0
     RDKit          3D

 88 96  0  0  1  0  0  0  0  0999 V2000
  -30.0320  -18.2910   19.0830 C   0  0  0  0  0  3  0  0  0  0  0  0
  -29.9220  -18.6520   21.4040 C   0  0  0  0  0  3  0  0  0  0  0  0
  -29.7940  -19.7180   18.8920 C   0  0  0  0  0  3  0  0  0  0  0  0
  -29.6970  -20.0780   21.2100 C   0  0  0  0  0  3  0  0  0  0  0  0
  -30.1150  -17.6520   20.3670 C   0  0  0  0  0  0  0  0  0  0  0  0
  -29.6090  -20.7070   19.9280 C   0  0  0  0  0  0  0  0  0  0  0  0
  -30.8800  -15.0460   19.9680 C   0  0  0  0  0  0  0  0  0  0  0  0
  -30.6370  -12.7470   18.9130 C   0  0  0  0  0  2  0  0  0  0  0  0
  -29.6060  -12.7340   17.7590 C   0  0  0  0  0  2  0  0  0  0  0  0
  -28.1730  -12.5450   18.2900 C   0  0  0  0  0  2  0  0  0  0  0  0
  -27.8770  -13.4360   19.5210 C   0  0  0  0  0  3  0  0  0  0  0  0
  -29.0090  -13.3540   20.5630 C   0  0  0  0  0  2  0  0  0  0  0  0
  -30.2500  -13.7970   19.9020 N   0  0  0  0  0  0  0  0  0  0  0  0
  -31.9740  -15.1540   19.4020 O   0  0  0  0  0  0  0  0  0  0  0  0
  -30.3520  -15.8650   22.1310 C   0  0  0  0  0  1  0  0  0  0  0  0
  -30.3230  -16.1470   20.6840 N   0  0  0  0  0  0  0  0  0  0  0  0
  -25.5620  -14.0300   20.4420 C   0  0  0  0  0  0  0  0  0  0  0  0
  -24.5100  -13.2620   20.8570 C   0  0  0  0  0  0  0  0  0  0  0  0
  -24.9460  -11.9040   20.7480 C   0  0  0  0  0  0  0  0  0  0  0  0
  -26.5700  -13.1440   20.1010 N   0  0  0  0  0  0  0  0  0  0  0  0
  -26.2120  -11.8570   20.3470 N   0  0  0  0  0  0  0  0  0  0  0  0
  -24.2100  -10.6480   20.9430 C   0  0  0  0  0  0  0  0  0  0  0  0
  -24.6430   -9.6730   21.8680 C   0  0  0  0  0  3  0  0  0  0  0  0
  -23.9080   -8.4830   22.0520 C   0  0  0  0  0  3  0  0  0  0  0  0
  -22.7240   -8.2590   21.3100 C   0  0  0  0  0  0  0  0  0  0  0  0
  -22.3080   -9.2220   20.3730 C   0  0  0  0  0  3  0  0  0  0  0  0
  -23.0460  -10.4040   20.1890 C   0  0  0  0  0  3  0  0  0  0  0  0
  -21.9580   -7.1220   21.4050 O   0  0  0  0  0  0  0  0  0  0  0  0
  -21.8490   -6.4220   22.5800 C   0  0  0  0  0  0  0  0  0  0  0  0
  -21.3340   -7.0130   23.7540 C   0  0  0  0  0  3  0  0  0  0  0  0
  -21.1750   -6.2400   24.9200 C   0  0  0  0  0  3  0  0  0  0  0  0
  -21.5200   -4.8740   24.9140 C   0  0  0  0  0  0  0  0  0  0  0  0
  -22.0270   -4.2830   23.7450 C   0  0  0  0  0  3  0  0  0  0  0  0
  -22.1870   -5.0530   22.5800 C   0  0  0  0  0  0  0  0  0  0  0  0
  -22.6570   -4.4720   21.4500 F   0  0  0  0  0  0  0  0  0  0  0  0
  -21.3600   -4.1290   26.0320 F   0  0  0  0  0  0  0  0  0  0  0  0
  -23.1440  -13.7500   21.2420 C   0  0  0  0  0  0  0  0  0  0  0  0
  -22.4670  -13.0390   22.1360 N   0  0  0  0  0  0  0  0  0  0  0  0
  -22.6900  -14.7990   20.7860 O   0  0  0  0  0  0  0  0  0  0  0  0
  -22.8490  -12.1910   22.5280 H   0  0  0  0  0  0  0  0  0  0  0  0
  -21.5530  -13.3480   22.4350 H   0  0  0  0  0  0  0  0  0  0  0  0
  -25.7390  -15.4040   20.3030 N   0  0  0  0  0  0  0  0  0  0  0  0
  -24.9980  -16.0710   20.4860 H   0  0  0  0  0  0  0  0  0  0  0  0
  -26.5870  -15.8390   19.9620 H   0  0  0  0  0  0  0  0  0  0  0  0
  -29.3110  -22.1030   19.5910 O   0  0  0  0  0  0  0  0  0  0  0  0
  -29.2200  -23.3910   20.4310 C   0  0  0  0  0  2  0  0  0  0  0  0
  -28.4230  -24.7760   19.8650 C   0  0  0  0  0  2  0  0  0  0  0  0
  -28.5260  -26.2770   20.2890 O   0  0  0  0  0  0  0  0  0  0  0  0
  -24.6850  -31.7990   23.2550 C   0  0  0  0  0  0  0  0  0  0  0  0
  -27.4420  -27.2290   20.1790 C   0  0  0  0  0  0  0  0  0  0  0  0
  -23.5470  -30.4090   21.5680 C   0  0  0  0  0  3  0  0  0  0  0  0
  -25.0630  -28.9140   20.1250 C   0  0  0  0  0  0  0  0  0  0  0  0
  -26.0930  -30.7550   21.4420 C   0  0  0  0  0  2  0  0  0  0  0  0
  -26.2190  -29.3790   20.7660 C   0  0  0  0  0  0  0  0  0  0  0  0
  -27.4040  -28.5520   20.7790 C   0  0  0  0  0  3  0  0  0  0  0  0
  -26.2610  -26.8720   19.4860 C   0  0  0  0  0  3  0  0  0  0  0  0
  -25.0990  -27.6760   19.4660 C   0  0  0  0  0  3  0  0  0  0  0  0
  -23.8020  -29.7660   20.1790 C   0  0  0  0  0  2  0  0  0  0  0  0
  -24.7940  -31.0080   22.1440 N   0  0  0  0  0  0  0  0  0  0  0  0
  -23.5850  -32.0450   23.7720 O   0  0  0  0  0  0  0  0  0  0  0  0
  -22.8830  -29.3640   22.4990 C   0  0  0  0  0  0  0  0  0  0  0  0
  -21.5690  -29.1370   22.3280 N   0  0  0  0  0  0  0  0  0  0  0  0
  -23.5550  -28.7580   23.3380 O   0  0  0  0  0  0  0  0  0  0  0  0
  -21.0840  -29.6780   21.6250 H   0  0  0  0  0  0  0  0  0  0  0  0
  -18.2320  -27.7750   22.6960 C   0  0  0  0  0  0  0  0  0  0  0  0
  -20.7630  -28.1610   23.0640 C   0  0  0  0  0  3  0  0  0  0  0  0
  -20.9570  -26.7360   22.4920 C   0  0  0  0  0  2  0  0  0  0  0  0
  -19.9110  -26.3650   21.4360 C   0  0  0  0  0  2  0  0  0  0  0  0
  -18.4990  -26.4410   22.0220 C   0  0  0  0  0  2  0  0  0  0  0  0
  -19.2940  -28.5910   23.1690 C   0  0  0  0  0  0  0  0  0  0  0  0
  -18.9890  -29.8380   23.7550 C   0  0  0  0  0  3  0  0  0  0  0  0
  -17.6540  -30.2680   23.8770 C   0  0  0  0  0  3  0  0  0  0  0  0
  -16.6070  -29.4510   23.4170 C   0  0  0  0  0  3  0  0  0  0  0  0
  -16.8960  -28.2070   22.8310 C   0  0  0  0  0  3  0  0  0  0  0  0
  -25.9370  -32.4550   23.9160 C   0  0  0  0  0  3  0  0  0  0  0  0
  -26.4070  -31.7130   25.2280 C   0  0  1  0  0  0  0  0  0  0  0  0
  -25.2720  -31.4870   26.2560 C   0  0  0  0  0  1  0  0  0  0  0  0
  -27.0200  -30.3340   24.8920 C   0  0  0  0  0  1  0  0  0  0  0  0
  -27.5220  -32.5340   25.9190 C   0  0  0  0  0  1  0  0  0  0  0  0
  -25.5990  -33.8560   24.2130 N   0  0  0  0  0  0  0  0  0  0  0  0
  -25.9240  -34.9030   23.4450 C   0  0  0  0  0  0  0  0  0  0  0  0
  -26.6060  -34.7920   22.4220 O   0  0  0  0  0  0  0  0  0  0  0  0
  -24.9810  -34.0140   24.9980 H   0  0  0  0  0  0  0  0  0  0  0  0
  -24.1590  -36.6630   23.0730 C   0  0  0  0  0  1  0  0  0  0  0  0
  -25.4150  -36.2920   23.8790 C   0  0  0  0  0  3  0  0  0  0  0  0
  -27.5380  -37.2390   24.6720 C   0  0  0  0  0  1  0  0  0  0  0  0
  -26.4270  -37.3630   23.7340 N   0  0  0  0  0  0  0  0  0  0  0  0
  -26.0020  -38.2790   23.8650 H   0  0  0  0  0  0  0  0  0  0  0  0
  1  5  1  0
  3  1  2  0
  3  6  1  0
  4  2  1  0
  5 16  1  0
  5  2  2  0
  6  4  2  0
  7 16  1  0
  8 13  1  0
  9 10  1  0
  9  8  1  0
 11 10  1  0
 11 20  1  0
 11 12  1  0
 13  7  1  0
 13 12  1  0
 14  7  2  0
 16 15  1  0
 17 18  2  0
 18 37  1  0
 19 18  1  0
 19 22  1  0
 20 21  1  0
 20 17  1  0
 21 19  2  0
 22 23  1  0
 23 24  2  0
 25 28  1  0
 25 24  1  0
 26 25  2  0
 27 26  1  0
 27 22  2  0
 28 29  1  0
 29 34  2  0
 29 30  1  0
 30 31  2  0
 32 31  1  0
 32 36  1  0
 33 32  2  0
 34 33  1  0
 35 34  1  0
 37 38  1  0
 38 41  1  0
 38 40  1  0
 39 37  2  0
 42 17  1  0
 42 43  1  0
 44 42  1  0
 45  6  1  0
 45 46  1  0
 47 48  1  0
 47 46  1  0
 49 60  2  0
 50 48  1  0
 50 55  1  0
 51 59  1  0
 51 61  1  0
 52 58  1  0
 52 54  1  0
 53 59  1  0
 54 55  2  0
 54 53  1  0
 56 50  2  0
 57 56  1  0
 57 52  2  0
 58 51  1  0
 59 49  1  0
 61 63  2  0
 62 61  1  0
 64 62  1  0
 65 74  2  0
 65 70  1  0
 66 62  1  0
 66 70  1  0
 67 66  1  0
 68 69  1  0
 68 67  1  0
 69 65  1  0
 70 71  2  0
 71 72  1  0
 73 72  2  0
 74 73  1  0
 75 49  1  0
 75 80  1  0
 75 76  1  0
 76 79  1  1
 76 77  1  0
 78 76  1  0
 80 83  1  0
 81 85  1  0
 81 80  1  0
 82 81  2  0
 85 84  1  0
 87 88  1  0
 87 85  1  0
 87 86  1  0
M  ISO  4   7 100  16 100  47 101  48 101
M  END
>  <TORSDO>  (41) 
F 19

>  <SCORE>  (41) 
-14.029

>  <name>  (41) 
41

>  <ligand_id>  (41) 
41

>  <original_smiles>  (41) 
[H]c1c([H])c([H])c2c(c1[H])C([H])([H])C([H])([H])C([H])([H])C2([H])N([H])C(=O)C1([H])N(C(=O)C([H])(N([H])C(=O)C([H])(N([H])C([H])([H])[H])C([H])([H])[H])C(C([H])([H])[H])(C([H])([H])[H])C([H])([H])[H])C([H])([H])c2c([H])c(OC([H])([H])C([H])([H])Oc3c([H])c([H])c(N(C(=O)N4C([H])([H])C([H])([H])C([H])([H])C([H])(n5nc(-c6c([H])c([H])c(Oc7c([H])c([H])c(F)c([H])c7F)c([H])c6[H])c(C(=O)N([H])[H])c5N([H])[H])C4([H])[H])C([H])([H])[H])c([H])c3[H])c([H])c([H])c2C1([H])[H]

>  <smiles>  (41) 
[H]c1c([H])c([H])c2c(c1[H])C([H])([H])C([H])([H])C([H])([H])C2([H])N([H])C(=O)C1([H])N(C(=O)C([H])(N([H])C(=O)C([H])(N([H])C([H])([H])[H])C([H])([H])[H])C(C([H])([H])[H])(C([H])([H])[H])C([H])([H])[H])C([H])([H])c2c([H])c(OC([H])([H])C([H])([H])Oc3c([H])c([H])c(N(C(=O)N4C([H])([H])C([H])([H])C([H])([H])C([H])(n5nc(-c6c([H])c([H])c(Oc7c([H])c([H])c(F)c([H])c7F)c([H])c6[H])c(C(=O)N([H])[H])c5N([H])[H])C4([H])[H])C([H])([H])[H])c([H])c3[H])c([H])c([H])c2C1([H])[H]

$$$$
42:0:0
     RDKit          3D

 87 95  0  0  1  0  0  0  0  0999 V2000
  -30.4580  -19.8130   18.2240 C   0  0  0  0  0  3  0  0  0  0  0  0
  -29.8900  -20.9970   18.7730 C   0  0  0  0  0  3  0  0  0  0  0  0
  -30.3900  -18.5160   18.8090 C   0  0  0  0  0  3  0  0  0  0  0  0
  -29.1180  -19.5680   20.5640 C   0  0  0  0  0  3  0  0  0  0  0  0
  -29.1810  -21.0210   19.9950 C   0  0  0  0  0  0  0  0  0  0  0  0
  -29.7100  -18.2340   20.0170 C   0  0  0  0  0  0  0  0  0  0  0  0
  -30.3720  -15.3630   20.2720 C   0  0  0  0  0  0  0  0  0  0  0  0
  -30.3680  -12.8800   19.4710 C   0  0  0  0  0  2  0  0  0  0  0  0
  -29.4610  -12.6320   18.2390 C   0  0  0  0  0  2  0  0  0  0  0  0
  -28.0180  -12.3430   18.6920 C   0  0  0  0  0  2  0  0  0  0  0  0
  -27.5460  -13.3410   19.7760 C   0  0  0  0  0  3  0  0  0  0  0  0
  -28.5830  -13.5420   20.9040 C   0  0  0  0  0  2  0  0  0  0  0  0
  -29.8160  -14.0410   20.2730 N   0  0  0  0  0  0  0  0  0  0  0  0
  -31.5870  -15.3410   20.0160 O   0  0  0  0  0  0  0  0  0  0  0  0
  -29.6210  -16.6500   20.4450 N   0  0  0  0  0  0  0  0  0  0  0  0
  -28.7180  -16.4350   20.8390 H   0  0  0  0  0  0  0  0  0  0  0  0
  -25.1710  -13.9020   20.5180 C   0  0  0  0  0  0  0  0  0  0  0  0
  -24.1090  -13.1250   20.8870 C   0  0  0  0  0  0  0  0  0  0  0  0
  -24.5740  -11.7740   20.8620 C   0  0  0  0  0  0  0  0  0  0  0  0
  -26.2150  -13.0240   20.2810 N   0  0  0  0  0  0  0  0  0  0  0  0
  -25.8670  -11.7390   20.5570 N   0  0  0  0  0  0  0  0  0  0  0  0
  -23.8440  -10.5130   21.0510 C   0  0  0  0  0  0  0  0  0  0  0  0
  -24.2690   -9.5450   21.9870 C   0  0  0  0  0  3  0  0  0  0  0  0
  -23.5380   -8.3500   22.1640 C   0  0  0  0  0  3  0  0  0  0  0  0
  -22.3650   -8.1160   21.4080 C   0  0  0  0  0  0  0  0  0  0  0  0
  -21.9580   -9.0710   20.4620 C   0  0  0  0  0  3  0  0  0  0  0  0
  -22.6880  -10.2580   20.2820 C   0  0  0  0  0  3  0  0  0  0  0  0
  -21.6010   -6.9750   21.4970 O   0  0  0  0  0  0  0  0  0  0  0  0
  -21.5520   -6.2310   22.6490 C   0  0  0  0  0  0  0  0  0  0  0  0
  -21.1320   -6.7850   23.8780 C   0  0  0  0  0  3  0  0  0  0  0  0
  -21.0250   -5.9650   25.0190 C   0  0  0  0  0  3  0  0  0  0  0  0
  -21.3320   -4.5940   24.9350 C   0  0  0  0  0  0  0  0  0  0  0  0
  -21.7510   -4.0420   23.7120 C   0  0  0  0  0  3  0  0  0  0  0  0
  -21.8570   -4.8570   22.5710 C   0  0  0  0  0  0  0  0  0  0  0  0
  -22.2370   -4.3130   21.3900 F   0  0  0  0  0  0  0  0  0  0  0  0
  -21.2270   -3.8060   26.0300 F   0  0  0  0  0  0  0  0  0  0  0  0
  -22.7080  -13.6000   21.1400 C   0  0  0  0  0  0  0  0  0  0  0  0
  -21.9730  -12.9060   22.0030 N   0  0  0  0  0  0  0  0  0  0  0  0
  -22.2760  -14.6210   20.6080 O   0  0  0  0  0  0  0  0  0  0  0  0
  -22.3400  -12.0770   22.4460 H   0  0  0  0  0  0  0  0  0  0  0  0
  -21.0340  -13.2070   22.2200 H   0  0  0  0  0  0  0  0  0  0  0  0
  -25.3310  -15.2710   20.3300 N   0  0  0  0  0  0  0  0  0  0  0  0
  -24.5620  -15.9210   20.4430 H   0  0  0  0  0  0  0  0  0  0  0  0
  -26.1440  -15.6990   19.9050 H   0  0  0  0  0  0  0  0  0  0  0  0
  -28.7000  -22.6210   20.5810 C   0  0  0  0  0  2  0  0  0  0  0  0
  -28.2610  -24.2330   19.8390 C   0  0  0  0  0  2  0  0  0  0  0  0
  -28.2380  -25.8380   20.3040 O   0  0  0  0  0  0  0  0  0  0  0  0
  -24.6600  -31.8470   23.2030 C   0  0  0  0  0  0  0  0  0  0  0  0
  -27.2180  -26.9340   20.1930 C   0  0  0  0  0  0  0  0  0  0  0  0
  -23.4630  -30.4410   21.5710 C   0  0  0  0  0  3  0  0  0  0  0  0
  -24.9110  -28.8260   20.1520 C   0  0  0  0  0  0  0  0  0  0  0  0
  -26.0310  -30.6470   21.4240 C   0  0  0  0  0  2  0  0  0  0  0  0
  -26.1000  -29.2310   20.7700 C   0  0  0  0  0  0  0  0  0  0  0  0
  -27.2390  -28.3030   20.7700 C   0  0  0  0  0  3  0  0  0  0  0  0
  -25.9960  -26.6880   19.5250 C   0  0  0  0  0  3  0  0  0  0  0  0
  -24.8840  -27.5760   19.5110 C   0  0  0  0  0  3  0  0  0  0  0  0
  -23.6930  -29.7510   20.2000 C   0  0  0  0  0  2  0  0  0  0  0  0
  -24.7400  -31.0070   22.1200 N   0  0  0  0  0  0  0  0  0  0  0  0
  -23.5700  -32.1410   23.7220 O   0  0  0  0  0  0  0  0  0  0  0  0
  -22.7690  -29.4530   22.5440 C   0  0  0  0  0  0  0  0  0  0  0  0
  -21.4360  -29.2990   22.4290 N   0  0  0  0  0  0  0  0  0  0  0  0
  -23.4340  -28.8290   23.3730 O   0  0  0  0  0  0  0  0  0  0  0  0
  -20.9440  -29.8630   21.7480 H   0  0  0  0  0  0  0  0  0  0  0  0
  -18.0540  -28.1030   22.9450 C   0  0  0  0  0  0  0  0  0  0  0  0
  -20.6130  -28.3670   23.2070 C   0  0  0  0  0  3  0  0  0  0  0  0
  -20.7160  -26.9340   22.6350 C   0  0  0  0  0  2  0  0  0  0  0  0
  -19.6140  -26.6090   21.6250 C   0  0  0  0  0  2  0  0  0  0  0  0
  -18.2300  -26.7550   22.2680 C   0  0  0  0  0  2  0  0  0  0  0  0
  -19.1710  -28.8660   23.3690 C   0  0  0  0  0  0  0  0  0  0  0  0
  -18.9460  -30.1240   23.9690 C   0  0  0  0  0  3  0  0  0  0  0  0
  -17.6400  -30.6210   24.1450 C   0  0  0  0  0  3  0  0  0  0  0  0
  -16.5410  -29.8530   23.7280 C   0  0  0  0  0  3  0  0  0  0  0  0
  -16.7460  -28.5960   23.1370 C   0  0  0  0  0  3  0  0  0  0  0  0
  -25.9290  -32.4940   23.8320 C   0  0  0  0  0  3  0  0  0  0  0  0
  -25.6120  -33.8940   24.1620 N   0  0  0  0  0  0  0  0  0  0  0  0
  -25.9500  -34.9570   23.4160 C   0  0  0  0  0  0  0  0  0  0  0  0
  -26.6250  -34.8560   22.3890 O   0  0  0  0  0  0  0  0  0  0  0  0
  -25.0100  -34.0430   24.9570 H   0  0  0  0  0  0  0  0  0  0  0  0
  -24.2290  -36.7630   23.0760 C   0  0  0  0  0  1  0  0  0  0  0  0
  -25.4690  -36.3470   23.8840 C   0  0  0  0  0  3  0  0  0  0  0  0
  -27.6050  -37.2210   24.7220 C   0  0  0  0  0  1  0  0  0  0  0  0
  -26.5060  -37.3970   23.7760 N   0  0  0  0  0  0  0  0  0  0  0  0
  -26.1050  -38.3180   23.9310 H   0  0  0  0  0  0  0  0  0  0  0  0
  -26.4330  -31.7370   25.1240 C   0  0  1  0  0  0  0  0  0  0  0  0
  -25.3300  -31.5180   26.1870 C   0  0  0  0  0  1  0  0  0  0  0  0
  -27.0130  -30.3510   24.7620 C   0  0  0  0  0  1  0  0  0  0  0  0
  -27.5820  -32.5350   25.7850 C   0  0  0  0  0  1  0  0  0  0  0  0
  1  2  2  0
  1  3  1  0
  2  5  1  0
  3  6  2  0
  5  4  2  0
  5 45  1  0
  6 15  1  0
  6  4  1  0
  7 13  1  0
  7 15  1  0
  8 13  1  0
  9 10  1  0
  9  8  1  0
 11 10  1  0
 11 20  1  0
 11 12  1  0
 13 12  1  0
 14  7  2  0
 15 16  1  0
 17 18  2  0
 18 37  1  0
 19 18  1  0
 19 22  1  0
 20 17  1  0
 20 21  1  0
 21 19  2  0
 22 23  1  0
 23 24  2  0
 25 28  1  0
 25 24  1  0
 26 25  2  0
 27 26  1  0
 27 22  2  0
 28 29  1  0
 29 30  1  0
 30 31  2  0
 32 31  1  0
 32 36  1  0
 33 32  2  0
 34 29  2  0
 34 33  1  0
 35 34  1  0
 37 38  1  0
 38 41  1  0
 38 40  1  0
 39 37  2  0
 42 43  1  0
 42 17  1  0
 44 42  1  0
 46 47  1  0
 46 45  1  0
 48 59  2  0
 49 47  1  0
 49 54  1  0
 50 58  1  0
 50 60  1  0
 51 57  1  0
 51 53  1  0
 52 58  1  0
 53 52  1  0
 54 53  2  0
 55 49  2  0
 56 55  1  0
 56 51  2  0
 57 50  1  0
 58 48  1  0
 60 62  2  0
 61 60  1  0
 63 61  1  0
 64 73  2  0
 64 69  1  0
 65 61  1  0
 65 69  1  0
 66 65  1  0
 67 68  1  0
 67 66  1  0
 68 64  1  0
 69 70  2  0
 70 71  1  0
 72 71  2  0
 73 72  1  0
 74 48  1  0
 74 75  1  0
 74 84  1  0
 75 78  1  0
 76 80  1  0
 76 75  1  0
 77 76  2  0
 80 79  1  0
 82 80  1  0
 82 83  1  0
 82 81  1  0
 84 87  1  1
 84 85  1  0
 86 84  1  0
M  ISO  4   7 100  15 100  46 101  47 101
M  END
>  <TORSDO>  (42) 
F 18

>  <SCORE>  (42) 
-15.935

>  <name>  (42) 
42

>  <ligand_id>  (42) 
42

>  <original_smiles>  (42) 
[H]c1c([H])c(N([H])C(=O)N2C([H])([H])C([H])([H])C([H])([H])C([H])(n3nc(-c4c([H])c([H])c(Oc5c([H])c([H])c(F)c([H])c5F)c([H])c4[H])c(C(=O)N([H])[H])c3N([H])[H])C2([H])[H])c([H])c(C([H])([H])C([H])([H])Oc2c([H])c([H])c3c(c2[H])C([H])([H])N(C(=O)C([H])(N([H])C(=O)C([H])(N([H])C([H])([H])[H])C([H])([H])[H])C(C([H])([H])[H])(C([H])([H])[H])C([H])([H])[H])C([H])(C(=O)N([H])C2([H])c4c([H])c([H])c([H])c([H])c4C([H])([H])C([H])([H])C2([H])[H])C3([H])[H])c1[H]

>  <smiles>  (42) 
[H]c1c([H])c(N([H])C(=O)N2C([H])([H])C([H])([H])C([H])([H])C([H])(n3nc(-c4c([H])c([H])c(Oc5c([H])c([H])c(F)c([H])c5F)c([H])c4[H])c(C(=O)N([H])[H])c3N([H])[H])C2([H])[H])c([H])c(C([H])([H])C([H])([H])Oc2c([H])c([H])c3c(c2[H])C([H])([H])N(C(=O)C([H])(N([H])C(=O)C([H])(N([H])C([H])([H])[H])C([H])([H])[H])C(C([H])([H])[H])(C([H])([H])[H])C([H])([H])[H])C([H])(C(=O)N([H])C2([H])c4c([H])c([H])c([H])c([H])c4C([H])([H])C([H])([H])C2([H])[H])C3([H])[H])c1[H]

$$$$
43:0:0
     RDKit          3D

 92100  0  0  1  0  0  0  0  0999 V2000
  -30.6270  -22.2400   20.5610 C   0  0  0  0  0  2  0  0  0  0  0  0
  -31.0890  -18.4540   19.8030 C   0  0  0  0  0  3  0  0  0  0  0  0
  -28.9950  -18.7590   20.9910 C   0  0  0  0  0  3  0  0  0  0  0  0
  -31.3200  -19.8520   19.8670 C   0  0  0  0  0  3  0  0  0  0  0  0
  -29.2360  -20.1490   21.0740 C   0  0  0  0  0  3  0  0  0  0  0  0
  -29.9110  -17.8960   20.3470 C   0  0  0  0  0  0  0  0  0  0  0  0
  -30.3880  -20.7190   20.4870 C   0  0  0  0  0  0  0  0  0  0  0  0
  -29.5590  -16.4080   20.1690 C   0  0  0  0  0  2  0  0  0  0  0  0
  -30.9800  -14.4070   19.9000 C   0  0  0  0  0  0  0  0  0  0  0  0
  -30.5260  -12.2190   18.8370 C   0  0  0  0  0  2  0  0  0  0  0  0
  -29.5330  -12.3860   17.6700 C   0  0  0  0  0  2  0  0  0  0  0  0
  -28.0790  -12.3120   18.1780 C   0  0  0  0  0  2  0  0  0  0  0  0
  -27.8270  -13.2260   19.4050 C   0  0  0  0  0  3  0  0  0  0  0  0
  -28.9280  -13.0380   20.4720 C   0  0  0  0  0  2  0  0  0  0  0  0
  -30.2340  -13.2660   19.8270 N   0  0  0  0  0  0  0  0  0  0  0  0
  -32.0480  -14.5460   19.2940 O   0  0  0  0  0  0  0  0  0  0  0  0
  -31.2070  -15.7380   21.9230 C   0  0  0  0  0  1  0  0  0  0  0  0
  -30.4980  -15.3930   20.6910 N   0  0  0  0  0  0  0  0  0  0  0  0
  -25.5160  -13.9670   20.2660 C   0  0  0  0  0  0  0  0  0  0  0  0
  -24.4280  -13.2540   20.6940 C   0  0  0  0  0  0  0  0  0  0  0  0
  -24.8040  -11.8770   20.6210 C   0  0  0  0  0  0  0  0  0  0  0  0
  -26.4910  -13.0270   19.9640 N   0  0  0  0  0  0  0  0  0  0  0  0
  -26.0690  -11.7660   20.2320 N   0  0  0  0  0  0  0  0  0  0  0  0
  -24.0180  -10.6590   20.8440 C   0  0  0  0  0  0  0  0  0  0  0  0
  -24.4270   -9.6740   21.7710 C   0  0  0  0  0  3  0  0  0  0  0  0
  -23.6440   -8.5170   21.9800 C   0  0  0  0  0  3  0  0  0  0  0  0
  -22.4370   -8.3390   21.2630 C   0  0  0  0  0  0  0  0  0  0  0  0
  -22.0470   -9.3110   20.3250 C   0  0  0  0  0  3  0  0  0  0  0  0
  -22.8290  -10.4580   20.1140 C   0  0  0  0  0  3  0  0  0  0  0  0
  -21.6260   -7.2370   21.3810 O   0  0  0  0  0  0  0  0  0  0  0  0
  -21.5500   -6.5200   22.5480 C   0  0  0  0  0  0  0  0  0  0  0  0
  -21.1680   -7.1220   23.7660 C   0  0  0  0  0  3  0  0  0  0  0  0
  -21.0340   -6.3370   24.9290 C   0  0  0  0  0  3  0  0  0  0  0  0
  -21.2720   -4.9510   24.8750 C   0  0  0  0  0  0  0  0  0  0  0  0
  -21.6490   -4.3490   23.6610 C   0  0  0  0  0  3  0  0  0  0  0  0
  -21.7840   -5.1320   22.5020 C   0  0  0  0  0  0  0  0  0  0  0  0
  -22.1270   -4.5420   21.3320 F   0  0  0  0  0  0  0  0  0  0  0  0
  -21.1360   -4.1960   25.9900 F   0  0  0  0  0  0  0  0  0  0  0  0
  -23.0810  -13.8110   21.0570 C   0  0  0  0  0  0  0  0  0  0  0  0
  -22.3680  -13.1590   21.9680 N   0  0  0  0  0  0  0  0  0  0  0  0
  -22.6710  -14.8600   20.5630 O   0  0  0  0  0  0  0  0  0  0  0  0
  -22.7150  -12.3120   22.3960 H   0  0  0  0  0  0  0  0  0  0  0  0
  -21.4670  -13.5180   22.2500 H   0  0  0  0  0  0  0  0  0  0  0  0
  -25.7510  -15.3270   20.0890 N   0  0  0  0  0  0  0  0  0  0  0  0
  -25.0190  -16.0160   20.2300 H   0  0  0  0  0  0  0  0  0  0  0  0
  -26.5870  -15.7170   19.6760 H   0  0  0  0  0  0  0  0  0  0  0  0
  -29.6810  -22.9140   18.3770 C   0  0  0  0  0  1  0  0  0  0  0  0
  -29.5960  -23.0600   19.8500 N   0  0  2  0  0  4  0  0  0  0  0  0
  -28.7160  -22.6480   20.1270 H   0  0  0  0  0  0  0  0  0  0  0  0
  -29.5680  -24.4990   20.2890 C   0  0  0  0  0  2  0  0  0  0  0  0
  -28.3870  -25.3330   19.7110 C   0  0  0  0  0  2  0  0  0  0  0  0
  -28.4020  -26.7140   20.1370 O   0  0  0  0  0  0  0  0  0  0  0  0
  -24.5670  -31.8890   23.1990 C   0  0  0  0  0  0  0  0  0  0  0  0
  -27.2180  -27.4360   20.1050 C   0  0  0  0  0  0  0  0  0  0  0  0
  -23.3610  -30.4810   21.5650 C   0  0  0  0  0  3  0  0  0  0  0  0
  -24.8140  -28.9510   20.1320 C   0  0  0  0  0  0  0  0  0  0  0  0
  -25.8860  -30.8460   21.3550 C   0  0  0  0  0  2  0  0  0  0  0  0
  -25.9740  -29.4730   20.7130 C   0  0  0  0  0  0  0  0  0  0  0  0
  -27.1760  -28.7230   20.6980 C   0  0  0  0  0  3  0  0  0  0  0  0
  -26.0310  -26.9380   19.5110 C   0  0  0  0  0  3  0  0  0  0  0  0
  -24.8360  -27.6820   19.5330 C   0  0  0  0  0  3  0  0  0  0  0  0
  -23.5660  -29.8020   20.1860 C   0  0  0  0  0  2  0  0  0  0  0  0
  -24.6230  -31.0880   22.0970 N   0  0  0  0  0  0  0  0  0  0  0  0
  -23.4860  -32.1530   23.7450 O   0  0  0  0  0  0  0  0  0  0  0  0
  -22.7190  -29.4550   22.5290 C   0  0  0  0  0  0  0  0  0  0  0  0
  -21.3930  -29.2730   22.4150 N   0  0  0  0  0  0  0  0  0  0  0  0
  -23.4120  -28.8240   23.3310 O   0  0  0  0  0  0  0  0  0  0  0  0
  -20.8950  -29.8340   21.7380 H   0  0  0  0  0  0  0  0  0  0  0  0
  -18.0240  -28.0870   22.9540 C   0  0  0  0  0  0  0  0  0  0  0  0
  -20.5860  -28.3320   23.1900 C   0  0  0  0  0  3  0  0  0  0  0  0
  -20.6740  -26.9060   22.6020 C   0  0  0  0  0  2  0  0  0  0  0  0
  -19.5560  -26.5950   21.6020 C   0  0  0  0  0  2  0  0  0  0  0  0
  -18.1850  -26.7410   22.2670 C   0  0  0  0  0  2  0  0  0  0  0  0
  -19.1510  -28.8410   23.3730 C   0  0  0  0  0  0  0  0  0  0  0  0
  -18.9460  -30.1010   23.9750 C   0  0  0  0  0  3  0  0  0  0  0  0
  -17.6460  -30.6080   24.1620 C   0  0  0  0  0  3  0  0  0  0  0  0
  -16.5330  -29.8490   23.7580 C   0  0  0  0  0  3  0  0  0  0  0  0
  -16.7230  -28.5910   23.1600 C   0  0  0  0  0  3  0  0  0  0  0  0
  -25.8510  -32.5270   23.8140 C   0  0  0  0  0  3  0  0  0  0  0  0
  -25.5310  -33.9200   24.1580 N   0  0  0  0  0  0  0  0  0  0  0  0
  -25.8560  -34.9810   23.4090 C   0  0  0  0  0  0  0  0  0  0  0  0
  -26.5240  -34.8930   22.3760 O   0  0  0  0  0  0  0  0  0  0  0  0
  -24.9350  -34.0620   24.9600 H   0  0  0  0  0  0  0  0  0  0  0  0
  -24.1200  -36.7680   23.0640 C   0  0  0  0  0  1  0  0  0  0  0  0
  -25.3570  -36.3610   23.8800 C   0  0  0  0  0  3  0  0  0  0  0  0
  -27.4800  -37.2450   24.7390 C   0  0  0  0  0  1  0  0  0  0  0  0
  -26.3860  -37.4200   23.7890 N   0  0  0  0  0  0  0  0  0  0  0  0
  -25.9740  -38.3360   23.9460 H   0  0  0  0  0  0  0  0  0  0  0  0
  -26.3910  -31.7510   25.0770 C   0  0  1  0  0  0  0  0  0  0  0  0
  -25.3130  -31.4910   26.1530 C   0  0  0  0  0  1  0  0  0  0  0  0
  -26.9850  -30.3850   24.6610 C   0  0  0  0  0  1  0  0  0  0  0  0
  -27.5390  -32.5540   25.7330 C   0  0  0  0  0  1  0  0  0  0  0  0
  2  4  2  0
  2  6  1  0
  3  5  1  0
  4  7  1  0
  6  3  2  0
  7  1  1  0
  7  5  2  0
  8  6  1  0
  8 18  1  0
  9 18  1  0
 10 15  1  0
 11 12  1  0
 11 10  1  0
 13 12  1  0
 13 22  1  0
 13 14  1  0
 15  9  1  0
 15 14  1  0
 16  9  2  0
 18 17  1  0
 19 20  2  0
 20 39  1  0
 21 20  1  0
 21 24  1  0
 22 23  1  0
 22 19  1  0
 23 21  2  0
 24 25  1  0
 25 26  2  0
 27 30  1  0
 27 26  1  0
 28 27  2  0
 29 28  1  0
 29 24  2  0
 30 31  1  0
 31 32  1  0
 32 33  2  0
 34 33  1  0
 34 38  1  0
 35 34  2  0
 36 31  2  0
 36 35  1  0
 37 36  1  0
 39 40  1  0
 40 43  1  0
 40 42  1  0
 41 39  2  0
 44 45  1  0
 44 19  1  0
 46 44  1  0
 47 48  1  0
 48 49  1  1
 48 50  1  0
 48  1  1  0
 51 52  1  0
 51 50  1  0
 53 64  2  0
 54 52  1  0
 54 59  1  0
 55 63  1  0
 55 65  1  0
 56 62  1  0
 56 58  1  0
 57 63  1  0
 58 57  1  0
 59 58  2  0
 60 61  1  0
 60 54  2  0
 61 56  2  0
 62 55  1  0
 63 53  1  0
 65 67  2  0
 66 65  1  0
 68 66  1  0
 69 78  2  0
 69 74  1  0
 70 66  1  0
 70 74  1  0
 71 70  1  0
 72 73  1  0
 72 71  1  0
 73 69  1  0
 74 75  2  0
 75 76  1  0
 77 76  2  0
 78 77  1  0
 79 53  1  0
 79 80  1  0
 79 89  1  0
 80 83  1  0
 81 85  1  0
 81 80  1  0
 82 81  2  0
 85 84  1  0
 87 85  1  0
 87 88  1  0
 87 86  1  0
 89 92  1  1
 89 90  1  0
 91 89  1  0
M  ISO  4   9 100  18 100  51 101  52 101
M  END
>  <TORSDO>  (43) 
F 21

>  <SCORE>  (43) 
-12.890

>  <name>  (43) 
43

>  <ligand_id>  (43) 
43

>  <original_smiles>  (43) 
[H]c1c([H])c([H])c2c(c1[H])C([H])([H])C([H])([H])C([H])([H])C2([H])N([H])C(=O)C1([H])N(C(=O)C([H])(N([H])C(=O)C([H])(N([H])C([H])([H])[H])C([H])([H])[H])C(C([H])([H])[H])(C([H])([H])[H])C([H])([H])[H])C([H])([H])c2c([H])c(OC([H])([H])C([H])([H])[N+]([H])(C([H])([H])[H])C([H])([H])c3c([H])c([H])c(C([H])([H])N(C(=O)N4C([H])([H])C([H])([H])C([H])([H])C([H])(n5nc(-c6c([H])c([H])c(Oc7c([H])c([H])c(F)c([H])c7F)c([H])c6[H])c(C(=O)N([H])[H])c5N([H])[H])C4([H])[H])C([H])([H])[H])c([H])c3[H])c([H])c([H])c2C1([H])[H]

>  <smiles>  (43) 
[H]c1c([H])c([H])c2c(c1[H])C([H])([H])C([H])([H])C([H])([H])C2([H])N([H])C(=O)C1([H])N(C(=O)C([H])(N([H])C(=O)C([H])(N([H])C([H])([H])[H])C([H])([H])[H])C(C([H])([H])[H])(C([H])([H])[H])C([H])([H])[H])C([H])([H])c2c([H])c(OC([H])([H])C([H])([H])[N+]([H])(C([H])([H])[H])C([H])([H])c3c([H])c([H])c(C([H])([H])N(C(=O)N4C([H])([H])C([H])([H])C([H])([H])C([H])(n5nc(-c6c([H])c([H])c(Oc7c([H])c([H])c(F)c([H])c7F)c([H])c6[H])c(C(=O)N([H])[H])c5N([H])[H])C4([H])[H])C([H])([H])[H])c([H])c3[H])c([H])c([H])c2C1([H])[H]

$$$$
44:0:0
     RDKit          3D

 90 98  0  0  1  0  0  0  0  0999 V2000
  -31.0370  -17.9100   19.9770 C   0  0  0  0  0  3  0  0  0  0  0  0
  -31.0130  -19.3290   19.8310 C   0  0  0  0  0  3  0  0  0  0  0  0
  -28.7300  -17.9770   20.6360 C   0  0  0  0  0  3  0  0  0  0  0  0
  -29.8880  -17.1860   20.3860 C   0  0  0  0  0  0  0  0  0  0  0  0
  -29.8590  -20.1220   20.0780 C   0  0  0  0  0  0  0  0  0  0  0  0
  -28.7050  -19.3980   20.4900 C   0  0  0  0  0  0  0  0  0  0  0  0
  -27.5490  -20.0520   20.7580 F   0  0  0  0  0  0  0  0  0  0  0  0
  -30.5980  -14.6850   20.1250 C   0  0  0  0  0  0  0  0  0  0  0  0
  -30.3560  -12.4480   19.0640 C   0  0  0  0  0  2  0  0  0  0  0  0
  -29.3690  -12.5900   17.8830 C   0  0  0  0  0  2  0  0  0  0  0  0
  -27.9110  -12.4310   18.3610 C   0  0  0  0  0  2  0  0  0  0  0  0
  -27.6000  -13.2790   19.6230 C   0  0  0  0  0  3  0  0  0  0  0  0
  -28.6980  -13.1110   20.6970 C   0  0  0  0  0  2  0  0  0  0  0  0
  -29.9860  -13.4590   20.0760 N   0  0  0  0  0  0  0  0  0  0  0  0
  -31.7390  -14.8470   19.6810 O   0  0  0  0  0  0  0  0  0  0  0  0
  -29.8100  -15.7270   20.5450 N   0  0  0  0  0  0  0  0  0  0  0  0
  -28.9370  -15.4010   20.9340 H   0  0  0  0  0  0  0  0  0  0  0  0
  -25.2380  -13.8750   20.4420 C   0  0  0  0  0  0  0  0  0  0  0  0
  -24.1830  -13.1000   20.8410 C   0  0  0  0  0  0  0  0  0  0  0  0
  -24.6380  -11.7470   20.7700 C   0  0  0  0  0  0  0  0  0  0  0  0
  -26.2690  -12.9940   20.1530 N   0  0  0  0  0  0  0  0  0  0  0  0
  -25.9140  -11.7080   20.4090 N   0  0  0  0  0  0  0  0  0  0  0  0
  -23.9120  -10.4850   20.9680 C   0  0  0  0  0  0  0  0  0  0  0  0
  -24.3650   -9.5090   21.8830 C   0  0  0  0  0  3  0  0  0  0  0  0
  -23.6420   -8.3110   22.0690 C   0  0  0  0  0  3  0  0  0  0  0  0
  -22.4500   -8.0820   21.3400 C   0  0  0  0  0  0  0  0  0  0  0  0
  -22.0150   -9.0480   20.4150 C   0  0  0  0  0  3  0  0  0  0  0  0
  -22.7400  -10.2360   20.2260 C   0  0  0  0  0  3  0  0  0  0  0  0
  -21.6950   -6.9380   21.4370 O   0  0  0  0  0  0  0  0  0  0  0  0
  -21.6530   -6.1990   22.5920 C   0  0  0  0  0  0  0  0  0  0  0  0
  -21.2070   -6.7480   23.8130 C   0  0  0  0  0  3  0  0  0  0  0  0
  -21.1150   -5.9340   24.9610 C   0  0  0  0  0  3  0  0  0  0  0  0
  -21.4580   -4.5710   24.8850 C   0  0  0  0  0  0  0  0  0  0  0  0
  -21.8970   -4.0200   23.6680 C   0  0  0  0  0  3  0  0  0  0  0  0
  -21.9910   -4.8310   22.5240 C   0  0  0  0  0  0  0  0  0  0  0  0
  -22.3940   -4.2910   21.3490 F   0  0  0  0  0  0  0  0  0  0  0  0
  -21.3620   -3.7860   25.9840 F   0  0  0  0  0  0  0  0  0  0  0  0
  -22.7990  -13.5780   21.1750 C   0  0  0  0  0  0  0  0  0  0  0  0
  -22.1060  -12.8780   22.0650 N   0  0  0  0  0  0  0  0  0  0  0  0
  -22.3450  -14.6100   20.6840 O   0  0  0  0  0  0  0  0  0  0  0  0
  -22.4870  -12.0440   22.4880 H   0  0  0  0  0  0  0  0  0  0  0  0
  -21.1790  -13.1820   22.3300 H   0  0  0  0  0  0  0  0  0  0  0  0
  -25.4000  -15.2470   20.2780 N   0  0  0  0  0  0  0  0  0  0  0  0
  -24.6340  -15.8960   20.4170 H   0  0  0  0  0  0  0  0  0  0  0  0
  -26.2220  -15.6840   19.8800 H   0  0  0  0  0  0  0  0  0  0  0  0
  -29.9680  -21.5220   19.9050 O   0  0  0  0  0  0  0  0  0  0  0  0
  -28.8750  -22.4670   20.1420 C   0  0  0  0  0  3  0  0  0  0  0  0
  -29.2270  -24.0020   19.8750 C   0  0  0  0  0  3  0  0  0  0  0  0
  -28.0550  -25.0580   20.0540 C   0  0  0  0  0  2  0  0  0  0  0  0
  -28.3030  -26.5080   19.8500 O   0  0  0  0  0  0  0  0  0  0  0  0
  -24.6700  -31.8010   23.1690 C   0  0  0  0  0  0  0  0  0  0  0  0
  -27.1900  -27.3650   19.8710 C   0  0  0  0  0  0  0  0  0  0  0  0
  -23.4280  -30.4940   21.4830 C   0  0  0  0  0  3  0  0  0  0  0  0
  -24.8410  -28.9990   19.9700 C   0  0  0  0  0  0  0  0  0  0  0  0
  -25.9690  -30.7950   21.2790 C   0  0  0  0  0  2  0  0  0  0  0  0
  -26.0250  -29.4470   20.5710 C   0  0  0  0  0  0  0  0  0  0  0  0
  -27.2020  -28.6430   20.5130 C   0  0  0  0  0  3  0  0  0  0  0  0
  -25.9840  -26.9800   19.2380 C   0  0  0  0  0  3  0  0  0  0  0  0
  -24.8230  -27.7710   19.2960 C   0  0  0  0  0  3  0  0  0  0  0  0
  -23.6170  -29.8840   20.0710 C   0  0  0  0  0  2  0  0  0  0  0  0
  -24.7090  -31.0450   22.0350 N   0  0  0  0  0  0  0  0  0  0  0  0
  -23.5980  -32.0660   23.7310 O   0  0  0  0  0  0  0  0  0  0  0  0
  -22.7670  -29.4390   22.4030 C   0  0  0  0  0  0  0  0  0  0  0  0
  -21.4370  -29.2880   22.2910 N   0  0  0  0  0  0  0  0  0  0  0  0
  -23.4500  -28.7630   23.1770 O   0  0  0  0  0  0  0  0  0  0  0  0
  -20.9460  -29.8860   21.6410 H   0  0  0  0  0  0  0  0  0  0  0  0
  -18.0450  -28.1480   22.8170 C   0  0  0  0  0  0  0  0  0  0  0  0
  -20.6160  -28.3280   23.0300 C   0  0  0  0  0  3  0  0  0  0  0  0
  -20.6640  -26.9300   22.3690 C   0  0  0  0  0  2  0  0  0  0  0  0
  -19.5260  -26.6940   21.3700 C   0  0  0  0  0  2  0  0  0  0  0  0
  -18.1670  -26.8370   22.0610 C   0  0  0  0  0  2  0  0  0  0  0  0
  -19.1950  -28.8560   23.2580 C   0  0  0  0  0  0  0  0  0  0  0  0
  -19.0250  -30.0880   23.9270 C   0  0  0  0  0  3  0  0  0  0  0  0
  -17.7390  -30.6110   24.1590 C   0  0  0  0  0  3  0  0  0  0  0  0
  -16.6040  -29.8990   23.7320 C   0  0  0  0  0  3  0  0  0  0  0  0
  -16.7580  -28.6700   23.0680 C   0  0  0  0  0  3  0  0  0  0  0  0
  -25.9690  -32.3900   23.8020 C   0  0  0  0  0  3  0  0  0  0  0  0
  -26.4820  -31.5600   25.0420 C   0  0  1  0  0  0  0  0  0  0  0  0
  -25.3960  -31.3020   26.1120 C   0  0  0  0  0  1  0  0  0  0  0  0
  -27.0380  -30.1900   24.5940 C   0  0  0  0  0  1  0  0  0  0  0  0
  -27.6520  -32.3110   25.7230 C   0  0  0  0  0  1  0  0  0  0  0  0
  -25.6830  -33.7790   24.1890 N   0  0  0  0  0  0  0  0  0  0  0  0
  -25.9950  -34.8530   23.4520 C   0  0  0  0  0  0  0  0  0  0  0  0
  -26.6230  -34.7770   22.3920 O   0  0  0  0  0  0  0  0  0  0  0  0
  -25.1190  -33.9120   25.0150 H   0  0  0  0  0  0  0  0  0  0  0  0
  -24.2570  -36.6600   23.2380 C   0  0  0  0  0  1  0  0  0  0  0  0
  -25.5380  -36.2290   23.9710 C   0  0  0  0  0  3  0  0  0  0  0  0
  -27.7130  -37.0900   24.7190 C   0  0  0  0  0  1  0  0  0  0  0  0
  -26.5670  -37.2830   23.8340 N   0  0  0  0  0  0  0  0  0  0  0  0
  -26.1720  -38.2000   24.0220 H   0  0  0  0  0  0  0  0  0  0  0  0
  1  4  1  0
  2  1  2  0
  2  5  1  0
  4 16  1  0
  4  3  2  0
  5  6  2  0
  6  3  1  0
  6  7  1  0
  8 16  1  0
  9 14  1  0
 10 11  1  0
 10  9  1  0
 12 11  1  0
 12 21  1  0
 12 13  1  0
 14  8  1  0
 14 13  1  0
 15  8  2  0
 16 17  1  0
 18 19  2  0
 19 38  1  0
 20 19  1  0
 20 23  1  0
 21 22  1  0
 21 18  1  0
 22 20  2  0
 23 24  1  0
 24 25  2  0
 26 29  1  0
 26 25  1  0
 27 26  2  0
 28 27  1  0
 28 23  2  0
 29 30  1  0
 30 31  1  0
 31 32  2  0
 33 32  1  0
 33 37  1  0
 34 33  2  0
 35 30  2  0
 35 34  1  0
 36 35  1  0
 38 39  1  0
 39 42  1  0
 39 41  1  0
 40 38  2  0
 43 44  1  0
 43 18  1  0
 45 43  1  0
 46  5  1  0
 46 47  1  0
 48 49  1  0
 48 47  2  0
 50 52  1  0
 50 49  1  0
 51 62  2  0
 52 57  1  0
 53 61  1  0
 53 63  1  0
 54 60  1  0
 54 56  1  0
 55 61  1  0
 56 55  1  0
 57 56  2  0
 58 59  1  0
 58 52  2  0
 59 54  2  0
 60 53  1  0
 61 51  1  0
 63 65  2  0
 64 63  1  0
 66 64  1  0
 67 76  2  0
 67 72  1  0
 68 64  1  0
 68 72  1  0
 69 68  1  0
 70 71  1  0
 70 69  1  0
 71 67  1  0
 72 73  2  0
 73 74  1  0
 75 74  2  0
 76 75  1  0
 77 51  1  0
 77 82  1  0
 77 78  1  0
 78 81  1  1
 78 79  1  0
 80 78  1  0
 82 85  1  0
 83 87  1  0
 83 82  1  0
 84 83  2  0
 87 86  1  0
 89 87  1  0
 89 90  1  0
 89 88  1  0
M  ISO  4   8 100  16 100  49 101  50 101
M  END
>  <TORSDO>  (44) 
F 20

>  <SCORE>  (44) 
-13.622

>  <name>  (44) 
44

>  <ligand_id>  (44) 
44

>  <original_smiles>  (44) 
[H]c1c([H])c([H])c2c(c1[H])C([H])([H])C([H])([H])C([H])([H])C2([H])N([H])C(=O)C1([H])N(C(=O)C([H])(N([H])C(=O)C([H])(N([H])C([H])([H])[H])C([H])([H])[H])C(C([H])([H])[H])(C([H])([H])[H])C([H])([H])[H])C([H])([H])c2c([H])c(OC([H])([H])C([H])([H])C([H])([H])Oc3c([H])c([H])c(N([H])C(=O)N4C([H])([H])C([H])([H])C([H])([H])C([H])(n5nc(-c6c([H])c([H])c(Oc7c([H])c([H])c(F)c([H])c7F)c([H])c6[H])c(C(=O)N([H])[H])c5N([H])[H])C4([H])[H])c([H])c3F)c([H])c([H])c2C1([H])[H]

>  <smiles>  (44) 
[H]c1c([H])c([H])c2c(c1[H])C([H])([H])C([H])([H])C([H])([H])C2([H])N([H])C(=O)C1([H])N(C(=O)C([H])(N([H])C(=O)C([H])(N([H])C([H])([H])[H])C([H])([H])[H])C(C([H])([H])[H])(C([H])([H])[H])C([H])([H])[H])C([H])([H])c2c([H])c(OC([H])([H])C([H])([H])C([H])([H])Oc3c([H])c([H])c(N([H])C(=O)N4C([H])([H])C([H])([H])C([H])([H])C([H])(n5nc(-c6c([H])c([H])c(Oc7c([H])c([H])c(F)c([H])c7F)c([H])c6[H])c(C(=O)N([H])[H])c5N([H])[H])C4([H])[H])c([H])c3F)c([H])c([H])c2C1([H])[H]

$$$$
45:0:0
     RDKit          3D

 93101  0  0  1  0  0  0  0  0999 V2000
  -27.2580  -21.3790   20.0190 C   0  0  0  0  0  1  0  0  0  0  0  0
  -28.2630  -21.8220   21.0200 N   0  0  1  0  0  4  0  0  0  0  0  0
  -27.7040  -21.9980   21.8440 H   0  0  0  0  0  0  0  0  0  0  0  0
  -29.2130  -20.7630   21.5220 C   0  0  0  0  0  2  0  0  0  0  0  0
  -30.1220  -19.9410   19.2590 C   0  0  0  0  0  3  0  0  0  0  0  0
  -30.4740  -18.8970   18.3920 C   0  0  0  0  0  3  0  0  0  0  0  0
  -29.8030  -18.3040   21.0190 C   0  0  0  0  0  3  0  0  0  0  0  0
  -29.7000  -19.6490   20.5660 C   0  0  0  0  0  0  0  0  0  0  0  0
  -30.5000  -17.5510   18.8210 C   0  0  0  0  0  0  0  0  0  0  0  0
  -30.2660  -17.2230   20.1980 C   0  0  0  0  0  0  0  0  0  0  0  0
  -30.7210  -16.5280   17.7200 C   0  0  0  0  0  1  0  0  0  0  0  0
  -31.1130  -14.8460   20.2010 C   0  0  0  0  0  0  0  0  0  0  0  0
  -30.7730  -12.7130   18.9800 C   0  0  0  0  0  2  0  0  0  0  0  0
  -29.7870  -12.8670   17.8020 C   0  0  0  0  0  2  0  0  0  0  0  0
  -28.3170  -12.7950   18.2700 C   0  0  0  0  0  2  0  0  0  0  0  0
  -28.0310  -13.6130   19.5590 C   0  0  0  0  0  3  0  0  0  0  0  0
  -29.1100  -13.3450   20.6190 C   0  0  0  0  0  2  0  0  0  0  0  0
  -30.4120  -13.6880   20.0230 N   0  0  0  0  0  0  0  0  0  0  0  0
  -32.2520  -14.9920   19.7420 O   0  0  0  0  0  0  0  0  0  0  0  0
  -30.3970  -15.7890   22.2630 C   0  0  0  0  0  1  0  0  0  0  0  0
  -30.4540  -15.8900   20.7940 N   0  0  0  0  0  0  0  0  0  0  0  0
  -25.6780  -14.2480   20.3850 C   0  0  0  0  0  0  0  0  0  0  0  0
  -24.6060  -13.4850   20.7630 C   0  0  0  0  0  0  0  0  0  0  0  0
  -25.0360  -12.1250   20.6700 C   0  0  0  0  0  0  0  0  0  0  0  0
  -26.6910  -13.3520   20.0800 N   0  0  0  0  0  0  0  0  0  0  0  0
  -26.3140  -12.0700   20.3140 N   0  0  0  0  0  0  0  0  0  0  0  0
  -24.2910  -10.8710   20.8380 C   0  0  0  0  0  0  0  0  0  0  0  0
  -24.7070   -9.8810   21.7550 C   0  0  0  0  0  3  0  0  0  0  0  0
  -23.9640   -8.6930   21.9110 C   0  0  0  0  0  3  0  0  0  0  0  0
  -22.7900   -8.4840   21.1480 C   0  0  0  0  0  0  0  0  0  0  0  0
  -22.3920   -9.4620   20.2210 C   0  0  0  0  0  3  0  0  0  0  0  0
  -23.1350  -10.6440   20.0620 C   0  0  0  0  0  3  0  0  0  0  0  0
  -22.0190   -7.3490   21.2150 O   0  0  0  0  0  0  0  0  0  0  0  0
  -21.9090   -6.6210   22.3730 C   0  0  0  0  0  0  0  0  0  0  0  0
  -21.4530   -7.1980   23.5790 C   0  0  0  0  0  3  0  0  0  0  0  0
  -21.2900   -6.3950   24.7250 C   0  0  0  0  0  3  0  0  0  0  0  0
  -21.5730   -5.0170   24.6690 C   0  0  0  0  0  0  0  0  0  0  0  0
  -22.0210   -4.4400   23.4690 C   0  0  0  0  0  3  0  0  0  0  0  0
  -22.1860   -5.2390   22.3230 C   0  0  0  0  0  0  0  0  0  0  0  0
  -22.5970   -4.6730   21.1630 F   0  0  0  0  0  0  0  0  0  0  0  0
  -21.4080   -4.2460   25.7680 F   0  0  0  0  0  0  0  0  0  0  0  0
  -23.2280  -13.9810   21.1010 C   0  0  0  0  0  0  0  0  0  0  0  0
  -22.5190  -13.2740   21.9740 N   0  0  0  0  0  0  0  0  0  0  0  0
  -22.7900  -15.0270   20.6250 O   0  0  0  0  0  0  0  0  0  0  0  0
  -22.8850  -12.4270   22.3820 H   0  0  0  0  0  0  0  0  0  0  0  0
  -21.5960  -13.5870   22.2410 H   0  0  0  0  0  0  0  0  0  0  0  0
  -25.8680  -15.6200   20.2540 N   0  0  0  0  0  0  0  0  0  0  0  0
  -25.1280  -16.2900   20.4270 H   0  0  0  0  0  0  0  0  0  0  0  0
  -26.7250  -16.0530   19.9330 H   0  0  0  0  0  0  0  0  0  0  0  0
  -28.9110  -23.1490   20.7470 C   0  0  0  0  0  2  0  0  0  0  0  0
  -27.9730  -24.3420   20.3450 C   0  0  0  0  0  2  0  0  0  0  0  0
  -28.5240  -25.7420   20.7570 C   0  0  0  0  0  2  0  0  0  0  0  0
  -28.2860  -26.8410   19.8570 O   0  0  0  0  0  0  0  0  0  0  0  0
  -24.5770  -31.9510   23.2470 C   0  0  0  0  0  0  0  0  0  0  0  0
  -27.1210  -27.5660   19.9930 C   0  0  0  0  0  0  0  0  0  0  0  0
  -23.3300  -30.6150   21.5800 C   0  0  0  0  0  3  0  0  0  0  0  0
  -24.7450  -29.1020   20.0900 C   0  0  0  0  0  0  0  0  0  0  0  0
  -25.8580  -30.9510   21.3520 C   0  0  0  0  0  2  0  0  0  0  0  0
  -25.9190  -29.5960   20.6740 C   0  0  0  0  0  0  0  0  0  0  0  0
  -27.1120  -28.8360   20.6200 C   0  0  0  0  0  3  0  0  0  0  0  0
  -25.9330  -27.0870   19.4060 C   0  0  0  0  0  3  0  0  0  0  0  0
  -24.7480  -27.8490   19.4530 C   0  0  0  0  0  3  0  0  0  0  0  0
  -23.5120  -29.9760   20.1780 C   0  0  0  0  0  2  0  0  0  0  0  0
  -24.6080  -31.1860   22.1180 N   0  0  0  0  0  0  0  0  0  0  0  0
  -23.5070  -32.2160   23.8140 O   0  0  0  0  0  0  0  0  0  0  0  0
  -22.6840  -29.5720   22.5190 C   0  0  0  0  0  0  0  0  0  0  0  0
  -21.3560  -29.4070   22.4050 N   0  0  0  0  0  0  0  0  0  0  0  0
  -23.3730  -28.9150   23.3030 O   0  0  0  0  0  0  0  0  0  0  0  0
  -20.8600  -29.9890   21.7440 H   0  0  0  0  0  0  0  0  0  0  0  0
  -17.9820  -28.2080   22.8950 C   0  0  0  0  0  0  0  0  0  0  0  0
  -20.5410  -28.4490   23.1550 C   0  0  0  0  0  3  0  0  0  0  0  0
  -20.6360  -27.0350   22.5380 C   0  0  0  0  0  2  0  0  0  0  0  0
  -19.5250  -26.7440   21.5240 C   0  0  0  0  0  2  0  0  0  0  0  0
  -18.1480  -26.8770   22.1800 C   0  0  0  0  0  2  0  0  0  0  0  0
  -19.1060  -28.9530   23.3370 C   0  0  0  0  0  0  0  0  0  0  0  0
  -18.8980  -30.2010   23.9640 C   0  0  0  0  0  3  0  0  0  0  0  0
  -17.5970  -30.7030   24.1550 C   0  0  0  0  0  3  0  0  0  0  0  0
  -16.4860  -29.9550   23.7290 C   0  0  0  0  0  3  0  0  0  0  0  0
  -16.6790  -28.7100   23.1050 C   0  0  0  0  0  3  0  0  0  0  0  0
  -25.8810  -32.5480   23.8660 C   0  0  0  0  0  3  0  0  0  0  0  0
  -25.5860  -33.9300   24.2700 N   0  0  0  0  0  0  0  0  0  0  0  0
  -25.9300  -35.0170   23.5650 C   0  0  0  0  0  0  0  0  0  0  0  0
  -26.5990  -34.9600   22.5310 O   0  0  0  0  0  0  0  0  0  0  0  0
  -24.9950  -34.0510   25.0790 H   0  0  0  0  0  0  0  0  0  0  0  0
  -24.2290  -36.8500   23.2880 C   0  0  0  0  0  1  0  0  0  0  0  0
  -25.4550  -36.3850   24.0910 C   0  0  0  0  0  3  0  0  0  0  0  0
  -27.5930  -37.1900   24.9920 C   0  0  0  0  0  1  0  0  0  0  0  0
  -26.5040  -37.4280   24.0490 N   0  0  0  0  0  0  0  0  0  0  0  0
  -26.1080  -38.3430   24.2450 H   0  0  0  0  0  0  0  0  0  0  0  0
  -26.4240  -31.7160   25.0920 C   0  0  1  0  0  0  0  0  0  0  0  0
  -25.3580  -31.4340   26.1740 C   0  0  0  0  0  1  0  0  0  0  0  0
  -26.9910  -30.3570   24.6190 C   0  0  0  0  0  1  0  0  0  0  0  0
  -27.5950  -32.4740   25.7610 C   0  0  0  0  0  1  0  0  0  0  0  0
  1  2  1  0
  2  4  1  0
  2  3  1  1
  5  8  1  0
  6  9  1  0
  6  5  2  0
  8  7  2  0
  8  4  1  0
  9 10  2  0
 10 21  1  0
 10  7  1  0
 11  9  1  0
 12 21  1  0
 13 18  1  0
 14 15  1  0
 14 13  1  0
 16 15  1  0
 16 25  1  0
 16 17  1  0
 18 12  1  0
 18 17  1  0
 19 12  2  0
 21 20  1  0
 22 23  2  0
 23 42  1  0
 24 23  1  0
 24 27  1  0
 25 26  1  0
 25 22  1  0
 26 24  2  0
 27 28  1  0
 28 29  2  0
 30 33  1  0
 30 29  1  0
 31 30  2  0
 32 31  1  0
 32 27  2  0
 33 34  1  0
 34 35  1  0
 35 36  2  0
 37 36  1  0
 37 41  1  0
 38 37  2  0
 39 34  2  0
 39 38  1  0
 40 39  1  0
 42 43  1  0
 43 46  1  0
 43 45  1  0
 44 42  2  0
 47 22  1  0
 47 48  1  0
 49 47  1  0
 50  2  1  0
 51 50  1  0
 51 52  1  0
 53 55  1  0
 53 52  1  0
 54 65  2  0
 55 60  1  0
 56 64  1  0
 56 66  1  0
 57 63  1  0
 57 59  1  0
 58 64  1  0
 59 58  1  0
 60 59  2  0
 61 62  1  0
 61 55  2  0
 62 57  2  0
 63 56  1  0
 64 54  1  0
 66 68  2  0
 67 66  1  0
 69 67  1  0
 70 79  2  0
 70 75  1  0
 71 67  1  0
 71 75  1  0
 72 71  1  0
 73 74  1  0
 73 72  1  0
 74 70  1  0
 75 76  2  0
 76 77  1  0
 78 77  2  0
 79 78  1  0
 80 54  1  0
 80 81  1  0
 80 90  1  0
 81 84  1  0
 82 86  1  0
 82 81  1  0
 83 82  2  0
 86 85  1  0
 88 86  1  0
 88 89  1  0
 88 87  1  0
 90 93  1  1
 90 91  1  0
 92 90  1  0
M  ISO  4  12 100  21 100  52 101  53 101
M  END
>  <TORSDO>  (45) 
F 21

>  <SCORE>  (45) 
-11.959

>  <name>  (45) 
45

>  <ligand_id>  (45) 
45

>  <original_smiles>  (45) 
[H]c1c([H])c([H])c2c(c1[H])C([H])([H])C([H])([H])C([H])([H])C2([H])N([H])C(=O)C1([H])N(C(=O)C([H])(N([H])C(=O)C([H])(N([H])C([H])([H])[H])C([H])([H])[H])C(C([H])([H])[H])(C([H])([H])[H])C([H])([H])[H])C([H])([H])c2c([H])c(OC([H])([H])C([H])([H])C([H])([H])[N+]([H])(C([H])([H])[H])C([H])([H])c3c([H])c([H])c(C([H])([H])[H])c(N(C(=O)N4C([H])([H])C([H])([H])C([H])([H])C([H])(n5nc(-c6c([H])c([H])c(Oc7c([H])c([H])c(F)c([H])c7F)c([H])c6[H])c(C(=O)N([H])[H])c5N([H])[H])C4([H])[H])C([H])([H])[H])c3[H])c([H])c([H])c2C1([H])[H]

>  <smiles>  (45) 
[H]c1c([H])c([H])c2c(c1[H])C([H])([H])C([H])([H])C([H])([H])C2([H])N([H])C(=O)C1([H])N(C(=O)C([H])(N([H])C(=O)C([H])(N([H])C([H])([H])[H])C([H])([H])[H])C(C([H])([H])[H])(C([H])([H])[H])C([H])([H])[H])C([H])([H])c2c([H])c(OC([H])([H])C([H])([H])C([H])([H])[N+]([H])(C([H])([H])[H])C([H])([H])c3c([H])c([H])c(C([H])([H])[H])c(N(C(=O)N4C([H])([H])C([H])([H])C([H])([H])C([H])(n5nc(-c6c([H])c([H])c(Oc7c([H])c([H])c(F)c([H])c7F)c([H])c6[H])c(C(=O)N([H])[H])c5N([H])[H])C4([H])[H])C([H])([H])[H])c3[H])c([H])c([H])c2C1([H])[H]

$$$$
46:0:0
     RDKit          3D

 91 99  0  0  1  0  0  0  0  0999 V2000
  -28.9940  -19.0110   21.0060 C   0  0  0  0  0  3  0  0  0  0  0  0
  -28.5450  -20.3450   21.2540 C   0  0  0  0  0  3  0  0  0  0  0  0
  -30.0810  -21.1990   19.6330 C   0  0  0  0  0  3  0  0  0  0  0  0
  -30.0200  -18.7250   20.0700 C   0  0  0  0  0  0  0  0  0  0  0  0
  -29.0640  -21.4990   20.5840 C   0  0  0  0  0  0  0  0  0  0  0  0
  -30.5300  -19.8660   19.3840 C   0  0  0  0  0  0  0  0  0  0  0  0
  -31.4980  -19.6830   18.4470 F   0  0  0  0  0  0  0  0  0  0  0  0
  -27.3560  -22.9100   21.6600 C   0  0  0  0  0  1  0  0  0  0  0  0
  -28.5830  -22.8440   20.8570 N   0  0  0  0  0  0  0  0  0  0  0  0
  -28.9010  -24.0470   20.0010 C   0  0  0  0  0  3  0  0  0  0  0  0
  -28.3670  -25.4690   20.5180 C   0  0  0  0  0  3  0  0  0  0  0  0
  -28.4910  -26.6960   19.7150 O   0  0  0  0  0  0  0  0  0  0  0  0
  -24.6670  -31.8040   23.0500 C   0  0  0  0  0  0  0  0  0  0  0  0
  -27.3650  -27.5150   19.7350 C   0  0  0  0  0  0  0  0  0  0  0  0
  -23.4690  -30.4510   21.3600 C   0  0  0  0  0  3  0  0  0  0  0  0
  -24.9400  -29.0090   19.8430 C   0  0  0  0  0  0  0  0  0  0  0  0
  -25.9900  -30.8540   21.1600 C   0  0  0  0  0  2  0  0  0  0  0  0
  -26.1010  -29.5140   20.4520 C   0  0  0  0  0  0  0  0  0  0  0  0
  -27.3140  -28.7750   20.3950 C   0  0  0  0  0  3  0  0  0  0  0  0
  -26.1920  -27.0580   19.0930 C   0  0  0  0  0  3  0  0  0  0  0  0
  -24.9900  -27.7830   19.1550 C   0  0  0  0  0  3  0  0  0  0  0  0
  -23.6810  -29.8400   19.9480 C   0  0  0  0  0  2  0  0  0  0  0  0
  -24.7280  -31.0530   21.9150 N   0  0  0  0  0  0  0  0  0  0  0  0
  -23.5910  -32.0290   23.6220 O   0  0  0  0  0  0  0  0  0  0  0  0
  -22.8500  -29.3790   22.2880 C   0  0  0  0  0  0  0  0  0  0  0  0
  -21.5190  -29.2000   22.1960 N   0  0  0  0  0  0  0  0  0  0  0  0
  -23.5580  -28.7140   23.0480 O   0  0  0  0  0  0  0  0  0  0  0  0
  -21.0040  -29.7960   21.5640 H   0  0  0  0  0  0  0  0  0  0  0  0
  -18.1730  -27.9530   22.7550 C   0  0  0  0  0  0  0  0  0  0  0  0
  -20.7390  -28.2070   22.9380 C   0  0  0  0  0  3  0  0  0  0  0  0
  -20.8190  -26.8160   22.2650 C   0  0  0  0  0  2  0  0  0  0  0  0
  -19.6780  -26.5580   21.2750 C   0  0  0  0  0  2  0  0  0  0  0  0
  -18.3230  -26.6560   21.9810 C   0  0  0  0  0  2  0  0  0  0  0  0
  -19.3050  -28.6900   23.1900 C   0  0  0  0  0  0  0  0  0  0  0  0
  -19.1090  -29.9080   23.8700 C   0  0  0  0  0  3  0  0  0  0  0  0
  -17.8130  -30.3950   24.1250 C   0  0  0  0  0  3  0  0  0  0  0  0
  -16.6950  -29.6590   23.7020 C   0  0  0  0  0  3  0  0  0  0  0  0
  -16.8750  -28.4390   23.0250 C   0  0  0  0  0  3  0  0  0  0  0  0
  -25.9510  -32.4360   23.6770 C   0  0  0  0  0  3  0  0  0  0  0  0
  -26.4970  -31.6300   24.9170 C   0  0  1  0  0  0  0  0  0  0  0  0
  -25.4260  -31.3380   25.9940 C   0  0  0  0  0  1  0  0  0  0  0  0
  -27.1000  -30.2750   24.4740 C   0  0  0  0  0  1  0  0  0  0  0  0
  -27.6460  -32.4180   25.5930 C   0  0  0  0  0  1  0  0  0  0  0  0
  -25.6240  -33.8170   24.0640 N   0  0  0  0  0  0  0  0  0  0  0  0
  -25.9240  -34.9020   23.3390 C   0  0  0  0  0  0  0  0  0  0  0  0
  -26.5860  -34.8480   22.2980 O   0  0  0  0  0  0  0  0  0  0  0  0
  -25.0510  -33.9290   24.8870 H   0  0  0  0  0  0  0  0  0  0  0  0
  -24.1650  -36.6770   23.0600 C   0  0  0  0  0  1  0  0  0  0  0  0
  -25.4180  -36.2660   23.8500 C   0  0  0  0  0  3  0  0  0  0  0  0
  -27.5420  -37.1580   24.7000 C   0  0  0  0  0  1  0  0  0  0  0  0
  -26.4320  -37.3390   23.7680 N   0  0  0  0  0  0  0  0  0  0  0  0
  -26.0120  -38.2450   23.9530 H   0  0  0  0  0  0  0  0  0  0  0  0
  -30.6580  -17.3060   19.7430 C   0  0  0  0  0  2  0  0  0  0  0  0
  -30.9730  -14.8350   19.8910 C   0  0  0  0  0  0  0  0  0  0  0  0
  -30.6080  -12.6350   18.7900 C   0  0  0  0  0  2  0  0  0  0  0  0
  -29.5710  -12.7610   17.6530 C   0  0  0  0  0  2  0  0  0  0  0  0
  -28.1340  -12.5950   18.1840 C   0  0  0  0  0  2  0  0  0  0  0  0
  -27.8720  -13.4470   19.4530 C   0  0  0  0  0  3  0  0  0  0  0  0
  -29.0070  -13.2980   20.4840 C   0  0  0  0  0  2  0  0  0  0  0  0
  -30.2770  -13.6480   19.8220 N   0  0  0  0  0  0  0  0  0  0  0  0
  -32.0370  -14.9490   19.2720 O   0  0  0  0  0  0  0  0  0  0  0  0
  -30.1820  -15.9880   21.8880 C   0  0  0  0  0  1  0  0  0  0  0  0
  -30.3690  -15.9650   20.4220 N   0  0  0  0  0  0  0  0  0  0  0  0
  -25.5700  -14.0370   20.4360 C   0  0  0  0  0  0  0  0  0  0  0  0
  -24.5250  -13.2600   20.8600 C   0  0  0  0  0  0  0  0  0  0  0  0
  -24.9610  -11.9060   20.7180 C   0  0  0  0  0  0  0  0  0  0  0  0
  -26.5680  -13.1570   20.0500 N   0  0  0  0  0  0  0  0  0  0  0  0
  -26.2120  -11.8670   20.2810 N   0  0  0  0  0  0  0  0  0  0  0  0
  -24.2380  -10.6430   20.9170 C   0  0  0  0  0  0  0  0  0  0  0  0
  -24.6830   -9.6650   21.8370 C   0  0  0  0  0  3  0  0  0  0  0  0
  -23.9540   -8.4700   22.0180 C   0  0  0  0  0  3  0  0  0  0  0  0
  -22.7680   -8.2420   21.2820 C   0  0  0  0  0  0  0  0  0  0  0  0
  -22.3480   -9.2050   20.3480 C   0  0  0  0  0  3  0  0  0  0  0  0
  -23.0770  -10.3920   20.1630 C   0  0  0  0  0  3  0  0  0  0  0  0
  -22.0140   -7.0960   21.3700 O   0  0  0  0  0  0  0  0  0  0  0  0
  -21.8970   -6.3990   22.5470 C   0  0  0  0  0  0  0  0  0  0  0  0
  -21.3760   -6.9920   23.7160 C   0  0  0  0  0  3  0  0  0  0  0  0
  -21.2120   -6.2220   24.8830 C   0  0  0  0  0  3  0  0  0  0  0  0
  -21.5580   -4.8580   24.8830 C   0  0  0  0  0  0  0  0  0  0  0  0
  -22.0690   -4.2620   23.7170 C   0  0  0  0  0  3  0  0  0  0  0  0
  -22.2360   -5.0310   22.5510 C   0  0  0  0  0  0  0  0  0  0  0  0
  -22.7130   -4.4470   21.4260 F   0  0  0  0  0  0  0  0  0  0  0  0
  -21.3900   -4.1140   26.0010 F   0  0  0  0  0  0  0  0  0  0  0  0
  -23.1670  -13.7440   21.2820 C   0  0  0  0  0  0  0  0  0  0  0  0
  -22.5100  -13.0210   22.1850 N   0  0  0  0  0  0  0  0  0  0  0  0
  -22.6980  -14.7970   20.8470 O   0  0  0  0  0  0  0  0  0  0  0  0
  -22.9070  -12.1750   22.5670 H   0  0  0  0  0  0  0  0  0  0  0  0
  -21.6040  -13.3240   22.5120 H   0  0  0  0  0  0  0  0  0  0  0  0
  -25.7480  -15.4130   20.3300 N   0  0  0  0  0  0  0  0  0  0  0  0
  -25.0180  -16.0790   20.5650 H   0  0  0  0  0  0  0  0  0  0  0  0
  -26.5990  -15.8580   20.0110 H   0  0  0  0  0  0  0  0  0  0  0  0
  1  2  1  0
  3  5  1  0
  4  1  2  0
  5  9  1  0
  5  2  2  0
  6  3  2  0
  6  4  1  0
  7  6  1  0
  9  8  1  0
 10 11  2  0
 10  9  1  0
 12 14  1  0
 12 11  1  0
 13 24  2  0
 14 19  1  0
 15 23  1  0
 15 25  1  0
 16 22  1  0
 16 18  1  0
 17 23  1  0
 18 17  1  0
 19 18  2  0
 20 21  1  0
 20 14  2  0
 21 16  2  0
 22 15  1  0
 23 13  1  0
 25 27  2  0
 26 25  1  0
 28 26  1  0
 29 38  2  0
 29 34  1  0
 30 26  1  0
 30 34  1  0
 31 30  1  0
 32 33  1  0
 32 31  1  0
 33 29  1  0
 34 35  2  0
 35 36  1  0
 37 36  2  0
 38 37  1  0
 39 13  1  0
 39 44  1  0
 39 40  1  0
 40 43  1  1
 40 41  1  0
 42 40  1  0
 44 47  1  0
 45 49  1  0
 45 44  1  0
 46 45  2  0
 49 48  1  0
 51 49  1  0
 51 52  1  0
 51 50  1  0
 53  4  1  0
 53 63  1  0
 54 63  1  0
 55 60  1  0
 56 57  1  0
 56 55  1  0
 58 57  1  0
 58 67  1  0
 58 59  1  0
 60 54  1  0
 60 59  1  0
 61 54  2  0
 63 62  1  0
 64 65  2  0
 65 84  1  0
 66 65  1  0
 66 69  1  0
 67 68  1  0
 67 64  1  0
 68 66  2  0
 69 70  1  0
 70 71  2  0
 72 75  1  0
 72 71  1  0
 73 72  2  0
 74 73  1  0
 74 69  2  0
 75 76  1  0
 76 81  2  0
 76 77  1  0
 77 78  2  0
 78 79  1  0
 79 83  1  0
 80 79  2  0
 81 80  1  0
 82 81  1  0
 84 85  1  0
 85 88  1  0
 85 87  1  0
 86 84  2  0
 89 64  1  0
 89 90  1  0
 91 89  1  0
M  ISO  4  11 101  12 101  54 100  63 100
M  END
>  <TORSDO>  (46) 
F 20

>  <SCORE>  (46) 
-12.495

>  <name>  (46) 
46

>  <ligand_id>  (46) 
46

>  <original_smiles>  (46) 
[H]c1c([H])c([H])c2c(c1[H])C([H])([H])C([H])([H])C([H])([H])C2([H])N([H])C(=O)C1([H])N(C(=O)C([H])(N([H])C(=O)C([H])(N([H])C([H])([H])[H])C([H])([H])[H])C(C([H])([H])[H])(C([H])([H])[H])C([H])([H])[H])C([H])([H])c2c([H])c(OC([H])([H])C([H])([H])N(c3c([H])c([H])c(C([H])([H])N(C(=O)N4C([H])([H])C([H])([H])C([H])([H])C([H])(n5nc(-c6c([H])c([H])c(Oc7c([H])c([H])c(F)c([H])c7F)c([H])c6[H])c(C(=O)N([H])[H])c5N([H])[H])C4([H])[H])C([H])([H])[H])c(F)c3[H])C([H])([H])[H])c([H])c([H])c2C1([H])[H]

>  <smiles>  (46) 
[H]c1c([H])c([H])c2c(c1[H])C([H])([H])C([H])([H])C([H])([H])C2([H])N([H])C(=O)C1([H])N(C(=O)C([H])(N([H])C(=O)C([H])(N([H])C([H])([H])[H])C([H])([H])[H])C(C([H])([H])[H])(C([H])([H])[H])C([H])([H])[H])C([H])([H])c2c([H])c(OC([H])([H])C([H])([H])N(c3c([H])c([H])c(C([H])([H])N(C(=O)N4C([H])([H])C([H])([H])C([H])([H])C([H])(n5nc(-c6c([H])c([H])c(Oc7c([H])c([H])c(F)c([H])c7F)c([H])c6[H])c(C(=O)N([H])[H])c5N([H])[H])C4([H])[H])C([H])([H])[H])c(F)c3[H])C([H])([H])[H])c([H])c([H])c2C1([H])[H]

$$$$
47:0:0
     RDKit          3D

 96104  0  0  1  0  0  0  0  0999 V2000
  -29.3860  -22.7150   20.1100 C   0  0  0  0  0  2  0  0  0  0  0  0
  -27.7480  -20.1750   18.8070 C   0  0  0  0  0  2  0  0  0  0  0  0
  -27.4260  -21.2030   19.9060 C   0  0  0  0  0  2  0  0  0  0  0  0
  -29.3610  -20.4030   21.1930 C   0  0  0  0  0  2  0  0  0  0  0  0
  -28.3450  -18.8700   19.3740 C   0  0  0  0  0  3  0  0  0  0  0  0
  -29.6130  -19.1940   20.2120 C   0  0  0  0  0  3  0  0  0  0  0  0
  -27.2900  -18.0160   20.1160 C   0  0  0  0  0  1  0  0  0  0  0  0
  -28.6220  -21.5750   20.6650 N   0  0  0  0  0  0  0  0  0  0  0  0
  -30.6560  -16.8740   20.1630 C   0  0  0  0  0  0  0  0  0  0  0  0
  -30.1970  -17.9730   22.3370 C   0  0  0  0  0  1  0  0  0  0  0  0
  -30.1910  -17.9610   20.8630 N   0  0  0  0  0  0  0  0  0  0  0  0
  -30.5860  -16.8400   18.9300 O   0  0  0  0  0  0  0  0  0  0  0  0
  -31.2600  -15.6560   20.9500 C   0  0  0  0  0  2  0  0  0  0  0  0
  -31.6890  -14.4500   20.0460 C   0  0  0  0  0  0  0  0  0  0  0  0
  -31.2350  -12.2580   18.9630 C   0  0  0  0  0  2  0  0  0  0  0  0
  -30.2760  -12.4470   17.7700 C   0  0  0  0  0  2  0  0  0  0  0  0
  -28.8040  -12.4280   18.2320 C   0  0  0  0  0  2  0  0  0  0  0  0
  -28.5570  -13.3440   19.4600 C   0  0  0  0  0  3  0  0  0  0  0  0
  -29.6130  -13.0850   20.5530 C   0  0  0  0  0  2  0  0  0  0  0  0
  -30.9390  -13.3110   19.9550 N   0  0  0  0  0  0  0  0  0  0  0  0
  -32.7650  -14.5430   19.4420 O   0  0  0  0  0  0  0  0  0  0  0  0
  -26.2570  -14.1750   20.2560 C   0  0  0  0  0  0  0  0  0  0  0  0
  -25.1240  -13.5070   20.6460 C   0  0  0  0  0  0  0  0  0  0  0  0
  -25.4440  -12.1180   20.5830 C   0  0  0  0  0  0  0  0  0  0  0  0
  -27.1980  -13.1950   19.9790 N   0  0  0  0  0  0  0  0  0  0  0  0
  -26.7130  -11.9500   20.2280 N   0  0  0  0  0  0  0  0  0  0  0  0
  -24.5970  -10.9340   20.7810 C   0  0  0  0  0  0  0  0  0  0  0  0
  -24.9460   -9.9290   21.7090 C   0  0  0  0  0  3  0  0  0  0  0  0
  -24.1110   -8.8050   21.8920 C   0  0  0  0  0  3  0  0  0  0  0  0
  -22.9140   -8.6830   21.1480 C   0  0  0  0  0  0  0  0  0  0  0  0
  -22.5820   -9.6790   20.2110 C   0  0  0  0  0  3  0  0  0  0  0  0
  -23.4160  -10.7930   20.0260 C   0  0  0  0  0  3  0  0  0  0  0  0
  -22.0500   -7.6170   21.2440 O   0  0  0  0  0  0  0  0  0  0  0  0
  -21.9140   -6.9050   22.4090 C   0  0  0  0  0  0  0  0  0  0  0  0
  -21.5480   -7.5250   23.6230 C   0  0  0  0  0  3  0  0  0  0  0  0
  -21.3490   -6.7450   24.7810 C   0  0  0  0  0  3  0  0  0  0  0  0
  -21.5040   -5.3480   24.7250 C   0  0  0  0  0  0  0  0  0  0  0  0
  -21.8650   -4.7270   23.5160 C   0  0  0  0  0  3  0  0  0  0  0  0
  -22.0660   -5.5030   22.3620 C   0  0  0  0  0  0  0  0  0  0  0  0
  -22.3910   -4.8970   21.1930 F   0  0  0  0  0  0  0  0  0  0  0  0
  -21.3090   -4.5970   25.8350 F   0  0  0  0  0  0  0  0  0  0  0  0
  -23.7930  -14.1220   20.9710 C   0  0  0  0  0  0  0  0  0  0  0  0
  -23.0320  -13.5030   21.8680 N   0  0  0  0  0  0  0  0  0  0  0  0
  -23.4380  -15.1880   20.4680 O   0  0  0  0  0  0  0  0  0  0  0  0
  -23.3310  -12.6390   22.2960 H   0  0  0  0  0  0  0  0  0  0  0  0
  -22.1370  -13.8950   22.1240 H   0  0  0  0  0  0  0  0  0  0  0  0
  -26.5550  -15.5230   20.0950 N   0  0  0  0  0  0  0  0  0  0  0  0
  -25.8650  -16.2500   20.2400 H   0  0  0  0  0  0  0  0  0  0  0  0
  -27.4360  -15.8810   19.7490 H   0  0  0  0  0  0  0  0  0  0  0  0
  -29.0070  -24.1050   20.7570 C   0  0  0  0  0  3  0  0  0  0  0  0
  -28.1650  -23.9110   21.9560 N   0  0  0  0  0  4  0  0  0  0  0  0
  -28.1450  -24.7300   22.5400 H   0  0  0  0  0  0  0  0  0  0  0  0
  -27.2260  -23.6730   21.6870 H   0  0  0  0  0  0  0  0  0  0  0  0
  -28.5310  -23.1280   22.4700 H   0  0  0  0  0  0  0  0  0  0  0  0
  -28.3570  -25.1450   19.8010 C   0  0  0  0  0  2  0  0  0  0  0  0
  -28.3660  -26.5010   20.3340 O   0  0  0  0  0  0  0  0  0  0  0  0
  -24.6400  -31.8410   23.2960 C   0  0  0  0  0  0  0  0  0  0  0  0
  -27.2160  -27.2830   20.2700 C   0  0  0  0  0  0  0  0  0  0  0  0
  -23.4260  -30.4450   21.6590 C   0  0  0  0  0  3  0  0  0  0  0  0
  -24.8600  -28.8710   20.2630 C   0  0  0  0  0  0  0  0  0  0  0  0
  -25.9690  -30.7400   21.4920 C   0  0  0  0  0  2  0  0  0  0  0  0
  -26.0290  -29.3620   20.8580 C   0  0  0  0  0  0  0  0  0  0  0  0
  -27.2070  -28.5740   20.8640 C   0  0  0  0  0  3  0  0  0  0  0  0
  -26.0270  -26.8360   19.6420 C   0  0  0  0  0  3  0  0  0  0  0  0
  -24.8550  -27.6050   19.6590 C   0  0  0  0  0  3  0  0  0  0  0  0
  -23.6380  -29.7580   20.2880 C   0  0  0  0  0  2  0  0  0  0  0  0
  -24.6970  -31.0280   22.2030 N   0  0  0  0  0  0  0  0  0  0  0  0
  -23.5560  -32.1390   23.8180 O   0  0  0  0  0  0  0  0  0  0  0  0
  -22.7470  -29.4440   22.6220 C   0  0  0  0  0  0  0  0  0  0  0  0
  -21.4200  -29.2830   22.4870 N   0  0  0  0  0  0  0  0  0  0  0  0
  -23.4140  -28.8150   23.4490 O   0  0  0  0  0  0  0  0  0  0  0  0
  -20.9460  -29.8370   21.7880 H   0  0  0  0  0  0  0  0  0  0  0  0
  -18.0220  -28.1550   22.9750 C   0  0  0  0  0  0  0  0  0  0  0  0
  -20.5810  -28.3670   23.2610 C   0  0  0  0  0  3  0  0  0  0  0  0
  -20.6570  -26.9290   22.6990 C   0  0  0  0  0  2  0  0  0  0  0  0
  -19.5600  -26.6210   21.6760 C   0  0  0  0  0  2  0  0  0  0  0  0
  -18.1770  -26.8000   22.3060 C   0  0  0  0  0  2  0  0  0  0  0  0
  -19.1510  -28.8980   23.4100 C   0  0  0  0  0  0  0  0  0  0  0  0
  -18.9490  -30.1680   23.9920 C   0  0  0  0  0  3  0  0  0  0  0  0
  -17.6520  -30.6920   24.1470 C   0  0  0  0  0  3  0  0  0  0  0  0
  -16.5390  -29.9440   23.7310 C   0  0  0  0  0  3  0  0  0  0  0  0
  -16.7240  -28.6770   23.1520 C   0  0  0  0  0  3  0  0  0  0  0  0
  -25.9310  -32.4550   23.9230 C   0  0  0  0  0  3  0  0  0  0  0  0
  -25.6440  -33.8640   24.2300 N   0  0  0  0  0  0  0  0  0  0  0  0
  -25.9950  -34.8970   23.4550 C   0  0  0  0  0  0  0  0  0  0  0  0
  -26.6640  -34.7660   22.4270 O   0  0  0  0  0  0  0  0  0  0  0  0
  -25.0590  -34.0410   25.0320 H   0  0  0  0  0  0  0  0  0  0  0  0
  -24.2920  -36.7060   23.0720 C   0  0  0  0  0  1  0  0  0  0  0  0
  -25.5260  -36.2990   23.8910 C   0  0  0  0  0  3  0  0  0  0  0  0
  -27.6760  -37.1660   24.7030 C   0  0  0  0  0  1  0  0  0  0  0  0
  -26.5740  -37.3350   23.7600 N   0  0  0  0  0  0  0  0  0  0  0  0
  -26.1800  -38.2630   23.8920 H   0  0  0  0  0  0  0  0  0  0  0  0
  -26.4230  -31.6930   25.2140 C   0  0  1  0  0  0  0  0  0  0  0  0
  -25.3150  -31.4890   26.2730 C   0  0  0  0  0  1  0  0  0  0  0  0
  -26.9960  -30.3050   24.8510 C   0  0  0  0  0  1  0  0  0  0  0  0
  -27.5740  -32.4870   25.8800 C   0  0  0  0  0  1  0  0  0  0  0  0
  1  8  1  0
  1 50  1  0
  2  5  1  0
  2  3  1  0
  3  8  1  0
  5  7  1  0
  5  6  1  0
  6 11  1  0
  6  4  1  0
  8  4  1  0
  9 11  1  0
  9 13  1  0
 11 10  1  0
 12  9  2  0
 14 13  1  0
 15 20  1  0
 16 17  1  0
 16 15  1  0
 18 17  1  0
 18 25  1  0
 18 19  1  0
 20 14  1  0
 20 19  1  0
 21 14  2  0
 22 23  2  0
 23 42  1  0
 24 23  1  0
 24 27  1  0
 25 26  1  0
 25 22  1  0
 26 24  2  0
 27 28  1  0
 28 29  2  0
 30 33  1  0
 30 29  1  0
 31 30  2  0
 32 31  1  0
 32 27  2  0
 33 34  1  0
 34 35  1  0
 35 36  2  0
 37 36  1  0
 37 41  1  0
 38 37  2  0
 39 34  2  0
 39 38  1  0
 40 39  1  0
 42 43  1  0
 43 46  1  0
 43 45  1  0
 44 42  2  0
 47 48  1  0
 47 22  1  0
 49 47  1  0
 50 55  1  0
 50 51  1  0
 51 54  1  0
 51 52  1  0
 53 51  1  0
 55 56  1  0
 57 68  2  0
 58 56  1  0
 58 63  1  0
 59 67  1  0
 59 69  1  0
 60 66  1  0
 60 62  1  0
 61 67  1  0
 62 63  2  0
 62 61  1  0
 64 65  1  0
 64 58  2  0
 65 60  2  0
 66 59  1  0
 67 57  1  0
 69 71  2  0
 70 69  1  0
 72 70  1  0
 73 82  2  0
 73 78  1  0
 74 70  1  0
 74 78  1  0
 75 74  1  0
 76 77  1  0
 76 75  1  0
 77 73  1  0
 78 79  2  0
 79 80  1  0
 81 80  2  0
 82 81  1  0
 83 57  1  0
 83 84  1  0
 83 93  1  0
 84 87  1  0
 85 89  1  0
 85 84  1  0
 86 85  2  0
 89 88  1  0
 91 89  1  0
 91 92  1  0
 91 90  1  0
 93 96  1  1
 93 94  1  0
 95 93  1  0
M  ISO  4  13 100  14 100  55 101  56 101
M  END
>  <TORSDO>  (47) 
F 22

>  <SCORE>  (47) 
-12.552

>  <name>  (47) 
47

>  <ligand_id>  (47) 
47

>  <original_smiles>  (47) 
[H]c1c([H])c([H])c2c(c1[H])C([H])([H])C([H])([H])C([H])([H])C2([H])N([H])C(=O)C1([H])N(C(=O)C([H])(N([H])C(=O)C([H])(N([H])C([H])([H])[H])C([H])([H])[H])C(C([H])([H])[H])(C([H])([H])[H])C([H])([H])[H])C([H])([H])c2c([H])c(OC([H])([H])C([H])(C([H])([H])N3C([H])([H])C([H])([H])C([H])(C([H])([H])[H])C([H])(N(C(=O)C([H])([H])C(=O)N4C([H])([H])C([H])([H])C([H])([H])C([H])(n5nc(-c6c([H])c([H])c(Oc7c([H])c([H])c(F)c([H])c7F)c([H])c6[H])c(C(=O)N([H])[H])c5N([H])[H])C4([H])[H])C([H])([H])[H])C3([H])[H])[N+]([H])([H])[H])c([H])c([H])c2C1([H])[H]

>  <smiles>  (47) 
[H]c1c([H])c([H])c2c(c1[H])C([H])([H])C([H])([H])C([H])([H])C2([H])N([H])C(=O)C1([H])N(C(=O)C([H])(N([H])C(=O)C([H])(N([H])C([H])([H])[H])C([H])([H])[H])C(C([H])([H])[H])(C([H])([H])[H])C([H])([H])[H])C([H])([H])c2c([H])c(OC([H])([H])C([H])(C([H])([H])N3C([H])([H])C([H])([H])C([H])(C([H])([H])[H])C([H])(N(C(=O)C([H])([H])C(=O)N4C([H])([H])C([H])([H])C([H])([H])C([H])(n5nc(-c6c([H])c([H])c(Oc7c([H])c([H])c(F)c([H])c7F)c([H])c6[H])c(C(=O)N([H])[H])c5N([H])[H])C4([H])[H])C([H])([H])[H])C3([H])[H])[N+]([H])([H])[H])c([H])c([H])c2C1([H])[H]

$$$$
48:0:0
     RDKit          3D

 92101  0  0  1  0  0  0  0  0999 V2000
  -30.4700  -23.8150   20.4440 C   0  0  0  0  0  2  0  0  0  0  0  0
  -30.9250  -22.3630   20.1630 C   0  0  0  0  0  2  0  0  0  0  0  0
  -28.5380  -22.4200   20.2670 C   0  0  0  0  0  2  0  0  0  0  0  0
  -29.0150  -23.8970   19.9540 C   0  0  0  0  0  3  0  0  0  0  0  0
  -29.7270  -21.5300   20.2260 N   0  0  0  0  0  0  0  0  0  0  0  0
  -31.0100  -19.3690   20.2480 C   0  0  0  0  0  3  0  0  0  0  0  0
  -31.0840  -17.9420   20.3170 C   0  0  0  0  0  3  0  0  0  0  0  0
  -28.6200  -19.2830   20.4540 C   0  0  0  0  0  3  0  0  0  0  0  0
  -29.7790  -20.0900   20.3070 C   0  0  0  0  0  0  0  0  0  0  0  0
  -29.9150  -17.1490   20.4530 C   0  0  0  0  0  0  0  0  0  0  0  0
  -28.6890  -17.8600   20.5270 C   0  0  0  0  0  0  0  0  0  0  0  0
  -27.5420  -17.1520   20.6650 F   0  0  0  0  0  0  0  0  0  0  0  0
  -30.6460  -14.6750   20.0790 C   0  0  0  0  0  0  0  0  0  0  0  0
  -30.3920  -12.4770   18.9400 C   0  0  0  0  0  2  0  0  0  0  0  0
  -29.3850  -12.6530   17.7800 C   0  0  0  0  0  2  0  0  0  0  0  0
  -27.9330  -12.4800   18.2740 C   0  0  0  0  0  2  0  0  0  0  0  0
  -27.6410  -13.2920   19.5650 C   0  0  0  0  0  3  0  0  0  0  0  0
  -28.7540  -13.0850   20.6180 C   0  0  0  0  0  2  0  0  0  0  0  0
  -30.0360  -13.4500   19.9920 N   0  0  0  0  0  0  0  0  0  0  0  0
  -31.7790  -14.8620   19.6240 O   0  0  0  0  0  0  0  0  0  0  0  0
  -29.8610  -15.6900   20.5530 N   0  0  0  0  0  0  0  0  0  0  0  0
  -28.9710  -15.3570   20.8940 H   0  0  0  0  0  0  0  0  0  0  0  0
  -25.2770  -13.8700   20.3930 C   0  0  0  0  0  0  0  0  0  0  0  0
  -24.2300  -13.0870   20.7960 C   0  0  0  0  0  0  0  0  0  0  0  0
  -24.6970  -11.7390   20.7260 C   0  0  0  0  0  0  0  0  0  0  0  0
  -26.3150  -12.9980   20.1040 N   0  0  0  0  0  0  0  0  0  0  0  0
  -25.9720  -11.7100   20.3610 N   0  0  0  0  0  0  0  0  0  0  0  0
  -23.9840  -10.4700   20.9320 C   0  0  0  0  0  0  0  0  0  0  0  0
  -24.4320   -9.5140   21.8710 C   0  0  0  0  0  3  0  0  0  0  0  0
  -23.7200   -8.3110   22.0630 C   0  0  0  0  0  3  0  0  0  0  0  0
  -22.5470   -8.0530   21.3160 C   0  0  0  0  0  0  0  0  0  0  0  0
  -22.1160   -8.9980   20.3670 C   0  0  0  0  0  3  0  0  0  0  0  0
  -22.8290  -10.1940   20.1740 C   0  0  0  0  0  3  0  0  0  0  0  0
  -21.8040   -6.9020   21.4180 O   0  0  0  0  0  0  0  0  0  0  0  0
  -21.7300   -6.1950   22.5910 C   0  0  0  0  0  0  0  0  0  0  0  0
  -21.2530   -6.7800   23.7840 C   0  0  0  0  0  3  0  0  0  0  0  0
  -21.1280   -5.9990   24.9500 C   0  0  0  0  0  3  0  0  0  0  0  0
  -21.4670   -4.6320   24.9220 C   0  0  0  0  0  0  0  0  0  0  0  0
  -21.9370   -4.0470   23.7330 C   0  0  0  0  0  3  0  0  0  0  0  0
  -22.0650   -4.8260   22.5700 C   0  0  0  0  0  0  0  0  0  0  0  0
  -22.4980   -4.2520   21.4220 F   0  0  0  0  0  0  0  0  0  0  0  0
  -21.3400   -3.8780   26.0390 F   0  0  0  0  0  0  0  0  0  0  0  0
  -22.8450  -13.5540   21.1420 C   0  0  0  0  0  0  0  0  0  0  0  0
  -22.1600  -12.8410   22.0290 N   0  0  0  0  0  0  0  0  0  0  0  0
  -22.3800  -14.5870   20.6620 O   0  0  0  0  0  0  0  0  0  0  0  0
  -22.5490  -12.0050   22.4400 H   0  0  0  0  0  0  0  0  0  0  0  0
  -21.2350  -13.1370   22.3050 H   0  0  0  0  0  0  0  0  0  0  0  0
  -25.4240  -15.2440   20.2370 N   0  0  0  0  0  0  0  0  0  0  0  0
  -24.6680  -15.8900   20.4320 H   0  0  0  0  0  0  0  0  0  0  0  0
  -26.2920  -15.7190   20.0190 H   0  0  0  0  0  0  0  0  0  0  0  0
  -28.1470  -25.1000   20.5390 C   0  0  0  0  0  2  0  0  0  0  0  0
  -28.3640  -26.4980   20.0880 O   0  0  0  0  0  0  0  0  0  0  0  0
  -24.6200  -31.8540   23.1680 C   0  0  0  0  0  0  0  0  0  0  0  0
  -27.2450  -27.3440   20.0700 C   0  0  0  0  0  0  0  0  0  0  0  0
  -23.4160  -30.4690   21.5150 C   0  0  0  0  0  3  0  0  0  0  0  0
  -24.8730  -28.9360   20.0710 C   0  0  0  0  0  0  0  0  0  0  0  0
  -25.9530  -30.7990   21.3320 C   0  0  0  0  0  2  0  0  0  0  0  0
  -26.0390  -29.4260   20.6750 C   0  0  0  0  0  0  0  0  0  0  0  0
  -27.2300  -28.6430   20.6630 C   0  0  0  0  0  3  0  0  0  0  0  0
  -26.0630  -26.9100   19.4310 C   0  0  0  0  0  3  0  0  0  0  0  0
  -24.8860  -27.6830   19.4390 C   0  0  0  0  0  3  0  0  0  0  0  0
  -23.6310  -29.8050   20.1290 C   0  0  0  0  0  2  0  0  0  0  0  0
  -24.6810  -31.0580   22.0610 N   0  0  0  0  0  0  0  0  0  0  0  0
  -23.5380  -32.1240   23.7090 O   0  0  0  0  0  0  0  0  0  0  0  0
  -22.7600  -29.4410   22.4660 C   0  0  0  0  0  0  0  0  0  0  0  0
  -21.4310  -29.2740   22.3520 N   0  0  0  0  0  0  0  0  0  0  0  0
  -23.4430  -28.7960   23.2650 O   0  0  0  0  0  0  0  0  0  0  0  0
  -20.9400  -29.8420   21.6740 H   0  0  0  0  0  0  0  0  0  0  0  0
  -18.0460  -28.1130   22.8890 C   0  0  0  0  0  0  0  0  0  0  0  0
  -20.6130  -28.3310   23.1150 C   0  0  0  0  0  3  0  0  0  0  0  0
  -20.6840  -26.9120   22.5060 C   0  0  0  0  0  2  0  0  0  0  0  0
  -19.5600  -26.6270   21.5060 C   0  0  0  0  0  2  0  0  0  0  0  0
  -18.1910  -26.7750   22.1790 C   0  0  0  0  0  2  0  0  0  0  0  0
  -19.1840  -28.8490   23.3140 C   0  0  0  0  0  0  0  0  0  0  0  0
  -18.9950  -30.1010   23.9390 C   0  0  0  0  0  3  0  0  0  0  0  0
  -17.7020  -30.6180   24.1390 C   0  0  0  0  0  3  0  0  0  0  0  0
  -16.5790  -29.8780   23.7300 C   0  0  0  0  0  3  0  0  0  0  0  0
  -16.7520  -28.6260   23.1130 C   0  0  0  0  0  3  0  0  0  0  0  0
  -25.9040  -32.4820   23.7940 C   0  0  0  0  0  3  0  0  0  0  0  0
  -25.5910  -33.8760   24.1390 N   0  0  0  0  0  0  0  0  0  0  0  0
  -25.9200  -34.9370   23.3910 C   0  0  0  0  0  0  0  0  0  0  0  0
  -26.5900  -34.8470   22.3590 O   0  0  0  0  0  0  0  0  0  0  0  0
  -24.9970  -34.0200   24.9430 H   0  0  0  0  0  0  0  0  0  0  0  0
  -24.1920  -36.7340   23.0490 C   0  0  0  0  0  1  0  0  0  0  0  0
  -25.4290  -36.3210   23.8620 C   0  0  0  0  0  3  0  0  0  0  0  0
  -27.5600  -37.1960   24.7130 C   0  0  0  0  0  1  0  0  0  0  0  0
  -26.4620  -37.3760   23.7660 N   0  0  0  0  0  0  0  0  0  0  0  0
  -26.0540  -38.2940   23.9240 H   0  0  0  0  0  0  0  0  0  0  0  0
  -26.4230  -31.6980   25.0610 C   0  0  1  0  0  0  0  0  0  0  0  0
  -25.3310  -31.4470   26.1280 C   0  0  0  0  0  1  0  0  0  0  0  0
  -27.0080  -30.3250   24.6570 C   0  0  0  0  0  1  0  0  0  0  0  0
  -27.5750  -32.4870   25.7280 C   0  0  0  0  0  1  0  0  0  0  0  0
  2  5  1  0
  2  1  1  0
  4  3  1  0
  4  1  1  0
  4 51  1  0
  5  3  1  0
  5  9  1  0
  6  9  2  0
  6  7  1  0
  7 10  2  0
  8 11  2  0
  9  8  1  0
 10 11  1  0
 10 21  1  0
 11 12  1  0
 13 21  1  0
 14 19  1  0
 15 16  1  0
 15 14  1  0
 17 16  1  0
 17 26  1  0
 17 18  1  0
 19 13  1  0
 19 18  1  0
 20 13  2  0
 21 22  1  0
 23 24  2  0
 24 43  1  0
 25 24  1  0
 25 28  1  0
 26 27  1  0
 26 23  1  0
 27 25  2  0
 28 29  1  0
 29 30  2  0
 31 34  1  0
 31 30  1  0
 32 31  2  0
 33 32  1  0
 33 28  2  0
 34 35  1  0
 35 36  1  0
 36 37  2  0
 38 37  1  0
 38 42  1  0
 39 38  2  0
 40 35  2  0
 40 39  1  0
 41 40  1  0
 43 44  1  0
 44 47  1  0
 44 46  1  0
 45 43  2  0
 48 23  1  0
 48 49  1  0
 50 48  1  0
 52 51  1  0
 53 64  2  0
 54 52  1  0
 54 59  1  0
 55 63  1  0
 55 65  1  0
 56 62  1  0
 56 58  1  0
 57 63  1  0
 58 57  1  0
 59 58  2  0
 60 61  1  0
 60 54  2  0
 61 56  2  0
 62 55  1  0
 63 53  1  0
 65 67  2  0
 66 65  1  0
 68 66  1  0
 69 78  2  0
 69 74  1  0
 70 66  1  0
 70 74  1  0
 71 70  1  0
 72 73  1  0
 72 71  1  0
 73 69  1  0
 74 75  2  0
 75 76  1  0
 77 76  2  0
 78 77  1  0
 79 53  1  0
 79 80  1  0
 79 89  1  0
 80 83  1  0
 81 85  1  0
 81 80  1  0
 82 81  2  0
 85 84  1  0
 87 85  1  0
 87 88  1  0
 87 86  1  0
 89 92  1  1
 89 90  1  0
 91 89  1  0
M  ISO  4  13 100  21 100  51 101  52 101
M  END
>  <TORSDO>  (48) 
F 18

>  <SCORE>  (48) 
-14.762

>  <name>  (48) 
48

>  <ligand_id>  (48) 
48

>  <original_smiles>  (48) 
[H]c1c([H])c([H])c2c(c1[H])C([H])([H])C([H])([H])C([H])([H])C2([H])N([H])C(=O)C1([H])N(C(=O)C([H])(N([H])C(=O)C([H])(N([H])C([H])([H])[H])C([H])([H])[H])C(C([H])([H])[H])(C([H])([H])[H])C([H])([H])[H])C([H])([H])c2c([H])c(OC([H])([H])C3([H])C([H])([H])N(c4c([H])c([H])c(N([H])C(=O)N5C([H])([H])C([H])([H])C([H])([H])C([H])(n6nc(-c7c([H])c([H])c(Oc8c([H])c([H])c(F)c([H])c8F)c([H])c7[H])c(C(=O)N([H])[H])c6N([H])[H])C5([H])[H])c(F)c4[H])C([H])([H])C3([H])[H])c([H])c([H])c2C1([H])[H]

>  <smiles>  (48) 
[H]c1c([H])c([H])c2c(c1[H])C([H])([H])C([H])([H])C([H])([H])C2([H])N([H])C(=O)C1([H])N(C(=O)C([H])(N([H])C(=O)C([H])(N([H])C([H])([H])[H])C([H])([H])[H])C(C([H])([H])[H])(C([H])([H])[H])C([H])([H])[H])C([H])([H])c2c([H])c(OC([H])([H])C3([H])C([H])([H])N(c4c([H])c([H])c(N([H])C(=O)N5C([H])([H])C([H])([H])C([H])([H])C([H])(n6nc(-c7c([H])c([H])c(Oc8c([H])c([H])c(F)c([H])c8F)c([H])c7[H])c(C(=O)N([H])[H])c6N([H])[H])C5([H])[H])c(F)c4[H])C([H])([H])C3([H])[H])c([H])c([H])c2C1([H])[H]

$$$$
49:0:0
     RDKit          3D

 91 99  0  0  1  0  0  0  0  0999 V2000
  -29.1930  -22.6840   19.7820 N   0  0  0  0  0  4  0  0  0  0  0  0
  -29.1700  -22.2240   18.8860 H   0  0  0  0  0  0  0  0  0  0  0  0
  -30.1530  -22.9540   19.9280 H   0  0  0  0  0  0  0  0  0  0  0  0
  -28.8450  -21.5970   20.7730 C   0  0  0  0  0  2  0  0  0  0  0  0
  -28.1460  -19.1150   20.5070 C   0  0  0  0  0  3  0  0  0  0  0  0
  -30.5080  -19.5150   20.3950 C   0  0  0  0  0  3  0  0  0  0  0  0
  -28.3860  -17.7130   20.4870 C   0  0  0  0  0  3  0  0  0  0  0  0
  -30.7500  -18.0950   20.3520 C   0  0  0  0  0  3  0  0  0  0  0  0
  -29.1940  -20.0710   20.4950 C   0  0  0  0  0  0  0  0  0  0  0  0
  -29.6860  -17.1480   20.4290 C   0  0  0  0  0  0  0  0  0  0  0  0
  -30.6150  -14.6950   20.0770 C   0  0  0  0  0  0  0  0  0  0  0  0
  -30.4050  -12.4760   18.9600 C   0  0  0  0  0  2  0  0  0  0  0  0
  -29.3910  -12.6250   17.8010 C   0  0  0  0  0  2  0  0  0  0  0  0
  -27.9400  -12.4540   18.2980 C   0  0  0  0  0  2  0  0  0  0  0  0
  -27.6460  -13.2760   19.5800 C   0  0  0  0  0  3  0  0  0  0  0  0
  -28.7610  -13.0680   20.6320 C   0  0  0  0  0  2  0  0  0  0  0  0
  -30.0380  -13.4510   20.0050 N   0  0  0  0  0  0  0  0  0  0  0  0
  -31.7510  -14.9070   19.6370 O   0  0  0  0  0  0  0  0  0  0  0  0
  -29.7710  -15.6840   20.5210 N   0  0  0  0  0  0  0  0  0  0  0  0
  -28.9190  -15.2680   20.8640 H   0  0  0  0  0  0  0  0  0  0  0  0
  -25.2870  -13.8660   20.4160 C   0  0  0  0  0  0  0  0  0  0  0  0
  -24.2400  -13.0880   20.8270 C   0  0  0  0  0  0  0  0  0  0  0  0
  -24.7000  -11.7370   20.7530 C   0  0  0  0  0  0  0  0  0  0  0  0
  -26.3210  -12.9890   20.1200 N   0  0  0  0  0  0  0  0  0  0  0  0
  -25.9750  -11.7030   20.3830 N   0  0  0  0  0  0  0  0  0  0  0  0
  -23.9830  -10.4720   20.9570 C   0  0  0  0  0  0  0  0  0  0  0  0
  -24.4290   -9.5140   21.8940 C   0  0  0  0  0  3  0  0  0  0  0  0
  -23.7140   -8.3120   22.0840 C   0  0  0  0  0  3  0  0  0  0  0  0
  -22.5380   -8.0610   21.3380 C   0  0  0  0  0  0  0  0  0  0  0  0
  -22.1120   -9.0080   20.3880 C   0  0  0  0  0  3  0  0  0  0  0  0
  -22.8280  -10.2010   20.1970 C   0  0  0  0  0  3  0  0  0  0  0  0
  -21.7920   -6.9110   21.4380 O   0  0  0  0  0  0  0  0  0  0  0  0
  -21.7190   -6.2020   22.6090 C   0  0  0  0  0  0  0  0  0  0  0  0
  -21.2310   -6.7790   23.8010 C   0  0  0  0  0  3  0  0  0  0  0  0
  -21.1070   -5.9930   24.9650 C   0  0  0  0  0  3  0  0  0  0  0  0
  -21.4630   -4.6320   24.9370 C   0  0  0  0  0  0  0  0  0  0  0  0
  -21.9440   -4.0540   23.7490 C   0  0  0  0  0  3  0  0  0  0  0  0
  -22.0690   -4.8370   22.5870 C   0  0  0  0  0  0  0  0  0  0  0  0
  -22.5140   -4.2690   21.4400 F   0  0  0  0  0  0  0  0  0  0  0  0
  -21.3370   -3.8740   26.0520 F   0  0  0  0  0  0  0  0  0  0  0  0
  -22.8560  -13.5600   21.1710 C   0  0  0  0  0  0  0  0  0  0  0  0
  -22.1690  -12.8480   22.0570 N   0  0  0  0  0  0  0  0  0  0  0  0
  -22.3960  -14.5950   20.6890 O   0  0  0  0  0  0  0  0  0  0  0  0
  -22.5550  -12.0100   22.4680 H   0  0  0  0  0  0  0  0  0  0  0  0
  -21.2430  -13.1460   22.3300 H   0  0  0  0  0  0  0  0  0  0  0  0
  -25.4390  -15.2380   20.2390 N   0  0  0  0  0  0  0  0  0  0  0  0
  -24.6590  -15.8750   20.3570 H   0  0  0  0  0  0  0  0  0  0  0  0
  -26.2180  -15.6550   19.7460 H   0  0  0  0  0  0  0  0  0  0  0  0
  -28.3180  -23.9370   19.6270 C   0  0  0  0  0  2  0  0  0  0  0  0
  -28.4560  -25.1650   20.6370 C   0  0  0  0  0  2  0  0  0  0  0  0
  -28.4420  -26.5610   20.1350 O   0  0  0  0  0  0  0  0  0  0  0  0
  -24.6750  -31.8900   23.2510 C   0  0  0  0  0  0  0  0  0  0  0  0
  -27.2850  -27.3480   20.1820 C   0  0  0  0  0  0  0  0  0  0  0  0
  -23.4650  -30.5000   21.6030 C   0  0  0  0  0  3  0  0  0  0  0  0
  -24.9110  -28.9430   20.1790 C   0  0  0  0  0  0  0  0  0  0  0  0
  -26.0020  -30.8200   21.4160 C   0  0  0  0  0  2  0  0  0  0  0  0
  -26.0800  -29.4400   20.7690 C   0  0  0  0  0  0  0  0  0  0  0  0
  -27.2680  -28.6560   20.7550 C   0  0  0  0  0  3  0  0  0  0  0  0
  -26.0950  -26.8870   19.5840 C   0  0  0  0  0  3  0  0  0  0  0  0
  -24.9200  -27.6700   19.5800 C   0  0  0  0  0  3  0  0  0  0  0  0
  -23.6780  -29.8220   20.2230 C   0  0  0  0  0  2  0  0  0  0  0  0
  -24.7340  -31.0870   22.1470 N   0  0  0  0  0  0  0  0  0  0  0  0
  -23.5930  -32.1680   23.7890 O   0  0  0  0  0  0  0  0  0  0  0  0
  -22.8020  -29.4840   22.5610 C   0  0  0  0  0  0  0  0  0  0  0  0
  -21.4760  -29.3100   22.4330 N   0  0  0  0  0  0  0  0  0  0  0  0
  -23.4790  -28.8540   23.3780 O   0  0  0  0  0  0  0  0  0  0  0  0
  -20.9890  -29.8680   21.7460 H   0  0  0  0  0  0  0  0  0  0  0  0
  -18.0960  -28.1230   22.9210 C   0  0  0  0  0  0  0  0  0  0  0  0
  -20.6530  -28.3720   23.1990 C   0  0  0  0  0  3  0  0  0  0  0  0
  -20.7530  -26.9420   22.6180 C   0  0  0  0  0  2  0  0  0  0  0  0
  -19.6530  -26.6270   21.6010 C   0  0  0  0  0  2  0  0  0  0  0  0
  -18.2690  -26.7750   22.2420 C   0  0  0  0  0  2  0  0  0  0  0  0
  -19.2140  -28.8790   23.3570 C   0  0  0  0  0  0  0  0  0  0  0  0
  -18.9980  -30.1400   23.9520 C   0  0  0  0  0  3  0  0  0  0  0  0
  -17.6960  -30.6450   24.1180 C   0  0  0  0  0  3  0  0  0  0  0  0
  -16.5900  -29.8840   23.7010 C   0  0  0  0  0  3  0  0  0  0  0  0
  -16.7900  -28.6260   23.1060 C   0  0  0  0  0  3  0  0  0  0  0  0
  -25.9610  -32.5150   23.8730 C   0  0  0  0  0  3  0  0  0  0  0  0
  -26.4810  -31.7310   25.1420 C   0  0  1  0  0  0  0  0  0  0  0  0
  -25.3900  -31.4860   26.2110 C   0  0  0  0  0  1  0  0  0  0  0  0
  -27.0600  -30.3560   24.7350 C   0  0  0  0  0  1  0  0  0  0  0  0
  -27.6320  -32.5190   25.8100 C   0  0  0  0  0  1  0  0  0  0  0  0
  -25.6560  -33.9110   24.2190 N   0  0  0  0  0  0  0  0  0  0  0  0
  -25.9860  -34.9690   23.4680 C   0  0  0  0  0  0  0  0  0  0  0  0
  -26.6490  -34.8750   22.4320 O   0  0  0  0  0  0  0  0  0  0  0  0
  -25.0710  -34.0580   25.0260 H   0  0  0  0  0  0  0  0  0  0  0  0
  -24.2650  -36.7710   23.1340 C   0  0  0  0  0  1  0  0  0  0  0  0
  -25.5040  -36.3550   23.9420 C   0  0  0  0  0  3  0  0  0  0  0  0
  -27.6370  -37.2260   24.7870 C   0  0  0  0  0  1  0  0  0  0  0  0
  -26.5400  -37.4060   23.8410 N   0  0  0  0  0  0  0  0  0  0  0  0
  -26.1370  -38.3250   23.9940 H   0  0  0  0  0  0  0  0  0  0  0  0
  1  3  1  0
  1  4  1  0
  2  1  1  0
  6  9  2  0
  7  5  2  0
  8  6  1  0
  8 10  2  0
  9  5  1  0
  9  4  1  0
 10  7  1  0
 10 19  1  0
 11 19  1  0
 12 17  1  0
 13 14  1  0
 13 12  1  0
 15 14  1  0
 15 24  1  0
 15 16  1  0
 17 11  1  0
 17 16  1  0
 18 11  2  0
 19 20  1  0
 21 22  2  0
 22 41  1  0
 23 22  1  0
 23 26  1  0
 24 25  1  0
 24 21  1  0
 25 23  2  0
 26 27  1  0
 27 28  2  0
 29 32  1  0
 29 28  1  0
 30 29  2  0
 31 30  1  0
 31 26  2  0
 32 33  1  0
 33 34  1  0
 34 35  2  0
 36 35  1  0
 36 40  1  0
 37 36  2  0
 38 33  2  0
 38 37  1  0
 39 38  1  0
 41 42  1  0
 42 45  1  0
 42 44  1  0
 43 41  2  0
 46 47  1  0
 46 21  1  0
 48 46  1  0
 49  1  1  0
 49 50  1  0
 51 53  1  0
 51 50  1  0
 52 63  2  0
 53 58  1  0
 54 62  1  0
 54 64  1  0
 55 61  1  0
 55 57  1  0
 56 62  1  0
 57 56  1  0
 58 57  2  0
 59 53  2  0
 60 59  1  0
 60 55  2  0
 61 54  1  0
 62 52  1  0
 64 66  2  0
 65 64  1  0
 67 65  1  0
 68 77  2  0
 68 73  1  0
 69 65  1  0
 69 73  1  0
 70 69  1  0
 71 72  1  0
 71 70  1  0
 72 68  1  0
 73 74  2  0
 74 75  1  0
 76 75  2  0
 77 76  1  0
 78 52  1  0
 78 83  1  0
 78 79  1  0
 79 82  1  1
 79 80  1  0
 81 79  1  0
 83 86  1  0
 84 88  1  0
 84 83  1  0
 85 84  2  0
 88 87  1  0
 90 88  1  0
 90 91  1  0
 90 89  1  0
M  ISO  4  11 100  19 100  50 101  51 101
M  END
>  <TORSDO>  (49) 
F 20

>  <SCORE>  (49) 
-13.810

>  <name>  (49) 
49

>  <ligand_id>  (49) 
49

>  <original_smiles>  (49) 
[H]c1c([H])c([H])c2c(c1[H])C([H])([H])C([H])([H])C([H])([H])C2([H])N([H])C(=O)C1([H])N(C(=O)C([H])(N([H])C(=O)C([H])(N([H])C([H])([H])[H])C([H])([H])[H])C(C([H])([H])[H])(C([H])([H])[H])C([H])([H])[H])C([H])([H])c2c([H])c(OC([H])([H])C([H])([H])[N+]([H])([H])C([H])([H])c3c([H])c([H])c(N([H])C(=O)N4C([H])([H])C([H])([H])C([H])([H])C([H])(n5nc(-c6c([H])c([H])c(Oc7c([H])c([H])c(F)c([H])c7F)c([H])c6[H])c(C(=O)N([H])[H])c5N([H])[H])C4([H])[H])c([H])c3[H])c([H])c([H])c2C1([H])[H]

>  <smiles>  (49) 
[H]c1c([H])c([H])c2c(c1[H])C([H])([H])C([H])([H])C([H])([H])C2([H])N([H])C(=O)C1([H])N(C(=O)C([H])(N([H])C(=O)C([H])(N([H])C([H])([H])[H])C([H])([H])[H])C(C([H])([H])[H])(C([H])([H])[H])C([H])([H])[H])C([H])([H])c2c([H])c(OC([H])([H])C([H])([H])[N+]([H])([H])C([H])([H])c3c([H])c([H])c(N([H])C(=O)N4C([H])([H])C([H])([H])C([H])([H])C([H])(n5nc(-c6c([H])c([H])c(Oc7c([H])c([H])c(F)c([H])c7F)c([H])c6[H])c(C(=O)N([H])[H])c5N([H])[H])C4([H])[H])c([H])c3[H])c([H])c([H])c2C1([H])[H]

$$$$
50:0:0
     RDKit          3D

 91100  0  0  1  0  0  0  0  0999 V2000
  -28.1220  -24.0000   19.1170 C   0  0  0  0  0  2  0  0  0  0  0  0
  -29.2830  -24.2320   21.2260 C   0  0  0  0  0  2  0  0  0  0  0  0
  -28.0020  -22.4300   19.3680 C   0  0  0  0  0  2  0  0  0  0  0  0
  -29.2000  -22.6580   21.4570 C   0  0  0  0  0  2  0  0  0  0  0  0
  -28.1300  -24.9060   20.3980 C   0  0  0  0  0  3  0  0  0  0  0  0
  -29.0450  -21.8260   20.2380 N   0  0  0  0  0  0  0  0  0  0  0  0
  -28.3350  -19.4280   19.7210 C   0  0  0  0  0  3  0  0  0  0  0  0
  -30.3460  -19.7280   20.9470 C   0  0  0  0  0  3  0  0  0  0  0  0
  -28.5090  -18.0030   19.7980 C   0  0  0  0  0  3  0  0  0  0  0  0
  -30.5390  -18.2950   21.0040 C   0  0  0  0  0  3  0  0  0  0  0  0
  -29.2340  -20.3690   20.3060 C   0  0  0  0  0  0  0  0  0  0  0  0
  -29.6160  -17.3650   20.4350 C   0  0  0  0  0  0  0  0  0  0  0  0
  -30.5000  -14.8270   20.3720 C   0  0  0  0  0  0  0  0  0  0  0  0
  -30.3760  -12.5350   19.3600 C   0  0  0  0  0  2  0  0  0  0  0  0
  -29.4180  -12.5910   18.1470 C   0  0  0  0  0  2  0  0  0  0  0  0
  -27.9520  -12.4000   18.5880 C   0  0  0  0  0  2  0  0  0  0  0  0
  -27.5800  -13.2800   19.8110 C   0  0  0  0  0  3  0  0  0  0  0  0
  -28.6500  -13.1800   20.9210 C   0  0  0  0  0  2  0  0  0  0  0  0
  -29.9370  -13.5690   20.3250 N   0  0  0  0  0  0  0  0  0  0  0  0
  -31.6800  -14.9900   20.0430 O   0  0  0  0  0  0  0  0  0  0  0  0
  -29.6190  -15.8790   20.6010 N   0  0  0  0  0  0  0  0  0  0  0  0
  -28.6970  -15.5080   20.7690 H   0  0  0  0  0  0  0  0  0  0  0  0
  -25.1980  -13.8670   20.5640 C   0  0  0  0  0  0  0  0  0  0  0  0
  -24.1360  -13.0900   20.9370 C   0  0  0  0  0  0  0  0  0  0  0  0
  -24.5990  -11.7400   20.8890 C   0  0  0  0  0  0  0  0  0  0  0  0
  -26.2400  -12.9890   20.3090 N   0  0  0  0  0  0  0  0  0  0  0  0
  -25.8860  -11.7050   20.5680 N   0  0  0  0  0  0  0  0  0  0  0  0
  -23.8740  -10.4760   21.0730 C   0  0  0  0  0  0  0  0  0  0  0  0
  -24.3110   -9.5020   21.9970 C   0  0  0  0  0  3  0  0  0  0  0  0
  -23.5860   -8.3030   22.1700 C   0  0  0  0  0  3  0  0  0  0  0  0
  -22.4090   -8.0710   21.4180 C   0  0  0  0  0  0  0  0  0  0  0  0
  -21.9920   -9.0330   20.4830 C   0  0  0  0  0  3  0  0  0  0  0  0
  -22.7170  -10.2240   20.3080 C   0  0  0  0  0  3  0  0  0  0  0  0
  -21.6560   -6.9250   21.5000 O   0  0  0  0  0  0  0  0  0  0  0  0
  -21.6080   -6.1760   22.6480 C   0  0  0  0  0  0  0  0  0  0  0  0
  -21.1550   -6.7170   23.8720 C   0  0  0  0  0  3  0  0  0  0  0  0
  -21.0560   -5.8930   25.0120 C   0  0  0  0  0  3  0  0  0  0  0  0
  -21.3980   -4.5310   24.9290 C   0  0  0  0  0  0  0  0  0  0  0  0
  -21.8440   -3.9900   23.7100 C   0  0  0  0  0  3  0  0  0  0  0  0
  -21.9450   -4.8090   22.5720 C   0  0  0  0  0  0  0  0  0  0  0  0
  -22.3550   -4.2780   21.3950 F   0  0  0  0  0  0  0  0  0  0  0  0
  -21.2960   -3.7380   26.0200 F   0  0  0  0  0  0  0  0  0  0  0  0
  -22.7410  -13.5650   21.2240 C   0  0  0  0  0  0  0  0  0  0  0  0
  -22.0220  -12.8660   22.0940 N   0  0  0  0  0  0  0  0  0  0  0  0
  -22.2960  -14.5920   20.7110 O   0  0  0  0  0  0  0  0  0  0  0  0
  -22.3940  -12.0350   22.5310 H   0  0  0  0  0  0  0  0  0  0  0  0
  -21.0870  -13.1660   22.3300 H   0  0  0  0  0  0  0  0  0  0  0  0
  -25.3570  -15.2400   20.3950 N   0  0  0  0  0  0  0  0  0  0  0  0
  -24.5810  -15.8830   20.5100 H   0  0  0  0  0  0  0  0  0  0  0  0
  -26.1820  -15.6820   20.0150 H   0  0  0  0  0  0  0  0  0  0  0  0
  -28.2870  -26.4080   20.2390 O   0  0  0  0  0  0  0  0  0  0  0  0
  -24.6120  -31.9100   23.2850 C   0  0  0  0  0  0  0  0  0  0  0  0
  -27.1750  -27.2880   20.2180 C   0  0  0  0  0  0  0  0  0  0  0  0
  -23.3940  -30.5250   21.6440 C   0  0  0  0  0  3  0  0  0  0  0  0
  -24.8290  -28.9580   20.2110 C   0  0  0  0  0  0  0  0  0  0  0  0
  -25.9400  -30.8130   21.4560 C   0  0  0  0  0  2  0  0  0  0  0  0
  -26.0070  -29.4300   20.8030 C   0  0  0  0  0  0  0  0  0  0  0  0
  -27.1840  -28.6110   20.7850 C   0  0  0  0  0  3  0  0  0  0  0  0
  -25.9690  -26.8800   19.6100 C   0  0  0  0  0  3  0  0  0  0  0  0
  -24.8160  -27.6920   19.6020 C   0  0  0  0  0  3  0  0  0  0  0  0
  -23.6010  -29.8490   20.2630 C   0  0  0  0  0  2  0  0  0  0  0  0
  -24.6690  -31.1020   22.1850 N   0  0  0  0  0  0  0  0  0  0  0  0
  -23.5320  -32.1950   23.8230 O   0  0  0  0  0  0  0  0  0  0  0  0
  -22.7220  -29.5150   22.6050 C   0  0  0  0  0  0  0  0  0  0  0  0
  -21.3960  -29.3400   22.4740 N   0  0  0  0  0  0  0  0  0  0  0  0
  -23.3950  -28.8910   23.4290 O   0  0  0  0  0  0  0  0  0  0  0  0
  -20.9110  -29.8950   21.7830 H   0  0  0  0  0  0  0  0  0  0  0  0
  -18.0160  -28.1380   22.9570 C   0  0  0  0  0  0  0  0  0  0  0  0
  -20.5730  -28.4050   23.2440 C   0  0  0  0  0  3  0  0  0  0  0  0
  -20.6820  -26.9710   22.6760 C   0  0  0  0  0  2  0  0  0  0  0  0
  -19.5870  -26.6410   21.6560 C   0  0  0  0  0  2  0  0  0  0  0  0
  -18.2000  -26.7850   22.2890 C   0  0  0  0  0  2  0  0  0  0  0  0
  -19.1300  -28.9050   23.3910 C   0  0  0  0  0  0  0  0  0  0  0  0
  -18.9030  -30.1700   23.9770 C   0  0  0  0  0  3  0  0  0  0  0  0
  -17.5950  -30.6670   24.1330 C   0  0  0  0  0  3  0  0  0  0  0  0
  -16.4970  -29.8980   23.7140 C   0  0  0  0  0  3  0  0  0  0  0  0
  -16.7080  -28.6350   23.1310 C   0  0  0  0  0  3  0  0  0  0  0  0
  -25.8990  -32.5340   23.9070 C   0  0  0  0  0  3  0  0  0  0  0  0
  -25.6010  -33.9350   24.2370 N   0  0  0  0  0  0  0  0  0  0  0  0
  -25.9160  -34.9850   23.4660 C   0  0  0  0  0  0  0  0  0  0  0  0
  -26.5580  -34.8750   22.4170 O   0  0  0  0  0  0  0  0  0  0  0  0
  -25.0290  -34.0950   25.0530 H   0  0  0  0  0  0  0  0  0  0  0  0
  -24.1760  -36.7770   23.1660 C   0  0  0  0  0  1  0  0  0  0  0  0
  -25.4480  -36.3770   23.9310 C   0  0  0  0  0  3  0  0  0  0  0  0
  -27.6100  -37.2720   24.6750 C   0  0  0  0  0  1  0  0  0  0  0  0
  -26.4750  -37.4290   23.7700 N   0  0  0  0  0  0  0  0  0  0  0  0
  -26.0740  -38.3510   23.9220 H   0  0  0  0  0  0  0  0  0  0  0  0
  -26.4070  -31.7610   25.1850 C   0  0  1  0  0  0  0  0  0  0  0  0
  -25.3110  -31.5340   26.2540 C   0  0  0  0  0  1  0  0  0  0  0  0
  -26.9790  -30.3770   24.7990 C   0  0  0  0  0  1  0  0  0  0  0  0
  -27.5640  -32.5460   25.8470 C   0  0  0  0  0  1  0  0  0  0  0  0
  1  3  1  0
  1  5  1  0
  2  4  1  0
  3  6  1  0
  5 51  1  0
  5  2  1  0
  6 11  1  0
  6  4  1  0
  7  9  2  0
  7 11  1  0
  8 10  1  0
  9 12  1  0
 11  8  2  0
 12 21  1  0
 12 10  2  0
 13 21  1  0
 14 19  1  0
 15 16  1  0
 15 14  1  0
 17 16  1  0
 17 26  1  0
 17 18  1  0
 19 13  1  0
 19 18  1  0
 20 13  2  0
 21 22  1  0
 23 24  2  0
 24 43  1  0
 25 24  1  0
 25 28  1  0
 26 23  1  0
 26 27  1  0
 27 25  2  0
 28 29  1  0
 29 30  2  0
 31 34  1  0
 31 30  1  0
 32 31  2  0
 33 32  1  0
 33 28  2  0
 34 35  1  0
 35 36  1  0
 36 37  2  0
 38 37  1  0
 38 42  1  0
 39 38  2  0
 40 35  2  0
 40 39  1  0
 41 40  1  0
 43 44  1  0
 44 47  1  0
 44 46  1  0
 45 43  2  0
 48 49  1  0
 48 23  1  0
 50 48  1  0
 52 63  2  0
 53 51  1  0
 53 58  1  0
 54 62  1  0
 54 64  1  0
 55 61  1  0
 55 57  1  0
 56 62  1  0
 57 56  1  0
 58 57  2  0
 59 53  2  0
 60 59  1  0
 60 55  2  0
 61 54  1  0
 62 52  1  0
 64 66  2  0
 65 64  1  0
 67 65  1  0
 68 77  2  0
 68 73  1  0
 69 65  1  0
 69 73  1  0
 70 69  1  0
 71 72  1  0
 71 70  1  0
 72 68  1  0
 73 74  2  0
 74 75  1  0
 76 75  2  0
 77 76  1  0
 78 52  1  0
 78 79  1  0
 78 88  1  0
 79 82  1  0
 80 84  1  0
 80 79  1  0
 81 80  2  0
 84 83  1  0
 86 87  1  0
 86 84  1  0
 86 85  1  0
 88 91  1  1
 88 89  1  0
 90 88  1  0
M  ISO  4   5 101  13 100  21 100  51 101
M  END
>  <TORSDO>  (50) 
F 17

>  <SCORE>  (50) 
-15.343

>  <name>  (50) 
50

>  <ligand_id>  (50) 
50

>  <original_smiles>  (50) 
[H]c1c([H])c([H])c2c(c1[H])C([H])([H])C([H])([H])C([H])([H])C2([H])N([H])C(=O)C1([H])N(C(=O)C([H])(N([H])C(=O)C([H])(N([H])C([H])([H])[H])C([H])([H])[H])C(C([H])([H])[H])(C([H])([H])[H])C([H])([H])[H])C([H])([H])c2c([H])c(OC3([H])C([H])([H])C([H])([H])N(c4c([H])c([H])c(N([H])C(=O)N5C([H])([H])C([H])([H])C([H])([H])C([H])(n6nc(-c7c([H])c([H])c(Oc8c([H])c([H])c(F)c([H])c8F)c([H])c7[H])c(C(=O)N([H])[H])c6N([H])[H])C5([H])[H])c([H])c4[H])C([H])([H])C3([H])[H])c([H])c([H])c2C1([H])[H]

>  <smiles>  (50) 
[H]c1c([H])c([H])c2c(c1[H])C([H])([H])C([H])([H])C([H])([H])C2([H])N([H])C(=O)C1([H])N(C(=O)C([H])(N([H])C(=O)C([H])(N([H])C([H])([H])[H])C([H])([H])[H])C(C([H])([H])[H])(C([H])([H])[H])C([H])([H])[H])C([H])([H])c2c([H])c(OC3([H])C([H])([H])C([H])([H])N(c4c([H])c([H])c(N([H])C(=O)N5C([H])([H])C([H])([H])C([H])([H])C([H])(n6nc(-c7c([H])c([H])c(Oc8c([H])c([H])c(F)c([H])c8F)c([H])c7[H])c(C(=O)N([H])[H])c6N([H])[H])C5([H])[H])c([H])c4[H])C([H])([H])C3([H])[H])c([H])c([H])c2C1([H])[H]

$$$$
51:0:0
     RDKit          3D

 90 99  0  0  1  0  0  0  0  0999 V2000
  -28.6320  -24.2300   18.5260 C   0  0  0  0  0  2  0  0  0  0  0  0
  -28.7850  -22.6660   18.4560 C   0  0  0  0  0  2  0  0  0  0  0  0
  -28.8600  -23.3570   20.7060 C   0  0  0  0  0  2  0  0  0  0  0  0
  -28.1570  -24.6380   19.9340 C   0  0  0  0  0  3  0  0  0  0  0  0
  -29.0170  -22.1260   19.8000 N   0  0  0  0  0  0  0  0  0  0  0  0
  -29.5470  -19.7070   18.9500 C   0  0  0  0  0  3  0  0  0  0  0  0
  -29.4600  -20.0060   21.2660 C   0  0  0  0  0  3  0  0  0  0  0  0
  -29.8400  -18.2820   19.1150 C   0  0  0  0  0  3  0  0  0  0  0  0
  -29.7360  -18.5870   21.4310 C   0  0  0  0  0  3  0  0  0  0  0  0
  -29.3360  -20.6740   20.0080 C   0  0  0  0  0  0  0  0  0  0  0  0
  -29.9500  -17.6070   20.3800 C   0  0  0  0  0  0  0  0  0  0  0  0
  -30.7440  -14.9970   19.9320 C   0  0  0  0  0  0  0  0  0  0  0  0
  -30.5380  -12.6770   18.8890 C   0  0  0  0  0  2  0  0  0  0  0  0
  -29.5130  -12.6690   17.7290 C   0  0  0  0  0  2  0  0  0  0  0  0
  -28.0880  -12.4260   18.2610 C   0  0  0  0  0  2  0  0  0  0  0  0
  -27.7740  -13.3010   19.5010 C   0  0  0  0  0  3  0  0  0  0  0  0
  -28.9100  -13.2680   20.5420 C   0  0  0  0  0  2  0  0  0  0  0  0
  -30.1410  -13.7300   19.8750 N   0  0  0  0  0  0  0  0  0  0  0  0
  -31.8190  -15.1230   19.3350 O   0  0  0  0  0  0  0  0  0  0  0  0
  -30.2260  -15.8000   22.1140 C   0  0  0  0  0  1  0  0  0  0  0  0
  -30.1840  -16.0920   20.6690 N   0  0  0  0  0  0  0  0  0  0  0  0
  -25.4770  -13.8360   20.4970 C   0  0  0  0  0  0  0  0  0  0  0  0
  -24.4430  -13.0410   20.9100 C   0  0  0  0  0  0  0  0  0  0  0  0
  -24.8880  -11.6940   20.7410 C   0  0  0  0  0  0  0  0  0  0  0  0
  -26.4820  -12.9730   20.0950 N   0  0  0  0  0  0  0  0  0  0  0  0
  -26.1420  -11.6740   20.3050 N   0  0  0  0  0  0  0  0  0  0  0  0
  -24.1670  -10.4250   20.9120 C   0  0  0  0  0  0  0  0  0  0  0  0
  -24.6390   -9.4170   21.7800 C   0  0  0  0  0  3  0  0  0  0  0  0
  -23.9170   -8.2140   21.9410 C   0  0  0  0  0  3  0  0  0  0  0  0
  -22.7070   -8.0120   21.2340 C   0  0  0  0  0  0  0  0  0  0  0  0
  -22.2530   -9.0110   20.3550 C   0  0  0  0  0  3  0  0  0  0  0  0
  -22.9760  -10.2050   20.1920 C   0  0  0  0  0  3  0  0  0  0  0  0
  -21.9520   -6.8670   21.3080 O   0  0  0  0  0  0  0  0  0  0  0  0
  -21.9120   -6.1040   22.4480 C   0  0  0  0  0  0  0  0  0  0  0  0
  -21.4960   -6.6370   23.6860 C   0  0  0  0  0  3  0  0  0  0  0  0
  -21.4010   -5.8010   24.8170 C   0  0  0  0  0  3  0  0  0  0  0  0
  -21.7130   -4.4320   24.7110 C   0  0  0  0  0  0  0  0  0  0  0  0
  -22.1230   -3.8990   23.4770 C   0  0  0  0  0  3  0  0  0  0  0  0
  -22.2190   -4.7320   22.3480 C   0  0  0  0  0  0  0  0  0  0  0  0
  -22.5940   -4.2070   21.1570 F   0  0  0  0  0  0  0  0  0  0  0  0
  -21.6150   -3.6280   25.7950 F   0  0  0  0  0  0  0  0  0  0  0  0
  -23.0850  -13.5060   21.3450 C   0  0  0  0  0  0  0  0  0  0  0  0
  -22.4440  -12.7700   22.2450 N   0  0  0  0  0  0  0  0  0  0  0  0
  -22.6030  -14.5560   20.9220 O   0  0  0  0  0  0  0  0  0  0  0  0
  -22.8490  -11.9190   22.6080 H   0  0  0  0  0  0  0  0  0  0  0  0
  -21.5350  -13.0610   22.5780 H   0  0  0  0  0  0  0  0  0  0  0  0
  -25.6400  -15.2150   20.4080 N   0  0  0  0  0  0  0  0  0  0  0  0
  -24.9010  -15.8630   20.6570 H   0  0  0  0  0  0  0  0  0  0  0  0
  -26.4700  -15.6770   20.0580 H   0  0  0  0  0  0  0  0  0  0  0  0
  -28.3120  -26.1700   20.2250 O   0  0  0  0  0  0  0  0  0  0  0  0
  -24.6540  -31.8310   23.1990 C   0  0  0  0  0  0  0  0  0  0  0  0
  -27.2460  -27.1420   20.1360 C   0  0  0  0  0  0  0  0  0  0  0  0
  -23.4560  -30.4420   21.5510 C   0  0  0  0  0  3  0  0  0  0  0  0
  -24.9080  -28.8810   20.1130 C   0  0  0  0  0  0  0  0  0  0  0  0
  -26.0090  -30.7150   21.3870 C   0  0  0  0  0  2  0  0  0  0  0  0
  -26.0850  -29.3270   20.7280 C   0  0  0  0  0  0  0  0  0  0  0  0
  -27.2510  -28.4720   20.7240 C   0  0  0  0  0  3  0  0  0  0  0  0
  -26.0480  -26.8060   19.4680 C   0  0  0  0  0  3  0  0  0  0  0  0
  -24.9030  -27.6340   19.4670 C   0  0  0  0  0  3  0  0  0  0  0  0
  -23.6790  -29.7730   20.1680 C   0  0  0  0  0  2  0  0  0  0  0  0
  -24.7250  -31.0190   22.1010 N   0  0  0  0  0  0  0  0  0  0  0  0
  -23.5670  -32.1090   23.7300 O   0  0  0  0  0  0  0  0  0  0  0  0
  -22.7800  -29.4270   22.5080 C   0  0  0  0  0  0  0  0  0  0  0  0
  -21.4510  -29.2640   22.3910 N   0  0  0  0  0  0  0  0  0  0  0  0
  -23.4560  -28.7900   23.3210 O   0  0  0  0  0  0  0  0  0  0  0  0
  -20.9620  -29.8310   21.7120 H   0  0  0  0  0  0  0  0  0  0  0  0
  -18.0680  -28.0790   22.9160 C   0  0  0  0  0  0  0  0  0  0  0  0
  -20.6310  -28.3220   23.1590 C   0  0  0  0  0  3  0  0  0  0  0  0
  -20.7170  -26.8960   22.5640 C   0  0  0  0  0  2  0  0  0  0  0  0
  -19.6020  -26.5950   21.5580 C   0  0  0  0  0  2  0  0  0  0  0  0
  -18.2290  -26.7390   22.2190 C   0  0  0  0  0  2  0  0  0  0  0  0
  -19.1960  -28.8290   23.3440 C   0  0  0  0  0  0  0  0  0  0  0  0
  -18.9900  -30.0840   23.9570 C   0  0  0  0  0  3  0  0  0  0  0  0
  -17.6900  -30.5880   24.1480 C   0  0  0  0  0  3  0  0  0  0  0  0
  -16.5770  -29.8360   23.7340 C   0  0  0  0  0  3  0  0  0  0  0  0
  -16.7660  -28.5830   23.1250 C   0  0  0  0  0  3  0  0  0  0  0  0
  -25.9310  -32.4660   23.8300 C   0  0  0  0  0  3  0  0  0  0  0  0
  -25.6220  -33.8660   24.1580 N   0  0  0  0  0  0  0  0  0  0  0  0
  -25.9380  -34.9190   23.3910 C   0  0  0  0  0  0  0  0  0  0  0  0
  -26.5870  -34.8130   22.3480 O   0  0  0  0  0  0  0  0  0  0  0  0
  -25.0440  -34.0220   24.9710 H   0  0  0  0  0  0  0  0  0  0  0  0
  -24.1890  -36.7030   23.0820 C   0  0  0  0  0  1  0  0  0  0  0  0
  -25.4580  -36.3090   23.8560 C   0  0  0  0  0  3  0  0  0  0  0  0
  -27.6130  -37.2140   24.6100 C   0  0  0  0  0  1  0  0  0  0  0  0
  -26.4800  -37.3670   23.7020 N   0  0  0  0  0  0  0  0  0  0  0  0
  -26.0740  -38.2870   23.8550 H   0  0  0  0  0  0  0  0  0  0  0  0
  -26.4350  -31.6990   25.1140 C   0  0  1  0  0  0  0  0  0  0  0  0
  -25.3340  -31.4740   26.1770 C   0  0  0  0  0  1  0  0  0  0  0  0
  -27.0130  -30.3140   24.7380 C   0  0  0  0  0  1  0  0  0  0  0  0
  -27.5860  -32.4900   25.7780 C   0  0  0  0  0  1  0  0  0  0  0  0
  1  4  1  0
  2  1  1  0
  2  5  1  0
  4 50  1  0
  4  3  1  0
  5 10  1  0
  5  3  1  0
  6  8  2  0
  6 10  1  0
  7  9  1  0
  8 11  1  0
 10  7  2  0
 11 21  1  0
 11  9  2  0
 12 21  1  0
 13 18  1  0
 14 15  1  0
 14 13  1  0
 16 15  1  0
 16 25  1  0
 16 17  1  0
 18 12  1  0
 18 17  1  0
 19 12  2  0
 21 20  1  0
 22 23  2  0
 23 42  1  0
 24 23  1  0
 24 27  1  0
 25 26  1  0
 25 22  1  0
 26 24  2  0
 27 28  1  0
 28 29  2  0
 30 33  1  0
 30 29  1  0
 31 30  2  0
 32 31  1  0
 32 27  2  0
 33 34  1  0
 34 35  1  0
 35 36  2  0
 37 36  1  0
 37 41  1  0
 38 37  2  0
 39 34  2  0
 39 38  1  0
 40 39  1  0
 42 43  1  0
 43 46  1  0
 43 45  1  0
 44 42  2  0
 47 22  1  0
 47 48  1  0
 49 47  1  0
 51 62  2  0
 52 50  1  0
 52 57  1  0
 53 61  1  0
 53 63  1  0
 54 60  1  0
 54 56  1  0
 55 61  1  0
 56 55  1  0
 57 56  2  0
 58 52  2  0
 59 58  1  0
 59 54  2  0
 60 53  1  0
 61 51  1  0
 63 65  2  0
 64 63  1  0
 66 64  1  0
 67 76  2  0
 67 72  1  0
 68 64  1  0
 68 72  1  0
 69 68  1  0
 70 71  1  0
 70 69  1  0
 71 67  1  0
 72 73  2  0
 73 74  1  0
 75 74  2  0
 76 75  1  0
 77 51  1  0
 77 78  1  0
 77 87  1  0
 78 81  1  0
 79 83  1  0
 79 78  1  0
 80 79  2  0
 83 82  1  0
 85 86  1  0
 85 83  1  0
 85 84  1  0
 87 90  1  1
 87 88  1  0
 89 87  1  0
M  ISO  4   4 101  12 100  21 100  50 101
M  END
>  <TORSDO>  (51) 
F 17

>  <SCORE>  (51) 
-13.727

>  <name>  (51) 
51

>  <ligand_id>  (51) 
51

>  <original_smiles>  (51) 
[H]c1c([H])c([H])c2c(c1[H])C([H])([H])C([H])([H])C([H])([H])C2([H])N([H])C(=O)C1([H])N(C(=O)C([H])(N([H])C(=O)C([H])(N([H])C([H])([H])[H])C([H])([H])[H])C(C([H])([H])[H])(C([H])([H])[H])C([H])([H])[H])C([H])([H])c2c([H])c(OC3([H])C([H])([H])N(c4c([H])c([H])c(N(C(=O)N5C([H])([H])C([H])([H])C([H])([H])C([H])(n6nc(-c7c([H])c([H])c(Oc8c([H])c([H])c(F)c([H])c8F)c([H])c7[H])c(C(=O)N([H])[H])c6N([H])[H])C5([H])[H])C([H])([H])[H])c([H])c4[H])C([H])([H])C3([H])[H])c([H])c([H])c2C1([H])[H]

>  <smiles>  (51) 
[H]c1c([H])c([H])c2c(c1[H])C([H])([H])C([H])([H])C([H])([H])C2([H])N([H])C(=O)C1([H])N(C(=O)C([H])(N([H])C(=O)C([H])(N([H])C([H])([H])[H])C([H])([H])[H])C(C([H])([H])[H])(C([H])([H])[H])C([H])([H])[H])C([H])([H])c2c([H])c(OC3([H])C([H])([H])N(c4c([H])c([H])c(N(C(=O)N5C([H])([H])C([H])([H])C([H])([H])C([H])(n6nc(-c7c([H])c([H])c(Oc8c([H])c([H])c(F)c([H])c8F)c([H])c7[H])c(C(=O)N([H])[H])c6N([H])[H])C5([H])[H])C([H])([H])[H])c([H])c4[H])C([H])([H])C3([H])[H])c([H])c([H])c2C1([H])[H]

$$$$
52:0:0
     RDKit          3D

 98107  0  0  1  0  0  0  0  0999 V2000
  -29.4650  -21.7750   20.3120 C   0  0  0  0  0  3  0  0  0  0  0  0
  -29.9670  -20.9310   18.0840 C   0  0  0  0  0  3  0  0  0  0  0  0
  -29.3750  -20.4520   20.7890 C   0  0  0  0  0  3  0  0  0  0  0  0
  -29.8840  -19.6060   18.5640 C   0  0  0  0  0  3  0  0  0  0  0  0
  -29.7490  -22.0260   18.9530 C   0  0  0  0  0  0  0  0  0  0  0  0
  -29.5820  -19.3540   19.9210 C   0  0  0  0  0  0  0  0  0  0  0  0
  -30.4540  -17.1180   20.3900 C   0  0  0  0  0  0  0  0  0  0  0  0
  -28.1750  -17.7390   21.1300 C   0  0  0  0  0  1  0  0  0  0  0  0
  -29.4310  -18.0210   20.4250 N   0  0  0  0  0  0  0  0  0  0  0  0
  -31.5220  -17.3640   19.8200 O   0  0  0  0  0  0  0  0  0  0  0  0
  -30.8810  -14.1940   19.2680 C   0  0  0  0  0  0  0  0  0  0  0  0
  -30.0810  -12.3470   17.8310 C   0  0  0  0  0  2  0  0  0  0  0  0
  -28.9140  -12.7590   16.9170 C   0  0  0  0  0  2  0  0  0  0  0  0
  -27.5690  -12.6090   17.6500 C   0  0  0  0  0  2  0  0  0  0  0  0
  -27.5790  -13.2900   19.0430 C   0  0  0  0  0  3  0  0  0  0  0  0
  -28.8210  -12.8580   19.8490 C   0  0  0  0  0  2  0  0  0  0  0  0
  -30.0290  -13.1580   19.0570 N   0  0  0  0  0  0  0  0  0  0  0  0
  -31.6850  -14.5880   18.4180 O   0  0  0  0  0  0  0  0  0  0  0  0
  -31.6660  -14.5680   22.8470 C   0  0  0  0  0  2  0  0  0  0  0  0
  -30.9780  -15.8980   22.5640 C   0  0  0  0  0  2  0  0  0  0  0  0
  -31.8730  -13.9120   21.4820 C   0  0  0  0  0  2  0  0  0  0  0  0
  -30.3290  -15.7750   21.1700 C   0  0  0  0  0  3  0  0  0  0  0  0
  -30.9670  -14.5890   20.5560 N   0  0  0  0  0  0  0  0  0  0  0  0
  -25.4120  -13.9070   20.2950 C   0  0  0  0  0  0  0  0  0  0  0  0
  -24.4110  -13.1390   20.8210 C   0  0  0  0  0  0  0  0  0  0  0  0
  -24.7840  -11.7820   20.5770 C   0  0  0  0  0  0  0  0  0  0  0  0
  -26.3410  -13.0190   19.7730 N   0  0  0  0  0  0  0  0  0  0  0  0
  -25.9760  -11.7310   19.9950 N   0  0  0  0  0  0  0  0  0  0  0  0
  -24.0510  -10.5310   20.8090 C   0  0  0  0  0  0  0  0  0  0  0  0
  -24.5170   -9.5660   21.7290 C   0  0  0  0  0  3  0  0  0  0  0  0
  -23.7870   -8.3780   21.9510 C   0  0  0  0  0  3  0  0  0  0  0  0
  -22.5770   -8.1480   21.2550 C   0  0  0  0  0  0  0  0  0  0  0  0
  -22.1300   -9.1010   20.3220 C   0  0  0  0  0  3  0  0  0  0  0  0
  -22.8590  -10.2810   20.0980 C   0  0  0  0  0  3  0  0  0  0  0  0
  -21.8120   -7.0150   21.3880 O   0  0  0  0  0  0  0  0  0  0  0  0
  -21.6870   -6.3680   22.5910 C   0  0  0  0  0  0  0  0  0  0  0  0
  -21.1850   -7.0200   23.7400 C   0  0  0  0  0  3  0  0  0  0  0  0
  -21.0070   -6.2990   24.9360 C   0  0  0  0  0  3  0  0  0  0  0  0
  -21.3190   -4.9280   24.9850 C   0  0  0  0  0  0  0  0  0  0  0  0
  -21.8130   -4.2760   23.8420 C   0  0  0  0  0  3  0  0  0  0  0  0
  -21.9930   -4.9950   22.6470 C   0  0  0  0  0  0  0  0  0  0  0  0
  -22.4490   -4.3570   21.5420 F   0  0  0  0  0  0  0  0  0  0  0  0
  -21.1410   -4.2330   26.1330 F   0  0  0  0  0  0  0  0  0  0  0  0
  -23.1250  -13.6310   21.4250 C   0  0  0  0  0  0  0  0  0  0  0  0
  -22.6050  -12.9240   22.4230 N   0  0  0  0  0  0  0  0  0  0  0  0
  -22.6010  -14.6790   21.0480 O   0  0  0  0  0  0  0  0  0  0  0  0
  -23.0470  -12.0790   22.7530 H   0  0  0  0  0  0  0  0  0  0  0  0
  -21.7520  -13.2350   22.8650 H   0  0  0  0  0  0  0  0  0  0  0  0
  -25.6000  -15.2830   20.1950 N   0  0  0  0  0  0  0  0  0  0  0  0
  -24.8840  -15.9380   20.4910 H   0  0  0  0  0  0  0  0  0  0  0  0
  -26.3340  -15.7160   19.6500 H   0  0  0  0  0  0  0  0  0  0  0  0
  -29.8040  -23.4660   18.4310 C   0  0  0  0  0  2  0  0  0  0  0  0
  -27.4680  -23.2450   17.6270 C   0  0  0  0  0  1  0  0  0  0  0  0
  -28.4640  -24.1100   18.3070 N   0  0  2  0  0  4  0  0  0  0  0  0
  -28.1260  -24.2360   19.2520 H   0  0  0  0  0  0  0  0  0  0  0  0
  -28.4970  -25.4720   17.6920 C   0  0  0  0  0  2  0  0  0  0  0  0
  -28.9530  -26.5870   18.6540 C   0  0  0  0  0  2  0  0  0  0  0  0
  -28.1680  -26.6210   19.8450 O   0  0  0  0  0  0  0  0  0  0  0  0
  -24.5080  -31.7630   23.1020 C   0  0  0  0  0  0  0  0  0  0  0  0
  -27.0320  -27.3940   19.8350 C   0  0  0  0  0  0  0  0  0  0  0  0
  -23.2500  -30.4320   21.4370 C   0  0  0  0  0  3  0  0  0  0  0  0
  -24.6540  -28.9150   19.9420 C   0  0  0  0  0  0  0  0  0  0  0  0
  -25.7750  -30.7580   21.2080 C   0  0  0  0  0  2  0  0  0  0  0  0
  -25.8290  -29.4070   20.5270 C   0  0  0  0  0  0  0  0  0  0  0  0
  -27.0180  -28.6500   20.4780 C   0  0  0  0  0  3  0  0  0  0  0  0
  -25.8400  -26.9000   19.2640 C   0  0  0  0  0  3  0  0  0  0  0  0
  -24.6550  -27.6590   19.3090 C   0  0  0  0  0  3  0  0  0  0  0  0
  -23.4240  -29.7890   20.0350 C   0  0  0  0  0  2  0  0  0  0  0  0
  -24.5300  -30.9970   21.9750 N   0  0  0  0  0  0  0  0  0  0  0  0
  -23.4420  -32.0380   23.6690 O   0  0  0  0  0  0  0  0  0  0  0  0
  -22.5940  -29.3970   22.3790 C   0  0  0  0  0  0  0  0  0  0  0  0
  -21.2620  -29.2580   22.2810 N   0  0  0  0  0  0  0  0  0  0  0  0
  -23.2800  -28.7240   23.1520 O   0  0  0  0  0  0  0  0  0  0  0  0
  -20.7720  -29.8510   21.6260 H   0  0  0  0  0  0  0  0  0  0  0  0
  -17.8630  -28.1840   22.8680 C   0  0  0  0  0  0  0  0  0  0  0  0
  -20.4390  -28.3180   23.0400 C   0  0  0  0  0  3  0  0  0  0  0  0
  -20.4540  -26.9150   22.3890 C   0  0  0  0  0  2  0  0  0  0  0  0
  -19.2960  -26.6920   21.4100 C   0  0  0  0  0  2  0  0  0  0  0  0
  -17.9510  -26.8640   22.1200 C   0  0  0  0  0  2  0  0  0  0  0  0
  -19.0320  -28.8740   23.2860 C   0  0  0  0  0  0  0  0  0  0  0  0
  -18.8950  -30.1140   23.9470 C   0  0  0  0  0  3  0  0  0  0  0  0
  -17.6230  -30.6620   24.1940 C   0  0  0  0  0  3  0  0  0  0  0  0
  -16.4690  -29.9670   23.7930 C   0  0  0  0  0  3  0  0  0  0  0  0
  -16.5900  -28.7300   23.1340 C   0  0  0  0  0  3  0  0  0  0  0  0
  -25.8190  -32.3510   23.7170 C   0  0  0  0  0  3  0  0  0  0  0  0
  -25.5400  -33.7370   24.1120 N   0  0  0  0  0  0  0  0  0  0  0  0
  -25.8580  -34.8140   23.3800 C   0  0  0  0  0  0  0  0  0  0  0  0
  -26.4910  -34.7420   22.3220 O   0  0  0  0  0  0  0  0  0  0  0  0
  -24.9790  -33.8670   24.9390 H   0  0  0  0  0  0  0  0  0  0  0  0
  -24.1460  -36.6400   23.1420 C   0  0  0  0  0  1  0  0  0  0  0  0
  -25.4010  -36.1880   23.9050 C   0  0  0  0  0  3  0  0  0  0  0  0
  -27.5640  -37.0160   24.7220 C   0  0  0  0  0  1  0  0  0  0  0  0
  -26.4450  -37.2320   23.8080 N   0  0  0  0  0  0  0  0  0  0  0  0
  -26.0540  -38.1500   23.9980 H   0  0  0  0  0  0  0  0  0  0  0  0
  -26.3570  -31.5180   24.9450 C   0  0  1  0  0  0  0  0  0  0  0  0
  -25.2800  -31.2230   26.0160 C   0  0  0  0  0  1  0  0  0  0  0  0
  -26.9380  -30.1640   24.4740 C   0  0  0  0  0  1  0  0  0  0  0  0
  -27.5130  -32.2830   25.6310 C   0  0  0  0  0  1  0  0  0  0  0  0
  1  3  1  0
  2  4  2  0
  2  5  1  0
  4  6  1  0
  5  1  2  0
  6  9  1  0
  6  3  2  0
  7  9  1  0
  9  8  1  0
 10  7  2  0
 11 23  1  0
 12 17  1  0
 13 14  1  0
 13 12  1  0
 15 14  1  0
 15 27  1  0
 15 16  1  0
 17 11  1  0
 17 16  1  0
 18 11  2  0
 20 19  1  0
 21 19  1  0
 22  7  1  0
 22 20  1  0
 23 22  1  0
 23 21  1  0
 24 25  2  0
 25 44  1  0
 26 29  1  0
 26 25  1  0
 27 28  1  0
 27 24  1  0
 28 26  2  0
 29 30  1  0
 30 31  2  0
 32 35  1  0
 32 31  1  0
 33 32  2  0
 34 33  1  0
 34 29  2  0
 35 36  1  0
 36 41  2  0
 36 37  1  0
 37 38  2  0
 38 39  1  0
 39 43  1  0
 40 39  2  0
 41 40  1  0
 42 41  1  0
 44 45  1  0
 45 47  1  0
 45 48  1  0
 46 44  2  0
 49 24  1  0
 49 50  1  0
 51 49  1  0
 52  5  1  0
 53 54  1  0
 54 52  1  0
 54 55  1  1
 56 54  1  0
 56 57  1  0
 57 58  1  0
 59 70  2  0
 60 58  1  0
 60 65  1  0
 61 69  1  0
 61 71  1  0
 62 68  1  0
 62 64  1  0
 63 69  1  0
 64 63  1  0
 65 64  2  0
 66 67  1  0
 66 60  2  0
 67 62  2  0
 68 61  1  0
 69 59  1  0
 71 73  2  0
 72 71  1  0
 74 72  1  0
 75 84  2  0
 75 80  1  0
 76 72  1  0
 76 80  1  0
 77 76  1  0
 78 79  1  0
 78 77  1  0
 79 75  1  0
 80 81  2  0
 81 82  1  0
 83 82  2  0
 84 83  1  0
 85 59  1  0
 85 86  1  0
 85 95  1  0
 86 89  1  0
 87 91  1  0
 87 86  1  0
 88 87  2  0
 91 90  1  0
 93 91  1  0
 93 94  1  0
 93 92  1  0
 95 98  1  1
 95 96  1  0
 97 95  1  0
M  ISO  4  11 100  23 100  57 101  58 101
M  END
>  <TORSDO>  (52) 
F 21

>  <SCORE>  (52) 
-7.991

>  <name>  (52) 
52

>  <ligand_id>  (52) 
52

>  <original_smiles>  (52) 
[H]c1c([H])c([H])c2c(c1[H])C([H])([H])C([H])([H])C([H])([H])C2([H])N([H])C(=O)C1([H])N(C(=O)C([H])(N([H])C(=O)C([H])(N([H])C([H])([H])[H])C([H])([H])[H])C(C([H])([H])[H])(C([H])([H])[H])C([H])([H])[H])C([H])([H])c2c([H])c(OC([H])([H])C([H])([H])[N+]([H])(C([H])([H])[H])C([H])([H])c3c([H])c([H])c(N(C(=O)C4([H])N(C(=O)N5C([H])([H])C([H])([H])C([H])([H])C([H])(n6nc(-c7c([H])c([H])c(Oc8c([H])c([H])c(F)c([H])c8F)c([H])c7[H])c(C(=O)N([H])[H])c6N([H])[H])C5([H])[H])C([H])([H])C([H])([H])C4([H])[H])C([H])([H])[H])c([H])c3[H])c([H])c([H])c2C1([H])[H]

>  <smiles>  (52) 
[H]c1c([H])c([H])c2c(c1[H])C([H])([H])C([H])([H])C([H])([H])C2([H])N([H])C(=O)C1([H])N(C(=O)C([H])(N([H])C(=O)C([H])(N([H])C([H])([H])[H])C([H])([H])[H])C(C([H])([H])[H])(C([H])([H])[H])C([H])([H])[H])C([H])([H])c2c([H])c(OC([H])([H])C([H])([H])[N+]([H])(C([H])([H])[H])C([H])([H])c3c([H])c([H])c(N(C(=O)C4([H])N(C(=O)N5C([H])([H])C([H])([H])C([H])([H])C([H])(n6nc(-c7c([H])c([H])c(Oc8c([H])c([H])c(F)c([H])c8F)c([H])c7[H])c(C(=O)N([H])[H])c6N([H])[H])C5([H])[H])C([H])([H])C([H])([H])C4([H])[H])C([H])([H])[H])c([H])c3[H])c([H])c([H])c2C1([H])[H]

$$$$
53:0:0
     RDKit          3D

 90 98  0  0  1  0  0  0  0  0999 V2000
  -31.5130  -18.1510   19.7420 C   0  0  0  0  0  3  0  0  0  0  0  0
  -31.9220  -19.4920   19.5830 C   0  0  0  0  0  3  0  0  0  0  0  0
  -29.3460  -19.0270   20.3450 C   0  0  0  0  0  3  0  0  0  0  0  0
  -30.2160  -17.8060   20.1760 C   0  0  0  0  0  0  0  0  0  0  0  0
  -29.7110  -20.4790   20.1560 C   0  0  0  0  0  0  0  0  0  0  0  0
  -31.0900  -20.6120   19.8040 C   0  0  0  0  0  0  0  0  0  0  0  0
  -31.8870  -22.1380   19.6280 Cl  0  0  0  0  0  0  0  0  0  0  0  0
  -30.5560  -15.0600   20.0690 C   0  0  0  0  0  0  0  0  0  0  0  0
  -30.3310  -12.7730   18.9400 C   0  0  0  0  0  2  0  0  0  0  0  0
  -29.3080  -12.7900   17.7750 C   0  0  0  0  0  2  0  0  0  0  0  0
  -27.8720  -12.5610   18.2890 C   0  0  0  0  0  2  0  0  0  0  0  0
  -27.5670  -13.3950   19.5610 C   0  0  0  0  0  3  0  0  0  0  0  0
  -28.7010  -13.2610   20.5950 C   0  0  0  0  0  2  0  0  0  0  0  0
  -29.9200  -13.8040   19.9550 N   0  0  0  0  0  0  0  0  0  0  0  0
  -31.7130  -15.0710   19.6260 O   0  0  0  0  0  0  0  0  0  0  0  0
  -28.9700  -16.1940   21.6060 C   0  0  0  0  0  1  0  0  0  0  0  0
  -29.9010  -16.3040   20.4790 N   0  0  0  0  0  0  0  0  0  0  0  0
  -25.2350  -13.9620   20.4540 C   0  0  0  0  0  0  0  0  0  0  0  0
  -24.1910  -13.1820   20.8680 C   0  0  0  0  0  0  0  0  0  0  0  0
  -24.6470  -11.8310   20.7750 C   0  0  0  0  0  0  0  0  0  0  0  0
  -26.2580  -13.0870   20.1260 N   0  0  0  0  0  0  0  0  0  0  0  0
  -25.9160  -11.7980   20.3820 N   0  0  0  0  0  0  0  0  0  0  0  0
  -23.9270  -10.5670   20.9790 C   0  0  0  0  0  0  0  0  0  0  0  0
  -24.3940   -9.5880   21.8850 C   0  0  0  0  0  3  0  0  0  0  0  0
  -23.6710   -8.3910   22.0790 C   0  0  0  0  0  3  0  0  0  0  0  0
  -22.4680   -8.1640   21.3680 C   0  0  0  0  0  0  0  0  0  0  0  0
  -22.0180   -9.1320   20.4540 C   0  0  0  0  0  3  0  0  0  0  0  0
  -22.7430  -10.3210   20.2580 C   0  0  0  0  0  3  0  0  0  0  0  0
  -21.7150   -7.0190   21.4730 O   0  0  0  0  0  0  0  0  0  0  0  0
  -21.6910   -6.2770   22.6260 C   0  0  0  0  0  0  0  0  0  0  0  0
  -21.2730   -6.8280   23.8570 C   0  0  0  0  0  3  0  0  0  0  0  0
  -21.1940   -6.0130   25.0040 C   0  0  0  0  0  3  0  0  0  0  0  0
  -21.5250   -4.6460   24.9200 C   0  0  0  0  0  0  0  0  0  0  0  0
  -21.9380   -4.0950   23.6950 C   0  0  0  0  0  3  0  0  0  0  0  0
  -22.0170   -4.9080   22.5510 C   0  0  0  0  0  0  0  0  0  0  0  0
  -22.3950   -4.3670   21.3670 F   0  0  0  0  0  0  0  0  0  0  0  0
  -21.4430   -3.8620   26.0200 F   0  0  0  0  0  0  0  0  0  0  0  0
  -22.8160  -13.6580   21.2350 C   0  0  0  0  0  0  0  0  0  0  0  0
  -22.1390  -12.9480   22.1310 N   0  0  0  0  0  0  0  0  0  0  0  0
  -22.3520  -14.6980   20.7660 O   0  0  0  0  0  0  0  0  0  0  0  0
  -22.5290  -12.1090   22.5340 H   0  0  0  0  0  0  0  0  0  0  0  0
  -21.2180  -13.2460   22.4210 H   0  0  0  0  0  0  0  0  0  0  0  0
  -25.3890  -15.3380   20.3080 N   0  0  0  0  0  0  0  0  0  0  0  0
  -24.6380  -15.9850   20.5230 H   0  0  0  0  0  0  0  0  0  0  0  0
  -26.2160  -15.7920   19.9450 H   0  0  0  0  0  0  0  0  0  0  0  0
  -27.4100  -21.3450   20.4250 C   0  0  0  0  0  1  0  0  0  0  0  0
  -28.8190  -21.7030   20.2850 N   0  0  0  0  0  0  0  0  0  0  0  0
  -29.1310  -23.2630   20.1840 C   0  0  0  0  0  3  0  0  0  0  0  0
  -28.0160  -24.5630   20.2260 C   0  0  0  0  0  3  0  0  0  0  0  0
  -28.2880  -26.1190   20.2080 O   0  0  0  0  0  0  0  0  0  0  0  0
  -24.6680  -31.8430   23.2270 C   0  0  0  0  0  0  0  0  0  0  0  0
  -27.2360  -27.1210   20.1630 C   0  0  0  0  0  0  0  0  0  0  0  0
  -23.4690  -30.4640   21.5760 C   0  0  0  0  0  3  0  0  0  0  0  0
  -24.9160  -28.8990   20.1370 C   0  0  0  0  0  0  0  0  0  0  0  0
  -26.0260  -30.7210   21.4170 C   0  0  0  0  0  2  0  0  0  0  0  0
  -26.0980  -29.3300   20.7510 C   0  0  0  0  0  0  0  0  0  0  0  0
  -27.2580  -28.4620   20.7420 C   0  0  0  0  0  3  0  0  0  0  0  0
  -26.0240  -26.8020   19.5100 C   0  0  0  0  0  3  0  0  0  0  0  0
  -24.8940  -27.6500   19.4990 C   0  0  0  0  0  3  0  0  0  0  0  0
  -23.6930  -29.8040   20.1910 C   0  0  0  0  0  2  0  0  0  0  0  0
  -24.7410  -31.0300   22.1290 N   0  0  0  0  0  0  0  0  0  0  0  0
  -23.5820  -32.1250   23.7570 O   0  0  0  0  0  0  0  0  0  0  0  0
  -22.7880  -29.4480   22.5280 C   0  0  0  0  0  0  0  0  0  0  0  0
  -21.4590  -29.2830   22.4040 N   0  0  0  0  0  0  0  0  0  0  0  0
  -23.4590  -28.8120   23.3450 O   0  0  0  0  0  0  0  0  0  0  0  0
  -20.9720  -29.8470   21.7210 H   0  0  0  0  0  0  0  0  0  0  0  0
  -18.0720  -28.1000   22.9180 C   0  0  0  0  0  0  0  0  0  0  0  0
  -20.6350  -28.3410   23.1680 C   0  0  0  0  0  3  0  0  0  0  0  0
  -20.7230  -26.9170   22.5710 C   0  0  0  0  0  2  0  0  0  0  0  0
  -19.6100  -26.6170   21.5610 C   0  0  0  0  0  2  0  0  0  0  0  0
  -18.2350  -26.7600   22.2180 C   0  0  0  0  0  2  0  0  0  0  0  0
  -19.2000  -28.8480   23.3500 C   0  0  0  0  0  0  0  0  0  0  0  0
  -18.9920  -30.1020   23.9660 C   0  0  0  0  0  3  0  0  0  0  0  0
  -17.6910  -30.6060   24.1530 C   0  0  0  0  0  3  0  0  0  0  0  0
  -16.5790  -29.8540   23.7360 C   0  0  0  0  0  3  0  0  0  0  0  0
  -16.7710  -28.6030   23.1230 C   0  0  0  0  0  3  0  0  0  0  0  0
  -25.9430  -32.4760   23.8610 C   0  0  0  0  0  3  0  0  0  0  0  0
  -26.4470  -31.7020   25.1420 C   0  0  1  0  0  0  0  0  0  0  0  0
  -25.3470  -31.4670   26.2040 C   0  0  0  0  0  1  0  0  0  0  0  0
  -27.0290  -30.3210   24.7570 C   0  0  0  0  0  1  0  0  0  0  0  0
  -27.5940  -32.4920   25.8140 C   0  0  0  0  0  1  0  0  0  0  0  0
  -25.6310  -33.8740   24.2010 N   0  0  0  0  0  0  0  0  0  0  0  0
  -25.9480  -34.9340   23.4450 C   0  0  0  0  0  0  0  0  0  0  0  0
  -26.6000  -34.8370   22.4020 O   0  0  0  0  0  0  0  0  0  0  0  0
  -25.0500  -34.0210   25.0130 H   0  0  0  0  0  0  0  0  0  0  0  0
  -24.2010  -36.7220   23.1460 C   0  0  0  0  0  1  0  0  0  0  0  0
  -25.4670  -36.3200   23.9200 C   0  0  0  0  0  3  0  0  0  0  0  0
  -27.6170  -37.2200   24.6960 C   0  0  0  0  0  1  0  0  0  0  0  0
  -26.4910  -37.3790   23.7790 N   0  0  0  0  0  0  0  0  0  0  0  0
  -26.0830  -38.2970   23.9340 H   0  0  0  0  0  0  0  0  0  0  0  0
  1  4  1  0
  2  1  2  0
  2  6  1  0
  4  3  2  0
  4 17  1  0
  5 47  1  0
  5  3  1  0
  6  5  2  0
  7  6  1  0
  8 17  1  0
  9 14  1  0
 10 11  1  0
 10  9  1  0
 12 11  1  0
 12 21  1  0
 12 13  1  0
 14  8  1  0
 14 13  1  0
 15  8  2  0
 17 16  1  0
 18 19  2  0
 19 38  1  0
 20 19  1  0
 20 23  1  0
 21 22  1  0
 21 18  1  0
 22 20  2  0
 23 24  1  0
 24 25  2  0
 26 29  1  0
 26 25  1  0
 27 26  2  0
 28 27  1  0
 28 23  2  0
 29 30  1  0
 30 31  1  0
 31 32  2  0
 33 32  1  0
 33 37  1  0
 34 33  2  0
 35 30  2  0
 35 34  1  0
 36 35  1  0
 38 39  1  0
 39 42  1  0
 39 41  1  0
 40 38  2  0
 43 18  1  0
 43 44  1  0
 45 43  1  0
 47 46  1  0
 48 49  2  0
 48 47  1  0
 50 49  1  0
 51 62  2  0
 52 50  1  0
 52 57  1  0
 53 61  1  0
 53 63  1  0
 54 60  1  0
 54 56  1  0
 55 61  1  0
 56 55  1  0
 57 56  2  0
 58 52  2  0
 59 58  1  0
 59 54  2  0
 60 53  1  0
 61 51  1  0
 63 65  2  0
 64 63  1  0
 66 64  1  0
 67 76  2  0
 67 72  1  0
 68 64  1  0
 68 72  1  0
 69 68  1  0
 70 71  1  0
 70 69  1  0
 71 67  1  0
 72 73  2  0
 73 74  1  0
 75 74  2  0
 76 75  1  0
 77 51  1  0
 77 82  1  0
 77 78  1  0
 78 81  1  1
 78 79  1  0
 80 78  1  0
 82 85  1  0
 83 87  1  0
 83 82  1  0
 84 83  2  0
 87 86  1  0
 89 87  1  0
 89 90  1  0
 89 88  1  0
M  ISO  4   8 100  17 100  49 101  50 101
M  END
>  <TORSDO>  (53) 
F 19

>  <SCORE>  (53) 
-14.126

>  <name>  (53) 
53

>  <ligand_id>  (53) 
53

>  <original_smiles>  (53) 
[H]c1c([H])c([H])c2c(c1[H])C([H])([H])C([H])([H])C([H])([H])C2([H])N([H])C(=O)C1([H])N(C(=O)C([H])(N([H])C(=O)C([H])(N([H])C([H])([H])[H])C([H])([H])[H])C(C([H])([H])[H])(C([H])([H])[H])C([H])([H])[H])C([H])([H])c2c([H])c(OC([H])([H])C([H])([H])N(c3c([H])c(N(C(=O)N4C([H])([H])C([H])([H])C([H])([H])C([H])(n5nc(-c6c([H])c([H])c(Oc7c([H])c([H])c(F)c([H])c7F)c([H])c6[H])c(C(=O)N([H])[H])c5N([H])[H])C4([H])[H])C([H])([H])[H])c([H])c([H])c3Cl)C([H])([H])[H])c([H])c([H])c2C1([H])[H]

>  <smiles>  (53) 
[H]c1c([H])c([H])c2c(c1[H])C([H])([H])C([H])([H])C([H])([H])C2([H])N([H])C(=O)C1([H])N(C(=O)C([H])(N([H])C(=O)C([H])(N([H])C([H])([H])[H])C([H])([H])[H])C(C([H])([H])[H])(C([H])([H])[H])C([H])([H])[H])C([H])([H])c2c([H])c(OC([H])([H])C([H])([H])N(c3c([H])c(N(C(=O)N4C([H])([H])C([H])([H])C([H])([H])C([H])(n5nc(-c6c([H])c([H])c(Oc7c([H])c([H])c(F)c([H])c7F)c([H])c6[H])c(C(=O)N([H])[H])c5N([H])[H])C4([H])[H])C([H])([H])[H])c([H])c([H])c3Cl)C([H])([H])[H])c([H])c([H])c2C1([H])[H]

$$$$
54:0:0
     RDKit          3D

 90 98  0  0  1  0  0  0  0  0999 V2000
  -30.2620  -20.1050   20.9050 C   0  0  0  0  0  3  0  0  0  0  0  0
  -30.5800  -18.6720   20.9040 C   0  0  0  0  0  3  0  0  0  0  0  0
  -28.1830  -19.6250   19.9220 C   0  0  0  0  0  3  0  0  0  0  0  0
  -29.0370  -20.6650   20.3920 C   0  0  0  0  0  0  0  0  0  0  0  0
  -29.7160  -17.6380   20.3830 C   0  0  0  0  0  0  0  0  0  0  0  0
  -28.4900  -18.2180   19.9000 C   0  0  0  0  0  0  0  0  0  0  0  0
  -27.2850  -17.2190   19.1710 Cl  0  0  0  0  0  0  0  0  0  0  0  0
  -30.6980  -15.0800   20.7270 C   0  0  0  0  0  0  0  0  0  0  0  0
  -30.6300  -12.6930   19.8870 C   0  0  0  0  0  2  0  0  0  0  0  0
  -29.7730  -12.5520   18.6080 C   0  0  0  0  0  2  0  0  0  0  0  0
  -28.2760  -12.4110   18.9490 C   0  0  0  0  0  2  0  0  0  0  0  0
  -27.7950  -13.3800   20.0630 C   0  0  0  0  0  3  0  0  0  0  0  0
  -28.7860  -13.4510   21.2410 C   0  0  0  0  0  2  0  0  0  0  0  0
  -30.0850  -13.8300   20.6720 N   0  0  0  0  0  0  0  0  0  0  0  0
  -31.9340  -15.0930   20.7700 O   0  0  0  0  0  0  0  0  0  0  0  0
  -30.2050  -16.0060   18.6090 C   0  0  0  0  0  1  0  0  0  0  0  0
  -30.0510  -16.1680   20.0710 N   0  0  0  0  0  0  0  0  0  0  0  0
  -25.3750  -13.9620   20.6730 C   0  0  0  0  0  0  0  0  0  0  0  0
  -24.2880  -13.1910   20.9710 C   0  0  0  0  0  0  0  0  0  0  0  0
  -24.7530  -11.8410   20.9720 C   0  0  0  0  0  0  0  0  0  0  0  0
  -26.4310  -13.0860   20.4930 N   0  0  0  0  0  0  0  0  0  0  0  0
  -26.0620  -11.8030   20.7450 N   0  0  0  0  0  0  0  0  0  0  0  0
  -24.0130  -10.5820   21.1150 C   0  0  0  0  0  0  0  0  0  0  0  0
  -24.3870   -9.6130   22.0710 C   0  0  0  0  0  3  0  0  0  0  0  0
  -23.6460   -8.4190   22.2050 C   0  0  0  0  0  3  0  0  0  0  0  0
  -22.5180   -8.1870   21.3820 C   0  0  0  0  0  0  0  0  0  0  0  0
  -22.1650   -9.1460   20.4160 C   0  0  0  0  0  3  0  0  0  0  0  0
  -22.9070  -10.3310   20.2800 C   0  0  0  0  0  3  0  0  0  0  0  0
  -21.7550   -7.0460   21.4250 O   0  0  0  0  0  0  0  0  0  0  0  0
  -21.6380   -6.3010   22.5710 C   0  0  0  0  0  0  0  0  0  0  0  0
  -21.1060   -6.8430   23.7610 C   0  0  0  0  0  3  0  0  0  0  0  0
  -20.9400   -6.0230   24.8960 C   0  0  0  0  0  3  0  0  0  0  0  0
  -21.2940   -4.6620   24.8390 C   0  0  0  0  0  0  0  0  0  0  0  0
  -21.8190   -4.1190   23.6530 C   0  0  0  0  0  3  0  0  0  0  0  0
  -21.9880   -4.9360   22.5210 C   0  0  0  0  0  0  0  0  0  0  0  0
  -22.4740   -4.4040   21.3740 F   0  0  0  0  0  0  0  0  0  0  0  0
  -21.1280   -3.8720   25.9250 F   0  0  0  0  0  0  0  0  0  0  0  0
  -22.8770  -13.6730   21.1430 C   0  0  0  0  0  0  0  0  0  0  0  0
  -22.0880  -12.9780   21.9540 N   0  0  0  0  0  0  0  0  0  0  0  0
  -22.4810  -14.7020   20.5950 O   0  0  0  0  0  0  0  0  0  0  0  0
  -22.4200  -12.1460   22.4200 H   0  0  0  0  0  0  0  0  0  0  0  0
  -21.1370  -13.2820   22.1120 H   0  0  0  0  0  0  0  0  0  0  0  0
  -25.5390  -15.3300   20.5180 N   0  0  0  0  0  0  0  0  0  0  0  0
  -24.7530  -15.9690   20.5560 H   0  0  0  0  0  0  0  0  0  0  0  0
  -26.3840  -15.7720   20.1710 H   0  0  0  0  0  0  0  0  0  0  0  0
  -28.5500  -22.0630   20.2790 N   0  0  0  0  0  0  0  0  0  0  0  0
  -27.6140  -22.0990   19.8800 H   0  0  0  0  0  0  0  0  0  0  0  0
  -29.0540  -23.5060   20.5340 C   0  0  0  0  0  3  0  0  0  0  0  0
  -28.0400  -24.7990   20.1900 C   0  0  0  0  0  3  0  0  0  0  0  0
  -28.2910  -26.3150   20.3550 O   0  0  0  0  0  0  0  0  0  0  0  0
  -24.5340  -31.9460   23.2170 C   0  0  0  0  0  0  0  0  0  0  0  0
  -27.2120  -27.2630   20.2610 C   0  0  0  0  0  0  0  0  0  0  0  0
  -23.3680  -30.5170   21.5810 C   0  0  0  0  0  3  0  0  0  0  0  0
  -24.8530  -28.9520   20.1880 C   0  0  0  0  0  0  0  0  0  0  0  0
  -25.9180  -30.8230   21.4360 C   0  0  0  0  0  2  0  0  0  0  0  0
  -26.0180  -29.4290   20.8010 C   0  0  0  0  0  0  0  0  0  0  0  0
  -27.1990  -28.5990   20.8210 C   0  0  0  0  0  3  0  0  0  0  0  0
  -26.0190  -26.8810   19.6070 C   0  0  0  0  0  3  0  0  0  0  0  0
  -24.8640  -27.6910   19.5760 C   0  0  0  0  0  3  0  0  0  0  0  0
  -23.6110  -29.8290   20.2120 C   0  0  0  0  0  2  0  0  0  0  0  0
  -24.6250  -31.1170   22.1340 N   0  0  0  0  0  0  0  0  0  0  0  0
  -23.4390  -32.2220   23.7310 O   0  0  0  0  0  0  0  0  0  0  0  0
  -22.6950  -29.5100   22.5470 C   0  0  0  0  0  0  0  0  0  0  0  0
  -21.3670  -29.3380   22.4230 N   0  0  0  0  0  0  0  0  0  0  0  0
  -23.3690  -28.8870   23.3710 O   0  0  0  0  0  0  0  0  0  0  0  0
  -20.8790  -29.8910   21.7320 H   0  0  0  0  0  0  0  0  0  0  0  0
  -17.9850  -28.1520   22.9460 C   0  0  0  0  0  0  0  0  0  0  0  0
  -20.5460  -28.4040   23.1980 C   0  0  0  0  0  3  0  0  0  0  0  0
  -20.6390  -26.9710   22.6240 C   0  0  0  0  0  2  0  0  0  0  0  0
  -19.5300  -26.6530   21.6150 C   0  0  0  0  0  2  0  0  0  0  0  0
  -18.1530  -26.8020   22.2670 C   0  0  0  0  0  2  0  0  0  0  0  0
  -19.1090  -28.9100   23.3680 C   0  0  0  0  0  0  0  0  0  0  0  0
  -18.8970  -30.1720   23.9650 C   0  0  0  0  0  3  0  0  0  0  0  0
  -17.5940  -30.6760   24.1410 C   0  0  0  0  0  3  0  0  0  0  0  0
  -16.4850  -29.9150   23.7330 C   0  0  0  0  0  3  0  0  0  0  0  0
  -16.6820  -28.6540   23.1410 C   0  0  0  0  0  3  0  0  0  0  0  0
  -25.7980  -32.6040   23.8490 C   0  0  0  0  0  3  0  0  0  0  0  0
  -26.2990  -31.8610   25.1490 C   0  0  1  0  0  0  0  0  0  0  0  0
  -25.1900  -31.6310   26.2020 C   0  0  0  0  0  1  0  0  0  0  0  0
  -26.9030  -30.4820   24.7950 C   0  0  0  0  0  1  0  0  0  0  0  0
  -27.4310  -32.6780   25.8160 C   0  0  0  0  0  1  0  0  0  0  0  0
  -25.4680  -34.0050   24.1550 N   0  0  0  0  0  0  0  0  0  0  0  0
  -25.8170  -35.0540   23.4000 C   0  0  0  0  0  0  0  0  0  0  0  0
  -26.5190  -34.9470   22.3900 O   0  0  0  0  0  0  0  0  0  0  0  0
  -24.8480  -34.1620   24.9370 H   0  0  0  0  0  0  0  0  0  0  0  0
  -24.1120  -36.8530   22.9600 C   0  0  0  0  0  1  0  0  0  0  0  0
  -25.3100  -36.4450   23.8330 C   0  0  0  0  0  3  0  0  0  0  0  0
  -27.3950  -37.3360   24.7800 C   0  0  0  0  0  1  0  0  0  0  0  0
  -26.3500  -37.4960   23.7720 N   0  0  0  0  0  0  0  0  0  0  0  0
  -25.9360  -38.4180   23.8860 H   0  0  0  0  0  0  0  0  0  0  0  0
  2  1  1  0
  3  4  1  0
  4  1  2  0
  5  2  2  0
  6  3  2  0
  6  5  1  0
  7  6  1  0
  8 15  2  0
  9 14  1  0
 10 11  1  0
 10  9  1  0
 12 11  1  0
 12 21  1  0
 12 13  1  0
 14  8  1  0
 14 13  1  0
 16 17  1  0
 17  5  1  0
 17  8  1  0
 18 19  2  0
 19 20  1  0
 19 38  1  0
 20 23  1  0
 21 18  1  0
 21 22  1  0
 22 20  2  0
 23 24  1  0
 24 25  2  0
 26 29  1  0
 26 25  1  0
 27 26  2  0
 28 27  1  0
 28 23  2  0
 29 30  1  0
 30 31  1  0
 31 32  2  0
 33 32  1  0
 33 37  1  0
 34 33  2  0
 35 30  2  0
 35 34  1  0
 36 35  1  0
 38 39  1  0
 39 42  1  0
 39 41  1  0
 40 38  2  0
 43 44  1  0
 43 18  1  0
 45 43  1  0
 46  4  1  0
 46 48  1  0
 47 46  1  0
 49 50  1  0
 49 48  2  0
 51 62  2  0
 52 50  1  0
 52 57  1  0
 53 61  1  0
 53 63  1  0
 54 60  1  0
 54 56  1  0
 55 61  1  0
 56 57  2  0
 56 55  1  0
 58 52  2  0
 59 58  1  0
 59 54  2  0
 60 53  1  0
 61 51  1  0
 63 65  2  0
 64 63  1  0
 66 64  1  0
 67 76  2  0
 67 72  1  0
 68 64  1  0
 68 72  1  0
 69 68  1  0
 70 71  1  0
 70 69  1  0
 71 67  1  0
 72 73  2  0
 73 74  1  0
 75 74  2  0
 76 75  1  0
 77 51  1  0
 77 82  1  0
 77 78  1  0
 78 81  1  1
 78 79  1  0
 80 78  1  0
 82 85  1  0
 83 87  1  0
 83 82  1  0
 84 83  2  0
 87 86  1  0
 89 87  1  0
 89 90  1  0
 89 88  1  0
M  ISO  4   8 100  17 100  49 101  50 101
M  END
>  <TORSDO>  (54) 
F 19

>  <SCORE>  (54) 
-14.095

>  <name>  (54) 
54

>  <ligand_id>  (54) 
54

>  <original_smiles>  (54) 
[H]c1c([H])c([H])c2c(c1[H])C([H])([H])C([H])([H])C([H])([H])C2([H])N([H])C(=O)C1([H])N(C(=O)C([H])(N([H])C(=O)C([H])(N([H])C([H])([H])[H])C([H])([H])[H])C(C([H])([H])[H])(C([H])([H])[H])C([H])([H])[H])C([H])([H])c2c([H])c(OC([H])([H])C([H])([H])N([H])c3c([H])c([H])c(N(C(=O)N4C([H])([H])C([H])([H])C([H])([H])C([H])(n5nc(-c6c([H])c([H])c(Oc7c([H])c([H])c(F)c([H])c7F)c([H])c6[H])c(C(=O)N([H])[H])c5N([H])[H])C4([H])[H])C([H])([H])[H])c(Cl)c3[H])c([H])c([H])c2C1([H])[H]

>  <smiles>  (54) 
[H]c1c([H])c([H])c2c(c1[H])C([H])([H])C([H])([H])C([H])([H])C2([H])N([H])C(=O)C1([H])N(C(=O)C([H])(N([H])C(=O)C([H])(N([H])C([H])([H])[H])C([H])([H])[H])C(C([H])([H])[H])(C([H])([H])[H])C([H])([H])[H])C([H])([H])c2c([H])c(OC([H])([H])C([H])([H])N([H])c3c([H])c([H])c(N(C(=O)N4C([H])([H])C([H])([H])C([H])([H])C([H])(n5nc(-c6c([H])c([H])c(Oc7c([H])c([H])c(F)c([H])c7F)c([H])c6[H])c(C(=O)N([H])[H])c5N([H])[H])C4([H])[H])C([H])([H])[H])c(Cl)c3[H])c([H])c([H])c2C1([H])[H]

$$$$
55:0:0
     RDKit          3D

 89 97  0  0  1  0  0  0  0  0999 V2000
  -30.3430  -23.3470   18.3460 C   0  0  0  0  0  1  0  0  0  0  0  0
  -29.5430  -22.9310   19.5020 N   0  0  0  0  0  0  0  0  0  0  0  0
  -29.2420  -19.5340   21.2820 C   0  0  0  0  0  3  0  0  0  0  0  0
  -29.9760  -19.1780   19.0210 C   0  0  0  0  0  3  0  0  0  0  0  0
  -29.1900  -20.9450   21.0460 C   0  0  0  0  0  3  0  0  0  0  0  0
  -29.9190  -20.5750   18.7890 C   0  0  0  0  0  3  0  0  0  0  0  0
  -29.6500  -18.6170   20.2740 C   0  0  0  0  0  0  0  0  0  0  0  0
  -29.5430  -21.5170   19.7920 C   0  0  0  0  0  0  0  0  0  0  0  0
  -29.7850  -17.1470   20.4810 C   0  0  0  0  0  0  0  0  0  0  0  0
  -30.0620  -15.9390   20.4930 C   0  0  0  0  0  0  0  0  0  0  0  0
  -30.7220  -14.6310   20.2420 C   0  0  0  0  0  0  0  0  0  0  0  0
  -30.3880  -12.4240   19.1900 C   0  0  0  0  0  2  0  0  0  0  0  0
  -29.4440  -12.5880   17.9790 C   0  0  0  0  0  2  0  0  0  0  0  0
  -27.9790  -12.4390   18.4270 C   0  0  0  0  0  2  0  0  0  0  0  0
  -27.6420  -13.3070   19.6680 C   0  0  0  0  0  3  0  0  0  0  0  0
  -28.7110  -13.1740   20.7730 C   0  0  0  0  0  2  0  0  0  0  0  0
  -30.0200  -13.4590   20.1760 N   0  0  0  0  0  0  0  0  0  0  0  0
  -31.8960  -14.6900   19.8710 O   0  0  0  0  0  0  0  0  0  0  0  0
  -25.2630  -13.9040   20.4270 C   0  0  0  0  0  0  0  0  0  0  0  0
  -24.2010  -13.1300   20.8070 C   0  0  0  0  0  0  0  0  0  0  0  0
  -24.6620  -11.7780   20.7690 C   0  0  0  0  0  0  0  0  0  0  0  0
  -26.3020  -13.0240   20.1750 N   0  0  0  0  0  0  0  0  0  0  0  0
  -25.9480  -11.7400   20.4450 N   0  0  0  0  0  0  0  0  0  0  0  0
  -23.9370  -10.5150   20.9670 C   0  0  0  0  0  0  0  0  0  0  0  0
  -24.3630   -9.5610   21.9170 C   0  0  0  0  0  3  0  0  0  0  0  0
  -23.6390   -8.3630   22.1020 C   0  0  0  0  0  3  0  0  0  0  0  0
  -22.4760   -8.1120   21.3360 C   0  0  0  0  0  0  0  0  0  0  0  0
  -22.0700   -9.0550   20.3760 C   0  0  0  0  0  3  0  0  0  0  0  0
  -22.7950  -10.2440   20.1900 C   0  0  0  0  0  3  0  0  0  0  0  0
  -21.7250   -6.9660   21.4290 O   0  0  0  0  0  0  0  0  0  0  0  0
  -21.6440   -6.2490   22.5960 C   0  0  0  0  0  0  0  0  0  0  0  0
  -21.1490   -6.8190   23.7880 C   0  0  0  0  0  3  0  0  0  0  0  0
  -21.0220   -6.0290   24.9480 C   0  0  0  0  0  3  0  0  0  0  0  0
  -21.3760   -4.6660   24.9140 C   0  0  0  0  0  0  0  0  0  0  0  0
  -21.8630   -4.0950   23.7250 C   0  0  0  0  0  3  0  0  0  0  0  0
  -21.9950   -4.8840   22.5680 C   0  0  0  0  0  0  0  0  0  0  0  0
  -22.4440   -4.3230   21.4200 F   0  0  0  0  0  0  0  0  0  0  0  0
  -21.2460   -3.9030   26.0230 F   0  0  0  0  0  0  0  0  0  0  0  0
  -22.8070  -13.6060   21.0960 C   0  0  0  0  0  0  0  0  0  0  0  0
  -22.0870  -12.9040   21.9660 N   0  0  0  0  0  0  0  0  0  0  0  0
  -22.3650  -14.6350   20.5890 O   0  0  0  0  0  0  0  0  0  0  0  0
  -22.4600  -12.0720   22.3990 H   0  0  0  0  0  0  0  0  0  0  0  0
  -21.1510  -13.2030   22.2030 H   0  0  0  0  0  0  0  0  0  0  0  0
  -25.4310  -15.2740   20.2500 N   0  0  0  0  0  0  0  0  0  0  0  0
  -24.6730  -15.9370   20.3760 H   0  0  0  0  0  0  0  0  0  0  0  0
  -26.2910  -15.7080   19.9380 H   0  0  0  0  0  0  0  0  0  0  0  0
  -29.1970  -24.0520   20.4260 C   0  0  0  0  0  2  0  0  0  0  0  0
  -28.2140  -25.1320   19.8170 C   0  0  0  0  0  2  0  0  0  0  0  0
  -28.3510  -26.5420   20.2150 O   0  0  0  0  0  0  0  0  0  0  0  0
  -24.6070  -31.8910   23.2140 C   0  0  0  0  0  0  0  0  0  0  0  0
  -27.2230  -27.3710   20.1370 C   0  0  0  0  0  0  0  0  0  0  0  0
  -23.4030  -30.4970   21.5710 C   0  0  0  0  0  3  0  0  0  0  0  0
  -24.8540  -28.9640   20.1340 C   0  0  0  0  0  0  0  0  0  0  0  0
  -25.9400  -30.8270   21.3860 C   0  0  0  0  0  2  0  0  0  0  0  0
  -26.0200  -29.4530   20.7370 C   0  0  0  0  0  0  0  0  0  0  0  0
  -27.2050  -28.6640   20.7380 C   0  0  0  0  0  3  0  0  0  0  0  0
  -26.0390  -26.9430   19.4890 C   0  0  0  0  0  3  0  0  0  0  0  0
  -24.8650  -27.7140   19.5040 C   0  0  0  0  0  3  0  0  0  0  0  0
  -23.6140  -29.8290   20.1870 C   0  0  0  0  0  2  0  0  0  0  0  0
  -24.6690  -31.0880   22.1140 N   0  0  0  0  0  0  0  0  0  0  0  0
  -23.5250  -32.1650   23.7510 O   0  0  0  0  0  0  0  0  0  0  0  0
  -22.7460  -29.4730   22.5260 C   0  0  0  0  0  0  0  0  0  0  0  0
  -21.4210  -29.2880   22.3960 N   0  0  0  0  0  0  0  0  0  0  0  0
  -23.4270  -28.8470   23.3440 O   0  0  0  0  0  0  0  0  0  0  0  0
  -20.9310  -29.8460   21.7110 H   0  0  0  0  0  0  0  0  0  0  0  0
  -18.0480  -28.0810   22.8810 C   0  0  0  0  0  0  0  0  0  0  0  0
  -20.6030  -28.3490   23.1640 C   0  0  0  0  0  3  0  0  0  0  0  0
  -20.7120  -26.9160   22.5890 C   0  0  0  0  0  2  0  0  0  0  0  0
  -19.6170  -26.5900   21.5700 C   0  0  0  0  0  2  0  0  0  0  0  0
  -18.2320  -26.7320   22.2070 C   0  0  0  0  0  2  0  0  0  0  0  0
  -19.1620  -28.8480   23.3150 C   0  0  0  0  0  0  0  0  0  0  0  0
  -18.9350  -30.1120   23.9020 C   0  0  0  0  0  3  0  0  0  0  0  0
  -17.6270  -30.6090   24.0600 C   0  0  0  0  0  3  0  0  0  0  0  0
  -16.5280  -29.8390   23.6420 C   0  0  0  0  0  3  0  0  0  0  0  0
  -16.7390  -28.5780   23.0570 C   0  0  0  0  0  3  0  0  0  0  0  0
  -25.8920  -32.5200   23.8370 C   0  0  0  0  0  3  0  0  0  0  0  0
  -26.4090  -31.7470   25.1110 C   0  0  1  0  0  0  0  0  0  0  0  0
  -25.3170  -31.5050   26.1770 C   0  0  0  0  0  1  0  0  0  0  0  0
  -26.9950  -30.3710   24.7150 C   0  0  0  0  0  1  0  0  0  0  0  0
  -27.5580  -32.5410   25.7750 C   0  0  0  0  0  1  0  0  0  0  0  0
  -25.5830  -33.9180   24.1680 N   0  0  0  0  0  0  0  0  0  0  0  0
  -25.9110  -34.9720   23.4080 C   0  0  0  0  0  0  0  0  0  0  0  0
  -26.5770  -34.8680   22.3740 O   0  0  0  0  0  0  0  0  0  0  0  0
  -24.9930  -34.0720   24.9730 H   0  0  0  0  0  0  0  0  0  0  0  0
  -24.1890  -36.7680   23.0550 C   0  0  0  0  0  1  0  0  0  0  0  0
  -25.4260  -36.3590   23.8690 C   0  0  0  0  0  3  0  0  0  0  0  0
  -27.5550  -37.2430   24.7140 C   0  0  0  0  0  1  0  0  0  0  0  0
  -26.4610  -37.4100   23.7630 N   0  0  0  0  0  0  0  0  0  0  0  0
  -26.0550  -38.3320   23.9040 H   0  0  0  0  0  0  0  0  0  0  0  0
  1  2  1  0
  2  8  1  0
  2 47  1  0
  4  7  1  0
  5  3  1  0
  6  4  2  0
  6  8  1  0
  7  9  1  0
  7  3  2  0
  8  5  2  0
  9 10  3  0
 11 10  1  0
 12 17  1  0
 13 14  1  0
 13 12  1  0
 15 14  1  0
 15 22  1  0
 15 16  1  0
 17 11  1  0
 17 16  1  0
 18 11  2  0
 19 20  2  0
 20 39  1  0
 21 20  1  0
 21 24  1  0
 22 19  1  0
 22 23  1  0
 23 21  2  0
 24 25  1  0
 25 26  2  0
 27 30  1  0
 27 26  1  0
 28 27  2  0
 29 28  1  0
 29 24  2  0
 30 31  1  0
 31 32  1  0
 32 33  2  0
 34 33  1  0
 34 38  1  0
 35 34  2  0
 36 31  2  0
 36 35  1  0
 37 36  1  0
 39 40  1  0
 40 43  1  0
 40 42  1  0
 41 39  2  0
 44 45  1  0
 44 19  1  0
 46 44  1  0
 48 49  1  0
 48 47  1  0
 50 61  2  0
 51 49  1  0
 51 56  1  0
 52 60  1  0
 52 62  1  0
 53 59  1  0
 53 55  1  0
 54 60  1  0
 55 56  2  0
 55 54  1  0
 57 58  1  0
 57 51  2  0
 58 53  2  0
 59 52  1  0
 60 50  1  0
 62 64  2  0
 63 62  1  0
 65 63  1  0
 66 75  2  0
 66 71  1  0
 67 63  1  0
 67 71  1  0
 68 67  1  0
 69 70  1  0
 69 68  1  0
 70 66  1  0
 71 72  2  0
 72 73  1  0
 74 73  2  0
 75 74  1  0
 76 50  1  0
 76 81  1  0
 76 77  1  0
 77 80  1  1
 77 78  1  0
 79 77  1  0
 81 84  1  0
 82 86  1  0
 82 81  1  0
 83 82  2  0
 86 85  1  0
 88 86  1  0
 88 89  1  0
 88 87  1  0
M  ISO  4  10 100  11 100  48 101  49 101
M  END
>  <TORSDO>  (55) 
F 20

>  <SCORE>  (55) 
-13.545

>  <name>  (55) 
55

>  <ligand_id>  (55) 
55

>  <original_smiles>  (55) 
[H]c1c([H])c([H])c2c(c1[H])C([H])([H])C([H])([H])C([H])([H])C2([H])N([H])C(=O)C1([H])N(C(=O)C([H])(N([H])C(=O)C([H])(N([H])C([H])([H])[H])C([H])([H])[H])C(C([H])([H])[H])(C([H])([H])[H])C([H])([H])[H])C([H])([H])c2c([H])c(OC([H])([H])C([H])([H])N(c3c([H])c([H])c(C#CC(=O)N4C([H])([H])C([H])([H])C([H])([H])C([H])(n5nc(-c6c([H])c([H])c(Oc7c([H])c([H])c(F)c([H])c7F)c([H])c6[H])c(C(=O)N([H])[H])c5N([H])[H])C4([H])[H])c([H])c3[H])C([H])([H])[H])c([H])c([H])c2C1([H])[H]

>  <smiles>  (55) 
[H]c1c([H])c([H])c2c(c1[H])C([H])([H])C([H])([H])C([H])([H])C2([H])N([H])C(=O)C1([H])N(C(=O)C([H])(N([H])C(=O)C([H])(N([H])C([H])([H])[H])C([H])([H])[H])C(C([H])([H])[H])(C([H])([H])[H])C([H])([H])[H])C([H])([H])c2c([H])c(OC([H])([H])C([H])([H])N(c3c([H])c([H])c(C#CC(=O)N4C([H])([H])C([H])([H])C([H])([H])C([H])(n5nc(-c6c([H])c([H])c(Oc7c([H])c([H])c(F)c([H])c7F)c([H])c6[H])c(C(=O)N([H])[H])c5N([H])[H])C4([H])[H])c([H])c3[H])C([H])([H])[H])c([H])c([H])c2C1([H])[H]

$$$$
56:0:0
     RDKit          3D

 98106  0  0  1  0  0  0  0  0999 V2000
  -29.7690  -23.1380   19.9770 C   0  0  0  0  0  2  0  0  0  0  0  0
  -27.8990  -21.5490   20.0000 C   0  0  0  0  0  1  0  0  0  0  0  0
  -29.3770  -21.7070   20.0150 N   0  0  1  0  0  4  0  0  0  0  0  0
  -29.6760  -21.3810   20.9220 H   0  0  0  0  0  0  0  0  0  0  0  0
  -30.0740  -20.8470   19.0250 C   0  0  0  0  0  2  0  0  0  0  0  0
  -31.1580  -18.9090   20.2800 C   0  0  0  0  0  3  0  0  0  0  0  0
  -29.0190  -18.5420   19.1720 C   0  0  0  0  0  3  0  0  0  0  0  0
  -31.1340  -17.5860   20.7650 C   0  0  0  0  0  3  0  0  0  0  0  0
  -28.9810  -17.2290   19.6730 C   0  0  0  0  0  3  0  0  0  0  0  0
  -30.0910  -19.3990   19.4950 C   0  0  0  0  0  0  0  0  0  0  0  0
  -30.0390  -16.7440   20.4680 C   0  0  0  0  0  0  0  0  0  0  0  0
  -30.6810  -14.4170   20.4400 C   0  0  0  0  0  0  0  0  0  0  0  0
  -30.3660  -12.2800   19.2810 C   0  0  0  0  0  2  0  0  0  0  0  0
  -29.4200  -12.5230   18.0860 C   0  0  0  0  0  2  0  0  0  0  0  0
  -27.9450  -12.3910   18.5160 C   0  0  0  0  0  2  0  0  0  0  0  0
  -27.6180  -13.2060   19.7970 C   0  0  0  0  0  3  0  0  0  0  0  0
  -28.6760  -12.9550   20.8960 C   0  0  0  0  0  2  0  0  0  0  0  0
  -30.0060  -13.2440   20.3280 N   0  0  0  0  0  0  0  0  0  0  0  0
  -31.8090  -14.6020   19.9750 O   0  0  0  0  0  0  0  0  0  0  0  0
  -29.9630  -15.4210   20.9590 N   0  0  0  0  0  0  0  0  0  0  0  0
  -29.0590  -15.1280   21.2940 H   0  0  0  0  0  0  0  0  0  0  0  0
  -25.2120  -13.8100   20.4880 C   0  0  0  0  0  0  0  0  0  0  0  0
  -24.1470  -13.0330   20.8610 C   0  0  0  0  0  0  0  0  0  0  0  0
  -24.6160  -11.6850   20.8430 C   0  0  0  0  0  0  0  0  0  0  0  0
  -26.2630  -12.9310   20.2720 N   0  0  0  0  0  0  0  0  0  0  0  0
  -25.9070  -11.6480   20.5380 N   0  0  0  0  0  0  0  0  0  0  0  0
  -23.8980  -10.4210   21.0410 C   0  0  0  0  0  0  0  0  0  0  0  0
  -24.3440   -9.4560   21.9700 C   0  0  0  0  0  3  0  0  0  0  0  0
  -23.6260   -8.2540   22.1560 C   0  0  0  0  0  3  0  0  0  0  0  0
  -22.4460   -8.0100   21.4120 C   0  0  0  0  0  0  0  0  0  0  0  0
  -22.0180   -8.9640   20.4720 C   0  0  0  0  0  3  0  0  0  0  0  0
  -22.7380  -10.1560   20.2850 C   0  0  0  0  0  3  0  0  0  0  0  0
  -21.6970   -6.8620   21.5080 O   0  0  0  0  0  0  0  0  0  0  0  0
  -21.6770   -6.1100   22.6560 C   0  0  0  0  0  0  0  0  0  0  0  0
  -21.2820   -6.6550   23.8970 C   0  0  0  0  0  3  0  0  0  0  0  0
  -21.2110   -5.8310   25.0370 C   0  0  0  0  0  3  0  0  0  0  0  0
  -21.5200   -4.4610   24.9360 C   0  0  0  0  0  0  0  0  0  0  0  0
  -21.9070   -3.9150   23.7000 C   0  0  0  0  0  3  0  0  0  0  0  0
  -21.9820   -4.7380   22.5620 C   0  0  0  0  0  0  0  0  0  0  0  0
  -22.3350   -4.2040   21.3690 F   0  0  0  0  0  0  0  0  0  0  0  0
  -21.4430   -3.6660   26.0290 F   0  0  0  0  0  0  0  0  0  0  0  0
  -22.7470  -13.5060   21.1270 C   0  0  0  0  0  0  0  0  0  0  0  0
  -22.0220  -12.8120   21.9990 N   0  0  0  0  0  0  0  0  0  0  0  0
  -22.3040  -14.5260   20.6010 O   0  0  0  0  0  0  0  0  0  0  0  0
  -22.3950  -11.9880   22.4470 H   0  0  0  0  0  0  0  0  0  0  0  0
  -21.0830  -13.1060   22.2210 H   0  0  0  0  0  0  0  0  0  0  0  0
  -25.3670  -15.1780   20.2990 N   0  0  0  0  0  0  0  0  0  0  0  0
  -24.5910  -15.8250   20.3930 H   0  0  0  0  0  0  0  0  0  0  0  0
  -26.2150  -15.6210   19.9730 H   0  0  0  0  0  0  0  0  0  0  0  0
  -31.6210  -22.5740   21.7340 C   0  0  0  0  0  1  0  0  0  0  0  0
  -31.2090  -23.4200   20.5080 C   0  0  0  0  0  3  0  0  0  0  0  0
  -30.6050  -25.5990   21.5580 C   0  0  0  0  0  0  0  0  0  0  0  0
  -32.6000  -25.4530   20.1060 C   0  0  0  0  0  1  0  0  0  0  0  0
  -31.4200  -24.8670   20.7510 N   0  0  0  0  0  0  0  0  0  0  0  0
  -29.9020  -25.0770   22.4300 O   0  0  0  0  0  0  0  0  0  0  0  0
  -30.4280  -27.1000   21.3050 C   0  0  0  0  0  2  0  0  0  0  0  0
  -29.6340  -27.3660   20.0110 C   0  0  0  0  0  2  0  0  0  0  0  0
  -28.3590  -26.7180   20.0350 O   0  0  0  0  0  0  0  0  0  0  0  0
  -24.5710  -31.8910   23.2390 C   0  0  0  0  0  0  0  0  0  0  0  0
  -27.2190  -27.4800   20.1370 C   0  0  0  0  0  0  0  0  0  0  0  0
  -23.3530  -30.4890   21.6000 C   0  0  0  0  0  3  0  0  0  0  0  0
  -24.8010  -28.9410   20.1830 C   0  0  0  0  0  0  0  0  0  0  0  0
  -25.8730  -30.8500   21.3900 C   0  0  0  0  0  2  0  0  0  0  0  0
  -25.9580  -29.4780   20.7610 C   0  0  0  0  0  0  0  0  0  0  0  0
  -27.1680  -28.7560   20.7450 C   0  0  0  0  0  3  0  0  0  0  0  0
  -26.0370  -26.9340   19.5930 C   0  0  0  0  0  3  0  0  0  0  0  0
  -24.8300  -27.6600   19.6070 C   0  0  0  0  0  3  0  0  0  0  0  0
  -23.5560  -29.7980   20.2240 C   0  0  0  0  0  2  0  0  0  0  0  0
  -24.6170  -31.0920   22.1340 N   0  0  0  0  0  0  0  0  0  0  0  0
  -23.4940  -32.1670   23.7830 O   0  0  0  0  0  0  0  0  0  0  0  0
  -22.7050  -29.4730   22.5660 C   0  0  0  0  0  0  0  0  0  0  0  0
  -21.3800  -29.2950   22.4420 N   0  0  0  0  0  0  0  0  0  0  0  0
  -23.3900  -28.8460   23.3780 O   0  0  0  0  0  0  0  0  0  0  0  0
  -20.8920  -29.8500   21.7530 H   0  0  0  0  0  0  0  0  0  0  0  0
  -18.0010  -28.1210   22.9470 C   0  0  0  0  0  0  0  0  0  0  0  0
  -20.5600  -28.3630   23.2130 C   0  0  0  0  0  3  0  0  0  0  0  0
  -20.6530  -26.9310   22.6340 C   0  0  0  0  0  2  0  0  0  0  0  0
  -19.5450  -26.6150   21.6250 C   0  0  0  0  0  2  0  0  0  0  0  0
  -18.1660  -26.7700   22.2720 C   0  0  0  0  0  2  0  0  0  0  0  0
  -19.1250  -28.8760   23.3730 C   0  0  0  0  0  0  0  0  0  0  0  0
  -18.9170  -30.1410   23.9640 C   0  0  0  0  0  3  0  0  0  0  0  0
  -17.6170  -30.6530   24.1310 C   0  0  0  0  0  3  0  0  0  0  0  0
  -16.5060  -29.8940   23.7220 C   0  0  0  0  0  3  0  0  0  0  0  0
  -16.7000  -28.6290   23.1380 C   0  0  0  0  0  3  0  0  0  0  0  0
  -25.8640  -32.5160   23.8540 C   0  0  0  0  0  3  0  0  0  0  0  0
  -25.5630  -33.9130   24.1890 N   0  0  0  0  0  0  0  0  0  0  0  0
  -25.8990  -34.9660   23.4280 C   0  0  0  0  0  0  0  0  0  0  0  0
  -26.5670  -34.8600   22.3960 O   0  0  0  0  0  0  0  0  0  0  0  0
  -24.9750  -34.0700   24.9930 H   0  0  0  0  0  0  0  0  0  0  0  0
  -24.1780  -36.7620   23.0710 C   0  0  0  0  0  1  0  0  0  0  0  0
  -25.4160  -36.3560   23.8850 C   0  0  0  0  0  3  0  0  0  0  0  0
  -27.5540  -37.2260   24.7190 C   0  0  0  0  0  1  0  0  0  0  0  0
  -26.4540  -37.4050   23.7760 N   0  0  0  0  0  0  0  0  0  0  0  0
  -26.0540  -38.3260   23.9250 H   0  0  0  0  0  0  0  0  0  0  0  0
  -26.3890  -31.7360   25.1210 C   0  0  1  0  0  0  0  0  0  0  0  0
  -25.3050  -31.4910   26.1970 C   0  0  0  0  0  1  0  0  0  0  0  0
  -26.9670  -30.3590   24.7140 C   0  0  0  0  0  1  0  0  0  0  0  0
  -27.5480  -32.5210   25.7780 C   0  0  0  0  0  1  0  0  0  0  0  0
  1  3  1  0
  1 51  1  0
  2  3  1  0
  3  4  1  1
  5 10  1  0
  5  3  1  0
  6  8  1  0
  7 10  1  0
  7  9  2  0
  9 11  1  0
 10  6  2  0
 11  8  2  0
 11 20  1  0
 12 20  1  0
 13 18  1  0
 14 15  1  0
 14 13  1  0
 16 15  1  0
 16 25  1  0
 16 17  1  0
 18 12  1  0
 18 17  1  0
 19 12  2  0
 20 21  1  0
 22 23  2  0
 23 42  1  0
 24 23  1  0
 24 27  1  0
 25 22  1  0
 25 26  1  0
 26 24  2  0
 27 28  1  0
 28 29  2  0
 30 33  1  0
 30 29  1  0
 31 30  2  0
 32 31  1  0
 32 27  2  0
 33 34  1  0
 34 35  1  0
 35 36  2  0
 37 36  1  0
 37 41  1  0
 38 37  2  0
 39 34  2  0
 39 38  1  0
 40 39  1  0
 42 43  1  0
 43 46  1  0
 43 45  1  0
 44 42  2  0
 47 48  1  0
 47 22  1  0
 49 47  1  0
 51 54  1  0
 51 50  1  0
 52 55  2  0
 53 54  1  0
 54 52  1  0
 56 52  1  0
 57 58  1  0
 57 56  1  0
 58 60  1  0
 59 70  2  0
 60 65  1  0
 61 69  1  0
 61 71  1  0
 62 68  1  0
 62 64  1  0
 63 69  1  0
 64 63  1  0
 65 64  2  0
 66 67  1  0
 66 60  2  0
 67 62  2  0
 68 61  1  0
 69 59  1  0
 71 73  2  0
 72 71  1  0
 74 72  1  0
 75 84  2  0
 75 80  1  0
 76 72  1  0
 76 80  1  0
 77 76  1  0
 78 79  1  0
 78 77  1  0
 79 75  1  0
 80 81  2  0
 81 82  1  0
 83 82  2  0
 84 83  1  0
 85 59  1  0
 85 86  1  0
 85 95  1  0
 86 89  1  0
 87 91  1  0
 87 86  1  0
 88 87  2  0
 91 90  1  0
 93 91  1  0
 93 94  1  0
 93 92  1  0
 95 98  1  1
 95 96  1  0
 97 95  1  0
M  ISO  4  12 100  20 100  57 101  58 101
M  END
>  <TORSDO>  (56) 
F 23

>  <SCORE>  (56) 
-12.911

>  <name>  (56) 
56

>  <ligand_id>  (56) 
56

>  <original_smiles>  (56) 
[H]c1c([H])c([H])c2c(c1[H])C([H])([H])C([H])([H])C([H])([H])C2([H])N([H])C(=O)C1([H])N(C(=O)C([H])(N([H])C(=O)C([H])(N([H])C([H])([H])[H])C([H])([H])[H])C(C([H])([H])[H])(C([H])([H])[H])C([H])([H])[H])C([H])([H])c2c([H])c(OC([H])([H])C([H])([H])C(=O)N(C([H])([H])[H])C([H])(C([H])([H])[H])C([H])([H])[N+]([H])(C([H])([H])[H])C([H])([H])c3c([H])c([H])c(N([H])C(=O)N4C([H])([H])C([H])([H])C([H])([H])C([H])(n5nc(-c6c([H])c([H])c(Oc7c([H])c([H])c(F)c([H])c7F)c([H])c6[H])c(C(=O)N([H])[H])c5N([H])[H])C4([H])[H])c([H])c3[H])c([H])c([H])c2C1([H])[H]

>  <smiles>  (56) 
[H]c1c([H])c([H])c2c(c1[H])C([H])([H])C([H])([H])C([H])([H])C2([H])N([H])C(=O)C1([H])N(C(=O)C([H])(N([H])C(=O)C([H])(N([H])C([H])([H])[H])C([H])([H])[H])C(C([H])([H])[H])(C([H])([H])[H])C([H])([H])[H])C([H])([H])c2c([H])c(OC([H])([H])C([H])([H])C(=O)N(C([H])([H])[H])C([H])(C([H])([H])[H])C([H])([H])[N+]([H])(C([H])([H])[H])C([H])([H])c3c([H])c([H])c(N([H])C(=O)N4C([H])([H])C([H])([H])C([H])([H])C([H])(n5nc(-c6c([H])c([H])c(Oc7c([H])c([H])c(F)c([H])c7F)c([H])c6[H])c(C(=O)N([H])[H])c5N([H])[H])C4([H])[H])c([H])c3[H])c([H])c([H])c2C1([H])[H]

$$$$
57:0:0
     RDKit          3D

 94103  0  0  1  0  0  0  0  0999 V2000
  -31.3760  -23.8290   20.7860 C   0  0  0  0  0  2  0  0  0  0  0  0
  -30.8350  -24.4760   19.5160 C   0  0  0  0  0  2  0  0  0  0  0  0
  -30.8050  -22.4150   20.7180 C   0  0  0  0  0  2  0  0  0  0  0  0
  -29.4020  -23.9220   19.4110 C   0  0  0  0  0  3  0  0  0  0  0  0
  -29.5070  -22.5000   19.9970 N   0  0  1  0  0  4  0  0  0  0  0  0
  -28.7800  -22.3980   20.6910 H   0  0  0  0  0  0  0  0  0  0  0  0
  -29.3300  -21.3290   19.0370 C   0  0  0  0  0  2  0  0  0  0  0  0
  -30.3850  -18.9630   18.5580 C   0  0  0  0  0  3  0  0  0  0  0  0
  -30.6210  -17.5840   18.8620 C   0  0  0  0  0  3  0  0  0  0  0  0
  -29.3260  -19.2670   20.6790 C   0  0  0  0  0  3  0  0  0  0  0  0
  -29.7230  -19.8510   19.4530 C   0  0  0  0  0  0  0  0  0  0  0  0
  -30.2340  -16.9880   20.0990 C   0  0  0  0  0  0  0  0  0  0  0  0
  -29.5700  -17.8970   20.9950 C   0  0  0  0  0  0  0  0  0  0  0  0
  -29.1090  -17.4750   22.1950 F   0  0  0  0  0  0  0  0  0  0  0  0
  -30.9390  -14.5510   19.6320 C   0  0  0  0  0  0  0  0  0  0  0  0
  -30.4750  -12.3640   18.5110 C   0  0  0  0  0  2  0  0  0  0  0  0
  -29.3990  -12.5340   17.4160 C   0  0  0  0  0  2  0  0  0  0  0  0
  -27.9830  -12.4170   18.0120 C   0  0  0  0  0  2  0  0  0  0  0  0
  -27.8080  -13.2690   19.2950 C   0  0  0  0  0  3  0  0  0  0  0  0
  -28.9760  -13.0430   20.2720 C   0  0  0  0  0  2  0  0  0  0  0  0
  -30.2260  -13.3720   19.5650 N   0  0  0  0  0  0  0  0  0  0  0  0
  -31.9660  -14.6950   18.9610 O   0  0  0  0  0  0  0  0  0  0  0  0
  -30.6740  -15.2530   21.8890 C   0  0  0  0  0  1  0  0  0  0  0  0
  -30.4900  -15.5610   20.4590 N   0  0  0  0  0  0  0  0  0  0  0  0
  -25.5870  -13.9470   20.3910 C   0  0  0  0  0  0  0  0  0  0  0  0
  -24.5230  -13.2100   20.8390 C   0  0  0  0  0  0  0  0  0  0  0  0
  -24.8750  -11.8420   20.6310 C   0  0  0  0  0  0  0  0  0  0  0  0
  -26.5180  -13.0280   19.9360 N   0  0  0  0  0  0  0  0  0  0  0  0
  -26.1040  -11.7510   20.1410 N   0  0  0  0  0  0  0  0  0  0  0  0
  -24.0880  -10.6150   20.8130 C   0  0  0  0  0  0  0  0  0  0  0  0
  -24.5240   -9.5750   21.6660 C   0  0  0  0  0  3  0  0  0  0  0  0
  -23.7380   -8.4150   21.8380 C   0  0  0  0  0  3  0  0  0  0  0  0
  -22.5040   -8.2860   21.1570 C   0  0  0  0  0  0  0  0  0  0  0  0
  -22.0860   -9.3140   20.2930 C   0  0  0  0  0  3  0  0  0  0  0  0
  -22.8710  -10.4650   20.1180 C   0  0  0  0  0  3  0  0  0  0  0  0
  -21.6860   -7.1840   21.2440 O   0  0  0  0  0  0  0  0  0  0  0  0
  -21.6170   -6.4280   22.3880 C   0  0  0  0  0  0  0  0  0  0  0  0
  -21.2600   -6.9910   23.6320 C   0  0  0  0  0  3  0  0  0  0  0  0
  -21.1320   -6.1660   24.7680 C   0  0  0  0  0  3  0  0  0  0  0  0
  -21.3500   -4.7800   24.6600 C   0  0  0  0  0  0  0  0  0  0  0  0
  -21.6990   -4.2170   23.4200 C   0  0  0  0  0  3  0  0  0  0  0  0
  -21.8290   -5.0390   22.2870 C   0  0  0  0  0  0  0  0  0  0  0  0
  -22.1460   -4.4870   21.0900 F   0  0  0  0  0  0  0  0  0  0  0  0
  -21.2180   -3.9860   25.7480 F   0  0  0  0  0  0  0  0  0  0  0  0
  -23.2130  -13.7460   21.3410 C   0  0  0  0  0  0  0  0  0  0  0  0
  -22.5700  -13.0310   22.2590 N   0  0  0  0  0  0  0  0  0  0  0  0
  -22.7750  -14.8280   20.9540 O   0  0  0  0  0  0  0  0  0  0  0  0
  -22.9400  -12.1520   22.5890 H   0  0  0  0  0  0  0  0  0  0  0  0
  -21.6950  -13.3680   22.6330 H   0  0  0  0  0  0  0  0  0  0  0  0
  -25.8310  -15.3140   20.3110 N   0  0  0  0  0  0  0  0  0  0  0  0
  -25.1480  -16.0080   20.5950 H   0  0  0  0  0  0  0  0  0  0  0  0
  -26.6730  -15.7230   19.9230 H   0  0  0  0  0  0  0  0  0  0  0  0
  -28.3630  -24.9370   20.0980 C   0  0  0  0  0  2  0  0  0  0  0  0
  -28.4650  -26.3900   19.7850 O   0  0  0  0  0  0  0  0  0  0  0  0
  -24.6050  -31.5960   23.0100 C   0  0  0  0  0  0  0  0  0  0  0  0
  -27.3110  -27.1890   19.8190 C   0  0  0  0  0  0  0  0  0  0  0  0
  -23.4270  -30.2220   21.3290 C   0  0  0  0  0  3  0  0  0  0  0  0
  -24.9070  -28.7390   19.8620 C   0  0  0  0  0  0  0  0  0  0  0  0
  -25.9560  -30.6040   21.1470 C   0  0  0  0  0  2  0  0  0  0  0  0
  -26.0670  -29.2430   20.4650 C   0  0  0  0  0  0  0  0  0  0  0  0
  -27.2730  -28.4820   20.4300 C   0  0  0  0  0  3  0  0  0  0  0  0
  -26.1280  -26.7340   19.1980 C   0  0  0  0  0  3  0  0  0  0  0  0
  -24.9390  -27.4910   19.2210 C   0  0  0  0  0  3  0  0  0  0  0  0
  -23.6530  -29.5860   19.9320 C   0  0  0  0  0  2  0  0  0  0  0  0
  -24.6820  -30.8230   21.8870 N   0  0  0  0  0  0  0  0  0  0  0  0
  -23.5170  -31.8340   23.5540 O   0  0  0  0  0  0  0  0  0  0  0  0
  -22.7850  -29.1660   22.2600 C   0  0  0  0  0  0  0  0  0  0  0  0
  -21.4570  -28.9920   22.1510 N   0  0  0  0  0  0  0  0  0  0  0  0
  -23.4800  -28.5090   23.0390 O   0  0  0  0  0  0  0  0  0  0  0  0
  -20.9530  -29.5740   21.4950 H   0  0  0  0  0  0  0  0  0  0  0  0
  -18.0880  -27.7900   22.6940 C   0  0  0  0  0  0  0  0  0  0  0  0
  -20.6550  -28.0220   22.8980 C   0  0  0  0  0  3  0  0  0  0  0  0
  -20.7300  -26.6210   22.2490 C   0  0  0  0  0  2  0  0  0  0  0  0
  -19.5960  -26.3570   21.2530 C   0  0  0  0  0  2  0  0  0  0  0  0
  -18.2340  -26.4760   21.9440 C   0  0  0  0  0  2  0  0  0  0  0  0
  -19.2250  -28.5240   23.1270 C   0  0  0  0  0  0  0  0  0  0  0  0
  -19.0330  -29.7540   23.7920 C   0  0  0  0  0  3  0  0  0  0  0  0
  -17.7380  -30.2530   24.0230 C   0  0  0  0  0  3  0  0  0  0  0  0
  -16.6160  -29.5180   23.6040 C   0  0  0  0  0  3  0  0  0  0  0  0
  -16.7930  -28.2870   22.9460 C   0  0  0  0  0  3  0  0  0  0  0  0
  -25.8750  -32.2340   23.6520 C   0  0  0  0  0  3  0  0  0  0  0  0
  -26.4140  -31.4320   24.8990 C   0  0  1  0  0  0  0  0  0  0  0  0
  -25.3310  -31.1330   25.9600 C   0  0  0  0  0  1  0  0  0  0  0  0
  -27.0250  -30.0810   24.4590 C   0  0  0  0  0  1  0  0  0  0  0  0
  -27.5480  -32.2290   25.5870 C   0  0  0  0  0  1  0  0  0  0  0  0
  -25.5350  -33.6130   24.0300 N   0  0  0  0  0  0  0  0  0  0  0  0
  -25.8510  -34.7010   23.3150 C   0  0  0  0  0  0  0  0  0  0  0  0
  -26.5290  -34.6510   22.2840 O   0  0  0  0  0  0  0  0  0  0  0  0
  -24.9310  -33.7250   24.8310 H   0  0  0  0  0  0  0  0  0  0  0  0
  -24.0880  -36.4730   23.0190 C   0  0  0  0  0  1  0  0  0  0  0  0
  -25.3320  -36.0610   23.8220 C   0  0  0  0  0  3  0  0  0  0  0  0
  -27.4470  -36.9510   24.7000 C   0  0  0  0  0  1  0  0  0  0  0  0
  -26.3430  -37.1400   23.7620 N   0  0  0  0  0  0  0  0  0  0  0  0
  -25.9160  -38.0410   23.9580 H   0  0  0  0  0  0  0  0  0  0  0  0
  2  1  1  0
  3  1  1  0
  4  2  1  0
  4  5  1  0
  4 53  1  0
  5  6  1  1
  5  3  1  0
  7 11  1  0
  7  5  1  0
  8  9  2  0
  8 11  1  0
  9 12  1  0
 10 13  1  0
 11 10  2  0
 12 24  1  0
 12 13  2  0
 13 14  1  0
 15 24  1  0
 16 21  1  0
 17 18  1  0
 17 16  1  0
 19 18  1  0
 19 28  1  0
 19 20  1  0
 21 15  1  0
 21 20  1  0
 22 15  2  0
 24 23  1  0
 25 26  2  0
 26 45  1  0
 27 30  1  0
 27 26  1  0
 28 29  1  0
 28 25  1  0
 29 27  2  0
 30 31  1  0
 31 32  2  0
 33 36  1  0
 33 32  1  0
 34 33  2  0
 35 34  1  0
 35 30  2  0
 36 37  1  0
 37 38  1  0
 38 39  2  0
 40 39  1  0
 40 44  1  0
 41 40  2  0
 42 37  2  0
 42 41  1  0
 43 42  1  0
 45 46  1  0
 46 48  1  0
 46 49  1  0
 47 45  2  0
 50 25  1  0
 50 51  1  0
 52 50  1  0
 54 56  1  0
 54 53  1  0
 55 66  2  0
 56 61  1  0
 57 65  1  0
 57 67  1  0
 58 64  1  0
 58 60  1  0
 59 65  1  0
 60 59  1  0
 61 60  2  0
 62 63  1  0
 62 56  2  0
 63 58  2  0
 64 57  1  0
 65 55  1  0
 67 69  2  0
 68 67  1  0
 70 68  1  0
 71 80  2  0
 71 76  1  0
 72 68  1  0
 72 76  1  0
 73 72  1  0
 74 75  1  0
 74 73  1  0
 75 71  1  0
 76 77  2  0
 77 78  1  0
 79 78  2  0
 80 79  1  0
 81 55  1  0
 81 86  1  0
 81 82  1  0
 82 85  1  1
 82 83  1  0
 84 82  1  0
 86 89  1  0
 87 91  1  0
 87 86  1  0
 88 87  2  0
 91 90  1  0
 93 91  1  0
 93 94  1  0
 93 92  1  0
M  ISO  4  15 100  24 100  53 101  54 101
M  END
>  <TORSDO>  (57) 
F 19

>  <SCORE>  (57) 
-12.310

>  <name>  (57) 
57

>  <ligand_id>  (57) 
57

>  <original_smiles>  (57) 
[H]c1c([H])c([H])c2c(c1[H])C([H])([H])C([H])([H])C([H])([H])C2([H])N([H])C(=O)C1([H])N(C(=O)C([H])(N([H])C(=O)C([H])(N([H])C([H])([H])[H])C([H])([H])[H])C(C([H])([H])[H])(C([H])([H])[H])C([H])([H])[H])C([H])([H])c2c([H])c(OC([H])([H])C3([H])C([H])([H])C([H])([H])C([H])([H])[N+]3([H])C([H])([H])c3c([H])c([H])c(N(C(=O)N4C([H])([H])C([H])([H])C([H])([H])C([H])(n5nc(-c6c([H])c([H])c(Oc7c([H])c([H])c(F)c([H])c7F)c([H])c6[H])c(C(=O)N([H])[H])c5N([H])[H])C4([H])[H])C([H])([H])[H])c(F)c3[H])c([H])c([H])c2C1([H])[H]

>  <smiles>  (57) 
[H]c1c([H])c([H])c2c(c1[H])C([H])([H])C([H])([H])C([H])([H])C2([H])N([H])C(=O)C1([H])N(C(=O)C([H])(N([H])C(=O)C([H])(N([H])C([H])([H])[H])C([H])([H])[H])C(C([H])([H])[H])(C([H])([H])[H])C([H])([H])[H])C([H])([H])c2c([H])c(OC([H])([H])C3([H])C([H])([H])C([H])([H])C([H])([H])[N+]3([H])C([H])([H])c3c([H])c([H])c(N(C(=O)N4C([H])([H])C([H])([H])C([H])([H])C([H])(n5nc(-c6c([H])c([H])c(Oc7c([H])c([H])c(F)c([H])c7F)c([H])c6[H])c(C(=O)N([H])[H])c5N([H])[H])C4([H])[H])C([H])([H])[H])c(F)c3[H])c([H])c([H])c2C1([H])[H]

$$$$
58:0:0
     RDKit          3D

 90 98  0  0  1  0  0  0  0  0999 V2000
  -30.6490  -19.8080   19.2030 C   0  0  0  0  0  3  0  0  0  0  0  0
  -30.7840  -18.3780   19.4130 C   0  0  0  0  0  3  0  0  0  0  0  0
  -28.4570  -19.7800   20.0310 C   0  0  0  0  0  3  0  0  0  0  0  0
  -28.5690  -18.3360   20.2200 C   0  0  0  0  0  0  0  0  0  0  0  0
  -29.4880  -20.6240   19.5030 C   0  0  0  0  0  0  0  0  0  0  0  0
  -29.7460  -17.5450   19.9240 C   0  0  0  0  0  0  0  0  0  0  0  0
  -27.3430  -17.6150   20.7520 C   0  0  0  0  0  1  0  0  0  0  0  0
  -30.5790  -14.9230   19.6700 C   0  0  0  0  0  0  0  0  0  0  0  0
  -30.4270  -12.5870   18.6990 C   0  0  0  0  0  2  0  0  0  0  0  0
  -29.3770  -12.5700   17.5620 C   0  0  0  0  0  2  0  0  0  0  0  0
  -27.9660  -12.3270   18.1270 C   0  0  0  0  0  2  0  0  0  0  0  0
  -27.6660  -13.2210   19.3590 C   0  0  0  0  0  3  0  0  0  0  0  0
  -28.8220  -13.2010   20.3830 C   0  0  0  0  0  2  0  0  0  0  0  0
  -30.0340  -13.6410   19.6760 N   0  0  0  0  0  0  0  0  0  0  0  0
  -31.7140  -15.0630   19.2030 O   0  0  0  0  0  0  0  0  0  0  0  0
  -29.7730  -16.0190   20.0730 N   0  0  0  0  0  0  0  0  0  0  0  0
  -28.9500  -15.6730   20.5410 H   0  0  0  0  0  0  0  0  0  0  0  0
  -25.3660  -13.7610   20.3470 C   0  0  0  0  0  0  0  0  0  0  0  0
  -24.3460  -12.9680   20.7940 C   0  0  0  0  0  0  0  0  0  0  0  0
  -24.8020  -11.6210   20.6550 C   0  0  0  0  0  0  0  0  0  0  0  0
  -26.3810  -12.8980   19.9700 N   0  0  0  0  0  0  0  0  0  0  0  0
  -26.0560  -11.6030   20.2150 N   0  0  0  0  0  0  0  0  0  0  0  0
  -24.0960  -10.3490   20.8580 C   0  0  0  0  0  0  0  0  0  0  0  0
  -24.5430   -9.3970   21.8000 C   0  0  0  0  0  3  0  0  0  0  0  0
  -23.8350   -8.1910   21.9920 C   0  0  0  0  0  3  0  0  0  0  0  0
  -22.6650   -7.9290   21.2390 C   0  0  0  0  0  0  0  0  0  0  0  0
  -22.2380   -8.8690   20.2850 C   0  0  0  0  0  3  0  0  0  0  0  0
  -22.9470  -10.0650   20.0920 C   0  0  0  0  0  3  0  0  0  0  0  0
  -21.9280   -6.7730   21.3380 O   0  0  0  0  0  0  0  0  0  0  0  0
  -21.7930   -6.1070   22.5290 C   0  0  0  0  0  0  0  0  0  0  0  0
  -21.2070   -6.7150   23.6610 C   0  0  0  0  0  3  0  0  0  0  0  0
  -21.0250   -5.9710   24.8440 C   0  0  0  0  0  3  0  0  0  0  0  0
  -21.4180   -4.6210   24.8950 C   0  0  0  0  0  0  0  0  0  0  0  0
  -21.9960   -4.0110   23.7670 C   0  0  0  0  0  3  0  0  0  0  0  0
  -22.1800   -4.7530   22.5860 C   0  0  0  0  0  0  0  0  0  0  0  0
  -22.7180   -4.1560   21.4960 F   0  0  0  0  0  0  0  0  0  0  0  0
  -21.2350   -3.9030   26.0280 F   0  0  0  0  0  0  0  0  0  0  0  0
  -22.9840  -13.4290   21.2260 C   0  0  0  0  0  0  0  0  0  0  0  0
  -22.3490  -12.6970   22.1350 N   0  0  0  0  0  0  0  0  0  0  0  0
  -22.4960  -14.4730   20.7940 O   0  0  0  0  0  0  0  0  0  0  0  0
  -22.7590  -11.8520   22.5020 H   0  0  0  0  0  0  0  0  0  0  0  0
  -21.4420  -12.9880   22.4700 H   0  0  0  0  0  0  0  0  0  0  0  0
  -25.5080  -15.1360   20.2020 N   0  0  0  0  0  0  0  0  0  0  0  0
  -24.7270  -15.7670   20.3540 H   0  0  0  0  0  0  0  0  0  0  0  0
  -26.2790  -15.5750   19.7180 H   0  0  0  0  0  0  0  0  0  0  0  0
  -30.6580  -22.5940   18.6320 C   0  0  0  0  0  1  0  0  0  0  0  0
  -29.4240  -22.1050   19.2510 N   0  0  0  0  0  0  0  0  0  0  0  0
  -28.5940  -23.2780   19.8620 C   0  0  0  0  0  2  0  0  0  0  0  0
  -28.3320  -24.7350   19.0470 C   0  0  0  0  0  2  0  0  0  0  0  0
  -28.3270  -26.1820   19.6090 O   0  0  0  0  0  0  0  0  0  0  0  0
  -24.6100  -31.5850   22.9000 C   0  0  0  0  0  0  0  0  0  0  0  0
  -27.2320  -27.1180   19.5660 C   0  0  0  0  0  0  0  0  0  0  0  0
  -23.4170  -30.2750   21.1890 C   0  0  0  0  0  3  0  0  0  0  0  0
  -24.8740  -28.8140   19.6610 C   0  0  0  0  0  0  0  0  0  0  0  0
  -25.9650  -30.5880   21.0260 C   0  0  0  0  0  2  0  0  0  0  0  0
  -26.0490  -29.2420   20.2880 C   0  0  0  0  0  0  0  0  0  0  0  0
  -27.2240  -28.4070   20.2310 C   0  0  0  0  0  3  0  0  0  0  0  0
  -26.0260  -26.7900   18.9040 C   0  0  0  0  0  3  0  0  0  0  0  0
  -24.8720  -27.5990   18.9610 C   0  0  0  0  0  3  0  0  0  0  0  0
  -23.6370  -29.6900   19.7690 C   0  0  0  0  0  2  0  0  0  0  0  0
  -24.6830  -30.8330   21.7610 N   0  0  0  0  0  0  0  0  0  0  0  0
  -23.5250  -31.8220   23.4530 O   0  0  0  0  0  0  0  0  0  0  0  0
  -22.7650  -29.1980   22.0930 C   0  0  0  0  0  0  0  0  0  0  0  0
  -21.4310  -29.0510   22.0040 N   0  0  0  0  0  0  0  0  0  0  0  0
  -23.4580  -28.5050   22.8420 O   0  0  0  0  0  0  0  0  0  0  0  0
  -20.9280  -29.6660   21.3810 H   0  0  0  0  0  0  0  0  0  0  0  0
  -18.0460  -27.8980   22.5890 C   0  0  0  0  0  0  0  0  0  0  0  0
  -20.6230  -28.0670   22.7320 C   0  0  0  0  0  3  0  0  0  0  0  0
  -20.6490  -26.6930   22.0250 C   0  0  0  0  0  2  0  0  0  0  0  0
  -19.4830  -26.4950   21.0510 C   0  0  0  0  0  2  0  0  0  0  0  0
  -18.1430  -26.6140   21.7830 C   0  0  0  0  0  2  0  0  0  0  0  0
  -19.2100  -28.5880   23.0200 C   0  0  0  0  0  0  0  0  0  0  0  0
  -19.0630  -29.7920   23.7410 C   0  0  0  0  0  3  0  0  0  0  0  0
  -17.7860  -30.3060   24.0340 C   0  0  0  0  0  3  0  0  0  0  0  0
  -16.6370  -29.6120   23.6170 C   0  0  0  0  0  3  0  0  0  0  0  0
  -16.7680  -28.4100   22.8980 C   0  0  0  0  0  3  0  0  0  0  0  0
  -25.8860  -32.2010   23.5510 C   0  0  0  0  0  3  0  0  0  0  0  0
  -26.4310  -31.3560   24.7670 C   0  0  1  0  0  0  0  0  0  0  0  0
  -25.3570  -31.0350   25.8320 C   0  0  0  0  0  1  0  0  0  0  0  0
  -27.0320  -30.0150   24.2830 C   0  0  0  0  0  1  0  0  0  0  0  0
  -27.5770  -32.1240   25.4640 C   0  0  0  0  0  1  0  0  0  0  0  0
  -25.5520  -33.5670   23.9850 N   0  0  0  0  0  0  0  0  0  0  0  0
  -25.8540  -34.6820   23.3070 C   0  0  0  0  0  0  0  0  0  0  0  0
  -26.5120  -34.6700   22.2620 O   0  0  0  0  0  0  0  0  0  0  0  0
  -24.9650  -33.6490   24.8010 H   0  0  0  0  0  0  0  0  0  0  0  0
  -24.0830  -36.4610   23.1190 C   0  0  0  0  0  1  0  0  0  0  0  0
  -25.3480  -36.0230   23.8750 C   0  0  0  0  0  3  0  0  0  0  0  0
  -27.4730  -36.8980   24.7380 C   0  0  0  0  0  1  0  0  0  0  0  0
  -26.3550  -37.1040   23.8210 N   0  0  0  0  0  0  0  0  0  0  0  0
  -25.9310  -38.0030   24.0350 H   0  0  0  0  0  0  0  0  0  0  0  0
  1  2  2  0
  1  5  1  0
  2  6  1  0
  3  4  1  0
  4  7  1  0
  5  3  2  0
  6 16  1  0
  6  4  2  0
  8 14  1  0
  8 16  1  0
  9 14  1  0
 10 11  1  0
 10  9  1  0
 12 11  1  0
 12 21  1  0
 12 13  1  0
 14 13  1  0
 15  8  2  0
 16 17  1  0
 18 19  2  0
 19 38  1  0
 20 19  1  0
 20 23  1  0
 21 22  1  0
 21 18  1  0
 22 20  2  0
 23 24  1  0
 24 25  2  0
 26 29  1  0
 26 25  1  0
 27 26  2  0
 28 27  1  0
 28 23  2  0
 29 30  1  0
 30 35  2  0
 30 31  1  0
 31 32  2  0
 32 33  1  0
 33 37  1  0
 34 33  2  0
 35 34  1  0
 36 35  1  0
 38 39  1  0
 39 42  1  0
 39 41  1  0
 40 38  2  0
 43 18  1  0
 43 44  1  0
 45 43  1  0
 46 47  1  0
 47  5  1  0
 47 48  1  0
 49 50  1  0
 49 48  1  0
 51 62  2  0
 52 50  1  0
 52 57  1  0
 53 61  1  0
 53 63  1  0
 54 60  1  0
 54 56  1  0
 55 61  1  0
 56 55  1  0
 57 56  2  0
 58 59  1  0
 58 52  2  0
 59 54  2  0
 60 53  1  0
 61 51  1  0
 63 65  2  0
 64 63  1  0
 66 64  1  0
 67 76  2  0
 67 72  1  0
 68 64  1  0
 68 72  1  0
 69 68  1  0
 70 71  1  0
 70 69  1  0
 71 67  1  0
 72 73  2  0
 73 74  1  0
 75 74  2  0
 76 75  1  0
 77 51  1  0
 77 82  1  0
 77 78  1  0
 78 81  1  1
 78 79  1  0
 80 78  1  0
 82 85  1  0
 83 87  1  0
 83 82  1  0
 84 83  2  0
 87 86  1  0
 89 87  1  0
 89 90  1  0
 89 88  1  0
M  ISO  4   8 100  16 100  49 101  50 101
M  END
>  <TORSDO>  (58) 
F 19

>  <SCORE>  (58) 
-12.632

>  <name>  (58) 
58

>  <ligand_id>  (58) 
58

>  <original_smiles>  (58) 
[H]c1c([H])c([H])c2c(c1[H])C([H])([H])C([H])([H])C([H])([H])C2([H])N([H])C(=O)C1([H])N(C(=O)C([H])(N([H])C(=O)C([H])(N([H])C([H])([H])[H])C([H])([H])[H])C(C([H])([H])[H])(C([H])([H])[H])C([H])([H])[H])C([H])([H])c2c([H])c(OC([H])([H])C([H])([H])N(c3c([H])c([H])c(N([H])C(=O)N4C([H])([H])C([H])([H])C([H])([H])C([H])(n5nc(-c6c([H])c([H])c(Oc7c([H])c([H])c(F)c([H])c7F)c([H])c6[H])c(C(=O)N([H])[H])c5N([H])[H])C4([H])[H])c(C([H])([H])[H])c3[H])C([H])([H])[H])c([H])c([H])c2C1([H])[H]

>  <smiles>  (58) 
[H]c1c([H])c([H])c2c(c1[H])C([H])([H])C([H])([H])C([H])([H])C2([H])N([H])C(=O)C1([H])N(C(=O)C([H])(N([H])C(=O)C([H])(N([H])C([H])([H])[H])C([H])([H])[H])C(C([H])([H])[H])(C([H])([H])[H])C([H])([H])[H])C([H])([H])c2c([H])c(OC([H])([H])C([H])([H])N(c3c([H])c([H])c(N([H])C(=O)N4C([H])([H])C([H])([H])C([H])([H])C([H])(n5nc(-c6c([H])c([H])c(Oc7c([H])c([H])c(F)c([H])c7F)c([H])c6[H])c(C(=O)N([H])[H])c5N([H])[H])C4([H])[H])c(C([H])([H])[H])c3[H])C([H])([H])[H])c([H])c([H])c2C1([H])[H]

$$$$
59:0:0
     RDKit          3D

 90 98  0  0  1  0  0  0  0  0999 V2000
  -28.9490  -18.5190   21.1230 C   0  0  0  0  0  3  0  0  0  0  0  0
  -28.8490  -19.9680   20.9940 C   0  0  0  0  0  3  0  0  0  0  0  0
  -30.5540  -18.4360   19.4150 C   0  0  0  0  0  3  0  0  0  0  0  0
  -29.8030  -17.6540   20.3450 C   0  0  0  0  0  0  0  0  0  0  0  0
  -29.5900  -20.7590   20.0550 C   0  0  0  0  0  0  0  0  0  0  0  0
  -30.4490  -19.8790   19.2690 C   0  0  0  0  0  0  0  0  0  0  0  0
  -31.2150  -20.4100   18.2850 F   0  0  0  0  0  0  0  0  0  0  0  0
  -30.5470  -15.0040   20.1000 C   0  0  0  0  0  0  0  0  0  0  0  0
  -30.3810  -12.6820   19.0960 C   0  0  0  0  0  2  0  0  0  0  0  0
  -29.3870  -12.6810   17.9100 C   0  0  0  0  0  2  0  0  0  0  0  0
  -27.9500  -12.4530   18.4110 C   0  0  0  0  0  2  0  0  0  0  0  0
  -27.6000  -13.3660   19.6130 C   0  0  0  0  0  3  0  0  0  0  0  0
  -28.7000  -13.3320   20.6980 C   0  0  0  0  0  2  0  0  0  0  0  0
  -29.9590  -13.7410   20.0590 N   0  0  0  0  0  0  0  0  0  0  0  0
  -31.7110  -15.1130   19.6980 O   0  0  0  0  0  0  0  0  0  0  0  0
  -29.7650  -16.1240   20.4770 N   0  0  0  0  0  0  0  0  0  0  0  0
  -28.9120  -15.8010   20.9080 H   0  0  0  0  0  0  0  0  0  0  0  0
  -25.2470  -13.9470   20.4430 C   0  0  0  0  0  0  0  0  0  0  0  0
  -24.1950  -13.1690   20.8420 C   0  0  0  0  0  0  0  0  0  0  0  0
  -24.6570  -11.8190   20.7820 C   0  0  0  0  0  0  0  0  0  0  0  0
  -26.2800  -13.0700   20.1560 N   0  0  0  0  0  0  0  0  0  0  0  0
  -25.9340  -11.7850   20.4250 N   0  0  0  0  0  0  0  0  0  0  0  0
  -23.9380  -10.5540   20.9840 C   0  0  0  0  0  0  0  0  0  0  0  0
  -24.3930   -9.5830   21.9020 C   0  0  0  0  0  3  0  0  0  0  0  0
  -23.6730   -8.3840   22.0940 C   0  0  0  0  0  3  0  0  0  0  0  0
  -22.4830   -8.1470   21.3650 C   0  0  0  0  0  0  0  0  0  0  0  0
  -22.0460   -9.1070   20.4350 C   0  0  0  0  0  3  0  0  0  0  0  0
  -22.7670  -10.2970   20.2420 C   0  0  0  0  0  3  0  0  0  0  0  0
  -21.7330   -7.0010   21.4650 O   0  0  0  0  0  0  0  0  0  0  0  0
  -21.7000   -6.2610   22.6190 C   0  0  0  0  0  0  0  0  0  0  0  0
  -21.2680   -6.8110   23.8470 C   0  0  0  0  0  3  0  0  0  0  0  0
  -21.1870   -5.9970   24.9930 C   0  0  0  0  0  3  0  0  0  0  0  0
  -21.5250   -4.6320   24.9140 C   0  0  0  0  0  0  0  0  0  0  0  0
  -21.9520   -4.0820   23.6920 C   0  0  0  0  0  3  0  0  0  0  0  0
  -22.0350   -4.8940   22.5480 C   0  0  0  0  0  0  0  0  0  0  0  0
  -22.4260   -4.3540   21.3690 F   0  0  0  0  0  0  0  0  0  0  0  0
  -21.4380   -3.8490   26.0140 F   0  0  0  0  0  0  0  0  0  0  0  0
  -22.8080  -13.6440   21.1680 C   0  0  0  0  0  0  0  0  0  0  0  0
  -22.1070  -12.9330   22.0430 N   0  0  0  0  0  0  0  0  0  0  0  0
  -22.3570  -14.6800   20.6800 O   0  0  0  0  0  0  0  0  0  0  0  0
  -22.4850  -12.0930   22.4550 H   0  0  0  0  0  0  0  0  0  0  0  0
  -21.1790  -13.2330   22.3060 H   0  0  0  0  0  0  0  0  0  0  0  0
  -25.4090  -15.3200   20.2750 N   0  0  0  0  0  0  0  0  0  0  0  0
  -24.6510  -15.9760   20.4270 H   0  0  0  0  0  0  0  0  0  0  0  0
  -26.2460  -15.7590   19.9150 H   0  0  0  0  0  0  0  0  0  0  0  0
  -30.8330  -22.8070   19.4970 C   0  0  0  0  0  1  0  0  0  0  0  0
  -29.5330  -22.2560   19.8890 N   0  0  0  0  0  0  0  0  0  0  0  0
  -28.6630  -23.3910   20.5130 C   0  0  0  0  0  2  0  0  0  0  0  0
  -28.3570  -24.8450   19.7080 C   0  0  0  0  0  2  0  0  0  0  0  0
  -28.3090  -26.2900   20.2790 O   0  0  0  0  0  0  0  0  0  0  0  0
  -24.6110  -31.8990   23.2430 C   0  0  0  0  0  0  0  0  0  0  0  0
  -27.2210  -27.2300   20.1810 C   0  0  0  0  0  0  0  0  0  0  0  0
  -23.4210  -30.5050   21.5960 C   0  0  0  0  0  3  0  0  0  0  0  0
  -24.8780  -28.9500   20.1630 C   0  0  0  0  0  0  0  0  0  0  0  0
  -25.9720  -30.7920   21.4330 C   0  0  0  0  0  2  0  0  0  0  0  0
  -26.0540  -29.4030   20.7730 C   0  0  0  0  0  0  0  0  0  0  0  0
  -27.2230  -28.5570   20.7680 C   0  0  0  0  0  3  0  0  0  0  0  0
  -26.0120  -26.8710   19.5400 C   0  0  0  0  0  3  0  0  0  0  0  0
  -24.8680  -27.6960   19.5350 C   0  0  0  0  0  3  0  0  0  0  0  0
  -23.6480  -29.8430   20.2100 C   0  0  0  0  0  2  0  0  0  0  0  0
  -24.6880  -31.0870   22.1460 N   0  0  0  0  0  0  0  0  0  0  0  0
  -23.5230  -32.1740   23.7730 O   0  0  0  0  0  0  0  0  0  0  0  0
  -22.7500  -29.4860   22.5490 C   0  0  0  0  0  0  0  0  0  0  0  0
  -21.4230  -29.3120   22.4220 N   0  0  0  0  0  0  0  0  0  0  0  0
  -23.4240  -28.8580   23.3670 O   0  0  0  0  0  0  0  0  0  0  0  0
  -20.9380  -29.8780   21.7420 H   0  0  0  0  0  0  0  0  0  0  0  0
  -18.0420  -28.1070   22.9170 C   0  0  0  0  0  0  0  0  0  0  0  0
  -20.6030  -28.3680   23.1860 C   0  0  0  0  0  3  0  0  0  0  0  0
  -20.7040  -26.9420   22.6000 C   0  0  0  0  0  2  0  0  0  0  0  0
  -19.6000  -26.6250   21.5840 C   0  0  0  0  0  2  0  0  0  0  0  0
  -18.2190  -26.7640   22.2310 C   0  0  0  0  0  2  0  0  0  0  0  0
  -19.1630  -28.8680   23.3510 C   0  0  0  0  0  0  0  0  0  0  0  0
  -18.9440  -30.1230   23.9560 C   0  0  0  0  0  3  0  0  0  0  0  0
  -17.6380  -30.6200   24.1340 C   0  0  0  0  0  3  0  0  0  0  0  0
  -16.5330  -29.8580   23.7160 C   0  0  0  0  0  3  0  0  0  0  0  0
  -16.7370  -28.6040   23.1120 C   0  0  0  0  0  3  0  0  0  0  0  0
  -25.8850  -32.5370   23.8760 C   0  0  0  0  0  3  0  0  0  0  0  0
  -26.3810  -31.7820   25.1690 C   0  0  1  0  0  0  0  0  0  0  0  0
  -25.2730  -31.5620   26.2260 C   0  0  0  0  0  1  0  0  0  0  0  0
  -26.9700  -30.4010   24.8060 C   0  0  0  0  0  1  0  0  0  0  0  0
  -27.5220  -32.5840   25.8370 C   0  0  0  0  0  1  0  0  0  0  0  0
  -25.5740  -33.9410   24.1890 N   0  0  0  0  0  0  0  0  0  0  0  0
  -25.9090  -34.9890   23.4250 C   0  0  0  0  0  0  0  0  0  0  0  0
  -26.5830  -34.8760   22.3980 O   0  0  0  0  0  0  0  0  0  0  0  0
  -24.9780  -34.1020   24.9880 H   0  0  0  0  0  0  0  0  0  0  0  0
  -24.1890  -36.7870   23.0510 C   0  0  0  0  0  1  0  0  0  0  0  0
  -25.4240  -36.3840   23.8720 C   0  0  0  0  0  3  0  0  0  0  0  0
  -27.5540  -37.2730   24.7090 C   0  0  0  0  0  1  0  0  0  0  0  0
  -26.4590  -37.4330   23.7560 N   0  0  0  0  0  0  0  0  0  0  0  0
  -26.0550  -38.3570   23.8900 H   0  0  0  0  0  0  0  0  0  0  0  0
  2  1  1  0
  3  4  1  0
  4 16  1  0
  4  1  2  0
  5  2  2  0
  6  3  2  0
  6  5  1  0
  7  6  1  0
  8 16  1  0
  9 14  1  0
 10 11  1  0
 10  9  1  0
 12 11  1  0
 12 21  1  0
 12 13  1  0
 14  8  1  0
 14 13  1  0
 15  8  2  0
 16 17  1  0
 18 19  2  0
 19 38  1  0
 20 19  1  0
 20 23  1  0
 21 22  1  0
 21 18  1  0
 22 20  2  0
 23 24  1  0
 24 25  2  0
 26 29  1  0
 26 25  1  0
 27 26  2  0
 28 27  1  0
 28 23  2  0
 29 30  1  0
 30 31  1  0
 31 32  2  0
 33 32  1  0
 33 37  1  0
 34 33  2  0
 35 30  2  0
 35 34  1  0
 36 35  1  0
 38 39  1  0
 39 42  1  0
 39 41  1  0
 40 38  2  0
 43 44  1  0
 43 18  1  0
 45 43  1  0
 46 47  1  0
 47  5  1  0
 47 48  1  0
 49 50  1  0
 49 48  1  0
 51 62  2  0
 52 50  1  0
 52 57  1  0
 53 61  1  0
 53 63  1  0
 54 60  1  0
 54 56  1  0
 55 61  1  0
 56 55  1  0
 57 56  2  0
 58 52  2  0
 59 58  1  0
 59 54  2  0
 60 53  1  0
 61 51  1  0
 63 65  2  0
 64 63  1  0
 66 64  1  0
 67 76  2  0
 67 72  1  0
 68 64  1  0
 68 72  1  0
 69 68  1  0
 70 71  1  0
 70 69  1  0
 71 67  1  0
 72 73  2  0
 73 74  1  0
 75 74  2  0
 76 75  1  0
 77 51  1  0
 77 82  1  0
 77 78  1  0
 78 81  1  1
 78 79  1  0
 80 78  1  0
 82 85  1  0
 83 87  1  0
 83 82  1  0
 84 83  2  0
 87 86  1  0
 89 87  1  0
 89 90  1  0
 89 88  1  0
M  ISO  4   8 100  16 100  49 101  50 101
M  END
>  <TORSDO>  (59) 
F 19

>  <SCORE>  (59) 
-13.720

>  <name>  (59) 
59

>  <ligand_id>  (59) 
59

>  <original_smiles>  (59) 
[H]c1c([H])c([H])c2c(c1[H])C([H])([H])C([H])([H])C([H])([H])C2([H])N([H])C(=O)C1([H])N(C(=O)C([H])(N([H])C(=O)C([H])(N([H])C([H])([H])[H])C([H])([H])[H])C(C([H])([H])[H])(C([H])([H])[H])C([H])([H])[H])C([H])([H])c2c([H])c(OC([H])([H])C([H])([H])N(c3c([H])c([H])c(N([H])C(=O)N4C([H])([H])C([H])([H])C([H])([H])C([H])(n5nc(-c6c([H])c([H])c(Oc7c([H])c([H])c(F)c([H])c7F)c([H])c6[H])c(C(=O)N([H])[H])c5N([H])[H])C4([H])[H])c([H])c3F)C([H])([H])[H])c([H])c([H])c2C1([H])[H]

>  <smiles>  (59) 
[H]c1c([H])c([H])c2c(c1[H])C([H])([H])C([H])([H])C([H])([H])C2([H])N([H])C(=O)C1([H])N(C(=O)C([H])(N([H])C(=O)C([H])(N([H])C([H])([H])[H])C([H])([H])[H])C(C([H])([H])[H])(C([H])([H])[H])C([H])([H])[H])C([H])([H])c2c([H])c(OC([H])([H])C([H])([H])N(c3c([H])c([H])c(N([H])C(=O)N4C([H])([H])C([H])([H])C([H])([H])C([H])(n5nc(-c6c([H])c([H])c(Oc7c([H])c([H])c(F)c([H])c7F)c([H])c6[H])c(C(=O)N([H])[H])c5N([H])[H])C4([H])[H])c([H])c3F)C([H])([H])[H])c([H])c([H])c2C1([H])[H]

$$$$
60:0:0
     RDKit          3D

 92101  0  0  1  0  0  0  0  0999 V2000
  -28.4310  -23.8740   20.2010 C   0  0  0  0  0  0  0  0  0  0  0  0
  -29.8100  -25.1430   18.7640 C   0  0  0  0  0  2  0  0  0  0  0  0
  -30.0250  -23.6280   18.5730 C   0  0  0  0  0  2  0  0  0  0  0  0
  -28.4490  -25.2540   19.4370 C   0  0  0  0  0  3  0  0  0  0  0  0
  -29.2630  -22.9410   19.6230 N   0  0  0  0  0  0  0  0  0  0  0  0
  -27.7140  -23.6830   21.1900 O   0  0  0  0  0  0  0  0  0  0  0  0
  -29.3840  -19.3900   21.2260 C   0  0  0  0  0  3  0  0  0  0  0  0
  -30.4430  -19.3030   19.0790 C   0  0  0  0  0  3  0  0  0  0  0  0
  -29.0620  -20.7730   21.0230 C   0  0  0  0  0  3  0  0  0  0  0  0
  -30.1290  -20.6810   18.8810 C   0  0  0  0  0  3  0  0  0  0  0  0
  -30.1120  -18.6190   20.2730 C   0  0  0  0  0  0  0  0  0  0  0  0
  -29.4590  -21.4850   19.8530 C   0  0  0  0  0  0  0  0  0  0  0  0
  -30.7570  -17.2190   20.6290 C   0  0  0  0  0  2  0  0  0  0  0  0
  -30.8300  -14.7360   19.9570 C   0  0  0  0  0  0  0  0  0  0  0  0
  -30.5000  -12.4890   18.9370 C   0  0  0  0  0  2  0  0  0  0  0  0
  -29.4940  -12.5870   17.7720 C   0  0  0  0  0  2  0  0  0  0  0  0
  -28.0500  -12.4430   18.2910 C   0  0  0  0  0  2  0  0  0  0  0  0
  -27.7640  -13.3400   19.5250 C   0  0  0  0  0  3  0  0  0  0  0  0
  -28.8850  -13.2320   20.5810 C   0  0  0  0  0  2  0  0  0  0  0  0
  -30.1510  -13.5460   19.9100 N   0  0  0  0  0  0  0  0  0  0  0  0
  -31.9920  -14.8090   19.5480 O   0  0  0  0  0  0  0  0  0  0  0  0
  -30.1450  -15.8760   20.3110 N   0  0  0  0  0  0  0  0  0  0  0  0
  -29.1710  -15.7600   20.5440 H   0  0  0  0  0  0  0  0  0  0  0  0
  -25.4430  -13.9670   20.4220 C   0  0  0  0  0  0  0  0  0  0  0  0
  -24.3830  -13.2080   20.8390 C   0  0  0  0  0  0  0  0  0  0  0  0
  -24.8110  -11.8480   20.7420 C   0  0  0  0  0  0  0  0  0  0  0  0
  -26.4480  -13.0710   20.0950 N   0  0  0  0  0  0  0  0  0  0  0  0
  -26.0780  -11.7900   20.3500 N   0  0  0  0  0  0  0  0  0  0  0  0
  -24.0680  -10.5970   20.9440 C   0  0  0  0  0  0  0  0  0  0  0  0
  -24.5080   -9.6150   21.8580 C   0  0  0  0  0  3  0  0  0  0  0  0
  -23.7660   -8.4290   22.0480 C   0  0  0  0  0  3  0  0  0  0  0  0
  -22.5680   -8.2190   21.3240 C   0  0  0  0  0  0  0  0  0  0  0  0
  -22.1450   -9.1890   20.4000 C   0  0  0  0  0  3  0  0  0  0  0  0
  -22.8890  -10.3660   20.2070 C   0  0  0  0  0  3  0  0  0  0  0  0
  -21.7940   -7.0880   21.4260 O   0  0  0  0  0  0  0  0  0  0  0  0
  -21.7330   -6.3590   22.5870 C   0  0  0  0  0  0  0  0  0  0  0  0
  -21.2870   -6.9270   23.8000 C   0  0  0  0  0  3  0  0  0  0  0  0
  -21.1740   -6.1240   24.9540 C   0  0  0  0  0  3  0  0  0  0  0  0
  -21.4960   -4.7560   24.8940 C   0  0  0  0  0  0  0  0  0  0  0  0
  -21.9350   -4.1870   23.6850 C   0  0  0  0  0  3  0  0  0  0  0  0
  -22.0500   -4.9870   22.5340 C   0  0  0  0  0  0  0  0  0  0  0  0
  -22.4530   -4.4300   21.3670 F   0  0  0  0  0  0  0  0  0  0  0  0
  -21.3810   -3.9820   25.9990 F   0  0  0  0  0  0  0  0  0  0  0  0
  -23.0190  -13.7080   21.2120 C   0  0  0  0  0  0  0  0  0  0  0  0
  -22.3310  -13.0060   22.1050 N   0  0  0  0  0  0  0  0  0  0  0  0
  -22.5740  -14.7570   20.7470 O   0  0  0  0  0  0  0  0  0  0  0  0
  -22.7060  -12.1560   22.5010 H   0  0  0  0  0  0  0  0  0  0  0  0
  -21.4170  -13.3220   22.3970 H   0  0  0  0  0  0  0  0  0  0  0  0
  -25.6280  -15.3390   20.2700 N   0  0  0  0  0  0  0  0  0  0  0  0
  -24.8830  -16.0050   20.4450 H   0  0  0  0  0  0  0  0  0  0  0  0
  -26.4570  -15.7690   19.8820 H   0  0  0  0  0  0  0  0  0  0  0  0
  -28.3270  -26.5260   20.2040 O   0  0  0  0  0  0  0  0  0  0  0  0
  -24.5770  -31.9030   23.2380 C   0  0  0  0  0  0  0  0  0  0  0  0
  -27.1820  -27.3460   20.1520 C   0  0  0  0  0  0  0  0  0  0  0  0
  -23.3670  -30.5070   21.6010 C   0  0  0  0  0  3  0  0  0  0  0  0
  -24.8120  -28.9610   20.1660 C   0  0  0  0  0  0  0  0  0  0  0  0
  -25.9060  -30.8270   21.4070 C   0  0  0  0  0  2  0  0  0  0  0  0
  -25.9830  -29.4490   20.7560 C   0  0  0  0  0  0  0  0  0  0  0  0
  -27.1680  -28.6510   20.7400 C   0  0  0  0  0  3  0  0  0  0  0  0
  -25.9740  -26.9050   19.5620 C   0  0  0  0  0  3  0  0  0  0  0  0
  -24.8090  -27.6950   19.5640 C   0  0  0  0  0  3  0  0  0  0  0  0
  -23.5750  -29.8350   20.2190 C   0  0  0  0  0  2  0  0  0  0  0  0
  -24.6360  -31.0960   22.1380 N   0  0  0  0  0  0  0  0  0  0  0  0
  -23.4960  -32.1780   23.7780 O   0  0  0  0  0  0  0  0  0  0  0  0
  -22.7110  -29.4870   22.5620 C   0  0  0  0  0  0  0  0  0  0  0  0
  -21.3890  -29.2910   22.4250 N   0  0  0  0  0  0  0  0  0  0  0  0
  -23.3910  -28.8750   23.3900 O   0  0  0  0  0  0  0  0  0  0  0  0
  -20.8980  -29.8370   21.7300 H   0  0  0  0  0  0  0  0  0  0  0  0
  -18.0270  -28.0360   22.8870 C   0  0  0  0  0  0  0  0  0  0  0  0
  -20.5750  -28.3480   23.1950 C   0  0  0  0  0  3  0  0  0  0  0  0
  -20.7140  -26.9110   22.6410 C   0  0  0  0  0  2  0  0  0  0  0  0
  -19.6350  -26.5530   21.6140 C   0  0  0  0  0  2  0  0  0  0  0  0
  -18.2400  -26.6820   22.2320 C   0  0  0  0  0  2  0  0  0  0  0  0
  -19.1240  -28.8250   23.3240 C   0  0  0  0  0  0  0  0  0  0  0  0
  -18.8720  -30.0920   23.8940 C   0  0  0  0  0  3  0  0  0  0  0  0
  -17.5550  -30.5700   24.0320 C   0  0  0  0  0  3  0  0  0  0  0  0
  -16.4730  -29.7790   23.6110 C   0  0  0  0  0  3  0  0  0  0  0  0
  -16.7100  -28.5130   23.0440 C   0  0  0  0  0  3  0  0  0  0  0  0
  -25.8610  -32.5370   23.8560 C   0  0  0  0  0  3  0  0  0  0  0  0
  -25.5560  -33.9380   24.1770 N   0  0  0  0  0  0  0  0  0  0  0  0
  -25.8770  -34.9850   23.4040 C   0  0  0  0  0  0  0  0  0  0  0  0
  -26.5340  -34.8720   22.3650 O   0  0  0  0  0  0  0  0  0  0  0  0
  -24.9740  -34.1000   24.9850 H   0  0  0  0  0  0  0  0  0  0  0  0
  -24.1420  -36.7730   23.0620 C   0  0  0  0  0  1  0  0  0  0  0  0
  -25.3970  -36.3770   23.8560 C   0  0  0  0  0  3  0  0  0  0  0  0
  -27.5390  -37.2780   24.6490 C   0  0  0  0  0  1  0  0  0  0  0  0
  -26.4260  -37.4300   23.7150 N   0  0  0  0  0  0  0  0  0  0  0  0
  -26.0200  -38.3520   23.8530 H   0  0  0  0  0  0  0  0  0  0  0  0
  -26.3750  -31.7740   25.1380 C   0  0  1  0  0  0  0  0  0  0  0  0
  -25.2790  -31.5440   26.2060 C   0  0  0  0  0  1  0  0  0  0  0  0
  -26.9590  -30.3940   24.7580 C   0  0  0  0  0  1  0  0  0  0  0  0
  -27.5230  -32.5730   25.7990 C   0  0  0  0  0  1  0  0  0  0  0  0
  1  6  2  0
  2  4  1  0
  3  2  1  0
  3  5  1  0
  4  1  1  0
  4 52  1  0
  5 12  1  0
  5  1  1  0
  8 11  1  0
  9  7  1  0
 10  8  2  0
 10 12  1  0
 11 13  1  0
 11  7  2  0
 12  9  2  0
 14 22  1  0
 15 20  1  0
 16 17  1  0
 16 15  1  0
 18 17  1  0
 18 27  1  0
 18 19  1  0
 20 14  1  0
 20 19  1  0
 21 14  2  0
 22 23  1  0
 22 13  1  0
 24 25  2  0
 25 44  1  0
 26 25  1  0
 26 29  1  0
 27 28  1  0
 27 24  1  0
 28 26  2  0
 29 30  1  0
 30 31  2  0
 32 35  1  0
 32 31  1  0
 33 32  2  0
 34 33  1  0
 34 29  2  0
 35 36  1  0
 36 37  1  0
 37 38  2  0
 39 38  1  0
 39 43  1  0
 40 39  2  0
 41 36  2  0
 41 40  1  0
 42 41  1  0
 44 45  1  0
 45 48  1  0
 45 47  1  0
 46 44  2  0
 49 24  1  0
 49 50  1  0
 51 49  1  0
 53 64  2  0
 54 52  1  0
 54 59  1  0
 55 63  1  0
 55 65  1  0
 56 62  1  0
 56 58  1  0
 57 63  1  0
 58 57  1  0
 59 58  2  0
 60 61  1  0
 60 54  2  0
 61 56  2  0
 62 55  1  0
 63 53  1  0
 65 67  2  0
 66 65  1  0
 68 66  1  0
 69 78  2  0
 69 74  1  0
 70 66  1  0
 70 74  1  0
 71 70  1  0
 72 73  1  0
 72 71  1  0
 73 69  1  0
 74 75  2  0
 75 76  1  0
 77 76  2  0
 78 77  1  0
 79 53  1  0
 79 80  1  0
 79 89  1  0
 80 83  1  0
 81 85  1  0
 81 80  1  0
 82 81  2  0
 85 84  1  0
 87 88  1  0
 87 85  1  0
 87 86  1  0
 89 92  1  1
 89 90  1  0
 91 89  1  0
M  ISO  4   4 101  14 100  22 100  52 101
M  END
>  <TORSDO>  (60) 
F 18

>  <SCORE>  (60) 
-14.263

>  <name>  (60) 
60

>  <ligand_id>  (60) 
60

>  <original_smiles>  (60) 
[H]c1c([H])c([H])c2c(c1[H])C([H])([H])C([H])([H])C([H])([H])C2([H])N([H])C(=O)C1([H])N(C(=O)C([H])(N([H])C(=O)C([H])(N([H])C([H])([H])[H])C([H])([H])[H])C(C([H])([H])[H])(C([H])([H])[H])C([H])([H])[H])C([H])([H])c2c([H])c(OC3([H])C(=O)N(c4c([H])c([H])c(C([H])([H])N([H])C(=O)N5C([H])([H])C([H])([H])C([H])([H])C([H])(n6nc(-c7c([H])c([H])c(Oc8c([H])c([H])c(F)c([H])c8F)c([H])c7[H])c(C(=O)N([H])[H])c6N([H])[H])C5([H])[H])c([H])c4[H])C([H])([H])C3([H])[H])c([H])c([H])c2C1([H])[H]

>  <smiles>  (60) 
[H]c1c([H])c([H])c2c(c1[H])C([H])([H])C([H])([H])C([H])([H])C2([H])N([H])C(=O)C1([H])N(C(=O)C([H])(N([H])C(=O)C([H])(N([H])C([H])([H])[H])C([H])([H])[H])C(C([H])([H])[H])(C([H])([H])[H])C([H])([H])[H])C([H])([H])c2c([H])c(OC3([H])C(=O)N(c4c([H])c([H])c(C([H])([H])N([H])C(=O)N5C([H])([H])C([H])([H])C([H])([H])C([H])(n6nc(-c7c([H])c([H])c(Oc8c([H])c([H])c(F)c([H])c8F)c([H])c7[H])c(C(=O)N([H])[H])c6N([H])[H])C5([H])[H])c([H])c4[H])C([H])([H])C3([H])[H])c([H])c([H])c2C1([H])[H]

$$$$
61:0:0
     RDKit          3D

 91 99  0  0  1  0  0  0  0  0999 V2000
  -29.9050  -17.8210   18.8840 C   0  0  0  0  0  3  0  0  0  0  0  0
  -30.9420  -18.5290   20.9180 C   0  0  0  0  0  3  0  0  0  0  0  0
  -29.6190  -19.1920   18.5840 C   0  0  0  0  0  3  0  0  0  0  0  0
  -30.6450  -19.8980   20.6230 C   0  0  0  0  0  3  0  0  0  0  0  0
  -30.5810  -17.4270   20.0720 C   0  0  0  0  0  0  0  0  0  0  0  0
  -29.9720  -20.2790   19.4340 C   0  0  0  0  0  0  0  0  0  0  0  0
  -31.3090  -15.0040   19.5950 C   0  0  0  0  0  0  0  0  0  0  0  0
  -30.9510  -12.7830   18.4910 C   0  0  0  0  0  2  0  0  0  0  0  0
  -29.8790  -12.8860   17.3830 C   0  0  0  0  0  2  0  0  0  0  0  0
  -28.4670  -12.6940   17.9680 C   0  0  0  0  0  2  0  0  0  0  0  0
  -28.2330  -13.5700   19.2250 C   0  0  0  0  0  3  0  0  0  0  0  0
  -29.4000  -13.4280   20.2220 C   0  0  0  0  0  2  0  0  0  0  0  0
  -30.6440  -13.7960   19.5280 N   0  0  0  0  0  0  0  0  0  0  0  0
  -32.3220  -15.1840   18.9100 O   0  0  0  0  0  0  0  0  0  0  0  0
  -30.8420  -16.0020   20.4430 N   0  0  0  0  0  0  0  0  0  0  0  0
  -25.9670  -14.1670   20.2760 C   0  0  0  0  0  0  0  0  0  0  0  0
  -24.9340  -13.3930   20.7330 C   0  0  0  0  0  0  0  0  0  0  0  0
  -25.3550  -12.0370   20.5710 C   0  0  0  0  0  0  0  0  0  0  0  0
  -26.9480  -13.2830   19.8580 N   0  0  0  0  0  0  0  0  0  0  0  0
  -26.5940  -11.9930   20.0940 N   0  0  0  0  0  0  0  0  0  0  0  0
  -24.6240  -10.7810   20.7810 C   0  0  0  0  0  0  0  0  0  0  0  0
  -25.0580   -9.8220   21.7230 C   0  0  0  0  0  3  0  0  0  0  0  0
  -24.3280   -8.6300   21.9190 C   0  0  0  0  0  3  0  0  0  0  0  0
  -23.1490   -8.3880   21.1740 C   0  0  0  0  0  0  0  0  0  0  0  0
  -22.7350   -9.3350   20.2200 C   0  0  0  0  0  3  0  0  0  0  0  0
  -23.4650  -10.5180   20.0220 C   0  0  0  0  0  3  0  0  0  0  0  0
  -22.3900   -7.2470   21.2780 O   0  0  0  0  0  0  0  0  0  0  0  0
  -22.2030   -6.6150   22.4810 C   0  0  0  0  0  0  0  0  0  0  0  0
  -21.6310   -7.2790   23.5880 C   0  0  0  0  0  3  0  0  0  0  0  0
  -21.3950   -6.5740   24.7860 C   0  0  0  0  0  3  0  0  0  0  0  0
  -21.7180   -5.2060   24.8740 C   0  0  0  0  0  0  0  0  0  0  0  0
  -22.2820   -4.5430   23.7700 C   0  0  0  0  0  3  0  0  0  0  0  0
  -22.5220   -5.2460   22.5760 C   0  0  0  0  0  0  0  0  0  0  0  0
  -23.0460   -4.5990   21.5080 F   0  0  0  0  0  0  0  0  0  0  0  0
  -21.4830   -4.5250   26.0200 F   0  0  0  0  0  0  0  0  0  0  0  0
  -23.5960  -13.8800   21.2060 C   0  0  0  0  0  0  0  0  0  0  0  0
  -22.9820  -13.1700   22.1470 N   0  0  0  0  0  0  0  0  0  0  0  0
  -23.1100  -14.9250   20.7780 O   0  0  0  0  0  0  0  0  0  0  0  0
  -23.3870  -12.3240   22.5190 H   0  0  0  0  0  0  0  0  0  0  0  0
  -22.0900  -13.4800   22.5040 H   0  0  0  0  0  0  0  0  0  0  0  0
  -26.1480  -15.5410   20.1600 N   0  0  0  0  0  0  0  0  0  0  0  0
  -25.4340  -16.2080   20.4320 H   0  0  0  0  0  0  0  0  0  0  0  0
  -26.9800  -15.9800   19.7880 H   0  0  0  0  0  0  0  0  0  0  0  0
  -31.0830  -15.7070   21.8740 C   0  0  0  0  0  2  0  0  0  0  0  0
  -30.9280  -17.3050   23.8300 C   0  0  0  0  0  2  0  0  0  0  0  0
  -30.3420  -16.6400   22.8230 C   0  0  0  0  0  3  0  0  0  0  0  0
  -29.6620  -21.6020   19.0320 O   0  0  0  0  0  0  0  0  0  0  0  0
  -29.5830  -22.7620   19.9370 C   0  0  0  0  0  3  0  0  0  0  0  0
  -29.2600  -24.1710   19.2290 C   0  0  0  0  0  3  0  0  0  0  0  0
  -28.7830  -25.4120   20.1160 C   0  0  0  0  0  2  0  0  0  0  0  0
  -28.8010  -26.7910   19.5620 O   0  0  0  0  0  0  0  0  0  0  0  0
  -24.8070  -31.6560   23.1180 C   0  0  0  0  0  0  0  0  0  0  0  0
  -27.6330  -27.5610   19.6470 C   0  0  0  0  0  0  0  0  0  0  0  0
  -23.6620  -30.3520   21.3590 C   0  0  0  0  0  3  0  0  0  0  0  0
  -25.1800  -29.0210   19.7890 C   0  0  0  0  0  0  0  0  0  0  0  0
  -26.1760  -30.8320   21.1880 C   0  0  0  0  0  2  0  0  0  0  0  0
  -26.3250  -29.5270   20.4190 C   0  0  0  0  0  0  0  0  0  0  0  0
  -27.5590  -28.8150   20.3300 C   0  0  0  0  0  3  0  0  0  0  0  0
  -26.4670  -27.1020   19.0070 C   0  0  0  0  0  3  0  0  0  0  0  0
  -25.2530  -27.8150   19.0710 C   0  0  0  0  0  3  0  0  0  0  0  0
  -23.8970  -29.8160   19.9230 C   0  0  0  0  0  2  0  0  0  0  0  0
  -24.9000  -30.9590   21.9470 N   0  0  0  0  0  0  0  0  0  0  0  0
  -23.7150  -31.8240   23.6810 O   0  0  0  0  0  0  0  0  0  0  0  0
  -23.0640  -29.2160   22.2250 C   0  0  0  0  0  0  0  0  0  0  0  0
  -21.7450  -28.9860   22.0980 N   0  0  0  0  0  0  0  0  0  0  0  0
  -23.7860  -28.5490   22.9690 O   0  0  0  0  0  0  0  0  0  0  0  0
  -21.2180  -29.5750   21.4680 H   0  0  0  0  0  0  0  0  0  0  0  0
  -18.4370  -27.5960   22.5290 C   0  0  0  0  0  0  0  0  0  0  0  0
  -20.9840  -27.9490   22.7940 C   0  0  0  0  0  3  0  0  0  0  0  0
  -21.1390  -26.5770   22.1020 C   0  0  0  0  0  2  0  0  0  0  0  0
  -20.0470  -26.3020   21.0620 C   0  0  0  0  0  2  0  0  0  0  0  0
  -18.6660  -26.3270   21.7240 C   0  0  0  0  0  2  0  0  0  0  0  0
  -19.5270  -28.3670   23.0160 C   0  0  0  0  0  0  0  0  0  0  0  0
  -19.2600  -29.5580   23.7270 C   0  0  0  0  0  3  0  0  0  0  0  0
  -17.9360  -29.9740   23.9610 C   0  0  0  0  0  3  0  0  0  0  0  0
  -16.8620  -29.1980   23.4940 C   0  0  0  0  0  3  0  0  0  0  0  0
  -17.1120  -28.0120   22.7820 C   0  0  0  0  0  3  0  0  0  0  0  0
  -26.0610  -32.2980   23.7880 C   0  0  0  0  0  3  0  0  0  0  0  0
  -25.6840  -33.6480   24.2350 N   0  0  0  0  0  0  0  0  0  0  0  0
  -25.9770  -34.7790   23.5790 C   0  0  0  0  0  0  0  0  0  0  0  0
  -26.6600  -34.7970   22.5510 O   0  0  0  0  0  0  0  0  0  0  0  0
  -25.0760  -33.7050   25.0370 H   0  0  0  0  0  0  0  0  0  0  0  0
  -24.1730  -36.5200   23.3630 C   0  0  0  0  0  1  0  0  0  0  0  0
  -25.4250  -36.0980   24.1510 C   0  0  0  0  0  3  0  0  0  0  0  0
  -27.5100  -36.9980   25.0830 C   0  0  0  0  0  1  0  0  0  0  0  0
  -26.4100  -37.2020   24.1440 N   0  0  0  0  0  0  0  0  0  0  0  0
  -25.9620  -38.0860   24.3660 H   0  0  0  0  0  0  0  0  0  0  0  0
  -26.6230  -31.4490   24.9940 C   0  0  1  0  0  0  0  0  0  0  0  0
  -25.5520  -31.0750   26.0430 C   0  0  0  0  0  1  0  0  0  0  0  0
  -27.2650  -30.1370   24.4850 C   0  0  0  0  0  1  0  0  0  0  0  0
  -27.7410  -32.2380   25.7150 C   0  0  0  0  0  1  0  0  0  0  0  0
  1  5  1  0
  3  1  2  0
  3  6  1  0
  4  2  1  0
  5 15  1  0
  5  2  2  0
  6  4  2  0
  7 15  1  0
  8 13  1  0
  9 10  1  0
  9  8  1  0
 11 10  1  0
 11 19  1  0
 11 12  1  0
 13  7  1  0
 13 12  1  0
 14  7  2  0
 15 44  1  0
 16 17  2  0
 17 36  1  0
 18 17  1  0
 18 21  1  0
 19 20  1  0
 19 16  1  0
 20 18  2  0
 21 22  1  0
 22 23  2  0
 24 27  1  0
 24 23  1  0
 25 24  2  0
 26 25  1  0
 26 21  2  0
 27 28  1  0
 28 33  2  0
 28 29  1  0
 29 30  2  0
 30 31  1  0
 31 35  1  0
 32 31  2  0
 33 32  1  0
 34 33  1  0
 36 37  1  0
 37 40  1  0
 37 39  1  0
 38 36  2  0
 41 16  1  0
 41 42  1  0
 43 41  1  0
 44 46  1  0
 46 45  2  0
 47  6  1  0
 47 48  1  0
 49 48  2  0
 49 50  1  0
 51 53  1  0
 51 50  1  0
 52 63  2  0
 53 58  1  0
 54 62  1  0
 54 64  1  0
 55 61  1  0
 55 57  1  0
 56 62  1  0
 57 56  1  0
 58 57  2  0
 59 60  1  0
 59 53  2  0
 60 55  2  0
 61 54  1  0
 62 52  1  0
 64 66  2  0
 65 64  1  0
 67 65  1  0
 68 77  2  0
 68 73  1  0
 69 65  1  0
 69 73  1  0
 70 69  1  0
 71 72  1  0
 71 70  1  0
 72 68  1  0
 73 74  2  0
 74 75  1  0
 76 75  2  0
 77 76  1  0
 78 52  1  0
 78 79  1  0
 78 88  1  0
 79 82  1  0
 80 84  1  0
 80 79  1  0
 81 80  2  0
 84 83  1  0
 86 84  1  0
 86 87  1  0
 86 85  1  0
 88 91  1  1
 88 89  1  0
 90 88  1  0
M  ISO  4   7 100  15 100  50 101  51 101
M  END
>  <TORSDO>  (61) 
F 22

>  <SCORE>  (61) 
-9.317

>  <name>  (61) 
61

>  <ligand_id>  (61) 
61

>  <original_smiles>  (61) 
[H]C([H])=C([H])C([H])([H])N(C(=O)N1C([H])([H])C([H])([H])C([H])([H])C([H])(n2nc(-c3c([H])c([H])c(Oc4c([H])c([H])c(F)c([H])c4F)c([H])c3[H])c(C(=O)N([H])[H])c2N([H])[H])C1([H])[H])c1c([H])c([H])c(OC([H])([H])C([H])([H])C([H])([H])Oc2c([H])c([H])c3c(c2[H])C([H])([H])N(C(=O)C([H])(N([H])C(=O)C([H])(N([H])C([H])([H])[H])C([H])([H])[H])C(C([H])([H])[H])(C([H])([H])[H])C([H])([H])[H])C([H])(C(=O)N([H])C2([H])c4c([H])c([H])c([H])c([H])c4C([H])([H])C([H])([H])C2([H])[H])C3([H])[H])c([H])c1[H]

>  <smiles>  (61) 
[H]C([H])=C([H])C([H])([H])N(C(=O)N1C([H])([H])C([H])([H])C([H])([H])C([H])(n2nc(-c3c([H])c([H])c(Oc4c([H])c([H])c(F)c([H])c4F)c([H])c3[H])c(C(=O)N([H])[H])c2N([H])[H])C1([H])[H])c1c([H])c([H])c(OC([H])([H])C([H])([H])C([H])([H])Oc2c([H])c([H])c3c(c2[H])C([H])([H])N(C(=O)C([H])(N([H])C(=O)C([H])(N([H])C([H])([H])[H])C([H])([H])[H])C(C([H])([H])[H])(C([H])([H])[H])C([H])([H])[H])C([H])(C(=O)N([H])C2([H])c4c([H])c([H])c([H])c([H])c4C([H])([H])C([H])([H])C2([H])[H])C3([H])[H])c([H])c1[H]

$$$$
62:0:0
     RDKit          3D

 91 99  0  0  1  0  0  0  0  0999 V2000
  -29.9290  -21.5600   22.7750 C   0  0  0  0  0  1  0  0  0  0  0  0
  -29.5510  -21.7140   21.3730 N   0  0  0  0  0  0  0  0  0  0  0  0
  -29.6640  -19.4570   18.3930 C   0  0  0  0  0  3  0  0  0  0  0  0
  -29.5350  -18.1740   18.9580 C   0  0  0  0  0  3  0  0  0  0  0  0
  -29.6440  -20.6070   19.2050 C   0  0  0  0  0  3  0  0  0  0  0  0
  -29.3730  -19.1940   21.1640 C   0  0  0  0  0  3  0  0  0  0  0  0
  -29.3850  -18.0140   20.3530 C   0  0  0  0  0  0  0  0  0  0  0  0
  -29.5120  -20.5090   20.6060 C   0  0  0  0  0  0  0  0  0  0  0  0
  -29.1320  -16.5890   20.9210 C   0  0  0  0  0  2  0  0  0  0  0  0
  -30.6740  -14.6530   20.2040 C   0  0  0  0  0  0  0  0  0  0  0  0
  -30.3020  -12.4570   19.1000 C   0  0  0  0  0  2  0  0  0  0  0  0
  -29.3440  -12.6160   17.9020 C   0  0  0  0  0  2  0  0  0  0  0  0
  -27.8870  -12.4530   18.3640 C   0  0  0  0  0  2  0  0  0  0  0  0
  -27.5660  -13.3230   19.6060 C   0  0  0  0  0  3  0  0  0  0  0  0
  -28.6440  -13.2050   20.7100 C   0  0  0  0  0  2  0  0  0  0  0  0
  -29.9500  -13.4910   20.1020 N   0  0  0  0  0  0  0  0  0  0  0  0
  -31.7590  -14.7540   19.6220 O   0  0  0  0  0  0  0  0  0  0  0  0
  -31.3490  -16.2400   21.8970 C   0  0  0  0  0  1  0  0  0  0  0  0
  -30.2880  -15.6490   21.0700 N   0  0  0  0  0  0  0  0  0  0  0  0
  -25.1960  -13.9430   20.3680 C   0  0  0  0  0  0  0  0  0  0  0  0
  -24.1360  -13.1810   20.7760 C   0  0  0  0  0  0  0  0  0  0  0  0
  -24.5850  -11.8280   20.7430 C   0  0  0  0  0  0  0  0  0  0  0  0
  -26.2280  -13.0540   20.1200 N   0  0  0  0  0  0  0  0  0  0  0  0
  -25.8660  -11.7750   20.4010 N   0  0  0  0  0  0  0  0  0  0  0  0
  -23.8520  -10.5720   20.9560 C   0  0  0  0  0  0  0  0  0  0  0  0
  -24.2970   -9.6050   21.8830 C   0  0  0  0  0  3  0  0  0  0  0  0
  -23.5630   -8.4150   22.0820 C   0  0  0  0  0  3  0  0  0  0  0  0
  -22.3730   -8.1850   21.3540 C   0  0  0  0  0  0  0  0  0  0  0  0
  -21.9480   -9.1400   20.4130 C   0  0  0  0  0  3  0  0  0  0  0  0
  -22.6820  -10.3210   20.2120 C   0  0  0  0  0  3  0  0  0  0  0  0
  -21.6080   -7.0500   21.4660 O   0  0  0  0  0  0  0  0  0  0  0  0
  -21.5750   -6.3140   22.6240 C   0  0  0  0  0  0  0  0  0  0  0  0
  -21.2020   -6.8840   23.8580 C   0  0  0  0  0  3  0  0  0  0  0  0
  -21.1160   -6.0780   25.0110 C   0  0  0  0  0  3  0  0  0  0  0  0
  -21.3950   -4.7000   24.9270 C   0  0  0  0  0  0  0  0  0  0  0  0
  -21.7620   -4.1290   23.6950 C   0  0  0  0  0  3  0  0  0  0  0  0
  -21.8500   -4.9350   22.5470 C   0  0  0  0  0  0  0  0  0  0  0  0
  -22.1840   -4.3760   21.3590 F   0  0  0  0  0  0  0  0  0  0  0  0
  -21.3080   -3.9210   26.0290 F   0  0  0  0  0  0  0  0  0  0  0  0
  -22.7490  -13.6730   21.0790 C   0  0  0  0  0  0  0  0  0  0  0  0
  -22.0330  -12.9860   21.9600 N   0  0  0  0  0  0  0  0  0  0  0  0
  -22.3100  -14.7030   20.5680 O   0  0  0  0  0  0  0  0  0  0  0  0
  -22.4000  -12.1490   22.3910 H   0  0  0  0  0  0  0  0  0  0  0  0
  -21.1010  -13.2960   22.2020 H   0  0  0  0  0  0  0  0  0  0  0  0
  -25.3590  -15.3090   20.1640 N   0  0  0  0  0  0  0  0  0  0  0  0
  -24.5680  -15.9410   20.2160 H   0  0  0  0  0  0  0  0  0  0  0  0
  -26.1490  -15.7140   19.6790 H   0  0  0  0  0  0  0  0  0  0  0  0
  -28.6120  -22.8100   21.0290 C   0  0  0  0  0  2  0  0  0  0  0  0
  -29.1760  -24.2780   20.9620 C   0  0  0  0  0  2  0  0  0  0  0  0
  -28.0060  -25.2810   20.6650 C   0  0  0  0  0  2  0  0  0  0  0  0
  -28.3130  -26.6550   20.2960 O   0  0  0  0  0  0  0  0  0  0  0  0
  -24.5930  -31.9720   23.2550 C   0  0  0  0  0  0  0  0  0  0  0  0
  -27.1900  -27.4710   20.1970 C   0  0  0  0  0  0  0  0  0  0  0  0
  -23.3770  -30.5720   21.6210 C   0  0  0  0  0  3  0  0  0  0  0  0
  -24.8180  -29.0360   20.1820 C   0  0  0  0  0  0  0  0  0  0  0  0
  -25.9090  -30.9110   21.4140 C   0  0  0  0  0  2  0  0  0  0  0  0
  -25.9860  -29.5400   20.7710 C   0  0  0  0  0  0  0  0  0  0  0  0
  -27.1740  -28.7630   20.7730 C   0  0  0  0  0  3  0  0  0  0  0  0
  -26.0060  -27.0080   19.5670 C   0  0  0  0  0  3  0  0  0  0  0  0
  -24.8270  -27.7750   19.5680 C   0  0  0  0  0  3  0  0  0  0  0  0
  -23.5750  -29.8970   20.2380 C   0  0  0  0  0  2  0  0  0  0  0  0
  -24.6470  -31.1670   22.1560 N   0  0  0  0  0  0  0  0  0  0  0  0
  -23.5140  -32.2480   23.7990 O   0  0  0  0  0  0  0  0  0  0  0  0
  -22.7270  -29.5540   22.5860 C   0  0  0  0  0  0  0  0  0  0  0  0
  -21.3980  -29.3780   22.4680 N   0  0  0  0  0  0  0  0  0  0  0  0
  -23.4130  -28.9280   23.3990 O   0  0  0  0  0  0  0  0  0  0  0  0
  -20.9050  -29.9350   21.7840 H   0  0  0  0  0  0  0  0  0  0  0  0
  -18.0180  -28.1970   22.9710 C   0  0  0  0  0  0  0  0  0  0  0  0
  -20.5790  -28.4440   23.2430 C   0  0  0  0  0  3  0  0  0  0  0  0
  -20.6740  -27.0080   22.6730 C   0  0  0  0  0  2  0  0  0  0  0  0
  -19.5720  -26.6880   21.6610 C   0  0  0  0  0  2  0  0  0  0  0  0
  -18.1890  -26.8460   22.3000 C   0  0  0  0  0  2  0  0  0  0  0  0
  -19.1400  -28.9550   23.3990 C   0  0  0  0  0  0  0  0  0  0  0  0
  -18.9280  -30.2260   23.9750 C   0  0  0  0  0  3  0  0  0  0  0  0
  -17.6240  -30.7310   24.1460 C   0  0  0  0  0  3  0  0  0  0  0  0
  -16.5170  -29.9660   23.7410 C   0  0  0  0  0  3  0  0  0  0  0  0
  -16.7140  -28.7040   23.1530 C   0  0  0  0  0  3  0  0  0  0  0  0
  -25.8830  -32.6080   23.8610 C   0  0  0  0  0  3  0  0  0  0  0  0
  -25.5780  -34.0050   24.1930 N   0  0  0  0  0  0  0  0  0  0  0  0
  -25.9000  -35.0590   23.4300 C   0  0  0  0  0  0  0  0  0  0  0  0
  -26.5610  -34.9590   22.3920 O   0  0  0  0  0  0  0  0  0  0  0  0
  -25.0030  -34.1640   25.0070 H   0  0  0  0  0  0  0  0  0  0  0  0
  -24.1680  -36.8470   23.1010 C   0  0  0  0  0  1  0  0  0  0  0  0
  -25.4190  -36.4430   23.8950 C   0  0  0  0  0  3  0  0  0  0  0  0
  -27.5650  -37.3280   24.6910 C   0  0  0  0  0  1  0  0  0  0  0  0
  -26.4450  -37.5000   23.7720 N   0  0  0  0  0  0  0  0  0  0  0  0
  -26.0370  -38.4160   23.9420 H   0  0  0  0  0  0  0  0  0  0  0  0
  -26.4080  -31.8380   25.1320 C   0  0  1  0  0  0  0  0  0  0  0  0
  -25.3270  -31.5940   26.2090 C   0  0  0  0  0  1  0  0  0  0  0  0
  -26.9930  -30.4660   24.7260 C   0  0  0  0  0  1  0  0  0  0  0  0
  -27.5660  -32.6330   25.7830 C   0  0  0  0  0  1  0  0  0  0  0  0
  2  1  1  0
  3  4  2  0
  3  5  1  0
  4  7  1  0
  5  8  2  0
  7  9  1  0
  7  6  2  0
  8  6  1  0
  8  2  1  0
  9 19  1  0
 10 19  1  0
 11 16  1  0
 12 13  1  0
 12 11  1  0
 14 13  1  0
 14 23  1  0
 14 15  1  0
 16 10  1  0
 16 15  1  0
 17 10  2  0
 19 18  1  0
 20 21  2  0
 21 40  1  0
 22 21  1  0
 22 25  1  0
 23 20  1  0
 23 24  1  0
 24 22  2  0
 25 26  1  0
 26 27  2  0
 28 31  1  0
 28 27  1  0
 29 28  2  0
 30 29  1  0
 30 25  2  0
 31 32  1  0
 32 33  1  0
 33 34  2  0
 35 34  1  0
 35 39  1  0
 36 35  2  0
 37 32  2  0
 37 36  1  0
 38 37  1  0
 40 41  1  0
 41 44  1  0
 41 43  1  0
 42 40  2  0
 45 46  1  0
 45 20  1  0
 47 45  1  0
 48  2  1  0
 49 48  1  0
 50 49  1  0
 51 50  1  0
 52 63  2  0
 53 51  1  0
 53 58  1  0
 54 62  1  0
 54 64  1  0
 55 61  1  0
 55 57  1  0
 56 62  1  0
 57 58  2  0
 57 56  1  0
 59 60  1  0
 59 53  2  0
 60 55  2  0
 61 54  1  0
 62 52  1  0
 64 66  2  0
 65 64  1  0
 67 65  1  0
 68 77  2  0
 68 73  1  0
 69 65  1  0
 69 73  1  0
 70 69  1  0
 71 72  1  0
 71 70  1  0
 72 68  1  0
 73 74  2  0
 74 75  1  0
 76 75  2  0
 77 76  1  0
 78 52  1  0
 78 79  1  0
 78 88  1  0
 79 82  1  0
 80 84  1  0
 80 79  1  0
 81 80  2  0
 84 83  1  0
 86 84  1  0
 86 87  1  0
 86 85  1  0
 88 91  1  1
 88 89  1  0
 90 88  1  0
M  ISO  4  10 100  19 100  50 101  51 101
M  END
>  <TORSDO>  (62) 
F 21

>  <SCORE>  (62) 
-13.324

>  <name>  (62) 
62

>  <ligand_id>  (62) 
62

>  <original_smiles>  (62) 
[H]c1c([H])c(N(C([H])([H])[H])C([H])([H])C([H])([H])C([H])([H])Oc2c([H])c([H])c3c(c2[H])C([H])([H])N(C(=O)C([H])(N([H])C(=O)C([H])(N([H])C([H])([H])[H])C([H])([H])[H])C(C([H])([H])[H])(C([H])([H])[H])C([H])([H])[H])C([H])(C(=O)N([H])C2([H])c4c([H])c([H])c([H])c([H])c4C([H])([H])C([H])([H])C2([H])[H])C3([H])[H])c([H])c(C([H])([H])N(C(=O)N2C([H])([H])C([H])([H])C([H])([H])C([H])(n3nc(-c4c([H])c([H])c(Oc5c([H])c([H])c(F)c([H])c5F)c([H])c4[H])c(C(=O)N([H])[H])c3N([H])[H])C2([H])[H])C([H])([H])[H])c1[H]

>  <smiles>  (62) 
[H]c1c([H])c(N(C([H])([H])[H])C([H])([H])C([H])([H])C([H])([H])Oc2c([H])c([H])c3c(c2[H])C([H])([H])N(C(=O)C([H])(N([H])C(=O)C([H])(N([H])C([H])([H])[H])C([H])([H])[H])C(C([H])([H])[H])(C([H])([H])[H])C([H])([H])[H])C([H])(C(=O)N([H])C2([H])c4c([H])c([H])c([H])c([H])c4C([H])([H])C([H])([H])C2([H])[H])C3([H])[H])c([H])c(C([H])([H])N(C(=O)N2C([H])([H])C([H])([H])C([H])([H])C([H])(n3nc(-c4c([H])c([H])c(Oc5c([H])c([H])c(F)c([H])c5F)c([H])c4[H])c(C(=O)N([H])[H])c3N([H])[H])C2([H])[H])C([H])([H])[H])c1[H]

$$$$
63:0:0
     RDKit          3D

 93101  0  0  1  0  0  0  0  0999 V2000
  -27.5700  -21.2480   22.0030 C   0  0  0  0  0  1  0  0  0  0  0  0
  -28.4700  -21.9970   21.0830 N   0  0  1  0  0  4  0  0  0  0  0  0
  -29.3540  -22.0510   21.5700 H   0  0  0  0  0  0  0  0  0  0  0  0
  -28.7930  -21.2600   19.8220 C   0  0  0  0  0  2  0  0  0  0  0  0
  -28.6700  -18.7490   19.3140 C   0  0  0  0  0  3  0  0  0  0  0  0
  -29.0720  -17.4100   19.5190 C   0  0  0  0  0  3  0  0  0  0  0  0
  -30.7550  -18.1570   21.1000 C   0  0  0  0  0  3  0  0  0  0  0  0
  -29.2950  -19.8120   20.0070 C   0  0  0  0  0  0  0  0  0  0  0  0
  -30.1000  -17.0930   20.4360 C   0  0  0  0  0  0  0  0  0  0  0  0
  -30.3720  -19.5020   20.8700 C   0  0  0  0  0  0  0  0  0  0  0  0
  -31.0020  -20.5040   21.5290 F   0  0  0  0  0  0  0  0  0  0  0  0
  -31.0060  -14.8000   20.0890 C   0  0  0  0  0  0  0  0  0  0  0  0
  -30.7430  -12.6020   18.9750 C   0  0  0  0  0  2  0  0  0  0  0  0
  -29.7520  -12.7580   17.8000 C   0  0  0  0  0  2  0  0  0  0  0  0
  -28.2940  -12.6040   18.2820 C   0  0  0  0  0  2  0  0  0  0  0  0
  -27.9890  -13.4710   19.5350 C   0  0  0  0  0  3  0  0  0  0  0  0
  -29.0790  -13.2620   20.6100 C   0  0  0  0  0  2  0  0  0  0  0  0
  -30.3840  -13.5890   20.0080 N   0  0  0  0  0  0  0  0  0  0  0  0
  -32.0730  -15.0450   19.5180 O   0  0  0  0  0  0  0  0  0  0  0  0
  -30.3380  -15.7310   20.8030 N   0  0  0  0  0  0  0  0  0  0  0  0
  -29.5920  -15.3160   21.3410 H   0  0  0  0  0  0  0  0  0  0  0  0
  -25.6320  -14.1040   20.3650 C   0  0  0  0  0  0  0  0  0  0  0  0
  -24.5690  -13.3370   20.7610 C   0  0  0  0  0  0  0  0  0  0  0  0
  -25.0070  -11.9810   20.6730 C   0  0  0  0  0  0  0  0  0  0  0  0
  -26.6520  -13.2120   20.0650 N   0  0  0  0  0  0  0  0  0  0  0  0
  -26.2800  -11.9280   20.3030 N   0  0  0  0  0  0  0  0  0  0  0  0
  -24.2700  -10.7250   20.8640 C   0  0  0  0  0  0  0  0  0  0  0  0
  -24.6300   -9.8030   21.8710 C   0  0  0  0  0  3  0  0  0  0  0  0
  -23.8960   -8.6110   22.0450 C   0  0  0  0  0  3  0  0  0  0  0  0
  -22.7880   -8.3310   21.2090 C   0  0  0  0  0  0  0  0  0  0  0  0
  -22.4500   -9.2410   20.1930 C   0  0  0  0  0  3  0  0  0  0  0  0
  -23.1840  -10.4260   20.0180 C   0  0  0  0  0  3  0  0  0  0  0  0
  -22.0330   -7.1870   21.2870 O   0  0  0  0  0  0  0  0  0  0  0  0
  -21.7730   -6.5760   22.4880 C   0  0  0  0  0  0  0  0  0  0  0  0
  -21.0730   -7.2330   23.5220 C   0  0  0  0  0  3  0  0  0  0  0  0
  -20.7680   -6.5440   24.7130 C   0  0  0  0  0  3  0  0  0  0  0  0
  -21.1530   -5.2000   24.8680 C   0  0  0  0  0  0  0  0  0  0  0  0
  -21.8470   -4.5420   23.8370 C   0  0  0  0  0  3  0  0  0  0  0  0
  -22.1550   -5.2290   22.6490 C   0  0  0  0  0  0  0  0  0  0  0  0
  -22.8040   -4.5840   21.6490 F   0  0  0  0  0  0  0  0  0  0  0  0
  -20.8530   -4.5340   26.0080 F   0  0  0  0  0  0  0  0  0  0  0  0
  -23.1930  -13.8290   21.1080 C   0  0  0  0  0  0  0  0  0  0  0  0
  -22.4940  -13.1190   21.9880 N   0  0  0  0  0  0  0  0  0  0  0  0
  -22.7490  -14.8750   20.6380 O   0  0  0  0  0  0  0  0  0  0  0  0
  -22.8670  -12.2750   22.3950 H   0  0  0  0  0  0  0  0  0  0  0  0
  -21.5690  -13.4270   22.2580 H   0  0  0  0  0  0  0  0  0  0  0  0
  -25.8020  -15.4760   20.2230 N   0  0  0  0  0  0  0  0  0  0  0  0
  -25.0330  -16.1140   20.3920 H   0  0  0  0  0  0  0  0  0  0  0  0
  -26.6380  -15.9470   19.9060 H   0  0  0  0  0  0  0  0  0  0  0  0
  -27.9540  -23.3960   20.9130 C   0  0  0  0  0  2  0  0  0  0  0  0
  -28.9210  -24.4580   20.3090 C   0  0  0  0  0  2  0  0  0  0  0  0
  -28.6090  -25.8860   20.8450 C   0  0  0  0  0  2  0  0  0  0  0  0
  -28.6490  -26.9600   19.8840 O   0  0  0  0  0  0  0  0  0  0  0  0
  -24.6090  -31.8480   23.1520 C   0  0  0  0  0  0  0  0  0  0  0  0
  -27.4830  -27.6920   19.8840 C   0  0  0  0  0  0  0  0  0  0  0  0
  -23.4710  -30.4520   21.4600 C   0  0  0  0  0  3  0  0  0  0  0  0
  -25.0050  -29.0490   19.9720 C   0  0  0  0  0  0  0  0  0  0  0  0
  -25.9700  -30.9610   21.2570 C   0  0  0  0  0  2  0  0  0  0  0  0
  -26.1360  -29.6200   20.5720 C   0  0  0  0  0  0  0  0  0  0  0  0
  -27.3810  -28.9460   20.5320 C   0  0  0  0  0  3  0  0  0  0  0  0
  -26.3390  -27.1370   19.2730 C   0  0  0  0  0  3  0  0  0  0  0  0
  -25.1020  -27.8060   19.3240 C   0  0  0  0  0  3  0  0  0  0  0  0
  -23.7070  -29.8220   20.0610 C   0  0  0  0  0  2  0  0  0  0  0  0
  -24.7030  -31.0990   22.0160 N   0  0  0  0  0  0  0  0  0  0  0  0
  -23.5170  -32.0380   23.7040 O   0  0  0  0  0  0  0  0  0  0  0  0
  -22.8850  -29.3630   22.3880 C   0  0  0  0  0  0  0  0  0  0  0  0
  -21.5730  -29.1170   22.2620 N   0  0  0  0  0  0  0  0  0  0  0  0
  -23.6080  -28.7430   23.1750 O   0  0  0  0  0  0  0  0  0  0  0  0
  -21.0450  -29.6930   21.6230 H   0  0  0  0  0  0  0  0  0  0  0  0
  -18.2750  -27.7190   22.7400 C   0  0  0  0  0  0  0  0  0  0  0  0
  -20.8200  -28.0910   22.9820 C   0  0  0  0  0  3  0  0  0  0  0  0
  -20.9920  -26.7030   22.3160 C   0  0  0  0  0  2  0  0  0  0  0  0
  -19.8790  -26.3680   21.3170 C   0  0  0  0  0  2  0  0  0  0  0  0
  -18.5030  -26.4150   21.9910 C   0  0  0  0  0  2  0  0  0  0  0  0
  -19.3620  -28.5130   23.1920 C   0  0  0  0  0  0  0  0  0  0  0  0
  -19.0980  -29.7330   23.8520 C   0  0  0  0  0  3  0  0  0  0  0  0
  -17.7740  -30.1640   24.0560 C   0  0  0  0  0  3  0  0  0  0  0  0
  -16.7010  -29.3680   23.6210 C   0  0  0  0  0  3  0  0  0  0  0  0
  -16.9520  -28.1450   22.9720 C   0  0  0  0  0  3  0  0  0  0  0  0
  -25.8550  -32.5260   23.7960 C   0  0  0  0  0  3  0  0  0  0  0  0
  -25.4820  -33.9050   24.1360 N   0  0  0  0  0  0  0  0  0  0  0  0
  -25.7880  -34.9820   23.3990 C   0  0  0  0  0  0  0  0  0  0  0  0
  -26.4850  -34.9180   22.3820 O   0  0  0  0  0  0  0  0  0  0  0  0
  -24.8610  -34.0230   24.9230 H   0  0  0  0  0  0  0  0  0  0  0  0
  -24.0090  -36.7160   23.0170 C   0  0  0  0  0  1  0  0  0  0  0  0
  -25.2360  -36.3450   23.8630 C   0  0  0  0  0  3  0  0  0  0  0  0
  -27.3030  -37.2990   24.7840 C   0  0  0  0  0  1  0  0  0  0  0  0
  -26.2340  -37.4360   23.7980 N   0  0  0  0  0  0  0  0  0  0  0  0
  -25.7910  -38.3410   23.9310 H   0  0  0  0  0  0  0  0  0  0  0  0
  -26.3870  -31.7650   25.0720 C   0  0  1  0  0  0  0  0  0  0  0  0
  -25.2890  -31.4630   26.1190 C   0  0  0  0  0  1  0  0  0  0  0  0
  -27.0390  -30.4260   24.6610 C   0  0  0  0  0  1  0  0  0  0  0  0
  -27.4930  -32.6020   25.7570 C   0  0  0  0  0  1  0  0  0  0  0  0
  2  3  1  1
  2  1  1  0
  4  8  1  0
  4  2  1  0
  5  6  2  0
  5  8  1  0
  6  9  1  0
  8 10  2  0
  9 20  1  0
  9  7  2  0
 10  7  1  0
 10 11  1  0
 12 20  1  0
 13 18  1  0
 14 15  1  0
 14 13  1  0
 16 15  1  0
 16 25  1  0
 16 17  1  0
 18 12  1  0
 18 17  1  0
 19 12  2  0
 20 21  1  0
 22 23  2  0
 23 42  1  0
 24 23  1  0
 24 27  1  0
 25 26  1  0
 25 22  1  0
 26 24  2  0
 27 28  1  0
 28 29  2  0
 30 33  1  0
 30 29  1  0
 31 30  2  0
 32 31  1  0
 32 27  2  0
 33 34  1  0
 34 39  2  0
 34 35  1  0
 35 36  2  0
 36 37  1  0
 37 41  1  0
 38 37  2  0
 39 38  1  0
 40 39  1  0
 42 43  1  0
 43 46  1  0
 43 45  1  0
 44 42  2  0
 47 22  1  0
 47 48  1  0
 49 47  1  0
 50  2  1  0
 51 52  1  0
 51 50  1  0
 53 55  1  0
 53 52  1  0
 54 65  2  0
 55 60  1  0
 56 64  1  0
 56 66  1  0
 57 63  1  0
 57 59  1  0
 58 64  1  0
 59 58  1  0
 60 59  2  0
 61 62  1  0
 61 55  2  0
 62 57  2  0
 63 56  1  0
 64 54  1  0
 66 68  2  0
 67 66  1  0
 69 67  1  0
 70 79  2  0
 70 75  1  0
 71 67  1  0
 71 75  1  0
 72 71  1  0
 73 74  1  0
 73 72  1  0
 74 70  1  0
 75 76  2  0
 76 77  1  0
 78 77  2  0
 79 78  1  0
 80 54  1  0
 80 81  1  0
 80 90  1  0
 81 84  1  0
 82 86  1  0
 82 81  1  0
 83 82  2  0
 86 85  1  0
 88 86  1  0
 88 89  1  0
 88 87  1  0
 90 93  1  1
 90 91  1  0
 92 90  1  0
M  ISO  4  12 100  20 100  52 101  53 101
M  END
>  <TORSDO>  (63) 
F 21

>  <SCORE>  (63) 
-11.510

>  <name>  (63) 
63

>  <ligand_id>  (63) 
63

>  <original_smiles>  (63) 
[H]c1c([H])c([H])c2c(c1[H])C([H])([H])C([H])([H])C([H])([H])C2([H])N([H])C(=O)C1([H])N(C(=O)C([H])(N([H])C(=O)C([H])(N([H])C([H])([H])[H])C([H])([H])[H])C(C([H])([H])[H])(C([H])([H])[H])C([H])([H])[H])C([H])([H])c2c([H])c(OC([H])([H])C([H])([H])C([H])([H])[N+]([H])(C([H])([H])[H])C([H])([H])c3c([H])c([H])c(N([H])C(=O)N4C([H])([H])C([H])([H])C([H])([H])C([H])(n5nc(-c6c([H])c([H])c(Oc7c([H])c([H])c(F)c([H])c7F)c([H])c6[H])c(C(=O)N([H])[H])c5N([H])[H])C4([H])[H])c([H])c3F)c([H])c([H])c2C1([H])[H]

>  <smiles>  (63) 
[H]c1c([H])c([H])c2c(c1[H])C([H])([H])C([H])([H])C([H])([H])C2([H])N([H])C(=O)C1([H])N(C(=O)C([H])(N([H])C(=O)C([H])(N([H])C([H])([H])[H])C([H])([H])[H])C(C([H])([H])[H])(C([H])([H])[H])C([H])([H])[H])C([H])([H])c2c([H])c(OC([H])([H])C([H])([H])C([H])([H])[N+]([H])(C([H])([H])[H])C([H])([H])c3c([H])c([H])c(N([H])C(=O)N4C([H])([H])C([H])([H])C([H])([H])C([H])(n5nc(-c6c([H])c([H])c(Oc7c([H])c([H])c(F)c([H])c7F)c([H])c6[H])c(C(=O)N([H])[H])c5N([H])[H])C4([H])[H])c([H])c3F)c([H])c([H])c2C1([H])[H]

$$$$
64:0:0
     RDKit          3D

 90 98  0  0  1  0  0  0  0  0999 V2000
  -28.9100  -17.6550   20.9850 C   0  0  0  0  0  3  0  0  0  0  0  0
  -28.6100  -19.0360   21.1920 C   0  0  0  0  0  3  0  0  0  0  0  0
  -30.4420  -19.6810   19.7880 C   0  0  0  0  0  3  0  0  0  0  0  0
  -29.9810  -17.2420   20.1520 C   0  0  0  0  0  0  0  0  0  0  0  0
  -29.3320  -20.0930   20.5720 C   0  0  0  0  0  0  0  0  0  0  0  0
  -30.7650  -18.3020   19.5950 C   0  0  0  0  0  0  0  0  0  0  0  0
  -31.8120  -18.0000   18.7900 F   0  0  0  0  0  0  0  0  0  0  0  0
  -30.8380  -14.8080   20.1110 C   0  0  0  0  0  0  0  0  0  0  0  0
  -30.6620  -12.4840   19.2390 C   0  0  0  0  0  2  0  0  0  0  0  0
  -29.7100  -12.4500   18.0220 C   0  0  0  0  0  2  0  0  0  0  0  0
  -28.2320  -12.3620   18.4640 C   0  0  0  0  0  2  0  0  0  0  0  0
  -27.8640  -13.2810   19.6640 C   0  0  0  0  0  3  0  0  0  0  0  0
  -28.9430  -13.2540   20.7650 C   0  0  0  0  0  2  0  0  0  0  0  0
  -30.2210  -13.5800   20.1230 N   0  0  0  0  0  0  0  0  0  0  0  0
  -32.0650  -14.8780   19.9900 O   0  0  0  0  0  0  0  0  0  0  0  0
  -29.8860  -15.8370   18.1690 C   0  0  0  0  0  1  0  0  0  0  0  0
  -30.0660  -15.8630   19.6370 N   0  0  0  0  0  0  0  0  0  0  0  0
  -25.4890  -13.8780   20.4240 C   0  0  0  0  0  0  0  0  0  0  0  0
  -24.4260  -13.1030   20.7990 C   0  0  0  0  0  0  0  0  0  0  0  0
  -24.8900  -11.7520   20.7630 C   0  0  0  0  0  0  0  0  0  0  0  0
  -26.5310  -12.9970   20.1780 N   0  0  0  0  0  0  0  0  0  0  0  0
  -26.1780  -11.7150   20.4460 N   0  0  0  0  0  0  0  0  0  0  0  0
  -24.1690  -10.4900   20.9530 C   0  0  0  0  0  0  0  0  0  0  0  0
  -24.5880   -9.5390   21.9090 C   0  0  0  0  0  3  0  0  0  0  0  0
  -23.8660   -8.3390   22.0890 C   0  0  0  0  0  3  0  0  0  0  0  0
  -22.7130   -8.0820   21.3110 C   0  0  0  0  0  0  0  0  0  0  0  0
  -22.3150   -9.0220   20.3420 C   0  0  0  0  0  3  0  0  0  0  0  0
  -23.0380  -10.2120   20.1610 C   0  0  0  0  0  3  0  0  0  0  0  0
  -21.9640   -6.9340   21.4000 O   0  0  0  0  0  0  0  0  0  0  0  0
  -21.8610   -6.2330   22.5740 C   0  0  0  0  0  0  0  0  0  0  0  0
  -21.3140   -6.8100   23.7410 C   0  0  0  0  0  3  0  0  0  0  0  0
  -21.1610   -6.0320   24.9060 C   0  0  0  0  0  3  0  0  0  0  0  0
  -21.5430   -4.6760   24.9040 C   0  0  0  0  0  0  0  0  0  0  0  0
  -22.0810   -4.0990   23.7410 C   0  0  0  0  0  3  0  0  0  0  0  0
  -22.2370   -4.8740   22.5780 C   0  0  0  0  0  0  0  0  0  0  0  0
  -22.7350   -4.3060   21.4540 F   0  0  0  0  0  0  0  0  0  0  0  0
  -21.3890   -3.9270   26.0200 F   0  0  0  0  0  0  0  0  0  0  0  0
  -23.0310  -13.5780   21.0810 C   0  0  0  0  0  0  0  0  0  0  0  0
  -22.3110  -12.8810   21.9540 N   0  0  0  0  0  0  0  0  0  0  0  0
  -22.5870  -14.6020   20.5640 O   0  0  0  0  0  0  0  0  0  0  0  0
  -22.6820  -12.0510   22.3940 H   0  0  0  0  0  0  0  0  0  0  0  0
  -21.3740  -13.1800   22.1840 H   0  0  0  0  0  0  0  0  0  0  0  0
  -25.6520  -15.2490   20.2500 N   0  0  0  0  0  0  0  0  0  0  0  0
  -24.8910  -15.9070   20.3820 H   0  0  0  0  0  0  0  0  0  0  0  0
  -26.5060  -15.6880   19.9300 H   0  0  0  0  0  0  0  0  0  0  0  0
  -28.9230  -21.4290   20.7980 O   0  0  0  0  0  0  0  0  0  0  0  0
  -29.2430  -22.5490   19.9020 C   0  0  0  0  0  3  0  0  0  0  0  0
  -28.7460  -23.9920   20.3950 C   0  0  0  0  0  3  0  0  0  0  0  0
  -28.8290  -25.2230   19.3840 C   0  0  0  0  0  2  0  0  0  0  0  0
  -28.6800  -26.6130   19.8760 O   0  0  0  0  0  0  0  0  0  0  0  0
  -24.6420  -31.6510   23.0420 C   0  0  0  0  0  0  0  0  0  0  0  0
  -27.4890  -27.3530   19.8260 C   0  0  0  0  0  0  0  0  0  0  0  0
  -23.5160  -30.2760   21.3260 C   0  0  0  0  0  3  0  0  0  0  0  0
  -25.0470  -28.8500   19.8520 C   0  0  0  0  0  0  0  0  0  0  0  0
  -26.0390  -30.7150   21.1860 C   0  0  0  0  0  2  0  0  0  0  0  0
  -26.1840  -29.3700   20.4820 C   0  0  0  0  0  0  0  0  0  0  0  0
  -27.4030  -28.6330   20.4580 C   0  0  0  0  0  3  0  0  0  0  0  0
  -26.3220  -26.8740   19.1870 C   0  0  0  0  0  3  0  0  0  0  0  0
  -25.1180  -27.6090   19.1980 C   0  0  0  0  0  3  0  0  0  0  0  0
  -23.7730  -29.6670   19.9210 C   0  0  0  0  0  2  0  0  0  0  0  0
  -24.7500  -30.8960   21.9100 N   0  0  0  0  0  0  0  0  0  0  0  0
  -23.5430  -31.8570   23.5760 O   0  0  0  0  0  0  0  0  0  0  0  0
  -22.8890  -29.1920   22.2340 C   0  0  0  0  0  0  0  0  0  0  0  0
  -21.5650  -28.9910   22.1070 N   0  0  0  0  0  0  0  0  0  0  0  0
  -23.5900  -28.5370   23.0090 O   0  0  0  0  0  0  0  0  0  0  0  0
  -21.0590  -29.5750   21.4570 H   0  0  0  0  0  0  0  0  0  0  0  0
  -18.2100  -27.7460   22.6220 C   0  0  0  0  0  0  0  0  0  0  0  0
  -20.7750  -27.9940   22.8280 C   0  0  0  0  0  3  0  0  0  0  0  0
  -20.8600  -26.6110   22.1400 C   0  0  0  0  0  2  0  0  0  0  0  0
  -19.7270  -26.3640   21.1400 C   0  0  0  0  0  2  0  0  0  0  0  0
  -18.3670  -26.4530   21.8370 C   0  0  0  0  0  2  0  0  0  0  0  0
  -19.3410  -28.4760   23.0730 C   0  0  0  0  0  0  0  0  0  0  0  0
  -19.1390  -29.6890   23.7680 C   0  0  0  0  0  3  0  0  0  0  0  0
  -17.8390  -30.1700   24.0140 C   0  0  0  0  0  3  0  0  0  0  0  0
  -16.7230  -29.4350   23.5780 C   0  0  0  0  0  3  0  0  0  0  0  0
  -16.9100  -28.2230   22.8880 C   0  0  0  0  0  3  0  0  0  0  0  0
  -25.8900  -32.3070   23.7100 C   0  0  0  0  0  3  0  0  0  0  0  0
  -26.4060  -31.5190   24.9750 C   0  0  1  0  0  0  0  0  0  0  0  0
  -25.3010  -31.2220   26.0170 C   0  0  0  0  0  1  0  0  0  0  0  0
  -27.0360  -30.1690   24.5590 C   0  0  0  0  0  1  0  0  0  0  0  0
  -27.5200  -32.3290   25.6790 C   0  0  0  0  0  1  0  0  0  0  0  0
  -25.5290  -33.6850   24.0710 N   0  0  0  0  0  0  0  0  0  0  0  0
  -25.8510  -34.7700   23.3550 C   0  0  0  0  0  0  0  0  0  0  0  0
  -26.5540  -34.7180   22.3420 O   0  0  0  0  0  0  0  0  0  0  0  0
  -24.9080  -33.7970   24.8590 H   0  0  0  0  0  0  0  0  0  0  0  0
  -24.0970  -36.5340   22.9840 C   0  0  0  0  0  1  0  0  0  0  0  0
  -25.3090  -36.1290   23.8390 C   0  0  0  0  0  3  0  0  0  0  0  0
  -27.3700  -37.0400   24.8130 C   0  0  0  0  0  1  0  0  0  0  0  0
  -26.3180  -37.2100   23.8130 N   0  0  0  0  0  0  0  0  0  0  0  0
  -25.8810  -38.1150   23.9630 H   0  0  0  0  0  0  0  0  0  0  0  0
  1  2  1  0
  3  5  1  0
  4  1  2  0
  5 46  1  0
  5  2  2  0
  6  3  2  0
  6  4  1  0
  7  6  1  0
  8 14  1  0
  9 14  1  0
 10 11  1  0
 10  9  1  0
 12 11  1  0
 12 21  1  0
 12 13  1  0
 14 13  1  0
 15  8  2  0
 16 17  1  0
 17  8  1  0
 17  4  1  0
 18 19  2  0
 19 38  1  0
 20 19  1  0
 20 23  1  0
 21 18  1  0
 21 22  1  0
 22 20  2  0
 23 24  1  0
 24 25  2  0
 26 29  1  0
 26 25  1  0
 27 26  2  0
 28 27  1  0
 28 23  2  0
 29 30  1  0
 30 35  2  0
 30 31  1  0
 31 32  2  0
 33 32  1  0
 33 37  1  0
 34 33  2  0
 35 34  1  0
 36 35  1  0
 38 39  1  0
 39 42  1  0
 39 41  1  0
 40 38  2  0
 43 44  1  0
 43 18  1  0
 45 43  1  0
 47 48  2  0
 47 46  1  0
 49 50  1  0
 49 48  1  0
 51 62  2  0
 52 50  1  0
 52 57  1  0
 53 61  1  0
 53 63  1  0
 54 60  1  0
 54 56  1  0
 55 61  1  0
 56 55  1  0
 57 56  2  0
 58 59  1  0
 58 52  2  0
 59 54  2  0
 60 53  1  0
 61 51  1  0
 63 65  2  0
 64 63  1  0
 66 64  1  0
 67 76  2  0
 67 72  1  0
 68 64  1  0
 68 72  1  0
 69 68  1  0
 70 71  1  0
 70 69  1  0
 71 67  1  0
 72 73  2  0
 73 74  1  0
 75 74  2  0
 76 75  1  0
 77 51  1  0
 77 82  1  0
 77 78  1  0
 78 81  1  1
 78 79  1  0
 80 78  1  0
 82 85  1  0
 83 87  1  0
 83 82  1  0
 84 83  2  0
 87 86  1  0
 89 87  1  0
 89 90  1  0
 89 88  1  0
M  ISO  4   8 100  17 100  49 101  50 101
M  END
>  <TORSDO>  (64) 
F 20

>  <SCORE>  (64) 
-11.861

>  <name>  (64) 
64

>  <ligand_id>  (64) 
64

>  <original_smiles>  (64) 
[H]c1c([H])c([H])c2c(c1[H])C([H])([H])C([H])([H])C([H])([H])C2([H])N([H])C(=O)C1([H])N(C(=O)C([H])(N([H])C(=O)C([H])(N([H])C([H])([H])[H])C([H])([H])[H])C(C([H])([H])[H])(C([H])([H])[H])C([H])([H])[H])C([H])([H])c2c([H])c(OC([H])([H])C([H])([H])C([H])([H])Oc3c([H])c([H])c(N(C(=O)N4C([H])([H])C([H])([H])C([H])([H])C([H])(n5nc(-c6c([H])c([H])c(Oc7c([H])c([H])c(F)c([H])c7F)c([H])c6[H])c(C(=O)N([H])[H])c5N([H])[H])C4([H])[H])C([H])([H])[H])c(F)c3[H])c([H])c([H])c2C1([H])[H]

>  <smiles>  (64) 
[H]c1c([H])c([H])c2c(c1[H])C([H])([H])C([H])([H])C([H])([H])C2([H])N([H])C(=O)C1([H])N(C(=O)C([H])(N([H])C(=O)C([H])(N([H])C([H])([H])[H])C([H])([H])[H])C(C([H])([H])[H])(C([H])([H])[H])C([H])([H])[H])C([H])([H])c2c([H])c(OC([H])([H])C([H])([H])C([H])([H])Oc3c([H])c([H])c(N(C(=O)N4C([H])([H])C([H])([H])C([H])([H])C([H])(n5nc(-c6c([H])c([H])c(Oc7c([H])c([H])c(F)c([H])c7F)c([H])c6[H])c(C(=O)N([H])[H])c5N([H])[H])C4([H])[H])C([H])([H])[H])c(F)c3[H])c([H])c([H])c2C1([H])[H]

$$$$
65:0:0
     RDKit          3D

 92100  0  0  1  0  0  0  0  0999 V2000
  -30.8070  -21.9950   19.5030 C   0  0  0  0  0  1  0  0  0  0  0  0
  -30.1750  -22.1690   20.8340 N   0  0  1  0  0  4  0  0  0  0  0  0
  -29.1860  -22.0150   20.7030 H   0  0  0  0  0  0  0  0  0  0  0  0
  -30.6310  -21.1460   21.8250 C   0  0  0  0  0  2  0  0  0  0  0  0
  -29.3120  -19.0150   21.2910 C   0  0  0  0  0  3  0  0  0  0  0  0
  -31.7390  -18.8970   21.2870 C   0  0  0  0  0  3  0  0  0  0  0  0
  -29.2520  -17.6200   21.0820 C   0  0  0  0  0  3  0  0  0  0  0  0
  -31.6790  -17.5000   21.0720 C   0  0  0  0  0  3  0  0  0  0  0  0
  -30.5580  -19.6670   21.4180 C   0  0  0  0  0  0  0  0  0  0  0  0
  -30.4290  -16.8430   20.9810 C   0  0  0  0  0  0  0  0  0  0  0  0
  -30.9880  -14.5010   20.1870 C   0  0  0  0  0  0  0  0  0  0  0  0
  -30.6590  -12.3930   18.9330 C   0  0  0  0  0  2  0  0  0  0  0  0
  -29.6760  -12.6540   17.7700 C   0  0  0  0  0  2  0  0  0  0  0  0
  -28.2100  -12.5330   18.2380 C   0  0  0  0  0  2  0  0  0  0  0  0
  -27.9320  -13.3180   19.5470 C   0  0  0  0  0  3  0  0  0  0  0  0
  -29.0100  -12.9970   20.6050 C   0  0  0  0  0  2  0  0  0  0  0  0
  -30.3250  -13.3230   20.0220 N   0  0  0  0  0  0  0  0  0  0  0  0
  -32.0890  -14.7250   19.6720 O   0  0  0  0  0  0  0  0  0  0  0  0
  -30.2740  -15.4280   20.8600 N   0  0  0  0  0  0  0  0  0  0  0  0
  -29.3920  -15.0690   21.1930 H   0  0  0  0  0  0  0  0  0  0  0  0
  -25.5580  -13.9600   20.3110 C   0  0  0  0  0  0  0  0  0  0  0  0
  -24.4890  -13.2010   20.7060 C   0  0  0  0  0  0  0  0  0  0  0  0
  -24.9300  -11.8430   20.6590 C   0  0  0  0  0  0  0  0  0  0  0  0
  -26.5840  -13.0650   20.0530 N   0  0  0  0  0  0  0  0  0  0  0  0
  -26.2110  -11.7860   20.3170 N   0  0  0  0  0  0  0  0  0  0  0  0
  -24.1930  -10.5900   20.8620 C   0  0  0  0  0  0  0  0  0  0  0  0
  -24.5930   -9.6500   21.8390 C   0  0  0  0  0  3  0  0  0  0  0  0
  -23.8580   -8.4590   22.0270 C   0  0  0  0  0  3  0  0  0  0  0  0
  -22.7120   -8.2010   21.2390 C   0  0  0  0  0  0  0  0  0  0  0  0
  -22.3320   -9.1300   20.2550 C   0  0  0  0  0  3  0  0  0  0  0  0
  -23.0660  -10.3110   20.0640 C   0  0  0  0  0  3  0  0  0  0  0  0
  -21.9520   -7.0600   21.3360 O   0  0  0  0  0  0  0  0  0  0  0  0
  -21.7950   -6.3980   22.5270 C   0  0  0  0  0  0  0  0  0  0  0  0
  -21.2320   -7.0260   23.6590 C   0  0  0  0  0  3  0  0  0  0  0  0
  -21.0250   -6.2890   24.8420 C   0  0  0  0  0  3  0  0  0  0  0  0
  -21.3680   -4.9240   24.8930 C   0  0  0  0  0  0  0  0  0  0  0  0
  -21.9230   -4.2970   23.7640 C   0  0  0  0  0  3  0  0  0  0  0  0
  -22.1330   -5.0310   22.5830 C   0  0  0  0  0  0  0  0  0  0  0  0
  -22.6480   -4.4150   21.4920 F   0  0  0  0  0  0  0  0  0  0  0  0
  -21.1620   -4.2140   26.0260 F   0  0  0  0  0  0  0  0  0  0  0  0
  -23.1050  -13.6940   21.0150 C   0  0  0  0  0  0  0  0  0  0  0  0
  -22.3910  -13.0050   21.8990 N   0  0  0  0  0  0  0  0  0  0  0  0
  -22.6660  -14.7270   20.5090 O   0  0  0  0  0  0  0  0  0  0  0  0
  -22.7600  -12.1710   22.3300 H   0  0  0  0  0  0  0  0  0  0  0  0
  -21.4630  -13.3180   22.1470 H   0  0  0  0  0  0  0  0  0  0  0  0
  -25.7380  -15.3280   20.1310 N   0  0  0  0  0  0  0  0  0  0  0  0
  -24.9790  -15.9920   20.2420 H   0  0  0  0  0  0  0  0  0  0  0  0
  -26.5710  -15.7450   19.7340 H   0  0  0  0  0  0  0  0  0  0  0  0
  -30.3470  -23.5430   21.4160 C   0  0  0  0  0  2  0  0  0  0  0  0
  -30.1170  -24.7950   20.5120 C   0  0  0  0  0  2  0  0  0  0  0  0
  -28.6670  -25.3050   20.3550 C   0  0  0  0  0  2  0  0  0  0  0  0
  -28.6980  -26.7210   20.1100 O   0  0  0  0  0  0  0  0  0  0  0  0
  -24.6970  -31.7540   23.1720 C   0  0  0  0  0  0  0  0  0  0  0  0
  -27.4940  -27.3950   20.1090 C   0  0  0  0  0  0  0  0  0  0  0  0
  -23.5470  -30.3310   21.5080 C   0  0  0  0  0  3  0  0  0  0  0  0
  -25.0570  -28.8340   20.0990 C   0  0  0  0  0  0  0  0  0  0  0  0
  -26.0640  -30.7570   21.3400 C   0  0  0  0  0  2  0  0  0  0  0  0
  -26.1940  -29.3920   20.6960 C   0  0  0  0  0  0  0  0  0  0  0  0
  -27.4170  -28.6810   20.6920 C   0  0  0  0  0  3  0  0  0  0  0  0
  -26.3350  -26.8460   19.5120 C   0  0  0  0  0  3  0  0  0  0  0  0
  -25.1220  -27.5600   19.5060 C   0  0  0  0  0  3  0  0  0  0  0  0
  -23.7920  -29.6620   20.1300 C   0  0  0  0  0  2  0  0  0  0  0  0
  -24.7870  -30.9610   22.0660 N   0  0  0  0  0  0  0  0  0  0  0  0
  -23.6040  -31.9970   23.7010 O   0  0  0  0  0  0  0  0  0  0  0  0
  -22.9090  -29.2890   22.4560 C   0  0  0  0  0  0  0  0  0  0  0  0
  -21.5940  -29.0690   22.3040 N   0  0  0  0  0  0  0  0  0  0  0  0
  -23.5960  -28.6830   23.2820 O   0  0  0  0  0  0  0  0  0  0  0  0
  -21.1010  -29.6120   21.6090 H   0  0  0  0  0  0  0  0  0  0  0  0
  -18.2490  -27.7720   22.7270 C   0  0  0  0  0  0  0  0  0  0  0  0
  -20.7910  -28.1060   23.0560 C   0  0  0  0  0  3  0  0  0  0  0  0
  -20.9490  -26.6790   22.4820 C   0  0  0  0  0  2  0  0  0  0  0  0
  -19.8800  -26.3250   21.4440 C   0  0  0  0  0  2  0  0  0  0  0  0
  -18.4810  -26.4280   22.0570 C   0  0  0  0  0  2  0  0  0  0  0  0
  -19.3340  -28.5660   23.1830 C   0  0  0  0  0  0  0  0  0  0  0  0
  -19.0650  -29.8220   23.7670 C   0  0  0  0  0  3  0  0  0  0  0  0
  -17.7440  -30.2870   23.9020 C   0  0  0  0  0  3  0  0  0  0  0  0
  -16.6720  -29.4890   23.4650 C   0  0  0  0  0  3  0  0  0  0  0  0
  -16.9250  -28.2330   22.8840 C   0  0  0  0  0  3  0  0  0  0  0  0
  -25.9600  -32.4130   23.8100 C   0  0  0  0  0  3  0  0  0  0  0  0
  -25.6100  -33.7970   24.1540 N   0  0  0  0  0  0  0  0  0  0  0  0
  -25.9140  -34.8670   23.4060 C   0  0  0  0  0  0  0  0  0  0  0  0
  -26.5890  -34.7940   22.3770 O   0  0  0  0  0  0  0  0  0  0  0  0
  -25.0050  -33.9250   24.9530 H   0  0  0  0  0  0  0  0  0  0  0  0
  -24.1280  -36.6050   23.0730 C   0  0  0  0  0  1  0  0  0  0  0  0
  -25.3840  -36.2360   23.8760 C   0  0  0  0  0  3  0  0  0  0  0  0
  -27.4910  -37.1840   24.7100 C   0  0  0  0  0  1  0  0  0  0  0  0
  -26.3840  -37.3210   23.7680 N   0  0  0  0  0  0  0  0  0  0  0  0
  -25.9490  -38.2260   23.9230 H   0  0  0  0  0  0  0  0  0  0  0  0
  -26.4900  -31.6390   25.0800 C   0  0  1  0  0  0  0  0  0  0  0  0
  -25.3960  -31.3520   26.1330 C   0  0  0  0  0  1  0  0  0  0  0  0
  -27.1160  -30.2860   24.6670 C   0  0  0  0  0  1  0  0  0  0  0  0
  -27.6090  -32.4580   25.7650 C   0  0  0  0  0  1  0  0  0  0  0  0
  1  2  1  0
  2 49  1  0
  2  4  1  0
  2  3  1  6
  5  9  1  0
  6  9  2  0
  7  5  2  0
  8  6  1  0
  9  4  1  0
 10  8  2  0
 10  7  1  0
 11 19  1  0
 12 17  1  0
 13 14  1  0
 13 12  1  0
 15 14  1  0
 15 24  1  0
 15 16  1  0
 17 11  1  0
 17 16  1  0
 18 11  2  0
 19 10  1  0
 19 20  1  0
 21 22  2  0
 22 41  1  0
 23 22  1  0
 23 26  1  0
 24 21  1  0
 24 25  1  0
 25 23  2  0
 26 27  1  0
 27 28  2  0
 29 32  1  0
 29 28  1  0
 30 29  2  0
 31 30  1  0
 31 26  2  0
 32 33  1  0
 33 38  2  0
 33 34  1  0
 34 35  2  0
 35 36  1  0
 36 40  1  0
 37 36  2  0
 38 37  1  0
 39 38  1  0
 41 42  1  0
 42 45  1  0
 42 44  1  0
 43 41  2  0
 46 47  1  0
 46 21  1  0
 48 46  1  0
 50 49  1  0
 51 50  1  0
 52 51  1  0
 53 64  2  0
 54 52  1  0
 54 59  1  0
 55 63  1  0
 55 65  1  0
 56 62  1  0
 56 58  1  0
 57 63  1  0
 58 57  1  0
 59 58  2  0
 60 54  2  0
 61 60  1  0
 61 56  2  0
 62 55  1  0
 63 53  1  0
 65 67  2  0
 66 65  1  0
 68 66  1  0
 69 78  2  0
 69 74  1  0
 70 66  1  0
 70 74  1  0
 71 70  1  0
 72 73  1  0
 72 71  1  0
 73 69  1  0
 74 75  2  0
 75 76  1  0
 77 76  2  0
 78 77  1  0
 79 53  1  0
 79 80  1  0
 79 89  1  0
 80 83  1  0
 81 85  1  0
 81 80  1  0
 82 81  2  0
 85 84  1  0
 87 85  1  0
 87 88  1  0
 87 86  1  0
 89 92  1  1
 89 90  1  0
 91 89  1  0
M  ISO  4  11 100  19 100  51 101  52 101
M  END
>  <TORSDO>  (65) 
F 21

>  <SCORE>  (65) 
-12.816

>  <name>  (65) 
65

>  <ligand_id>  (65) 
65

>  <original_smiles>  (65) 
[H]c1c([H])c([H])c2c(c1[H])C([H])([H])C([H])([H])C([H])([H])C2([H])N([H])C(=O)C1([H])N(C(=O)C([H])(N([H])C(=O)C([H])(N([H])C([H])([H])[H])C([H])([H])[H])C(C([H])([H])[H])(C([H])([H])[H])C([H])([H])[H])C([H])([H])c2c([H])c(OC([H])([H])C([H])([H])C([H])([H])[N+]([H])(C([H])([H])[H])C([H])([H])c3c([H])c([H])c(N([H])C(=O)N4C([H])([H])C([H])([H])C([H])([H])C([H])(n5nc(-c6c([H])c([H])c(Oc7c([H])c([H])c(F)c([H])c7F)c([H])c6[H])c(C(=O)N([H])[H])c5N([H])[H])C4([H])[H])c([H])c3[H])c([H])c([H])c2C1([H])[H]

>  <smiles>  (65) 
[H]c1c([H])c([H])c2c(c1[H])C([H])([H])C([H])([H])C([H])([H])C2([H])N([H])C(=O)C1([H])N(C(=O)C([H])(N([H])C(=O)C([H])(N([H])C([H])([H])[H])C([H])([H])[H])C(C([H])([H])[H])(C([H])([H])[H])C([H])([H])[H])C([H])([H])c2c([H])c(OC([H])([H])C([H])([H])C([H])([H])[N+]([H])(C([H])([H])[H])C([H])([H])c3c([H])c([H])c(N([H])C(=O)N4C([H])([H])C([H])([H])C([H])([H])C([H])(n5nc(-c6c([H])c([H])c(Oc7c([H])c([H])c(F)c([H])c7F)c([H])c6[H])c(C(=O)N([H])[H])c5N([H])[H])C4([H])[H])c([H])c3[H])c([H])c([H])c2C1([H])[H]

$$$$
66:0:0
     RDKit          3D

 92100  0  0  1  0  0  0  0  0999 V2000
  -27.7180  -21.3400   20.0940 C   0  0  0  0  0  1  0  0  0  0  0  0
  -29.1370  -21.7580   20.1430 N   0  0  1  0  0  4  0  0  0  0  0  0
  -29.3490  -21.9160   21.1160 H   0  0  0  0  0  0  0  0  0  0  0  0
  -30.0560  -20.6550   19.6780 C   0  0  0  0  0  2  0  0  0  0  0  0
  -31.0680  -18.4670   22.6930 C   0  0  0  0  0  3  0  0  0  0  0  0
  -30.7750  -19.5830   21.8840 C   0  0  0  0  0  3  0  0  0  0  0  0
  -30.8490  -17.1580   22.2180 C   0  0  0  0  0  3  0  0  0  0  0  0
  -30.0060  -18.0800   20.1220 C   0  0  0  0  0  3  0  0  0  0  0  0
  -30.2420  -19.4130   20.5880 C   0  0  0  0  0  0  0  0  0  0  0  0
  -30.3300  -16.9420   20.9240 C   0  0  0  0  0  0  0  0  0  0  0  0
  -30.7730  -14.5740   20.1290 C   0  0  0  0  0  0  0  0  0  0  0  0
  -30.4720  -12.3850   18.9960 C   0  0  0  0  0  2  0  0  0  0  0  0
  -29.4740  -12.5620   17.8300 C   0  0  0  0  0  2  0  0  0  0  0  0
  -28.0160  -12.4330   18.3180 C   0  0  0  0  0  2  0  0  0  0  0  0
  -27.7330  -13.2810   19.5870 C   0  0  0  0  0  3  0  0  0  0  0  0
  -28.8320  -13.0550   20.6510 C   0  0  0  0  0  2  0  0  0  0  0  0
  -30.1260  -13.3760   20.0280 N   0  0  0  0  0  0  0  0  0  0  0  0
  -31.9120  -14.7480   19.6830 O   0  0  0  0  0  0  0  0  0  0  0  0
  -29.9860  -15.6020   20.5410 N   0  0  0  0  0  0  0  0  0  0  0  0
  -29.0420  -15.3250   20.7610 H   0  0  0  0  0  0  0  0  0  0  0  0
  -25.3820  -13.9340   20.4030 C   0  0  0  0  0  0  0  0  0  0  0  0
  -24.3140  -13.1810   20.8090 C   0  0  0  0  0  0  0  0  0  0  0  0
  -24.7450  -11.8190   20.7480 C   0  0  0  0  0  0  0  0  0  0  0  0
  -26.3970  -13.0310   20.1210 N   0  0  0  0  0  0  0  0  0  0  0  0
  -26.0190  -11.7550   20.3860 N   0  0  0  0  0  0  0  0  0  0  0  0
  -23.9990  -10.5710   20.9550 C   0  0  0  0  0  0  0  0  0  0  0  0
  -24.4330   -9.5990   21.8830 C   0  0  0  0  0  3  0  0  0  0  0  0
  -23.6900   -8.4160   22.0800 C   0  0  0  0  0  3  0  0  0  0  0  0
  -22.5000   -8.1950   21.3470 C   0  0  0  0  0  0  0  0  0  0  0  0
  -22.0850   -9.1550   20.4080 C   0  0  0  0  0  3  0  0  0  0  0  0
  -22.8280  -10.3310   20.2100 C   0  0  0  0  0  3  0  0  0  0  0  0
  -21.7280   -7.0640   21.4530 O   0  0  0  0  0  0  0  0  0  0  0  0
  -21.6660   -6.3410   22.6170 C   0  0  0  0  0  0  0  0  0  0  0  0
  -21.2450   -6.9220   23.8330 C   0  0  0  0  0  3  0  0  0  0  0  0
  -21.1280   -6.1260   24.9900 C   0  0  0  0  0  3  0  0  0  0  0  0
  -21.4230   -4.7510   24.9320 C   0  0  0  0  0  0  0  0  0  0  0  0
  -21.8390   -4.1700   23.7220 C   0  0  0  0  0  3  0  0  0  0  0  0
  -21.9570   -4.9630   22.5670 C   0  0  0  0  0  0  0  0  0  0  0  0
  -22.3370   -4.3940   21.3980 F   0  0  0  0  0  0  0  0  0  0  0  0
  -21.3040   -3.9850   26.0420 F   0  0  0  0  0  0  0  0  0  0  0  0
  -22.9390  -13.6850   21.1420 C   0  0  0  0  0  0  0  0  0  0  0  0
  -22.2340  -12.9960   22.0340 N   0  0  0  0  0  0  0  0  0  0  0  0
  -22.5010  -14.7220   20.6460 O   0  0  0  0  0  0  0  0  0  0  0  0
  -22.6000  -12.1570   22.4560 H   0  0  0  0  0  0  0  0  0  0  0  0
  -21.3120  -13.3140   22.2980 H   0  0  0  0  0  0  0  0  0  0  0  0
  -25.5700  -15.3020   20.2290 N   0  0  0  0  0  0  0  0  0  0  0  0
  -24.8200  -15.9690   20.3830 H   0  0  0  0  0  0  0  0  0  0  0  0
  -26.4080  -15.7320   19.8620 H   0  0  0  0  0  0  0  0  0  0  0  0
  -29.4240  -23.0610   19.4300 C   0  0  0  0  0  2  0  0  0  0  0  0
  -28.3630  -24.2320   19.4180 C   0  0  0  0  0  2  0  0  0  0  0  0
  -28.4110  -25.3050   20.5510 C   0  0  0  0  0  2  0  0  0  0  0  0
  -28.4060  -26.6830   20.0980 O   0  0  0  0  0  0  0  0  0  0  0  0
  -24.6030  -31.8740   23.2200 C   0  0  0  0  0  0  0  0  0  0  0  0
  -27.2240  -27.4030   20.1320 C   0  0  0  0  0  0  0  0  0  0  0  0
  -23.3900  -30.4810   21.5770 C   0  0  0  0  0  3  0  0  0  0  0  0
  -24.8340  -28.9330   20.1450 C   0  0  0  0  0  0  0  0  0  0  0  0
  -25.9160  -30.8280   21.3670 C   0  0  0  0  0  2  0  0  0  0  0  0
  -25.9960  -29.4540   20.7280 C   0  0  0  0  0  0  0  0  0  0  0  0
  -27.1960  -28.6990   20.7080 C   0  0  0  0  0  3  0  0  0  0  0  0
  -26.0430  -26.8980   19.5490 C   0  0  0  0  0  3  0  0  0  0  0  0
  -24.8550  -27.6580   19.5490 C   0  0  0  0  0  3  0  0  0  0  0  0
  -23.5920  -29.7980   20.1960 C   0  0  0  0  0  2  0  0  0  0  0  0
  -24.6560  -31.0750   22.1150 N   0  0  0  0  0  0  0  0  0  0  0  0
  -23.5230  -32.1500   23.7630 O   0  0  0  0  0  0  0  0  0  0  0  0
  -22.7320  -29.4640   22.5380 C   0  0  0  0  0  0  0  0  0  0  0  0
  -21.4060  -29.2910   22.4140 N   0  0  0  0  0  0  0  0  0  0  0  0
  -23.4130  -28.8300   23.3500 O   0  0  0  0  0  0  0  0  0  0  0  0
  -20.9180  -29.8490   21.7280 H   0  0  0  0  0  0  0  0  0  0  0  0
  -18.0260  -28.1080   22.9090 C   0  0  0  0  0  0  0  0  0  0  0  0
  -20.5850  -28.3540   23.1830 C   0  0  0  0  0  3  0  0  0  0  0  0
  -20.6830  -26.9250   22.6010 C   0  0  0  0  0  2  0  0  0  0  0  0
  -19.5800  -26.6100   21.5870 C   0  0  0  0  0  2  0  0  0  0  0  0
  -18.1980  -26.7610   22.2290 C   0  0  0  0  0  2  0  0  0  0  0  0
  -19.1480  -28.8630   23.3420 C   0  0  0  0  0  0  0  0  0  0  0  0
  -18.9350  -30.1260   23.9370 C   0  0  0  0  0  3  0  0  0  0  0  0
  -17.6320  -30.6340   24.1030 C   0  0  0  0  0  3  0  0  0  0  0  0
  -16.5260  -29.8740   23.6870 C   0  0  0  0  0  3  0  0  0  0  0  0
  -16.7220  -28.6130   23.0960 C   0  0  0  0  0  3  0  0  0  0  0  0
  -25.8920  -32.4970   23.8420 C   0  0  0  0  0  3  0  0  0  0  0  0
  -25.5920  -33.8950   24.1800 N   0  0  0  0  0  0  0  0  0  0  0  0
  -25.9300  -34.9480   23.4230 C   0  0  0  0  0  0  0  0  0  0  0  0
  -26.5960  -34.8440   22.3890 O   0  0  0  0  0  0  0  0  0  0  0  0
  -25.0020  -34.0530   24.9830 H   0  0  0  0  0  0  0  0  0  0  0  0
  -24.2130  -36.7520   23.0740 C   0  0  0  0  0  1  0  0  0  0  0  0
  -25.4500  -36.3380   23.8850 C   0  0  0  0  0  3  0  0  0  0  0  0
  -27.5900  -37.2060   24.7200 C   0  0  0  0  0  1  0  0  0  0  0  0
  -26.4910  -37.3840   23.7760 N   0  0  0  0  0  0  0  0  0  0  0  0
  -26.0900  -38.3070   23.9260 H   0  0  0  0  0  0  0  0  0  0  0  0
  -26.4110  -31.7150   25.1110 C   0  0  1  0  0  0  0  0  0  0  0  0
  -25.3200  -31.4710   26.1810 C   0  0  0  0  0  1  0  0  0  0  0  0
  -26.9850  -30.3400   24.7030 C   0  0  0  0  0  1  0  0  0  0  0  0
  -27.5720  -32.4950   25.7700 C   0  0  0  0  0  1  0  0  0  0  0  0
  1  2  1  0
  2  3  1  1
  4  2  1  0
  4  9  1  0
  6  5  2  0
  7  5  1  0
  8  9  2  0
  8 10  1  0
  9  6  1  0
 10  7  2  0
 11 19  1  0
 12 17  1  0
 13 14  1  0
 13 12  1  0
 15 14  1  0
 15 24  1  0
 15 16  1  0
 17 11  1  0
 17 16  1  0
 18 11  2  0
 19 20  1  0
 19 10  1  0
 21 22  2  0
 22 41  1  0
 23 22  1  0
 23 26  1  0
 24 25  1  0
 24 21  1  0
 25 23  2  0
 26 27  1  0
 27 28  2  0
 29 32  1  0
 29 28  1  0
 30 29  2  0
 31 30  1  0
 31 26  2  0
 32 33  1  0
 33 34  1  0
 34 35  2  0
 36 35  1  0
 36 40  1  0
 37 36  2  0
 38 33  2  0
 38 37  1  0
 39 38  1  0
 41 42  1  0
 42 45  1  0
 42 44  1  0
 43 41  2  0
 46 47  1  0
 46 21  1  0
 48 46  1  0
 49  2  1  0
 50 49  1  0
 50 51  1  0
 52 54  1  0
 52 51  1  0
 53 64  2  0
 54 59  1  0
 55 63  1  0
 55 65  1  0
 56 62  1  0
 56 58  1  0
 57 63  1  0
 58 57  1  0
 59 58  2  0
 60 54  2  0
 61 60  1  0
 61 56  2  0
 62 55  1  0
 63 53  1  0
 65 67  2  0
 66 65  1  0
 68 66  1  0
 69 78  2  0
 69 74  1  0
 70 66  1  0
 70 74  1  0
 71 70  1  0
 72 73  1  0
 72 71  1  0
 73 69  1  0
 74 75  2  0
 75 76  1  0
 77 76  2  0
 78 77  1  0
 79 53  1  0
 79 80  1  0
 79 89  1  0
 80 83  1  0
 81 85  1  0
 81 80  1  0
 82 81  2  0
 85 84  1  0
 87 85  1  0
 87 88  1  0
 87 86  1  0
 89 92  1  1
 89 90  1  0
 91 89  1  0
M  ISO  4  11 100  19 100  51 101  52 101
M  END
>  <TORSDO>  (66) 
F 21

>  <SCORE>  (66) 
-13.213

>  <name>  (66) 
66

>  <ligand_id>  (66) 
66

>  <original_smiles>  (66) 
[H]c1c([H])c([H])c2c(c1[H])C([H])([H])C([H])([H])C([H])([H])C2([H])N([H])C(=O)C1([H])N(C(=O)C([H])(N([H])C(=O)C([H])(N([H])C([H])([H])[H])C([H])([H])[H])C(C([H])([H])[H])(C([H])([H])[H])C([H])([H])[H])C([H])([H])c2c([H])c(OC([H])([H])C([H])([H])C([H])([H])[N+]([H])(C([H])([H])[H])C([H])([H])c3c([H])c([H])c([H])c(N([H])C(=O)N4C([H])([H])C([H])([H])C([H])([H])C([H])(n5nc(-c6c([H])c([H])c(Oc7c([H])c([H])c(F)c([H])c7F)c([H])c6[H])c(C(=O)N([H])[H])c5N([H])[H])C4([H])[H])c3[H])c([H])c([H])c2C1([H])[H]

>  <smiles>  (66) 
[H]c1c([H])c([H])c2c(c1[H])C([H])([H])C([H])([H])C([H])([H])C2([H])N([H])C(=O)C1([H])N(C(=O)C([H])(N([H])C(=O)C([H])(N([H])C([H])([H])[H])C([H])([H])[H])C(C([H])([H])[H])(C([H])([H])[H])C([H])([H])[H])C([H])([H])c2c([H])c(OC([H])([H])C([H])([H])C([H])([H])[N+]([H])(C([H])([H])[H])C([H])([H])c3c([H])c([H])c([H])c(N([H])C(=O)N4C([H])([H])C([H])([H])C([H])([H])C([H])(n5nc(-c6c([H])c([H])c(Oc7c([H])c([H])c(F)c([H])c7F)c([H])c6[H])c(C(=O)N([H])[H])c5N([H])[H])C4([H])[H])c3[H])c([H])c([H])c2C1([H])[H]

$$$$
67:0:0
     RDKit          3D

 92100  0  0  1  0  0  0  0  0999 V2000
  -29.6650  -21.5880   21.0030 C   0  0  0  0  0  2  0  0  0  0  0  0
  -28.5760  -19.1920   20.8230 C   0  0  0  0  0  3  0  0  0  0  0  0
  -28.6990  -17.7730   20.7690 C   0  0  0  0  0  3  0  0  0  0  0  0
  -30.9610  -19.3720   20.6170 C   0  0  0  0  0  3  0  0  0  0  0  0
  -29.7120  -20.0340   20.7510 C   0  0  0  0  0  0  0  0  0  0  0  0
  -31.1010  -17.9520   20.5980 C   0  0  0  0  0  0  0  0  0  0  0  0
  -29.9490  -17.1020   20.6490 C   0  0  0  0  0  0  0  0  0  0  0  0
  -32.5220  -17.4180   20.6090 C   0  0  0  0  0  1  0  0  0  0  0  0
  -30.5890  -14.6350   20.0690 C   0  0  0  0  0  0  0  0  0  0  0  0
  -30.2610  -12.4570   18.9210 C   0  0  0  0  0  2  0  0  0  0  0  0
  -29.2530  -12.6590   17.7700 C   0  0  0  0  0  2  0  0  0  0  0  0
  -27.8060  -12.4940   18.2780 C   0  0  0  0  0  2  0  0  0  0  0  0
  -27.5360  -13.3080   19.5730 C   0  0  0  0  0  3  0  0  0  0  0  0
  -28.6570  -13.0870   20.6160 C   0  0  0  0  0  2  0  0  0  0  0  0
  -29.9380  -13.4320   19.9810 N   0  0  0  0  0  0  0  0  0  0  0  0
  -31.6790  -14.7950   19.5160 O   0  0  0  0  0  0  0  0  0  0  0  0
  -29.9050  -15.6380   20.6990 N   0  0  0  0  0  0  0  0  0  0  0  0
  -29.0560  -15.2760   21.1040 H   0  0  0  0  0  0  0  0  0  0  0  0
  -25.1970  -13.9010   20.4590 C   0  0  0  0  0  0  0  0  0  0  0  0
  -24.1490  -13.1240   20.8730 C   0  0  0  0  0  0  0  0  0  0  0  0
  -24.5960  -11.7720   20.7670 C   0  0  0  0  0  0  0  0  0  0  0  0
  -26.2160  -13.0220   20.1300 N   0  0  0  0  0  0  0  0  0  0  0  0
  -25.8630  -11.7340   20.3760 N   0  0  0  0  0  0  0  0  0  0  0  0
  -23.8720  -10.5070   20.9610 C   0  0  0  0  0  0  0  0  0  0  0  0
  -24.3230   -9.5330   21.8780 C   0  0  0  0  0  3  0  0  0  0  0  0
  -23.6020   -8.3340   22.0610 C   0  0  0  0  0  3  0  0  0  0  0  0
  -22.4140   -8.1020   21.3300 C   0  0  0  0  0  0  0  0  0  0  0  0
  -21.9810   -9.0660   20.4030 C   0  0  0  0  0  3  0  0  0  0  0  0
  -22.7020  -10.2560   20.2170 C   0  0  0  0  0  3  0  0  0  0  0  0
  -21.6610   -6.9560   21.4250 O   0  0  0  0  0  0  0  0  0  0  0  0
  -21.5950   -6.2320   22.5890 C   0  0  0  0  0  0  0  0  0  0  0  0
  -21.1400   -6.8040   23.7980 C   0  0  0  0  0  3  0  0  0  0  0  0
  -21.0200   -6.0040   24.9520 C   0  0  0  0  0  3  0  0  0  0  0  0
  -21.3450   -4.6350   24.9000 C   0  0  0  0  0  0  0  0  0  0  0  0
  -21.7910   -4.0630   23.6950 C   0  0  0  0  0  3  0  0  0  0  0  0
  -21.9120   -4.8590   22.5410 C   0  0  0  0  0  0  0  0  0  0  0  0
  -22.3210   -4.2960   21.3790 F   0  0  0  0  0  0  0  0  0  0  0  0
  -21.2220   -3.8680   26.0060 F   0  0  0  0  0  0  0  0  0  0  0  0
  -22.7750  -13.6000   21.2490 C   0  0  0  0  0  0  0  0  0  0  0  0
  -22.0960  -12.8790   22.1330 N   0  0  0  0  0  0  0  0  0  0  0  0
  -22.3160  -14.6470   20.7910 O   0  0  0  0  0  0  0  0  0  0  0  0
  -22.4790  -12.0350   22.5300 H   0  0  0  0  0  0  0  0  0  0  0  0
  -21.1740  -13.1790   22.4190 H   0  0  0  0  0  0  0  0  0  0  0  0
  -25.3600  -15.2760   20.3140 N   0  0  0  0  0  0  0  0  0  0  0  0
  -24.5950  -15.9200   20.4810 H   0  0  0  0  0  0  0  0  0  0  0  0
  -26.1670  -15.7200   19.8950 H   0  0  0  0  0  0  0  0  0  0  0  0
  -28.9250  -22.1240   18.6920 C   0  0  0  0  0  1  0  0  0  0  0  0
  -28.8670  -22.5270   20.1190 N   0  0  2  0  0  4  0  0  0  0  0  0
  -27.9090  -22.3850   20.4010 H   0  0  0  0  0  0  0  0  0  0  0  0
  -29.1750  -24.0110   20.3490 C   0  0  0  0  0  3  0  0  0  0  0  0
  -28.0730  -25.0710   19.9170 C   0  0  0  0  0  3  0  0  0  0  0  0
  -28.2910  -26.5150   20.1870 O   0  0  0  0  0  0  0  0  0  0  0  0
  -24.5750  -31.9060   23.2340 C   0  0  0  0  0  0  0  0  0  0  0  0
  -27.1710  -27.3630   20.1430 C   0  0  0  0  0  0  0  0  0  0  0  0
  -23.3610  -30.5030   21.6080 C   0  0  0  0  0  3  0  0  0  0  0  0
  -24.8020  -28.9670   20.1630 C   0  0  0  0  0  0  0  0  0  0  0  0
  -25.9010  -30.8310   21.4040 C   0  0  0  0  0  2  0  0  0  0  0  0
  -25.9780  -29.4570   20.7490 C   0  0  0  0  0  0  0  0  0  0  0  0
  -27.1670  -28.6690   20.7250 C   0  0  0  0  0  3  0  0  0  0  0  0
  -25.9690  -26.9270   19.5380 C   0  0  0  0  0  3  0  0  0  0  0  0
  -24.8000  -27.7070   19.5530 C   0  0  0  0  0  3  0  0  0  0  0  0
  -23.5640  -29.8350   20.2240 C   0  0  0  0  0  2  0  0  0  0  0  0
  -24.6310  -31.0980   22.1370 N   0  0  0  0  0  0  0  0  0  0  0  0
  -23.4960  -32.1800   23.7800 O   0  0  0  0  0  0  0  0  0  0  0  0
  -22.7140  -29.4790   22.5720 C   0  0  0  0  0  0  0  0  0  0  0  0
  -21.3900  -29.2850   22.4510 N   0  0  0  0  0  0  0  0  0  0  0  0
  -23.4030  -28.8640   23.3910 O   0  0  0  0  0  0  0  0  0  0  0  0
  -20.8920  -29.8370   21.7660 H   0  0  0  0  0  0  0  0  0  0  0  0
  -18.0250  -28.0530   22.9570 C   0  0  0  0  0  0  0  0  0  0  0  0
  -20.5800  -28.3420   23.2250 C   0  0  0  0  0  3  0  0  0  0  0  0
  -20.6990  -26.9070   22.6610 C   0  0  0  0  0  2  0  0  0  0  0  0
  -19.5990  -26.5650   21.6500 C   0  0  0  0  0  2  0  0  0  0  0  0
  -18.2170  -26.7000   22.2930 C   0  0  0  0  0  2  0  0  0  0  0  0
  -19.1350  -28.8300   23.3810 C   0  0  0  0  0  0  0  0  0  0  0  0
  -18.9020  -30.0960   23.9620 C   0  0  0  0  0  3  0  0  0  0  0  0
  -17.5920  -30.5850   24.1200 C   0  0  0  0  0  3  0  0  0  0  0  0
  -16.4960  -29.8040   23.7140 C   0  0  0  0  0  3  0  0  0  0  0  0
  -16.7140  -28.5390   23.1390 C   0  0  0  0  0  3  0  0  0  0  0  0
  -25.8610  -32.5440   23.8460 C   0  0  0  0  0  3  0  0  0  0  0  0
  -26.3890  -31.7780   25.1200 C   0  0  1  0  0  0  0  0  0  0  0  0
  -25.3070  -31.5360   26.1960 C   0  0  0  0  0  1  0  0  0  0  0  0
  -26.9760  -30.4030   24.7280 C   0  0  0  0  0  1  0  0  0  0  0  0
  -27.5390  -32.5820   25.7720 C   0  0  0  0  0  1  0  0  0  0  0  0
  -25.5500  -33.9410   24.1760 N   0  0  0  0  0  0  0  0  0  0  0  0
  -25.8640  -34.9940   23.4080 C   0  0  0  0  0  0  0  0  0  0  0  0
  -26.5130  -34.8890   22.3640 O   0  0  0  0  0  0  0  0  0  0  0  0
  -24.9720  -34.0970   24.9890 H   0  0  0  0  0  0  0  0  0  0  0  0
  -24.1130  -36.7690   23.0870 C   0  0  0  0  0  1  0  0  0  0  0  0
  -25.3770  -36.3800   23.8700 C   0  0  0  0  0  3  0  0  0  0  0  0
  -27.5220  -37.2840   24.6470 C   0  0  0  0  0  1  0  0  0  0  0  0
  -26.3980  -37.4400   23.7280 N   0  0  0  0  0  0  0  0  0  0  0  0
  -25.9880  -38.3580   23.8820 H   0  0  0  0  0  0  0  0  0  0  0  0
  3  2  1  0
  4  5  1  0
  5  2  2  0
  5  1  1  0
  6  8  1  0
  6  4  2  0
  6  7  1  0
  7 17  1  0
  7  3  2  0
  9 17  1  0
 10 15  1  0
 11 12  1  0
 11 10  1  0
 13 12  1  0
 13 22  1  0
 13 14  1  0
 15  9  1  0
 15 14  1  0
 16  9  2  0
 17 18  1  0
 19 20  2  0
 20 39  1  0
 21 20  1  0
 21 24  1  0
 22 23  1  0
 22 19  1  0
 23 21  2  0
 24 25  1  0
 25 26  2  0
 27 30  1  0
 27 26  1  0
 28 27  2  0
 29 28  1  0
 29 24  2  0
 30 31  1  0
 31 32  1  0
 32 33  2  0
 34 33  1  0
 34 38  1  0
 35 34  2  0
 36 31  2  0
 36 35  1  0
 37 36  1  0
 39 40  1  0
 40 43  1  0
 40 42  1  0
 41 39  2  0
 44 19  1  0
 44 45  1  0
 46 44  1  0
 47 48  1  0
 48 50  1  0
 48 49  1  1
 48  1  1  0
 51 52  1  0
 51 50  2  0
 53 64  2  0
 54 52  1  0
 54 59  1  0
 55 63  1  0
 55 65  1  0
 56 62  1  0
 56 58  1  0
 57 63  1  0
 58 57  1  0
 59 58  2  0
 60 61  1  0
 60 54  2  0
 61 56  2  0
 62 55  1  0
 63 53  1  0
 65 67  2  0
 66 65  1  0
 68 66  1  0
 69 78  2  0
 69 74  1  0
 70 66  1  0
 70 74  1  0
 71 70  1  0
 72 73  1  0
 72 71  1  0
 73 69  1  0
 74 75  2  0
 75 76  1  0
 77 76  2  0
 78 77  1  0
 79 53  1  0
 79 84  1  0
 79 80  1  0
 80 83  1  1
 80 81  1  0
 82 80  1  0
 84 87  1  0
 85 89  1  0
 85 84  1  0
 86 85  2  0
 89 88  1  0
 91 89  1  0
 91 92  1  0
 91 90  1  0
M  ISO  4   9 100  17 100  51 101  52 101
M  END
>  <TORSDO>  (67) 
F 20

>  <SCORE>  (67) 
-13.508

>  <name>  (67) 
67

>  <ligand_id>  (67) 
67

>  <original_smiles>  (67) 
[H]c1c([H])c([H])c2c(c1[H])C([H])([H])C([H])([H])C([H])([H])C2([H])N([H])C(=O)C1([H])N(C(=O)C([H])(N([H])C(=O)C([H])(N([H])C([H])([H])[H])C([H])([H])[H])C(C([H])([H])[H])(C([H])([H])[H])C([H])([H])[H])C([H])([H])c2c([H])c(OC([H])([H])C([H])([H])[N+]([H])(C([H])([H])[H])C([H])([H])c3c([H])c([H])c(N([H])C(=O)N4C([H])([H])C([H])([H])C([H])([H])C([H])(n5nc(-c6c([H])c([H])c(Oc7c([H])c([H])c(F)c([H])c7F)c([H])c6[H])c(C(=O)N([H])[H])c5N([H])[H])C4([H])[H])c(C([H])([H])[H])c3[H])c([H])c([H])c2C1([H])[H]

>  <smiles>  (67) 
[H]c1c([H])c([H])c2c(c1[H])C([H])([H])C([H])([H])C([H])([H])C2([H])N([H])C(=O)C1([H])N(C(=O)C([H])(N([H])C(=O)C([H])(N([H])C([H])([H])[H])C([H])([H])[H])C(C([H])([H])[H])(C([H])([H])[H])C([H])([H])[H])C([H])([H])c2c([H])c(OC([H])([H])C([H])([H])[N+]([H])(C([H])([H])[H])C([H])([H])c3c([H])c([H])c(N([H])C(=O)N4C([H])([H])C([H])([H])C([H])([H])C([H])(n5nc(-c6c([H])c([H])c(Oc7c([H])c([H])c(F)c([H])c7F)c([H])c6[H])c(C(=O)N([H])[H])c5N([H])[H])C4([H])[H])c(C([H])([H])[H])c3[H])c([H])c([H])c2C1([H])[H]

$$$$
68:0:0
     RDKit          3D

 91 99  0  0  1  0  0  0  0  0999 V2000
  -29.3010  -18.7080   21.2520 C   0  0  0  0  0  3  0  0  0  0  0  0
  -28.9580  -20.0840   21.2950 C   0  0  0  0  0  3  0  0  0  0  0  0
  -29.8630  -18.9600   18.9050 C   0  0  0  0  0  3  0  0  0  0  0  0
  -29.8430  -18.1660   20.0690 C   0  0  0  0  0  0  0  0  0  0  0  0
  -29.1340  -20.9270   20.1690 C   0  0  0  0  0  0  0  0  0  0  0  0
  -29.5080  -20.3130   18.9410 C   0  0  0  0  0  0  0  0  0  0  0  0
  -29.5950  -21.0010   17.7760 F   0  0  0  0  0  0  0  0  0  0  0  0
  -30.6190  -16.8550   20.0090 C   0  0  0  0  0  2  0  0  0  0  0  0
  -30.7740  -14.4880   20.3280 C   0  0  0  0  0  0  0  0  0  0  0  0
  -30.4090  -12.3610   19.1760 C   0  0  0  0  0  2  0  0  0  0  0  0
  -29.4770  -12.6220   17.9770 C   0  0  0  0  0  2  0  0  0  0  0  0
  -28.0020  -12.5060   18.4060 C   0  0  0  0  0  2  0  0  0  0  0  0
  -27.6800  -13.3200   19.6900 C   0  0  0  0  0  3  0  0  0  0  0  0
  -28.7350  -13.0840   20.7950 C   0  0  0  0  0  2  0  0  0  0  0  0
  -30.0600  -13.3440   20.2160 N   0  0  0  0  0  0  0  0  0  0  0  0
  -31.9430  -14.5770   19.9420 O   0  0  0  0  0  0  0  0  0  0  0  0
  -30.0770  -15.6160   20.5750 N   0  0  0  0  0  0  0  0  0  0  0  0
  -29.1100  -15.5640   20.8570 H   0  0  0  0  0  0  0  0  0  0  0  0
  -25.2860  -13.9250   20.4000 C   0  0  0  0  0  0  0  0  0  0  0  0
  -24.2200  -13.1510   20.7790 C   0  0  0  0  0  0  0  0  0  0  0  0
  -24.6860  -11.8020   20.7560 C   0  0  0  0  0  0  0  0  0  0  0  0
  -26.3310  -13.0450   20.1740 N   0  0  0  0  0  0  0  0  0  0  0  0
  -25.9750  -11.7620   20.4450 N   0  0  0  0  0  0  0  0  0  0  0  0
  -23.9640  -10.5380   20.9600 C   0  0  0  0  0  0  0  0  0  0  0  0
  -24.3990   -9.5870   21.9080 C   0  0  0  0  0  3  0  0  0  0  0  0
  -23.6800   -8.3860   22.0980 C   0  0  0  0  0  3  0  0  0  0  0  0
  -22.5140   -8.1290   21.3400 C   0  0  0  0  0  0  0  0  0  0  0  0
  -22.0970   -9.0700   20.3820 C   0  0  0  0  0  3  0  0  0  0  0  0
  -22.8150  -10.2630   20.1910 C   0  0  0  0  0  3  0  0  0  0  0  0
  -21.7650   -6.9810   21.4410 O   0  0  0  0  0  0  0  0  0  0  0  0
  -21.7090   -6.2560   22.6030 C   0  0  0  0  0  0  0  0  0  0  0  0
  -21.2610   -6.8250   23.8160 C   0  0  0  0  0  3  0  0  0  0  0  0
  -21.1540   -6.0250   24.9720 C   0  0  0  0  0  3  0  0  0  0  0  0
  -21.4860   -4.6570   24.9140 C   0  0  0  0  0  0  0  0  0  0  0  0
  -21.9260   -4.0890   23.7060 C   0  0  0  0  0  3  0  0  0  0  0  0
  -22.0360   -4.8850   22.5530 C   0  0  0  0  0  0  0  0  0  0  0  0
  -22.4410   -4.3320   21.3850 F   0  0  0  0  0  0  0  0  0  0  0  0
  -21.3770   -3.8840   26.0200 F   0  0  0  0  0  0  0  0  0  0  0  0
  -22.8240  -13.6250   21.0480 C   0  0  0  0  0  0  0  0  0  0  0  0
  -22.1010  -12.9320   21.9210 N   0  0  0  0  0  0  0  0  0  0  0  0
  -22.3790  -14.6420   20.5170 O   0  0  0  0  0  0  0  0  0  0  0  0
  -22.4740  -12.1110   22.3730 H   0  0  0  0  0  0  0  0  0  0  0  0
  -21.1580  -13.2250   22.1360 H   0  0  0  0  0  0  0  0  0  0  0  0
  -25.4490  -15.2930   20.2070 N   0  0  0  0  0  0  0  0  0  0  0  0
  -24.6800  -15.9490   20.3080 H   0  0  0  0  0  0  0  0  0  0  0  0
  -26.2950  -15.7270   19.8640 H   0  0  0  0  0  0  0  0  0  0  0  0
  -28.9680  -22.2990   20.3290 O   0  0  0  0  0  0  0  0  0  0  0  0
  -29.6650  -23.1540   19.4050 C   0  0  0  0  0  2  0  0  0  0  0  0
  -29.6930  -24.6490   19.7830 C   0  0  0  0  0  2  0  0  0  0  0  0
  -28.3390  -25.3620   19.6460 C   0  0  0  0  0  2  0  0  0  0  0  0
  -28.4160  -26.7320   20.0880 O   0  0  0  0  0  0  0  0  0  0  0  0
  -24.5880  -31.8970   23.2330 C   0  0  0  0  0  0  0  0  0  0  0  0
  -27.2400  -27.4600   20.1100 C   0  0  0  0  0  0  0  0  0  0  0  0
  -23.3940  -30.5050   21.5820 C   0  0  0  0  0  3  0  0  0  0  0  0
  -24.8500  -28.9850   20.1510 C   0  0  0  0  0  0  0  0  0  0  0  0
  -25.9260  -30.8600   21.4000 C   0  0  0  0  0  2  0  0  0  0  0  0
  -26.0120  -29.4950   20.7440 C   0  0  0  0  0  0  0  0  0  0  0  0
  -27.2110  -28.7390   20.7190 C   0  0  0  0  0  3  0  0  0  0  0  0
  -26.0460  -26.9680   19.5300 C   0  0  0  0  0  3  0  0  0  0  0  0
  -24.8620  -27.7210   19.5450 C   0  0  0  0  0  3  0  0  0  0  0  0
  -23.6110  -29.8480   20.1960 C   0  0  0  0  0  2  0  0  0  0  0  0
  -24.6530  -31.1030   22.1280 N   0  0  0  0  0  0  0  0  0  0  0  0
  -23.5010  -32.1620   23.7680 O   0  0  0  0  0  0  0  0  0  0  0  0
  -22.7460  -29.4680   22.5300 C   0  0  0  0  0  0  0  0  0  0  0  0
  -21.4200  -29.2870   22.4040 N   0  0  0  0  0  0  0  0  0  0  0  0
  -23.4310  -28.8310   23.3330 O   0  0  0  0  0  0  0  0  0  0  0  0
  -20.9280  -29.8530   21.7280 H   0  0  0  0  0  0  0  0  0  0  0  0
  -18.0430  -28.1110   22.9190 C   0  0  0  0  0  0  0  0  0  0  0  0
  -20.6060  -28.3440   23.1700 C   0  0  0  0  0  3  0  0  0  0  0  0
  -20.6920  -26.9210   22.5700 C   0  0  0  0  0  2  0  0  0  0  0  0
  -19.5770  -26.6250   21.5620 C   0  0  0  0  0  2  0  0  0  0  0  0
  -18.2030  -26.7700   22.2210 C   0  0  0  0  0  2  0  0  0  0  0  0
  -19.1720  -28.8570   23.3500 C   0  0  0  0  0  0  0  0  0  0  0  0
  -18.9700  -30.1130   23.9620 C   0  0  0  0  0  3  0  0  0  0  0  0
  -17.6710  -30.6220   24.1460 C   0  0  0  0  0  3  0  0  0  0  0  0
  -16.5570  -29.8740   23.7290 C   0  0  0  0  0  3  0  0  0  0  0  0
  -16.7440  -28.6200   23.1220 C   0  0  0  0  0  3  0  0  0  0  0  0
  -25.8670  -32.5340   23.8590 C   0  0  0  0  0  3  0  0  0  0  0  0
  -25.5490  -33.9310   24.1850 N   0  0  0  0  0  0  0  0  0  0  0  0
  -25.8790  -34.9820   23.4240 C   0  0  0  0  0  0  0  0  0  0  0  0
  -26.5520  -34.8790   22.3940 O   0  0  0  0  0  0  0  0  0  0  0  0
  -24.9500  -34.0850   24.9820 H   0  0  0  0  0  0  0  0  0  0  0  0
  -24.1440  -36.7660   23.0590 C   0  0  0  0  0  1  0  0  0  0  0  0
  -25.3830  -36.3680   23.8770 C   0  0  0  0  0  3  0  0  0  0  0  0
  -27.5070  -37.2650   24.7190 C   0  0  0  0  0  1  0  0  0  0  0  0
  -26.4110  -37.4250   23.7680 N   0  0  0  0  0  0  0  0  0  0  0  0
  -25.9980  -38.3440   23.9110 H   0  0  0  0  0  0  0  0  0  0  0  0
  -26.3780  -31.7660   25.1370 C   0  0  1  0  0  0  0  0  0  0  0  0
  -25.2820  -31.5270   26.2010 C   0  0  0  0  0  1  0  0  0  0  0  0
  -26.9670  -30.3900   24.7470 C   0  0  0  0  0  1  0  0  0  0  0  0
  -27.5180  -32.5680   25.8090 C   0  0  0  0  0  1  0  0  0  0  0  0
  1  2  1  0
  3  6  2  0
  3  4  1  0
  4  1  2  0
  5 47  1  0
  5  2  2  0
  6  5  1  0
  7  6  1  0
  8  4  1  0
  8 17  1  0
  9 17  1  0
 10 15  1  0
 11 12  1  0
 11 10  1  0
 13 12  1  0
 13 22  1  0
 13 14  1  0
 15  9  1  0
 15 14  1  0
 16  9  2  0
 17 18  1  0
 19 20  2  0
 20 39  1  0
 21 20  1  0
 21 24  1  0
 22 19  1  0
 22 23  1  0
 23 21  2  0
 24 25  1  0
 25 26  2  0
 27 30  1  0
 27 26  1  0
 28 27  2  0
 29 28  1  0
 29 24  2  0
 30 31  1  0
 31 32  1  0
 32 33  2  0
 34 33  1  0
 34 38  1  0
 35 34  2  0
 36 31  2  0
 36 35  1  0
 37 36  1  0
 39 40  1  0
 40 43  1  0
 40 42  1  0
 41 39  2  0
 44 45  1  0
 44 19  1  0
 46 44  1  0
 48 49  1  0
 48 47  1  0
 50 49  1  0
 50 51  1  0
 51 53  1  0
 52 63  2  0
 53 58  1  0
 54 62  1  0
 54 64  1  0
 55 61  1  0
 55 57  1  0
 56 62  1  0
 57 56  1  0
 58 57  2  0
 59 60  1  0
 59 53  2  0
 60 55  2  0
 61 54  1  0
 62 52  1  0
 64 66  2  0
 65 64  1  0
 67 65  1  0
 68 77  2  0
 68 73  1  0
 69 65  1  0
 69 73  1  0
 70 69  1  0
 71 72  1  0
 71 70  1  0
 72 68  1  0
 73 74  2  0
 74 75  1  0
 76 75  2  0
 77 76  1  0
 78 52  1  0
 78 79  1  0
 78 88  1  0
 79 82  1  0
 80 84  1  0
 80 79  1  0
 81 80  2  0
 84 83  1  0
 86 84  1  0
 86 87  1  0
 86 85  1  0
 88 91  1  1
 88 89  1  0
 90 88  1  0
M  ISO  4   9 100  17 100  50 101  51 101
M  END
>  <TORSDO>  (68) 
F 21

>  <SCORE>  (68) 
-12.874

>  <name>  (68) 
68

>  <ligand_id>  (68) 
68

>  <original_smiles>  (68) 
[H]c1c([H])c([H])c2c(c1[H])C([H])([H])C([H])([H])C([H])([H])C2([H])N([H])C(=O)C1([H])N(C(=O)C([H])(N([H])C(=O)C([H])(N([H])C([H])([H])[H])C([H])([H])[H])C(C([H])([H])[H])(C([H])([H])[H])C([H])([H])[H])C([H])([H])c2c([H])c(OC([H])([H])C([H])([H])C([H])([H])Oc3c([H])c([H])c(C([H])([H])N([H])C(=O)N4C([H])([H])C([H])([H])C([H])([H])C([H])(n5nc(-c6c([H])c([H])c(Oc7c([H])c([H])c(F)c([H])c7F)c([H])c6[H])c(C(=O)N([H])[H])c5N([H])[H])C4([H])[H])c([H])c3F)c([H])c([H])c2C1([H])[H]

>  <smiles>  (68) 
[H]c1c([H])c([H])c2c(c1[H])C([H])([H])C([H])([H])C([H])([H])C2([H])N([H])C(=O)C1([H])N(C(=O)C([H])(N([H])C(=O)C([H])(N([H])C([H])([H])[H])C([H])([H])[H])C(C([H])([H])[H])(C([H])([H])[H])C([H])([H])[H])C([H])([H])c2c([H])c(OC([H])([H])C([H])([H])C([H])([H])Oc3c([H])c([H])c(C([H])([H])N([H])C(=O)N4C([H])([H])C([H])([H])C([H])([H])C([H])(n5nc(-c6c([H])c([H])c(Oc7c([H])c([H])c(F)c([H])c7F)c([H])c6[H])c(C(=O)N([H])[H])c5N([H])[H])C4([H])[H])c([H])c3F)c([H])c([H])c2C1([H])[H]

$$$$
69:0:0
     RDKit          3D

 91100  0  0  1  0  0  0  0  0999 V2000
  -29.2050  -24.4170   21.7210 C   0  0  0  0  0  2  0  0  0  0  0  0
  -29.2820  -22.8660   21.9110 C   0  0  0  0  0  2  0  0  0  0  0  0
  -28.3910  -23.3450   19.7840 C   0  0  0  0  0  2  0  0  0  0  0  0
  -28.1520  -24.7430   20.6430 C   0  0  0  0  0  3  0  0  0  0  0  0
  -29.0020  -22.2120   20.6290 N   0  0  0  0  0  0  0  0  0  0  0  0
  -30.2590  -19.9940   21.1420 C   0  0  0  0  0  3  0  0  0  0  0  0
  -30.4600  -18.5490   21.0980 C   0  0  0  0  0  3  0  0  0  0  0  0
  -28.3690  -19.8120   19.7630 C   0  0  0  0  0  3  0  0  0  0  0  0
  -29.2010  -20.7310   20.4880 C   0  0  0  0  0  0  0  0  0  0  0  0
  -29.5960  -17.6370   20.4060 C   0  0  0  0  0  0  0  0  0  0  0  0
  -28.5380  -18.3620   19.7470 C   0  0  0  0  0  0  0  0  0  0  0  0
  -27.6120  -17.6270   19.0850 F   0  0  0  0  0  0  0  0  0  0  0  0
  -30.4690  -14.9960   20.3510 C   0  0  0  0  0  0  0  0  0  0  0  0
  -30.4100  -12.6450   19.3920 C   0  0  0  0  0  2  0  0  0  0  0  0
  -29.4690  -12.5940   18.1640 C   0  0  0  0  0  2  0  0  0  0  0  0
  -28.0060  -12.3710   18.5980 C   0  0  0  0  0  2  0  0  0  0  0  0
  -27.5930  -13.2920   19.7760 C   0  0  0  0  0  3  0  0  0  0  0  0
  -28.6470  -13.2890   20.9030 C   0  0  0  0  0  2  0  0  0  0  0  0
  -29.9180  -13.7170   20.3000 N   0  0  0  0  0  0  0  0  0  0  0  0
  -31.6730  -15.1150   20.0920 O   0  0  0  0  0  0  0  0  0  0  0  0
  -29.5860  -16.1010   20.4670 N   0  0  0  0  0  0  0  0  0  0  0  0
  -28.6400  -15.7530   20.4890 H   0  0  0  0  0  0  0  0  0  0  0  0
  -25.2090  -13.8650   20.5130 C   0  0  0  0  0  0  0  0  0  0  0  0
  -24.1460  -13.0850   20.8780 C   0  0  0  0  0  0  0  0  0  0  0  0
  -24.6150  -11.7350   20.8430 C   0  0  0  0  0  0  0  0  0  0  0  0
  -26.2540  -12.9900   20.2690 N   0  0  0  0  0  0  0  0  0  0  0  0
  -25.9060  -11.7050   20.5350 N   0  0  0  0  0  0  0  0  0  0  0  0
  -23.8920  -10.4700   21.0270 C   0  0  0  0  0  0  0  0  0  0  0  0
  -24.3130   -9.5080   21.9710 C   0  0  0  0  0  3  0  0  0  0  0  0
  -23.5890   -8.3090   22.1420 C   0  0  0  0  0  3  0  0  0  0  0  0
  -22.4300   -8.0620   21.3690 C   0  0  0  0  0  0  0  0  0  0  0  0
  -22.0290   -9.0130   20.4130 C   0  0  0  0  0  3  0  0  0  0  0  0
  -22.7530  -10.2030   20.2400 C   0  0  0  0  0  3  0  0  0  0  0  0
  -21.6790   -6.9150   21.4480 O   0  0  0  0  0  0  0  0  0  0  0  0
  -21.6000   -6.1860   22.6080 C   0  0  0  0  0  0  0  0  0  0  0  0
  -21.1170   -6.7480   23.8110 C   0  0  0  0  0  3  0  0  0  0  0  0
  -20.9880   -5.9440   24.9600 C   0  0  0  0  0  3  0  0  0  0  0  0
  -21.3290   -4.5800   24.9090 C   0  0  0  0  0  0  0  0  0  0  0  0
  -21.8050   -4.0170   23.7110 C   0  0  0  0  0  3  0  0  0  0  0  0
  -21.9360   -4.8180   22.5630 C   0  0  0  0  0  0  0  0  0  0  0  0
  -22.3740   -4.2660   21.4060 F   0  0  0  0  0  0  0  0  0  0  0  0
  -21.1980   -3.8060   26.0110 F   0  0  0  0  0  0  0  0  0  0  0  0
  -22.7460  -13.5560   21.1450 C   0  0  0  0  0  0  0  0  0  0  0  0
  -22.0150  -12.8540   22.0020 N   0  0  0  0  0  0  0  0  0  0  0  0
  -22.3080  -14.5840   20.6290 O   0  0  0  0  0  0  0  0  0  0  0  0
  -22.3810  -12.0210   22.4410 H   0  0  0  0  0  0  0  0  0  0  0  0
  -21.0750  -13.1510   22.2240 H   0  0  0  0  0  0  0  0  0  0  0  0
  -25.3640  -15.2380   20.3410 N   0  0  0  0  0  0  0  0  0  0  0  0
  -24.5860  -15.8770   20.4650 H   0  0  0  0  0  0  0  0  0  0  0  0
  -26.1810  -15.6920   19.9530 H   0  0  0  0  0  0  0  0  0  0  0  0
  -28.2810  -26.2390   20.2200 O   0  0  0  0  0  0  0  0  0  0  0  0
  -24.6120  -31.8920   23.2410 C   0  0  0  0  0  0  0  0  0  0  0  0
  -27.1940  -27.1820   20.2270 C   0  0  0  0  0  0  0  0  0  0  0  0
  -23.4100  -30.4920   21.6040 C   0  0  0  0  0  3  0  0  0  0  0  0
  -24.8560  -28.9070   20.1890 C   0  0  0  0  0  0  0  0  0  0  0  0
  -25.9600  -30.7650   21.4290 C   0  0  0  0  0  2  0  0  0  0  0  0
  -26.0360  -29.3680   20.7870 C   0  0  0  0  0  0  0  0  0  0  0  0
  -27.2090  -28.5240   20.7820 C   0  0  0  0  0  3  0  0  0  0  0  0
  -25.9860  -26.8080   19.6040 C   0  0  0  0  0  3  0  0  0  0  0  0
  -24.8430  -27.6410   19.5820 C   0  0  0  0  0  3  0  0  0  0  0  0
  -23.6290  -29.8040   20.2290 C   0  0  0  0  0  2  0  0  0  0  0  0
  -24.6820  -31.0710   22.1480 N   0  0  0  0  0  0  0  0  0  0  0  0
  -23.5260  -32.1740   23.7700 O   0  0  0  0  0  0  0  0  0  0  0  0
  -22.7320  -29.4890   22.5720 C   0  0  0  0  0  0  0  0  0  0  0  0
  -21.4050  -29.3160   22.4440 N   0  0  0  0  0  0  0  0  0  0  0  0
  -23.4040  -28.8670   23.3990 O   0  0  0  0  0  0  0  0  0  0  0  0
  -20.9180  -29.8710   21.7540 H   0  0  0  0  0  0  0  0  0  0  0  0
  -18.0250  -28.1110   22.9460 C   0  0  0  0  0  0  0  0  0  0  0  0
  -20.5820  -28.3800   23.2170 C   0  0  0  0  0  3  0  0  0  0  0  0
  -20.6880  -26.9450   22.6490 C   0  0  0  0  0  2  0  0  0  0  0  0
  -19.5880  -26.6170   21.6340 C   0  0  0  0  0  2  0  0  0  0  0  0
  -18.2060  -26.7620   22.2740 C   0  0  0  0  0  2  0  0  0  0  0  0
  -19.1410  -28.8780   23.3750 C   0  0  0  0  0  0  0  0  0  0  0  0
  -18.9170  -30.1420   23.9650 C   0  0  0  0  0  3  0  0  0  0  0  0
  -17.6100  -30.6380   24.1290 C   0  0  0  0  0  3  0  0  0  0  0  0
  -16.5090  -29.8690   23.7150 C   0  0  0  0  0  3  0  0  0  0  0  0
  -16.7170  -28.6080   23.1300 C   0  0  0  0  0  3  0  0  0  0  0  0
  -25.8910  -32.5290   23.8660 C   0  0  0  0  0  3  0  0  0  0  0  0
  -25.5810  -33.9290   24.1950 N   0  0  0  0  0  0  0  0  0  0  0  0
  -25.9110  -34.9840   23.4370 C   0  0  0  0  0  0  0  0  0  0  0  0
  -26.5750  -34.8790   22.4020 O   0  0  0  0  0  0  0  0  0  0  0  0
  -24.9910  -34.0840   25.0000 H   0  0  0  0  0  0  0  0  0  0  0  0
  -24.1820  -36.7800   23.0960 C   0  0  0  0  0  1  0  0  0  0  0  0
  -25.4290  -36.3740   23.8980 C   0  0  0  0  0  3  0  0  0  0  0  0
  -27.5700  -37.2570   24.7130 C   0  0  0  0  0  1  0  0  0  0  0  0
  -26.4620  -37.4260   23.7780 N   0  0  0  0  0  0  0  0  0  0  0  0
  -26.0570  -38.3460   23.9310 H   0  0  0  0  0  0  0  0  0  0  0  0
  -26.3990  -31.7640   25.1500 C   0  0  1  0  0  0  0  0  0  0  0  0
  -25.3020  -31.5380   26.2170 C   0  0  0  0  0  1  0  0  0  0  0  0
  -26.9790  -30.3820   24.7710 C   0  0  0  0  0  1  0  0  0  0  0  0
  -27.5500  -32.5580   25.8120 C   0  0  0  0  0  1  0  0  0  0  0  0
  1  2  1  0
  3  5  1  0
  3  4  1  0
  4 51  1  0
  4  1  1  0
  5  2  1  0
  7  6  1  0
  8  9  1  0
  9  5  1  0
  9  6  2  0
 10 21  1  0
 10  7  2  0
 11  8  2  0
 11 10  1  0
 12 11  1  0
 13 21  1  0
 14 19  1  0
 15 16  1  0
 15 14  1  0
 17 16  1  0
 17 26  1  0
 17 18  1  0
 19 13  1  0
 19 18  1  0
 20 13  2  0
 21 22  1  0
 23 24  2  0
 24 43  1  0
 25 24  1  0
 25 28  1  0
 26 23  1  0
 26 27  1  0
 27 25  2  0
 28 29  1  0
 29 30  2  0
 31 34  1  0
 31 30  1  0
 32 31  2  0
 33 32  1  0
 33 28  2  0
 34 35  1  0
 35 36  1  0
 36 37  2  0
 38 37  1  0
 38 42  1  0
 39 38  2  0
 40 35  2  0
 40 39  1  0
 41 40  1  0
 43 44  1  0
 44 47  1  0
 44 46  1  0
 45 43  2  0
 48 49  1  0
 48 23  1  0
 50 48  1  0
 51 53  1  0
 52 63  2  0
 53 58  1  0
 54 62  1  0
 54 64  1  0
 55 61  1  0
 55 57  1  0
 56 62  1  0
 57 56  1  0
 58 57  2  0
 59 53  2  0
 60 59  1  0
 60 55  2  0
 61 54  1  0
 62 52  1  0
 64 66  2  0
 65 64  1  0
 67 65  1  0
 68 77  2  0
 68 73  1  0
 69 65  1  0
 69 73  1  0
 70 69  1  0
 71 72  1  0
 71 70  1  0
 72 68  1  0
 73 74  2  0
 74 75  1  0
 76 75  2  0
 77 76  1  0
 78 52  1  0
 78 79  1  0
 78 88  1  0
 79 82  1  0
 80 84  1  0
 80 79  1  0
 81 80  2  0
 84 83  1  0
 86 84  1  0
 86 87  1  0
 86 85  1  0
 88 91  1  1
 88 89  1  0
 90 88  1  0
M  ISO  4   4 101  13 100  21 100  51 101
M  END
>  <TORSDO>  (69) 
F 17

>  <SCORE>  (69) 
-15.443

>  <name>  (69) 
69

>  <ligand_id>  (69) 
69

>  <original_smiles>  (69) 
[H]c1c([H])c([H])c2c(c1[H])C([H])([H])C([H])([H])C([H])([H])C2([H])N([H])C(=O)C1([H])N(C(=O)C([H])(N([H])C(=O)C([H])(N([H])C([H])([H])[H])C([H])([H])[H])C(C([H])([H])[H])(C([H])([H])[H])C([H])([H])[H])C([H])([H])c2c([H])c(OC3([H])C([H])([H])N(c4c([H])c([H])c(N([H])C(=O)N5C([H])([H])C([H])([H])C([H])([H])C([H])(n6nc(-c7c([H])c([H])c(Oc8c([H])c([H])c(F)c([H])c8F)c([H])c7[H])c(C(=O)N([H])[H])c6N([H])[H])C5([H])[H])c(F)c4[H])C([H])([H])C3([H])[H])c([H])c([H])c2C1([H])[H]

>  <smiles>  (69) 
[H]c1c([H])c([H])c2c(c1[H])C([H])([H])C([H])([H])C([H])([H])C2([H])N([H])C(=O)C1([H])N(C(=O)C([H])(N([H])C(=O)C([H])(N([H])C([H])([H])[H])C([H])([H])[H])C(C([H])([H])[H])(C([H])([H])[H])C([H])([H])[H])C([H])([H])c2c([H])c(OC3([H])C([H])([H])N(c4c([H])c([H])c(N([H])C(=O)N5C([H])([H])C([H])([H])C([H])([H])C([H])(n6nc(-c7c([H])c([H])c(Oc8c([H])c([H])c(F)c([H])c8F)c([H])c7[H])c(C(=O)N([H])[H])c6N([H])[H])C5([H])[H])c(F)c4[H])C([H])([H])C3([H])[H])c([H])c([H])c2C1([H])[H]

$$$$
70:0:0
     RDKit          3D

 90 98  0  0  1  0  0  0  0  0999 V2000
  -30.9700  -18.5900   19.7710 C   0  0  0  0  0  3  0  0  0  0  0  0
  -30.8820  -20.0350   19.6790 C   0  0  0  0  0  3  0  0  0  0  0  0
  -28.7940  -18.5570   20.6680 C   0  0  0  0  0  3  0  0  0  0  0  0
  -29.9120  -17.7530   20.2370 C   0  0  0  0  0  0  0  0  0  0  0  0
  -29.7370  -20.8460   20.0320 C   0  0  0  0  0  0  0  0  0  0  0  0
  -28.7080  -20.0100   20.5930 C   0  0  0  0  0  0  0  0  0  0  0  0
  -27.5530  -20.5980   20.9930 F   0  0  0  0  0  0  0  0  0  0  0  0
  -30.5550  -15.0860   20.1180 C   0  0  0  0  0  0  0  0  0  0  0  0
  -30.4170  -12.7090   19.2330 C   0  0  0  0  0  2  0  0  0  0  0  0
  -29.4700  -12.5890   18.0140 C   0  0  0  0  0  2  0  0  0  0  0  0
  -28.0010  -12.4330   18.4630 C   0  0  0  0  0  2  0  0  0  0  0  0
  -27.6000  -13.3700   19.6360 C   0  0  0  0  0  3  0  0  0  0  0  0
  -28.6810  -13.4340   20.7360 C   0  0  0  0  0  2  0  0  0  0  0  0
  -29.9400  -13.8310   20.0870 N   0  0  0  0  0  0  0  0  0  0  0  0
  -31.7840  -15.1120   19.9890 O   0  0  0  0  0  0  0  0  0  0  0  0
  -29.0170  -16.2540   18.6270 C   0  0  0  0  0  1  0  0  0  0  0  0
  -29.7770  -16.2720   19.8860 N   0  0  0  0  0  0  0  0  0  0  0  0
  -25.2310  -13.9700   20.3880 C   0  0  0  0  0  0  0  0  0  0  0  0
  -24.1680  -13.2010   20.7680 C   0  0  0  0  0  0  0  0  0  0  0  0
  -24.6350  -11.8500   20.7570 C   0  0  0  0  0  0  0  0  0  0  0  0
  -26.2730  -13.0860   20.1560 N   0  0  0  0  0  0  0  0  0  0  0  0
  -25.9250  -11.8090   20.4470 N   0  0  0  0  0  0  0  0  0  0  0  0
  -23.9150  -10.5890   20.9630 C   0  0  0  0  0  0  0  0  0  0  0  0
  -24.3520   -9.6390   21.9120 C   0  0  0  0  0  3  0  0  0  0  0  0
  -23.6320   -8.4410   22.1070 C   0  0  0  0  0  3  0  0  0  0  0  0
  -22.4610   -8.1860   21.3530 C   0  0  0  0  0  0  0  0  0  0  0  0
  -22.0440   -9.1260   20.3940 C   0  0  0  0  0  3  0  0  0  0  0  0
  -22.7650  -10.3140   20.1970 C   0  0  0  0  0  3  0  0  0  0  0  0
  -21.7110   -7.0400   21.4590 O   0  0  0  0  0  0  0  0  0  0  0  0
  -21.6670   -6.3150   22.6220 C   0  0  0  0  0  0  0  0  0  0  0  0
  -21.2370   -6.8840   23.8400 C   0  0  0  0  0  3  0  0  0  0  0  0
  -21.1410   -6.0840   24.9960 C   0  0  0  0  0  3  0  0  0  0  0  0
  -21.4640   -4.7140   24.9350 C   0  0  0  0  0  0  0  0  0  0  0  0
  -21.8860   -4.1450   23.7210 C   0  0  0  0  0  3  0  0  0  0  0  0
  -21.9850   -4.9430   22.5680 C   0  0  0  0  0  0  0  0  0  0  0  0
  -22.3730   -4.3840   21.3960 F   0  0  0  0  0  0  0  0  0  0  0  0
  -21.3620   -3.9440   26.0440 F   0  0  0  0  0  0  0  0  0  0  0  0
  -22.7690  -13.6780   21.0280 C   0  0  0  0  0  0  0  0  0  0  0  0
  -22.0390  -12.9920   21.8990 N   0  0  0  0  0  0  0  0  0  0  0  0
  -22.3320  -14.6960   20.4930 O   0  0  0  0  0  0  0  0  0  0  0  0
  -22.4050  -12.1700   22.3570 H   0  0  0  0  0  0  0  0  0  0  0  0
  -21.0980  -13.2940   22.1150 H   0  0  0  0  0  0  0  0  0  0  0  0
  -25.3910  -15.3400   20.1930 N   0  0  0  0  0  0  0  0  0  0  0  0
  -24.6230  -15.9930   20.3130 H   0  0  0  0  0  0  0  0  0  0  0  0
  -26.2450  -15.7800   19.8820 H   0  0  0  0  0  0  0  0  0  0  0  0
  -30.5510  -22.6680   18.6110 C   0  0  0  0  0  1  0  0  0  0  0  0
  -29.6270  -22.3020   19.6890 N   0  0  0  0  0  0  0  0  0  0  0  0
  -29.1830  -23.5630   20.4830 C   0  0  0  0  0  2  0  0  0  0  0  0
  -28.3720  -24.8540   19.7730 C   0  0  0  0  0  2  0  0  0  0  0  0
  -28.4850  -26.3560   20.1250 O   0  0  0  0  0  0  0  0  0  0  0  0
  -24.7150  -31.8780   23.1240 C   0  0  0  0  0  0  0  0  0  0  0  0
  -27.3890  -27.2830   20.0330 C   0  0  0  0  0  0  0  0  0  0  0  0
  -23.5360  -30.4790   21.4670 C   0  0  0  0  0  3  0  0  0  0  0  0
  -25.0130  -28.9540   20.0200 C   0  0  0  0  0  0  0  0  0  0  0  0
  -26.0800  -30.8040   21.3010 C   0  0  0  0  0  2  0  0  0  0  0  0
  -26.1790  -29.4250   20.6340 C   0  0  0  0  0  0  0  0  0  0  0  0
  -27.3630  -28.6030   20.6280 C   0  0  0  0  0  3  0  0  0  0  0  0
  -26.1990  -26.9110   19.3640 C   0  0  0  0  0  3  0  0  0  0  0  0
  -25.0330  -27.7100   19.3700 C   0  0  0  0  0  3  0  0  0  0  0  0
  -23.7660  -29.8200   20.0810 C   0  0  0  0  0  2  0  0  0  0  0  0
  -24.7960  -31.0760   22.0200 N   0  0  0  0  0  0  0  0  0  0  0  0
  -23.6250  -32.1360   23.6580 O   0  0  0  0  0  0  0  0  0  0  0  0
  -22.8800  -29.4500   22.4200 C   0  0  0  0  0  0  0  0  0  0  0  0
  -21.5500  -29.2800   22.3150 N   0  0  0  0  0  0  0  0  0  0  0  0
  -23.5680  -28.8060   23.2160 O   0  0  0  0  0  0  0  0  0  0  0  0
  -21.0520  -29.8530   21.6480 H   0  0  0  0  0  0  0  0  0  0  0  0
  -18.1760  -28.0830   22.8720 C   0  0  0  0  0  0  0  0  0  0  0  0
  -20.7430  -28.3230   23.0790 C   0  0  0  0  0  3  0  0  0  0  0  0
  -20.8210  -26.9090   22.4600 C   0  0  0  0  0  2  0  0  0  0  0  0
  -19.6900  -26.6220   21.4660 C   0  0  0  0  0  2  0  0  0  0  0  0
  -18.3270  -26.7540   22.1510 C   0  0  0  0  0  2  0  0  0  0  0  0
  -19.3100  -28.8270   23.2930 C   0  0  0  0  0  0  0  0  0  0  0  0
  -19.1130  -30.0720   23.9310 C   0  0  0  0  0  3  0  0  0  0  0  0
  -17.8160  -30.5720   24.1480 C   0  0  0  0  0  3  0  0  0  0  0  0
  -16.6960  -29.8240   23.7410 C   0  0  0  0  0  3  0  0  0  0  0  0
  -16.8790  -28.5810   23.1090 C   0  0  0  0  0  3  0  0  0  0  0  0
  -25.9850  -32.5270   23.7560 C   0  0  0  0  0  3  0  0  0  0  0  0
  -26.5170  -31.7460   25.0200 C   0  0  1  0  0  0  0  0  0  0  0  0
  -25.4320  -31.4740   26.0880 C   0  0  0  0  0  1  0  0  0  0  0  0
  -27.1210  -30.3830   24.6100 C   0  0  0  0  0  1  0  0  0  0  0  0
  -27.6550  -32.5500   25.6910 C   0  0  0  0  0  1  0  0  0  0  0  0
  -25.6470  -33.9140   24.1150 N   0  0  0  0  0  0  0  0  0  0  0  0
  -25.9520  -34.9900   23.3780 C   0  0  0  0  0  0  0  0  0  0  0  0
  -26.6150  -34.9210   22.3390 O   0  0  0  0  0  0  0  0  0  0  0  0
  -25.0580  -34.0390   24.9250 H   0  0  0  0  0  0  0  0  0  0  0  0
  -24.1870  -36.7580   23.0780 C   0  0  0  0  0  1  0  0  0  0  0  0
  -25.4440  -36.3590   23.8700 C   0  0  0  0  0  3  0  0  0  0  0  0
  -27.5650  -37.2700   24.7050 C   0  0  0  0  0  1  0  0  0  0  0  0
  -26.4550  -37.4350   23.7710 N   0  0  0  0  0  0  0  0  0  0  0  0
  -26.0330  -38.3440   23.9380 H   0  0  0  0  0  0  0  0  0  0  0  0
  1  4  1  0
  2  1  2  0
  2  5  1  0
  4  3  2  0
  5  6  2  0
  6  3  1  0
  6  7  1  0
  9 14  1  0
 10 11  1  0
 10  9  1  0
 12 11  1  0
 12 21  1  0
 12 13  1  0
 14  8  1  0
 14 13  1  0
 15  8  2  0
 16 17  1  0
 17  8  1  0
 17  4  1  0
 18 19  2  0
 19 38  1  0
 20 19  1  0
 20 23  1  0
 21 18  1  0
 21 22  1  0
 22 20  2  0
 23 24  1  0
 24 25  2  0
 26 29  1  0
 26 25  1  0
 27 26  2  0
 28 27  1  0
 28 23  2  0
 29 30  1  0
 30 31  1  0
 31 32  2  0
 33 32  1  0
 33 37  1  0
 34 33  2  0
 35 30  2  0
 35 34  1  0
 36 35  1  0
 38 39  1  0
 39 42  1  0
 39 41  1  0
 40 38  2  0
 43 44  1  0
 43 18  1  0
 45 43  1  0
 46 47  1  0
 47  5  1  0
 47 48  1  0
 49 50  1  0
 49 48  1  0
 51 62  2  0
 52 50  1  0
 52 57  1  0
 53 61  1  0
 53 63  1  0
 54 60  1  0
 54 56  1  0
 55 61  1  0
 56 55  1  0
 57 56  2  0
 58 59  1  0
 58 52  2  0
 59 54  2  0
 60 53  1  0
 61 51  1  0
 63 65  2  0
 64 63  1  0
 66 64  1  0
 67 76  2  0
 67 72  1  0
 68 64  1  0
 68 72  1  0
 69 68  1  0
 70 71  1  0
 70 69  1  0
 71 67  1  0
 72 73  2  0
 73 74  1  0
 75 74  2  0
 76 75  1  0
 77 51  1  0
 77 82  1  0
 77 78  1  0
 78 81  1  1
 78 79  1  0
 80 78  1  0
 82 85  1  0
 83 87  1  0
 83 82  1  0
 84 83  2  0
 87 86  1  0
 89 87  1  0
 89 90  1  0
 89 88  1  0
M  ISO  4   8 100  17 100  49 101  50 101
M  END
>  <TORSDO>  (70) 
F 19

>  <SCORE>  (70) 
-13.731

>  <name>  (70) 
70

>  <ligand_id>  (70) 
70

>  <original_smiles>  (70) 
[H]c1c([H])c([H])c2c(c1[H])C([H])([H])C([H])([H])C([H])([H])C2([H])N([H])C(=O)C1([H])N(C(=O)C([H])(N([H])C(=O)C([H])(N([H])C([H])([H])[H])C([H])([H])[H])C(C([H])([H])[H])(C([H])([H])[H])C([H])([H])[H])C([H])([H])c2c([H])c(OC([H])([H])C([H])([H])N(c3c([H])c([H])c(N(C(=O)N4C([H])([H])C([H])([H])C([H])([H])C([H])(n5nc(-c6c([H])c([H])c(Oc7c([H])c([H])c(F)c([H])c7F)c([H])c6[H])c(C(=O)N([H])[H])c5N([H])[H])C4([H])[H])C([H])([H])[H])c([H])c3F)C([H])([H])[H])c([H])c([H])c2C1([H])[H]

>  <smiles>  (70) 
[H]c1c([H])c([H])c2c(c1[H])C([H])([H])C([H])([H])C([H])([H])C2([H])N([H])C(=O)C1([H])N(C(=O)C([H])(N([H])C(=O)C([H])(N([H])C([H])([H])[H])C([H])([H])[H])C(C([H])([H])[H])(C([H])([H])[H])C([H])([H])[H])C([H])([H])c2c([H])c(OC([H])([H])C([H])([H])N(c3c([H])c([H])c(N(C(=O)N4C([H])([H])C([H])([H])C([H])([H])C([H])(n5nc(-c6c([H])c([H])c(Oc7c([H])c([H])c(F)c([H])c7F)c([H])c6[H])c(C(=O)N([H])[H])c5N([H])[H])C4([H])[H])C([H])([H])[H])c([H])c3F)C([H])([H])[H])c([H])c([H])c2C1([H])[H]

$$$$
71:0:0
     RDKit          3D

 92101  0  0  1  0  0  0  0  0999 V2000
  -30.4420  -23.8520   20.3320 C   0  0  0  0  0  2  0  0  0  0  0  0
  -30.8900  -22.3960   20.0620 C   0  0  0  0  0  2  0  0  0  0  0  0
  -28.5250  -22.4310   20.3760 C   0  0  0  0  0  2  0  0  0  0  0  0
  -28.9510  -23.9030   19.9780 C   0  0  0  0  0  3  0  0  0  0  0  0
  -29.7100  -21.5480   20.2210 N   0  0  0  0  0  0  0  0  0  0  0  0
  -28.6380  -19.3140   20.6040 C   0  0  0  0  0  3  0  0  0  0  0  0
  -28.6870  -17.8900   20.6850 C   0  0  0  0  0  3  0  0  0  0  0  0
  -31.0290  -17.9240   20.1680 C   0  0  0  0  0  3  0  0  0  0  0  0
  -29.7790  -20.1020   20.3000 C   0  0  0  0  0  0  0  0  0  0  0  0
  -29.8800  -17.1470   20.4650 C   0  0  0  0  0  0  0  0  0  0  0  0
  -30.9840  -19.3500   20.0840 C   0  0  0  0  0  0  0  0  0  0  0  0
  -32.1440  -19.9830   19.7840 F   0  0  0  0  0  0  0  0  0  0  0  0
  -30.6320  -14.6730   20.0980 C   0  0  0  0  0  0  0  0  0  0  0  0
  -30.3890  -12.4690   18.9650 C   0  0  0  0  0  2  0  0  0  0  0  0
  -29.3840  -12.6400   17.8020 C   0  0  0  0  0  2  0  0  0  0  0  0
  -27.9330  -12.4660   18.2950 C   0  0  0  0  0  2  0  0  0  0  0  0
  -27.6390  -13.2820   19.5820 C   0  0  0  0  0  3  0  0  0  0  0  0
  -28.7480  -13.0770   20.6380 C   0  0  0  0  0  2  0  0  0  0  0  0
  -30.0300  -13.4440   20.0150 N   0  0  0  0  0  0  0  0  0  0  0  0
  -31.7630  -14.8660   19.6380 O   0  0  0  0  0  0  0  0  0  0  0  0
  -29.8360  -15.6850   20.5710 N   0  0  0  0  0  0  0  0  0  0  0  0
  -28.9670  -15.3260   20.9370 H   0  0  0  0  0  0  0  0  0  0  0  0
  -25.2780  -13.8640   20.4110 C   0  0  0  0  0  0  0  0  0  0  0  0
  -24.2300  -13.0830   20.8200 C   0  0  0  0  0  0  0  0  0  0  0  0
  -24.6940  -11.7340   20.7490 C   0  0  0  0  0  0  0  0  0  0  0  0
  -26.3130  -12.9900   20.1180 N   0  0  0  0  0  0  0  0  0  0  0  0
  -25.9690  -11.7030   20.3800 N   0  0  0  0  0  0  0  0  0  0  0  0
  -23.9800  -10.4670   20.9540 C   0  0  0  0  0  0  0  0  0  0  0  0
  -24.4360   -9.5050   21.8840 C   0  0  0  0  0  3  0  0  0  0  0  0
  -23.7250   -8.3010   22.0760 C   0  0  0  0  0  3  0  0  0  0  0  0
  -22.5440   -8.0510   21.3390 C   0  0  0  0  0  0  0  0  0  0  0  0
  -22.1060   -9.0000   20.3990 C   0  0  0  0  0  3  0  0  0  0  0  0
  -22.8180  -10.1960   20.2050 C   0  0  0  0  0  3  0  0  0  0  0  0
  -21.8010   -6.9000   21.4430 O   0  0  0  0  0  0  0  0  0  0  0  0
  -21.7460   -6.1800   22.6090 C   0  0  0  0  0  0  0  0  0  0  0  0
  -21.2920   -6.7540   23.8180 C   0  0  0  0  0  3  0  0  0  0  0  0
  -21.1860   -5.9590   24.9770 C   0  0  0  0  0  3  0  0  0  0  0  0
  -21.5240   -4.5930   24.9290 C   0  0  0  0  0  0  0  0  0  0  0  0
  -21.9700   -4.0200   23.7250 C   0  0  0  0  0  3  0  0  0  0  0  0
  -22.0780   -4.8110   22.5680 C   0  0  0  0  0  0  0  0  0  0  0  0
  -22.4890   -4.2490   21.4060 F   0  0  0  0  0  0  0  0  0  0  0  0
  -21.4160   -3.8270   26.0400 F   0  0  0  0  0  0  0  0  0  0  0  0
  -22.8450  -13.5520   21.1640 C   0  0  0  0  0  0  0  0  0  0  0  0
  -22.1580  -12.8400   22.0490 N   0  0  0  0  0  0  0  0  0  0  0  0
  -22.3820  -14.5840   20.6810 O   0  0  0  0  0  0  0  0  0  0  0  0
  -22.5480  -12.0050   22.4620 H   0  0  0  0  0  0  0  0  0  0  0  0
  -21.2310  -13.1340   22.3210 H   0  0  0  0  0  0  0  0  0  0  0  0
  -25.4290  -15.2380   20.2440 N   0  0  0  0  0  0  0  0  0  0  0  0
  -24.6560  -15.8810   20.3750 H   0  0  0  0  0  0  0  0  0  0  0  0
  -26.2410  -15.6730   19.8270 H   0  0  0  0  0  0  0  0  0  0  0  0
  -28.1380  -25.1210   20.6120 C   0  0  0  0  0  2  0  0  0  0  0  0
  -28.3530  -26.5060   20.1300 O   0  0  0  0  0  0  0  0  0  0  0  0
  -24.6110  -31.8700   23.1850 C   0  0  0  0  0  0  0  0  0  0  0  0
  -27.2360  -27.3500   20.1090 C   0  0  0  0  0  0  0  0  0  0  0  0
  -23.4070  -30.4750   21.5410 C   0  0  0  0  0  3  0  0  0  0  0  0
  -24.8620  -28.9370   20.1050 C   0  0  0  0  0  0  0  0  0  0  0  0
  -25.9420  -30.8080   21.3500 C   0  0  0  0  0  2  0  0  0  0  0  0
  -26.0290  -29.4340   20.7010 C   0  0  0  0  0  0  0  0  0  0  0  0
  -27.2210  -28.6510   20.6930 C   0  0  0  0  0  3  0  0  0  0  0  0
  -26.0540  -26.9050   19.4770 C   0  0  0  0  0  3  0  0  0  0  0  0
  -24.8750  -27.6780   19.4830 C   0  0  0  0  0  3  0  0  0  0  0  0
  -23.6190  -29.8040   20.1580 C   0  0  0  0  0  2  0  0  0  0  0  0
  -24.6720  -31.0680   22.0820 N   0  0  0  0  0  0  0  0  0  0  0  0
  -23.5300  -32.1410   23.7250 O   0  0  0  0  0  0  0  0  0  0  0  0
  -22.7530  -29.4500   22.4980 C   0  0  0  0  0  0  0  0  0  0  0  0
  -21.4240  -29.2790   22.3820 N   0  0  0  0  0  0  0  0  0  0  0  0
  -23.4380  -28.8140   23.3010 O   0  0  0  0  0  0  0  0  0  0  0  0
  -20.9320  -29.8400   21.7010 H   0  0  0  0  0  0  0  0  0  0  0  0
  -18.0460  -28.1050   22.9190 C   0  0  0  0  0  0  0  0  0  0  0  0
  -20.6100  -28.3400   23.1530 C   0  0  0  0  0  3  0  0  0  0  0  0
  -20.6920  -26.9150   22.5570 C   0  0  0  0  0  2  0  0  0  0  0  0
  -19.5730  -26.6140   21.5550 C   0  0  0  0  0  2  0  0  0  0  0  0
  -18.2020  -26.7630   22.2220 C   0  0  0  0  0  2  0  0  0  0  0  0
  -19.1780  -28.8510   23.3420 C   0  0  0  0  0  0  0  0  0  0  0  0
  -18.9790  -30.1080   23.9530 C   0  0  0  0  0  3  0  0  0  0  0  0
  -17.6810  -30.6190   24.1430 C   0  0  0  0  0  3  0  0  0  0  0  0
  -16.5630  -29.8690   23.7350 C   0  0  0  0  0  3  0  0  0  0  0  0
  -16.7470  -28.6130   23.1300 C   0  0  0  0  0  3  0  0  0  0  0  0
  -25.8950  -32.5020   23.8050 C   0  0  0  0  0  3  0  0  0  0  0  0
  -25.5830  -33.8980   24.1440 N   0  0  0  0  0  0  0  0  0  0  0  0
  -25.9090  -34.9560   23.3900 C   0  0  0  0  0  0  0  0  0  0  0  0
  -26.5740  -34.8590   22.3550 O   0  0  0  0  0  0  0  0  0  0  0  0
  -24.9920  -34.0450   24.9490 H   0  0  0  0  0  0  0  0  0  0  0  0
  -24.1750  -36.7480   23.0430 C   0  0  0  0  0  1  0  0  0  0  0  0
  -25.4160  -36.3400   23.8550 C   0  0  0  0  0  3  0  0  0  0  0  0
  -27.5480  -37.2240   24.6950 C   0  0  0  0  0  1  0  0  0  0  0  0
  -26.4470  -37.3960   23.7510 N   0  0  0  0  0  0  0  0  0  0  0  0
  -26.0380  -38.3140   23.9040 H   0  0  0  0  0  0  0  0  0  0  0  0
  -26.4190  -31.7250   25.0750 C   0  0  1  0  0  0  0  0  0  0  0  0
  -25.3290  -31.4770   26.1450 C   0  0  0  0  0  1  0  0  0  0  0  0
  -27.0050  -30.3510   24.6770 C   0  0  0  0  0  1  0  0  0  0  0  0
  -27.5700  -32.5190   25.7360 C   0  0  0  0  0  1  0  0  0  0  0  0
  2  5  1  0
  2  1  1  0
  4  1  1  0
  4  3  1  0
  4 51  1  0
  5  9  1  0
  5  3  1  0
  6  7  1  0
  8 10  1  0
  9  6  2  0
 10 21  1  0
 10  7  2  0
 11  8  2  0
 11  9  1  0
 12 11  1  0
 13 21  1  0
 14 19  1  0
 15 16  1  0
 15 14  1  0
 17 16  1  0
 17 26  1  0
 17 18  1  0
 19 13  1  0
 19 18  1  0
 20 13  2  0
 21 22  1  0
 23 24  2  0
 24 43  1  0
 25 24  1  0
 25 28  1  0
 26 27  1  0
 26 23  1  0
 27 25  2  0
 28 29  1  0
 29 30  2  0
 31 34  1  0
 31 30  1  0
 32 31  2  0
 33 32  1  0
 33 28  2  0
 34 35  1  0
 35 36  1  0
 36 37  2  0
 38 37  1  0
 38 42  1  0
 39 38  2  0
 40 35  2  0
 40 39  1  0
 41 40  1  0
 43 44  1  0
 44 47  1  0
 44 46  1  0
 45 43  2  0
 48 49  1  0
 48 23  1  0
 50 48  1  0
 52 51  1  0
 53 64  2  0
 54 52  1  0
 54 59  1  0
 55 63  1  0
 55 65  1  0
 56 62  1  0
 56 58  1  0
 57 63  1  0
 58 57  1  0
 59 58  2  0
 60 61  1  0
 60 54  2  0
 61 56  2  0
 62 55  1  0
 63 53  1  0
 65 67  2  0
 66 65  1  0
 68 66  1  0
 69 78  2  0
 69 74  1  0
 70 66  1  0
 70 74  1  0
 71 70  1  0
 72 73  1  0
 72 71  1  0
 73 69  1  0
 74 75  2  0
 75 76  1  0
 77 76  2  0
 78 77  1  0
 79 53  1  0
 79 80  1  0
 79 89  1  0
 80 83  1  0
 81 85  1  0
 81 80  1  0
 82 81  2  0
 85 84  1  0
 87 85  1  0
 87 88  1  0
 87 86  1  0
 89 92  1  1
 89 90  1  0
 91 89  1  0
M  ISO  4  13 100  21 100  51 101  52 101
M  END
>  <TORSDO>  (71) 
F 18

>  <SCORE>  (71) 
-14.634

>  <name>  (71) 
71

>  <ligand_id>  (71) 
71

>  <original_smiles>  (71) 
[H]c1c([H])c([H])c2c(c1[H])C([H])([H])C([H])([H])C([H])([H])C2([H])N([H])C(=O)C1([H])N(C(=O)C([H])(N([H])C(=O)C([H])(N([H])C([H])([H])[H])C([H])([H])[H])C(C([H])([H])[H])(C([H])([H])[H])C([H])([H])[H])C([H])([H])c2c([H])c(OC([H])([H])C3([H])C([H])([H])N(c4c([H])c([H])c(N([H])C(=O)N5C([H])([H])C([H])([H])C([H])([H])C([H])(n6nc(-c7c([H])c([H])c(Oc8c([H])c([H])c(F)c([H])c8F)c([H])c7[H])c(C(=O)N([H])[H])c6N([H])[H])C5([H])[H])c([H])c4F)C([H])([H])C3([H])[H])c([H])c([H])c2C1([H])[H]

>  <smiles>  (71) 
[H]c1c([H])c([H])c2c(c1[H])C([H])([H])C([H])([H])C([H])([H])C2([H])N([H])C(=O)C1([H])N(C(=O)C([H])(N([H])C(=O)C([H])(N([H])C([H])([H])[H])C([H])([H])[H])C(C([H])([H])[H])(C([H])([H])[H])C([H])([H])[H])C([H])([H])c2c([H])c(OC([H])([H])C3([H])C([H])([H])N(c4c([H])c([H])c(N([H])C(=O)N5C([H])([H])C([H])([H])C([H])([H])C([H])(n6nc(-c7c([H])c([H])c(Oc8c([H])c([H])c(F)c([H])c8F)c([H])c7[H])c(C(=O)N([H])[H])c6N([H])[H])C5([H])[H])c([H])c4F)C([H])([H])C3([H])[H])c([H])c([H])c2C1([H])[H]

$$$$
72:0:0
     RDKit          3D

 90 99  0  0  1  0  0  0  0  0999 V2000
  -29.1270  -24.4210   21.7300 C   0  0  0  0  0  2  0  0  0  0  0  0
  -29.2060  -22.8660   21.8870 C   0  0  0  0  0  2  0  0  0  0  0  0
  -28.4420  -23.3910   19.7210 C   0  0  0  0  0  2  0  0  0  0  0  0
  -28.1410  -24.7640   20.5960 C   0  0  0  0  0  3  0  0  0  0  0  0
  -28.9880  -22.2370   20.5810 N   0  0  0  0  0  0  0  0  0  0  0  0
  -30.1550  -19.9910   21.1770 C   0  0  0  0  0  3  0  0  0  0  0  0
  -28.4820  -19.8780   19.5370 C   0  0  0  0  0  3  0  0  0  0  0  0
  -30.3590  -18.5470   21.1040 C   0  0  0  0  0  3  0  0  0  0  0  0
  -28.6590  -18.4290   19.4880 C   0  0  0  0  0  3  0  0  0  0  0  0
  -29.2000  -20.7620   20.4120 C   0  0  0  0  0  0  0  0  0  0  0  0
  -29.6080  -17.6650   20.2610 C   0  0  0  0  0  0  0  0  0  0  0  0
  -30.4700  -15.0200   20.1680 C   0  0  0  0  0  0  0  0  0  0  0  0
  -30.3850  -12.6760   19.1950 C   0  0  0  0  0  2  0  0  0  0  0  0
  -29.4100  -12.6390   17.9940 C   0  0  0  0  0  2  0  0  0  0  0  0
  -27.9600  -12.4140   18.4650 C   0  0  0  0  0  2  0  0  0  0  0  0
  -27.5810  -13.3190   19.6670 C   0  0  0  0  0  3  0  0  0  0  0  0
  -28.6700  -13.3050   20.7620 C   0  0  0  0  0  2  0  0  0  0  0  0
  -29.9200  -13.7410   20.1260 N   0  0  0  0  0  0  0  0  0  0  0  0
  -31.6660  -15.1410   19.8770 O   0  0  0  0  0  0  0  0  0  0  0  0
  -29.5890  -16.1270   20.3100 N   0  0  0  0  0  0  0  0  0  0  0  0
  -28.6480  -15.7720   20.3860 H   0  0  0  0  0  0  0  0  0  0  0  0
  -25.2170  -13.8810   20.4730 C   0  0  0  0  0  0  0  0  0  0  0  0
  -24.1680  -13.0970   20.8660 C   0  0  0  0  0  0  0  0  0  0  0  0
  -24.6390  -11.7490   20.8100 C   0  0  0  0  0  0  0  0  0  0  0  0
  -26.2580  -13.0100   20.1960 N   0  0  0  0  0  0  0  0  0  0  0  0
  -25.9210  -11.7220   20.4650 N   0  0  0  0  0  0  0  0  0  0  0  0
  -23.9240  -10.4820   21.0040 C   0  0  0  0  0  0  0  0  0  0  0  0
  -24.3720   -9.5140   21.9310 C   0  0  0  0  0  3  0  0  0  0  0  0
  -23.6560   -8.3120   22.1140 C   0  0  0  0  0  3  0  0  0  0  0  0
  -22.4760   -8.0680   21.3700 C   0  0  0  0  0  0  0  0  0  0  0  0
  -22.0470   -9.0230   20.4320 C   0  0  0  0  0  3  0  0  0  0  0  0
  -22.7640  -10.2170   20.2470 C   0  0  0  0  0  3  0  0  0  0  0  0
  -21.7300   -6.9180   21.4630 O   0  0  0  0  0  0  0  0  0  0  0  0
  -21.6810   -6.1840   22.6210 C   0  0  0  0  0  0  0  0  0  0  0  0
  -21.2370   -6.7430   23.8400 C   0  0  0  0  0  3  0  0  0  0  0  0
  -21.1380   -5.9330   24.9880 C   0  0  0  0  0  3  0  0  0  0  0  0
  -21.4710   -4.5670   24.9200 C   0  0  0  0  0  0  0  0  0  0  0  0
  -21.9090   -4.0090   23.7060 C   0  0  0  0  0  3  0  0  0  0  0  0
  -22.0100   -4.8150   22.5590 C   0  0  0  0  0  0  0  0  0  0  0  0
  -22.4120   -4.2670   21.3870 F   0  0  0  0  0  0  0  0  0  0  0  0
  -21.3680   -3.7880   26.0220 F   0  0  0  0  0  0  0  0  0  0  0  0
  -22.7750  -13.5640   21.1770 C   0  0  0  0  0  0  0  0  0  0  0  0
  -22.0720  -12.8550   22.0520 N   0  0  0  0  0  0  0  0  0  0  0  0
  -22.3210  -14.5930   20.6780 O   0  0  0  0  0  0  0  0  0  0  0  0
  -22.4530  -12.0220   22.4760 H   0  0  0  0  0  0  0  0  0  0  0  0
  -21.1380  -13.1510   22.3020 H   0  0  0  0  0  0  0  0  0  0  0  0
  -25.3620  -15.2540   20.2990 N   0  0  0  0  0  0  0  0  0  0  0  0
  -24.5780  -15.8870   20.4140 H   0  0  0  0  0  0  0  0  0  0  0  0
  -26.1610  -15.6970   19.8650 H   0  0  0  0  0  0  0  0  0  0  0  0
  -28.2900  -26.2670   20.2130 O   0  0  0  0  0  0  0  0  0  0  0  0
  -24.6360  -31.9120   23.2610 C   0  0  0  0  0  0  0  0  0  0  0  0
  -27.2050  -27.2100   20.2250 C   0  0  0  0  0  0  0  0  0  0  0  0
  -23.4290  -30.5170   21.6260 C   0  0  0  0  0  3  0  0  0  0  0  0
  -24.8690  -28.9350   20.2010 C   0  0  0  0  0  0  0  0  0  0  0  0
  -25.9790  -30.7890   21.4440 C   0  0  0  0  0  2  0  0  0  0  0  0
  -26.0520  -29.3950   20.7960 C   0  0  0  0  0  0  0  0  0  0  0  0
  -27.2230  -28.5500   20.7830 C   0  0  0  0  0  3  0  0  0  0  0  0
  -25.9950  -26.8400   19.6050 C   0  0  0  0  0  3  0  0  0  0  0  0
  -24.8530  -27.6710   19.5900 C   0  0  0  0  0  3  0  0  0  0  0  0
  -23.6420  -29.8330   20.2480 C   0  0  0  0  0  2  0  0  0  0  0  0
  -24.7020  -31.0940   22.1650 N   0  0  0  0  0  0  0  0  0  0  0  0
  -23.5530  -32.1960   23.7940 O   0  0  0  0  0  0  0  0  0  0  0  0
  -22.7540  -29.5120   22.5910 C   0  0  0  0  0  0  0  0  0  0  0  0
  -21.4260  -29.3370   22.4660 N   0  0  0  0  0  0  0  0  0  0  0  0
  -23.4270  -28.8890   23.4170 O   0  0  0  0  0  0  0  0  0  0  0  0
  -20.9370  -29.8900   21.7760 H   0  0  0  0  0  0  0  0  0  0  0  0
  -18.0500  -28.1200   22.9650 C   0  0  0  0  0  0  0  0  0  0  0  0
  -20.6080  -28.3990   23.2390 C   0  0  0  0  0  3  0  0  0  0  0  0
  -20.7190  -26.9640   22.6740 C   0  0  0  0  0  2  0  0  0  0  0  0
  -19.6220  -26.6300   21.6580 C   0  0  0  0  0  2  0  0  0  0  0  0
  -18.2380  -26.7690   22.2960 C   0  0  0  0  0  2  0  0  0  0  0  0
  -19.1630  -28.8920   23.3940 C   0  0  0  0  0  0  0  0  0  0  0  0
  -18.9340  -30.1560   23.9810 C   0  0  0  0  0  3  0  0  0  0  0  0
  -17.6240  -30.6480   24.1420 C   0  0  0  0  0  3  0  0  0  0  0  0
  -16.5260  -29.8740   23.7280 C   0  0  0  0  0  3  0  0  0  0  0  0
  -16.7400  -28.6120   23.1460 C   0  0  0  0  0  3  0  0  0  0  0  0
  -25.9170  -32.5480   23.8830 C   0  0  0  0  0  3  0  0  0  0  0  0
  -25.6090  -33.9480   24.2140 N   0  0  0  0  0  0  0  0  0  0  0  0
  -25.9370  -35.0030   23.4560 C   0  0  0  0  0  0  0  0  0  0  0  0
  -26.5960  -34.8990   22.4190 O   0  0  0  0  0  0  0  0  0  0  0  0
  -25.0230  -34.1010   25.0220 H   0  0  0  0  0  0  0  0  0  0  0  0
  -24.2060  -36.8000   23.1270 C   0  0  0  0  0  1  0  0  0  0  0  0
  -25.4580  -36.3920   23.9210 C   0  0  0  0  0  3  0  0  0  0  0  0
  -27.6040  -37.2780   24.7220 C   0  0  0  0  0  1  0  0  0  0  0  0
  -26.4900  -37.4450   23.7930 N   0  0  0  0  0  0  0  0  0  0  0  0
  -26.0870  -38.3650   23.9450 H   0  0  0  0  0  0  0  0  0  0  0  0
  -26.4280  -31.7800   25.1650 C   0  0  1  0  0  0  0  0  0  0  0  0
  -25.3330  -31.5590   26.2360 C   0  0  0  0  0  1  0  0  0  0  0  0
  -26.9980  -30.3950   24.7840 C   0  0  0  0  0  1  0  0  0  0  0  0
  -27.5850  -32.5690   25.8220 C   0  0  0  0  0  1  0  0  0  0  0  0
  1  2  1  0
  3  5  1  0
  3  4  1  0
  4 50  1  0
  4  1  1  0
  5  2  1  0
  7 10  1  0
  8  6  1  0
  9  7  2  0
  9 11  1  0
 10  5  1  0
 10  6  2  0
 11 20  1  0
 11  8  2  0
 12 20  1  0
 13 18  1  0
 14 15  1  0
 14 13  1  0
 16 15  1  0
 16 25  1  0
 16 17  1  0
 18 12  1  0
 18 17  1  0
 19 12  2  0
 20 21  1  0
 22 23  2  0
 23 42  1  0
 24 23  1  0
 24 27  1  0
 25 26  1  0
 25 22  1  0
 26 24  2  0
 27 28  1  0
 28 29  2  0
 30 33  1  0
 30 29  1  0
 31 30  2  0
 32 31  1  0
 32 27  2  0
 33 34  1  0
 34 35  1  0
 35 36  2  0
 37 36  1  0
 37 41  1  0
 38 37  2  0
 39 34  2  0
 39 38  1  0
 40 39  1  0
 42 43  1  0
 43 46  1  0
 43 45  1  0
 44 42  2  0
 47 48  1  0
 47 22  1  0
 49 47  1  0
 50 52  1  0
 51 62  2  0
 52 57  1  0
 53 61  1  0
 53 63  1  0
 54 60  1  0
 54 56  1  0
 55 61  1  0
 56 55  1  0
 57 56  2  0
 58 52  2  0
 59 58  1  0
 59 54  2  0
 60 53  1  0
 61 51  1  0
 63 65  2  0
 64 63  1  0
 66 64  1  0
 67 76  2  0
 67 72  1  0
 68 64  1  0
 68 72  1  0
 69 68  1  0
 70 71  1  0
 70 69  1  0
 71 67  1  0
 72 73  2  0
 73 74  1  0
 75 74  2  0
 76 75  1  0
 77 51  1  0
 77 78  1  0
 77 87  1  0
 78 81  1  0
 79 83  1  0
 79 78  1  0
 80 79  2  0
 83 82  1  0
 85 83  1  0
 85 86  1  0
 85 84  1  0
 87 90  1  1
 87 88  1  0
 89 87  1  0
M  ISO  4   4 101  12 100  20 100  50 101
M  END
>  <TORSDO>  (72) 
F 17

>  <SCORE>  (72) 
-15.242

>  <name>  (72) 
72

>  <ligand_id>  (72) 
72

>  <original_smiles>  (72) 
[H]c1c([H])c([H])c2c(c1[H])C([H])([H])C([H])([H])C([H])([H])C2([H])N([H])C(=O)C1([H])N(C(=O)C([H])(N([H])C(=O)C([H])(N([H])C([H])([H])[H])C([H])([H])[H])C(C([H])([H])[H])(C([H])([H])[H])C([H])([H])[H])C([H])([H])c2c([H])c(OC3([H])C([H])([H])N(c4c([H])c([H])c(N([H])C(=O)N5C([H])([H])C([H])([H])C([H])([H])C([H])(n6nc(-c7c([H])c([H])c(Oc8c([H])c([H])c(F)c([H])c8F)c([H])c7[H])c(C(=O)N([H])[H])c6N([H])[H])C5([H])[H])c([H])c4[H])C([H])([H])C3([H])[H])c([H])c([H])c2C1([H])[H]

>  <smiles>  (72) 
[H]c1c([H])c([H])c2c(c1[H])C([H])([H])C([H])([H])C([H])([H])C2([H])N([H])C(=O)C1([H])N(C(=O)C([H])(N([H])C(=O)C([H])(N([H])C([H])([H])[H])C([H])([H])[H])C(C([H])([H])[H])(C([H])([H])[H])C([H])([H])[H])C([H])([H])c2c([H])c(OC3([H])C([H])([H])N(c4c([H])c([H])c(N([H])C(=O)N5C([H])([H])C([H])([H])C([H])([H])C([H])(n6nc(-c7c([H])c([H])c(Oc8c([H])c([H])c(F)c([H])c8F)c([H])c7[H])c(C(=O)N([H])[H])c6N([H])[H])C5([H])[H])c([H])c4[H])C([H])([H])C3([H])[H])c([H])c([H])c2C1([H])[H]

$$$$
73:0:0
     RDKit          3D

 90 98  0  0  1  0  0  0  0  0999 V2000
  -30.8550  -19.7640   19.8250 C   0  0  0  0  0  3  0  0  0  0  0  0
  -30.3200  -21.0850   19.8360 C   0  0  0  0  0  3  0  0  0  0  0  0
  -28.6970  -18.8320   20.3210 C   0  0  0  0  0  3  0  0  0  0  0  0
  -30.0720  -18.6010   20.0720 C   0  0  0  0  0  0  0  0  0  0  0  0
  -28.9510  -21.3210   20.1080 C   0  0  0  0  0  0  0  0  0  0  0  0
  -28.1570  -20.1560   20.3400 C   0  0  0  0  0  0  0  0  0  0  0  0
  -26.8380  -20.3100   20.6030 F   0  0  0  0  0  0  0  0  0  0  0  0
  -30.7990  -17.2060   20.1360 C   0  0  0  0  0  2  0  0  0  0  0  0
  -30.7840  -14.6930   20.0130 C   0  0  0  0  0  0  0  0  0  0  0  0
  -30.4230  -12.4670   18.9840 C   0  0  0  0  0  2  0  0  0  0  0  0
  -29.4240  -12.5980   17.8160 C   0  0  0  0  0  2  0  0  0  0  0  0
  -27.9800  -12.4480   18.3300 C   0  0  0  0  0  2  0  0  0  0  0  0
  -27.6940  -13.3260   19.5790 C   0  0  0  0  0  3  0  0  0  0  0  0
  -28.8140  -13.2110   20.6370 C   0  0  0  0  0  2  0  0  0  0  0  0
  -30.0840  -13.5170   19.9680 N   0  0  0  0  0  0  0  0  0  0  0  0
  -31.9460  -14.7410   19.6030 O   0  0  0  0  0  0  0  0  0  0  0  0
  -30.1300  -15.8660   20.3030 N   0  0  0  0  0  0  0  0  0  0  0  0
  -29.1620  -15.8320   20.5800 H   0  0  0  0  0  0  0  0  0  0  0  0
  -25.3610  -13.9260   20.4670 C   0  0  0  0  0  0  0  0  0  0  0  0
  -24.3100  -13.1560   20.8810 C   0  0  0  0  0  0  0  0  0  0  0  0
  -24.7530  -11.8010   20.7880 C   0  0  0  0  0  0  0  0  0  0  0  0
  -26.3770  -13.0420   20.1450 N   0  0  0  0  0  0  0  0  0  0  0  0
  -26.0210  -11.7560   20.3990 N   0  0  0  0  0  0  0  0  0  0  0  0
  -24.0220  -10.5420   20.9880 C   0  0  0  0  0  0  0  0  0  0  0  0
  -24.4740   -9.5620   21.9010 C   0  0  0  0  0  3  0  0  0  0  0  0
  -23.7430   -8.3700   22.0900 C   0  0  0  0  0  3  0  0  0  0  0  0
  -22.5470   -8.1470   21.3680 C   0  0  0  0  0  0  0  0  0  0  0  0
  -22.1130   -9.1160   20.4440 C   0  0  0  0  0  3  0  0  0  0  0  0
  -22.8450  -10.3000   20.2530 C   0  0  0  0  0  3  0  0  0  0  0  0
  -21.7850   -7.0080   21.4680 O   0  0  0  0  0  0  0  0  0  0  0  0
  -21.7380   -6.2740   22.6260 C   0  0  0  0  0  0  0  0  0  0  0  0
  -21.2930   -6.8310   23.8440 C   0  0  0  0  0  3  0  0  0  0  0  0
  -21.1950   -6.0220   24.9940 C   0  0  0  0  0  3  0  0  0  0  0  0
  -21.5300   -4.6560   24.9270 C   0  0  0  0  0  0  0  0  0  0  0  0
  -21.9680   -4.0990   23.7130 C   0  0  0  0  0  3  0  0  0  0  0  0
  -22.0680   -4.9050   22.5650 C   0  0  0  0  0  0  0  0  0  0  0  0
  -22.4700   -4.3570   21.3930 F   0  0  0  0  0  0  0  0  0  0  0  0
  -21.4280   -3.8780   26.0290 F   0  0  0  0  0  0  0  0  0  0  0  0
  -22.9380  -13.6420   21.2480 C   0  0  0  0  0  0  0  0  0  0  0  0
  -22.2550  -12.9330   22.1400 N   0  0  0  0  0  0  0  0  0  0  0  0
  -22.4830  -14.6850   20.7800 O   0  0  0  0  0  0  0  0  0  0  0  0
  -22.6380  -12.0890   22.5410 H   0  0  0  0  0  0  0  0  0  0  0  0
  -21.3360  -13.2410   22.4280 H   0  0  0  0  0  0  0  0  0  0  0  0
  -25.5330  -15.3000   20.3130 N   0  0  0  0  0  0  0  0  0  0  0  0
  -24.7780  -15.9570   20.4800 H   0  0  0  0  0  0  0  0  0  0  0  0
  -26.3550  -15.7350   19.9180 H   0  0  0  0  0  0  0  0  0  0  0  0
  -28.3390  -22.5910   20.1810 O   0  0  0  0  0  0  0  0  0  0  0  0
  -29.0060  -23.8620   19.8730 C   0  0  0  0  0  2  0  0  0  0  0  0
  -28.1420  -25.1160   20.3420 C   0  0  0  0  0  2  0  0  0  0  0  0
  -28.3800  -26.4890   19.8250 O   0  0  0  0  0  0  0  0  0  0  0  0
  -24.6020  -31.7140   23.0720 C   0  0  0  0  0  0  0  0  0  0  0  0
  -27.2680  -27.3410   19.8200 C   0  0  0  0  0  0  0  0  0  0  0  0
  -23.4130  -30.3650   21.3800 C   0  0  0  0  0  3  0  0  0  0  0  0
  -24.8810  -28.9070   19.8800 C   0  0  0  0  0  0  0  0  0  0  0  0
  -25.9440  -30.7380   21.1980 C   0  0  0  0  0  2  0  0  0  0  0  0
  -26.0440  -29.3900   20.4950 C   0  0  0  0  0  0  0  0  0  0  0  0
  -27.2430  -28.6190   20.4560 C   0  0  0  0  0  3  0  0  0  0  0  0
  -26.0910  -26.9210   19.1650 C   0  0  0  0  0  3  0  0  0  0  0  0
  -24.9070  -27.6770   19.2050 C   0  0  0  0  0  3  0  0  0  0  0  0
  -23.6300  -29.7540   19.9710 C   0  0  0  0  0  2  0  0  0  0  0  0
  -24.6720  -30.9530   21.9410 N   0  0  0  0  0  0  0  0  0  0  0  0
  -23.5190  -31.9500   23.6240 O   0  0  0  0  0  0  0  0  0  0  0  0
  -22.7750  -29.2960   22.2990 C   0  0  0  0  0  0  0  0  0  0  0  0
  -21.4460  -29.1270   22.1970 N   0  0  0  0  0  0  0  0  0  0  0  0
  -23.4730  -28.6260   23.0650 O   0  0  0  0  0  0  0  0  0  0  0  0
  -20.9410  -29.7210   21.5540 H   0  0  0  0  0  0  0  0  0  0  0  0
  -18.0720  -27.9520   22.7660 C   0  0  0  0  0  0  0  0  0  0  0  0
  -20.6440  -28.1500   22.9360 C   0  0  0  0  0  3  0  0  0  0  0  0
  -20.6930  -26.7610   22.2570 C   0  0  0  0  0  2  0  0  0  0  0  0
  -19.5400  -26.5290   21.2740 C   0  0  0  0  0  2  0  0  0  0  0  0
  -18.1910  -26.6520   21.9900 C   0  0  0  0  0  2  0  0  0  0  0  0
  -19.2230  -28.6630   23.1960 C   0  0  0  0  0  0  0  0  0  0  0  0
  -19.0560  -29.8840   23.8850 C   0  0  0  0  0  3  0  0  0  0  0  0
  -17.7700  -30.3950   24.1450 C   0  0  0  0  0  3  0  0  0  0  0  0
  -16.6330  -29.6790   23.7290 C   0  0  0  0  0  3  0  0  0  0  0  0
  -16.7860  -28.4590   23.0450 C   0  0  0  0  0  3  0  0  0  0  0  0
  -25.8790  -32.3400   23.7140 C   0  0  0  0  0  3  0  0  0  0  0  0
  -26.4160  -31.5240   24.9530 C   0  0  1  0  0  0  0  0  0  0  0  0
  -25.3340  -31.2250   26.0170 C   0  0  0  0  0  1  0  0  0  0  0  0
  -27.0180  -30.1750   24.5000 C   0  0  0  0  0  1  0  0  0  0  0  0
  -27.5580  -32.3090   25.6410 C   0  0  0  0  0  1  0  0  0  0  0  0
  -25.5480  -33.7170   24.1050 N   0  0  0  0  0  0  0  0  0  0  0  0
  -25.8340  -34.8060   23.3770 C   0  0  0  0  0  0  0  0  0  0  0  0
  -26.4760  -34.7560   22.3240 O   0  0  0  0  0  0  0  0  0  0  0  0
  -24.9730  -33.8280   24.9270 H   0  0  0  0  0  0  0  0  0  0  0  0
  -24.0470  -36.5620   23.1540 C   0  0  0  0  0  1  0  0  0  0  0  0
  -25.3300  -36.1650   23.9010 C   0  0  0  0  0  3  0  0  0  0  0  0
  -27.4690  -37.0840   24.6810 C   0  0  0  0  0  1  0  0  0  0  0  0
  -26.3290  -37.2480   23.7830 N   0  0  0  0  0  0  0  0  0  0  0  0
  -25.9040  -38.1520   23.9710 H   0  0  0  0  0  0  0  0  0  0  0  0
  1  2  2  0
  1  4  1  0
  2  5  1  0
  3  6  1  0
  4  8  1  0
  4  3  2  0
  5 47  1  0
  5  6  2  0
  6  7  1  0
  8 17  1  0
  9 17  1  0
 10 15  1  0
 11 12  1  0
 11 10  1  0
 13 12  1  0
 13 22  1  0
 13 14  1  0
 15  9  1  0
 15 14  1  0
 16  9  2  0
 17 18  1  0
 19 20  2  0
 20 39  1  0
 21 20  1  0
 21 24  1  0
 22 23  1  0
 22 19  1  0
 23 21  2  0
 24 25  1  0
 25 26  2  0
 27 30  1  0
 27 26  1  0
 28 27  2  0
 29 28  1  0
 29 24  2  0
 30 31  1  0
 31 32  1  0
 32 33  2  0
 34 33  1  0
 34 38  1  0
 35 34  2  0
 36 31  2  0
 36 35  1  0
 37 36  1  0
 39 40  1  0
 40 43  1  0
 40 42  1  0
 41 39  2  0
 44 19  1  0
 44 45  1  0
 46 44  1  0
 48 47  1  0
 48 49  1  0
 50 49  1  0
 51 62  2  0
 52 50  1  0
 52 57  1  0
 53 61  1  0
 53 63  1  0
 54 60  1  0
 54 56  1  0
 55 61  1  0
 56 55  1  0
 57 56  2  0
 58 59  1  0
 58 52  2  0
 59 54  2  0
 60 53  1  0
 61 51  1  0
 63 65  2  0
 64 63  1  0
 66 64  1  0
 67 76  2  0
 67 72  1  0
 68 64  1  0
 68 72  1  0
 69 68  1  0
 70 71  1  0
 70 69  1  0
 71 67  1  0
 72 73  2  0
 73 74  1  0
 75 74  2  0
 76 75  1  0
 77 51  1  0
 77 82  1  0
 77 78  1  0
 78 81  1  1
 78 79  1  0
 80 78  1  0
 82 85  1  0
 83 87  1  0
 83 82  1  0
 84 83  2  0
 87 86  1  0
 89 87  1  0
 89 90  1  0
 89 88  1  0
M  ISO  4   9 100  17 100  49 101  50 101
M  END
>  <TORSDO>  (73) 
F 20

>  <SCORE>  (73) 
-12.872

>  <name>  (73) 
73

>  <ligand_id>  (73) 
73

>  <original_smiles>  (73) 
[H]c1c([H])c([H])c2c(c1[H])C([H])([H])C([H])([H])C([H])([H])C2([H])N([H])C(=O)C1([H])N(C(=O)C([H])(N([H])C(=O)C([H])(N([H])C([H])([H])[H])C([H])([H])[H])C(C([H])([H])[H])(C([H])([H])[H])C([H])([H])[H])C([H])([H])c2c([H])c(OC([H])([H])C([H])([H])Oc3c([H])c([H])c(C([H])([H])N([H])C(=O)N4C([H])([H])C([H])([H])C([H])([H])C([H])(n5nc(-c6c([H])c([H])c(Oc7c([H])c([H])c(F)c([H])c7F)c([H])c6[H])c(C(=O)N([H])[H])c5N([H])[H])C4([H])[H])c([H])c3F)c([H])c([H])c2C1([H])[H]

>  <smiles>  (73) 
[H]c1c([H])c([H])c2c(c1[H])C([H])([H])C([H])([H])C([H])([H])C2([H])N([H])C(=O)C1([H])N(C(=O)C([H])(N([H])C(=O)C([H])(N([H])C([H])([H])[H])C([H])([H])[H])C(C([H])([H])[H])(C([H])([H])[H])C([H])([H])[H])C([H])([H])c2c([H])c(OC([H])([H])C([H])([H])Oc3c([H])c([H])c(C([H])([H])N([H])C(=O)N4C([H])([H])C([H])([H])C([H])([H])C([H])(n5nc(-c6c([H])c([H])c(Oc7c([H])c([H])c(F)c([H])c7F)c([H])c6[H])c(C(=O)N([H])[H])c5N([H])[H])C4([H])[H])c([H])c3F)c([H])c([H])c2C1([H])[H]

$$$$
74:0:0
     RDKit          3D

 92 99  0  0  1  0  0  0  0  0999 V2000
  -29.0290  -21.5320   20.5890 C   0  0  0  0  0  2  0  0  0  0  0  0
  -30.7370  -19.4480   20.2460 C   0  0  0  0  0  3  0  0  0  0  0  0
  -30.9790  -18.0270   20.2180 C   0  0  0  0  0  3  0  0  0  0  0  0
  -28.4010  -19.0360   20.5780 C   0  0  0  0  0  3  0  0  0  0  0  0
  -29.4290  -20.0010   20.4230 C   0  0  0  0  0  0  0  0  0  0  0  0
  -29.9270  -17.0760   20.3950 C   0  0  0  0  0  0  0  0  0  0  0  0
  -28.6370  -17.6360   20.5870 C   0  0  0  0  0  3  0  0  0  0  0  0
  -27.2930  -16.5910   20.8850 Cl  0  0  0  0  0 15  0  0  0  0  0  0
  -30.7500  -14.6340   19.7830 C   0  0  0  0  0  0  0  0  0  0  0  0
  -30.4390  -12.4590   18.5980 C   0  0  0  0  0  2  0  0  0  0  0  0
  -29.3760  -12.6610   17.4920 C   0  0  0  0  0  2  0  0  0  0  0  0
  -27.9460  -12.5040   18.0460 C   0  0  0  0  0  2  0  0  0  0  0  0
  -27.7260  -13.2830   19.3700 C   0  0  0  0  0  3  0  0  0  0  0  0
  -28.8830  -13.0210   20.3610 C   0  0  0  0  0  2  0  0  0  0  0  0
  -30.1390  -13.4070   19.6920 N   0  0  0  0  0  0  0  0  0  0  0  0
  -31.8490  -14.8440   19.2580 O   0  0  0  0  0  0  0  0  0  0  0  0
  -29.9990  -15.6070   20.3880 N   0  0  0  0  0  0  0  0  0  0  0  0
  -29.2080  -15.2010   20.8660 H   0  0  0  0  0  0  0  0  0  0  0  0
  -25.3990  -13.8740   20.2880 C   0  0  0  0  0  0  0  0  0  0  0  0
  -24.3650  -13.0980   20.7380 C   0  0  0  0  0  0  0  0  0  0  0  0
  -24.8140  -11.7460   20.6360 C   0  0  0  0  0  0  0  0  0  0  0  0
  -26.4190  -12.9960   19.9570 N   0  0  0  0  0  0  0  0  0  0  0  0
  -26.0740  -11.7090   20.2190 N   0  0  0  0  0  0  0  0  0  0  0  0
  -24.0950  -10.4840   20.8520 C   0  0  0  0  0  0  0  0  0  0  0  0
  -24.5200   -9.5510   21.8240 C   0  0  0  0  0  3  0  0  0  0  0  0
  -23.8020   -8.3530   22.0260 C   0  0  0  0  0  3  0  0  0  0  0  0
  -22.6460   -8.0800   21.2570 C   0  0  0  0  0  0  0  0  0  0  0  0
  -22.2420   -9.0010   20.2740 C   0  0  0  0  0  3  0  0  0  0  0  0
  -22.9620  -10.1910   20.0710 C   0  0  0  0  0  3  0  0  0  0  0  0
  -21.9000   -6.9310   21.3660 O   0  0  0  0  0  0  0  0  0  0  0  0
  -21.7430   -6.2880   22.5680 C   0  0  0  0  0  0  0  0  0  0  0  0
  -21.1770   -6.9310   23.6900 C   0  0  0  0  0  3  0  0  0  0  0  0
  -20.9710   -6.2120   24.8850 C   0  0  0  0  0  3  0  0  0  0  0  0
  -21.3220   -4.8500   24.9560 C   0  0  0  0  0  0  0  0  0  0  0  0
  -21.8800   -4.2060   23.8380 C   0  0  0  0  0  3  0  0  0  0  0  0
  -22.0880   -4.9230   22.6460 C   0  0  0  0  0  0  0  0  0  0  0  0
  -22.6080   -4.2920   21.5660 F   0  0  0  0  0  0  0  0  0  0  0  0
  -21.1170   -4.1570   26.1000 F   0  0  0  0  0  0  0  0  0  0  0  0
  -23.0000  -13.5770   21.1420 C   0  0  0  0  0  0  0  0  0  0  0  0
  -22.3520  -12.8730   22.0650 N   0  0  0  0  0  0  0  0  0  0  0  0
  -22.5180  -14.6090   20.6760 O   0  0  0  0  0  0  0  0  0  0  0  0
  -22.7560  -12.0360   22.4630 H   0  0  0  0  0  0  0  0  0  0  0  0
  -21.4420  -13.1750   22.3800 H   0  0  0  0  0  0  0  0  0  0  0  0
  -25.5440  -15.2440   20.1090 N   0  0  0  0  0  0  0  0  0  0  0  0
  -24.8000  -15.9000   20.3180 H   0  0  0  0  0  0  0  0  0  0  0  0
  -26.3800  -15.6930   19.7590 H   0  0  0  0  0  0  0  0  0  0  0  0
  -29.4850  -22.6030   19.6220 N   0  0  0  0  0  4  0  0  0  0  0  0
  -29.5330  -22.1330   18.7320 H   0  0  0  0  0  0  0  0  0  0  0  0
  -30.4300  -22.8650   19.8510 H   0  0  0  0  0  0  0  0  0  0  0  0
  -28.6370  -23.8620   19.3730 C   0  0  0  0  0  2  0  0  0  0  0  0
  -28.7150  -25.1230   20.3490 C   0  0  0  0  0  2  0  0  0  0  0  0
  -28.6260  -26.5060   19.8120 O   0  0  0  0  0  0  0  0  0  0  0  0
  -24.6460  -31.6050   23.0470 C   0  0  0  0  0  0  0  0  0  0  0  0
  -27.4370  -27.2430   19.8780 C   0  0  0  0  0  0  0  0  0  0  0  0
  -23.4890  -30.1910   21.3810 C   0  0  0  0  0  3  0  0  0  0  0  0
  -24.9960  -28.7300   19.9170 C   0  0  0  0  0  0  0  0  0  0  0  0
  -26.0070  -30.6320   21.1830 C   0  0  0  0  0  2  0  0  0  0  0  0
  -26.1430  -29.2710   20.5100 C   0  0  0  0  0  0  0  0  0  0  0  0
  -27.3670  -28.5400   20.4730 C   0  0  0  0  0  3  0  0  0  0  0  0
  -26.2660  -26.7410   19.2760 C   0  0  0  0  0  3  0  0  0  0  0  0
  -25.0590  -27.4710   19.2930 C   0  0  0  0  0  3  0  0  0  0  0  0
  -23.7240  -29.5500   19.9870 C   0  0  0  0  0  2  0  0  0  0  0  0
  -24.7330  -30.8260   21.9290 N   0  0  0  0  0  0  0  0  0  0  0  0
  -23.5570  -31.8220   23.5980 O   0  0  0  0  0  0  0  0  0  0  0  0
  -22.8830  -29.1250   22.3250 C   0  0  0  0  0  0  0  0  0  0  0  0
  -21.5670  -28.8850   22.1980 N   0  0  0  0  0  0  0  0  0  0  0  0
  -23.5950  -28.5200   23.1310 O   0  0  0  0  0  0  0  0  0  0  0  0
  -21.0500  -29.4310   21.5230 H   0  0  0  0  0  0  0  0  0  0  0  0
  -18.2480  -27.5360   22.6980 C   0  0  0  0  0  0  0  0  0  0  0  0
  -20.7960  -27.8930   22.9500 C   0  0  0  0  0  3  0  0  0  0  0  0
  -20.9510  -26.4830   22.3340 C   0  0  0  0  0  2  0  0  0  0  0  0
  -19.8520  -26.1430   21.3220 C   0  0  0  0  0  2  0  0  0  0  0  0
  -18.4720  -26.2120   21.9830 C   0  0  0  0  0  2  0  0  0  0  0  0
  -19.3400  -28.3310   23.1370 C   0  0  0  0  0  0  0  0  0  0  0  0
  -19.0760  -29.5660   23.7660 C   0  0  0  0  0  3  0  0  0  0  0  0
  -17.7550  -30.0090   23.9600 C   0  0  0  0  0  3  0  0  0  0  0  0
  -16.6770  -29.2100   23.5400 C   0  0  0  0  0  3  0  0  0  0  0  0
  -16.9250  -27.9750   22.9120 C   0  0  0  0  0  3  0  0  0  0  0  0
  -25.9070  -32.2790   23.6720 C   0  0  0  0  0  3  0  0  0  0  0  0
  -26.4880  -31.4820   24.9050 C   0  0  1  0  0  0  0  0  0  0  0  0
  -25.4270  -31.1290   25.9750 C   0  0  0  0  0  1  0  0  0  0  0  0
  -27.1500  -30.1650   24.4410 C   0  0  0  0  0  1  0  0  0  0  0  0
  -27.5950  -32.3160   25.5920 C   0  0  0  0  0  1  0  0  0  0  0  0
  -25.5330  -33.6430   24.0700 N   0  0  0  0  0  0  0  0  0  0  0  0
  -25.7990  -34.7450   23.3560 C   0  0  0  0  0  0  0  0  0  0  0  0
  -26.4550  -34.7210   22.3110 O   0  0  0  0  0  0  0  0  0  0  0  0
  -24.9490  -33.7300   24.8880 H   0  0  0  0  0  0  0  0  0  0  0  0
  -23.9850  -36.4670   23.0940 C   0  0  0  0  0  1  0  0  0  0  0  0
  -25.2480  -36.0850   23.8820 C   0  0  0  0  0  3  0  0  0  0  0  0
  -27.3400  -37.0310   24.7520 C   0  0  0  0  0  1  0  0  0  0  0  0
  -26.2290  -37.1900   23.8170 N   0  0  0  0  0  0  0  0  0  0  0  0
  -25.7810  -38.0820   24.0070 H   0  0  0  0  0  0  0  0  0  0  0  0
  2  5  1  0
  3  2  2  0
  3  6  1  0
  4  7  1  0
  5  4  2  0
  5  1  1  0
  6  7  2  0
  9 17  1  0
 10 15  1  0
 11 12  1  0
 11 10  1  0
 13 12  1  0
 13 22  1  0
 13 14  1  0
 15  9  1  0
 15 14  1  0
 16  9  2  0
 17  6  1  0
 17 18  1  0
 19 20  2  0
 20 39  1  0
 21 20  1  0
 21 24  1  0
 22 23  1  0
 22 19  1  0
 23 21  2  0
 24 25  1  0
 25 26  2  0
 27 30  1  0
 27 26  1  0
 28 27  2  0
 29 28  1  0
 29 24  2  0
 30 31  1  0
 31 36  2  0
 31 32  1  0
 32 33  2  0
 33 34  1  0
 34 38  1  0
 35 34  2  0
 36 35  1  0
 37 36  1  0
 39 40  1  0
 40 43  1  0
 40 42  1  0
 41 39  2  0
 44 19  1  0
 44 45  1  0
 46 44  1  0
 47 49  1  0
 47  1  1  0
 48 47  1  0
 50 47  1  0
 50 51  1  0
 52 54  1  0
 52 51  1  0
 53 64  2  0
 54 59  1  0
 55 63  1  0
 55 65  1  0
 56 62  1  0
 56 58  1  0
 57 63  1  0
 58 57  1  0
 59 58  2  0
 60 61  1  0
 60 54  2  0
 61 56  2  0
 62 55  1  0
 63 53  1  0
 65 67  2  0
 66 65  1  0
 68 66  1  0
 69 78  2  0
 69 74  1  0
 70 66  1  0
 70 74  1  0
 71 70  1  0
 72 73  1  0
 72 71  1  0
 73 69  1  0
 74 75  2  0
 75 76  1  0
 77 76  2  0
 78 77  1  0
 79 53  1  0
 79 84  1  0
 79 80  1  0
 80 83  1  1
 80 81  1  0
 82 80  1  0
 84 87  1  0
 85 89  1  0
 85 84  1  0
 86 85  2  0
 89 88  1  0
 91 89  1  0
 91 92  1  0
 91 90  1  0
M  ISO  4   9 100  17 100  51 101  52 101
M  END
>  <TORSDO>  (74) 
F 20

>  <SCORE>  (74) 
-12.242

>  <name>  (74) 
74

>  <ligand_id>  (74) 
74

>  <original_smiles>  (74) 
[H]c1c([H])c([H])c2c(c1[H])C([H])([H])C([H])([H])C([H])([H])C2([H])N([H])C(=O)C1([H])N(C(=O)C([H])(N([H])C(=O)C([H])(N([H])C([H])([H])[H])C([H])([H])[H])C(C([H])([H])[H])(C([H])([H])[H])C([H])([H])[H])C([H])([H])c2c([H])c(OC([H])([H])C([H])([H])[N+]([H])([H])C([H])([H])c3c([H])c([H])c(N([H])C(=O)N4C([H])([H])C([H])([H])C([H])([H])C([H])(n5nc(-c6c([H])c([H])c(Oc7c([H])c([H])c(F)c([H])c7F)c([H])c6[H])c(C(=O)N([H])[H])c5N([H])[H])C4([H])[H])c(Cl)c3[H])c([H])c([H])c2C1([H])[H]

>  <smiles>  (74) 
[H]c1c([H])c([H])c2c(c1[H])C([H])([H])C([H])([H])C([H])([H])C2([H])N([H])C(=O)C1([H])N(C(=O)C([H])(N([H])C(=O)C([H])(N([H])C([H])([H])[H])C([H])([H])[H])C(C([H])([H])[H])(C([H])([H])[H])C([H])([H])[H])C([H])([H])c2c([H])c(OC([H])([H])C([H])([H])[N+]([H])([H])C([H])([H])c3c([H])c([H])c(N([H])C(=O)N4C([H])([H])C([H])([H])C([H])([H])C([H])(n5nc(-c6c([H])c([H])c(Oc7c([H])c([H])c(F)c([H])c7F)c([H])c6[H])c(C(=O)N([H])[H])c5N([H])[H])C4([H])[H])c(Cl)c3[H])c([H])c([H])c2C1([H])[H]

$$$$
75:0:0
     RDKit          3D

 94103  0  0  1  0  0  0  0  0999 V2000
  -30.9750  -19.4770   19.4730 C   0  0  0  0  0  3  0  0  0  0  0  0
  -31.0370  -18.0390   19.4460 C   0  0  0  0  0  3  0  0  0  0  0  0
  -28.6760  -19.3820   20.1150 C   0  0  0  0  0  3  0  0  0  0  0  0
  -29.7940  -20.2100   19.8130 C   0  0  0  0  0  0  0  0  0  0  0  0
  -29.9150  -17.2200   19.7660 C   0  0  0  0  0  0  0  0  0  0  0  0
  -28.7220  -17.9410   20.0950 C   0  0  0  0  0  0  0  0  0  0  0  0
  -30.5280  -14.7120   19.1100 C   0  0  0  0  0  0  0  0  0  0  0  0
  -30.1150  -12.5180   17.9730 C   0  0  0  0  0  2  0  0  0  0  0  0
  -28.9610  -12.6900   16.9570 C   0  0  0  0  0  2  0  0  0  0  0  0
  -27.5910  -12.5090   17.6410 C   0  0  0  0  0  2  0  0  0  0  0  0
  -27.4790  -13.3050   18.9680 C   0  0  0  0  0  3  0  0  0  0  0  0
  -28.7220  -13.0930   19.8610 C   0  0  0  0  0  2  0  0  0  0  0  0
  -29.9040  -13.4830   19.0760 N   0  0  0  0  0  0  0  0  0  0  0  0
  -31.5890  -14.8870   18.5020 O   0  0  0  0  0  0  0  0  0  0  0  0
  -29.8460  -15.7380   19.7330 N   0  0  0  0  0  0  0  0  0  0  0  0
  -29.0690  -15.4060   20.2870 H   0  0  0  0  0  0  0  0  0  0  0  0
  -25.2490  -13.8790   20.1050 C   0  0  0  0  0  0  0  0  0  0  0  0
  -24.2620  -13.0960   20.6360 C   0  0  0  0  0  0  0  0  0  0  0  0
  -24.7080  -11.7470   20.4930 C   0  0  0  0  0  0  0  0  0  0  0  0
  -26.2360  -13.0080   19.6750 N   0  0  0  0  0  0  0  0  0  0  0  0
  -25.9250  -11.7180   19.9640 N   0  0  0  0  0  0  0  0  0  0  0  0
  -24.0200  -10.4810   20.7740 C   0  0  0  0  0  0  0  0  0  0  0  0
  -24.5440   -9.5430   21.6910 C   0  0  0  0  0  3  0  0  0  0  0  0
  -23.8550   -8.3410   21.9610 C   0  0  0  0  0  3  0  0  0  0  0  0
  -22.6270   -8.0680   21.3120 C   0  0  0  0  0  0  0  0  0  0  0  0
  -22.1210   -8.9930   20.3820 C   0  0  0  0  0  3  0  0  0  0  0  0
  -22.8110  -10.1870   20.1130 C   0  0  0  0  0  3  0  0  0  0  0  0
  -21.9010   -6.9140   21.4910 O   0  0  0  0  0  0  0  0  0  0  0  0
  -21.8560   -6.2730   22.7020 C   0  0  0  0  0  0  0  0  0  0  0  0
  -21.4130   -6.9260   23.8750 C   0  0  0  0  0  3  0  0  0  0  0  0
  -21.3170   -6.2100   25.0840 C   0  0  0  0  0  3  0  0  0  0  0  0
  -21.6520   -4.8430   25.1230 C   0  0  0  0  0  0  0  0  0  0  0  0
  -22.0860   -4.1910   23.9560 C   0  0  0  0  0  3  0  0  0  0  0  0
  -22.1850   -4.9040   22.7490 C   0  0  0  0  0  0  0  0  0  0  0  0
  -22.5840   -4.2660   21.6230 F   0  0  0  0  0  0  0  0  0  0  0  0
  -21.5510   -4.1530   26.2840 F   0  0  0  0  0  0  0  0  0  0  0  0
  -22.9360  -13.5660   21.1630 C   0  0  0  0  0  0  0  0  0  0  0  0
  -22.3830  -12.8620   22.1450 N   0  0  0  0  0  0  0  0  0  0  0  0
  -22.4050  -14.5920   20.7380 O   0  0  0  0  0  0  0  0  0  0  0  0
  -22.8270  -12.0310   22.5050 H   0  0  0  0  0  0  0  0  0  0  0  0
  -21.5030  -13.1590   22.5420 H   0  0  0  0  0  0  0  0  0  0  0  0
  -25.3810  -15.2530   19.9300 N   0  0  0  0  0  0  0  0  0  0  0  0
  -24.6480  -15.9030   20.1900 H   0  0  0  0  0  0  0  0  0  0  0  0
  -26.1910  -15.7090   19.5300 H   0  0  0  0  0  0  0  0  0  0  0  0
  -26.2960  -17.6900   19.9410 C   0  0  0  0  0  1  0  0  0  0  0  0
  -27.5830  -16.6680   21.8040 C   0  0  0  0  0  1  0  0  0  0  0  0
  -27.5760  -17.1950   20.4410 N   0  0  0  0  0  0  0  0  0  0  0  0
  -29.7970  -21.7900   20.1090 C   0  0  0  0  0  2  0  0  0  0  0  0
  -28.0600  -23.7630   19.9460 C   0  0  0  0  0  2  0  0  0  0  0  0
  -29.7740  -24.1310   18.9720 C   0  0  0  0  0  2  0  0  0  0  0  0
  -28.4320  -24.9240   18.9650 C   0  0  0  0  0  3  0  0  0  0  0  0
  -29.0530  -22.8570   19.2840 N   0  0  1  0  0  4  0  0  0  0  0  0
  -28.6690  -22.4590   18.4410 H   0  0  0  0  0  0  0  0  0  0  0  0
  -28.4310  -26.3680   19.3950 O   0  0  0  0  0  0  0  0  0  0  0  0
  -24.4590  -31.3610   22.8510 C   0  0  0  0  0  0  0  0  0  0  0  0
  -27.2480  -27.1460   19.4330 C   0  0  0  0  0  0  0  0  0  0  0  0
  -23.2930  -29.9990   21.1560 C   0  0  0  0  0  3  0  0  0  0  0  0
  -24.7890  -28.6340   19.5900 C   0  0  0  0  0  0  0  0  0  0  0  0
  -25.8030  -30.4810   20.9230 C   0  0  0  0  0  2  0  0  0  0  0  0
  -25.9480  -29.1510   20.1830 C   0  0  0  0  0  0  0  0  0  0  0  0
  -27.1760  -28.4200   20.0930 C   0  0  0  0  0  3  0  0  0  0  0  0
  -26.0530  -26.6890   18.8310 C   0  0  0  0  0  3  0  0  0  0  0  0
  -24.8460  -27.4120   18.9060 C   0  0  0  0  0  3  0  0  0  0  0  0
  -23.5050  -29.4300   19.7280 C   0  0  0  0  0  2  0  0  0  0  0  0
  -24.5380  -30.6290   21.7010 N   0  0  0  0  0  0  0  0  0  0  0  0
  -23.3790  -31.5330   23.4330 O   0  0  0  0  0  0  0  0  0  0  0  0
  -22.7250  -28.8820   22.0660 C   0  0  0  0  0  0  0  0  0  0  0  0
  -21.4040  -28.6430   21.9820 N   0  0  0  0  0  0  0  0  0  0  0  0
  -23.4690  -28.2400   22.8100 O   0  0  0  0  0  0  0  0  0  0  0  0
  -20.8580  -29.2210   21.3580 H   0  0  0  0  0  0  0  0  0  0  0  0
  -18.1120  -27.2560   22.5520 C   0  0  0  0  0  0  0  0  0  0  0  0
  -20.6680  -27.6100   22.7140 C   0  0  0  0  0  3  0  0  0  0  0  0
  -20.7990  -26.2350   22.0190 C   0  0  0  0  0  2  0  0  0  0  0  0
  -19.6580  -25.9420   21.0400 C   0  0  0  0  0  2  0  0  0  0  0  0
  -18.3080  -25.9730   21.7620 C   0  0  0  0  0  2  0  0  0  0  0  0
  -19.2190  -28.0320   22.9860 C   0  0  0  0  0  0  0  0  0  0  0  0
  -18.9790  -29.2330   23.6880 C   0  0  0  0  0  3  0  0  0  0  0  0
  -17.6650  -29.6580   23.9620 C   0  0  0  0  0  3  0  0  0  0  0  0
  -16.5740  -28.8780   23.5450 C   0  0  0  0  0  3  0  0  0  0  0  0
  -16.7980  -27.6800   22.8440 C   0  0  0  0  0  3  0  0  0  0  0  0
  -25.7190  -32.0340   23.4770 C   0  0  0  0  0  3  0  0  0  0  0  0
  -26.3220  -31.2180   24.6860 C   0  0  1  0  0  0  0  0  0  0  0  0
  -25.2820  -30.8560   25.7710 C   0  0  0  0  0  1  0  0  0  0  0  0
  -26.9660  -29.9020   24.1920 C   0  0  0  0  0  1  0  0  0  0  0  0
  -27.4480  -32.0360   25.3600 C   0  0  0  0  0  1  0  0  0  0  0  0
  -25.3350  -33.3860   23.9070 N   0  0  0  0  0  0  0  0  0  0  0  0
  -25.5940  -34.5070   23.2220 C   0  0  0  0  0  0  0  0  0  0  0  0
  -26.2510  -34.5150   22.1770 O   0  0  0  0  0  0  0  0  0  0  0  0
  -24.7440  -33.4500   24.7230 H   0  0  0  0  0  0  0  0  0  0  0  0
  -23.7560  -36.2120   23.0280 C   0  0  0  0  0  1  0  0  0  0  0  0
  -25.0370  -35.8290   23.7840 C   0  0  0  0  0  3  0  0  0  0  0  0
  -27.1330  -36.7840   24.6350 C   0  0  0  0  0  1  0  0  0  0  0  0
  -26.0030  -36.9470   23.7250 N   0  0  0  0  0  0  0  0  0  0  0  0
  -25.5450  -37.8290   23.9440 H   0  0  0  0  0  0  0  0  0  0  0  0
  1  4  1  0
  2  1  2  0
  2  5  1  0
  4 48  1  0
  4  3  2  0
  5  6  2  0
  6  3  1  0
  6 47  1  0
  7 15  1  0
  8 13  1  0
  9 10  1  0
  9  8  1  0
 11 10  1  0
 11 20  1  0
 11 12  1  0
 13  7  1  0
 13 12  1  0
 14  7  2  0
 15  5  1  0
 15 16  1  0
 17 18  2  0
 18 37  1  0
 19 18  1  0
 19 22  1  0
 20 21  1  0
 20 17  1  0
 21 19  2  0
 22 23  1  0
 23 24  2  0
 25 28  1  0
 25 24  1  0
 26 25  2  0
 27 26  1  0
 27 22  2  0
 28 29  1  0
 29 34  2  0
 29 30  1  0
 30 31  2  0
 31 32  1  0
 32 36  1  0
 33 32  2  0
 34 33  1  0
 35 34  1  0
 37 38  1  0
 38 40  1  0
 38 41  1  0
 39 37  2  0
 42 17  1  0
 42 43  1  0
 44 42  1  0
 45 47  1  0
 47 46  1  0
 50 52  1  0
 51 50  1  0
 51 54  1  0
 51 49  1  0
 52 49  1  0
 52 48  1  0
 52 53  1  6
 54 56  1  0
 55 66  2  0
 56 61  1  0
 57 65  1  0
 57 67  1  0
 58 64  1  0
 58 60  1  0
 59 65  1  0
 60 59  1  0
 61 60  2  0
 62 63  1  0
 62 56  2  0
 63 58  2  0
 64 57  1  0
 65 55  1  0
 67 69  2  0
 68 67  1  0
 70 68  1  0
 71 80  2  0
 71 76  1  0
 72 68  1  0
 72 76  1  0
 73 72  1  0
 74 75  1  0
 74 73  1  0
 75 71  1  0
 76 77  2  0
 77 78  1  0
 79 78  2  0
 80 79  1  0
 81 55  1  0
 81 86  1  0
 81 82  1  0
 82 85  1  1
 82 83  1  0
 84 82  1  0
 86 89  1  0
 87 91  1  0
 87 86  1  0
 88 87  2  0
 91 90  1  0
 93 91  1  0
 93 94  1  0
 93 92  1  0
M  ISO  4   7 100  15 100  51 101  54 101
M  END
>  <TORSDO>  (75) 
F 19

>  <SCORE>  (75) 
-7.648

>  <name>  (75) 
75

>  <ligand_id>  (75) 
75

>  <original_smiles>  (75) 
[H]c1c([H])c([H])c2c(c1[H])C([H])([H])C([H])([H])C([H])([H])C2([H])N([H])C(=O)C1([H])N(C(=O)C([H])(N([H])C(=O)C([H])(N([H])C([H])([H])[H])C([H])([H])[H])C(C([H])([H])[H])(C([H])([H])[H])C([H])([H])[H])C([H])([H])c2c([H])c(OC3([H])C([H])([H])[N+]([H])(C([H])([H])c4c([H])c([H])c(N([H])C(=O)N5C([H])([H])C([H])([H])C([H])([H])C([H])(n6nc(-c7c([H])c([H])c(Oc8c([H])c([H])c(F)c([H])c8F)c([H])c7[H])c(C(=O)N([H])[H])c6N([H])[H])C5([H])[H])c(N(C([H])([H])[H])C([H])([H])[H])c4[H])C3([H])[H])c([H])c([H])c2C1([H])[H]

>  <smiles>  (75) 
[H]c1c([H])c([H])c2c(c1[H])C([H])([H])C([H])([H])C([H])([H])C2([H])N([H])C(=O)C1([H])N(C(=O)C([H])(N([H])C(=O)C([H])(N([H])C([H])([H])[H])C([H])([H])[H])C(C([H])([H])[H])(C([H])([H])[H])C([H])([H])[H])C([H])([H])c2c([H])c(OC3([H])C([H])([H])[N+]([H])(C([H])([H])c4c([H])c([H])c(N([H])C(=O)N5C([H])([H])C([H])([H])C([H])([H])C([H])(n6nc(-c7c([H])c([H])c(Oc8c([H])c([H])c(F)c([H])c8F)c([H])c7[H])c(C(=O)N([H])[H])c6N([H])[H])C5([H])[H])c(N(C([H])([H])[H])C([H])([H])[H])c4[H])C3([H])[H])c([H])c([H])c2C1([H])[H]

$$$$
76:0:0
     RDKit          3D

 91100  0  0  1  0  0  0  0  0999 V2000
  -28.1220  -24.0000   19.1170 C   0  0  0  0  0  2  0  0  0  0  0  0
  -29.2830  -24.2320   21.2260 C   0  0  0  0  0  2  0  0  0  0  0  0
  -28.0020  -22.4300   19.3680 C   0  0  0  0  0  2  0  0  0  0  0  0
  -29.2000  -22.6580   21.4570 C   0  0  0  0  0  2  0  0  0  0  0  0
  -28.1300  -24.9060   20.3980 C   0  0  0  0  0  3  0  0  0  0  0  0
  -29.0450  -21.8260   20.2380 N   0  0  0  0  0  0  0  0  0  0  0  0
  -28.3350  -19.4280   19.7210 C   0  0  0  0  0  3  0  0  0  0  0  0
  -30.3460  -19.7280   20.9470 C   0  0  0  0  0  3  0  0  0  0  0  0
  -28.5090  -18.0030   19.7980 C   0  0  0  0  0  3  0  0  0  0  0  0
  -30.5390  -18.2950   21.0040 C   0  0  0  0  0  3  0  0  0  0  0  0
  -29.2340  -20.3690   20.3060 C   0  0  0  0  0  0  0  0  0  0  0  0
  -29.6160  -17.3650   20.4350 C   0  0  0  0  0  0  0  0  0  0  0  0
  -30.5000  -14.8270   20.3720 C   0  0  0  0  0  0  0  0  0  0  0  0
  -30.3760  -12.5350   19.3600 C   0  0  0  0  0  2  0  0  0  0  0  0
  -29.4180  -12.5910   18.1470 C   0  0  0  0  0  2  0  0  0  0  0  0
  -27.9520  -12.4000   18.5880 C   0  0  0  0  0  2  0  0  0  0  0  0
  -27.5800  -13.2800   19.8110 C   0  0  0  0  0  3  0  0  0  0  0  0
  -28.6500  -13.1800   20.9210 C   0  0  0  0  0  2  0  0  0  0  0  0
  -29.9370  -13.5690   20.3250 N   0  0  0  0  0  0  0  0  0  0  0  0
  -31.6800  -14.9900   20.0430 O   0  0  0  0  0  0  0  0  0  0  0  0
  -29.6190  -15.8790   20.6010 N   0  0  0  0  0  0  0  0  0  0  0  0
  -28.6970  -15.5080   20.7690 H   0  0  0  0  0  0  0  0  0  0  0  0
  -25.1980  -13.8670   20.5640 C   0  0  0  0  0  0  0  0  0  0  0  0
  -24.1360  -13.0900   20.9370 C   0  0  0  0  0  0  0  0  0  0  0  0
  -24.5990  -11.7400   20.8890 C   0  0  0  0  0  0  0  0  0  0  0  0
  -26.2400  -12.9890   20.3090 N   0  0  0  0  0  0  0  0  0  0  0  0
  -25.8860  -11.7050   20.5680 N   0  0  0  0  0  0  0  0  0  0  0  0
  -23.8740  -10.4760   21.0730 C   0  0  0  0  0  0  0  0  0  0  0  0
  -24.3110   -9.5020   21.9970 C   0  0  0  0  0  3  0  0  0  0  0  0
  -23.5860   -8.3030   22.1700 C   0  0  0  0  0  3  0  0  0  0  0  0
  -22.4090   -8.0710   21.4180 C   0  0  0  0  0  0  0  0  0  0  0  0
  -21.9920   -9.0330   20.4830 C   0  0  0  0  0  3  0  0  0  0  0  0
  -22.7170  -10.2240   20.3080 C   0  0  0  0  0  3  0  0  0  0  0  0
  -21.6560   -6.9250   21.5000 O   0  0  0  0  0  0  0  0  0  0  0  0
  -21.6080   -6.1760   22.6480 C   0  0  0  0  0  0  0  0  0  0  0  0
  -21.1550   -6.7170   23.8720 C   0  0  0  0  0  3  0  0  0  0  0  0
  -21.0560   -5.8930   25.0120 C   0  0  0  0  0  3  0  0  0  0  0  0
  -21.3980   -4.5310   24.9290 C   0  0  0  0  0  0  0  0  0  0  0  0
  -21.8440   -3.9900   23.7100 C   0  0  0  0  0  3  0  0  0  0  0  0
  -21.9450   -4.8090   22.5720 C   0  0  0  0  0  0  0  0  0  0  0  0
  -22.3550   -4.2780   21.3950 F   0  0  0  0  0  0  0  0  0  0  0  0
  -21.2960   -3.7380   26.0200 F   0  0  0  0  0  0  0  0  0  0  0  0
  -22.7410  -13.5650   21.2240 C   0  0  0  0  0  0  0  0  0  0  0  0
  -22.0220  -12.8660   22.0940 N   0  0  0  0  0  0  0  0  0  0  0  0
  -22.2960  -14.5920   20.7110 O   0  0  0  0  0  0  0  0  0  0  0  0
  -22.3940  -12.0350   22.5310 H   0  0  0  0  0  0  0  0  0  0  0  0
  -21.0870  -13.1660   22.3300 H   0  0  0  0  0  0  0  0  0  0  0  0
  -25.3570  -15.2400   20.3950 N   0  0  0  0  0  0  0  0  0  0  0  0
  -24.5810  -15.8830   20.5100 H   0  0  0  0  0  0  0  0  0  0  0  0
  -26.1820  -15.6820   20.0150 H   0  0  0  0  0  0  0  0  0  0  0  0
  -28.2870  -26.4080   20.2390 O   0  0  0  0  0  0  0  0  0  0  0  0
  -24.6120  -31.9100   23.2850 C   0  0  0  0  0  0  0  0  0  0  0  0
  -27.1750  -27.2880   20.2180 C   0  0  0  0  0  0  0  0  0  0  0  0
  -23.3940  -30.5250   21.6440 C   0  0  0  0  0  3  0  0  0  0  0  0
  -24.8290  -28.9580   20.2110 C   0  0  0  0  0  0  0  0  0  0  0  0
  -25.9400  -30.8130   21.4560 C   0  0  0  0  0  2  0  0  0  0  0  0
  -26.0070  -29.4300   20.8030 C   0  0  0  0  0  0  0  0  0  0  0  0
  -27.1840  -28.6110   20.7850 C   0  0  0  0  0  3  0  0  0  0  0  0
  -25.9690  -26.8800   19.6100 C   0  0  0  0  0  3  0  0  0  0  0  0
  -24.8160  -27.6920   19.6020 C   0  0  0  0  0  3  0  0  0  0  0  0
  -23.6010  -29.8490   20.2630 C   0  0  0  0  0  2  0  0  0  0  0  0
  -24.6690  -31.1020   22.1850 N   0  0  0  0  0  0  0  0  0  0  0  0
  -23.5320  -32.1950   23.8230 O   0  0  0  0  0  0  0  0  0  0  0  0
  -22.7220  -29.5150   22.6050 C   0  0  0  0  0  0  0  0  0  0  0  0
  -21.3960  -29.3400   22.4740 N   0  0  0  0  0  0  0  0  0  0  0  0
  -23.3950  -28.8910   23.4290 O   0  0  0  0  0  0  0  0  0  0  0  0
  -20.9110  -29.8950   21.7830 H   0  0  0  0  0  0  0  0  0  0  0  0
  -18.0160  -28.1380   22.9570 C   0  0  0  0  0  0  0  0  0  0  0  0
  -20.5730  -28.4050   23.2440 C   0  0  0  0  0  3  0  0  0  0  0  0
  -20.6820  -26.9710   22.6760 C   0  0  0  0  0  2  0  0  0  0  0  0
  -19.5870  -26.6410   21.6560 C   0  0  0  0  0  2  0  0  0  0  0  0
  -18.2000  -26.7850   22.2890 C   0  0  0  0  0  2  0  0  0  0  0  0
  -19.1300  -28.9050   23.3910 C   0  0  0  0  0  0  0  0  0  0  0  0
  -18.9030  -30.1700   23.9770 C   0  0  0  0  0  3  0  0  0  0  0  0
  -17.5950  -30.6670   24.1330 C   0  0  0  0  0  3  0  0  0  0  0  0
  -16.4970  -29.8980   23.7140 C   0  0  0  0  0  3  0  0  0  0  0  0
  -16.7080  -28.6350   23.1310 C   0  0  0  0  0  3  0  0  0  0  0  0
  -25.8990  -32.5340   23.9070 C   0  0  0  0  0  3  0  0  0  0  0  0
  -25.6010  -33.9350   24.2370 N   0  0  0  0  0  0  0  0  0  0  0  0
  -25.9160  -34.9850   23.4660 C   0  0  0  0  0  0  0  0  0  0  0  0
  -26.5580  -34.8750   22.4170 O   0  0  0  0  0  0  0  0  0  0  0  0
  -25.0290  -34.0950   25.0530 H   0  0  0  0  0  0  0  0  0  0  0  0
  -24.1760  -36.7770   23.1660 C   0  0  0  0  0  1  0  0  0  0  0  0
  -25.4480  -36.3770   23.9310 C   0  0  0  0  0  3  0  0  0  0  0  0
  -27.6100  -37.2720   24.6750 C   0  0  0  0  0  1  0  0  0  0  0  0
  -26.4750  -37.4290   23.7700 N   0  0  0  0  0  0  0  0  0  0  0  0
  -26.0740  -38.3510   23.9220 H   0  0  0  0  0  0  0  0  0  0  0  0
  -26.4070  -31.7610   25.1850 C   0  0  1  0  0  0  0  0  0  0  0  0
  -25.3110  -31.5340   26.2540 C   0  0  0  0  0  1  0  0  0  0  0  0
  -26.9790  -30.3770   24.7990 C   0  0  0  0  0  1  0  0  0  0  0  0
  -27.5640  -32.5460   25.8470 C   0  0  0  0  0  1  0  0  0  0  0  0
  1  3  1  0
  1  5  1  0
  2  4  1  0
  3  6  1  0
  5 51  1  0
  5  2  1  0
  6 11  1  0
  6  4  1  0
  7  9  2  0
  7 11  1  0
  8 10  1  0
  9 12  1  0
 11  8  2  0
 12 21  1  0
 12 10  2  0
 13 21  1  0
 14 19  1  0
 15 16  1  0
 15 14  1  0
 17 16  1  0
 17 26  1  0
 17 18  1  0
 19 13  1  0
 19 18  1  0
 20 13  2  0
 21 22  1  0
 23 24  2  0
 24 43  1  0
 25 24  1  0
 25 28  1  0
 26 23  1  0
 26 27  1  0
 27 25  2  0
 28 29  1  0
 29 30  2  0
 31 34  1  0
 31 30  1  0
 32 31  2  0
 33 32  1  0
 33 28  2  0
 34 35  1  0
 35 36  1  0
 36 37  2  0
 38 37  1  0
 38 42  1  0
 39 38  2  0
 40 35  2  0
 40 39  1  0
 41 40  1  0
 43 44  1  0
 44 47  1  0
 44 46  1  0
 45 43  2  0
 48 49  1  0
 48 23  1  0
 50 48  1  0
 52 63  2  0
 53 51  1  0
 53 58  1  0
 54 62  1  0
 54 64  1  0
 55 61  1  0
 55 57  1  0
 56 62  1  0
 57 56  1  0
 58 57  2  0
 59 53  2  0
 60 59  1  0
 60 55  2  0
 61 54  1  0
 62 52  1  0
 64 66  2  0
 65 64  1  0
 67 65  1  0
 68 77  2  0
 68 73  1  0
 69 65  1  0
 69 73  1  0
 70 69  1  0
 71 72  1  0
 71 70  1  0
 72 68  1  0
 73 74  2  0
 74 75  1  0
 76 75  2  0
 77 76  1  0
 78 52  1  0
 78 79  1  0
 78 88  1  0
 79 82  1  0
 80 84  1  0
 80 79  1  0
 81 80  2  0
 84 83  1  0
 86 87  1  0
 86 84  1  0
 86 85  1  0
 88 91  1  1
 88 89  1  0
 90 88  1  0
M  ISO  4   5 101  13 100  21 100  51 101
M  END
>  <TORSDO>  (76) 
F 17

>  <SCORE>  (76) 
-15.343

>  <name>  (76) 
76

>  <ligand_id>  (76) 
76

>  <original_smiles>  (76) 
[H]c1c([H])c([H])c2c(c1[H])C([H])([H])C([H])([H])C([H])([H])C2([H])N([H])C(=O)C1([H])N(C(=O)C([H])(N([H])C(=O)C([H])(N([H])C([H])([H])[H])C([H])([H])[H])C(C([H])([H])[H])(C([H])([H])[H])C([H])([H])[H])C([H])([H])c2c([H])c(OC3([H])C([H])([H])C([H])([H])N(c4c([H])c([H])c(N([H])C(=O)N5C([H])([H])C([H])([H])C([H])([H])C([H])(n6nc(-c7c([H])c([H])c(Oc8c([H])c([H])c(F)c([H])c8F)c([H])c7[H])c(C(=O)N([H])[H])c6N([H])[H])C5([H])[H])c([H])c4[H])C([H])([H])C3([H])[H])c([H])c([H])c2C1([H])[H]

>  <smiles>  (76) 
[H]c1c([H])c([H])c2c(c1[H])C([H])([H])C([H])([H])C([H])([H])C2([H])N([H])C(=O)C1([H])N(C(=O)C([H])(N([H])C(=O)C([H])(N([H])C([H])([H])[H])C([H])([H])[H])C(C([H])([H])[H])(C([H])([H])[H])C([H])([H])[H])C([H])([H])c2c([H])c(OC3([H])C([H])([H])C([H])([H])N(c4c([H])c([H])c(N([H])C(=O)N5C([H])([H])C([H])([H])C([H])([H])C([H])(n6nc(-c7c([H])c([H])c(Oc8c([H])c([H])c(F)c([H])c8F)c([H])c7[H])c(C(=O)N([H])[H])c6N([H])[H])C5([H])[H])c([H])c4[H])C([H])([H])C3([H])[H])c([H])c([H])c2C1([H])[H]

$$$$
77:0:0
     RDKit          3D

 92100  0  0  1  0  0  0  0  0999 V2000
  -28.9480  -21.1240   19.6690 C   0  0  0  0  0  2  0  0  0  0  0  0
  -31.2900  -20.1430   20.0550 C   0  0  0  0  0  3  0  0  0  0  0  0
  -32.2120  -19.0960   20.2520 C   0  0  0  0  0  3  0  0  0  0  0  0
  -29.5070  -18.4910   20.1220 C   0  0  0  0  0  3  0  0  0  0  0  0
  -29.9040  -19.8890   20.0020 C   0  0  0  0  0  0  0  0  0  0  0  0
  -30.4400  -17.3750   20.2910 C   0  0  0  0  0  0  0  0  0  0  0  0
  -31.8090  -17.7520   20.3850 C   0  0  0  0  0  0  0  0  0  0  0  0
  -32.7700  -16.8520   20.6980 F   0  0  0  0  0  0  0  0  0  0  0  0
  -30.6250  -14.7750   20.0570 C   0  0  0  0  0  0  0  0  0  0  0  0
  -30.3140  -12.5480   18.9260 C   0  0  0  0  0  2  0  0  0  0  0  0
  -29.2970  -12.6730   17.7640 C   0  0  0  0  0  2  0  0  0  0  0  0
  -27.8560  -12.4660   18.2710 C   0  0  0  0  0  2  0  0  0  0  0  0
  -27.5720  -13.2930   19.5520 C   0  0  0  0  0  3  0  0  0  0  0  0
  -28.6980  -13.0870   20.5850 C   0  0  0  0  0  2  0  0  0  0  0  0
  -29.9540  -13.5540   19.9660 N   0  0  0  0  0  0  0  0  0  0  0  0
  -31.7240  -14.8320   19.4990 O   0  0  0  0  0  0  0  0  0  0  0  0
  -29.0630  -15.9120   21.6660 C   0  0  0  0  0  1  0  0  0  0  0  0
  -30.0160  -15.9600   20.5500 N   0  0  0  0  0  0  0  0  0  0  0  0
  -25.2360  -13.8670   20.4410 C   0  0  0  0  0  0  0  0  0  0  0  0
  -24.1970  -13.0840   20.8600 C   0  0  0  0  0  0  0  0  0  0  0  0
  -24.6580  -11.7340   20.7720 C   0  0  0  0  0  0  0  0  0  0  0  0
  -26.2610  -12.9940   20.1160 N   0  0  0  0  0  0  0  0  0  0  0  0
  -25.9270  -11.7050   20.3790 N   0  0  0  0  0  0  0  0  0  0  0  0
  -23.9460  -10.4660   20.9810 C   0  0  0  0  0  0  0  0  0  0  0  0
  -24.4120   -9.4990   21.8980 C   0  0  0  0  0  3  0  0  0  0  0  0
  -23.7000   -8.2960   22.0920 C   0  0  0  0  0  3  0  0  0  0  0  0
  -22.5060   -8.0550   21.3730 C   0  0  0  0  0  0  0  0  0  0  0  0
  -22.0580   -9.0100   20.4440 C   0  0  0  0  0  3  0  0  0  0  0  0
  -22.7730  -10.2030   20.2460 C   0  0  0  0  0  3  0  0  0  0  0  0
  -21.7640   -6.9030   21.4790 O   0  0  0  0  0  0  0  0  0  0  0  0
  -21.7190   -6.1790   22.6430 C   0  0  0  0  0  0  0  0  0  0  0  0
  -21.2960   -6.7540   23.8620 C   0  0  0  0  0  3  0  0  0  0  0  0
  -21.1980   -5.9550   25.0190 C   0  0  0  0  0  3  0  0  0  0  0  0
  -21.5150   -4.5860   24.9590 C   0  0  0  0  0  0  0  0  0  0  0  0
  -21.9330   -4.0110   23.7470 C   0  0  0  0  0  3  0  0  0  0  0  0
  -22.0320   -4.8060   22.5910 C   0  0  0  0  0  0  0  0  0  0  0  0
  -22.4160   -4.2440   21.4180 F   0  0  0  0  0  0  0  0  0  0  0  0
  -21.4130   -3.8170   26.0690 F   0  0  0  0  0  0  0  0  0  0  0  0
  -22.8190  -13.5540   21.2260 C   0  0  0  0  0  0  0  0  0  0  0  0
  -22.1480  -12.8410   22.1230 N   0  0  0  0  0  0  0  0  0  0  0  0
  -22.3500  -14.5880   20.7520 O   0  0  0  0  0  0  0  0  0  0  0  0
  -22.5450  -12.0050   22.5260 H   0  0  0  0  0  0  0  0  0  0  0  0
  -21.2280  -13.1370   22.4130 H   0  0  0  0  0  0  0  0  0  0  0  0
  -25.3890  -15.2410   20.2860 N   0  0  0  0  0  0  0  0  0  0  0  0
  -24.6340  -15.8920   20.4720 H   0  0  0  0  0  0  0  0  0  0  0  0
  -26.2220  -15.6890   19.9280 H   0  0  0  0  0  0  0  0  0  0  0  0
  -29.0260  -22.4300   20.4710 N   0  0  0  0  0  4  0  0  0  0  0  0
  -29.9580  -22.5080   20.8420 H   0  0  0  0  0  0  0  0  0  0  0  0
  -28.4140  -22.3050   21.2610 H   0  0  0  0  0  0  0  0  0  0  0  0
  -28.6830  -23.7750   19.7880 C   0  0  0  0  0  2  0  0  0  0  0  0
  -28.3170  -25.0480   20.7180 C   0  0  0  0  0  2  0  0  0  0  0  0
  -28.4450  -26.4680   20.2500 O   0  0  0  0  0  0  0  0  0  0  0  0
  -24.6140  -31.8680   23.2360 C   0  0  0  0  0  0  0  0  0  0  0  0
  -27.3150  -27.3070   20.2470 C   0  0  0  0  0  0  0  0  0  0  0  0
  -23.4470  -30.4510   21.5840 C   0  0  0  0  0  3  0  0  0  0  0  0
  -24.9330  -28.9000   20.1920 C   0  0  0  0  0  0  0  0  0  0  0  0
  -25.9850  -30.7920   21.4330 C   0  0  0  0  0  2  0  0  0  0  0  0
  -26.0900  -29.4080   20.7980 C   0  0  0  0  0  0  0  0  0  0  0  0
  -27.2860  -28.6240   20.8110 C   0  0  0  0  0  3  0  0  0  0  0  0
  -26.1370  -26.8520   19.6200 C   0  0  0  0  0  3  0  0  0  0  0  0
  -24.9600  -27.6280   19.5950 C   0  0  0  0  0  3  0  0  0  0  0  0
  -23.6900  -29.7660   20.2120 C   0  0  0  0  0  2  0  0  0  0  0  0
  -24.7000  -31.0550   22.1410 N   0  0  0  0  0  0  0  0  0  0  0  0
  -23.5200  -32.1350   23.7560 O   0  0  0  0  0  0  0  0  0  0  0  0
  -22.7800  -29.4340   22.5400 C   0  0  0  0  0  0  0  0  0  0  0  0
  -21.4550  -29.2510   22.4030 N   0  0  0  0  0  0  0  0  0  0  0  0
  -23.4530  -28.8120   23.3660 O   0  0  0  0  0  0  0  0  0  0  0  0
  -20.9710  -29.8070   21.7120 H   0  0  0  0  0  0  0  0  0  0  0  0
  -18.0800  -28.0380   22.8700 C   0  0  0  0  0  0  0  0  0  0  0  0
  -20.6340  -28.3100   23.1660 C   0  0  0  0  0  3  0  0  0  0  0  0
  -20.7480  -26.8790   22.5910 C   0  0  0  0  0  2  0  0  0  0  0  0
  -19.6580  -26.5510   21.5670 C   0  0  0  0  0  2  0  0  0  0  0  0
  -18.2690  -26.6900   22.1980 C   0  0  0  0  0  2  0  0  0  0  0  0
  -19.1910  -28.8070   23.3110 C   0  0  0  0  0  0  0  0  0  0  0  0
  -18.9600  -30.0690   23.9000 C   0  0  0  0  0  3  0  0  0  0  0  0
  -17.6520  -30.5640   24.0530 C   0  0  0  0  0  3  0  0  0  0  0  0
  -16.5550  -29.7940   23.6290 C   0  0  0  0  0  3  0  0  0  0  0  0
  -16.7700  -28.5340   23.0430 C   0  0  0  0  0  3  0  0  0  0  0  0
  -25.8810  -32.5160   23.8740 C   0  0  0  0  0  3  0  0  0  0  0  0
  -26.3890  -31.7500   25.1580 C   0  0  1  0  0  0  0  0  0  0  0  0
  -25.2860  -31.5030   26.2130 C   0  0  0  0  0  1  0  0  0  0  0  0
  -26.9900  -30.3780   24.7750 C   0  0  0  0  0  1  0  0  0  0  0  0
  -27.5220  -32.5570   25.8350 C   0  0  0  0  0  1  0  0  0  0  0  0
  -25.5520  -33.9100   24.2000 N   0  0  0  0  0  0  0  0  0  0  0  0
  -25.8710  -34.9670   23.4420 C   0  0  0  0  0  0  0  0  0  0  0  0
  -26.5420  -34.8710   22.4100 O   0  0  0  0  0  0  0  0  0  0  0  0
  -24.9580  -34.0590   25.0040 H   0  0  0  0  0  0  0  0  0  0  0  0
  -24.1140  -36.7320   23.0890 C   0  0  0  0  0  1  0  0  0  0  0  0
  -25.3650  -36.3490   23.8970 C   0  0  0  0  0  3  0  0  0  0  0  0
  -27.4880  -37.2700   24.7140 C   0  0  0  0  0  1  0  0  0  0  0  0
  -26.3800  -37.4190   23.7750 N   0  0  0  0  0  0  0  0  0  0  0  0
  -25.9580  -38.3320   23.9230 H   0  0  0  0  0  0  0  0  0  0  0  0
  1  5  1  0
  1 47  1  0
  2  3  1  0
  3  7  2  0
  4  6  2  0
  5  2  2  0
  5  4  1  0
  6  7  1  0
  6 18  1  0
  7  8  1  0
  9 18  1  0
 10 15  1  0
 11 12  1  0
 11 10  1  0
 13 12  1  0
 13 22  1  0
 13 14  1  0
 15  9  1  0
 15 14  1  0
 16  9  2  0
 18 17  1  0
 19 20  2  0
 20 39  1  0
 21 20  1  0
 21 24  1  0
 22 23  1  0
 22 19  1  0
 23 21  2  0
 24 25  1  0
 25 26  2  0
 27 30  1  0
 27 26  1  0
 28 27  2  0
 29 28  1  0
 29 24  2  0
 30 31  1  0
 31 32  1  0
 32 33  2  0
 34 33  1  0
 34 38  1  0
 35 34  2  0
 36 31  2  0
 36 35  1  0
 37 36  1  0
 39 40  1  0
 40 43  1  0
 40 42  1  0
 41 39  2  0
 44 19  1  0
 44 45  1  0
 46 44  1  0
 47 48  1  0
 47 49  1  0
 50 47  1  0
 50 51  1  0
 52 51  1  0
 53 64  2  0
 54 52  1  0
 54 59  1  0
 55 63  1  0
 55 65  1  0
 56 62  1  0
 56 58  1  0
 57 63  1  0
 58 59  2  0
 58 57  1  0
 60 54  2  0
 61 60  1  0
 61 56  2  0
 62 55  1  0
 63 53  1  0
 65 67  2  0
 66 65  1  0
 68 66  1  0
 69 78  2  0
 69 74  1  0
 70 66  1  0
 70 74  1  0
 71 70  1  0
 72 73  1  0
 72 71  1  0
 73 69  1  0
 74 75  2  0
 75 76  1  0
 77 76  2  0
 78 77  1  0
 79 53  1  0
 79 84  1  0
 79 80  1  0
 80 83  1  1
 80 81  1  0
 82 80  1  0
 84 87  1  0
 85 89  1  0
 85 84  1  0
 86 85  2  0
 89 88  1  0
 91 89  1  0
 91 92  1  0
 91 90  1  0
M  ISO  4   9 100  18 100  51 101  52 101
M  END
>  <TORSDO>  (77) 
F 20

>  <SCORE>  (77) 
-13.120

>  <name>  (77) 
77

>  <ligand_id>  (77) 
77

>  <original_smiles>  (77) 
[H]c1c([H])c([H])c2c(c1[H])C([H])([H])C([H])([H])C([H])([H])C2([H])N([H])C(=O)C1([H])N(C(=O)C([H])(N([H])C(=O)C([H])(N([H])C([H])([H])[H])C([H])([H])[H])C(C([H])([H])[H])(C([H])([H])[H])C([H])([H])[H])C([H])([H])c2c([H])c(OC([H])([H])C([H])([H])[N+]([H])([H])C([H])([H])c3c([H])c([H])c(F)c(N(C(=O)N4C([H])([H])C([H])([H])C([H])([H])C([H])(n5nc(-c6c([H])c([H])c(Oc7c([H])c([H])c(F)c([H])c7F)c([H])c6[H])c(C(=O)N([H])[H])c5N([H])[H])C4([H])[H])C([H])([H])[H])c3[H])c([H])c([H])c2C1([H])[H]

>  <smiles>  (77) 
[H]c1c([H])c([H])c2c(c1[H])C([H])([H])C([H])([H])C([H])([H])C2([H])N([H])C(=O)C1([H])N(C(=O)C([H])(N([H])C(=O)C([H])(N([H])C([H])([H])[H])C([H])([H])[H])C(C([H])([H])[H])(C([H])([H])[H])C([H])([H])[H])C([H])([H])c2c([H])c(OC([H])([H])C([H])([H])[N+]([H])([H])C([H])([H])c3c([H])c([H])c(F)c(N(C(=O)N4C([H])([H])C([H])([H])C([H])([H])C([H])(n5nc(-c6c([H])c([H])c(Oc7c([H])c([H])c(F)c([H])c7F)c([H])c6[H])c(C(=O)N([H])[H])c5N([H])[H])C4([H])[H])C([H])([H])[H])c3[H])c([H])c([H])c2C1([H])[H]

$$$$
78:0:0
     RDKit          3D

 93102  0  0  1  0  0  0  0  0999 V2000
  -28.6690  -17.7180   21.1370 C   0  0  0  0  0  3  0  0  0  0  0  0
  -29.6690  -19.3410   18.8860 C   0  0  0  0  0  0  0  0  0  0  0  0
  -30.0650  -17.7510   19.0510 C   0  0  0  0  0  0  0  0  0  0  0  0
  -29.5980  -17.1510   20.2750 C   0  0  0  0  0  0  0  0  0  0  0  0
  -28.1050  -18.9400   20.8400 C   0  0  0  0  0  0  0  0  0  0  0  0
  -28.5640  -19.6760   19.7450 C   0  0  0  0  0  0  0  0  0  0  0  0
  -30.0520  -15.9460   20.6870 F   0  0  0  0  0  0  0  0  0  0  0  0
  -27.0900  -19.4160   21.6030 F   0  0  0  0  0  0  0  0  0  0  0  0
  -27.7930  -20.7570   19.4780 F   0  0  0  0  0  0  0  0  0  0  0  0
  -31.4820  -15.1240   18.5370 C   0  0  0  0  0  0  0  0  0  0  0  0
  -31.4970  -12.5170   18.1930 C   0  0  0  0  0  2  0  0  0  0  0  0
  -30.4410  -11.9400   17.2110 C   0  0  0  0  0  2  0  0  0  0  0  0
  -29.1310  -11.6400   17.9520 C   0  0  0  0  0  2  0  0  0  0  0  0
  -28.7540  -12.7970   18.9060 C   0  0  0  0  0  3  0  0  0  0  0  0
  -29.9300  -13.3200   19.7540 C   0  0  0  0  0  2  0  0  0  0  0  0
  -30.9580  -13.8050   18.8180 N   0  0  0  0  0  0  0  0  0  0  0  0
  -32.6610  -15.0060   18.1560 O   0  0  0  0  0  0  0  0  0  0  0  0
  -30.8060  -16.4830   18.3100 N   0  0  0  0  0  0  0  0  0  0  0  0
  -31.2550  -16.8650   17.4940 H   0  0  0  0  0  0  0  0  0  0  0  0
  -26.7740  -13.4470   20.3630 C   0  0  0  0  0  0  0  0  0  0  0  0
  -25.7350  -12.7370   20.8940 C   0  0  0  0  0  0  0  0  0  0  0  0
  -25.9750  -11.3770   20.5400 C   0  0  0  0  0  0  0  0  0  0  0  0
  -27.5830  -12.5280   19.7260 N   0  0  0  0  0  0  0  0  0  0  0  0
  -27.1260  -11.2650   19.8830 N   0  0  0  0  0  0  0  0  0  0  0  0
  -25.1470  -10.1850   20.7550 C   0  0  0  0  0  0  0  0  0  0  0  0
  -25.5320   -9.1610   21.6540 C   0  0  0  0  0  3  0  0  0  0  0  0
  -24.7080   -8.0380   21.8500 C   0  0  0  0  0  3  0  0  0  0  0  0
  -23.4870   -7.9210   21.1460 C   0  0  0  0  0  0  0  0  0  0  0  0
  -23.1280   -8.9220   20.2300 C   0  0  0  0  0  3  0  0  0  0  0  0
  -23.9450  -10.0490   20.0400 C   0  0  0  0  0  3  0  0  0  0  0  0
  -22.6340   -6.8530   21.2620 O   0  0  0  0  0  0  0  0  0  0  0  0
  -22.2500   -6.3630   22.4840 C   0  0  0  0  0  0  0  0  0  0  0  0
  -21.6260   -7.1780   23.4570 C   0  0  0  0  0  3  0  0  0  0  0  0
  -21.1990   -6.6110   24.6770 C   0  0  0  0  0  3  0  0  0  0  0  0
  -21.3760   -5.2310   24.9100 C   0  0  0  0  0  0  0  0  0  0  0  0
  -21.9870   -4.4260   23.9380 C   0  0  0  0  0  3  0  0  0  0  0  0
  -22.4260   -4.9910   22.7300 C   0  0  0  0  0  0  0  0  0  0  0  0
  -23.0000   -4.2030   21.7880 F   0  0  0  0  0  0  0  0  0  0  0  0
  -20.9530   -4.6840   26.0760 F   0  0  0  0  0  0  0  0  0  0  0  0
  -24.5310  -13.2980   21.5890 C   0  0  0  0  0  0  0  0  0  0  0  0
  -23.9420  -12.5580   22.5320 N   0  0  0  0  0  0  0  0  0  0  0  0
  -24.1290  -14.4270   21.3360 O   0  0  0  0  0  0  0  0  0  0  0  0
  -24.2820  -11.6470   22.8140 H   0  0  0  0  0  0  0  0  0  0  0  0
  -23.1180  -12.9200   22.9990 H   0  0  0  0  0  0  0  0  0  0  0  0
  -27.0850  -14.8050   20.3250 N   0  0  0  0  0  0  0  0  0  0  0  0
  -26.4560  -15.5090   20.6990 H   0  0  0  0  0  0  0  0  0  0  0  0
  -27.8700  -15.1710   19.8100 H   0  0  0  0  0  0  0  0  0  0  0  0
  -29.3740  -22.6340   16.4240 C   0  0  0  0  0  2  0  0  0  0  0  0
  -29.2460  -21.0810   16.9040 C   0  0  0  0  0  2  0  0  0  0  0  0
  -29.8640  -22.2710   18.6840 C   0  0  0  0  0  3  0  0  0  0  0  0
  -29.6750  -23.6380   17.5990 C   0  0  0  0  0  0  0  0  0  0  0  0
  -29.9900  -20.7240   18.1450 N   0  0  0  0  0  0  0  0  0  0  0  0
  -29.5810  -25.3590   17.6040 O   0  0  0  0  0  0  0  0  0  0  0  0
  -26.5150  -30.0550   22.7710 C   0  0  0  0  0  0  0  0  0  0  0  0
  -28.6420  -26.4950   17.9810 C   0  0  0  0  0  0  0  0  0  0  0  0
  -25.2100  -29.5180   20.7510 C   0  0  0  0  0  3  0  0  0  0  0  0
  -26.5170  -28.4810   18.7580 C   0  0  0  0  0  0  0  0  0  0  0  0
  -27.7810  -29.5550   20.6110 C   0  0  0  0  0  2  0  0  0  0  0  0
  -27.7340  -28.5040   19.4500 C   0  0  0  0  0  0  0  0  0  0  0  0
  -28.7860  -27.5490   19.0390 C   0  0  0  0  0  3  0  0  0  0  0  0
  -27.4110  -26.6610   17.3070 C   0  0  0  0  0  3  0  0  0  0  0  0
  -26.3890  -27.5880   17.6750 C   0  0  0  0  0  3  0  0  0  0  0  0
  -25.3800  -29.4050   19.2080 C   0  0  0  0  0  2  0  0  0  0  0  0
  -26.5250  -29.7130   21.4400 N   0  0  0  0  0  0  0  0  0  0  0  0
  -25.4530  -30.2020   23.4000 O   0  0  0  0  0  0  0  0  0  0  0  0
  -24.4280  -28.2860   21.2800 C   0  0  0  0  0  0  0  0  0  0  0  0
  -23.0940  -28.2640   21.0990 N   0  0  0  0  0  0  0  0  0  0  0  0
  -25.0320  -27.3600   21.8250 O   0  0  0  0  0  0  0  0  0  0  0  0
  -22.6570  -29.0640   20.6620 H   0  0  0  0  0  0  0  0  0  0  0  0
  -19.6310  -27.1760   21.1710 C   0  0  0  0  0  0  0  0  0  0  0  0
  -22.2000  -27.1520   21.4550 C   0  0  0  0  0  3  0  0  0  0  0  0
  -22.2040  -26.0600   20.3600 C   0  0  0  0  0  2  0  0  0  0  0  0
  -21.0880  -26.2400   19.3270 C   0  0  0  0  0  2  0  0  0  0  0  0
  -19.7160  -26.2030   20.0090 C   0  0  0  0  0  2  0  0  0  0  0  0
  -20.7960  -27.6360   21.8390 C   0  0  0  0  0  0  0  0  0  0  0  0
  -20.6600  -28.5610   22.8970 C   0  0  0  0  0  3  0  0  0  0  0  0
  -19.3900  -29.0300   23.2830 C   0  0  0  0  0  3  0  0  0  0  0  0
  -18.2380  -28.5660   22.6210 C   0  0  0  0  0  3  0  0  0  0  0  0
  -18.3600  -27.6360   21.5730 C   0  0  0  0  0  3  0  0  0  0  0  0
  -27.8340  -30.2980   23.5640 C   0  0  0  0  0  3  0  0  0  0  0  0
  -27.5870  -31.3730   24.5440 N   0  0  0  0  0  0  0  0  0  0  0  0
  -27.9740  -32.6480   24.4000 C   0  0  0  0  0  0  0  0  0  0  0  0
  -28.6330  -33.0370   23.4340 O   0  0  0  0  0  0  0  0  0  0  0  0
  -26.9990  -31.1390   25.3280 H   0  0  0  0  0  0  0  0  0  0  0  0
  -26.3540  -34.4740   25.0310 C   0  0  0  0  0  1  0  0  0  0  0  0
  -27.5660  -33.6510   25.4990 C   0  0  0  0  0  3  0  0  0  0  0  0
  -29.7330  -33.9080   26.6280 C   0  0  0  0  0  1  0  0  0  0  0  0
  -28.6570  -34.5690   25.8960 N   0  0  0  0  0  0  0  0  0  0  0  0
  -28.2970  -35.3240   26.4740 H   0  0  0  0  0  0  0  0  0  0  0  0
  -28.3530  -29.0020   24.3050 C   0  0  1  0  0  0  0  0  0  0  0  0
  -27.2830  -28.3210   25.1880 C   0  0  0  0  0  1  0  0  0  0  0  0
  -28.8610  -27.9520   23.2900 C   0  0  0  0  0  1  0  0  0  0  0  0
  -29.5590  -29.3600   25.2060 C   0  0  0  0  0  1  0  0  0  0  0  0
  2  3  2  0
  2  6  1  0
  3  4  1  0
  4  7  1  0
  4  1  2  0
  5  1  1  0
  5  8  1  0
  6  5  2  0
  9  6  1  0
 10 16  1  0
 11 16  1  0
 12 13  1  0
 12 11  1  0
 14 13  1  0
 14 23  1  0
 14 15  1  0
 16 15  1  0
 17 10  2  0
 18 10  1  0
 18  3  1  0
 19 18  1  0
 20 21  2  0
 21 40  1  0
 22 25  1  0
 22 21  1  0
 23 24  1  0
 23 20  1  0
 24 22  2  0
 25 26  1  0
 26 27  2  0
 28 31  1  0
 28 27  1  0
 29 28  2  0
 30 29  1  0
 30 25  2  0
 31 32  1  0
 32 37  2  0
 32 33  1  0
 33 34  2  0
 34 35  1  0
 35 39  1  0
 36 35  2  0
 37 36  1  0
 38 37  1  0
 40 41  1  0
 41 43  1  0
 41 44  1  0
 42 40  2  0
 45 20  1  0
 45 46  1  0
 47 45  1  0
 48 49  1  0
 48 51  1  0
 49 52  1  0
 51 53  1  0
 51 50  2  0
 52 50  1  0
 52  2  1  0
 53 55  1  0
 54 65  2  0
 55 60  1  0
 56 66  1  0
 56 64  1  0
 57 63  1  0
 57 59  1  0
 58 64  1  0
 59 58  1  0
 60 59  2  0
 61 62  1  0
 61 55  2  0
 62 57  2  0
 63 56  1  0
 64 54  1  0
 66 68  2  0
 67 66  1  0
 69 67  1  0
 70 79  2  0
 70 75  1  0
 71 67  1  0
 71 75  1  0
 72 71  1  0
 73 74  1  0
 73 72  1  0
 74 70  1  0
 75 76  2  0
 76 77  1  0
 78 77  2  0
 79 78  1  0
 80 54  1  0
 80 90  1  0
 80 81  1  0
 81 84  1  0
 82 81  1  0
 82 86  1  0
 83 82  2  0
 86 85  1  0
 86 88  1  0
 88 89  1  0
 88 87  1  0
 90 91  1  1
 90 93  1  0
 92 90  1  0
M  ISO  4  10 100  18 100  51 101  53 101
M  END
>  <TORSDO>  (78) 
F 17

>  <SCORE>  (78) 
-3.624

>  <name>  (78) 
78

>  <ligand_id>  (78) 
78

>  <original_smiles>  (78) 
[H]c1c([H])c([H])c2c(c1[H])C([H])([H])C([H])([H])C([H])([H])C2([H])N([H])C(=O)C1([H])N(C(=O)C([H])(N([H])C(=O)C([H])(N([H])C([H])([H])[H])C([H])([H])[H])C(C([H])([H])[H])(C([H])([H])[H])C([H])([H])[H])C([H])([H])c2c([H])c(OC3([H])C([H])([H])N(c4c(F)c(F)c([H])c(F)c4N([H])C(=O)N4C([H])([H])C([H])([H])C([H])([H])C([H])(n5nc(-c6c([H])c([H])c(Oc7c([H])c([H])c(F)c([H])c7F)c([H])c6[H])c(C(=O)N([H])[H])c5N([H])[H])C4([H])[H])C([H])([H])C3([H])[H])c([H])c([H])c2C1([H])[H]

>  <smiles>  (78) 
[H]c1c([H])c([H])c2c(c1[H])C([H])([H])C([H])([H])C([H])([H])C2([H])N([H])C(=O)C1([H])N(C(=O)C([H])(N([H])C(=O)C([H])(N([H])C([H])([H])[H])C([H])([H])[H])C(C([H])([H])[H])(C([H])([H])[H])C([H])([H])[H])C([H])([H])c2c([H])c(OC3([H])C([H])([H])N(c4c(F)c(F)c([H])c(F)c4N([H])C(=O)N4C([H])([H])C([H])([H])C([H])([H])C([H])(n5nc(-c6c([H])c([H])c(Oc7c([H])c([H])c(F)c([H])c7F)c([H])c6[H])c(C(=O)N([H])[H])c5N([H])[H])C4([H])[H])C([H])([H])C3([H])[H])c([H])c([H])c2C1([H])[H]

$$$$
79:0:0
     RDKit          3D

 92100  0  0  1  0  0  0  0  0999 V2000
  -29.7930  -21.6260   20.7590 C   0  0  0  0  0  2  0  0  0  0  0  0
  -31.0730  -19.3510   20.4490 C   0  0  0  0  0  3  0  0  0  0  0  0
  -31.1350  -17.9210   20.4350 C   0  0  0  0  0  3  0  0  0  0  0  0
  -28.6710  -19.2710   20.4520 C   0  0  0  0  0  3  0  0  0  0  0  0
  -29.8410  -20.0710   20.4880 C   0  0  0  0  0  0  0  0  0  0  0  0
  -29.9490  -17.1420   20.4530 C   0  0  0  0  0  0  0  0  0  0  0  0
  -28.7270  -17.8540   20.4260 C   0  0  0  0  0  0  0  0  0  0  0  0
  -27.5700  -17.1500   20.3980 F   0  0  0  0  0  0  0  0  0  0  0  0
  -30.6430  -14.6630   20.1690 C   0  0  0  0  0  0  0  0  0  0  0  0
  -30.3670  -12.4740   19.0340 C   0  0  0  0  0  2  0  0  0  0  0  0
  -29.3730  -12.6450   17.8650 C   0  0  0  0  0  2  0  0  0  0  0  0
  -27.9180  -12.4880   18.3470 C   0  0  0  0  0  2  0  0  0  0  0  0
  -27.6110  -13.3210   19.6200 C   0  0  0  0  0  3  0  0  0  0  0  0
  -28.7100  -13.1170   20.6900 C   0  0  0  0  0  2  0  0  0  0  0  0
  -30.0080  -13.4530   20.0770 N   0  0  0  0  0  0  0  0  0  0  0  0
  -31.7920  -14.8330   19.7550 O   0  0  0  0  0  0  0  0  0  0  0  0
  -29.8500  -15.6950   20.5690 N   0  0  0  0  0  0  0  0  0  0  0  0
  -28.9330  -15.3860   20.8550 H   0  0  0  0  0  0  0  0  0  0  0  0
  -25.2310  -13.9140   20.3950 C   0  0  0  0  0  0  0  0  0  0  0  0
  -24.1760  -13.1390   20.7890 C   0  0  0  0  0  0  0  0  0  0  0  0
  -24.6450  -11.7880   20.7510 C   0  0  0  0  0  0  0  0  0  0  0  0
  -26.2750  -13.0390   20.1400 N   0  0  0  0  0  0  0  0  0  0  0  0
  -25.9290  -11.7550   20.4130 N   0  0  0  0  0  0  0  0  0  0  0  0
  -23.9300  -10.5240   20.9570 C   0  0  0  0  0  0  0  0  0  0  0  0
  -24.3800   -9.5630   21.8900 C   0  0  0  0  0  3  0  0  0  0  0  0
  -23.6620   -8.3630   22.0830 C   0  0  0  0  0  3  0  0  0  0  0  0
  -22.4800   -8.1130   21.3450 C   0  0  0  0  0  0  0  0  0  0  0  0
  -22.0500   -9.0630   20.4010 C   0  0  0  0  0  3  0  0  0  0  0  0
  -22.7690  -10.2540   20.2050 C   0  0  0  0  0  3  0  0  0  0  0  0
  -21.7340   -6.9650   21.4500 O   0  0  0  0  0  0  0  0  0  0  0  0
  -21.6980   -6.2320   22.6110 C   0  0  0  0  0  0  0  0  0  0  0  0
  -21.2640   -6.7930   23.8320 C   0  0  0  0  0  3  0  0  0  0  0  0
  -21.1770   -5.9880   24.9860 C   0  0  0  0  0  3  0  0  0  0  0  0
  -21.5140   -4.6230   24.9190 C   0  0  0  0  0  0  0  0  0  0  0  0
  -21.9390   -4.0610   23.7040 C   0  0  0  0  0  3  0  0  0  0  0  0
  -22.0300   -4.8630   22.5520 C   0  0  0  0  0  0  0  0  0  0  0  0
  -22.4190   -4.3120   21.3780 F   0  0  0  0  0  0  0  0  0  0  0  0
  -21.4240   -3.8470   26.0250 F   0  0  0  0  0  0  0  0  0  0  0  0
  -22.7830  -13.6080   21.0910 C   0  0  0  0  0  0  0  0  0  0  0  0
  -22.0740  -12.9070   21.9690 N   0  0  0  0  0  0  0  0  0  0  0  0
  -22.3280  -14.6330   20.5820 O   0  0  0  0  0  0  0  0  0  0  0  0
  -22.4450  -12.0720   22.3990 H   0  0  0  0  0  0  0  0  0  0  0  0
  -21.1420  -13.2080   22.2160 H   0  0  0  0  0  0  0  0  0  0  0  0
  -25.3850  -15.2860   20.2110 N   0  0  0  0  0  0  0  0  0  0  0  0
  -24.6440  -15.9500   20.4030 H   0  0  0  0  0  0  0  0  0  0  0  0
  -26.2520  -15.7460   19.9570 H   0  0  0  0  0  0  0  0  0  0  0  0
  -27.7910  -22.2460   19.3380 C   0  0  0  0  0  1  0  0  0  0  0  0
  -29.1750  -22.6090   19.7680 N   0  0  1  0  0  4  0  0  0  0  0  0
  -29.7260  -22.4830   18.9300 H   0  0  0  0  0  0  0  0  0  0  0  0
  -29.3710  -24.0880   20.1420 C   0  0  0  0  0  3  0  0  0  0  0  0
  -28.1710  -25.1060   19.9120 C   0  0  0  0  0  3  0  0  0  0  0  0
  -28.3600  -26.5430   20.2090 O   0  0  0  0  0  0  0  0  0  0  0  0
  -24.6040  -31.9100   23.2360 C   0  0  0  0  0  0  0  0  0  0  0  0
  -27.2310  -27.3740   20.1690 C   0  0  0  0  0  0  0  0  0  0  0  0
  -23.4040  -30.5140   21.5920 C   0  0  0  0  0  3  0  0  0  0  0  0
  -24.8580  -28.9760   20.1660 C   0  0  0  0  0  0  0  0  0  0  0  0
  -25.9420  -30.8450   21.4070 C   0  0  0  0  0  2  0  0  0  0  0  0
  -26.0290  -29.4640   20.7630 C   0  0  0  0  0  0  0  0  0  0  0  0
  -27.2160  -28.6760   20.7580 C   0  0  0  0  0  3  0  0  0  0  0  0
  -26.0340  -26.9370   19.5550 C   0  0  0  0  0  3  0  0  0  0  0  0
  -24.8630  -27.7160   19.5550 C   0  0  0  0  0  3  0  0  0  0  0  0
  -23.6230  -29.8490   20.2080 C   0  0  0  0  0  2  0  0  0  0  0  0
  -24.6700  -31.1040   22.1350 N   0  0  0  0  0  0  0  0  0  0  0  0
  -23.5190  -32.1800   23.7730 O   0  0  0  0  0  0  0  0  0  0  0  0
  -22.7440  -29.4890   22.5450 C   0  0  0  0  0  0  0  0  0  0  0  0
  -21.4150  -29.3170   22.4250 N   0  0  0  0  0  0  0  0  0  0  0  0
  -23.4240  -28.8460   23.3480 O   0  0  0  0  0  0  0  0  0  0  0  0
  -20.9300  -29.8830   21.7430 H   0  0  0  0  0  0  0  0  0  0  0  0
  -18.0270  -28.1490   22.9310 C   0  0  0  0  0  0  0  0  0  0  0  0
  -20.5910  -28.3810   23.1900 C   0  0  0  0  0  3  0  0  0  0  0  0
  -20.6790  -26.9540   22.6030 C   0  0  0  0  0  2  0  0  0  0  0  0
  -19.5680  -26.6480   21.5920 C   0  0  0  0  0  2  0  0  0  0  0  0
  -18.1890  -26.8010   22.2450 C   0  0  0  0  0  2  0  0  0  0  0  0
  -19.1570  -28.8960   23.3610 C   0  0  0  0  0  0  0  0  0  0  0  0
  -18.9560  -30.1550   23.9650 C   0  0  0  0  0  3  0  0  0  0  0  0
  -17.6600  -30.6720   24.1420 C   0  0  0  0  0  3  0  0  0  0  0  0
  -16.5450  -29.9220   23.7340 C   0  0  0  0  0  3  0  0  0  0  0  0
  -16.7270  -28.6640   23.1310 C   0  0  0  0  0  3  0  0  0  0  0  0
  -25.8870  -32.5440   23.8570 C   0  0  0  0  0  3  0  0  0  0  0  0
  -26.3970  -31.7740   25.1360 C   0  0  1  0  0  0  0  0  0  0  0  0
  -25.2980  -31.5380   26.1990 C   0  0  0  0  0  1  0  0  0  0  0  0
  -26.9780  -30.3960   24.7420 C   0  0  0  0  0  1  0  0  0  0  0  0
  -27.5410  -32.5700   25.8040 C   0  0  0  0  0  1  0  0  0  0  0  0
  -25.5770  -33.9420   24.1820 N   0  0  0  0  0  0  0  0  0  0  0  0
  -25.9130  -34.9920   23.4190 C   0  0  0  0  0  0  0  0  0  0  0  0
  -26.5880  -34.8860   22.3910 O   0  0  0  0  0  0  0  0  0  0  0  0
  -24.9710  -34.0930   24.9750 H   0  0  0  0  0  0  0  0  0  0  0  0
  -24.1910  -36.7900   23.0490 C   0  0  0  0  0  1  0  0  0  0  0  0
  -25.4240  -36.3820   23.8700 C   0  0  0  0  0  3  0  0  0  0  0  0
  -27.5540  -37.2640   24.7170 C   0  0  0  0  0  1  0  0  0  0  0  0
  -26.4580  -37.4340   23.7660 N   0  0  0  0  0  0  0  0  0  0  0  0
  -26.0500  -38.3540   23.9140 H   0  0  0  0  0  0  0  0  0  0  0  0
  2  5  1  0
  3  2  2  0
  3  6  1  0
  4  5  2  0
  5  1  1  0
  6 17  1  0
  7  4  1  0
  7  6  2  0
  8  7  1  0
  9 17  1  0
 10 15  1  0
 11 12  1  0
 11 10  1  0
 13 12  1  0
 13 22  1  0
 13 14  1  0
 15  9  1  0
 15 14  1  0
 16  9  2  0
 17 18  1  0
 19 20  2  0
 20 39  1  0
 21 20  1  0
 21 24  1  0
 22 19  1  0
 22 23  1  0
 23 21  2  0
 24 25  1  0
 25 26  2  0
 27 30  1  0
 27 26  1  0
 28 27  2  0
 29 28  1  0
 29 24  2  0
 30 31  1  0
 31 32  1  0
 32 33  2  0
 34 33  1  0
 34 38  1  0
 35 34  2  0
 36 31  2  0
 36 35  1  0
 37 36  1  0
 39 40  1  0
 40 43  1  0
 40 42  1  0
 41 39  2  0
 44 19  1  0
 44 45  1  0
 46 44  1  0
 47 48  1  0
 48 50  1  0
 48  1  1  0
 48 49  1  6
 51 50  2  0
 51 52  1  0
 53 64  2  0
 54 52  1  0
 54 59  1  0
 55 63  1  0
 55 65  1  0
 56 62  1  0
 56 58  1  0
 57 63  1  0
 58 57  1  0
 59 58  2  0
 60 54  2  0
 61 60  1  0
 61 56  2  0
 62 55  1  0
 63 53  1  0
 65 67  2  0
 66 65  1  0
 68 66  1  0
 69 78  2  0
 69 74  1  0
 70 66  1  0
 70 74  1  0
 71 70  1  0
 72 73  1  0
 72 71  1  0
 73 69  1  0
 74 75  2  0
 75 76  1  0
 77 76  2  0
 78 77  1  0
 79 53  1  0
 79 84  1  0
 79 80  1  0
 80 83  1  1
 80 81  1  0
 82 80  1  0
 84 87  1  0
 85 89  1  0
 85 84  1  0
 86 85  2  0
 89 88  1  0
 91 89  1  0
 91 92  1  0
 91 90  1  0
M  ISO  4   9 100  17 100  51 101  52 101
M  END
>  <TORSDO>  (79) 
F 20

>  <SCORE>  (79) 
-14.124

>  <name>  (79) 
79

>  <ligand_id>  (79) 
79

>  <original_smiles>  (79) 
[H]c1c([H])c([H])c2c(c1[H])C([H])([H])C([H])([H])C([H])([H])C2([H])N([H])C(=O)C1([H])N(C(=O)C([H])(N([H])C(=O)C([H])(N([H])C([H])([H])[H])C([H])([H])[H])C(C([H])([H])[H])(C([H])([H])[H])C([H])([H])[H])C([H])([H])c2c([H])c(OC([H])([H])C([H])([H])[N+]([H])(C([H])([H])[H])C([H])([H])c3c([H])c([H])c(N([H])C(=O)N4C([H])([H])C([H])([H])C([H])([H])C([H])(n5nc(-c6c([H])c([H])c(Oc7c([H])c([H])c(F)c([H])c7F)c([H])c6[H])c(C(=O)N([H])[H])c5N([H])[H])C4([H])[H])c(F)c3[H])c([H])c([H])c2C1([H])[H]

>  <smiles>  (79) 
[H]c1c([H])c([H])c2c(c1[H])C([H])([H])C([H])([H])C([H])([H])C2([H])N([H])C(=O)C1([H])N(C(=O)C([H])(N([H])C(=O)C([H])(N([H])C([H])([H])[H])C([H])([H])[H])C(C([H])([H])[H])(C([H])([H])[H])C([H])([H])[H])C([H])([H])c2c([H])c(OC([H])([H])C([H])([H])[N+]([H])(C([H])([H])[H])C([H])([H])c3c([H])c([H])c(N([H])C(=O)N4C([H])([H])C([H])([H])C([H])([H])C([H])(n5nc(-c6c([H])c([H])c(Oc7c([H])c([H])c(F)c([H])c7F)c([H])c6[H])c(C(=O)N([H])[H])c5N([H])[H])C4([H])[H])c(F)c3[H])c([H])c([H])c2C1([H])[H]

$$$$
80:0:0
     RDKit          3D

 87 95  0  0  1  0  0  0  0  0999 V2000
  -28.7220  -21.2600   21.1580 C   0  0  0  0  0  3  0  0  0  0  0  0
  -29.0610  -19.7660   21.1640 C   0  0  0  0  0  3  0  0  0  0  0  0
  -28.8960  -21.2690   18.9460 C   0  0  0  0  0  3  0  0  0  0  0  0
  -28.5870  -22.2410   20.0440 C   0  0  0  0  0  0  0  0  0  0  0  0
  -29.2360  -19.7700   18.9370 C   0  0  0  0  0  0  0  0  0  0  0  0
  -29.3720  -18.8020   20.0670 C   0  0  0  0  0  0  0  0  0  0  0  0
  -29.3870  -19.1480   17.5540 C   0  0  0  0  0  1  0  0  0  0  0  0
  -30.2860  -15.7770   19.9540 C   0  0  0  0  0  0  0  0  0  0  0  0
  -30.3850  -13.2450   19.1260 C   0  0  0  0  0  2  0  0  0  0  0  0
  -29.4350  -12.8540   17.9580 C   0  0  0  0  0  2  0  0  0  0  0  0
  -28.0320  -12.4990   18.4790 C   0  0  0  0  0  2  0  0  0  0  0  0
  -27.5710  -13.4810   19.5790 C   0  0  0  0  0  3  0  0  0  0  0  0
  -28.6560  -13.7710   20.6410 C   0  0  0  0  0  2  0  0  0  0  0  0
  -29.7940  -14.4030   19.9330 N   0  0  0  0  0  0  0  0  0  0  0  0
  -31.5010  -15.7610   19.6860 O   0  0  0  0  0  0  0  0  0  0  0  0
  -29.4590  -17.0830   20.1080 N   0  0  0  0  0  0  0  0  0  0  0  0
  -28.5380  -16.7430   20.3400 H   0  0  0  0  0  0  0  0  0  0  0  0
  -25.2480  -13.9790   20.4870 C   0  0  0  0  0  0  0  0  0  0  0  0
  -24.2130  -13.1820   20.8890 C   0  0  0  0  0  0  0  0  0  0  0  0
  -24.6880  -11.8360   20.7880 C   0  0  0  0  0  0  0  0  0  0  0  0
  -26.2820  -13.1220   20.1580 N   0  0  0  0  0  0  0  0  0  0  0  0
  -25.9620  -11.8240   20.4050 N   0  0  0  0  0  0  0  0  0  0  0  0
  -23.9750  -10.5650   20.9750 C   0  0  0  0  0  0  0  0  0  0  0  0
  -24.4190   -9.5950   21.9020 C   0  0  0  0  0  3  0  0  0  0  0  0
  -23.7010   -8.3930   22.0790 C   0  0  0  0  0  3  0  0  0  0  0  0
  -22.5260   -8.1500   21.3280 C   0  0  0  0  0  0  0  0  0  0  0  0
  -22.1020   -9.1070   20.3910 C   0  0  0  0  0  3  0  0  0  0  0  0
  -22.8200  -10.3020   20.2130 C   0  0  0  0  0  3  0  0  0  0  0  0
  -21.7830   -6.9970   21.4150 O   0  0  0  0  0  0  0  0  0  0  0  0
  -21.6900   -6.2860   22.5840 C   0  0  0  0  0  0  0  0  0  0  0  0
  -21.1500   -6.8520   23.7600 C   0  0  0  0  0  3  0  0  0  0  0  0
  -21.0080   -6.0630   24.9190 C   0  0  0  0  0  3  0  0  0  0  0  0
  -21.3960   -4.7100   24.9040 C   0  0  0  0  0  0  0  0  0  0  0  0
  -21.9290   -4.1440   23.7320 C   0  0  0  0  0  3  0  0  0  0  0  0
  -22.0720   -4.9280   22.5740 C   0  0  0  0  0  0  0  0  0  0  0  0
  -22.5650   -4.3720   21.4420 F   0  0  0  0  0  0  0  0  0  0  0  0
  -21.2530   -3.9510   26.0140 F   0  0  0  0  0  0  0  0  0  0  0  0
  -22.8290  -13.6430   21.2410 C   0  0  0  0  0  0  0  0  0  0  0  0
  -22.1420  -12.9220   22.1190 N   0  0  0  0  0  0  0  0  0  0  0  0
  -22.3680  -14.6840   20.7740 O   0  0  0  0  0  0  0  0  0  0  0  0
  -22.5280  -12.0810   22.5200 H   0  0  0  0  0  0  0  0  0  0  0  0
  -21.2180  -13.2220   22.3970 H   0  0  0  0  0  0  0  0  0  0  0  0
  -25.3880  -15.3550   20.3400 N   0  0  0  0  0  0  0  0  0  0  0  0
  -24.6110  -15.9870   20.5030 H   0  0  0  0  0  0  0  0  0  0  0  0
  -26.1810  -15.8120   19.9070 H   0  0  0  0  0  0  0  0  0  0  0  0
  -27.8270  -23.9490   19.9400 C   0  0  0  0  0  2  0  0  0  0  0  0
  -28.0990  -25.6520   20.2430 O   0  0  0  0  0  0  0  0  0  0  0  0
  -24.6460  -31.9140   23.2740 C   0  0  0  0  0  0  0  0  0  0  0  0
  -27.1420  -26.8740   20.1980 C   0  0  0  0  0  0  0  0  0  0  0  0
  -23.4400  -30.5340   21.6370 C   0  0  0  0  0  3  0  0  0  0  0  0
  -24.8710  -28.9020   20.1910 C   0  0  0  0  0  0  0  0  0  0  0  0
  -26.0180  -30.6760   21.4920 C   0  0  0  0  0  2  0  0  0  0  0  0
  -26.0740  -29.2510   20.8160 C   0  0  0  0  0  0  0  0  0  0  0  0
  -27.1930  -28.2670   20.7910 C   0  0  0  0  0  3  0  0  0  0  0  0
  -25.9050  -26.7350   19.5170 C   0  0  0  0  0  3  0  0  0  0  0  0
  -24.8240  -27.6680   19.5170 C   0  0  0  0  0  3  0  0  0  0  0  0
  -23.6630  -29.8500   20.2570 C   0  0  0  0  0  2  0  0  0  0  0  0
  -24.7260  -31.0740   22.1860 N   0  0  0  0  0  0  0  0  0  0  0  0
  -23.5590  -32.2090   23.8000 O   0  0  0  0  0  0  0  0  0  0  0  0
  -22.7320  -29.5470   22.6060 C   0  0  0  0  0  0  0  0  0  0  0  0
  -21.4030  -29.3690   22.4690 N   0  0  0  0  0  0  0  0  0  0  0  0
  -23.3910  -28.9380   23.4520 O   0  0  0  0  0  0  0  0  0  0  0  0
  -20.9200  -29.9080   21.7650 H   0  0  0  0  0  0  0  0  0  0  0  0
  -18.0340  -28.0990   22.9610 C   0  0  0  0  0  0  0  0  0  0  0  0
  -20.5870  -28.4220   23.2410 C   0  0  0  0  0  3  0  0  0  0  0  0
  -20.7230  -26.9890   22.6800 C   0  0  0  0  0  2  0  0  0  0  0  0
  -19.6370  -26.6370   21.6580 C   0  0  0  0  0  2  0  0  0  0  0  0
  -18.2460  -26.7520   22.2900 C   0  0  0  0  0  2  0  0  0  0  0  0
  -19.1320  -28.8900   23.3940 C   0  0  0  0  0  0  0  0  0  0  0  0
  -18.8780  -30.1460   23.9860 C   0  0  0  0  0  3  0  0  0  0  0  0
  -17.5580  -30.6130   24.1490 C   0  0  0  0  0  3  0  0  0  0  0  0
  -16.4760  -29.8200   23.7290 C   0  0  0  0  0  3  0  0  0  0  0  0
  -16.7150  -28.5660   23.1410 C   0  0  0  0  0  3  0  0  0  0  0  0
  -25.9170  -32.5570   23.9080 C   0  0  0  0  0  3  0  0  0  0  0  0
  -25.6070  -33.9640   24.2310 N   0  0  0  0  0  0  0  0  0  0  0  0
  -25.9160  -35.0190   23.4650 C   0  0  0  0  0  0  0  0  0  0  0  0
  -26.5480  -34.9100   22.4110 O   0  0  0  0  0  0  0  0  0  0  0  0
  -25.0370  -34.1190   25.0490 H   0  0  0  0  0  0  0  0  0  0  0  0
  -24.1680  -36.8180   23.2020 C   0  0  0  0  0  1  0  0  0  0  0  0
  -25.4570  -36.4150   23.9380 C   0  0  0  0  0  3  0  0  0  0  0  0
  -27.6270  -37.3290   24.6450 C   0  0  0  0  0  1  0  0  0  0  0  0
  -26.4790  -37.4700   23.7520 N   0  0  0  0  0  0  0  0  0  0  0  0
  -26.0770  -38.3920   23.8930 H   0  0  0  0  0  0  0  0  0  0  0  0
  -26.4060  -31.8060   25.2080 C   0  0  1  0  0  0  0  0  0  0  0  0
  -25.2960  -31.5950   26.2640 C   0  0  0  0  0  1  0  0  0  0  0  0
  -26.9860  -30.4170   24.8620 C   0  0  0  0  0  1  0  0  0  0  0  0
  -27.5530  -32.6050   25.8720 C   0  0  0  0  0  1  0  0  0  0  0  0
  1  2  1  0
  3  4  1  0
  4  1  2  0
  5  3  2  0
  5  6  1  0
  6 16  1  0
  6  2  2  0
  7  5  1  0
  8 16  1  0
  9 14  1  0
 10 11  1  0
 10  9  1  0
 12 11  1  0
 12 21  1  0
 12 13  1  0
 14  8  1  0
 14 13  1  0
 15  8  2  0
 16 17  1  0
 18 19  2  0
 19 38  1  0
 20 19  1  0
 20 23  1  0
 21 22  1  0
 21 18  1  0
 22 20  2  0
 23 24  1  0
 24 25  2  0
 26 29  1  0
 26 25  1  0
 27 26  2  0
 28 27  1  0
 28 23  2  0
 29 30  1  0
 30 31  1  0
 31 32  2  0
 33 32  1  0
 33 37  1  0
 34 33  2  0
 35 30  2  0
 35 34  1  0
 36 35  1  0
 38 39  1  0
 39 42  1  0
 39 41  1  0
 40 38  2  0
 43 18  1  0
 43 44  1  0
 45 43  1  0
 46  4  1  0
 46 47  1  0
 48 59  2  0
 49 47  1  0
 49 54  1  0
 50 58  1  0
 50 60  1  0
 51 57  1  0
 51 53  1  0
 52 58  1  0
 53 52  1  0
 54 53  2  0
 55 56  1  0
 55 49  2  0
 56 51  2  0
 57 50  1  0
 58 48  1  0
 60 62  2  0
 61 60  1  0
 63 61  1  0
 64 73  2  0
 64 69  1  0
 65 61  1  0
 65 69  1  0
 66 65  1  0
 67 68  1  0
 67 66  1  0
 68 64  1  0
 69 70  2  0
 70 71  1  0
 72 71  2  0
 73 72  1  0
 74 48  1  0
 74 75  1  0
 74 84  1  0
 75 78  1  0
 76 80  1  0
 76 75  1  0
 77 76  2  0
 80 79  1  0
 82 83  1  0
 82 80  1  0
 82 81  1  0
 84 87  1  1
 84 85  1  0
 86 84  1  0
M  ISO  4   8 100  16 100  46 101  47 101
M  END
>  <TORSDO>  (80) 
F 17

>  <SCORE>  (80) 
-16.345

>  <name>  (80) 
80

>  <ligand_id>  (80) 
80

>  <original_smiles>  (80) 
[H]c1c([H])c([H])c2c(c1[H])C([H])([H])C([H])([H])C([H])([H])C2([H])N([H])C(=O)C1([H])N(C(=O)C([H])(N([H])C(=O)C([H])(N([H])C([H])([H])[H])C([H])([H])[H])C(C([H])([H])[H])(C([H])([H])[H])C([H])([H])[H])C([H])([H])c2c([H])c(OC([H])([H])c3c([H])c([H])c(N([H])C(=O)N4C([H])([H])C([H])([H])C([H])([H])C([H])(n5nc(-c6c([H])c([H])c(Oc7c([H])c([H])c(F)c([H])c7F)c([H])c6[H])c(C(=O)N([H])[H])c5N([H])[H])C4([H])[H])c(C([H])([H])[H])c3[H])c([H])c([H])c2C1([H])[H]

>  <smiles>  (80) 
[H]c1c([H])c([H])c2c(c1[H])C([H])([H])C([H])([H])C([H])([H])C2([H])N([H])C(=O)C1([H])N(C(=O)C([H])(N([H])C(=O)C([H])(N([H])C([H])([H])[H])C([H])([H])[H])C(C([H])([H])[H])(C([H])([H])[H])C([H])([H])[H])C([H])([H])c2c([H])c(OC([H])([H])c3c([H])c([H])c(N([H])C(=O)N4C([H])([H])C([H])([H])C([H])([H])C([H])(n5nc(-c6c([H])c([H])c(Oc7c([H])c([H])c(F)c([H])c7F)c([H])c6[H])c(C(=O)N([H])[H])c5N([H])[H])C4([H])[H])c(C([H])([H])[H])c3[H])c([H])c([H])c2C1([H])[H]

$$$$
81:0:0
     RDKit          3D

 96105  0  0  1  0  0  0  0  0999 V2000
  -29.1600  -21.8870   19.4780 C   0  0  0  0  0  2  0  0  0  0  0  0
  -28.8840  -24.0370   22.6100 C   0  0  0  0  0  2  0  0  0  0  0  0
  -27.7080  -24.5990   21.7920 C   0  0  0  0  0  2  0  0  0  0  0  0
  -29.6480  -23.0920   21.6680 C   0  0  0  0  0  2  0  0  0  0  0  0
  -27.9450  -24.1460   20.3390 C   0  0  0  0  0  3  0  0  0  0  0  0
  -28.6990  -22.8300   20.5700 N   0  0  1  0  0  4  0  0  0  0  0  0
  -27.9900  -22.2600   21.0070 H   0  0  0  0  0  0  0  0  0  0  0  0
  -28.6070  -25.3280   19.4840 C   0  0  0  0  0  2  0  0  0  0  0  0
  -28.4830  -26.7600   19.8700 O   0  0  0  0  0  0  0  0  0  0  0  0
  -24.6260  -31.8840   23.1030 C   0  0  0  0  0  0  0  0  0  0  0  0
  -27.3060  -27.5180   19.8360 C   0  0  0  0  0  0  0  0  0  0  0  0
  -23.4280  -30.5120   21.4330 C   0  0  0  0  0  3  0  0  0  0  0  0
  -24.8890  -29.0420   19.9280 C   0  0  0  0  0  0  0  0  0  0  0  0
  -25.9470  -30.9090   21.2100 C   0  0  0  0  0  2  0  0  0  0  0  0
  -26.0500  -29.5540   20.5180 C   0  0  0  0  0  0  0  0  0  0  0  0
  -27.2590  -28.8030   20.4590 C   0  0  0  0  0  3  0  0  0  0  0  0
  -26.1220  -27.0500   19.2240 C   0  0  0  0  0  3  0  0  0  0  0  0
  -24.9260  -27.7980   19.2720 C   0  0  0  0  0  3  0  0  0  0  0  0
  -23.6270  -29.8740   20.0300 C   0  0  0  0  0  2  0  0  0  0  0  0
  -24.6870  -31.1180   21.9740 N   0  0  0  0  0  0  0  0  0  0  0  0
  -23.5470  -32.1170   23.6650 O   0  0  0  0  0  0  0  0  0  0  0  0
  -22.8060  -29.4510   22.3730 C   0  0  0  0  0  0  0  0  0  0  0  0
  -21.4800  -29.2620   22.2710 N   0  0  0  0  0  0  0  0  0  0  0  0
  -23.5150  -28.8050   23.1480 O   0  0  0  0  0  0  0  0  0  0  0  0
  -20.9670  -29.8370   21.6170 H   0  0  0  0  0  0  0  0  0  0  0  0
  -18.1280  -28.0240   22.8200 C   0  0  0  0  0  0  0  0  0  0  0  0
  -20.6930  -28.2820   23.0200 C   0  0  0  0  0  3  0  0  0  0  0  0
  -20.7830  -26.8850   22.3670 C   0  0  0  0  0  2  0  0  0  0  0  0
  -19.6490  -26.6080   21.3750 C   0  0  0  0  0  2  0  0  0  0  0  0
  -18.2880  -26.7090   22.0710 C   0  0  0  0  0  2  0  0  0  0  0  0
  -19.2580  -28.7680   23.2510 C   0  0  0  0  0  0  0  0  0  0  0  0
  -19.0540  -29.9980   23.9140 C   0  0  0  0  0  3  0  0  0  0  0  0
  -17.7550  -30.4840   24.1500 C   0  0  0  0  0  3  0  0  0  0  0  0
  -16.6400  -29.7360   23.7360 C   0  0  0  0  0  3  0  0  0  0  0  0
  -16.8260  -28.5070   23.0760 C   0  0  0  0  0  3  0  0  0  0  0  0
  -25.9040  -32.5220   23.7280 C   0  0  0  0  0  3  0  0  0  0  0  0
  -26.4470  -31.7260   24.9790 C   0  0  1  0  0  0  0  0  0  0  0  0
  -25.3660  -31.4400   26.0480 C   0  0  0  0  0  1  0  0  0  0  0  0
  -27.0500  -30.3680   24.5470 C   0  0  0  0  0  1  0  0  0  0  0  0
  -27.5880  -32.5230   25.6530 C   0  0  0  0  0  1  0  0  0  0  0  0
  -25.5770  -33.9070   24.0980 N   0  0  0  0  0  0  0  0  0  0  0  0
  -25.8850  -34.9860   23.3650 C   0  0  0  0  0  0  0  0  0  0  0  0
  -26.5480  -34.9210   22.3260 O   0  0  0  0  0  0  0  0  0  0  0  0
  -24.9770  -34.0300   24.9020 H   0  0  0  0  0  0  0  0  0  0  0  0
  -24.1330  -36.7670   23.0670 C   0  0  0  0  0  1  0  0  0  0  0  0
  -25.3800  -36.3540   23.8640 C   0  0  0  0  0  3  0  0  0  0  0  0
  -27.4950  -37.2550   24.7270 C   0  0  0  0  0  1  0  0  0  0  0  0
  -26.3990  -37.4230   23.7770 N   0  0  0  0  0  0  0  0  0  0  0  0
  -25.9770  -38.3360   23.9360 H   0  0  0  0  0  0  0  0  0  0  0  0
  -28.7350  -19.5830   20.7710 C   0  0  0  0  0  3  0  0  0  0  0  0
  -28.9820  -18.1860   20.9470 C   0  0  0  0  0  3  0  0  0  0  0  0
  -30.3970  -19.6220   19.0550 C   0  0  0  0  0  3  0  0  0  0  0  0
  -29.4420  -20.3560   19.8130 C   0  0  0  0  0  0  0  0  0  0  0  0
  -29.9280  -17.4450   20.1810 C   0  0  0  0  0  0  0  0  0  0  0  0
  -30.6370  -18.2120   19.2000 C   0  0  0  0  0  0  0  0  0  0  0  0
  -30.8030  -14.9490   19.9820 C   0  0  0  0  0  0  0  0  0  0  0  0
  -30.6010  -12.6940   18.9370 C   0  0  0  0  0  2  0  0  0  0  0  0
  -29.5910  -12.8040   17.7720 C   0  0  0  0  0  2  0  0  0  0  0  0
  -28.1430  -12.6290   18.2750 C   0  0  0  0  0  2  0  0  0  0  0  0
  -27.8400  -13.4880   19.5340 C   0  0  0  0  0  3  0  0  0  0  0  0
  -28.9540  -13.3290   20.5920 C   0  0  0  0  0  2  0  0  0  0  0  0
  -30.2240  -13.7030   19.9500 N   0  0  0  0  0  0  0  0  0  0  0  0
  -31.9660  -15.1060   19.5940 O   0  0  0  0  0  0  0  0  0  0  0  0
  -29.9690  -15.9790   20.3630 N   0  0  0  0  0  0  0  0  0  0  0  0
  -29.1350  -15.6220   20.8040 H   0  0  0  0  0  0  0  0  0  0  0  0
  -25.4950  -14.0810   20.4000 C   0  0  0  0  0  0  0  0  0  0  0  0
  -24.4440  -13.3030   20.8040 C   0  0  0  0  0  0  0  0  0  0  0  0
  -24.8970  -11.9510   20.7160 C   0  0  0  0  0  0  0  0  0  0  0  0
  -26.5200  -13.2020   20.0850 N   0  0  0  0  0  0  0  0  0  0  0  0
  -26.1690  -11.9140   20.3400 N   0  0  0  0  0  0  0  0  0  0  0  0
  -24.1750  -10.6870   20.9080 C   0  0  0  0  0  0  0  0  0  0  0  0
  -24.5940   -9.7340   21.8630 C   0  0  0  0  0  3  0  0  0  0  0  0
  -23.8710   -8.5350   22.0420 C   0  0  0  0  0  3  0  0  0  0  0  0
  -22.7180   -8.2790   21.2650 C   0  0  0  0  0  0  0  0  0  0  0  0
  -22.3190   -9.2190   20.2980 C   0  0  0  0  0  3  0  0  0  0  0  0
  -23.0420  -10.4100   20.1170 C   0  0  0  0  0  3  0  0  0  0  0  0
  -21.9690   -7.1310   21.3500 O   0  0  0  0  0  0  0  0  0  0  0  0
  -21.8110   -6.4630   22.5370 C   0  0  0  0  0  0  0  0  0  0  0  0
  -21.1960   -7.0670   23.6550 C   0  0  0  0  0  3  0  0  0  0  0  0
  -20.9900   -6.3220   24.8330 C   0  0  0  0  0  3  0  0  0  0  0  0
  -21.3890   -4.9730   24.8930 C   0  0  0  0  0  0  0  0  0  0  0  0
  -21.9970   -4.3680   23.7790 C   0  0  0  0  0  3  0  0  0  0  0  0
  -22.2040   -5.1110   22.6030 C   0  0  0  0  0  0  0  0  0  0  0  0
  -22.7710   -4.5170   21.5250 F   0  0  0  0  0  0  0  0  0  0  0  0
  -21.1850   -4.2530   26.0220 F   0  0  0  0  0  0  0  0  0  0  0  0
  -23.0650  -13.7790   21.1610 C   0  0  0  0  0  0  0  0  0  0  0  0
  -22.3810  -13.0690   22.0500 N   0  0  0  0  0  0  0  0  0  0  0  0
  -22.6050  -14.8160   20.6850 O   0  0  0  0  0  0  0  0  0  0  0  0
  -22.7680  -12.2300   22.4570 H   0  0  0  0  0  0  0  0  0  0  0  0
  -21.4590  -13.3700   22.3290 H   0  0  0  0  0  0  0  0  0  0  0  0
  -25.6570  -15.4560   20.2510 N   0  0  0  0  0  0  0  0  0  0  0  0
  -24.8940  -16.1060   20.4020 H   0  0  0  0  0  0  0  0  0  0  0  0
  -26.4870  -15.9030   19.8840 H   0  0  0  0  0  0  0  0  0  0  0  0
  -32.8890  -18.0070   18.4190 C   0  0  0  0  0  1  0  0  0  0  0  0
  -30.9580  -17.6120   16.9290 C   0  0  0  0  0  1  0  0  0  0  0  0
  -31.4990  -17.5860   18.2860 N   0  0  0  0  0  0  0  0  0  0  0  0
  1 53  1  0
  1  6  1  0
  3  2  1  0
  4  2  1  0
  5  8  1  0
  5  6  1  0
  5  3  1  0
  6  7  1  1
  6  4  1  0
  8  9  1  0
 10 21  2  0
 11  9  1  0
 11 16  1  0
 12 20  1  0
 12 22  1  0
 13 19  1  0
 13 15  1  0
 14 20  1  0
 15 14  1  0
 16 15  2  0
 17 18  1  0
 17 11  2  0
 18 13  2  0
 19 12  1  0
 20 10  1  0
 22 24  2  0
 23 22  1  0
 25 23  1  0
 26 35  2  0
 26 31  1  0
 27 23  1  0
 27 31  1  0
 28 27  1  0
 29 30  1  0
 29 28  1  0
 30 26  1  0
 31 32  2  0
 32 33  1  0
 34 33  2  0
 35 34  1  0
 36 10  1  0
 36 41  1  0
 36 37  1  0
 37 40  1  1
 37 38  1  0
 39 37  1  0
 41 44  1  0
 42 46  1  0
 42 41  1  0
 43 42  2  0
 46 45  1  0
 48 46  1  0
 48 49  1  0
 48 47  1  0
 50 51  1  0
 52 55  2  0
 52 53  1  0
 53 50  2  0
 54 64  1  0
 54 51  2  0
 55 54  1  0
 56 64  1  0
 57 62  1  0
 58 59  1  0
 58 57  1  0
 60 59  1  0
 60 69  1  0
 60 61  1  0
 62 56  1  0
 62 61  1  0
 63 56  2  0
 64 65  1  0
 66 67  2  0
 67 86  1  0
 68 67  1  0
 68 71  1  0
 69 70  1  0
 69 66  1  0
 70 68  2  0
 71 72  1  0
 72 73  2  0
 74 77  1  0
 74 73  1  0
 75 74  2  0
 76 75  1  0
 76 71  2  0
 77 78  1  0
 78 83  2  0
 78 79  1  0
 79 80  2  0
 80 81  1  0
 81 85  1  0
 82 81  2  0
 83 82  1  0
 84 83  1  0
 86 87  1  0
 87 90  1  0
 87 89  1  0
 88 86  2  0
 91 66  1  0
 91 92  1  0
 93 91  1  0
 95 96  1  0
 96 94  1  0
 96 55  1  0
M  ISO  4   8 101   9 101  56 100  64 100
M  END
>  <TORSDO>  (81) 
F 20

>  <SCORE>  (81) 
-13.128

>  <name>  (81) 
81

>  <ligand_id>  (81) 
81

>  <original_smiles>  (81) 
[H]c1c([H])c([H])c2c(c1[H])C([H])([H])C([H])([H])C([H])([H])C2([H])N([H])C(=O)C1([H])N(C(=O)C([H])(N([H])C(=O)C([H])(N([H])C([H])([H])[H])C([H])([H])[H])C(C([H])([H])[H])(C([H])([H])[H])C([H])([H])[H])C([H])([H])c2c([H])c(OC([H])([H])C3([H])C([H])([H])C([H])([H])C([H])([H])[N+]3([H])C([H])([H])c3c([H])c([H])c(N([H])C(=O)N4C([H])([H])C([H])([H])C([H])([H])C([H])(n5nc(-c6c([H])c([H])c(Oc7c([H])c([H])c(F)c([H])c7F)c([H])c6[H])c(C(=O)N([H])[H])c5N([H])[H])C4([H])[H])c(N(C([H])([H])[H])C([H])([H])[H])c3[H])c([H])c([H])c2C1([H])[H]

>  <smiles>  (81) 
[H]c1c([H])c([H])c2c(c1[H])C([H])([H])C([H])([H])C([H])([H])C2([H])N([H])C(=O)C1([H])N(C(=O)C([H])(N([H])C(=O)C([H])(N([H])C([H])([H])[H])C([H])([H])[H])C(C([H])([H])[H])(C([H])([H])[H])C([H])([H])[H])C([H])([H])c2c([H])c(OC([H])([H])C3([H])C([H])([H])C([H])([H])C([H])([H])[N+]3([H])C([H])([H])c3c([H])c([H])c(N([H])C(=O)N4C([H])([H])C([H])([H])C([H])([H])C([H])(n5nc(-c6c([H])c([H])c(Oc7c([H])c([H])c(F)c([H])c7F)c([H])c6[H])c(C(=O)N([H])[H])c5N([H])[H])C4([H])[H])c(N(C([H])([H])[H])C([H])([H])[H])c3[H])c([H])c([H])c2C1([H])[H]

$$$$
82:0:0
     RDKit          3D

 92101  0  0  1  0  0  0  0  0999 V2000
  -28.6560  -19.2170   20.9580 C   0  0  0  0  0  3  0  0  0  0  0  0
  -28.5190  -20.6450   20.8500 C   0  0  0  0  0  3  0  0  0  0  0  0
  -29.4970  -20.5500   18.6720 C   0  0  0  0  0  3  0  0  0  0  0  0
  -29.2040  -18.4090   19.9170 C   0  0  0  0  0  0  0  0  0  0  0  0
  -28.9070  -21.3660   19.6830 C   0  0  0  0  0  0  0  0  0  0  0  0
  -29.6420  -19.1340   18.7780 C   0  0  0  0  0  0  0  0  0  0  0  0
  -30.1690  -18.4560   17.7300 F   0  0  0  0  0  0  0  0  0  0  0  0
  -28.5560  -24.8910   18.2350 C   0  0  0  0  0  2  0  0  0  0  0  0
  -28.9990  -23.4070   18.1790 C   0  0  0  0  0  2  0  0  0  0  0  0
  -28.2630  -23.8770   20.4100 C   0  0  0  0  0  2  0  0  0  0  0  0
  -28.6680  -25.2470   19.7180 C   0  0  0  0  0  3  0  0  0  0  0  0
  -28.7080  -22.7920   19.4800 N   0  0  0  0  0  0  0  0  0  0  0  0
  -28.4120  -26.6410   20.1790 O   0  0  0  0  0  0  0  0  0  0  0  0
  -24.5880  -31.9080   23.2250 C   0  0  0  0  0  0  0  0  0  0  0  0
  -27.2340  -27.3970   20.1200 C   0  0  0  0  0  0  0  0  0  0  0  0
  -23.3910  -30.5190   21.5680 C   0  0  0  0  0  3  0  0  0  0  0  0
  -24.8490  -28.9840   20.1260 C   0  0  0  0  0  0  0  0  0  0  0  0
  -25.9240  -30.8590   21.3820 C   0  0  0  0  0  2  0  0  0  0  0  0
  -26.0110  -29.4860   20.7220 C   0  0  0  0  0  0  0  0  0  0  0  0
  -27.2010  -28.7040   20.7030 C   0  0  0  0  0  3  0  0  0  0  0  0
  -26.0430  -26.9320   19.5260 C   0  0  0  0  0  3  0  0  0  0  0  0
  -24.8670  -27.7140   19.5210 C   0  0  0  0  0  3  0  0  0  0  0  0
  -23.6070  -29.8520   20.1820 C   0  0  0  0  0  2  0  0  0  0  0  0
  -24.6530  -31.1130   22.1160 N   0  0  0  0  0  0  0  0  0  0  0  0
  -23.5040  -32.1740   23.7640 O   0  0  0  0  0  0  0  0  0  0  0  0
  -22.7360  -29.4910   22.5200 C   0  0  0  0  0  0  0  0  0  0  0  0
  -21.4110  -29.3070   22.3900 N   0  0  0  0  0  0  0  0  0  0  0  0
  -23.4180  -28.8630   23.3350 O   0  0  0  0  0  0  0  0  0  0  0  0
  -20.9200  -29.8670   21.7080 H   0  0  0  0  0  0  0  0  0  0  0  0
  -18.0360  -28.1090   22.8980 C   0  0  0  0  0  0  0  0  0  0  0  0
  -20.5970  -28.3560   23.1500 C   0  0  0  0  0  3  0  0  0  0  0  0
  -20.6900  -26.9360   22.5450 C   0  0  0  0  0  2  0  0  0  0  0  0
  -19.5780  -26.6370   21.5340 C   0  0  0  0  0  2  0  0  0  0  0  0
  -18.2030  -26.7730   22.1930 C   0  0  0  0  0  2  0  0  0  0  0  0
  -19.1600  -28.8600   23.3320 C   0  0  0  0  0  0  0  0  0  0  0  0
  -18.9510  -30.1110   23.9520 C   0  0  0  0  0  3  0  0  0  0  0  0
  -17.6490  -30.6120   24.1390 C   0  0  0  0  0  3  0  0  0  0  0  0
  -16.5390  -29.8580   23.7210 C   0  0  0  0  0  3  0  0  0  0  0  0
  -16.7330  -28.6090   23.1060 C   0  0  0  0  0  3  0  0  0  0  0  0
  -25.8670  -32.5410   23.8540 C   0  0  0  0  0  3  0  0  0  0  0  0
  -25.5580  -33.9420   24.1790 N   0  0  0  0  0  0  0  0  0  0  0  0
  -25.8980  -34.9930   23.4200 C   0  0  0  0  0  0  0  0  0  0  0  0
  -26.5750  -34.8860   22.3940 O   0  0  0  0  0  0  0  0  0  0  0  0
  -24.9580  -34.1000   24.9740 H   0  0  0  0  0  0  0  0  0  0  0  0
  -24.1900  -36.7980   23.0360 C   0  0  0  0  0  1  0  0  0  0  0  0
  -25.4110  -36.3840   23.8720 C   0  0  0  0  0  3  0  0  0  0  0  0
  -27.5270  -37.2610   24.7570 C   0  0  0  0  0  1  0  0  0  0  0  0
  -26.4530  -37.4310   23.7820 N   0  0  0  0  0  0  0  0  0  0  0  0
  -26.0470  -38.3540   23.9140 H   0  0  0  0  0  0  0  0  0  0  0  0
  -26.3720  -31.7760   25.1380 C   0  0  1  0  0  0  0  0  0  0  0  0
  -25.2700  -31.5380   26.1960 C   0  0  0  0  0  1  0  0  0  0  0  0
  -26.9630  -30.3990   24.7560 C   0  0  0  0  0  1  0  0  0  0  0  0
  -27.5150  -32.5740   25.8110 C   0  0  0  0  0  1  0  0  0  0  0  0
  -29.1320  -16.8170   19.8930 C   0  0  0  0  0  2  0  0  0  0  0  0
  -30.6970  -14.7790   20.0070 C   0  0  0  0  0  0  0  0  0  0  0  0
  -30.3670  -12.5550   18.9310 C   0  0  0  0  0  2  0  0  0  0  0  0
  -29.3650  -12.6780   17.7650 C   0  0  0  0  0  2  0  0  0  0  0  0
  -27.9240  -12.5060   18.2770 C   0  0  0  0  0  2  0  0  0  0  0  0
  -27.6300  -13.3700   19.5330 C   0  0  0  0  0  3  0  0  0  0  0  0
  -28.7480  -13.2510   20.5900 C   0  0  0  0  0  2  0  0  0  0  0  0
  -30.0140  -13.5890   19.9300 N   0  0  0  0  0  0  0  0  0  0  0  0
  -31.8410  -14.8600   19.5480 O   0  0  0  0  0  0  0  0  0  0  0  0
  -30.8810  -16.5800   21.6260 C   0  0  0  0  0  1  0  0  0  0  0  0
  -30.1100  -15.8930   20.5900 N   0  0  0  0  0  0  0  0  0  0  0  0
  -25.2910  -13.9550   20.4070 C   0  0  0  0  0  0  0  0  0  0  0  0
  -24.2460  -13.1770   20.8230 C   0  0  0  0  0  0  0  0  0  0  0  0
  -24.7010  -11.8260   20.7400 C   0  0  0  0  0  0  0  0  0  0  0  0
  -26.3160  -13.0770   20.0950 N   0  0  0  0  0  0  0  0  0  0  0  0
  -25.9710  -11.7900   20.3560 N   0  0  0  0  0  0  0  0  0  0  0  0
  -23.9810  -10.5610   20.9440 C   0  0  0  0  0  0  0  0  0  0  0  0
  -24.4420   -9.5890   21.8580 C   0  0  0  0  0  3  0  0  0  0  0  0
  -23.7200   -8.3900   22.0520 C   0  0  0  0  0  3  0  0  0  0  0  0
  -22.5240   -8.1570   21.3300 C   0  0  0  0  0  0  0  0  0  0  0  0
  -22.0840   -9.1180   20.4050 C   0  0  0  0  0  3  0  0  0  0  0  0
  -22.8050  -10.3080   20.2100 C   0  0  0  0  0  3  0  0  0  0  0  0
  -21.7730   -7.0120   21.4350 O   0  0  0  0  0  0  0  0  0  0  0  0
  -21.7330   -6.2800   22.5950 C   0  0  0  0  0  0  0  0  0  0  0  0
  -21.2670   -6.8310   23.8080 C   0  0  0  0  0  3  0  0  0  0  0  0
  -21.1770   -6.0240   24.9590 C   0  0  0  0  0  3  0  0  0  0  0  0
  -21.5430   -4.6660   24.8990 C   0  0  0  0  0  0  0  0  0  0  0  0
  -22.0030   -4.1140   23.6890 C   0  0  0  0  0  3  0  0  0  0  0  0
  -22.0940   -4.9190   22.5400 C   0  0  0  0  0  0  0  0  0  0  0  0
  -22.5170   -4.3770   21.3730 F   0  0  0  0  0  0  0  0  0  0  0  0
  -21.4510   -3.8880   26.0020 F   0  0  0  0  0  0  0  0  0  0  0  0
  -22.8680  -13.6530   21.1820 C   0  0  0  0  0  0  0  0  0  0  0  0
  -22.1840  -12.9380   22.0680 N   0  0  0  0  0  0  0  0  0  0  0  0
  -22.4100  -14.6940   20.7130 O   0  0  0  0  0  0  0  0  0  0  0  0
  -22.5690  -12.0950   22.4670 H   0  0  0  0  0  0  0  0  0  0  0  0
  -21.2620  -13.2380   22.3500 H   0  0  0  0  0  0  0  0  0  0  0  0
  -25.4460  -15.3280   20.2450 N   0  0  0  0  0  0  0  0  0  0  0  0
  -24.6820  -15.9760   20.4040 H   0  0  0  0  0  0  0  0  0  0  0  0
  -26.2620  -15.7700   19.8440 H   0  0  0  0  0  0  0  0  0  0  0  0
  2  1  1  0
  3  6  2  0
  3  5  1  0
  4  1  2  0
  5  2  2  0
  6  4  1  0
  7  6  1  0
  8 11  1  0
  9  8  1  0
  9 12  1  0
 11 13  1  0
 11 10  1  0
 12  5  1  0
 12 10  1  0
 14 25  2  0
 15 13  1  0
 15 20  1  0
 16 24  1  0
 16 26  1  0
 17 23  1  0
 17 19  1  0
 18 24  1  0
 19 18  1  0
 20 19  2  0
 21 15  2  0
 22 21  1  0
 22 17  2  0
 23 16  1  0
 24 14  1  0
 26 28  2  0
 27 26  1  0
 29 27  1  0
 30 39  2  0
 30 35  1  0
 31 27  1  0
 31 35  1  0
 32 31  1  0
 33 34  1  0
 33 32  1  0
 34 30  1  0
 35 36  2  0
 36 37  1  0
 38 37  2  0
 39 38  1  0
 40 14  1  0
 40 41  1  0
 40 50  1  0
 41 44  1  0
 42 46  1  0
 42 41  1  0
 43 42  2  0
 46 45  1  0
 48 46  1  0
 48 49  1  0
 48 47  1  0
 50 53  1  1
 50 51  1  0
 52 50  1  0
 54  4  1  0
 54 64  1  0
 55 64  1  0
 56 61  1  0
 57 58  1  0
 57 56  1  0
 59 58  1  0
 59 68  1  0
 59 60  1  0
 61 55  1  0
 61 60  1  0
 62 55  2  0
 64 63  1  0
 65 66  2  0
 66 85  1  0
 67 66  1  0
 67 70  1  0
 68 69  1  0
 68 65  1  0
 69 67  2  0
 70 71  1  0
 71 72  2  0
 73 76  1  0
 73 72  1  0
 74 73  2  0
 75 74  1  0
 75 70  2  0
 76 77  1  0
 77 78  1  0
 78 79  2  0
 80 79  1  0
 80 84  1  0
 81 80  2  0
 82 77  2  0
 82 81  1  0
 83 82  1  0
 85 86  1  0
 86 89  1  0
 86 88  1  0
 87 85  2  0
 90 91  1  0
 90 65  1  0
 92 90  1  0
M  ISO  4  11 101  13 101  55 100  64 100
M  END
>  <TORSDO>  (82) 
F 18

>  <SCORE>  (82) 
-14.531

>  <name>  (82) 
82

>  <ligand_id>  (82) 
82

>  <original_smiles>  (82) 
[H]c1c([H])c([H])c2c(c1[H])C([H])([H])C([H])([H])C([H])([H])C2([H])N([H])C(=O)C1([H])N(C(=O)C([H])(N([H])C(=O)C([H])(N([H])C([H])([H])[H])C([H])([H])[H])C(C([H])([H])[H])(C([H])([H])[H])C([H])([H])[H])C([H])([H])c2c([H])c(OC3([H])C([H])([H])N(c4c([H])c([H])c(C([H])([H])N(C(=O)N5C([H])([H])C([H])([H])C([H])([H])C([H])(n6nc(-c7c([H])c([H])c(Oc8c([H])c([H])c(F)c([H])c8F)c([H])c7[H])c(C(=O)N([H])[H])c6N([H])[H])C5([H])[H])C([H])([H])[H])c(F)c4[H])C([H])([H])C3([H])[H])c([H])c([H])c2C1([H])[H]

>  <smiles>  (82) 
[H]c1c([H])c([H])c2c(c1[H])C([H])([H])C([H])([H])C([H])([H])C2([H])N([H])C(=O)C1([H])N(C(=O)C([H])(N([H])C(=O)C([H])(N([H])C([H])([H])[H])C([H])([H])[H])C(C([H])([H])[H])(C([H])([H])[H])C([H])([H])[H])C([H])([H])c2c([H])c(OC3([H])C([H])([H])N(c4c([H])c([H])c(C([H])([H])N(C(=O)N5C([H])([H])C([H])([H])C([H])([H])C([H])(n6nc(-c7c([H])c([H])c(Oc8c([H])c([H])c(F)c([H])c8F)c([H])c7[H])c(C(=O)N([H])[H])c6N([H])[H])C5([H])[H])C([H])([H])[H])c(F)c4[H])C([H])([H])C3([H])[H])c([H])c([H])c2C1([H])[H]

$$$$
83:0:0
     RDKit          3D

 98107  0  0  1  0  0  0  0  0999 V2000
  -31.3290  -22.9720   20.3630 C   0  0  0  0  0  3  0  0  0  0  0  0
  -31.2390  -21.6090   20.7050 C   0  0  0  0  0  3  0  0  0  0  0  0
  -31.5100  -22.3740   18.0080 C   0  0  0  0  0  3  0  0  0  0  0  0
  -31.4550  -23.3640   19.0140 C   0  0  0  0  0  0  0  0  0  0  0  0
  -31.2740  -20.6170   19.7020 C   0  0  0  0  0  0  0  0  0  0  0  0
  -31.4210  -21.0060   18.3500 C   0  0  0  0  0  0  0  0  0  0  0  0
  -31.4720  -20.0720   17.3680 F   0  0  0  0  0  0  0  0  0  0  0  0
  -32.2570  -17.1080   20.4130 C   0  0  0  0  0  2  0  0  0  0  0  0
  -29.7410  -17.3680   20.7160 C   0  0  0  0  0  2  0  0  0  0  0  0
  -32.3970  -18.6370   20.4790 C   0  0  0  0  0  2  0  0  0  0  0  0
  -29.9680  -18.8900   20.7880 C   0  0  0  0  0  2  0  0  0  0  0  0
  -30.9870  -16.5690   21.1500 C   0  0  0  0  0  3  0  0  0  0  0  0
  -31.1590  -19.2560   20.0290 N   0  0  0  0  0  0  0  0  0  0  0  0
  -30.7510  -14.3980   19.8790 C   0  0  0  0  0  0  0  0  0  0  0  0
  -30.0620  -12.4210   18.5810 C   0  0  0  0  0  2  0  0  0  0  0  0
  -29.0250  -12.7680   17.4980 C   0  0  0  0  0  2  0  0  0  0  0  0
  -27.6120  -12.6330   18.0820 C   0  0  0  0  0  2  0  0  0  0  0  0
  -27.4360  -13.4110   19.4110 C   0  0  0  0  0  3  0  0  0  0  0  0
  -28.6010  -13.1390   20.3960 C   0  0  0  0  0  2  0  0  0  0  0  0
  -29.8950  -13.3470   19.7160 N   0  0  0  0  0  0  0  0  0  0  0  0
  -31.5760  -14.6780   19.0120 O   0  0  0  0  0  0  0  0  0  0  0  0
  -31.0070  -14.3790   22.2800 C   0  0  0  0  0  1  0  0  0  0  0  0
  -30.7130  -15.1020   21.0400 N   0  0  0  0  0  0  0  0  0  0  0  0
  -25.1090  -13.9830   20.3610 C   0  0  0  0  0  0  0  0  0  0  0  0
  -24.0810  -13.1970   20.8060 C   0  0  0  0  0  0  0  0  0  0  0  0
  -24.5390  -11.8460   20.7000 C   0  0  0  0  0  0  0  0  0  0  0  0
  -26.1340  -13.1150   20.0150 N   0  0  0  0  0  0  0  0  0  0  0  0
  -25.7980  -11.8230   20.2770 N   0  0  0  0  0  0  0  0  0  0  0  0
  -23.8330  -10.5770   20.9240 C   0  0  0  0  0  0  0  0  0  0  0  0
  -24.3280   -9.5980   21.8180 C   0  0  0  0  0  3  0  0  0  0  0  0
  -23.6220   -8.3940   22.0290 C   0  0  0  0  0  3  0  0  0  0  0  0
  -22.4040   -8.1570   21.3480 C   0  0  0  0  0  0  0  0  0  0  0  0
  -21.9250   -9.1220   20.4450 C   0  0  0  0  0  3  0  0  0  0  0  0
  -22.6320  -10.3170   20.2300 C   0  0  0  0  0  3  0  0  0  0  0  0
  -21.6640   -7.0060   21.4730 O   0  0  0  0  0  0  0  0  0  0  0  0
  -21.6770   -6.2610   22.6270 C   0  0  0  0  0  0  0  0  0  0  0  0
  -21.3290   -6.8170   23.8770 C   0  0  0  0  0  3  0  0  0  0  0  0
  -21.2860   -5.9990   25.0240 C   0  0  0  0  0  3  0  0  0  0  0  0
  -21.5860   -4.6280   24.9220 C   0  0  0  0  0  0  0  0  0  0  0  0
  -21.9300   -4.0720   23.6780 C   0  0  0  0  0  3  0  0  0  0  0  0
  -21.9710   -4.8860   22.5320 C   0  0  0  0  0  0  0  0  0  0  0  0
  -22.2800   -4.3390   21.3320 F   0  0  0  0  0  0  0  0  0  0  0  0
  -21.5390   -3.8430   26.0230 F   0  0  0  0  0  0  0  0  0  0  0  0
  -22.7140  -13.6590   21.2200 C   0  0  0  0  0  0  0  0  0  0  0  0
  -22.0800  -12.9540   22.1510 N   0  0  0  0  0  0  0  0  0  0  0  0
  -22.2170  -14.6830   20.7520 O   0  0  0  0  0  0  0  0  0  0  0  0
  -22.4970  -12.1260   22.5530 H   0  0  0  0  0  0  0  0  0  0  0  0
  -21.1670  -13.2450   22.4680 H   0  0  0  0  0  0  0  0  0  0  0  0
  -25.2560  -15.3590   20.1990 N   0  0  0  0  0  0  0  0  0  0  0  0
  -24.5050  -16.0200   20.3760 H   0  0  0  0  0  0  0  0  0  0  0  0
  -26.0780  -15.7950   19.8030 H   0  0  0  0  0  0  0  0  0  0  0  0
  -31.5150  -24.8430   18.6550 C   0  0  0  0  0  2  0  0  0  0  0  0
  -30.1600  -25.3510   18.3490 N   0  0  0  0  0  4  0  0  0  0  0  0
  -29.5030  -24.9830   19.0190 H   0  0  0  0  0  0  0  0  0  0  0  0
  -29.9100  -24.9870   17.4450 H   0  0  0  0  0  0  0  0  0  0  0  0
  -30.0200  -26.8280   18.3070 C   0  0  0  0  0  2  0  0  0  0  0  0
  -29.6470  -27.4170   19.6790 C   0  0  0  0  0  2  0  0  0  0  0  0
  -28.4490  -26.7790   20.1300 O   0  0  0  0  0  0  0  0  0  0  0  0
  -24.5620  -31.9210   23.2390 C   0  0  0  0  0  0  0  0  0  0  0  0
  -27.2970  -27.5310   20.1670 C   0  0  0  0  0  0  0  0  0  0  0  0
  -23.3780  -30.4870   21.6040 C   0  0  0  0  0  3  0  0  0  0  0  0
  -24.8610  -28.9610   20.1970 C   0  0  0  0  0  0  0  0  0  0  0  0
  -25.8950  -30.8920   21.4050 C   0  0  0  0  0  2  0  0  0  0  0  0
  -26.0070  -29.5190   20.7780 C   0  0  0  0  0  0  0  0  0  0  0  0
  -27.2280  -28.8090   20.7690 C   0  0  0  0  0  3  0  0  0  0  0  0
  -26.1310  -26.9700   19.6110 C   0  0  0  0  0  3  0  0  0  0  0  0
  -24.9150  -27.6820   19.6130 C   0  0  0  0  0  3  0  0  0  0  0  0
  -23.5980  -29.7910   20.2340 C   0  0  0  0  0  2  0  0  0  0  0  0
  -24.6290  -31.1170   22.1400 N   0  0  0  0  0  0  0  0  0  0  0  0
  -23.4770  -32.1820   23.7780 O   0  0  0  0  0  0  0  0  0  0  0  0
  -22.7370  -29.4690   22.5740 C   0  0  0  0  0  0  0  0  0  0  0  0
  -21.4130  -29.2750   22.4480 N   0  0  0  0  0  0  0  0  0  0  0  0
  -23.4280  -28.8530   23.3890 O   0  0  0  0  0  0  0  0  0  0  0  0
  -20.9180  -29.8240   21.7590 H   0  0  0  0  0  0  0  0  0  0  0  0
  -18.0500  -28.0620   22.9590 C   0  0  0  0  0  0  0  0  0  0  0  0
  -20.6070  -28.3330   23.2230 C   0  0  0  0  0  3  0  0  0  0  0  0
  -20.7150  -26.9020   22.6460 C   0  0  0  0  0  2  0  0  0  0  0  0
  -19.6110  -26.5730   21.6370 C   0  0  0  0  0  2  0  0  0  0  0  0
  -18.2310  -26.7130   22.2860 C   0  0  0  0  0  2  0  0  0  0  0  0
  -19.1650  -28.8300   23.3850 C   0  0  0  0  0  0  0  0  0  0  0  0
  -18.9440  -30.0940   23.9730 C   0  0  0  0  0  3  0  0  0  0  0  0
  -17.6370  -30.5910   24.1420 C   0  0  0  0  0  3  0  0  0  0  0  0
  -16.5350  -29.8190   23.7340 C   0  0  0  0  0  3  0  0  0  0  0  0
  -16.7420  -28.5570   23.1480 C   0  0  0  0  0  3  0  0  0  0  0  0
  -25.8410  -32.5720   23.8590 C   0  0  0  0  0  3  0  0  0  0  0  0
  -25.5180  -33.9680   24.1790 N   0  0  0  0  0  0  0  0  0  0  0  0
  -25.8590  -35.0210   23.4210 C   0  0  0  0  0  0  0  0  0  0  0  0
  -26.5510  -34.9180   22.4030 O   0  0  0  0  0  0  0  0  0  0  0  0
  -24.9120  -34.1230   24.9700 H   0  0  0  0  0  0  0  0  0  0  0  0
  -24.1370  -36.8060   23.0080 C   0  0  0  0  0  1  0  0  0  0  0  0
  -25.3530  -36.4070   23.8620 C   0  0  0  0  0  3  0  0  0  0  0  0
  -27.4590  -37.2940   24.7590 C   0  0  0  0  0  1  0  0  0  0  0  0
  -26.3860  -37.4630   23.7820 N   0  0  0  0  0  0  0  0  0  0  0  0
  -25.9740  -38.3830   23.9180 H   0  0  0  0  0  0  0  0  0  0  0  0
  -26.3700  -31.8120   25.1360 C   0  0  1  0  0  0  0  0  0  0  0  0
  -25.2820  -31.5560   26.2030 C   0  0  0  0  0  1  0  0  0  0  0  0
  -26.9750  -30.4420   24.7470 C   0  0  0  0  0  1  0  0  0  0  0  0
  -27.5040  -32.6280   25.8000 C   0  0  0  0  0  1  0  0  0  0  0  0
  1  2  1  0
  3  6  2  0
  3  4  1  0
  4  1  2  0
  5 13  1  0
  5  2  2  0
  6  5  1  0
  7  6  1  0
  8 10  1  0
  8 12  1  0
  9 11  1  0
  9 12  1  0
 12 23  1  0
 13 10  1  0
 13 11  1  0
 14 23  1  0
 15 20  1  0
 16 17  1  0
 16 15  1  0
 18 17  1  0
 18 27  1  0
 18 19  1  0
 20 14  1  0
 20 19  1  0
 21 14  2  0
 23 22  1  0
 24 25  2  0
 25 44  1  0
 26 25  1  0
 26 29  1  0
 27 28  1  0
 27 24  1  0
 28 26  2  0
 29 30  1  0
 30 31  2  0
 32 35  1  0
 32 31  1  0
 33 32  2  0
 34 33  1  0
 34 29  2  0
 35 36  1  0
 36 37  1  0
 37 38  2  0
 39 38  1  0
 39 43  1  0
 40 39  2  0
 41 36  2  0
 41 40  1  0
 42 41  1  0
 44 45  1  0
 45 48  1  0
 45 47  1  0
 46 44  2  0
 49 24  1  0
 49 50  1  0
 51 49  1  0
 52  4  1  0
 53 52  1  0
 53 54  1  0
 55 53  1  0
 56 53  1  0
 56 57  1  0
 57 58  1  0
 58 60  1  0
 59 70  2  0
 60 65  1  0
 61 69  1  0
 61 71  1  0
 62 68  1  0
 62 64  1  0
 63 69  1  0
 64 63  1  0
 65 64  2  0
 66 67  1  0
 66 60  2  0
 67 62  2  0
 68 61  1  0
 69 59  1  0
 71 73  2  0
 72 71  1  0
 74 72  1  0
 75 84  2  0
 75 80  1  0
 76 72  1  0
 76 80  1  0
 77 76  1  0
 78 79  1  0
 78 77  1  0
 79 75  1  0
 80 81  2  0
 81 82  1  0
 83 82  2  0
 84 83  1  0
 85 59  1  0
 85 86  1  0
 85 95  1  0
 86 89  1  0
 87 91  1  0
 87 86  1  0
 88 87  2  0
 91 90  1  0
 93 91  1  0
 93 94  1  0
 93 92  1  0
 95 98  1  1
 95 96  1  0
 97 95  1  0
M  ISO  4  14 100  23 100  57 101  58 101
M  END
>  <TORSDO>  (83) 
F 21

>  <SCORE>  (83) 
-12.339

>  <name>  (83) 
83

>  <ligand_id>  (83) 
83

>  <original_smiles>  (83) 
[H]c1c([H])c([H])c2c(c1[H])C([H])([H])C([H])([H])C([H])([H])C2([H])N([H])C(=O)C1([H])N(C(=O)C([H])(N([H])C(=O)C([H])(N([H])C([H])([H])[H])C([H])([H])[H])C(C([H])([H])[H])(C([H])([H])[H])C([H])([H])[H])C([H])([H])c2c([H])c(OC([H])([H])C([H])([H])[N+]([H])([H])C([H])([H])c3c([H])c([H])c(N4C([H])([H])C([H])([H])C([H])(N(C(=O)N5C([H])([H])C([H])([H])C([H])([H])C([H])(n6nc(-c7c([H])c([H])c(Oc8c([H])c([H])c(F)c([H])c8F)c([H])c7[H])c(C(=O)N([H])[H])c6N([H])[H])C5([H])[H])C([H])([H])[H])C([H])([H])C4([H])[H])c(F)c3[H])c([H])c([H])c2C1([H])[H]

>  <smiles>  (83) 
[H]c1c([H])c([H])c2c(c1[H])C([H])([H])C([H])([H])C([H])([H])C2([H])N([H])C(=O)C1([H])N(C(=O)C([H])(N([H])C(=O)C([H])(N([H])C([H])([H])[H])C([H])([H])[H])C(C([H])([H])[H])(C([H])([H])[H])C([H])([H])[H])C([H])([H])c2c([H])c(OC([H])([H])C([H])([H])[N+]([H])([H])C([H])([H])c3c([H])c([H])c(N4C([H])([H])C([H])([H])C([H])(N(C(=O)N5C([H])([H])C([H])([H])C([H])([H])C([H])(n6nc(-c7c([H])c([H])c(Oc8c([H])c([H])c(F)c([H])c8F)c([H])c7[H])c(C(=O)N([H])[H])c6N([H])[H])C5([H])[H])C([H])([H])[H])C([H])([H])C4([H])[H])c(F)c3[H])c([H])c([H])c2C1([H])[H]

$$$$
84:0:0
     RDKit          3D

 91 99  0  0  1  0  0  0  0  0999 V2000
  -29.3460  -22.1960   20.7700 N   0  0  0  0  0  0  0  0  0  0  0  0
  -30.9570  -18.5990   20.2890 C   0  0  0  0  0  3  0  0  0  0  0  0
  -30.7860  -20.0500   20.3390 C   0  0  0  0  0  3  0  0  0  0  0  0
  -28.6150  -18.3670   20.3710 C   0  0  0  0  0  3  0  0  0  0  0  0
  -29.8690  -17.6630   20.3290 C   0  0  0  0  0  0  0  0  0  0  0  0
  -29.5230  -20.7510   20.4210 C   0  0  0  0  0  0  0  0  0  0  0  0
  -28.4410  -19.8070   20.4150 C   0  0  0  0  0  0  0  0  0  0  0  0
  -27.1770  -20.2850   20.5220 F   0  0  0  0  0  0  0  0  0  0  0  0
  -30.7400  -15.0380   20.0640 C   0  0  0  0  0  0  0  0  0  0  0  0
  -30.5910  -12.7220   19.0450 C   0  0  0  0  0  2  0  0  0  0  0  0
  -29.5920  -12.7440   17.8630 C   0  0  0  0  0  2  0  0  0  0  0  0
  -28.1460  -12.5360   18.3570 C   0  0  0  0  0  2  0  0  0  0  0  0
  -27.8120  -13.4140   19.5920 C   0  0  0  0  0  3  0  0  0  0  0  0
  -28.9220  -13.3430   20.6630 C   0  0  0  0  0  2  0  0  0  0  0  0
  -30.1730  -13.7680   20.0170 N   0  0  0  0  0  0  0  0  0  0  0  0
  -31.9110  -15.1700   19.6920 O   0  0  0  0  0  0  0  0  0  0  0  0
  -29.8870  -16.1290   20.3550 N   0  0  0  0  0  0  0  0  0  0  0  0
  -28.9890  -15.7570   20.6210 H   0  0  0  0  0  0  0  0  0  0  0  0
  -25.4710  -13.9930   20.4550 C   0  0  0  0  0  0  0  0  0  0  0  0
  -24.4200  -13.2160   20.8580 C   0  0  0  0  0  0  0  0  0  0  0  0
  -24.8720  -11.8630   20.7670 C   0  0  0  0  0  0  0  0  0  0  0  0
  -26.4950  -13.1150   20.1420 N   0  0  0  0  0  0  0  0  0  0  0  0
  -26.1460  -11.8270   20.3930 N   0  0  0  0  0  0  0  0  0  0  0  0
  -24.1450  -10.6010   20.9580 C   0  0  0  0  0  0  0  0  0  0  0  0
  -24.5830   -9.6300   21.8850 C   0  0  0  0  0  3  0  0  0  0  0  0
  -23.8570   -8.4320   22.0640 C   0  0  0  0  0  3  0  0  0  0  0  0
  -22.6790   -8.1980   21.3170 C   0  0  0  0  0  0  0  0  0  0  0  0
  -22.2600   -9.1580   20.3790 C   0  0  0  0  0  3  0  0  0  0  0  0
  -22.9870  -10.3480   20.1970 C   0  0  0  0  0  3  0  0  0  0  0  0
  -21.9230   -7.0540   21.4060 O   0  0  0  0  0  0  0  0  0  0  0  0
  -21.8390   -6.3370   22.5720 C   0  0  0  0  0  0  0  0  0  0  0  0
  -21.3410   -6.9060   23.7650 C   0  0  0  0  0  3  0  0  0  0  0  0
  -21.2080   -6.1130   24.9220 C   0  0  0  0  0  3  0  0  0  0  0  0
  -21.5610   -4.7510   24.8870 C   0  0  0  0  0  0  0  0  0  0  0  0
  -22.0520   -4.1810   23.6990 C   0  0  0  0  0  3  0  0  0  0  0  0
  -22.1870   -4.9710   22.5440 C   0  0  0  0  0  0  0  0  0  0  0  0
  -22.6400   -4.4110   21.3970 F   0  0  0  0  0  0  0  0  0  0  0  0
  -21.4260   -3.9870   25.9960 F   0  0  0  0  0  0  0  0  0  0  0  0
  -23.0400  -13.6940   21.2070 C   0  0  0  0  0  0  0  0  0  0  0  0
  -22.3500  -12.9810   22.0890 N   0  0  0  0  0  0  0  0  0  0  0  0
  -22.5860  -14.7340   20.7330 O   0  0  0  0  0  0  0  0  0  0  0  0
  -22.7310  -12.1390   22.4940 H   0  0  0  0  0  0  0  0  0  0  0  0
  -21.4260  -13.2820   22.3650 H   0  0  0  0  0  0  0  0  0  0  0  0
  -25.6340  -15.3680   20.3020 N   0  0  0  0  0  0  0  0  0  0  0  0
  -24.8630  -16.0110   20.4450 H   0  0  0  0  0  0  0  0  0  0  0  0
  -26.4260  -15.7980   19.8450 H   0  0  0  0  0  0  0  0  0  0  0  0
  -29.8070  -21.8160   23.2040 C   0  0  0  0  0  1  0  0  0  0  0  0
  -30.2150  -22.5260   21.9050 C   0  0  0  0  0  2  0  0  0  0  0  0
  -29.0240  -23.4570   19.9090 C   0  0  0  0  0  2  0  0  0  0  0  0
  -28.2710  -24.8300   20.5450 C   0  0  0  0  0  2  0  0  0  0  0  0
  -28.4410  -26.3170   20.1380 O   0  0  0  0  0  0  0  0  0  0  0  0
  -24.6500  -31.8550   23.1910 C   0  0  0  0  0  0  0  0  0  0  0  0
  -27.3440  -27.2450   20.1370 C   0  0  0  0  0  0  0  0  0  0  0  0
  -23.4860  -30.4550   21.5280 C   0  0  0  0  0  3  0  0  0  0  0  0
  -24.9740  -28.9200   20.1030 C   0  0  0  0  0  0  0  0  0  0  0  0
  -26.0330  -30.7780   21.3800 C   0  0  0  0  0  2  0  0  0  0  0  0
  -26.1400  -29.3940   20.7190 C   0  0  0  0  0  0  0  0  0  0  0  0
  -27.3270  -28.5750   20.7140 C   0  0  0  0  0  3  0  0  0  0  0  0
  -26.1520  -26.8600   19.4890 C   0  0  0  0  0  3  0  0  0  0  0  0
  -24.9900  -27.6650   19.4730 C   0  0  0  0  0  3  0  0  0  0  0  0
  -23.7290  -29.7910   20.1460 C   0  0  0  0  0  2  0  0  0  0  0  0
  -24.7420  -31.0500   22.0880 N   0  0  0  0  0  0  0  0  0  0  0  0
  -23.5550  -32.1120   23.7170 O   0  0  0  0  0  0  0  0  0  0  0  0
  -22.8210  -29.4250   22.4760 C   0  0  0  0  0  0  0  0  0  0  0  0
  -21.5000  -29.2220   22.3310 N   0  0  0  0  0  0  0  0  0  0  0  0
  -23.4970  -28.8100   23.3050 O   0  0  0  0  0  0  0  0  0  0  0  0
  -21.0080  -29.7700   21.6390 H   0  0  0  0  0  0  0  0  0  0  0  0
  -18.1450  -27.9280   22.7680 C   0  0  0  0  0  0  0  0  0  0  0  0
  -20.6910  -28.2600   23.0850 C   0  0  0  0  0  3  0  0  0  0  0  0
  -20.8430  -26.8330   22.5110 C   0  0  0  0  0  2  0  0  0  0  0  0
  -19.7700  -26.4810   21.4750 C   0  0  0  0  0  2  0  0  0  0  0  0
  -18.3730  -26.5860   22.0930 C   0  0  0  0  0  2  0  0  0  0  0  0
  -19.2340  -28.7200   23.2200 C   0  0  0  0  0  0  0  0  0  0  0  0
  -18.9670  -29.9740   23.8110 C   0  0  0  0  0  3  0  0  0  0  0  0
  -17.6450  -30.4370   23.9550 C   0  0  0  0  0  3  0  0  0  0  0  0
  -16.5710  -29.6410   23.5190 C   0  0  0  0  0  3  0  0  0  0  0  0
  -16.8220  -28.3890   22.9310 C   0  0  0  0  0  3  0  0  0  0  0  0
  -25.9130  -32.5050   23.8350 C   0  0  0  0  0  3  0  0  0  0  0  0
  -26.4230  -31.7360   25.1150 C   0  0  1  0  0  0  0  0  0  0  0  0
  -25.3190  -31.4760   26.1670 C   0  0  0  0  0  1  0  0  0  0  0  0
  -27.0330  -30.3690   24.7280 C   0  0  0  0  0  1  0  0  0  0  0  0
  -27.5510  -32.5450   25.7970 C   0  0  0  0  0  1  0  0  0  0  0  0
  -25.5750  -33.8970   24.1730 N   0  0  0  0  0  0  0  0  0  0  0  0
  -25.8980  -34.9630   23.4300 C   0  0  0  0  0  0  0  0  0  0  0  0
  -26.5780  -34.8810   22.4030 O   0  0  0  0  0  0  0  0  0  0  0  0
  -24.9710  -34.0340   24.9710 H   0  0  0  0  0  0  0  0  0  0  0  0
  -24.1510  -36.7410   23.0800 C   0  0  0  0  0  1  0  0  0  0  0  0
  -25.3890  -36.3410   23.9000 C   0  0  0  0  0  3  0  0  0  0  0  0
  -27.4990  -37.2500   24.7680 C   0  0  0  0  0  1  0  0  0  0  0  0
  -26.4090  -37.4090   23.8090 N   0  0  0  0  0  0  0  0  0  0  0  0
  -25.9880  -38.3230   23.9550 H   0  0  0  0  0  0  0  0  0  0  0  0
  1 48  1  0
  2  5  2  0
  2  3  1  0
  3  6  2  0
  4  7  2  0
  5 17  1  0
  5  4  1  0
  6  1  1  0
  7  6  1  0
  7  8  1  0
  9 17  1  0
 10 15  1  0
 11 12  1  0
 11 10  1  0
 13 12  1  0
 13 22  1  0
 13 14  1  0
 15  9  1  0
 15 14  1  0
 16  9  2  0
 17 18  1  0
 19 20  2  0
 20 39  1  0
 21 20  1  0
 21 24  1  0
 22 23  1  0
 22 19  1  0
 23 21  2  0
 24 25  1  0
 25 26  2  0
 27 30  1  0
 27 26  1  0
 28 27  2  0
 29 28  1  0
 29 24  2  0
 30 31  1  0
 31 32  1  0
 32 33  2  0
 34 33  1  0
 34 38  1  0
 35 34  2  0
 36 31  2  0
 36 35  1  0
 37 36  1  0
 39 40  1  0
 40 43  1  0
 40 42  1  0
 41 39  2  0
 44 45  1  0
 44 19  1  0
 46 44  1  0
 48 47  1  0
 49 50  1  0
 49  1  1  0
 51 50  1  0
 52 63  2  0
 53 51  1  0
 53 58  1  0
 54 62  1  0
 54 64  1  0
 55 61  1  0
 55 57  1  0
 56 62  1  0
 57 56  1  0
 58 57  2  0
 59 53  2  0
 60 59  1  0
 60 55  2  0
 61 54  1  0
 62 52  1  0
 64 66  2  0
 65 64  1  0
 67 65  1  0
 68 77  2  0
 68 73  1  0
 69 65  1  0
 69 73  1  0
 70 69  1  0
 71 72  1  0
 71 70  1  0
 72 68  1  0
 73 74  2  0
 74 75  1  0
 76 75  2  0
 77 76  1  0
 78 52  1  0
 78 83  1  0
 78 79  1  0
 79 82  1  1
 79 80  1  0
 81 79  1  0
 83 86  1  0
 84 88  1  0
 84 83  1  0
 85 84  2  0
 88 87  1  0
 90 88  1  0
 90 91  1  0
 90 89  1  0
M  ISO  4   9 100  17 100  50 101  51 101
M  END
>  <TORSDO>  (84) 
F 20

>  <SCORE>  (84) 
-13.763

>  <name>  (84) 
84

>  <ligand_id>  (84) 
84

>  <original_smiles>  (84) 
[H]c1c([H])c([H])c2c(c1[H])C([H])([H])C([H])([H])C([H])([H])C2([H])N([H])C(=O)C1([H])N(C(=O)C([H])(N([H])C(=O)C([H])(N([H])C([H])([H])[H])C([H])([H])[H])C(C([H])([H])[H])(C([H])([H])[H])C([H])([H])[H])C([H])([H])c2c([H])c(OC([H])([H])C([H])([H])N(c3c([H])c([H])c(N([H])C(=O)N4C([H])([H])C([H])([H])C([H])([H])C([H])(n5nc(-c6c([H])c([H])c(Oc7c([H])c([H])c(F)c([H])c7F)c([H])c6[H])c(C(=O)N([H])[H])c5N([H])[H])C4([H])[H])c([H])c3F)C([H])([H])C([H])([H])[H])c([H])c([H])c2C1([H])[H]

>  <smiles>  (84) 
[H]c1c([H])c([H])c2c(c1[H])C([H])([H])C([H])([H])C([H])([H])C2([H])N([H])C(=O)C1([H])N(C(=O)C([H])(N([H])C(=O)C([H])(N([H])C([H])([H])[H])C([H])([H])[H])C(C([H])([H])[H])(C([H])([H])[H])C([H])([H])[H])C([H])([H])c2c([H])c(OC([H])([H])C([H])([H])N(c3c([H])c([H])c(N([H])C(=O)N4C([H])([H])C([H])([H])C([H])([H])C([H])(n5nc(-c6c([H])c([H])c(Oc7c([H])c([H])c(F)c([H])c7F)c([H])c6[H])c(C(=O)N([H])[H])c5N([H])[H])C4([H])[H])c([H])c3F)C([H])([H])C([H])([H])[H])c([H])c([H])c2C1([H])[H]

$$$$
85:0:0
     RDKit          3D

 90 99  0  0  1  0  0  0  0  0999 V2000
  -28.6320  -24.2300   18.5260 C   0  0  0  0  0  2  0  0  0  0  0  0
  -28.7850  -22.6660   18.4560 C   0  0  0  0  0  2  0  0  0  0  0  0
  -28.8600  -23.3570   20.7060 C   0  0  0  0  0  2  0  0  0  0  0  0
  -28.1570  -24.6380   19.9340 C   0  0  0  0  0  3  0  0  0  0  0  0
  -29.0170  -22.1260   19.8000 N   0  0  0  0  0  0  0  0  0  0  0  0
  -29.5470  -19.7070   18.9500 C   0  0  0  0  0  3  0  0  0  0  0  0
  -29.4600  -20.0060   21.2660 C   0  0  0  0  0  3  0  0  0  0  0  0
  -29.8400  -18.2820   19.1150 C   0  0  0  0  0  3  0  0  0  0  0  0
  -29.7360  -18.5870   21.4310 C   0  0  0  0  0  3  0  0  0  0  0  0
  -29.3360  -20.6740   20.0080 C   0  0  0  0  0  0  0  0  0  0  0  0
  -29.9500  -17.6070   20.3800 C   0  0  0  0  0  0  0  0  0  0  0  0
  -30.7440  -14.9970   19.9320 C   0  0  0  0  0  0  0  0  0  0  0  0
  -30.5380  -12.6770   18.8890 C   0  0  0  0  0  2  0  0  0  0  0  0
  -29.5130  -12.6690   17.7290 C   0  0  0  0  0  2  0  0  0  0  0  0
  -28.0880  -12.4260   18.2610 C   0  0  0  0  0  2  0  0  0  0  0  0
  -27.7740  -13.3010   19.5010 C   0  0  0  0  0  3  0  0  0  0  0  0
  -28.9100  -13.2680   20.5420 C   0  0  0  0  0  2  0  0  0  0  0  0
  -30.1410  -13.7300   19.8750 N   0  0  0  0  0  0  0  0  0  0  0  0
  -31.8190  -15.1230   19.3350 O   0  0  0  0  0  0  0  0  0  0  0  0
  -30.2260  -15.8000   22.1140 C   0  0  0  0  0  1  0  0  0  0  0  0
  -30.1840  -16.0920   20.6690 N   0  0  0  0  0  0  0  0  0  0  0  0
  -25.4770  -13.8360   20.4970 C   0  0  0  0  0  0  0  0  0  0  0  0
  -24.4430  -13.0410   20.9100 C   0  0  0  0  0  0  0  0  0  0  0  0
  -24.8880  -11.6940   20.7410 C   0  0  0  0  0  0  0  0  0  0  0  0
  -26.4820  -12.9730   20.0950 N   0  0  0  0  0  0  0  0  0  0  0  0
  -26.1420  -11.6740   20.3050 N   0  0  0  0  0  0  0  0  0  0  0  0
  -24.1670  -10.4250   20.9120 C   0  0  0  0  0  0  0  0  0  0  0  0
  -24.6390   -9.4170   21.7800 C   0  0  0  0  0  3  0  0  0  0  0  0
  -23.9170   -8.2140   21.9410 C   0  0  0  0  0  3  0  0  0  0  0  0
  -22.7070   -8.0120   21.2340 C   0  0  0  0  0  0  0  0  0  0  0  0
  -22.2530   -9.0110   20.3550 C   0  0  0  0  0  3  0  0  0  0  0  0
  -22.9760  -10.2050   20.1920 C   0  0  0  0  0  3  0  0  0  0  0  0
  -21.9520   -6.8670   21.3080 O   0  0  0  0  0  0  0  0  0  0  0  0
  -21.9120   -6.1040   22.4480 C   0  0  0  0  0  0  0  0  0  0  0  0
  -21.4960   -6.6370   23.6860 C   0  0  0  0  0  3  0  0  0  0  0  0
  -21.4010   -5.8010   24.8170 C   0  0  0  0  0  3  0  0  0  0  0  0
  -21.7130   -4.4320   24.7110 C   0  0  0  0  0  0  0  0  0  0  0  0
  -22.1230   -3.8990   23.4770 C   0  0  0  0  0  3  0  0  0  0  0  0
  -22.2190   -4.7320   22.3480 C   0  0  0  0  0  0  0  0  0  0  0  0
  -22.5940   -4.2070   21.1570 F   0  0  0  0  0  0  0  0  0  0  0  0
  -21.6150   -3.6280   25.7950 F   0  0  0  0  0  0  0  0  0  0  0  0
  -23.0850  -13.5060   21.3450 C   0  0  0  0  0  0  0  0  0  0  0  0
  -22.4440  -12.7700   22.2450 N   0  0  0  0  0  0  0  0  0  0  0  0
  -22.6030  -14.5560   20.9220 O   0  0  0  0  0  0  0  0  0  0  0  0
  -22.8490  -11.9190   22.6080 H   0  0  0  0  0  0  0  0  0  0  0  0
  -21.5350  -13.0610   22.5780 H   0  0  0  0  0  0  0  0  0  0  0  0
  -25.6400  -15.2150   20.4080 N   0  0  0  0  0  0  0  0  0  0  0  0
  -24.9010  -15.8630   20.6570 H   0  0  0  0  0  0  0  0  0  0  0  0
  -26.4700  -15.6770   20.0580 H   0  0  0  0  0  0  0  0  0  0  0  0
  -28.3120  -26.1700   20.2250 O   0  0  0  0  0  0  0  0  0  0  0  0
  -24.6540  -31.8310   23.1990 C   0  0  0  0  0  0  0  0  0  0  0  0
  -27.2460  -27.1420   20.1360 C   0  0  0  0  0  0  0  0  0  0  0  0
  -23.4560  -30.4420   21.5510 C   0  0  0  0  0  3  0  0  0  0  0  0
  -24.9080  -28.8810   20.1130 C   0  0  0  0  0  0  0  0  0  0  0  0
  -26.0090  -30.7150   21.3870 C   0  0  0  0  0  2  0  0  0  0  0  0
  -26.0850  -29.3270   20.7280 C   0  0  0  0  0  0  0  0  0  0  0  0
  -27.2510  -28.4720   20.7240 C   0  0  0  0  0  3  0  0  0  0  0  0
  -26.0480  -26.8060   19.4680 C   0  0  0  0  0  3  0  0  0  0  0  0
  -24.9030  -27.6340   19.4670 C   0  0  0  0  0  3  0  0  0  0  0  0
  -23.6790  -29.7730   20.1680 C   0  0  0  0  0  2  0  0  0  0  0  0
  -24.7250  -31.0190   22.1010 N   0  0  0  0  0  0  0  0  0  0  0  0
  -23.5670  -32.1090   23.7300 O   0  0  0  0  0  0  0  0  0  0  0  0
  -22.7800  -29.4270   22.5080 C   0  0  0  0  0  0  0  0  0  0  0  0
  -21.4510  -29.2640   22.3910 N   0  0  0  0  0  0  0  0  0  0  0  0
  -23.4560  -28.7900   23.3210 O   0  0  0  0  0  0  0  0  0  0  0  0
  -20.9620  -29.8310   21.7120 H   0  0  0  0  0  0  0  0  0  0  0  0
  -18.0680  -28.0790   22.9160 C   0  0  0  0  0  0  0  0  0  0  0  0
  -20.6310  -28.3220   23.1590 C   0  0  0  0  0  3  0  0  0  0  0  0
  -20.7170  -26.8960   22.5640 C   0  0  0  0  0  2  0  0  0  0  0  0
  -19.6020  -26.5950   21.5580 C   0  0  0  0  0  2  0  0  0  0  0  0
  -18.2290  -26.7390   22.2190 C   0  0  0  0  0  2  0  0  0  0  0  0
  -19.1960  -28.8290   23.3440 C   0  0  0  0  0  0  0  0  0  0  0  0
  -18.9900  -30.0840   23.9570 C   0  0  0  0  0  3  0  0  0  0  0  0
  -17.6900  -30.5880   24.1480 C   0  0  0  0  0  3  0  0  0  0  0  0
  -16.5770  -29.8360   23.7340 C   0  0  0  0  0  3  0  0  0  0  0  0
  -16.7660  -28.5830   23.1250 C   0  0  0  0  0  3  0  0  0  0  0  0
  -25.9310  -32.4660   23.8300 C   0  0  0  0  0  3  0  0  0  0  0  0
  -25.6220  -33.8660   24.1580 N   0  0  0  0  0  0  0  0  0  0  0  0
  -25.9380  -34.9190   23.3910 C   0  0  0  0  0  0  0  0  0  0  0  0
  -26.5870  -34.8130   22.3480 O   0  0  0  0  0  0  0  0  0  0  0  0
  -25.0440  -34.0220   24.9710 H   0  0  0  0  0  0  0  0  0  0  0  0
  -24.1890  -36.7030   23.0820 C   0  0  0  0  0  1  0  0  0  0  0  0
  -25.4580  -36.3090   23.8560 C   0  0  0  0  0  3  0  0  0  0  0  0
  -27.6130  -37.2140   24.6100 C   0  0  0  0  0  1  0  0  0  0  0  0
  -26.4800  -37.3670   23.7020 N   0  0  0  0  0  0  0  0  0  0  0  0
  -26.0740  -38.2870   23.8550 H   0  0  0  0  0  0  0  0  0  0  0  0
  -26.4350  -31.6990   25.1140 C   0  0  1  0  0  0  0  0  0  0  0  0
  -25.3340  -31.4740   26.1770 C   0  0  0  0  0  1  0  0  0  0  0  0
  -27.0130  -30.3140   24.7380 C   0  0  0  0  0  1  0  0  0  0  0  0
  -27.5860  -32.4900   25.7780 C   0  0  0  0  0  1  0  0  0  0  0  0
  1  4  1  0
  2  1  1  0
  2  5  1  0
  4 50  1  0
  4  3  1  0
  5 10  1  0
  5  3  1  0
  6  8  2  0
  6 10  1  0
  7  9  1  0
  8 11  1  0
 10  7  2  0
 11 21  1  0
 11  9  2  0
 12 21  1  0
 13 18  1  0
 14 15  1  0
 14 13  1  0
 16 15  1  0
 16 25  1  0
 16 17  1  0
 18 12  1  0
 18 17  1  0
 19 12  2  0
 21 20  1  0
 22 23  2  0
 23 42  1  0
 24 23  1  0
 24 27  1  0
 25 26  1  0
 25 22  1  0
 26 24  2  0
 27 28  1  0
 28 29  2  0
 30 33  1  0
 30 29  1  0
 31 30  2  0
 32 31  1  0
 32 27  2  0
 33 34  1  0
 34 35  1  0
 35 36  2  0
 37 36  1  0
 37 41  1  0
 38 37  2  0
 39 34  2  0
 39 38  1  0
 40 39  1  0
 42 43  1  0
 43 46  1  0
 43 45  1  0
 44 42  2  0
 47 22  1  0
 47 48  1  0
 49 47  1  0
 51 62  2  0
 52 50  1  0
 52 57  1  0
 53 61  1  0
 53 63  1  0
 54 60  1  0
 54 56  1  0
 55 61  1  0
 56 55  1  0
 57 56  2  0
 58 52  2  0
 59 58  1  0
 59 54  2  0
 60 53  1  0
 61 51  1  0
 63 65  2  0
 64 63  1  0
 66 64  1  0
 67 76  2  0
 67 72  1  0
 68 64  1  0
 68 72  1  0
 69 68  1  0
 70 71  1  0
 70 69  1  0
 71 67  1  0
 72 73  2  0
 73 74  1  0
 75 74  2  0
 76 75  1  0
 77 51  1  0
 77 78  1  0
 77 87  1  0
 78 81  1  0
 79 83  1  0
 79 78  1  0
 80 79  2  0
 83 82  1  0
 85 86  1  0
 85 83  1  0
 85 84  1  0
 87 90  1  1
 87 88  1  0
 89 87  1  0
M  ISO  4   4 101  12 100  21 100  50 101
M  END
>  <TORSDO>  (85) 
F 17

>  <SCORE>  (85) 
-13.727

>  <name>  (85) 
85

>  <ligand_id>  (85) 
85

>  <original_smiles>  (85) 
[H]c1c([H])c([H])c2c(c1[H])C([H])([H])C([H])([H])C([H])([H])C2([H])N([H])C(=O)C1([H])N(C(=O)C([H])(N([H])C(=O)C([H])(N([H])C([H])([H])[H])C([H])([H])[H])C(C([H])([H])[H])(C([H])([H])[H])C([H])([H])[H])C([H])([H])c2c([H])c(OC3([H])C([H])([H])N(c4c([H])c([H])c(N(C(=O)N5C([H])([H])C([H])([H])C([H])([H])C([H])(n6nc(-c7c([H])c([H])c(Oc8c([H])c([H])c(F)c([H])c8F)c([H])c7[H])c(C(=O)N([H])[H])c6N([H])[H])C5([H])[H])C([H])([H])[H])c([H])c4[H])C([H])([H])C3([H])[H])c([H])c([H])c2C1([H])[H]

>  <smiles>  (85) 
[H]c1c([H])c([H])c2c(c1[H])C([H])([H])C([H])([H])C([H])([H])C2([H])N([H])C(=O)C1([H])N(C(=O)C([H])(N([H])C(=O)C([H])(N([H])C([H])([H])[H])C([H])([H])[H])C(C([H])([H])[H])(C([H])([H])[H])C([H])([H])[H])C([H])([H])c2c([H])c(OC3([H])C([H])([H])N(c4c([H])c([H])c(N(C(=O)N5C([H])([H])C([H])([H])C([H])([H])C([H])(n6nc(-c7c([H])c([H])c(Oc8c([H])c([H])c(F)c([H])c8F)c([H])c7[H])c(C(=O)N([H])[H])c6N([H])[H])C5([H])[H])C([H])([H])[H])c([H])c4[H])C([H])([H])C3([H])[H])c([H])c([H])c2C1([H])[H]

$$$$
86:0:0
     RDKit          3D

 92100  0  0  1  0  0  0  0  0999 V2000
  -28.8700  -21.5660   19.4610 C   0  0  0  0  0  0  0  0  0  0  0  0
  -28.4180  -22.4830   21.7550 C   0  0  0  0  0  1  0  0  0  0  0  0
  -28.8350  -22.6330   20.3380 N   0  0  0  0  0  0  0  0  0  0  0  0
  -28.9000  -21.7940   18.2470 O   0  0  0  0  0  0  0  0  0  0  0  0
  -29.0410  -19.4670   21.1300 C   0  0  0  0  0  3  0  0  0  0  0  0
  -29.3030  -18.0770   21.3180 C   0  0  0  0  0  3  0  0  0  0  0  0
  -29.1450  -19.1350   18.7650 C   0  0  0  0  0  3  0  0  0  0  0  0
  -28.9960  -20.0620   19.8360 C   0  0  0  0  0  0  0  0  0  0  0  0
  -29.5870  -17.1860   20.2390 C   0  0  0  0  0  0  0  0  0  0  0  0
  -29.4850  -17.7620   18.9480 C   0  0  0  0  0  0  0  0  0  0  0  0
  -29.7240  -16.9970   17.8600 F   0  0  0  0  0  0  0  0  0  0  0  0
  -30.5610  -14.7430   19.9720 C   0  0  0  0  0  0  0  0  0  0  0  0
  -30.3760  -12.4770   18.9420 C   0  0  0  0  0  2  0  0  0  0  0  0
  -29.3760  -12.5950   17.7670 C   0  0  0  0  0  2  0  0  0  0  0  0
  -27.9320  -12.3980   18.2760 C   0  0  0  0  0  2  0  0  0  0  0  0
  -27.6190  -13.2610   19.5300 C   0  0  0  0  0  3  0  0  0  0  0  0
  -28.7310  -13.1180   20.5910 C   0  0  0  0  0  2  0  0  0  0  0  0
  -30.0030  -13.4900   19.9520 N   0  0  0  0  0  0  0  0  0  0  0  0
  -31.6960  -14.9390   19.5130 O   0  0  0  0  0  0  0  0  0  0  0  0
  -29.7630  -15.7460   20.4960 N   0  0  0  0  0  0  0  0  0  0  0  0
  -29.0400  -15.3470   21.0800 H   0  0  0  0  0  0  0  0  0  0  0  0
  -25.2730  -13.8580   20.4180 C   0  0  0  0  0  0  0  0  0  0  0  0
  -24.2330  -13.0890   20.8340 C   0  0  0  0  0  0  0  0  0  0  0  0
  -24.6850  -11.7300   20.7520 C   0  0  0  0  0  0  0  0  0  0  0  0
  -26.3010  -12.9830   20.0960 N   0  0  0  0  0  0  0  0  0  0  0  0
  -25.9490  -11.7000   20.3550 N   0  0  0  0  0  0  0  0  0  0  0  0
  -23.9700  -10.4730   20.9660 C   0  0  0  0  0  0  0  0  0  0  0  0
  -24.4290   -9.5100   21.8940 C   0  0  0  0  0  3  0  0  0  0  0  0
  -23.7030   -8.3180   22.1040 C   0  0  0  0  0  3  0  0  0  0  0  0
  -22.5100   -8.0720   21.3820 C   0  0  0  0  0  0  0  0  0  0  0  0
  -22.0700   -9.0240   20.4450 C   0  0  0  0  0  3  0  0  0  0  0  0
  -22.7960  -10.2120   20.2290 C   0  0  0  0  0  3  0  0  0  0  0  0
  -21.7670   -6.9250   21.4890 O   0  0  0  0  0  0  0  0  0  0  0  0
  -21.7200   -6.1980   22.6580 C   0  0  0  0  0  0  0  0  0  0  0  0
  -21.2970   -6.7810   23.8730 C   0  0  0  0  0  3  0  0  0  0  0  0
  -21.1820   -5.9840   25.0320 C   0  0  0  0  0  3  0  0  0  0  0  0
  -21.5020   -4.6110   24.9800 C   0  0  0  0  0  0  0  0  0  0  0  0
  -21.9270   -4.0370   23.7720 C   0  0  0  0  0  3  0  0  0  0  0  0
  -22.0350   -4.8280   22.6160 C   0  0  0  0  0  0  0  0  0  0  0  0
  -22.4180   -4.2620   21.4430 F   0  0  0  0  0  0  0  0  0  0  0  0
  -21.4010   -3.8450   26.0920 F   0  0  0  0  0  0  0  0  0  0  0  0
  -22.8490  -13.5630   21.1850 C   0  0  0  0  0  0  0  0  0  0  0  0
  -22.1660  -12.8640   22.0750 N   0  0  0  0  0  0  0  0  0  0  0  0
  -22.3900  -14.5980   20.6960 O   0  0  0  0  0  0  0  0  0  0  0  0
  -22.5580  -12.0300   22.5020 H   0  0  0  0  0  0  0  0  0  0  0  0
  -21.2440  -13.1680   22.3490 H   0  0  0  0  0  0  0  0  0  0  0  0
  -25.4180  -15.2430   20.2670 N   0  0  0  0  0  0  0  0  0  0  0  0
  -24.6120  -15.8430   20.4090 H   0  0  0  0  0  0  0  0  0  0  0  0
  -26.2160  -15.7400   19.8900 H   0  0  0  0  0  0  0  0  0  0  0  0
  -29.2990  -24.0340   19.9140 C   0  0  0  0  0  2  0  0  0  0  0  0
  -28.2230  -25.1460   19.5680 C   0  0  0  0  0  2  0  0  0  0  0  0
  -28.3420  -26.4900   20.1640 O   0  0  0  0  0  0  0  0  0  0  0  0
  -24.6170  -31.8890   23.2140 C   0  0  0  0  0  0  0  0  0  0  0  0
  -27.2230  -27.3350   20.1480 C   0  0  0  0  0  0  0  0  0  0  0  0
  -23.4220  -30.4760   21.5840 C   0  0  0  0  0  3  0  0  0  0  0  0
  -24.8670  -28.9370   20.1720 C   0  0  0  0  0  0  0  0  0  0  0  0
  -25.9550  -30.8060   21.4070 C   0  0  0  0  0  2  0  0  0  0  0  0
  -26.0380  -29.4320   20.7550 C   0  0  0  0  0  0  0  0  0  0  0  0
  -27.2210  -28.6300   20.7500 C   0  0  0  0  0  3  0  0  0  0  0  0
  -26.0180  -26.9020   19.5420 C   0  0  0  0  0  3  0  0  0  0  0  0
  -24.8490  -27.6710   19.5770 C   0  0  0  0  0  3  0  0  0  0  0  0
  -23.6390  -29.8090   20.2090 C   0  0  0  0  0  2  0  0  0  0  0  0
  -24.6830  -31.0670   22.1300 N   0  0  0  0  0  0  0  0  0  0  0  0
  -23.5330  -32.1640   23.7430 O   0  0  0  0  0  0  0  0  0  0  0  0
  -22.7590  -29.4580   22.5470 C   0  0  0  0  0  0  0  0  0  0  0  0
  -21.4280  -29.3190   22.4590 N   0  0  0  0  0  0  0  0  0  0  0  0
  -23.4440  -28.8090   23.3410 O   0  0  0  0  0  0  0  0  0  0  0  0
  -20.9200  -29.9690   21.8890 H   0  0  0  0  0  0  0  0  0  0  0  0
  -18.0480  -28.1150   22.9190 C   0  0  0  0  0  0  0  0  0  0  0  0
  -20.6080  -28.3620   23.1940 C   0  0  0  0  0  3  0  0  0  0  0  0
  -20.7290  -26.9360   22.5960 C   0  0  0  0  0  2  0  0  0  0  0  0
  -19.6150  -26.6020   21.5900 C   0  0  0  0  0  2  0  0  0  0  0  0
  -18.2380  -26.7600   22.2460 C   0  0  0  0  0  2  0  0  0  0  0  0
  -19.1660  -28.8670   23.3600 C   0  0  0  0  0  0  0  0  0  0  0  0
  -18.9520  -30.1160   23.9840 C   0  0  0  0  0  3  0  0  0  0  0  0
  -17.6500  -30.6260   24.1510 C   0  0  0  0  0  3  0  0  0  0  0  0
  -16.5480  -29.8660   23.7110 C   0  0  0  0  0  3  0  0  0  0  0  0
  -16.7460  -28.6110   23.1010 C   0  0  0  0  0  3  0  0  0  0  0  0
  -25.8970  -32.5230   23.8380 C   0  0  0  0  0  3  0  0  0  0  0  0
  -26.4240  -31.7450   25.1100 C   0  0  1  0  0  0  0  0  0  0  0  0
  -25.3350  -31.4940   26.1790 C   0  0  0  0  0  1  0  0  0  0  0  0
  -27.0110  -30.3700   24.7170 C   0  0  0  0  0  1  0  0  0  0  0  0
  -27.5790  -32.5380   25.7710 C   0  0  0  0  0  1  0  0  0  0  0  0
  -25.5750  -33.9150   24.1770 N   0  0  0  0  0  0  0  0  0  0  0  0
  -25.8960  -34.9700   23.4220 C   0  0  0  0  0  0  0  0  0  0  0  0
  -26.5490  -34.8790   22.3820 O   0  0  0  0  0  0  0  0  0  0  0  0
  -25.0000  -34.0730   24.9920 H   0  0  0  0  0  0  0  0  0  0  0  0
  -24.1530  -36.7490   23.1080 C   0  0  0  0  0  1  0  0  0  0  0  0
  -25.4080  -36.3510   23.8980 C   0  0  0  0  0  3  0  0  0  0  0  0
  -27.5500  -37.2490   24.6920 C   0  0  0  0  0  1  0  0  0  0  0  0
  -26.4290  -37.4110   23.7700 N   0  0  0  0  0  0  0  0  0  0  0  0
  -26.0210  -38.3290   23.9320 H   0  0  0  0  0  0  0  0  0  0  0  0
  1  8  1  0
  1  3  1  0
  3  2  1  0
  4  1  2  0
  5  6  1  0
  7 10  2  0
  7  8  1  0
  8  5  2  0
  9 20  1  0
  9  6  2  0
 10  9  1  0
 11 10  1  0
 12 20  1  0
 13 18  1  0
 14 15  1  0
 14 13  1  0
 16 15  1  0
 16 25  1  0
 16 17  1  0
 18 12  1  0
 18 17  1  0
 19 12  2  0
 20 21  1  0
 22 23  2  0
 23 42  1  0
 24 23  1  0
 24 27  1  0
 25 26  1  0
 25 22  1  0
 26 24  2  0
 27 28  1  0
 28 29  2  0
 30 33  1  0
 30 29  1  0
 31 30  2  0
 32 31  1  0
 32 27  2  0
 33 34  1  0
 34 35  1  0
 35 36  2  0
 37 36  1  0
 37 41  1  0
 38 37  2  0
 39 34  2  0
 39 38  1  0
 40 39  1  0
 42 43  1  0
 43 46  1  0
 43 45  1  0
 44 42  2  0
 47 48  1  0
 47 22  1  0
 49 47  1  0
 50  3  1  0
 51 50  1  0
 51 52  1  0
 53 64  2  0
 54 52  1  0
 54 59  1  0
 55 63  1  0
 55 65  1  0
 56 62  1  0
 56 58  1  0
 57 63  1  0
 58 57  1  0
 59 58  2  0
 60 61  1  0
 60 54  2  0
 61 56  2  0
 62 55  1  0
 63 53  1  0
 65 67  2  0
 66 65  1  0
 68 66  1  0
 69 78  2  0
 69 74  1  0
 70 66  1  0
 70 74  1  0
 71 70  1  0
 72 73  1  0
 72 71  1  0
 73 69  1  0
 74 75  2  0
 75 76  1  0
 77 76  2  0
 78 77  1  0
 79 53  1  0
 79 84  1  0
 79 80  1  0
 80 83  1  1
 80 81  1  0
 82 80  1  0
 84 87  1  0
 85 89  1  0
 85 84  1  0
 86 85  2  0
 89 88  1  0
 91 89  1  0
 91 92  1  0
 91 90  1  0
M  ISO  4  12 100  20 100  51 101  52 101
M  END
>  <TORSDO>  (86) 
F 19

>  <SCORE>  (86) 
-13.467

>  <name>  (86) 
86

>  <ligand_id>  (86) 
86

>  <original_smiles>  (86) 
[H]c1c([H])c([H])c2c(c1[H])C([H])([H])C([H])([H])C([H])([H])C2([H])N([H])C(=O)C1([H])N(C(=O)C([H])(N([H])C(=O)C([H])(N([H])C([H])([H])[H])C([H])([H])[H])C(C([H])([H])[H])(C([H])([H])[H])C([H])([H])[H])C([H])([H])c2c([H])c(OC([H])([H])C([H])([H])N(C(=O)c3c([H])c([H])c(N([H])C(=O)N4C([H])([H])C([H])([H])C([H])([H])C([H])(n5nc(-c6c([H])c([H])c(Oc7c([H])c([H])c(F)c([H])c7F)c([H])c6[H])c(C(=O)N([H])[H])c5N([H])[H])C4([H])[H])c(F)c3[H])C([H])([H])[H])c([H])c([H])c2C1([H])[H]

>  <smiles>  (86) 
[H]c1c([H])c([H])c2c(c1[H])C([H])([H])C([H])([H])C([H])([H])C2([H])N([H])C(=O)C1([H])N(C(=O)C([H])(N([H])C(=O)C([H])(N([H])C([H])([H])[H])C([H])([H])[H])C(C([H])([H])[H])(C([H])([H])[H])C([H])([H])[H])C([H])([H])c2c([H])c(OC([H])([H])C([H])([H])N(C(=O)c3c([H])c([H])c(N([H])C(=O)N4C([H])([H])C([H])([H])C([H])([H])C([H])(n5nc(-c6c([H])c([H])c(Oc7c([H])c([H])c(F)c([H])c7F)c([H])c6[H])c(C(=O)N([H])[H])c5N([H])[H])C4([H])[H])c(F)c3[H])C([H])([H])[H])c([H])c([H])c2C1([H])[H]

$$$$
87:0:0
     RDKit          3D

 93101  0  0  1  0  0  0  0  0999 V2000
  -29.1500  -21.1110   20.8630 C   0  0  0  0  0  0  0  0  0  0  0  0
  -27.7610  -21.8430   18.9350 C   0  0  0  0  0  1  0  0  0  0  0  0
  -28.9830  -21.8840   19.7490 N   0  0  0  0  0  0  0  0  0  0  0  0
  -29.2270  -21.6640   21.9740 O   0  0  0  0  0  0  0  0  0  0  0  0
  -29.4680  -18.8010   21.9320 C   0  0  0  0  0  3  0  0  0  0  0  0
  -29.8120  -17.4280   21.9080 C   0  0  0  0  0  3  0  0  0  0  0  0
  -30.0290  -17.5240   19.5000 C   0  0  0  0  0  3  0  0  0  0  0  0
  -29.3830  -19.5860   20.7440 C   0  0  0  0  0  0  0  0  0  0  0  0
  -30.1060  -16.7650   20.6990 C   0  0  0  0  0  0  0  0  0  0  0  0
  -29.6670  -18.9060   19.5210 C   0  0  0  0  0  0  0  0  0  0  0  0
  -29.6110  -19.5670   18.3380 F   0  0  0  0  0  0  0  0  0  0  0  0
  -30.8570  -14.4980   19.8530 C   0  0  0  0  0  0  0  0  0  0  0  0
  -30.4470  -12.3990   18.6080 C   0  0  0  0  0  2  0  0  0  0  0  0
  -29.3830  -12.6560   17.5230 C   0  0  0  0  0  2  0  0  0  0  0  0
  -27.9530  -12.5180   18.0850 C   0  0  0  0  0  2  0  0  0  0  0  0
  -27.7530  -13.2860   19.4200 C   0  0  0  0  0  3  0  0  0  0  0  0
  -28.9080  -12.9920   20.4000 C   0  0  0  0  0  2  0  0  0  0  0  0
  -30.1850  -13.3180   19.7300 N   0  0  0  0  0  0  0  0  0  0  0  0
  -31.8660  -14.7720   19.1910 O   0  0  0  0  0  0  0  0  0  0  0  0
  -30.3350  -15.3450   20.7620 N   0  0  0  0  0  0  0  0  0  0  0  0
  -29.7620  -14.8630   21.4380 H   0  0  0  0  0  0  0  0  0  0  0  0
  -25.4490  -13.8820   20.3970 C   0  0  0  0  0  0  0  0  0  0  0  0
  -24.4130  -13.1080   20.8370 C   0  0  0  0  0  0  0  0  0  0  0  0
  -24.8480  -11.7520   20.6960 C   0  0  0  0  0  0  0  0  0  0  0  0
  -26.4500  -13.0010   20.0170 N   0  0  0  0  0  0  0  0  0  0  0  0
  -26.0930  -11.7110   20.2490 N   0  0  0  0  0  0  0  0  0  0  0  0
  -24.1280  -10.4890   20.8960 C   0  0  0  0  0  0  0  0  0  0  0  0
  -24.5650   -9.5240   21.8270 C   0  0  0  0  0  3  0  0  0  0  0  0
  -23.8390   -8.3260   22.0120 C   0  0  0  0  0  3  0  0  0  0  0  0
  -22.6660   -8.0850   21.2600 C   0  0  0  0  0  0  0  0  0  0  0  0
  -22.2520   -9.0390   20.3120 C   0  0  0  0  0  3  0  0  0  0  0  0
  -22.9800  -10.2270   20.1270 C   0  0  0  0  0  3  0  0  0  0  0  0
  -21.9140   -6.9380   21.3540 O   0  0  0  0  0  0  0  0  0  0  0  0
  -21.7610   -6.2720   22.5420 C   0  0  0  0  0  0  0  0  0  0  0  0
  -21.1950   -6.8900   23.6800 C   0  0  0  0  0  3  0  0  0  0  0  0
  -20.9910   -6.1450   24.8590 C   0  0  0  0  0  3  0  0  0  0  0  0
  -21.3480   -4.7840   24.9020 C   0  0  0  0  0  0  0  0  0  0  0  0
  -21.9100   -4.1680   23.7700 C   0  0  0  0  0  3  0  0  0  0  0  0
  -22.1100   -4.9070   22.5940 C   0  0  0  0  0  0  0  0  0  0  0  0
  -22.6260   -4.2980   21.4980 F   0  0  0  0  0  0  0  0  0  0  0  0
  -21.1530   -4.0680   26.0340 F   0  0  0  0  0  0  0  0  0  0  0  0
  -23.0610  -13.5830   21.2800 C   0  0  0  0  0  0  0  0  0  0  0  0
  -22.4320  -12.8760   22.2100 N   0  0  0  0  0  0  0  0  0  0  0  0
  -22.5720  -14.6220   20.8340 O   0  0  0  0  0  0  0  0  0  0  0  0
  -22.8470  -12.0380   22.5910 H   0  0  0  0  0  0  0  0  0  0  0  0
  -21.5330  -13.1820   22.5520 H   0  0  0  0  0  0  0  0  0  0  0  0
  -25.6180  -15.2550   20.2620 N   0  0  0  0  0  0  0  0  0  0  0  0
  -24.8530  -15.9030   20.4100 H   0  0  0  0  0  0  0  0  0  0  0  0
  -26.4090  -15.6830   19.7990 H   0  0  0  0  0  0  0  0  0  0  0  0
  -29.9000  -23.0200   19.4470 C   0  0  0  0  0  2  0  0  0  0  0  0
  -29.6600  -24.4490   20.0550 C   0  0  0  0  0  2  0  0  0  0  0  0
  -28.3160  -25.1840   19.7780 C   0  0  0  0  0  2  0  0  0  0  0  0
  -28.4480  -26.6330   19.8790 O   0  0  0  0  0  0  0  0  0  0  0  0
  -24.5970  -31.6930   23.1510 C   0  0  0  0  0  0  0  0  0  0  0  0
  -27.2800  -27.3820   19.8840 C   0  0  0  0  0  0  0  0  0  0  0  0
  -23.4080  -30.3230   21.4780 C   0  0  0  0  0  3  0  0  0  0  0  0
  -24.8780  -28.8850   19.9610 C   0  0  0  0  0  0  0  0  0  0  0  0
  -25.9230  -30.7480   21.2620 C   0  0  0  0  0  2  0  0  0  0  0  0
  -26.0320  -29.4020   20.5630 C   0  0  0  0  0  0  0  0  0  0  0  0
  -27.2430  -28.6630   20.5070 C   0  0  0  0  0  3  0  0  0  0  0  0
  -26.0980  -26.8950   19.2780 C   0  0  0  0  0  3  0  0  0  0  0  0
  -24.9170  -27.6540   19.2880 C   0  0  0  0  0  3  0  0  0  0  0  0
  -23.6100  -29.7060   20.0650 C   0  0  0  0  0  2  0  0  0  0  0  0
  -24.6670  -30.9210   22.0290 N   0  0  0  0  0  0  0  0  0  0  0  0
  -23.5120  -31.9240   23.7030 O   0  0  0  0  0  0  0  0  0  0  0  0
  -22.7840  -29.2540   22.4110 C   0  0  0  0  0  0  0  0  0  0  0  0
  -21.4690  -29.0140   22.2620 N   0  0  0  0  0  0  0  0  0  0  0  0
  -23.4830  -28.6380   23.2180 O   0  0  0  0  0  0  0  0  0  0  0  0
  -20.9560  -29.5690   21.5940 H   0  0  0  0  0  0  0  0  0  0  0  0
  -18.1560  -27.6330   22.6820 C   0  0  0  0  0  0  0  0  0  0  0  0
  -20.6950  -28.0120   22.9980 C   0  0  0  0  0  3  0  0  0  0  0  0
  -20.8820  -26.6000   22.3850 C   0  0  0  0  0  2  0  0  0  0  0  0
  -19.8070  -26.2410   21.3550 C   0  0  0  0  0  2  0  0  0  0  0  0
  -18.4090  -26.3150   21.9710 C   0  0  0  0  0  2  0  0  0  0  0  0
  -19.2270  -28.4400   23.1450 C   0  0  0  0  0  0  0  0  0  0  0  0
  -18.9310  -29.6900   23.7430 C   0  0  0  0  0  3  0  0  0  0  0  0
  -17.5920  -30.1170   23.8910 C   0  0  0  0  0  3  0  0  0  0  0  0
  -16.5390  -29.2990   23.4500 C   0  0  0  0  0  3  0  0  0  0  0  0
  -16.8220  -28.0640   22.8450 C   0  0  0  0  0  3  0  0  0  0  0  0
  -25.8710  -32.3430   23.7750 C   0  0  0  0  0  3  0  0  0  0  0  0
  -26.4020  -31.5520   25.0280 C   0  0  1  0  0  0  0  0  0  0  0  0
  -25.3110  -31.2600   26.0830 C   0  0  0  0  0  1  0  0  0  0  0  0
  -27.0200  -30.2050   24.5980 C   0  0  0  0  0  1  0  0  0  0  0  0
  -27.5340  -32.3550   25.7060 C   0  0  0  0  0  1  0  0  0  0  0  0
  -25.5380  -33.7300   24.1410 N   0  0  0  0  0  0  0  0  0  0  0  0
  -25.8330  -34.8020   23.3960 C   0  0  0  0  0  0  0  0  0  0  0  0
  -26.4830  -34.7240   22.3500 O   0  0  0  0  0  0  0  0  0  0  0  0
  -24.9580  -33.8600   24.9570 H   0  0  0  0  0  0  0  0  0  0  0  0
  -24.0660  -36.5550   23.0920 C   0  0  0  0  0  1  0  0  0  0  0  0
  -25.3290  -36.1740   23.8830 C   0  0  0  0  0  3  0  0  0  0  0  0
  -27.4560  -37.0860   24.6980 C   0  0  0  0  0  1  0  0  0  0  0  0
  -26.3390  -37.2480   23.7670 N   0  0  0  0  0  0  0  0  0  0  0  0
  -25.9240  -38.1600   23.9270 H   0  0  0  0  0  0  0  0  0  0  0  0
  1  4  2  0
  2  3  1  0
  3  1  1  0
  6  5  1  0
  7 10  2  0
  7  9  1  0
  8  1  1  0
  8  5  2  0
  9 20  1  0
  9  6  2  0
 10  8  1  0
 11 10  1  0
 12 20  1  0
 13 18  1  0
 14 15  1  0
 14 13  1  0
 16 15  1  0
 16 25  1  0
 16 17  1  0
 18 12  1  0
 18 17  1  0
 19 12  2  0
 20 21  1  0
 22 23  2  0
 23 42  1  0
 24 23  1  0
 24 27  1  0
 25 26  1  0
 25 22  1  0
 26 24  2  0
 27 28  1  0
 28 29  2  0
 30 33  1  0
 30 29  1  0
 31 30  2  0
 32 31  1  0
 32 27  2  0
 33 34  1  0
 34 39  2  0
 34 35  1  0
 35 36  2  0
 36 37  1  0
 37 41  1  0
 38 37  2  0
 39 38  1  0
 40 39  1  0
 42 43  1  0
 43 46  1  0
 43 45  1  0
 44 42  2  0
 47 22  1  0
 47 48  1  0
 49 47  1  0
 50  3  1  0
 50 51  1  0
 52 53  1  0
 52 51  1  0
 53 55  1  0
 54 65  2  0
 55 60  1  0
 56 64  1  0
 56 66  1  0
 57 63  1  0
 57 59  1  0
 58 64  1  0
 59 58  1  0
 60 59  2  0
 61 62  1  0
 61 55  2  0
 62 57  2  0
 63 56  1  0
 64 54  1  0
 66 68  2  0
 67 66  1  0
 69 67  1  0
 70 79  2  0
 70 75  1  0
 71 67  1  0
 71 75  1  0
 72 71  1  0
 73 74  1  0
 73 72  1  0
 74 70  1  0
 75 76  2  0
 76 77  1  0
 78 77  2  0
 79 78  1  0
 80 54  1  0
 80 85  1  0
 80 81  1  0
 81 84  1  1
 81 82  1  0
 83 81  1  0
 85 88  1  0
 86 90  1  0
 86 85  1  0
 87 86  2  0
 90 89  1  0
 92 90  1  0
 92 93  1  0
 92 91  1  0
M  ISO  4  12 100  20 100  52 101  53 101
M  END
>  <TORSDO>  (87) 
F 20

>  <SCORE>  (87) 
-12.082

>  <name>  (87) 
87

>  <ligand_id>  (87) 
87

>  <original_smiles>  (87) 
[H]c1c([H])c([H])c2c(c1[H])C([H])([H])C([H])([H])C([H])([H])C2([H])N([H])C(=O)C1([H])N(C(=O)C([H])(N([H])C(=O)C([H])(N([H])C([H])([H])[H])C([H])([H])[H])C(C([H])([H])[H])(C([H])([H])[H])C([H])([H])[H])C([H])([H])c2c([H])c(OC([H])([H])C([H])([H])C([H])([H])N(C(=O)c3c([H])c([H])c(N([H])C(=O)N4C([H])([H])C([H])([H])C([H])([H])C([H])(n5nc(-c6c([H])c([H])c(Oc7c([H])c([H])c(F)c([H])c7F)c([H])c6[H])c(C(=O)N([H])[H])c5N([H])[H])C4([H])[H])c([H])c3F)C([H])([H])[H])c([H])c([H])c2C1([H])[H]

>  <smiles>  (87) 
[H]c1c([H])c([H])c2c(c1[H])C([H])([H])C([H])([H])C([H])([H])C2([H])N([H])C(=O)C1([H])N(C(=O)C([H])(N([H])C(=O)C([H])(N([H])C([H])([H])[H])C([H])([H])[H])C(C([H])([H])[H])(C([H])([H])[H])C([H])([H])[H])C([H])([H])c2c([H])c(OC([H])([H])C([H])([H])C([H])([H])N(C(=O)c3c([H])c([H])c(N([H])C(=O)N4C([H])([H])C([H])([H])C([H])([H])C([H])(n5nc(-c6c([H])c([H])c(Oc7c([H])c([H])c(F)c([H])c7F)c([H])c6[H])c(C(=O)N([H])[H])c5N([H])[H])C4([H])[H])c([H])c3F)C([H])([H])[H])c([H])c([H])c2C1([H])[H]

$$$$
88:0:0
     RDKit          3D

 92101  0  0  1  0  0  0  0  0999 V2000
  -30.4860  -23.7450   20.6650 C   0  0  0  0  0  2  0  0  0  0  0  0
  -30.9950  -22.2920   20.4810 C   0  0  0  0  0  2  0  0  0  0  0  0
  -28.6410  -22.3540   20.0910 C   0  0  0  0  0  2  0  0  0  0  0  0
  -29.1670  -23.8320   19.8810 C   0  0  0  0  0  3  0  0  0  0  0  0
  -29.8240  -21.4660   20.1940 N   0  0  0  0  0  0  0  0  0  0  0  0
  -31.1160  -19.3210   20.1820 C   0  0  0  0  0  3  0  0  0  0  0  0
  -31.2040  -17.8960   20.2380 C   0  0  0  0  0  3  0  0  0  0  0  0
  -28.7350  -19.2080   20.4190 C   0  0  0  0  0  3  0  0  0  0  0  0
  -28.8120  -17.7820   20.5110 C   0  0  0  0  0  0  0  0  0  0  0  0
  -29.8820  -20.0260   20.2550 C   0  0  0  0  0  0  0  0  0  0  0  0
  -30.0530  -17.0780   20.3990 C   0  0  0  0  0  0  0  0  0  0  0  0
  -27.5130  -17.0300   20.7710 C   0  0  0  0  0  1  0  0  0  0  0  0
  -30.7770  -14.6300   19.8080 C   0  0  0  0  0  0  0  0  0  0  0  0
  -30.4630  -12.4480   18.6420 C   0  0  0  0  0  2  0  0  0  0  0  0
  -29.3910  -12.6310   17.5430 C   0  0  0  0  0  2  0  0  0  0  0  0
  -27.9710  -12.4430   18.1150 C   0  0  0  0  0  2  0  0  0  0  0  0
  -27.7490  -13.2350   19.4300 C   0  0  0  0  0  3  0  0  0  0  0  0
  -28.9200  -13.0170   20.4150 C   0  0  0  0  0  2  0  0  0  0  0  0
  -30.1630  -13.4060   19.7280 N   0  0  0  0  0  0  0  0  0  0  0  0
  -31.8570  -14.8400   19.2480 O   0  0  0  0  0  0  0  0  0  0  0  0
  -30.0620  -15.6110   20.4480 N   0  0  0  0  0  0  0  0  0  0  0  0
  -29.2720  -15.2240   20.9380 H   0  0  0  0  0  0  0  0  0  0  0  0
  -25.4580  -13.7940   20.4580 C   0  0  0  0  0  0  0  0  0  0  0  0
  -24.4280  -13.0020   20.8850 C   0  0  0  0  0  0  0  0  0  0  0  0
  -24.8590  -11.6540   20.6900 C   0  0  0  0  0  0  0  0  0  0  0  0
  -26.4560  -12.9270   20.0370 N   0  0  0  0  0  0  0  0  0  0  0  0
  -26.1060  -11.6300   20.2320 N   0  0  0  0  0  0  0  0  0  0  0  0
  -24.1360  -10.3860   20.8570 C   0  0  0  0  0  0  0  0  0  0  0  0
  -24.5470   -9.4200   21.8020 C   0  0  0  0  0  3  0  0  0  0  0  0
  -23.8240   -8.2170   21.9570 C   0  0  0  0  0  3  0  0  0  0  0  0
  -22.6770   -7.9710   21.1650 C   0  0  0  0  0  0  0  0  0  0  0  0
  -22.2870   -8.9260   20.2080 C   0  0  0  0  0  3  0  0  0  0  0  0
  -23.0110  -10.1190   20.0530 C   0  0  0  0  0  3  0  0  0  0  0  0
  -21.9300   -6.8200   21.2280 O   0  0  0  0  0  0  0  0  0  0  0  0
  -21.7090   -6.1690   22.4140 C   0  0  0  0  0  0  0  0  0  0  0  0
  -21.0850   -6.8060   23.5100 C   0  0  0  0  0  3  0  0  0  0  0  0
  -20.8140   -6.0800   24.6860 C   0  0  0  0  0  3  0  0  0  0  0  0
  -21.1570   -4.7170   24.7680 C   0  0  0  0  0  0  0  0  0  0  0  0
  -21.7760   -4.0790   23.6790 C   0  0  0  0  0  3  0  0  0  0  0  0
  -22.0470   -4.8030   22.5040 C   0  0  0  0  0  0  0  0  0  0  0  0
  -22.6230   -4.1790   21.4480 F   0  0  0  0  0  0  0  0  0  0  0  0
  -20.8920   -4.0160   25.8950 F   0  0  0  0  0  0  0  0  0  0  0  0
  -23.0790  -13.4660   21.3540 C   0  0  0  0  0  0  0  0  0  0  0  0
  -22.4490  -12.7190   22.2530 N   0  0  0  0  0  0  0  0  0  0  0  0
  -22.5950  -14.5270   20.9600 O   0  0  0  0  0  0  0  0  0  0  0  0
  -22.8550  -11.8600   22.5950 H   0  0  0  0  0  0  0  0  0  0  0  0
  -21.5490  -13.0110   22.6060 H   0  0  0  0  0  0  0  0  0  0  0  0
  -25.6240  -15.1730   20.3730 N   0  0  0  0  0  0  0  0  0  0  0  0
  -24.8910  -15.8230   20.6400 H   0  0  0  0  0  0  0  0  0  0  0  0
  -26.4280  -15.6310   19.9660 H   0  0  0  0  0  0  0  0  0  0  0  0
  -28.2010  -25.0410   20.2740 C   0  0  0  0  0  2  0  0  0  0  0  0
  -28.4180  -26.4060   19.7320 O   0  0  0  0  0  0  0  0  0  0  0  0
  -24.7680  -31.6160   23.1350 C   0  0  0  0  0  0  0  0  0  0  0  0
  -27.3160  -27.2730   19.7570 C   0  0  0  0  0  0  0  0  0  0  0  0
  -23.5370  -30.3450   21.4110 C   0  0  0  0  0  3  0  0  0  0  0  0
  -24.9640  -28.8900   19.8650 C   0  0  0  0  0  0  0  0  0  0  0  0
  -26.0760  -30.6630   21.2230 C   0  0  0  0  0  2  0  0  0  0  0  0
  -26.1410  -29.3330   20.4840 C   0  0  0  0  0  0  0  0  0  0  0  0
  -27.3230  -28.5360   20.4200 C   0  0  0  0  0  3  0  0  0  0  0  0
  -26.1250  -26.8910   19.1010 C   0  0  0  0  0  3  0  0  0  0  0  0
  -24.9580  -27.6750   19.1610 C   0  0  0  0  0  3  0  0  0  0  0  0
  -23.7330  -29.7650   19.9850 C   0  0  0  0  0  2  0  0  0  0  0  0
  -24.8130  -30.8880   21.9810 N   0  0  0  0  0  0  0  0  0  0  0  0
  -23.6930  -31.8640   23.6980 O   0  0  0  0  0  0  0  0  0  0  0  0
  -22.8760  -29.2690   22.3050 C   0  0  0  0  0  0  0  0  0  0  0  0
  -21.5440  -29.1360   22.2020 N   0  0  0  0  0  0  0  0  0  0  0  0
  -23.5600  -28.5620   23.0490 O   0  0  0  0  0  0  0  0  0  0  0  0
  -21.0520  -29.7600   21.5770 H   0  0  0  0  0  0  0  0  0  0  0  0
  -18.1420  -28.0380   22.7600 C   0  0  0  0  0  0  0  0  0  0  0  0
  -20.7200  -28.1600   22.9170 C   0  0  0  0  0  3  0  0  0  0  0  0
  -20.7260  -26.7920   22.1970 C   0  0  0  0  0  2  0  0  0  0  0  0
  -19.5620  -26.6210   21.2160 C   0  0  0  0  0  2  0  0  0  0  0  0
  -18.2220  -26.7580   21.9440 C   0  0  0  0  0  2  0  0  0  0  0  0
  -19.3150  -28.7050   23.2040 C   0  0  0  0  0  0  0  0  0  0  0  0
  -19.1860  -29.9080   23.9300 C   0  0  0  0  0  3  0  0  0  0  0  0
  -17.9150  -30.4430   24.2150 C   0  0  0  0  0  3  0  0  0  0  0  0
  -16.7570  -29.7720   23.7860 C   0  0  0  0  0  3  0  0  0  0  0  0
  -16.8720  -28.5700   23.0650 C   0  0  0  0  0  3  0  0  0  0  0  0
  -26.0640  -32.1930   23.7860 C   0  0  0  0  0  3  0  0  0  0  0  0
  -25.7590  -33.5530   24.2530 N   0  0  0  0  0  0  0  0  0  0  0  0
  -26.0760  -34.6740   23.5900 C   0  0  0  0  0  0  0  0  0  0  0  0
  -26.7270  -34.6690   22.5410 O   0  0  0  0  0  0  0  0  0  0  0  0
  -25.1800  -33.6300   25.0770 H   0  0  0  0  0  0  0  0  0  0  0  0
  -24.3500  -36.4950   23.4320 C   0  0  0  0  0  1  0  0  0  0  0  0
  -25.5980  -36.0110   24.1860 C   0  0  0  0  0  3  0  0  0  0  0  0
  -27.7410  -36.8160   25.0780 C   0  0  0  0  0  1  0  0  0  0  0  0
  -26.6340  -37.0680   24.1590 N   0  0  0  0  0  0  0  0  0  0  0  0
  -26.2300  -37.9730   24.3890 H   0  0  0  0  0  0  0  0  0  0  0  0
  -26.6080  -31.3070   24.9730 C   0  0  1  0  0  0  0  0  0  0  0  0
  -25.5380  -30.9660   26.0370 C   0  0  0  0  0  1  0  0  0  0  0  0
  -27.1850  -29.9750   24.4410 C   0  0  0  0  0  1  0  0  0  0  0  0
  -27.7720  -32.0400   25.6800 C   0  0  0  0  0  1  0  0  0  0  0  0
  2  1  1  0
  3  5  1  0
  4  3  1  0
  4 51  1  0
  4  1  1  0
  5 10  1  0
  5  2  1  0
  6  7  2  0
  6 10  1  0
  7 11  1  0
  8  9  1  0
  9 12  1  0
 10  8  2  0
 11 21  1  0
 11  9  2  0
 13 21  1  0
 14 19  1  0
 15 16  1  0
 15 14  1  0
 17 16  1  0
 17 26  1  0
 17 18  1  0
 19 13  1  0
 19 18  1  0
 20 13  2  0
 21 22  1  0
 23 24  2  0
 24 43  1  0
 25 28  1  0
 25 24  1  0
 26 27  1  0
 26 23  1  0
 27 25  2  0
 28 29  1  0
 29 30  2  0
 31 34  1  0
 31 30  1  0
 32 31  2  0
 33 32  1  0
 33 28  2  0
 34 35  1  0
 35 40  2  0
 35 36  1  0
 36 37  2  0
 37 38  1  0
 38 42  1  0
 39 38  2  0
 40 39  1  0
 41 40  1  0
 43 44  1  0
 44 46  1  0
 44 47  1  0
 45 43  2  0
 48 23  1  0
 48 49  1  0
 50 48  1  0
 52 54  1  0
 52 51  1  0
 53 64  2  0
 54 59  1  0
 55 63  1  0
 55 65  1  0
 56 62  1  0
 56 58  1  0
 57 63  1  0
 58 57  1  0
 59 58  2  0
 60 61  1  0
 60 54  2  0
 61 56  2  0
 62 55  1  0
 63 53  1  0
 65 67  2  0
 66 65  1  0
 68 66  1  0
 69 78  2  0
 69 74  1  0
 70 66  1  0
 70 74  1  0
 71 70  1  0
 72 73  1  0
 72 71  1  0
 73 69  1  0
 74 75  2  0
 75 76  1  0
 77 76  2  0
 78 77  1  0
 79 53  1  0
 79 80  1  0
 79 89  1  0
 80 83  1  0
 81 85  1  0
 81 80  1  0
 82 81  2  0
 85 84  1  0
 87 85  1  0
 87 88  1  0
 87 86  1  0
 89 92  1  1
 89 90  1  0
 91 89  1  0
M  ISO  4  13 100  21 100  51 101  52 101
M  END
>  <TORSDO>  (88) 
F 18

>  <SCORE>  (88) 
-12.967

>  <name>  (88) 
88

>  <ligand_id>  (88) 
88

>  <original_smiles>  (88) 
[H]c1c([H])c([H])c2c(c1[H])C([H])([H])C([H])([H])C([H])([H])C2([H])N([H])C(=O)C1([H])N(C(=O)C([H])(N([H])C(=O)C([H])(N([H])C([H])([H])[H])C([H])([H])[H])C(C([H])([H])[H])(C([H])([H])[H])C([H])([H])[H])C([H])([H])c2c([H])c(OC([H])([H])C3([H])C([H])([H])N(c4c([H])c([H])c(N([H])C(=O)N5C([H])([H])C([H])([H])C([H])([H])C([H])(n6nc(-c7c([H])c([H])c(Oc8c([H])c([H])c(F)c([H])c8F)c([H])c7[H])c(C(=O)N([H])[H])c6N([H])[H])C5([H])[H])c(C([H])([H])[H])c4[H])C([H])([H])C3([H])[H])c([H])c([H])c2C1([H])[H]

>  <smiles>  (88) 
[H]c1c([H])c([H])c2c(c1[H])C([H])([H])C([H])([H])C([H])([H])C2([H])N([H])C(=O)C1([H])N(C(=O)C([H])(N([H])C(=O)C([H])(N([H])C([H])([H])[H])C([H])([H])[H])C(C([H])([H])[H])(C([H])([H])[H])C([H])([H])[H])C([H])([H])c2c([H])c(OC([H])([H])C3([H])C([H])([H])N(c4c([H])c([H])c(N([H])C(=O)N5C([H])([H])C([H])([H])C([H])([H])C([H])(n6nc(-c7c([H])c([H])c(Oc8c([H])c([H])c(F)c([H])c8F)c([H])c7[H])c(C(=O)N([H])[H])c6N([H])[H])C5([H])[H])c(C([H])([H])[H])c4[H])C([H])([H])C3([H])[H])c([H])c([H])c2C1([H])[H]

$$$$
89:0:0
     RDKit          3D

 92100  0  0  1  0  0  0  0  0999 V2000
  -30.5660  -21.6250   20.0750 C   0  0  0  0  0  3  0  0  0  0  0  0
  -30.8200  -20.2440   20.2770 C   0  0  0  0  0  3  0  0  0  0  0  0
  -30.1320  -21.8950   22.4420 C   0  0  0  0  0  3  0  0  0  0  0  0
  -30.2090  -22.4710   21.1570 C   0  0  0  0  0  0  0  0  0  0  0  0
  -30.7230  -19.6720   21.5710 C   0  0  0  0  0  0  0  0  0  0  0  0
  -30.3830  -20.5220   22.6450 C   0  0  0  0  0  0  0  0  0  0  0  0
  -30.2920  -20.0110   23.8980 F   0  0  0  0  0  0  0  0  0  0  0  0
  -29.9340  -23.8520   21.0320 N   0  0  0  0  0  0  0  0  0  0  0  0
  -29.5010  -24.3240   21.8230 H   0  0  0  0  0  0  0  0  0  0  0  0
  -31.1240  -25.3870   19.4960 C   0  0  0  0  0  1  0  0  0  0  0  0
  -29.8560  -24.5620   19.7500 C   0  0  0  0  0  3  0  0  0  0  0  0
  -28.5420  -25.3830   19.6090 C   0  0  0  0  0  2  0  0  0  0  0  0
  -28.5720  -26.7440   20.0890 O   0  0  0  0  0  0  0  0  0  0  0  0
  -24.6350  -31.8280   23.1880 C   0  0  0  0  0  0  0  0  0  0  0  0
  -27.3870  -27.4700   20.0500 C   0  0  0  0  0  0  0  0  0  0  0  0
  -23.4660  -30.4200   21.5280 C   0  0  0  0  0  3  0  0  0  0  0  0
  -24.9580  -28.9460   20.0790 C   0  0  0  0  0  0  0  0  0  0  0  0
  -25.9870  -30.8370   21.3410 C   0  0  0  0  0  2  0  0  0  0  0  0
  -26.1050  -29.4760   20.6800 C   0  0  0  0  0  0  0  0  0  0  0  0
  -27.3200  -28.7460   20.6650 C   0  0  0  0  0  3  0  0  0  0  0  0
  -26.2150  -26.9730   19.4260 C   0  0  0  0  0  3  0  0  0  0  0  0
  -25.0090  -27.6940   19.4490 C   0  0  0  0  0  3  0  0  0  0  0  0
  -23.6930  -29.7710   20.1380 C   0  0  0  0  0  2  0  0  0  0  0  0
  -24.7140  -31.0430   22.0760 N   0  0  0  0  0  0  0  0  0  0  0  0
  -23.5470  -32.0660   23.7290 O   0  0  0  0  0  0  0  0  0  0  0  0
  -22.8400  -29.3670   22.4720 C   0  0  0  0  0  0  0  0  0  0  0  0
  -21.5270  -29.1310   22.3200 N   0  0  0  0  0  0  0  0  0  0  0  0
  -23.5340  -28.7660   23.2970 O   0  0  0  0  0  0  0  0  0  0  0  0
  -21.0260  -29.6710   21.6280 H   0  0  0  0  0  0  0  0  0  0  0  0
  -18.1980  -27.7870   22.7370 C   0  0  0  0  0  0  0  0  0  0  0  0
  -20.7350  -28.1600   23.0740 C   0  0  0  0  0  3  0  0  0  0  0  0
  -20.9140  -26.7330   22.5060 C   0  0  0  0  0  2  0  0  0  0  0  0
  -19.8550  -26.3600   21.4630 C   0  0  0  0  0  2  0  0  0  0  0  0
  -18.4510  -26.4460   22.0690 C   0  0  0  0  0  2  0  0  0  0  0  0
  -19.2700  -28.5990   23.1940 C   0  0  0  0  0  0  0  0  0  0  0  0
  -18.9810  -29.8540   23.7740 C   0  0  0  0  0  3  0  0  0  0  0  0
  -17.6510  -30.2970   23.9030 C   0  0  0  0  0  3  0  0  0  0  0  0
  -16.5940  -29.4820   23.4640 C   0  0  0  0  0  3  0  0  0  0  0  0
  -16.8680  -28.2300   22.8880 C   0  0  0  0  0  3  0  0  0  0  0  0
  -25.9040  -32.4840   23.8160 C   0  0  0  0  0  3  0  0  0  0  0  0
  -25.5640  -33.8720   24.1500 N   0  0  0  0  0  0  0  0  0  0  0  0
  -25.8880  -34.9350   23.4010 C   0  0  0  0  0  0  0  0  0  0  0  0
  -26.5740  -34.8500   22.3790 O   0  0  0  0  0  0  0  0  0  0  0  0
  -24.9510  -34.0110   24.9400 H   0  0  0  0  0  0  0  0  0  0  0  0
  -24.1310  -36.6960   23.0290 C   0  0  0  0  0  1  0  0  0  0  0  0
  -25.3660  -36.3120   23.8580 C   0  0  0  0  0  3  0  0  0  0  0  0
  -27.4700  -37.2310   24.7290 C   0  0  0  0  0  1  0  0  0  0  0  0
  -26.3800  -37.3850   23.7680 N   0  0  0  0  0  0  0  0  0  0  0  0
  -25.9540  -38.2960   23.9150 H   0  0  0  0  0  0  0  0  0  0  0  0
  -26.4310  -31.7150   25.0910 C   0  0  1  0  0  0  0  0  0  0  0  0
  -25.3390  -31.4480   26.1510 C   0  0  0  0  0  1  0  0  0  0  0  0
  -27.0450  -30.3530   24.6930 C   0  0  0  0  0  1  0  0  0  0  0  0
  -27.5620  -32.5310   25.7620 C   0  0  0  0  0  1  0  0  0  0  0  0
  -30.9370  -18.3380   21.8770 O   0  0  0  0  0  0  0  0  0  0  0  0
  -31.3760  -17.4040   20.8840 C   0  0  0  0  0  2  0  0  0  0  0  0
  -31.0740  -15.9800   21.4270 C   0  0  0  0  0  2  0  0  0  0  0  0
  -31.6920  -14.7990   20.6360 C   0  0  0  0  0  0  0  0  0  0  0  0
  -31.3450  -12.6600   19.4330 C   0  0  0  0  0  2  0  0  0  0  0  0
  -30.4520  -12.9100   18.2000 C   0  0  0  0  0  2  0  0  0  0  0  0
  -28.9580  -12.8510   18.5770 C   0  0  0  0  0  2  0  0  0  0  0  0
  -28.6220  -13.7000   19.8310 C   0  0  0  0  0  3  0  0  0  0  0  0
  -29.6230  -13.3990   20.9690 C   0  0  0  0  0  2  0  0  0  0  0  0
  -30.9790  -13.6510   20.4550 N   0  0  0  0  0  0  0  0  0  0  0  0
  -32.8100  -14.9510   20.1340 O   0  0  0  0  0  0  0  0  0  0  0  0
  -26.2430  -14.4480   20.4800 C   0  0  0  0  0  0  0  0  0  0  0  0
  -25.1140  -13.7370   20.7880 C   0  0  0  0  0  0  0  0  0  0  0  0
  -25.4860  -12.3590   20.7260 C   0  0  0  0  0  0  0  0  0  0  0  0
  -27.2370  -13.5060   20.2560 N   0  0  0  0  0  0  0  0  0  0  0  0
  -26.7800  -12.2430   20.4560 N   0  0  0  0  0  0  0  0  0  0  0  0
  -24.6720  -11.1430   20.8510 C   0  0  0  0  0  0  0  0  0  0  0  0
  -24.9950  -10.1320   21.7840 C   0  0  0  0  0  3  0  0  0  0  0  0
  -24.1870   -8.9800   21.8980 C   0  0  0  0  0  3  0  0  0  0  0  0
  -23.0410   -8.8330   21.0800 C   0  0  0  0  0  0  0  0  0  0  0  0
  -22.7370   -9.8330   20.1390 C   0  0  0  0  0  3  0  0  0  0  0  0
  -23.5450  -10.9760   20.0230 C   0  0  0  0  0  3  0  0  0  0  0  0
  -22.2110   -7.7380   21.1040 O   0  0  0  0  0  0  0  0  0  0  0  0
  -21.9950   -7.0240   22.2560 C   0  0  0  0  0  0  0  0  0  0  0  0
  -21.4630   -7.6270   23.4170 C   0  0  0  0  0  3  0  0  0  0  0  0
  -21.1920   -6.8430   24.5560 C   0  0  0  0  0  3  0  0  0  0  0  0
  -21.4410   -5.4570   24.5340 C   0  0  0  0  0  0  0  0  0  0  0  0
  -21.9660   -4.8550   23.3770 C   0  0  0  0  0  3  0  0  0  0  0  0
  -22.2390   -5.6360   22.2410 C   0  0  0  0  0  0  0  0  0  0  0  0
  -22.7250   -5.0460   21.1220 F   0  0  0  0  0  0  0  0  0  0  0  0
  -21.1730   -4.7030   25.6240 F   0  0  0  0  0  0  0  0  0  0  0  0
  -23.7430  -14.2990   21.0360 C   0  0  0  0  0  0  0  0  0  0  0  0
  -22.9490  -13.6320   21.8670 N   0  0  0  0  0  0  0  0  0  0  0  0
  -23.3850  -15.3600   20.5270 O   0  0  0  0  0  0  0  0  0  0  0  0
  -23.2520  -12.7710   22.2980 H   0  0  0  0  0  0  0  0  0  0  0  0
  -22.0260  -13.9860   22.0740 H   0  0  0  0  0  0  0  0  0  0  0  0
  -26.5040  -15.8090   20.3520 N   0  0  0  0  0  0  0  0  0  0  0  0
  -25.7790  -16.5130   20.4510 H   0  0  0  0  0  0  0  0  0  0  0  0
  -27.3960  -16.1990   20.0750 H   0  0  0  0  0  0  0  0  0  0  0  0
  1  2  2  0
  1  4  1  0
  2  5  1  0
  3  6  1  0
  4  3  2  0
  5 54  1  0
  5  6  2  0
  6  7  1  0
  8  4  1  0
  8  9  1  0
 11 10  1  0
 11  8  1  0
 12 11  1  0
 12 13  1  0
 14 25  2  0
 15 13  1  0
 15 20  1  0
 16 24  1  0
 16 26  1  0
 17 23  1  0
 17 19  1  0
 18 24  1  0
 19 18  1  0
 20 19  2  0
 21 22  1  0
 21 15  2  0
 22 17  2  0
 23 16  1  0
 24 14  1  0
 26 28  2  0
 27 26  1  0
 29 27  1  0
 30 39  2  0
 30 35  1  0
 31 27  1  0
 31 35  1  0
 32 31  1  0
 33 34  1  0
 33 32  1  0
 34 30  1  0
 35 36  2  0
 36 37  1  0
 38 37  2  0
 39 38  1  0
 40 14  1  0
 40 41  1  0
 40 50  1  0
 41 44  1  0
 42 46  1  0
 42 41  1  0
 43 42  2  0
 46 45  1  0
 48 46  1  0
 48 49  1  0
 48 47  1  0
 50 53  1  1
 50 51  1  0
 52 50  1  0
 55 56  1  0
 55 54  1  0
 57 56  1  0
 58 63  1  0
 59 60  1  0
 59 58  1  0
 61 60  1  0
 61 68  1  0
 61 62  1  0
 63 57  1  0
 63 62  1  0
 64 57  2  0
 65 66  2  0
 66 85  1  0
 67 66  1  0
 67 70  1  0
 68 69  1  0
 68 65  1  0
 69 67  2  0
 70 71  1  0
 71 72  2  0
 73 76  1  0
 73 72  1  0
 74 73  2  0
 75 74  1  0
 75 70  2  0
 76 77  1  0
 77 78  1  0
 78 79  2  0
 80 79  1  0
 80 84  1  0
 81 80  2  0
 82 77  2  0
 82 81  1  0
 83 82  1  0
 85 86  1  0
 86 89  1  0
 86 88  1  0
 87 85  2  0
 90 91  1  0
 90 65  1  0
 92 90  1  0
M  ISO  4  12 101  13 101  56 100  57 100
M  END
>  <TORSDO>  (89) 
F 22

>  <SCORE>  (89) 
-11.857

>  <name>  (89) 
89

>  <ligand_id>  (89) 
89

>  <original_smiles>  (89) 
[H]c1c([H])c([H])c2c(c1[H])C([H])([H])C([H])([H])C([H])([H])C2([H])N([H])C(=O)C1([H])N(C(=O)C([H])(N([H])C(=O)C([H])(N([H])C([H])([H])[H])C([H])([H])[H])C(C([H])([H])[H])(C([H])([H])[H])C([H])([H])[H])C([H])([H])c2c([H])c(OC([H])([H])C([H])(N([H])c3c([H])c([H])c(OC([H])([H])C([H])([H])C(=O)N4C([H])([H])C([H])([H])C([H])([H])C([H])(n5nc(-c6c([H])c([H])c(Oc7c([H])c([H])c(F)c([H])c7F)c([H])c6[H])c(C(=O)N([H])[H])c5N([H])[H])C4([H])[H])c(F)c3[H])C([H])([H])[H])c([H])c([H])c2C1([H])[H]

>  <smiles>  (89) 
[H]c1c([H])c([H])c2c(c1[H])C([H])([H])C([H])([H])C([H])([H])C2([H])N([H])C(=O)C1([H])N(C(=O)C([H])(N([H])C(=O)C([H])(N([H])C([H])([H])[H])C([H])([H])[H])C(C([H])([H])[H])(C([H])([H])[H])C([H])([H])[H])C([H])([H])c2c([H])c(OC([H])([H])C([H])(N([H])c3c([H])c([H])c(OC([H])([H])C([H])([H])C(=O)N4C([H])([H])C([H])([H])C([H])([H])C([H])(n5nc(-c6c([H])c([H])c(Oc7c([H])c([H])c(F)c([H])c7F)c([H])c6[H])c(C(=O)N([H])[H])c5N([H])[H])C4([H])[H])c(F)c3[H])C([H])([H])[H])c([H])c([H])c2C1([H])[H]

$$$$
90:0:0
     RDKit          3D

 90 98  0  0  1  0  0  0  0  0999 V2000
  -30.2010  -19.7340   18.6450 C   0  0  0  0  0  3  0  0  0  0  0  0
  -30.4840  -18.3100   18.8020 C   0  0  0  0  0  3  0  0  0  0  0  0
  -29.2330  -19.8160   20.7720 C   0  0  0  0  0  3  0  0  0  0  0  0
  -29.4670  -18.3870   20.9350 C   0  0  0  0  0  0  0  0  0  0  0  0
  -29.5750  -20.5830   19.6240 C   0  0  0  0  0  0  0  0  0  0  0  0
  -30.1620  -17.5320   19.9680 C   0  0  0  0  0  0  0  0  0  0  0  0
  -28.8210  -17.8210   22.1940 C   0  0  0  0  0  1  0  0  0  0  0  0
  -30.9950  -14.9750   19.3690 C   0  0  0  0  0  0  0  0  0  0  0  0
  -30.6930  -12.6700   18.3310 C   0  0  0  0  0  2  0  0  0  0  0  0
  -29.5720  -12.6610   17.2610 C   0  0  0  0  0  2  0  0  0  0  0  0
  -28.1920  -12.4490   17.9130 C   0  0  0  0  0  2  0  0  0  0  0  0
  -27.9950  -13.3450   19.1630 C   0  0  0  0  0  3  0  0  0  0  0  0
  -29.2070  -13.2750   20.1130 C   0  0  0  0  0  2  0  0  0  0  0  0
  -30.3870  -13.7170   19.3520 N   0  0  0  0  0  0  0  0  0  0  0  0
  -32.0240  -15.1040   18.6950 O   0  0  0  0  0  0  0  0  0  0  0  0
  -30.9230  -15.7150   21.5840 C   0  0  0  0  0  1  0  0  0  0  0  0
  -30.5150  -16.0320   20.2020 N   0  0  0  0  0  0  0  0  0  0  0  0
  -25.8000  -13.9350   20.3450 C   0  0  0  0  0  0  0  0  0  0  0  0
  -24.7790  -13.1590   20.8270 C   0  0  0  0  0  0  0  0  0  0  0  0
  -25.1740  -11.8050   20.6000 C   0  0  0  0  0  0  0  0  0  0  0  0
  -26.7470  -13.0510   19.8540 N   0  0  0  0  0  0  0  0  0  0  0  0
  -26.3910  -11.7580   20.0750 N   0  0  0  0  0  0  0  0  0  0  0  0
  -24.4350  -10.5500   20.8010 C   0  0  0  0  0  0  0  0  0  0  0  0
  -24.8420   -9.5990   21.7600 C   0  0  0  0  0  3  0  0  0  0  0  0
  -24.1000   -8.4120   21.9510 C   0  0  0  0  0  3  0  0  0  0  0  0
  -22.9370   -8.1700   21.1770 C   0  0  0  0  0  0  0  0  0  0  0  0
  -22.5510   -9.1110   20.2040 C   0  0  0  0  0  3  0  0  0  0  0  0
  -23.2950  -10.2890   20.0140 C   0  0  0  0  0  3  0  0  0  0  0  0
  -22.1680   -7.0350   21.2730 O   0  0  0  0  0  0  0  0  0  0  0  0
  -21.8800   -6.4640   22.4870 C   0  0  0  0  0  0  0  0  0  0  0  0
  -21.2000   -7.1700   23.5040 C   0  0  0  0  0  3  0  0  0  0  0  0
  -20.8660   -6.5200   24.7070 C   0  0  0  0  0  3  0  0  0  0  0  0
  -21.2020   -5.1660   24.8960 C   0  0  0  0  0  0  0  0  0  0  0  0
  -21.8760   -4.4600   23.8820 C   0  0  0  0  0  3  0  0  0  0  0  0
  -22.2110   -5.1080   22.6810 C   0  0  0  0  0  0  0  0  0  0  0  0
  -22.8400   -4.4170   21.7010 F   0  0  0  0  0  0  0  0  0  0  0  0
  -20.8740   -4.5410   26.0490 F   0  0  0  0  0  0  0  0  0  0  0  0
  -23.4690  -13.6480   21.3710 C   0  0  0  0  0  0  0  0  0  0  0  0
  -22.8810  -12.9040   22.3030 N   0  0  0  0  0  0  0  0  0  0  0  0
  -22.9820  -14.7160   21.0060 O   0  0  0  0  0  0  0  0  0  0  0  0
  -23.2940  -12.0360   22.6090 H   0  0  0  0  0  0  0  0  0  0  0  0
  -22.0050  -13.2010   22.7070 H   0  0  0  0  0  0  0  0  0  0  0  0
  -25.9940  -15.3100   20.2600 N   0  0  0  0  0  0  0  0  0  0  0  0
  -25.2810  -15.9730   20.5520 H   0  0  0  0  0  0  0  0  0  0  0  0
  -26.8090  -15.7590   19.8540 H   0  0  0  0  0  0  0  0  0  0  0  0
  -29.1230  -21.9780   19.3740 N   0  0  0  0  0  0  0  0  0  0  0  0
  -28.2240  -21.9770   18.8920 H   0  0  0  0  0  0  0  0  0  0  0  0
  -29.3140  -23.3450   20.0980 C   0  0  0  0  0  3  0  0  0  0  0  0
  -28.4480  -24.7090   19.6130 C   0  0  0  0  0  3  0  0  0  0  0  0
  -28.5370  -26.1740   20.1260 O   0  0  0  0  0  0  0  0  0  0  0  0
  -24.6260  -31.5690   23.1930 C   0  0  0  0  0  0  0  0  0  0  0  0
  -27.4380  -27.1010   20.0350 C   0  0  0  0  0  0  0  0  0  0  0  0
  -23.5040  -30.1810   21.4900 C   0  0  0  0  0  3  0  0  0  0  0  0
  -25.0360  -28.7340   20.0140 C   0  0  0  0  0  0  0  0  0  0  0  0
  -26.0390  -30.5710   21.3610 C   0  0  0  0  0  2  0  0  0  0  0  0
  -26.1800  -29.2090   20.6630 C   0  0  0  0  0  0  0  0  0  0  0  0
  -27.3790  -28.4050   20.6640 C   0  0  0  0  0  3  0  0  0  0  0  0
  -26.2690  -26.7330   19.3290 C   0  0  0  0  0  3  0  0  0  0  0  0
  -25.0940  -27.5120   19.3290 C   0  0  0  0  0  3  0  0  0  0  0  0
  -23.7620  -29.5560   20.0900 C   0  0  0  0  0  2  0  0  0  0  0  0
  -24.7410  -30.7950   22.0710 N   0  0  0  0  0  0  0  0  0  0  0  0
  -23.5260  -31.7870   23.7200 O   0  0  0  0  0  0  0  0  0  0  0  0
  -22.8660  -29.1120   22.4100 C   0  0  0  0  0  0  0  0  0  0  0  0
  -21.5630  -28.8380   22.2210 N   0  0  0  0  0  0  0  0  0  0  0  0
  -23.5520  -28.5370   23.2590 O   0  0  0  0  0  0  0  0  0  0  0  0
  -21.0680  -29.3540   21.5080 H   0  0  0  0  0  0  0  0  0  0  0  0
  -18.2760  -27.3590   22.5520 C   0  0  0  0  0  0  0  0  0  0  0  0
  -20.7870  -27.8270   22.9450 C   0  0  0  0  0  3  0  0  0  0  0  0
  -21.0350  -26.4140   22.3670 C   0  0  0  0  0  2  0  0  0  0  0  0
  -20.0090  -26.0160   21.3000 C   0  0  0  0  0  2  0  0  0  0  0  0
  -18.5970  -26.0330   21.8850 C   0  0  0  0  0  2  0  0  0  0  0  0
  -19.3060  -28.2060   23.0370 C   0  0  0  0  0  0  0  0  0  0  0  0
  -18.9540  -29.4400   23.6240 C   0  0  0  0  0  3  0  0  0  0  0  0
  -17.6070  -29.8310   23.7370 C   0  0  0  0  0  3  0  0  0  0  0  0
  -16.5920  -28.9790   23.2690 C   0  0  0  0  0  3  0  0  0  0  0  0
  -16.9260  -27.7490   22.6770 C   0  0  0  0  0  3  0  0  0  0  0  0
  -25.8700  -32.2370   23.8540 C   0  0  0  0  0  3  0  0  0  0  0  0
  -26.3400  -31.5070   25.1740 C   0  0  1  0  0  0  0  0  0  0  0  0
  -25.2010  -31.2680   26.1930 C   0  0  0  0  0  1  0  0  0  0  0  0
  -26.9670  -30.1320   24.8480 C   0  0  0  0  0  1  0  0  0  0  0  0
  -27.4360  -32.3430   25.8720 C   0  0  0  0  0  1  0  0  0  0  0  0
  -25.5250  -33.6410   24.1420 N   0  0  0  0  0  0  0  0  0  0  0  0
  -25.8490  -34.6820   23.3630 C   0  0  0  0  0  0  0  0  0  0  0  0
  -26.5370  -34.5630   22.3460 O   0  0  0  0  0  0  0  0  0  0  0  0
  -24.8990  -33.8000   24.9180 H   0  0  0  0  0  0  0  0  0  0  0  0
  -24.0850  -36.4310   22.9560 C   0  0  0  0  0  1  0  0  0  0  0  0
  -25.3330  -36.0730   23.7800 C   0  0  0  0  0  3  0  0  0  0  0  0
  -27.4430  -37.0310   24.5900 C   0  0  0  0  0  1  0  0  0  0  0  0
  -26.3450  -37.1430   23.6360 N   0  0  0  0  0  0  0  0  0  0  0  0
  -25.9180  -38.0590   23.7450 H   0  0  0  0  0  0  0  0  0  0  0  0
  1  2  2  0
  1  5  1  0
  2  6  1  0
  3  4  1  0
  4  7  1  0
  5  3  2  0
  6 17  1  0
  6  4  2  0
  8 17  1  0
  9 14  1  0
 10 11  1  0
 10  9  1  0
 12 11  1  0
 12 21  1  0
 12 13  1  0
 14  8  1  0
 14 13  1  0
 15  8  2  0
 17 16  1  0
 18 19  2  0
 19 38  1  0
 20 23  1  0
 20 19  1  0
 21 22  1  0
 21 18  1  0
 22 20  2  0
 23 24  1  0
 24 25  2  0
 26 29  1  0
 26 25  1  0
 27 26  2  0
 28 27  1  0
 28 23  2  0
 29 30  1  0
 30 35  2  0
 30 31  1  0
 31 32  2  0
 32 33  1  0
 33 37  1  0
 34 33  2  0
 35 34  1  0
 36 35  1  0
 38 39  1  0
 39 41  1  0
 39 42  1  0
 40 38  2  0
 43 18  1  0
 43 44  1  0
 45 43  1  0
 46  5  1  0
 46 48  1  0
 47 46  1  0
 49 48  2  0
 49 50  1  0
 51 62  2  0
 52 50  1  0
 52 57  1  0
 53 61  1  0
 53 63  1  0
 54 60  1  0
 54 56  1  0
 55 61  1  0
 56 57  2  0
 56 55  1  0
 58 52  2  0
 59 58  1  0
 59 54  2  0
 60 53  1  0
 61 51  1  0
 63 65  2  0
 64 63  1  0
 66 64  1  0
 67 76  2  0
 67 72  1  0
 68 64  1  0
 68 72  1  0
 69 68  1  0
 70 71  1  0
 70 69  1  0
 71 67  1  0
 72 73  2  0
 73 74  1  0
 75 74  2  0
 76 75  1  0
 77 51  1  0
 77 82  1  0
 77 78  1  0
 78 81  1  1
 78 79  1  0
 80 78  1  0
 82 85  1  0
 83 87  1  0
 83 82  1  0
 84 83  2  0
 87 86  1  0
 89 90  1  0
 89 87  1  0
 89 88  1  0
M  ISO  4   8 100  17 100  49 101  50 101
M  END
>  <TORSDO>  (90) 
F 19

>  <SCORE>  (90) 
-9.503

>  <name>  (90) 
90

>  <ligand_id>  (90) 
90

>  <original_smiles>  (90) 
[H]c1c([H])c([H])c2c(c1[H])C([H])([H])C([H])([H])C([H])([H])C2([H])N([H])C(=O)C1([H])N(C(=O)C([H])(N([H])C(=O)C([H])(N([H])C([H])([H])[H])C([H])([H])[H])C(C([H])([H])[H])(C([H])([H])[H])C([H])([H])[H])C([H])([H])c2c([H])c(OC([H])([H])C([H])([H])N([H])c3c([H])c([H])c(N(C(=O)N4C([H])([H])C([H])([H])C([H])([H])C([H])(n5nc(-c6c([H])c([H])c(Oc7c([H])c([H])c(F)c([H])c7F)c([H])c6[H])c(C(=O)N([H])[H])c5N([H])[H])C4([H])[H])C([H])([H])[H])c(C([H])([H])[H])c3[H])c([H])c([H])c2C1([H])[H]

>  <smiles>  (90) 
[H]c1c([H])c([H])c2c(c1[H])C([H])([H])C([H])([H])C([H])([H])C2([H])N([H])C(=O)C1([H])N(C(=O)C([H])(N([H])C(=O)C([H])(N([H])C([H])([H])[H])C([H])([H])[H])C(C([H])([H])[H])(C([H])([H])[H])C([H])([H])[H])C([H])([H])c2c([H])c(OC([H])([H])C([H])([H])N([H])c3c([H])c([H])c(N(C(=O)N4C([H])([H])C([H])([H])C([H])([H])C([H])(n5nc(-c6c([H])c([H])c(Oc7c([H])c([H])c(F)c([H])c7F)c([H])c6[H])c(C(=O)N([H])[H])c5N([H])[H])C4([H])[H])C([H])([H])[H])c(C([H])([H])[H])c3[H])c([H])c([H])c2C1([H])[H]

$$$$
91:0:0
     RDKit          3D

 90 98  0  0  1  0  0  0  0  0999 V2000
  -31.0930  -17.9190   20.5650 C   0  0  0  0  0  3  0  0  0  0  0  0
  -31.0950  -19.3450   20.5020 C   0  0  0  0  0  3  0  0  0  0  0  0
  -28.7000  -19.3790   20.3330 C   0  0  0  0  0  3  0  0  0  0  0  0
  -29.8810  -17.1820   20.5250 C   0  0  0  0  0  0  0  0  0  0  0  0
  -29.9090  -20.1220   20.3880 C   0  0  0  0  0  0  0  0  0  0  0  0
  -28.6910  -17.9520   20.4070 C   0  0  0  0  0  0  0  0  0  0  0  0
  -27.5060  -17.2970   20.3610 F   0  0  0  0  0  0  0  0  0  0  0  0
  -30.5680  -14.6790   20.3110 C   0  0  0  0  0  0  0  0  0  0  0  0
  -30.3460  -12.4480   19.2340 C   0  0  0  0  0  2  0  0  0  0  0  0
  -29.3930  -12.5890   18.0260 C   0  0  0  0  0  2  0  0  0  0  0  0
  -27.9220  -12.4340   18.4630 C   0  0  0  0  0  2  0  0  0  0  0  0
  -27.5740  -13.2900   19.7100 C   0  0  0  0  0  3  0  0  0  0  0  0
  -28.6390  -13.1200   20.8180 C   0  0  0  0  0  2  0  0  0  0  0  0
  -29.9480  -13.4590   20.2340 N   0  0  0  0  0  0  0  0  0  0  0  0
  -31.7320  -14.8330   19.9340 O   0  0  0  0  0  0  0  0  0  0  0  0
  -29.7540  -15.7290   20.6430 N   0  0  0  0  0  0  0  0  0  0  0  0
  -28.8180  -15.4350   20.8750 H   0  0  0  0  0  0  0  0  0  0  0  0
  -25.1820  -13.8950   20.4320 C   0  0  0  0  0  0  0  0  0  0  0  0
  -24.1150  -13.1250   20.8040 C   0  0  0  0  0  0  0  0  0  0  0  0
  -24.5760  -11.7720   20.7780 C   0  0  0  0  0  0  0  0  0  0  0  0
  -26.2260  -13.0130   20.2010 N   0  0  0  0  0  0  0  0  0  0  0  0
  -25.8660  -11.7310   20.4680 N   0  0  0  0  0  0  0  0  0  0  0  0
  -23.8480  -10.5130   20.9740 C   0  0  0  0  0  0  0  0  0  0  0  0
  -24.2760   -9.5510   21.9150 C   0  0  0  0  0  3  0  0  0  0  0  0
  -23.5480   -8.3540   22.0980 C   0  0  0  0  0  3  0  0  0  0  0  0
  -22.3770   -8.1130   21.3420 C   0  0  0  0  0  0  0  0  0  0  0  0
  -21.9680   -9.0640   20.3910 C   0  0  0  0  0  3  0  0  0  0  0  0
  -22.6970  -10.2510   20.2050 C   0  0  0  0  0  3  0  0  0  0  0  0
  -21.6220   -6.9700   21.4330 O   0  0  0  0  0  0  0  0  0  0  0  0
  -21.5600   -6.2390   22.5930 C   0  0  0  0  0  0  0  0  0  0  0  0
  -21.1070   -6.8040   23.8060 C   0  0  0  0  0  3  0  0  0  0  0  0
  -20.9940   -6.0000   24.9580 C   0  0  0  0  0  3  0  0  0  0  0  0
  -21.3220   -4.6320   24.8980 C   0  0  0  0  0  0  0  0  0  0  0  0
  -21.7670   -4.0660   23.6900 C   0  0  0  0  0  3  0  0  0  0  0  0
  -21.8820   -4.8680   22.5400 C   0  0  0  0  0  0  0  0  0  0  0  0
  -22.2920   -4.3140   21.3730 F   0  0  0  0  0  0  0  0  0  0  0  0
  -21.2050   -3.8570   26.0010 F   0  0  0  0  0  0  0  0  0  0  0  0
  -22.7190  -13.6050   21.0780 C   0  0  0  0  0  0  0  0  0  0  0  0
  -21.9920  -12.9140   21.9490 N   0  0  0  0  0  0  0  0  0  0  0  0
  -22.2810  -14.6300   20.5560 O   0  0  0  0  0  0  0  0  0  0  0  0
  -22.3580  -12.0850   22.3930 H   0  0  0  0  0  0  0  0  0  0  0  0
  -21.0560  -13.2180   22.1750 H   0  0  0  0  0  0  0  0  0  0  0  0
  -25.3430  -15.2660   20.2560 N   0  0  0  0  0  0  0  0  0  0  0  0
  -24.5770  -15.9130   20.3970 H   0  0  0  0  0  0  0  0  0  0  0  0
  -26.2090  -15.7380   20.0180 H   0  0  0  0  0  0  0  0  0  0  0  0
  -30.0250  -21.5300   20.3580 O   0  0  0  0  0  0  0  0  0  0  0  0
  -28.8960  -22.4420   20.1650 C   0  0  0  0  0  2  0  0  0  0  0  0
  -29.2560  -23.9960   20.2800 C   0  0  0  0  0  3  0  0  0  0  0  0
  -28.1150  -25.0540   19.9510 C   0  0  0  0  0  3  0  0  0  0  0  0
  -28.3390  -26.5060   20.1590 O   0  0  0  0  0  0  0  0  0  0  0  0
  -24.6140  -31.8650   23.2520 C   0  0  0  0  0  0  0  0  0  0  0  0
  -27.2190  -27.3560   20.1210 C   0  0  0  0  0  0  0  0  0  0  0  0
  -23.4060  -30.4950   21.5920 C   0  0  0  0  0  3  0  0  0  0  0  0
  -24.8530  -28.9680   20.1410 C   0  0  0  0  0  0  0  0  0  0  0  0
  -25.9460  -30.8150   21.4110 C   0  0  0  0  0  2  0  0  0  0  0  0
  -26.0230  -29.4470   20.7430 C   0  0  0  0  0  0  0  0  0  0  0  0
  -27.2090  -28.6530   20.7210 C   0  0  0  0  0  3  0  0  0  0  0  0
  -26.0200  -26.9330   19.4980 C   0  0  0  0  0  3  0  0  0  0  0  0
  -24.8540  -27.7170   19.5100 C   0  0  0  0  0  3  0  0  0  0  0  0
  -23.6170  -29.8420   20.2020 C   0  0  0  0  0  2  0  0  0  0  0  0
  -24.6750  -31.0740   22.1420 N   0  0  0  0  0  0  0  0  0  0  0  0
  -23.5310  -32.1370   23.7920 O   0  0  0  0  0  0  0  0  0  0  0  0
  -22.7430  -29.4640   22.5360 C   0  0  0  0  0  0  0  0  0  0  0  0
  -21.4170  -29.2900   22.4050 N   0  0  0  0  0  0  0  0  0  0  0  0
  -23.4200  -28.8240   23.3450 O   0  0  0  0  0  0  0  0  0  0  0  0
  -20.9300  -29.8560   21.7250 H   0  0  0  0  0  0  0  0  0  0  0  0
  -18.0360  -28.0990   22.8910 C   0  0  0  0  0  0  0  0  0  0  0  0
  -20.5950  -28.3430   23.1610 C   0  0  0  0  0  3  0  0  0  0  0  0
  -20.6890  -26.9200   22.5620 C   0  0  0  0  0  2  0  0  0  0  0  0
  -19.5850  -26.6200   21.5440 C   0  0  0  0  0  2  0  0  0  0  0  0
  -18.2040  -26.7600   22.1930 C   0  0  0  0  0  2  0  0  0  0  0  0
  -19.1580  -28.8490   23.3310 C   0  0  0  0  0  0  0  0  0  0  0  0
  -18.9450  -30.1030   23.9450 C   0  0  0  0  0  3  0  0  0  0  0  0
  -17.6430  -30.6080   24.1200 C   0  0  0  0  0  3  0  0  0  0  0  0
  -16.5350  -29.8550   23.6960 C   0  0  0  0  0  3  0  0  0  0  0  0
  -16.7310  -28.6020   23.0870 C   0  0  0  0  0  3  0  0  0  0  0  0
  -25.8970  -32.4860   23.8840 C   0  0  0  0  0  3  0  0  0  0  0  0
  -26.4020  -31.7040   25.1580 C   0  0  1  0  0  0  0  0  0  0  0  0
  -25.3030  -31.4670   26.2190 C   0  0  0  0  0  1  0  0  0  0  0  0
  -26.9780  -30.3240   24.7620 C   0  0  0  0  0  1  0  0  0  0  0  0
  -27.5540  -32.4870   25.8300 C   0  0  0  0  0  1  0  0  0  0  0  0
  -25.5960  -33.8840   24.2200 N   0  0  0  0  0  0  0  0  0  0  0  0
  -25.9130  -34.9370   23.4560 C   0  0  0  0  0  0  0  0  0  0  0  0
  -26.5620  -34.8340   22.4100 O   0  0  0  0  0  0  0  0  0  0  0  0
  -25.0160  -34.0380   25.0330 H   0  0  0  0  0  0  0  0  0  0  0  0
  -24.1680  -36.7240   23.1540 C   0  0  0  0  0  1  0  0  0  0  0  0
  -25.4370  -36.3260   23.9240 C   0  0  0  0  0  3  0  0  0  0  0  0
  -27.5930  -37.2240   24.6820 C   0  0  0  0  0  1  0  0  0  0  0  0
  -26.4620  -37.3820   23.7720 N   0  0  0  0  0  0  0  0  0  0  0  0
  -26.0580  -38.3010   23.9250 H   0  0  0  0  0  0  0  0  0  0  0  0
  2  1  2  0
  3  5  2  0
  3  6  1  0
  4  1  1  0
  4 16  1  0
  5  2  1  0
  6  4  2  0
  7  6  1  0
  8 16  1  0
  9 14  1  0
 10 11  1  0
 10  9  1  0
 12 11  1  0
 12 21  1  0
 12 13  1  0
 14  8  1  0
 14 13  1  0
 15  8  2  0
 16 17  1  0
 18 19  2  0
 19 38  1  0
 20 19  1  0
 20 23  1  0
 21 18  1  0
 21 22  1  0
 22 20  2  0
 23 24  1  0
 24 25  2  0
 26 29  1  0
 26 25  1  0
 27 26  2  0
 28 27  1  0
 28 23  2  0
 29 30  1  0
 30 31  1  0
 31 32  2  0
 33 32  1  0
 33 37  1  0
 34 33  2  0
 35 30  2  0
 35 34  1  0
 36 35  1  0
 38 39  1  0
 39 42  1  0
 39 41  1  0
 40 38  2  0
 43 44  1  0
 43 18  1  0
 45 43  1  0
 46  5  1  0
 47 48  1  0
 47 46  1  0
 49 50  1  0
 49 48  2  0
 51 62  2  0
 52 50  1  0
 52 57  1  0
 53 61  1  0
 53 63  1  0
 54 60  1  0
 54 56  1  0
 55 61  1  0
 56 55  1  0
 57 56  2  0
 58 59  1  0
 58 52  2  0
 59 54  2  0
 60 53  1  0
 61 51  1  0
 63 65  2  0
 64 63  1  0
 66 64  1  0
 67 76  2  0
 67 72  1  0
 68 64  1  0
 68 72  1  0
 69 68  1  0
 70 71  1  0
 70 69  1  0
 71 67  1  0
 72 73  2  0
 73 74  1  0
 75 74  2  0
 76 75  1  0
 77 51  1  0
 77 82  1  0
 77 78  1  0
 78 81  1  1
 78 79  1  0
 80 78  1  0
 82 85  1  0
 83 87  1  0
 83 82  1  0
 84 83  2  0
 87 86  1  0
 89 87  1  0
 89 90  1  0
 89 88  1  0
M  ISO  4   8 100  16 100  49 101  50 101
M  END
>  <TORSDO>  (91) 
F 20

>  <SCORE>  (91) 
-14.070

>  <name>  (91) 
91

>  <ligand_id>  (91) 
91

>  <original_smiles>  (91) 
[H]c1c([H])c([H])c2c(c1[H])C([H])([H])C([H])([H])C([H])([H])C2([H])N([H])C(=O)C1([H])N(C(=O)C([H])(N([H])C(=O)C([H])(N([H])C([H])([H])[H])C([H])([H])[H])C(C([H])([H])[H])(C([H])([H])[H])C([H])([H])[H])C([H])([H])c2c([H])c(OC([H])([H])C([H])([H])C([H])([H])Oc3c([H])c([H])c(N([H])C(=O)N4C([H])([H])C([H])([H])C([H])([H])C([H])(n5nc(-c6c([H])c([H])c(Oc7c([H])c([H])c(F)c([H])c7F)c([H])c6[H])c(C(=O)N([H])[H])c5N([H])[H])C4([H])[H])c(F)c3[H])c([H])c([H])c2C1([H])[H]

>  <smiles>  (91) 
[H]c1c([H])c([H])c2c(c1[H])C([H])([H])C([H])([H])C([H])([H])C2([H])N([H])C(=O)C1([H])N(C(=O)C([H])(N([H])C(=O)C([H])(N([H])C([H])([H])[H])C([H])([H])[H])C(C([H])([H])[H])(C([H])([H])[H])C([H])([H])[H])C([H])([H])c2c([H])c(OC([H])([H])C([H])([H])C([H])([H])Oc3c([H])c([H])c(N([H])C(=O)N4C([H])([H])C([H])([H])C([H])([H])C([H])(n5nc(-c6c([H])c([H])c(Oc7c([H])c([H])c(F)c([H])c7F)c([H])c6[H])c(C(=O)N([H])[H])c5N([H])[H])C4([H])[H])c(F)c3[H])c([H])c([H])c2C1([H])[H]

$$$$
92:0:0
     RDKit          3D

 96105  0  0  1  0  0  0  0  0999 V2000
  -24.8960  -20.5300   18.4430 C   0  0  0  0  0  2  0  0  0  0  0  0
  -25.4530  -21.3180   19.6300 C   0  0  0  0  0  2  0  0  0  0  0  0
  -25.8180  -19.3140   18.3670 C   0  0  0  0  0  2  0  0  0  0  0  0
  -26.9690  -21.0720   19.5640 C   0  0  0  0  0  3  0  0  0  0  0  0
  -27.0910  -19.7510   18.9360 N   0  0  0  0  0  0  0  0  0  0  0  0
  -28.3450  -17.7180   18.5360 C   0  0  0  0  0  3  0  0  0  0  0  0
  -28.3700  -18.6720   20.7680 C   0  0  0  0  0  3  0  0  0  0  0  0
  -29.1840  -16.6750   18.9680 C   0  0  0  0  0  3  0  0  0  0  0  0
  -29.2040  -17.6260   21.2060 C   0  0  0  0  0  3  0  0  0  0  0  0
  -27.9360  -18.7360   19.4230 C   0  0  0  0  0  0  0  0  0  0  0  0
  -29.6220  -16.6180   20.3130 C   0  0  0  0  0  0  0  0  0  0  0  0
  -31.0370  -14.6340   20.0620 C   0  0  0  0  0  0  0  0  0  0  0  0
  -30.6080  -12.5000   18.9040 C   0  0  0  0  0  2  0  0  0  0  0  0
  -29.5910  -12.6820   17.7610 C   0  0  0  0  0  2  0  0  0  0  0  0
  -28.1500  -12.5450   18.2890 C   0  0  0  0  0  2  0  0  0  0  0  0
  -27.8900  -13.4130   19.5480 C   0  0  0  0  0  3  0  0  0  0  0  0
  -29.0110  -13.2230   20.5920 C   0  0  0  0  0  2  0  0  0  0  0  0
  -30.3000  -13.5000   19.9330 N   0  0  0  0  0  0  0  0  0  0  0  0
  -32.1100  -14.8180   19.4840 O   0  0  0  0  0  0  0  0  0  0  0  0
  -30.5000  -15.6120   20.8040 N   0  0  0  0  0  0  0  0  0  0  0  0
  -31.1350  -15.9610   21.5070 H   0  0  0  0  0  0  0  0  0  0  0  0
  -25.5920  -14.0650   20.5030 C   0  0  0  0  0  0  0  0  0  0  0  0
  -24.5180  -13.3110   20.8890 C   0  0  0  0  0  0  0  0  0  0  0  0
  -24.9070  -11.9490   20.7070 C   0  0  0  0  0  0  0  0  0  0  0  0
  -26.5700  -13.1610   20.1140 N   0  0  0  0  0  0  0  0  0  0  0  0
  -26.1650  -11.8780   20.2920 N   0  0  0  0  0  0  0  0  0  0  0  0
  -24.1370  -10.7060   20.8470 C   0  0  0  0  0  0  0  0  0  0  0  0
  -24.5150   -9.7040   21.7670 C   0  0  0  0  0  3  0  0  0  0  0  0
  -23.7480   -8.5260   21.8960 C   0  0  0  0  0  3  0  0  0  0  0  0
  -22.5910   -8.3420   21.1030 C   0  0  0  0  0  0  0  0  0  0  0  0
  -22.2320   -9.3330   20.1720 C   0  0  0  0  0  3  0  0  0  0  0  0
  -22.9980  -10.5040   20.0420 C   0  0  0  0  0  3  0  0  0  0  0  0
  -21.8000   -7.2190   21.1420 O   0  0  0  0  0  0  0  0  0  0  0  0
  -21.5980   -6.5220   22.3050 C   0  0  0  0  0  0  0  0  0  0  0  0
  -21.0270   -7.1260   23.4470 C   0  0  0  0  0  3  0  0  0  0  0  0
  -20.7720   -6.3550   24.5990 C   0  0  0  0  0  3  0  0  0  0  0  0
  -21.0790   -4.9810   24.6090 C   0  0  0  0  0  0  0  0  0  0  0  0
  -21.6420   -4.3760   23.4710 C   0  0  0  0  0  3  0  0  0  0  0  0
  -21.8980   -5.1440   22.3210 C   0  0  0  0  0  0  0  0  0  0  0  0
  -22.4220   -4.5530   21.2210 F   0  0  0  0  0  0  0  0  0  0  0  0
  -20.8270   -4.2380   25.7110 F   0  0  0  0  0  0  0  0  0  0  0  0
  -23.1720  -13.8220   21.3150 C   0  0  0  0  0  0  0  0  0  0  0  0
  -22.4930  -13.0970   22.1990 N   0  0  0  0  0  0  0  0  0  0  0  0
  -22.7340  -14.8940   20.9020 O   0  0  0  0  0  0  0  0  0  0  0  0
  -22.8620  -12.2280   22.5540 H   0  0  0  0  0  0  0  0  0  0  0  0
  -21.5930  -13.4190   22.5260 H   0  0  0  0  0  0  0  0  0  0  0  0
  -25.8140  -15.4370   20.4320 N   0  0  0  0  0  0  0  0  0  0  0  0
  -25.1040  -16.1150   20.6850 H   0  0  0  0  0  0  0  0  0  0  0  0
  -26.6850  -15.8600   20.1340 H   0  0  0  0  0  0  0  0  0  0  0  0
  -27.6840  -22.2100   18.8020 C   0  0  0  0  0  0  0  0  0  0  0  0
  -27.9370  -23.3210   19.4990 N   0  0  0  0  0  0  0  0  0  0  0  0
  -27.9690  -22.1010   17.6060 O   0  0  0  0  0  0  0  0  0  0  0  0
  -27.6800  -23.3210   20.4760 H   0  0  0  0  0  0  0  0  0  0  0  0
  -28.4760  -24.5650   18.9540 C   0  0  0  0  0  2  0  0  0  0  0  0
  -28.4580  -25.6630   20.0330 C   0  0  0  0  0  2  0  0  0  0  0  0
  -28.4740  -26.9830   19.4830 O   0  0  0  0  0  0  0  0  0  0  0  0
  -24.5540  -31.7730   22.9690 C   0  0  0  0  0  0  0  0  0  0  0  0
  -27.2750  -27.6530   19.5480 C   0  0  0  0  0  0  0  0  0  0  0  0
  -23.3570  -30.4360   21.2660 C   0  0  0  0  0  3  0  0  0  0  0  0
  -24.8270  -29.0490   19.7150 C   0  0  0  0  0  0  0  0  0  0  0  0
  -25.8600  -30.9060   21.0340 C   0  0  0  0  0  2  0  0  0  0  0  0
  -25.9780  -29.5850   20.3030 C   0  0  0  0  0  0  0  0  0  0  0  0
  -27.2080  -28.8960   20.2120 C   0  0  0  0  0  3  0  0  0  0  0  0
  -26.1030  -27.1220   18.9640 C   0  0  0  0  0  3  0  0  0  0  0  0
  -24.8820  -27.8160   19.0440 C   0  0  0  0  0  3  0  0  0  0  0  0
  -23.5550  -29.8550   19.8410 C   0  0  0  0  0  2  0  0  0  0  0  0
  -24.6090  -31.0490   21.8160 N   0  0  0  0  0  0  0  0  0  0  0  0
  -23.4770  -31.9700   23.5500 O   0  0  0  0  0  0  0  0  0  0  0  0
  -22.7660  -29.3320   22.1710 C   0  0  0  0  0  0  0  0  0  0  0  0
  -21.4380  -29.1490   22.1000 N   0  0  0  0  0  0  0  0  0  0  0  0
  -23.4960  -28.6480   22.8930 O   0  0  0  0  0  0  0  0  0  0  0  0
  -20.9100  -29.7550   21.4880 H   0  0  0  0  0  0  0  0  0  0  0  0
  -18.0950  -27.9200   22.7080 C   0  0  0  0  0  0  0  0  0  0  0  0
  -20.6680  -28.1440   22.8310 C   0  0  0  0  0  3  0  0  0  0  0  0
  -20.7200  -26.7740   22.1160 C   0  0  0  0  0  2  0  0  0  0  0  0
  -19.5480  -26.5510   21.1530 C   0  0  0  0  0  2  0  0  0  0  0  0
  -18.2150  -26.6390   21.9000 C   0  0  0  0  0  2  0  0  0  0  0  0
  -19.2470  -28.6350   23.1320 C   0  0  0  0  0  0  0  0  0  0  0  0
  -19.0810  -29.8380   23.8510 C   0  0  0  0  0  3  0  0  0  0  0  0
  -17.7940  -30.3270   24.1490 C   0  0  0  0  0  3  0  0  0  0  0  0
  -16.6580  -29.6070   23.7410 C   0  0  0  0  0  3  0  0  0  0  0  0
  -16.8100  -28.4060   23.0250 C   0  0  0  0  0  3  0  0  0  0  0  0
  -25.8320  -32.4070   23.6010 C   0  0  0  0  0  3  0  0  0  0  0  0
  -26.4210  -31.5610   24.7960 C   0  0  1  0  0  0  0  0  0  0  0  0
  -25.3780  -31.2080   25.8810 C   0  0  0  0  0  1  0  0  0  0  0  0
  -27.0310  -30.2370   24.2780 C   0  0  0  0  0  1  0  0  0  0  0  0
  -27.5720  -32.3420   25.4740 C   0  0  0  0  0  1  0  0  0  0  0  0
  -25.4810  -33.7620   24.0450 N   0  0  0  0  0  0  0  0  0  0  0  0
  -25.7590  -34.8810   23.3640 C   0  0  0  0  0  0  0  0  0  0  0  0
  -26.4120  -34.8830   22.3160 O   0  0  0  0  0  0  0  0  0  0  0  0
  -24.8990  -33.8320   24.8660 H   0  0  0  0  0  0  0  0  0  0  0  0
  -23.9610  -36.6280   23.1750 C   0  0  0  0  0  1  0  0  0  0  0  0
  -25.2300  -36.2100   23.9350 C   0  0  0  0  0  3  0  0  0  0  0  0
  -27.3420  -37.1090   24.8050 C   0  0  0  0  0  1  0  0  0  0  0  0
  -26.2210  -37.3060   23.8900 N   0  0  0  0  0  0  0  0  0  0  0  0
  -25.7850  -38.1970   24.1110 H   0  0  0  0  0  0  0  0  0  0  0  0
  1  2  1  0
  3  1  1  0
  3  5  1  0
  4 50  1  0
  4  2  1  0
  5 10  1  0
  5  4  1  0
  6  8  2  0
  6 10  1  0
  7  9  1  0
  8 11  1  0
 10  7  2  0
 11 20  1  0
 11  9  2  0
 12 20  1  0
 13 18  1  0
 14 15  1  0
 14 13  1  0
 16 15  1  0
 16 25  1  0
 16 17  1  0
 18 12  1  0
 18 17  1  0
 19 12  2  0
 20 21  1  0
 22 23  2  0
 23 42  1  0
 24 27  1  0
 24 23  1  0
 25 26  1  0
 25 22  1  0
 26 24  2  0
 27 28  1  0
 28 29  2  0
 30 33  1  0
 30 29  1  0
 31 30  2  0
 32 31  1  0
 32 27  2  0
 33 34  1  0
 34 39  2  0
 34 35  1  0
 35 36  2  0
 36 37  1  0
 37 41  1  0
 38 37  2  0
 39 38  1  0
 40 39  1  0
 42 43  1  0
 43 46  1  0
 43 45  1  0
 44 42  2  0
 47 22  1  0
 47 48  1  0
 49 47  1  0
 50 51  1  0
 51 53  1  0
 52 50  2  0
 54 51  1  0
 54 55  1  0
 56 58  1  0
 56 55  1  0
 57 68  2  0
 58 63  1  0
 59 67  1  0
 59 69  1  0
 60 66  1  0
 60 62  1  0
 61 67  1  0
 62 61  1  0
 63 62  2  0
 64 65  1  0
 64 58  2  0
 65 60  2  0
 66 59  1  0
 67 57  1  0
 69 71  2  0
 70 69  1  0
 72 70  1  0
 73 82  2  0
 73 78  1  0
 74 70  1  0
 74 78  1  0
 75 74  1  0
 76 77  1  0
 76 75  1  0
 77 73  1  0
 78 79  2  0
 79 80  1  0
 81 80  2  0
 82 81  1  0
 83 57  1  0
 83 88  1  0
 83 84  1  0
 84 87  1  1
 84 85  1  0
 86 84  1  0
 88 91  1  0
 89 93  1  0
 89 88  1  0
 90 89  2  0
 93 92  1  0
 95 93  1  0
 95 96  1  0
 95 94  1  0
M  ISO  4  12 100  20 100  55 101  56 101
M  END
>  <TORSDO>  (92) 
F 20

>  <SCORE>  (92) 
-10.629

>  <name>  (92) 
92

>  <ligand_id>  (92) 
92

>  <original_smiles>  (92) 
[H]c1c([H])c([H])c2c(c1[H])C([H])([H])C([H])([H])C([H])([H])C2([H])N([H])C(=O)C1([H])N(C(=O)C([H])(N([H])C(=O)C([H])(N([H])C([H])([H])[H])C([H])([H])[H])C(C([H])([H])[H])(C([H])([H])[H])C([H])([H])[H])C([H])([H])c2c([H])c(OC([H])([H])C([H])([H])N([H])C(=O)C3([H])N(c4c([H])c([H])c(N([H])C(=O)N5C([H])([H])C([H])([H])C([H])([H])C([H])(n6nc(-c7c([H])c([H])c(Oc8c([H])c([H])c(F)c([H])c8F)c([H])c7[H])c(C(=O)N([H])[H])c6N([H])[H])C5([H])[H])c([H])c4[H])C([H])([H])C([H])([H])C3([H])[H])c([H])c([H])c2C1([H])[H]

>  <smiles>  (92) 
[H]c1c([H])c([H])c2c(c1[H])C([H])([H])C([H])([H])C([H])([H])C2([H])N([H])C(=O)C1([H])N(C(=O)C([H])(N([H])C(=O)C([H])(N([H])C([H])([H])[H])C([H])([H])[H])C(C([H])([H])[H])(C([H])([H])[H])C([H])([H])[H])C([H])([H])c2c([H])c(OC([H])([H])C([H])([H])N([H])C(=O)C3([H])N(c4c([H])c([H])c(N([H])C(=O)N5C([H])([H])C([H])([H])C([H])([H])C([H])(n6nc(-c7c([H])c([H])c(Oc8c([H])c([H])c(F)c([H])c8F)c([H])c7[H])c(C(=O)N([H])[H])c6N([H])[H])C5([H])[H])c([H])c4[H])C([H])([H])C([H])([H])C3([H])[H])c([H])c([H])c2C1([H])[H]

$$$$
93:0:0
     RDKit          3D

 91 99  0  0  1  0  0  0  0  0999 V2000
  -27.5210  -20.8490   20.1000 C   0  0  0  0  0  1  0  0  0  0  0  0
  -28.9430  -21.0700   20.3720 N   0  0  0  0  0  0  0  0  0  0  0  0
  -31.5050  -17.5930   21.1360 C   0  0  0  0  0  3  0  0  0  0  0  0
  -31.9070  -18.9040   21.4380 C   0  0  0  0  0  3  0  0  0  0  0  0
  -29.4280  -18.5050   20.2440 C   0  0  0  0  0  3  0  0  0  0  0  0
  -30.2470  -17.3360   20.5460 C   0  0  0  0  0  0  0  0  0  0  0  0
  -29.7970  -19.8890   20.5630 C   0  0  0  0  0  0  0  0  0  0  0  0
  -31.0740  -20.0200   21.1980 C   0  0  0  0  0  0  0  0  0  0  0  0
  -31.6280  -21.5320   21.8300 Cl  0  0  0  0  0  0  0  0  0  0  0  0
  -30.6190  -14.7740   20.2040 C   0  0  0  0  0  0  0  0  0  0  0  0
  -30.3960  -12.5310   19.1530 C   0  0  0  0  0  2  0  0  0  0  0  0
  -29.4290  -12.6260   17.9560 C   0  0  0  0  0  2  0  0  0  0  0  0
  -27.9620  -12.4580   18.4040 C   0  0  0  0  0  2  0  0  0  0  0  0
  -27.6110  -13.3230   19.6460 C   0  0  0  0  0  3  0  0  0  0  0  0
  -28.6970  -13.2020   20.7380 C   0  0  0  0  0  2  0  0  0  0  0  0
  -29.9810  -13.5620   20.1230 N   0  0  0  0  0  0  0  0  0  0  0  0
  -31.8160  -14.8450   19.9000 O   0  0  0  0  0  0  0  0  0  0  0  0
  -29.8480  -15.9170   20.3550 N   0  0  0  0  0  0  0  0  0  0  0  0
  -28.8540  -15.7450   20.3530 H   0  0  0  0  0  0  0  0  0  0  0  0
  -25.2360  -13.8870   20.4490 C   0  0  0  0  0  0  0  0  0  0  0  0
  -24.1890  -13.1000   20.8420 C   0  0  0  0  0  0  0  0  0  0  0  0
  -24.6590  -11.7540   20.7780 C   0  0  0  0  0  0  0  0  0  0  0  0
  -26.2810  -13.0170   20.1680 N   0  0  0  0  0  0  0  0  0  0  0  0
  -25.9420  -11.7300   20.4380 N   0  0  0  0  0  0  0  0  0  0  0  0
  -23.9420  -10.4870   20.9720 C   0  0  0  0  0  0  0  0  0  0  0  0
  -24.3810   -9.5300   21.9120 C   0  0  0  0  0  3  0  0  0  0  0  0
  -23.6680   -8.3260   22.0950 C   0  0  0  0  0  3  0  0  0  0  0  0
  -22.5020   -8.0680   21.3360 C   0  0  0  0  0  0  0  0  0  0  0  0
  -22.0820   -9.0160   20.3860 C   0  0  0  0  0  3  0  0  0  0  0  0
  -22.7940  -10.2140   20.2000 C   0  0  0  0  0  3  0  0  0  0  0  0
  -21.7600   -6.9160   21.4300 O   0  0  0  0  0  0  0  0  0  0  0  0
  -21.6900   -6.1950   22.5960 C   0  0  0  0  0  0  0  0  0  0  0  0
  -21.1800   -6.7540   23.7880 C   0  0  0  0  0  3  0  0  0  0  0  0
  -21.0590   -5.9600   24.9460 C   0  0  0  0  0  3  0  0  0  0  0  0
  -21.4320   -4.6040   24.9100 C   0  0  0  0  0  0  0  0  0  0  0  0
  -21.9320   -4.0390   23.7240 C   0  0  0  0  0  3  0  0  0  0  0  0
  -22.0610   -4.8340   22.5700 C   0  0  0  0  0  0  0  0  0  0  0  0
  -22.5280   -4.2830   21.4240 F   0  0  0  0  0  0  0  0  0  0  0  0
  -21.3050   -3.8350   26.0190 F   0  0  0  0  0  0  0  0  0  0  0  0
  -22.7920  -13.5620   21.1510 C   0  0  0  0  0  0  0  0  0  0  0  0
  -22.0900  -12.8560   22.0310 N   0  0  0  0  0  0  0  0  0  0  0  0
  -22.3330  -14.5830   20.6460 O   0  0  0  0  0  0  0  0  0  0  0  0
  -22.4670  -12.0370   22.4800 H   0  0  0  0  0  0  0  0  0  0  0  0
  -21.1570  -13.1560   22.2800 H   0  0  0  0  0  0  0  0  0  0  0  0
  -25.3720  -15.2610   20.2830 N   0  0  0  0  0  0  0  0  0  0  0  0
  -24.5880  -15.8970   20.4090 H   0  0  0  0  0  0  0  0  0  0  0  0
  -26.1930  -15.7200   19.9090 H   0  0  0  0  0  0  0  0  0  0  0  0
  -29.3790  -22.4410   19.8750 C   0  0  0  0  0  2  0  0  0  0  0  0
  -28.9110  -23.7920   20.6450 C   0  0  0  0  0  2  0  0  0  0  0  0
  -28.3050  -25.0380   19.8090 C   0  0  0  0  0  2  0  0  0  0  0  0
  -28.3430  -26.4670   20.2890 O   0  0  0  0  0  0  0  0  0  0  0  0
  -24.5780  -31.9060   23.2420 C   0  0  0  0  0  0  0  0  0  0  0  0
  -27.2250  -27.3350   20.1900 C   0  0  0  0  0  0  0  0  0  0  0  0
  -23.3890  -30.5120   21.5920 C   0  0  0  0  0  3  0  0  0  0  0  0
  -24.8570  -28.9720   20.1640 C   0  0  0  0  0  0  0  0  0  0  0  0
  -25.9340  -30.8320   21.4300 C   0  0  0  0  0  2  0  0  0  0  0  0
  -26.0220  -29.4540   20.7750 C   0  0  0  0  0  0  0  0  0  0  0  0
  -27.2000  -28.6410   20.7900 C   0  0  0  0  0  3  0  0  0  0  0  0
  -26.0440  -26.9430   19.5170 C   0  0  0  0  0  3  0  0  0  0  0  0
  -24.8730  -27.7220   19.5310 C   0  0  0  0  0  3  0  0  0  0  0  0
  -23.6180  -29.8480   20.2100 C   0  0  0  0  0  2  0  0  0  0  0  0
  -24.6530  -31.0980   22.1460 N   0  0  0  0  0  0  0  0  0  0  0  0
  -23.4910  -32.1830   23.7710 O   0  0  0  0  0  0  0  0  0  0  0  0
  -22.7220  -29.4880   22.5400 C   0  0  0  0  0  0  0  0  0  0  0  0
  -21.4000  -29.3030   22.3990 N   0  0  0  0  0  0  0  0  0  0  0  0
  -23.3940  -28.8610   23.3640 O   0  0  0  0  0  0  0  0  0  0  0  0
  -20.9210  -29.8420   21.6920 H   0  0  0  0  0  0  0  0  0  0  0  0
  -18.0200  -28.1070   22.8920 C   0  0  0  0  0  0  0  0  0  0  0  0
  -20.5790  -28.3660   23.1660 C   0  0  0  0  0  3  0  0  0  0  0  0
  -20.6810  -26.9360   22.5850 C   0  0  0  0  0  2  0  0  0  0  0  0
  -19.5790  -26.6200   21.5680 C   0  0  0  0  0  2  0  0  0  0  0  0
  -18.1960  -26.7610   22.2090 C   0  0  0  0  0  2  0  0  0  0  0  0
  -19.1380  -28.8670   23.3290 C   0  0  0  0  0  0  0  0  0  0  0  0
  -18.9210  -30.1250   23.9310 C   0  0  0  0  0  3  0  0  0  0  0  0
  -17.6150  -30.6280   24.0940 C   0  0  0  0  0  3  0  0  0  0  0  0
  -16.5120  -29.8650   23.6730 C   0  0  0  0  0  3  0  0  0  0  0  0
  -16.7150  -28.6060   23.0830 C   0  0  0  0  0  3  0  0  0  0  0  0
  -25.8560  -32.5390   23.8720 C   0  0  0  0  0  3  0  0  0  0  0  0
  -26.3590  -31.7730   25.1560 C   0  0  1  0  0  0  0  0  0  0  0  0
  -25.2550  -31.5390   26.2130 C   0  0  0  0  0  1  0  0  0  0  0  0
  -26.9490  -30.3930   24.7800 C   0  0  0  0  0  1  0  0  0  0  0  0
  -27.5060  -32.5670   25.8220 C   0  0  0  0  0  1  0  0  0  0  0  0
  -25.5490  -33.9420   24.1910 N   0  0  0  0  0  0  0  0  0  0  0  0
  -25.8800  -34.9840   23.4220 C   0  0  0  0  0  0  0  0  0  0  0  0
  -26.5480  -34.8700   22.3900 O   0  0  0  0  0  0  0  0  0  0  0  0
  -24.9630  -34.1020   24.9970 H   0  0  0  0  0  0  0  0  0  0  0  0
  -24.1600  -36.7730   23.0330 C   0  0  0  0  0  1  0  0  0  0  0  0
  -25.3910  -36.3780   23.8640 C   0  0  0  0  0  3  0  0  0  0  0  0
  -27.5160  -37.2650   24.7130 C   0  0  0  0  0  1  0  0  0  0  0  0
  -26.4280  -37.4270   23.7530 N   0  0  0  0  0  0  0  0  0  0  0  0
  -26.0220  -38.3500   23.8860 H   0  0  0  0  0  0  0  0  0  0  0  0
  1  2  1  0
  2  7  1  0
  3  4  1  0
  5  6  1  0
  5  7  2  0
  6  3  2  0
  7  8  1  0
  8  4  2  0
  8  9  1  0
 10 18  1  0
 11 16  1  0
 12 13  1  0
 12 11  1  0
 14 13  1  0
 14 23  1  0
 14 15  1  0
 16 10  1  0
 16 15  1  0
 17 10  2  0
 18  6  1  0
 19 18  1  0
 20 21  2  0
 21 40  1  0
 22 21  1  0
 22 25  1  0
 23 24  1  0
 23 20  1  0
 24 22  2  0
 25 26  1  0
 26 27  2  0
 28 31  1  0
 28 27  1  0
 29 28  2  0
 30 29  1  0
 30 25  2  0
 31 32  1  0
 32 33  1  0
 33 34  2  0
 35 34  1  0
 35 39  1  0
 36 35  2  0
 37 32  2  0
 37 36  1  0
 38 37  1  0
 40 41  1  0
 41 44  1  0
 41 43  1  0
 42 40  2  0
 45 46  1  0
 45 20  1  0
 47 45  1  0
 48  2  1  0
 48 49  1  0
 50 51  1  0
 50 49  1  0
 52 63  2  0
 53 51  1  0
 53 58  1  0
 54 62  1  0
 54 64  1  0
 55 61  1  0
 55 57  1  0
 56 62  1  0
 57 58  2  0
 57 56  1  0
 59 60  1  0
 59 53  2  0
 60 55  2  0
 61 54  1  0
 62 52  1  0
 64 66  2  0
 65 64  1  0
 67 65  1  0
 68 77  2  0
 68 73  1  0
 69 65  1  0
 69 73  1  0
 70 69  1  0
 71 72  1  0
 71 70  1  0
 72 68  1  0
 73 74  2  0
 74 75  1  0
 76 75  2  0
 77 76  1  0
 78 52  1  0
 78 83  1  0
 78 79  1  0
 79 82  1  1
 79 80  1  0
 81 79  1  0
 83 86  1  0
 84 88  1  0
 84 83  1  0
 85 84  2  0
 88 87  1  0
 90 88  1  0
 90 91  1  0
 90 89  1  0
M  ISO  4  10 100  18 100  50 101  51 101
M  END
>  <TORSDO>  (93) 
F 20

>  <SCORE>  (93) 
-13.951

>  <name>  (93) 
93

>  <ligand_id>  (93) 
93

>  <original_smiles>  (93) 
[H]c1c([H])c([H])c2c(c1[H])C([H])([H])C([H])([H])C([H])([H])C2([H])N([H])C(=O)C1([H])N(C(=O)C([H])(N([H])C(=O)C([H])(N([H])C([H])([H])[H])C([H])([H])[H])C(C([H])([H])[H])(C([H])([H])[H])C([H])([H])[H])C([H])([H])c2c([H])c(OC([H])([H])C([H])([H])C([H])([H])N(c3c([H])c(N([H])C(=O)N4C([H])([H])C([H])([H])C([H])([H])C([H])(n5nc(-c6c([H])c([H])c(Oc7c([H])c([H])c(F)c([H])c7F)c([H])c6[H])c(C(=O)N([H])[H])c5N([H])[H])C4([H])[H])c([H])c([H])c3Cl)C([H])([H])[H])c([H])c([H])c2C1([H])[H]

>  <smiles>  (93) 
[H]c1c([H])c([H])c2c(c1[H])C([H])([H])C([H])([H])C([H])([H])C2([H])N([H])C(=O)C1([H])N(C(=O)C([H])(N([H])C(=O)C([H])(N([H])C([H])([H])[H])C([H])([H])[H])C(C([H])([H])[H])(C([H])([H])[H])C([H])([H])[H])C([H])([H])c2c([H])c(OC([H])([H])C([H])([H])C([H])([H])N(c3c([H])c(N([H])C(=O)N4C([H])([H])C([H])([H])C([H])([H])C([H])(n5nc(-c6c([H])c([H])c(Oc7c([H])c([H])c(F)c([H])c7F)c([H])c6[H])c(C(=O)N([H])[H])c5N([H])[H])C4([H])[H])c([H])c([H])c3Cl)C([H])([H])[H])c([H])c([H])c2C1([H])[H]

$$$$
94:0:0
     RDKit          3D

 90 98  0  0  1  0  0  0  0  0999 V2000
  -30.7010  -19.8590   19.6520 C   0  0  0  0  0  3  0  0  0  0  0  0
  -30.8080  -18.4180   19.7880 C   0  0  0  0  0  3  0  0  0  0  0  0
  -28.4390  -19.8110   20.2760 C   0  0  0  0  0  3  0  0  0  0  0  0
  -29.5200  -20.6730   19.8840 C   0  0  0  0  0  0  0  0  0  0  0  0
  -29.7200  -17.5760   20.1580 C   0  0  0  0  0  0  0  0  0  0  0  0
  -28.5320  -18.3590   20.3930 C   0  0  0  0  0  0  0  0  0  0  0  0
  -27.4120  -17.6810   20.7400 F   0  0  0  0  0  0  0  0  0  0  0  0
  -30.5190  -14.9440   19.9530 C   0  0  0  0  0  0  0  0  0  0  0  0
  -30.3550  -12.6220   18.9590 C   0  0  0  0  0  2  0  0  0  0  0  0
  -29.3370  -12.6350   17.7950 C   0  0  0  0  0  2  0  0  0  0  0  0
  -27.9040  -12.4190   18.3170 C   0  0  0  0  0  2  0  0  0  0  0  0
  -27.5860  -13.3070   19.5480 C   0  0  0  0  0  3  0  0  0  0  0  0
  -28.7120  -13.2590   20.6040 C   0  0  0  0  0  2  0  0  0  0  0  0
  -29.9510  -13.6750   19.9320 N   0  0  0  0  0  0  0  0  0  0  0  0
  -31.6810  -15.0640   19.5500 O   0  0  0  0  0  0  0  0  0  0  0  0
  -29.6990  -16.0500   20.2770 N   0  0  0  0  0  0  0  0  0  0  0  0
  -28.8170  -15.7250   20.6420 H   0  0  0  0  0  0  0  0  0  0  0  0
  -25.2560  -13.8770   20.4490 C   0  0  0  0  0  0  0  0  0  0  0  0
  -24.2120  -13.0970   20.8620 C   0  0  0  0  0  0  0  0  0  0  0  0
  -24.6670  -11.7450   20.7670 C   0  0  0  0  0  0  0  0  0  0  0  0
  -26.2780  -13.0030   20.1200 N   0  0  0  0  0  0  0  0  0  0  0  0
  -25.9360  -11.7130   20.3740 N   0  0  0  0  0  0  0  0  0  0  0  0
  -23.9470  -10.4810   20.9670 C   0  0  0  0  0  0  0  0  0  0  0  0
  -24.4000   -9.5090   21.8840 C   0  0  0  0  0  3  0  0  0  0  0  0
  -23.6780   -8.3110   22.0740 C   0  0  0  0  0  3  0  0  0  0  0  0
  -22.4870   -8.0770   21.3450 C   0  0  0  0  0  0  0  0  0  0  0  0
  -22.0530   -9.0380   20.4150 C   0  0  0  0  0  3  0  0  0  0  0  0
  -22.7760  -10.2270   20.2240 C   0  0  0  0  0  3  0  0  0  0  0  0
  -21.7340   -6.9320   21.4440 O   0  0  0  0  0  0  0  0  0  0  0  0
  -21.6830   -6.2030   22.6050 C   0  0  0  0  0  0  0  0  0  0  0  0
  -21.2310   -6.7660   23.8180 C   0  0  0  0  0  3  0  0  0  0  0  0
  -21.1260   -5.9630   24.9720 C   0  0  0  0  0  3  0  0  0  0  0  0
  -21.4660   -4.5990   24.9120 C   0  0  0  0  0  0  0  0  0  0  0  0
  -21.9100   -4.0350   23.7030 C   0  0  0  0  0  3  0  0  0  0  0  0
  -22.0150   -4.8350   22.5520 C   0  0  0  0  0  0  0  0  0  0  0  0
  -22.4250   -4.2820   21.3850 F   0  0  0  0  0  0  0  0  0  0  0  0
  -21.3580   -3.8250   26.0170 F   0  0  0  0  0  0  0  0  0  0  0  0
  -22.8370  -13.5730   21.2330 C   0  0  0  0  0  0  0  0  0  0  0  0
  -22.1590  -12.8520   22.1210 N   0  0  0  0  0  0  0  0  0  0  0  0
  -22.3770  -14.6170   20.7750 O   0  0  0  0  0  0  0  0  0  0  0  0
  -22.5480  -12.0060   22.5100 H   0  0  0  0  0  0  0  0  0  0  0  0
  -21.2410  -13.1530   22.4150 H   0  0  0  0  0  0  0  0  0  0  0  0
  -25.4150  -15.2530   20.3040 N   0  0  0  0  0  0  0  0  0  0  0  0
  -24.6700  -15.9060   20.5160 H   0  0  0  0  0  0  0  0  0  0  0  0
  -26.2560  -15.7130   19.9810 H   0  0  0  0  0  0  0  0  0  0  0  0
  -30.8240  -22.6670   19.3290 C   0  0  0  0  0  1  0  0  0  0  0  0
  -29.4960  -22.1660   19.6910 N   0  0  0  0  0  0  0  0  0  0  0  0
  -28.5840  -23.3240   20.2180 C   0  0  0  0  0  2  0  0  0  0  0  0
  -28.3960  -24.8050   19.4140 C   0  0  0  0  0  2  0  0  0  0  0  0
  -28.3370  -26.2440   19.9960 O   0  0  0  0  0  0  0  0  0  0  0  0
  -24.6440  -31.7830   23.0820 C   0  0  0  0  0  0  0  0  0  0  0  0
  -27.2430  -27.1750   19.9240 C   0  0  0  0  0  0  0  0  0  0  0  0
  -23.4390  -30.4130   21.4230 C   0  0  0  0  0  3  0  0  0  0  0  0
  -24.8880  -28.8830   19.9540 C   0  0  0  0  0  0  0  0  0  0  0  0
  -25.9870  -30.7110   21.2390 C   0  0  0  0  0  2  0  0  0  0  0  0
  -26.0670  -29.3350   20.5580 C   0  0  0  0  0  0  0  0  0  0  0  0
  -27.2390  -28.4950   20.5320 C   0  0  0  0  0  3  0  0  0  0  0  0
  -26.0310  -26.8160   19.2920 C   0  0  0  0  0  3  0  0  0  0  0  0
  -24.8810  -27.6350   19.3130 C   0  0  0  0  0  3  0  0  0  0  0  0
  -23.6540  -29.7670   20.0280 C   0  0  0  0  0  2  0  0  0  0  0  0
  -24.7100  -30.9890   21.9700 N   0  0  0  0  0  0  0  0  0  0  0  0
  -23.5600  -32.0450   23.6270 O   0  0  0  0  0  0  0  0  0  0  0  0
  -22.7810  -29.3790   22.3700 C   0  0  0  0  0  0  0  0  0  0  0  0
  -21.4530  -29.2040   22.2560 N   0  0  0  0  0  0  0  0  0  0  0  0
  -23.4670  -28.7420   23.1730 O   0  0  0  0  0  0  0  0  0  0  0  0
  -20.9570  -29.7770   21.5890 H   0  0  0  0  0  0  0  0  0  0  0  0
  -18.0820  -27.9800   22.7690 C   0  0  0  0  0  0  0  0  0  0  0  0
  -20.6430  -28.2460   23.0150 C   0  0  0  0  0  3  0  0  0  0  0  0
  -20.7420  -26.8260   22.4080 C   0  0  0  0  0  2  0  0  0  0  0  0
  -19.6300  -26.5220   21.3990 C   0  0  0  0  0  2  0  0  0  0  0  0
  -18.2550  -26.6460   22.0620 C   0  0  0  0  0  2  0  0  0  0  0  0
  -19.2030  -28.7370   23.2020 C   0  0  0  0  0  0  0  0  0  0  0  0
  -18.9870  -29.9830   23.8290 C   0  0  0  0  0  3  0  0  0  0  0  0
  -17.6820  -30.4730   24.0250 C   0  0  0  0  0  3  0  0  0  0  0  0
  -16.5760  -29.7130   23.6080 C   0  0  0  0  0  3  0  0  0  0  0  0
  -16.7760  -28.4700   22.9840 C   0  0  0  0  0  3  0  0  0  0  0  0
  -25.9230  -32.4170   23.7090 C   0  0  0  0  0  3  0  0  0  0  0  0
  -26.4550  -31.6220   24.9650 C   0  0  1  0  0  0  0  0  0  0  0  0
  -25.3720  -31.3550   26.0380 C   0  0  0  0  0  1  0  0  0  0  0  0
  -27.0480  -30.2580   24.5430 C   0  0  0  0  0  1  0  0  0  0  0  0
  -27.6030  -32.4120   25.6350 C   0  0  0  0  0  1  0  0  0  0  0  0
  -25.6010  -33.8040   24.0790 N   0  0  0  0  0  0  0  0  0  0  0  0
  -25.9210  -34.8840   23.3530 C   0  0  0  0  0  0  0  0  0  0  0  0
  -26.5850  -34.8160   22.3140 O   0  0  0  0  0  0  0  0  0  0  0  0
  -25.0110  -33.9290   24.8880 H   0  0  0  0  0  0  0  0  0  0  0  0
  -24.1810  -36.6790   23.0600 C   0  0  0  0  0  1  0  0  0  0  0  0
  -25.4270  -36.2560   23.8560 C   0  0  0  0  0  3  0  0  0  0  0  0
  -27.5570  -37.1310   24.7080 C   0  0  0  0  0  1  0  0  0  0  0  0
  -26.4520  -37.3190   23.7720 N   0  0  0  0  0  0  0  0  0  0  0  0
  -26.0400  -38.2320   23.9440 H   0  0  0  0  0  0  0  0  0  0  0  0
  1  2  2  0
  1  4  1  0
  2  5  1  0
  3  6  1  0
  4  3  2  0
  5 16  1  0
  5  6  2  0
  6  7  1  0
  8 16  1  0
  9 14  1  0
 10 11  1  0
 10  9  1  0
 12 11  1  0
 12 21  1  0
 12 13  1  0
 14  8  1  0
 14 13  1  0
 15  8  2  0
 16 17  1  0
 18 19  2  0
 19 38  1  0
 20 19  1  0
 20 23  1  0
 21 22  1  0
 21 18  1  0
 22 20  2  0
 23 24  1  0
 24 25  2  0
 26 29  1  0
 26 25  1  0
 27 26  2  0
 28 27  1  0
 28 23  2  0
 29 30  1  0
 30 31  1  0
 31 32  2  0
 33 32  1  0
 33 37  1  0
 34 33  2  0
 35 30  2  0
 35 34  1  0
 36 35  1  0
 38 39  1  0
 39 42  1  0
 39 41  1  0
 40 38  2  0
 43 18  1  0
 43 44  1  0
 45 43  1  0
 46 47  1  0
 47  4  1  0
 47 48  1  0
 49 50  1  0
 49 48  1  0
 51 62  2  0
 52 50  1  0
 52 57  1  0
 53 61  1  0
 53 63  1  0
 54 60  1  0
 54 56  1  0
 55 61  1  0
 56 55  1  0
 57 56  2  0
 58 59  1  0
 58 52  2  0
 59 54  2  0
 60 53  1  0
 61 51  1  0
 63 65  2  0
 64 63  1  0
 66 64  1  0
 67 76  2  0
 67 72  1  0
 68 64  1  0
 68 72  1  0
 69 68  1  0
 70 71  1  0
 70 69  1  0
 71 67  1  0
 72 73  2  0
 73 74  1  0
 75 74  2  0
 76 75  1  0
 77 51  1  0
 77 82  1  0
 77 78  1  0
 78 81  1  1
 78 79  1  0
 80 78  1  0
 82 85  1  0
 83 87  1  0
 83 82  1  0
 84 83  2  0
 87 86  1  0
 89 87  1  0
 89 90  1  0
 89 88  1  0
M  ISO  4   8 100  16 100  49 101  50 101
M  END
>  <TORSDO>  (94) 
F 19

>  <SCORE>  (94) 
-14.999

>  <name>  (94) 
94

>  <ligand_id>  (94) 
94

>  <original_smiles>  (94) 
[H]c1c([H])c([H])c2c(c1[H])C([H])([H])C([H])([H])C([H])([H])C2([H])N([H])C(=O)C1([H])N(C(=O)C([H])(N([H])C(=O)C([H])(N([H])C([H])([H])[H])C([H])([H])[H])C(C([H])([H])[H])(C([H])([H])[H])C([H])([H])[H])C([H])([H])c2c([H])c(OC([H])([H])C([H])([H])N(c3c([H])c([H])c(N([H])C(=O)N4C([H])([H])C([H])([H])C([H])([H])C([H])(n5nc(-c6c([H])c([H])c(Oc7c([H])c([H])c(F)c([H])c7F)c([H])c6[H])c(C(=O)N([H])[H])c5N([H])[H])C4([H])[H])c(F)c3[H])C([H])([H])[H])c([H])c([H])c2C1([H])[H]

>  <smiles>  (94) 
[H]c1c([H])c([H])c2c(c1[H])C([H])([H])C([H])([H])C([H])([H])C2([H])N([H])C(=O)C1([H])N(C(=O)C([H])(N([H])C(=O)C([H])(N([H])C([H])([H])[H])C([H])([H])[H])C(C([H])([H])[H])(C([H])([H])[H])C([H])([H])[H])C([H])([H])c2c([H])c(OC([H])([H])C([H])([H])N(c3c([H])c([H])c(N([H])C(=O)N4C([H])([H])C([H])([H])C([H])([H])C([H])(n5nc(-c6c([H])c([H])c(Oc7c([H])c([H])c(F)c([H])c7F)c([H])c6[H])c(C(=O)N([H])[H])c5N([H])[H])C4([H])[H])c(F)c3[H])C([H])([H])[H])c([H])c([H])c2C1([H])[H]

$$$$
95:0:0
     RDKit          3D

 92100  0  0  1  0  0  0  0  0999 V2000
  -29.5410  -21.3130   19.1740 N   0  0  0  0  0  0  0  0  0  0  0  0
  -30.2730  -18.9670   18.5740 C   0  0  0  0  0  3  0  0  0  0  0  0
  -30.4780  -17.5850   18.8670 C   0  0  0  0  0  3  0  0  0  0  0  0
  -29.4780  -19.3520   20.7850 C   0  0  0  0  0  3  0  0  0  0  0  0
  -29.7640  -19.9160   19.5160 C   0  0  0  0  0  0  0  0  0  0  0  0
  -30.2110  -17.0250   20.1440 C   0  0  0  0  0  0  0  0  0  0  0  0
  -29.6810  -17.9690   21.0890 C   0  0  0  0  0  0  0  0  0  0  0  0
  -29.3290  -17.5680   22.3340 F   0  0  0  0  0  0  0  0  0  0  0  0
  -30.9370  -14.6110   19.6300 C   0  0  0  0  0  0  0  0  0  0  0  0
  -30.4720  -12.4640   18.4370 C   0  0  0  0  0  2  0  0  0  0  0  0
  -29.3510  -12.6540   17.3930 C   0  0  0  0  0  2  0  0  0  0  0  0
  -27.9640  -12.4710   18.0390 C   0  0  0  0  0  2  0  0  0  0  0  0
  -27.8160  -13.2670   19.3610 C   0  0  0  0  0  3  0  0  0  0  0  0
  -29.0290  -13.0430   20.2840 C   0  0  0  0  0  2  0  0  0  0  0  0
  -30.2410  -13.4250   19.5400 N   0  0  0  0  0  0  0  0  0  0  0  0
  -31.9450  -14.7920   18.9390 O   0  0  0  0  0  0  0  0  0  0  0  0
  -30.7230  -15.2940   21.9060 C   0  0  0  0  0  1  0  0  0  0  0  0
  -30.4820  -15.5990   20.4850 N   0  0  0  0  0  0  0  0  0  0  0  0
  -25.6100  -13.8390   20.5440 C   0  0  0  0  0  0  0  0  0  0  0  0
  -24.5880  -13.0560   21.0080 C   0  0  0  0  0  0  0  0  0  0  0  0
  -24.9780  -11.7050   20.7540 C   0  0  0  0  0  0  0  0  0  0  0  0
  -26.5590  -12.9660   20.0380 N   0  0  0  0  0  0  0  0  0  0  0  0
  -26.1950  -11.6700   20.2220 N   0  0  0  0  0  0  0  0  0  0  0  0
  -24.2410  -10.4480   20.9300 C   0  0  0  0  0  0  0  0  0  0  0  0
  -24.7170   -9.4240   21.7790 C   0  0  0  0  0  3  0  0  0  0  0  0
  -23.9780   -8.2330   21.9470 C   0  0  0  0  0  3  0  0  0  0  0  0
  -22.7490   -8.0570   21.2670 C   0  0  0  0  0  0  0  0  0  0  0  0
  -22.2920   -9.0700   20.4060 C   0  0  0  0  0  3  0  0  0  0  0  0
  -23.0300  -10.2530   20.2350 C   0  0  0  0  0  3  0  0  0  0  0  0
  -21.9780   -6.9230   21.3490 O   0  0  0  0  0  0  0  0  0  0  0  0
  -21.9080   -6.1830   22.5020 C   0  0  0  0  0  0  0  0  0  0  0  0
  -21.4640   -6.7420   23.7200 C   0  0  0  0  0  3  0  0  0  0  0  0
  -21.3400   -5.9280   24.8640 C   0  0  0  0  0  3  0  0  0  0  0  0
  -21.6490   -4.5570   24.7900 C   0  0  0  0  0  0  0  0  0  0  0  0
  -22.0850   -3.9970   23.5760 C   0  0  0  0  0  3  0  0  0  0  0  0
  -22.2110   -4.8080   22.4350 C   0  0  0  0  0  0  0  0  0  0  0  0
  -22.6110   -4.2590   21.2620 F   0  0  0  0  0  0  0  0  0  0  0  0
  -21.5220   -3.7730   25.8870 F   0  0  0  0  0  0  0  0  0  0  0  0
  -23.2790  -13.5340   21.5680 C   0  0  0  0  0  0  0  0  0  0  0  0
  -22.6960  -12.7800   22.4920 N   0  0  0  0  0  0  0  0  0  0  0  0
  -22.7900  -14.6090   21.2220 O   0  0  0  0  0  0  0  0  0  0  0  0
  -23.1080  -11.9090   22.7910 H   0  0  0  0  0  0  0  0  0  0  0  0
  -21.8250  -13.0780   22.9070 H   0  0  0  0  0  0  0  0  0  0  0  0
  -25.8040  -15.2160   20.4900 N   0  0  0  0  0  0  0  0  0  0  0  0
  -25.1030  -15.8760   20.8120 H   0  0  0  0  0  0  0  0  0  0  0  0
  -26.6190  -15.6650   20.0930 H   0  0  0  0  0  0  0  0  0  0  0  0
  -29.3670  -21.5500   17.7350 C   0  0  0  0  0  2  0  0  0  0  0  0
  -28.3020  -20.8810   17.2950 F   0  0  0  0  0  0  0  0  0  0  0  0
  -28.9800  -22.3520   20.1130 C   0  0  0  0  0  2  0  0  0  0  0  0
  -29.1040  -23.9060   19.6990 C   0  0  0  0  0  3  0  0  0  0  0  0
  -28.4170  -25.0180   20.6070 C   0  0  0  0  0  3  0  0  0  0  0  0
  -28.6030  -26.4500   20.2630 O   0  0  0  0  0  0  0  0  0  0  0  0
  -24.7470  -31.8650   23.0870 C   0  0  0  0  0  0  0  0  0  0  0  0
  -27.4700  -27.2710   20.2070 C   0  0  0  0  0  0  0  0  0  0  0  0
  -23.5880  -30.4020   21.4700 C   0  0  0  0  0  3  0  0  0  0  0  0
  -25.0810  -28.8330   20.1110 C   0  0  0  0  0  0  0  0  0  0  0  0
  -26.1220  -30.7580   21.3110 C   0  0  0  0  0  2  0  0  0  0  0  0
  -26.2330  -29.3630   20.7070 C   0  0  0  0  0  0  0  0  0  0  0  0
  -27.4330  -28.5940   20.7410 C   0  0  0  0  0  3  0  0  0  0  0  0
  -26.3000  -26.7890   19.5840 C   0  0  0  0  0  3  0  0  0  0  0  0
  -25.1160  -27.5500   19.5390 C   0  0  0  0  0  3  0  0  0  0  0  0
  -23.8300  -29.6870   20.1140 C   0  0  0  0  0  2  0  0  0  0  0  0
  -24.8360  -31.0280   22.0130 N   0  0  0  0  0  0  0  0  0  0  0  0
  -23.6530  -32.1410   23.5980 O   0  0  0  0  0  0  0  0  0  0  0  0
  -22.9260  -29.4040   22.4500 C   0  0  0  0  0  0  0  0  0  0  0  0
  -21.6020  -29.2180   22.3220 N   0  0  0  0  0  0  0  0  0  0  0  0
  -23.6050  -28.7980   23.2850 O   0  0  0  0  0  0  0  0  0  0  0  0
  -21.1150  -29.7570   21.6200 H   0  0  0  0  0  0  0  0  0  0  0  0
  -18.2250  -28.0290   22.8410 C   0  0  0  0  0  0  0  0  0  0  0  0
  -20.7820  -28.2950   23.1100 C   0  0  0  0  0  3  0  0  0  0  0  0
  -20.8860  -26.8520   22.5610 C   0  0  0  0  0  2  0  0  0  0  0  0
  -19.7860  -26.5090   21.5520 C   0  0  0  0  0  2  0  0  0  0  0  0
  -18.4030  -26.6670   22.1910 C   0  0  0  0  0  2  0  0  0  0  0  0
  -19.3430  -28.8000   23.2570 C   0  0  0  0  0  0  0  0  0  0  0  0
  -19.1220  -30.0740   23.8240 C   0  0  0  0  0  3  0  0  0  0  0  0
  -17.8170  -30.5780   23.9780 C   0  0  0  0  0  3  0  0  0  0  0  0
  -16.7130  -29.8040   23.5780 C   0  0  0  0  0  3  0  0  0  0  0  0
  -16.9180  -28.5320   23.0150 C   0  0  0  0  0  3  0  0  0  0  0  0
  -26.0120  -32.5330   23.7090 C   0  0  0  0  0  3  0  0  0  0  0  0
  -25.6480  -33.9050   24.0870 N   0  0  0  0  0  0  0  0  0  0  0  0
  -25.9130  -34.9950   23.3530 C   0  0  0  0  0  0  0  0  0  0  0  0
  -26.5600  -34.9520   22.3030 O   0  0  0  0  0  0  0  0  0  0  0  0
  -25.0680  -34.0100   24.9080 H   0  0  0  0  0  0  0  0  0  0  0  0
  -24.0960  -36.7160   23.0970 C   0  0  0  0  0  1  0  0  0  0  0  0
  -25.3750  -36.3460   23.8640 C   0  0  0  0  0  3  0  0  0  0  0  0
  -27.4880  -37.3050   24.6670 C   0  0  0  0  0  1  0  0  0  0  0  0
  -26.3560  -37.4470   23.7560 N   0  0  0  0  0  0  0  0  0  0  0  0
  -25.9120  -38.3440   23.9390 H   0  0  0  0  0  0  0  0  0  0  0  0
  -26.5820  -31.7470   24.9530 C   0  0  1  0  0  0  0  0  0  0  0  0
  -25.5150  -31.4200   26.0240 C   0  0  0  0  0  1  0  0  0  0  0  0
  -27.2280  -30.4140   24.5080 C   0  0  0  0  0  1  0  0  0  0  0  0
  -27.7000  -32.5760   25.6290 C   0  0  0  0  0  1  0  0  0  0  0  0
  1  5  1  0
  1 49  1  0
  2  3  2  0
  2  5  1  0
  3  6  1  0
  4  7  1  0
  5  4  2  0
  6 18  1  0
  6  7  2  0
  7  8  1  0
  9 18  1  0
 10 15  1  0
 11 12  1  0
 11 10  1  0
 13 12  1  0
 13 22  1  0
 13 14  1  0
 15  9  1  0
 15 14  1  0
 16  9  2  0
 18 17  1  0
 19 20  2  0
 20 39  1  0
 21 24  1  0
 21 20  1  0
 22 23  1  0
 22 19  1  0
 23 21  2  0
 24 25  1  0
 25 26  2  0
 27 30  1  0
 27 26  1  0
 28 27  2  0
 29 28  1  0
 29 24  2  0
 30 31  1  0
 31 32  1  0
 32 33  2  0
 34 33  1  0
 34 38  1  0
 35 34  2  0
 36 31  2  0
 36 35  1  0
 37 36  1  0
 39 40  1  0
 40 42  1  0
 40 43  1  0
 41 39  2  0
 44 19  1  0
 44 45  1  0
 46 44  1  0
 47  1  1  0
 48 47  1  0
 50 49  1  0
 50 51  2  0
 52 51  1  0
 53 64  2  0
 54 52  1  0
 54 59  1  0
 55 63  1  0
 55 65  1  0
 56 62  1  0
 56 58  1  0
 57 63  1  0
 58 59  2  0
 58 57  1  0
 60 54  2  0
 61 60  1  0
 61 56  2  0
 62 55  1  0
 63 53  1  0
 65 67  2  0
 66 65  1  0
 68 66  1  0
 69 78  2  0
 69 74  1  0
 70 66  1  0
 70 74  1  0
 71 70  1  0
 72 73  1  0
 72 71  1  0
 73 69  1  0
 74 75  2  0
 75 76  1  0
 77 76  2  0
 78 77  1  0
 79 53  1  0
 79 80  1  0
 79 89  1  0
 80 83  1  0
 81 85  1  0
 81 80  1  0
 82 81  2  0
 85 84  1  0
 87 85  1  0
 87 88  1  0
 87 86  1  0
 89 92  1  1
 89 90  1  0
 91 89  1  0
M  ISO  4   9 100  18 100  51 101  52 101
M  END
>  <TORSDO>  (95) 
F 21

>  <SCORE>  (95) 
-11.631

>  <name>  (95) 
95

>  <ligand_id>  (95) 
95

>  <original_smiles>  (95) 
[H]c1c([H])c([H])c2c(c1[H])C([H])([H])C([H])([H])C([H])([H])C2([H])N([H])C(=O)C1([H])N(C(=O)C([H])(N([H])C(=O)C([H])(N([H])C([H])([H])[H])C([H])([H])[H])C(C([H])([H])[H])(C([H])([H])[H])C([H])([H])[H])C([H])([H])c2c([H])c(OC([H])([H])C([H])([H])C([H])([H])N(c3c([H])c([H])c(N(C(=O)N4C([H])([H])C([H])([H])C([H])([H])C([H])(n5nc(-c6c([H])c([H])c(Oc7c([H])c([H])c(F)c([H])c7F)c([H])c6[H])c(C(=O)N([H])[H])c5N([H])[H])C4([H])[H])C([H])([H])[H])c(F)c3[H])C([H])([H])F)c([H])c([H])c2C1([H])[H]

>  <smiles>  (95) 
[H]c1c([H])c([H])c2c(c1[H])C([H])([H])C([H])([H])C([H])([H])C2([H])N([H])C(=O)C1([H])N(C(=O)C([H])(N([H])C(=O)C([H])(N([H])C([H])([H])[H])C([H])([H])[H])C(C([H])([H])[H])(C([H])([H])[H])C([H])([H])[H])C([H])([H])c2c([H])c(OC([H])([H])C([H])([H])C([H])([H])N(c3c([H])c([H])c(N(C(=O)N4C([H])([H])C([H])([H])C([H])([H])C([H])(n5nc(-c6c([H])c([H])c(Oc7c([H])c([H])c(F)c([H])c7F)c([H])c6[H])c(C(=O)N([H])[H])c5N([H])[H])C4([H])[H])C([H])([H])[H])c(F)c3[H])C([H])([H])F)c([H])c([H])c2C1([H])[H]

$$$$
96:0:0
     RDKit          3D

 90 98  0  0  1  0  0  0  0  0999 V2000
  -31.0370  -17.9100   19.9770 C   0  0  0  0  0  3  0  0  0  0  0  0
  -31.0130  -19.3290   19.8310 C   0  0  0  0  0  3  0  0  0  0  0  0
  -28.7300  -17.9770   20.6360 C   0  0  0  0  0  3  0  0  0  0  0  0
  -29.8880  -17.1860   20.3860 C   0  0  0  0  0  0  0  0  0  0  0  0
  -29.8590  -20.1220   20.0780 C   0  0  0  0  0  0  0  0  0  0  0  0
  -28.7050  -19.3980   20.4900 C   0  0  0  0  0  0  0  0  0  0  0  0
  -27.5490  -20.0520   20.7580 F   0  0  0  0  0  0  0  0  0  0  0  0
  -30.5980  -14.6850   20.1250 C   0  0  0  0  0  0  0  0  0  0  0  0
  -30.3560  -12.4480   19.0640 C   0  0  0  0  0  2  0  0  0  0  0  0
  -29.3690  -12.5900   17.8830 C   0  0  0  0  0  2  0  0  0  0  0  0
  -27.9110  -12.4310   18.3610 C   0  0  0  0  0  2  0  0  0  0  0  0
  -27.6000  -13.2790   19.6230 C   0  0  0  0  0  3  0  0  0  0  0  0
  -28.6980  -13.1110   20.6970 C   0  0  0  0  0  2  0  0  0  0  0  0
  -29.9860  -13.4590   20.0760 N   0  0  0  0  0  0  0  0  0  0  0  0
  -31.7390  -14.8470   19.6810 O   0  0  0  0  0  0  0  0  0  0  0  0
  -29.8100  -15.7270   20.5450 N   0  0  0  0  0  0  0  0  0  0  0  0
  -28.9370  -15.4010   20.9340 H   0  0  0  0  0  0  0  0  0  0  0  0
  -25.2380  -13.8750   20.4420 C   0  0  0  0  0  0  0  0  0  0  0  0
  -24.1830  -13.1000   20.8410 C   0  0  0  0  0  0  0  0  0  0  0  0
  -24.6380  -11.7470   20.7700 C   0  0  0  0  0  0  0  0  0  0  0  0
  -26.2690  -12.9940   20.1530 N   0  0  0  0  0  0  0  0  0  0  0  0
  -25.9140  -11.7080   20.4090 N   0  0  0  0  0  0  0  0  0  0  0  0
  -23.9120  -10.4850   20.9680 C   0  0  0  0  0  0  0  0  0  0  0  0
  -24.3650   -9.5090   21.8830 C   0  0  0  0  0  3  0  0  0  0  0  0
  -23.6420   -8.3110   22.0690 C   0  0  0  0  0  3  0  0  0  0  0  0
  -22.4500   -8.0820   21.3400 C   0  0  0  0  0  0  0  0  0  0  0  0
  -22.0150   -9.0480   20.4150 C   0  0  0  0  0  3  0  0  0  0  0  0
  -22.7400  -10.2360   20.2260 C   0  0  0  0  0  3  0  0  0  0  0  0
  -21.6950   -6.9380   21.4370 O   0  0  0  0  0  0  0  0  0  0  0  0
  -21.6530   -6.1990   22.5920 C   0  0  0  0  0  0  0  0  0  0  0  0
  -21.2070   -6.7480   23.8130 C   0  0  0  0  0  3  0  0  0  0  0  0
  -21.1150   -5.9340   24.9610 C   0  0  0  0  0  3  0  0  0  0  0  0
  -21.4580   -4.5710   24.8850 C   0  0  0  0  0  0  0  0  0  0  0  0
  -21.8970   -4.0200   23.6680 C   0  0  0  0  0  3  0  0  0  0  0  0
  -21.9910   -4.8310   22.5240 C   0  0  0  0  0  0  0  0  0  0  0  0
  -22.3940   -4.2910   21.3490 F   0  0  0  0  0  0  0  0  0  0  0  0
  -21.3620   -3.7860   25.9840 F   0  0  0  0  0  0  0  0  0  0  0  0
  -22.7990  -13.5780   21.1750 C   0  0  0  0  0  0  0  0  0  0  0  0
  -22.1060  -12.8780   22.0650 N   0  0  0  0  0  0  0  0  0  0  0  0
  -22.3450  -14.6100   20.6840 O   0  0  0  0  0  0  0  0  0  0  0  0
  -22.4870  -12.0440   22.4880 H   0  0  0  0  0  0  0  0  0  0  0  0
  -21.1790  -13.1820   22.3300 H   0  0  0  0  0  0  0  0  0  0  0  0
  -25.4000  -15.2470   20.2780 N   0  0  0  0  0  0  0  0  0  0  0  0
  -24.6340  -15.8960   20.4170 H   0  0  0  0  0  0  0  0  0  0  0  0
  -26.2220  -15.6840   19.8800 H   0  0  0  0  0  0  0  0  0  0  0  0
  -29.9680  -21.5220   19.9050 O   0  0  0  0  0  0  0  0  0  0  0  0
  -28.8750  -22.4670   20.1420 C   0  0  0  0  0  3  0  0  0  0  0  0
  -29.2270  -24.0020   19.8750 C   0  0  0  0  0  3  0  0  0  0  0  0
  -28.0550  -25.0580   20.0540 C   0  0  0  0  0  2  0  0  0  0  0  0
  -28.3030  -26.5080   19.8500 O   0  0  0  0  0  0  0  0  0  0  0  0
  -24.6700  -31.8010   23.1690 C   0  0  0  0  0  0  0  0  0  0  0  0
  -27.1900  -27.3650   19.8710 C   0  0  0  0  0  0  0  0  0  0  0  0
  -23.4280  -30.4940   21.4830 C   0  0  0  0  0  3  0  0  0  0  0  0
  -24.8410  -28.9990   19.9700 C   0  0  0  0  0  0  0  0  0  0  0  0
  -25.9690  -30.7950   21.2790 C   0  0  0  0  0  2  0  0  0  0  0  0
  -26.0250  -29.4470   20.5710 C   0  0  0  0  0  0  0  0  0  0  0  0
  -27.2020  -28.6430   20.5130 C   0  0  0  0  0  3  0  0  0  0  0  0
  -25.9840  -26.9800   19.2380 C   0  0  0  0  0  3  0  0  0  0  0  0
  -24.8230  -27.7710   19.2960 C   0  0  0  0  0  3  0  0  0  0  0  0
  -23.6170  -29.8840   20.0710 C   0  0  0  0  0  2  0  0  0  0  0  0
  -24.7090  -31.0450   22.0350 N   0  0  0  0  0  0  0  0  0  0  0  0
  -23.5980  -32.0660   23.7310 O   0  0  0  0  0  0  0  0  0  0  0  0
  -22.7670  -29.4390   22.4030 C   0  0  0  0  0  0  0  0  0  0  0  0
  -21.4370  -29.2880   22.2910 N   0  0  0  0  0  0  0  0  0  0  0  0
  -23.4500  -28.7630   23.1770 O   0  0  0  0  0  0  0  0  0  0  0  0
  -20.9460  -29.8860   21.6410 H   0  0  0  0  0  0  0  0  0  0  0  0
  -18.0450  -28.1480   22.8170 C   0  0  0  0  0  0  0  0  0  0  0  0
  -20.6160  -28.3280   23.0300 C   0  0  0  0  0  3  0  0  0  0  0  0
  -20.6640  -26.9300   22.3690 C   0  0  0  0  0  2  0  0  0  0  0  0
  -19.5260  -26.6940   21.3700 C   0  0  0  0  0  2  0  0  0  0  0  0
  -18.1670  -26.8370   22.0610 C   0  0  0  0  0  2  0  0  0  0  0  0
  -19.1950  -28.8560   23.2580 C   0  0  0  0  0  0  0  0  0  0  0  0
  -19.0250  -30.0880   23.9270 C   0  0  0  0  0  3  0  0  0  0  0  0
  -17.7390  -30.6110   24.1590 C   0  0  0  0  0  3  0  0  0  0  0  0
  -16.6040  -29.8990   23.7320 C   0  0  0  0  0  3  0  0  0  0  0  0
  -16.7580  -28.6700   23.0680 C   0  0  0  0  0  3  0  0  0  0  0  0
  -25.9690  -32.3900   23.8020 C   0  0  0  0  0  3  0  0  0  0  0  0
  -26.4820  -31.5600   25.0420 C   0  0  1  0  0  0  0  0  0  0  0  0
  -25.3960  -31.3020   26.1120 C   0  0  0  0  0  1  0  0  0  0  0  0
  -27.0380  -30.1900   24.5940 C   0  0  0  0  0  1  0  0  0  0  0  0
  -27.6520  -32.3110   25.7230 C   0  0  0  0  0  1  0  0  0  0  0  0
  -25.6830  -33.7790   24.1890 N   0  0  0  0  0  0  0  0  0  0  0  0
  -25.9950  -34.8530   23.4520 C   0  0  0  0  0  0  0  0  0  0  0  0
  -26.6230  -34.7770   22.3920 O   0  0  0  0  0  0  0  0  0  0  0  0
  -25.1190  -33.9120   25.0150 H   0  0  0  0  0  0  0  0  0  0  0  0
  -24.2570  -36.6600   23.2380 C   0  0  0  0  0  1  0  0  0  0  0  0
  -25.5380  -36.2290   23.9710 C   0  0  0  0  0  3  0  0  0  0  0  0
  -27.7130  -37.0900   24.7190 C   0  0  0  0  0  1  0  0  0  0  0  0
  -26.5670  -37.2830   23.8340 N   0  0  0  0  0  0  0  0  0  0  0  0
  -26.1720  -38.2000   24.0220 H   0  0  0  0  0  0  0  0  0  0  0  0
  1  4  1  0
  2  1  2  0
  2  5  1  0
  4 16  1  0
  4  3  2  0
  5  6  2  0
  6  3  1  0
  6  7  1  0
  8 16  1  0
  9 14  1  0
 10 11  1  0
 10  9  1  0
 12 11  1  0
 12 21  1  0
 12 13  1  0
 14  8  1  0
 14 13  1  0
 15  8  2  0
 16 17  1  0
 18 19  2  0
 19 38  1  0
 20 19  1  0
 20 23  1  0
 21 22  1  0
 21 18  1  0
 22 20  2  0
 23 24  1  0
 24 25  2  0
 26 29  1  0
 26 25  1  0
 27 26  2  0
 28 27  1  0
 28 23  2  0
 29 30  1  0
 30 31  1  0
 31 32  2  0
 33 32  1  0
 33 37  1  0
 34 33  2  0
 35 30  2  0
 35 34  1  0
 36 35  1  0
 38 39  1  0
 39 42  1  0
 39 41  1  0
 40 38  2  0
 43 44  1  0
 43 18  1  0
 45 43  1  0
 46  5  1  0
 46 47  1  0
 48 49  1  0
 48 47  2  0
 50 52  1  0
 50 49  1  0
 51 62  2  0
 52 57  1  0
 53 61  1  0
 53 63  1  0
 54 60  1  0
 54 56  1  0
 55 61  1  0
 56 55  1  0
 57 56  2  0
 58 59  1  0
 58 52  2  0
 59 54  2  0
 60 53  1  0
 61 51  1  0
 63 65  2  0
 64 63  1  0
 66 64  1  0
 67 76  2  0
 67 72  1  0
 68 64  1  0
 68 72  1  0
 69 68  1  0
 70 71  1  0
 70 69  1  0
 71 67  1  0
 72 73  2  0
 73 74  1  0
 75 74  2  0
 76 75  1  0
 77 51  1  0
 77 82  1  0
 77 78  1  0
 78 81  1  1
 78 79  1  0
 80 78  1  0
 82 85  1  0
 83 87  1  0
 83 82  1  0
 84 83  2  0
 87 86  1  0
 89 87  1  0
 89 90  1  0
 89 88  1  0
M  ISO  4   8 100  16 100  49 101  50 101
M  END
>  <TORSDO>  (96) 
F 20

>  <SCORE>  (96) 
-13.622

>  <name>  (96) 
96

>  <ligand_id>  (96) 
96

>  <original_smiles>  (96) 
[H]c1c([H])c([H])c2c(c1[H])C([H])([H])C([H])([H])C([H])([H])C2([H])N([H])C(=O)C1([H])N(C(=O)C([H])(N([H])C(=O)C([H])(N([H])C([H])([H])[H])C([H])([H])[H])C(C([H])([H])[H])(C([H])([H])[H])C([H])([H])[H])C([H])([H])c2c([H])c(OC([H])([H])C([H])([H])C([H])([H])Oc3c([H])c([H])c(N([H])C(=O)N4C([H])([H])C([H])([H])C([H])([H])C([H])(n5nc(-c6c([H])c([H])c(Oc7c([H])c([H])c(F)c([H])c7F)c([H])c6[H])c(C(=O)N([H])[H])c5N([H])[H])C4([H])[H])c([H])c3F)c([H])c([H])c2C1([H])[H]

>  <smiles>  (96) 
[H]c1c([H])c([H])c2c(c1[H])C([H])([H])C([H])([H])C([H])([H])C2([H])N([H])C(=O)C1([H])N(C(=O)C([H])(N([H])C(=O)C([H])(N([H])C([H])([H])[H])C([H])([H])[H])C(C([H])([H])[H])(C([H])([H])[H])C([H])([H])[H])C([H])([H])c2c([H])c(OC([H])([H])C([H])([H])C([H])([H])Oc3c([H])c([H])c(N([H])C(=O)N4C([H])([H])C([H])([H])C([H])([H])C([H])(n5nc(-c6c([H])c([H])c(Oc7c([H])c([H])c(F)c([H])c7F)c([H])c6[H])c(C(=O)N([H])[H])c5N([H])[H])C4([H])[H])c([H])c3F)c([H])c([H])c2C1([H])[H]

$$$$
97:0:0
     RDKit          3D

 94102  0  0  1  0  0  0  0  0999 V2000
  -29.3230  -21.8260   20.4130 N   0  0  0  0  0  4  0  0  0  0  0  0
  -29.6420  -21.9610   19.4690 H   0  0  0  0  0  0  0  0  0  0  0  0
  -30.1380  -21.7090   20.9910 H   0  0  0  0  0  0  0  0  0  0  0  0
  -28.4640  -20.6240   20.4780 C   0  0  0  0  0  2  0  0  0  0  0  0
  -29.2130  -18.5840   21.7800 C   0  0  0  0  0  3  0  0  0  0  0  0
  -29.7450  -18.6650   19.4080 C   0  0  0  0  0  3  0  0  0  0  0  0
  -29.7110  -17.2700   21.8530 C   0  0  0  0  0  3  0  0  0  0  0  0
  -30.2640  -17.3480   19.4830 C   0  0  0  0  0  3  0  0  0  0  0  0
  -29.1940  -19.2820   20.5540 C   0  0  0  0  0  0  0  0  0  0  0  0
  -30.2170  -16.6270   20.7040 C   0  0  0  0  0  0  0  0  0  0  0  0
  -31.0430  -14.4200   19.9060 C   0  0  0  0  0  0  0  0  0  0  0  0
  -30.6590  -12.2850   18.7350 C   0  0  0  0  0  2  0  0  0  0  0  0
  -29.6050  -12.5090   17.6310 C   0  0  0  0  0  2  0  0  0  0  0  0
  -28.1780  -12.3480   18.1910 C   0  0  0  0  0  2  0  0  0  0  0  0
  -27.9540  -13.1690   19.4890 C   0  0  0  0  0  3  0  0  0  0  0  0
  -29.1030  -12.9200   20.4890 C   0  0  0  0  0  2  0  0  0  0  0  0
  -30.3860  -13.2320   19.8260 N   0  0  0  0  0  0  0  0  0  0  0  0
  -32.0130  -14.7120   19.2000 O   0  0  0  0  0  0  0  0  0  0  0  0
  -30.5720  -15.2540   20.8450 N   0  0  0  0  0  0  0  0  0  0  0  0
  -30.0750  -14.7710   21.5770 H   0  0  0  0  0  0  0  0  0  0  0  0
  -25.6440  -13.7600   20.4640 C   0  0  0  0  0  0  0  0  0  0  0  0
  -24.6050  -12.9790   20.8940 C   0  0  0  0  0  0  0  0  0  0  0  0
  -25.0400  -11.6270   20.7440 C   0  0  0  0  0  0  0  0  0  0  0  0
  -26.6470  -12.8840   20.0820 N   0  0  0  0  0  0  0  0  0  0  0  0
  -26.2910  -11.5930   20.3030 N   0  0  0  0  0  0  0  0  0  0  0  0
  -24.3190  -10.3620   20.9390 C   0  0  0  0  0  0  0  0  0  0  0  0
  -24.7380   -9.4110   21.8950 C   0  0  0  0  0  3  0  0  0  0  0  0
  -24.0160   -8.2120   22.0760 C   0  0  0  0  0  3  0  0  0  0  0  0
  -22.8620   -7.9530   21.3000 C   0  0  0  0  0  0  0  0  0  0  0  0
  -22.4620   -8.8920   20.3340 C   0  0  0  0  0  3  0  0  0  0  0  0
  -23.1840  -10.0830   20.1500 C   0  0  0  0  0  3  0  0  0  0  0  0
  -22.1150   -6.8020   21.3880 O   0  0  0  0  0  0  0  0  0  0  0  0
  -21.9360   -6.1520   22.5820 C   0  0  0  0  0  0  0  0  0  0  0  0
  -21.3550   -6.7920   23.7000 C   0  0  0  0  0  3  0  0  0  0  0  0
  -21.1230   -6.0660   24.8850 C   0  0  0  0  0  3  0  0  0  0  0  0
  -21.4610   -4.7010   24.9540 C   0  0  0  0  0  0  0  0  0  0  0  0
  -22.0360   -4.0610   23.8410 C   0  0  0  0  0  3  0  0  0  0  0  0
  -22.2680   -4.7850   22.6590 C   0  0  0  0  0  0  0  0  0  0  0  0
  -22.8020   -4.1570   21.5820 F   0  0  0  0  0  0  0  0  0  0  0  0
  -21.2330   -4.0020   26.0900 F   0  0  0  0  0  0  0  0  0  0  0  0
  -23.2500  -13.4530   21.3370 C   0  0  0  0  0  0  0  0  0  0  0  0
  -22.6240  -12.7410   22.2680 N   0  0  0  0  0  0  0  0  0  0  0  0
  -22.7590  -14.4900   20.8920 O   0  0  0  0  0  0  0  0  0  0  0  0
  -23.0390  -11.9020   22.6490 H   0  0  0  0  0  0  0  0  0  0  0  0
  -21.7210  -13.0380   22.6070 H   0  0  0  0  0  0  0  0  0  0  0  0
  -25.8130  -15.1370   20.3490 N   0  0  0  0  0  0  0  0  0  0  0  0
  -25.0810  -15.7990   20.5880 H   0  0  0  0  0  0  0  0  0  0  0  0
  -26.6550  -15.5830   20.0070 H   0  0  0  0  0  0  0  0  0  0  0  0
  -28.6200  -23.0520   20.8670 C   0  0  0  0  0  2  0  0  0  0  0  0
  -29.1420  -24.3530   20.2170 C   0  0  0  0  0  3  0  0  0  0  0  0
  -30.5600  -24.3840   20.2800 O   0  0  0  0  0  0  0  0  0  0  0  0
  -30.8340  -25.2170   19.9020 H   0  0  0  0  0  0  0  0  0  0  0  0
  -28.5810  -25.5940   20.9500 C   0  0  0  0  0  2  0  0  0  0  0  0
  -28.6280  -26.7580   20.1230 O   0  0  0  0  0  0  0  0  0  0  0  0
  -24.8520  -31.8240   23.3930 C   0  0  0  0  0  0  0  0  0  0  0  0
  -27.4730  -27.4980   20.1550 C   0  0  0  0  0  0  0  0  0  0  0  0
  -23.6350  -30.4840   21.7040 C   0  0  0  0  0  3  0  0  0  0  0  0
  -25.0820  -28.9870   20.2260 C   0  0  0  0  0  0  0  0  0  0  0  0
  -26.1600  -30.8440   21.5150 C   0  0  0  0  0  2  0  0  0  0  0  0
  -26.2400  -29.4950   20.8300 C   0  0  0  0  0  0  0  0  0  0  0  0
  -27.4420  -28.7560   20.7940 C   0  0  0  0  0  3  0  0  0  0  0  0
  -26.3040  -26.9960   19.5480 C   0  0  0  0  0  3  0  0  0  0  0  0
  -25.1070  -27.7380   19.5820 C   0  0  0  0  0  3  0  0  0  0  0  0
  -23.8390  -29.8460   20.3030 C   0  0  0  0  0  2  0  0  0  0  0  0
  -24.9010  -31.0620   22.2630 N   0  0  0  0  0  0  0  0  0  0  0  0
  -23.7740  -32.0860   23.9430 O   0  0  0  0  0  0  0  0  0  0  0  0
  -22.9780  -29.4370   22.6310 C   0  0  0  0  0  0  0  0  0  0  0  0
  -21.6570  -29.2520   22.4820 N   0  0  0  0  0  0  0  0  0  0  0  0
  -23.6540  -28.7930   23.4390 O   0  0  0  0  0  0  0  0  0  0  0  0
  -21.1750  -29.8260   21.8050 H   0  0  0  0  0  0  0  0  0  0  0  0
  -18.2880  -28.0120   22.8720 C   0  0  0  0  0  0  0  0  0  0  0  0
  -20.8340  -28.2910   23.2140 C   0  0  0  0  0  3  0  0  0  0  0  0
  -20.9650  -26.8720   22.6140 C   0  0  0  0  0  2  0  0  0  0  0  0
  -19.8950  -26.5620   21.5630 C   0  0  0  0  0  2  0  0  0  0  0  0
  -18.4960  -26.6780   22.1730 C   0  0  0  0  0  2  0  0  0  0  0  0
  -19.3860  -28.7770   23.3440 C   0  0  0  0  0  0  0  0  0  0  0  0
  -19.1410  -30.0260   23.9530 C   0  0  0  0  0  3  0  0  0  0  0  0
  -17.8280  -30.5120   24.0940 C   0  0  0  0  0  3  0  0  0  0  0  0
  -16.7420  -29.7430   23.6410 C   0  0  0  0  0  3  0  0  0  0  0  0
  -16.9720  -28.4950   23.0370 C   0  0  0  0  0  3  0  0  0  0  0  0
  -26.1430  -32.4220   24.0340 C   0  0  0  0  0  3  0  0  0  0  0  0
  -25.8550  -33.8210   24.3850 N   0  0  0  0  0  0  0  0  0  0  0  0
  -26.2160  -34.8780   23.6460 C   0  0  0  0  0  0  0  0  0  0  0  0
  -26.8970  -34.7790   22.6210 O   0  0  0  0  0  0  0  0  0  0  0  0
  -25.2570  -33.9730   25.1830 H   0  0  0  0  0  0  0  0  0  0  0  0
  -24.5250  -36.7060   23.2910 C   0  0  0  0  0  1  0  0  0  0  0  0
  -25.7450  -36.2670   24.1180 C   0  0  0  0  0  3  0  0  0  0  0  0
  -27.8800  -37.0990   25.0000 C   0  0  0  0  0  1  0  0  0  0  0  0
  -26.7980  -37.3030   24.0410 N   0  0  0  0  0  0  0  0  0  0  0  0
  -26.4070  -38.2280   24.1960 H   0  0  0  0  0  0  0  0  0  0  0  0
  -26.6390  -31.6200   25.2990 C   0  0  1  0  0  0  0  0  0  0  0  0
  -25.5340  -31.3770   26.3540 C   0  0  0  0  0  1  0  0  0  0  0  0
  -27.2060  -30.2440   24.8790 C   0  0  0  0  0  1  0  0  0  0  0  0
  -27.7940  -32.3860   25.9860 C   0  0  0  0  0  1  0  0  0  0  0  0
  1  4  1  0
  1 49  1  0
  1  3  1  0
  2  1  1  0
  4  9  1  0
  5  7  1  0
  6  8  2  0
  6  9  1  0
  8 10  1  0
  9  5  2  0
 10 19  1  0
 10  7  2  0
 11 19  1  0
 12 17  1  0
 13 14  1  0
 13 12  1  0
 15 14  1  0
 15 24  1  0
 15 16  1  0
 17 11  1  0
 17 16  1  0
 18 11  2  0
 19 20  1  0
 21 22  2  0
 22 41  1  0
 23 22  1  0
 23 26  1  0
 24 25  1  0
 24 21  1  0
 25 23  2  0
 26 27  1  0
 27 28  2  0
 29 32  1  0
 29 28  1  0
 30 29  2  0
 31 30  1  0
 31 26  2  0
 32 33  1  0
 33 38  2  0
 33 34  1  0
 34 35  2  0
 35 36  1  0
 36 40  1  0
 37 36  2  0
 38 37  1  0
 39 38  1  0
 41 42  1  0
 42 45  1  0
 42 44  1  0
 43 41  2  0
 46 21  1  0
 46 47  1  0
 48 46  1  0
 50 51  1  0
 50 49  1  0
 50 53  1  0
 52 51  1  0
 54 56  1  0
 54 53  1  0
 55 66  2  0
 56 61  1  0
 57 65  1  0
 57 67  1  0
 58 64  1  0
 58 60  1  0
 59 65  1  0
 60 59  1  0
 61 60  2  0
 62 63  1  0
 62 56  2  0
 63 58  2  0
 64 57  1  0
 65 55  1  0
 67 69  2  0
 68 67  1  0
 70 68  1  0
 71 80  2  0
 71 76  1  0
 72 68  1  0
 72 76  1  0
 73 72  1  0
 74 75  1  0
 74 73  1  0
 75 71  1  0
 76 77  2  0
 77 78  1  0
 79 78  2  0
 80 79  1  0
 81 55  1  0
 81 82  1  0
 81 91  1  0
 82 85  1  0
 83 87  1  0
 83 82  1  0
 84 83  2  0
 87 86  1  0
 89 87  1  0
 89 90  1  0
 89 88  1  0
 91 94  1  1
 91 92  1  0
 93 91  1  0
M  ISO  4  11 100  19 100  53 101  54 101
M  END
>  <TORSDO>  (97) 
F 22

>  <SCORE>  (97) 
-11.258

>  <name>  (97) 
97

>  <ligand_id>  (97) 
97

>  <original_smiles>  (97) 
[H]OC([H])(C([H])([H])Oc1c([H])c([H])c2c(c1[H])C([H])([H])N(C(=O)C([H])(N([H])C(=O)C([H])(N([H])C([H])([H])[H])C([H])([H])[H])C(C([H])([H])[H])(C([H])([H])[H])C([H])([H])[H])C([H])(C(=O)N([H])C1([H])c3c([H])c([H])c([H])c([H])c3C([H])([H])C([H])([H])C1([H])[H])C2([H])[H])C([H])([H])[N+]([H])([H])C([H])([H])c1c([H])c([H])c(N([H])C(=O)N2C([H])([H])C([H])([H])C([H])([H])C([H])(n3nc(-c4c([H])c([H])c(Oc5c([H])c([H])c(F)c([H])c5F)c([H])c4[H])c(C(=O)N([H])[H])c3N([H])[H])C2([H])[H])c([H])c1[H]

>  <smiles>  (97) 
[H]OC([H])(C([H])([H])Oc1c([H])c([H])c2c(c1[H])C([H])([H])N(C(=O)C([H])(N([H])C(=O)C([H])(N([H])C([H])([H])[H])C([H])([H])[H])C(C([H])([H])[H])(C([H])([H])[H])C([H])([H])[H])C([H])(C(=O)N([H])C1([H])c3c([H])c([H])c([H])c([H])c3C([H])([H])C([H])([H])C1([H])[H])C2([H])[H])C([H])([H])[N+]([H])([H])C([H])([H])c1c([H])c([H])c(N([H])C(=O)N2C([H])([H])C([H])([H])C([H])([H])C([H])(n3nc(-c4c([H])c([H])c(Oc5c([H])c([H])c(F)c([H])c5F)c([H])c4[H])c(C(=O)N([H])[H])c3N([H])[H])C2([H])[H])c([H])c1[H]

$$$$
