0:0:0
     RDKit          3D

 93102  0  0  1  0  0  0  0  0999 V2000
  -29.7000  -22.9270   17.8150 C   0  0  0  0  0  2  0  0  0  0  0  0
  -30.2170  -23.5780   19.1080 C   0  0  0  0  0  2  0  0  0  0  0  0
  -28.4970  -22.0690   18.2440 C   0  0  0  0  0  2  0  0  0  0  0  0
  -29.0790  -23.3520   20.1120 C   0  0  2  0  0  0  0  0  0  0  0  0
  -29.5680  -23.3130   21.5660 C   0  0  0  0  0  1  0  0  0  0  0  0
  -28.5960  -21.9370   19.6930 N   0  0  0  0  0  0  0  0  0  0  0  0
  -30.3090  -19.9200   19.7410 C   0  0  0  0  0  3  0  0  0  0  0  0
  -30.5790  -18.4840   19.8230 C   0  0  0  0  0  3  0  0  0  0  0  0
  -28.3300  -18.1250   20.4270 C   0  0  0  0  0  3  0  0  0  0  0  0
  -29.0260  -20.5370   19.9820 C   0  0  0  0  0  0  0  0  0  0  0  0
  -29.5890  -17.4940   20.1630 C   0  0  0  0  0  0  0  0  0  0  0  0
  -28.0560  -19.5420   20.3340 C   0  0  0  0  0  0  0  0  0  0  0  0
  -26.7800  -19.9460   20.5510 F   0  0  0  0  0  0  0  0  0  0  0  0
  -30.5510  -14.8960   19.9370 C   0  0  0  0  0  0  0  0  0  0  0  0
  -30.4200  -12.5730   18.9420 C   0  0  0  0  0  2  0  0  0  0  0  0
  -29.4040  -12.5870   17.7740 C   0  0  0  0  0  2  0  0  0  0  0  0
  -27.9670  -12.3670   18.2880 C   0  0  0  0  0  2  0  0  0  0  0  0
  -27.6420  -13.2470   19.5240 C   0  0  0  0  0  3  0  0  0  0  0  0
  -28.7680  -13.1840   20.5790 C   0  0  0  0  0  2  0  0  0  0  0  0
  -30.0090  -13.6160   19.9170 N   0  0  0  0  0  0  0  0  0  0  0  0
  -31.7140  -15.0480   19.5440 O   0  0  0  0  0  0  0  0  0  0  0  0
  -29.6840  -15.9670   20.2470 N   0  0  0  0  0  0  0  0  0  0  0  0
  -28.8140  -15.5660   20.5590 H   0  0  0  0  0  0  0  0  0  0  0  0
  -25.3170  -13.8150   20.4420 C   0  0  0  0  0  0  0  0  0  0  0  0
  -24.2750  -13.0320   20.8580 C   0  0  0  0  0  0  0  0  0  0  0  0
  -24.7280  -11.6810   20.7430 C   0  0  0  0  0  0  0  0  0  0  0  0
  -26.3350  -12.9410   20.0970 N   0  0  0  0  0  0  0  0  0  0  0  0
  -25.9930  -11.6500   20.3410 N   0  0  0  0  0  0  0  0  0  0  0  0
  -24.0060  -10.4160   20.9340 C   0  0  0  0  0  0  0  0  0  0  0  0
  -24.4420   -9.4530   21.8710 C   0  0  0  0  0  3  0  0  0  0  0  0
  -23.7220   -8.2510   22.0490 C   0  0  0  0  0  3  0  0  0  0  0  0
  -22.5530   -8.0050   21.2900 C   0  0  0  0  0  0  0  0  0  0  0  0
  -22.1360   -8.9570   20.3440 C   0  0  0  0  0  3  0  0  0  0  0  0
  -22.8560  -10.1510   20.1640 C   0  0  0  0  0  3  0  0  0  0  0  0
  -21.8020   -6.8580   21.3810 O   0  0  0  0  0  0  0  0  0  0  0  0
  -21.6780   -6.1710   22.5610 C   0  0  0  0  0  0  0  0  0  0  0  0
  -21.1340   -6.7670   23.7200 C   0  0  0  0  0  3  0  0  0  0  0  0
  -20.9600   -6.0020   24.8910 C   0  0  0  0  0  3  0  0  0  0  0  0
  -21.3190   -4.6410   24.9030 C   0  0  0  0  0  0  0  0  0  0  0  0
  -21.8530   -4.0430   23.7480 C   0  0  0  0  0  3  0  0  0  0  0  0
  -22.0290   -4.8050   22.5800 C   0  0  0  0  0  0  0  0  0  0  0  0
  -22.5260   -4.2190   21.4640 F   0  0  0  0  0  0  0  0  0  0  0  0
  -21.1450   -3.9040   26.0250 F   0  0  0  0  0  0  0  0  0  0  0  0
  -22.9020  -13.5030   21.2390 C   0  0  0  0  0  0  0  0  0  0  0  0
  -22.2320  -12.7860   22.1320 N   0  0  0  0  0  0  0  0  0  0  0  0
  -22.4350  -14.5450   20.7790 O   0  0  0  0  0  0  0  0  0  0  0  0
  -22.6230  -11.9440   22.5270 H   0  0  0  0  0  0  0  0  0  0  0  0
  -21.3110  -13.0830   22.4240 H   0  0  0  0  0  0  0  0  0  0  0  0
  -25.4760  -15.1910   20.3020 N   0  0  0  0  0  0  0  0  0  0  0  0
  -24.7100  -15.8320   20.4680 H   0  0  0  0  0  0  0  0  0  0  0  0
  -26.2550  -15.6250   19.8240 H   0  0  0  0  0  0  0  0  0  0  0  0
  -28.0280  -24.6650   19.9380 C   0  0  0  0  0  2  0  0  0  0  0  0
  -28.3060  -26.1770   20.1480 O   0  0  0  0  0  0  0  0  0  0  0  0
  -24.6460  -31.7740   23.2140 C   0  0  0  0  0  0  0  0  0  0  0  0
  -27.2410  -27.1450   20.0980 C   0  0  0  0  0  0  0  0  0  0  0  0
  -23.4500  -30.4130   21.5420 C   0  0  0  0  0  3  0  0  0  0  0  0
  -24.9050  -28.8710   20.0930 C   0  0  0  0  0  0  0  0  0  0  0  0
  -26.0040  -30.6870   21.3920 C   0  0  0  0  0  2  0  0  0  0  0  0
  -26.0820  -29.3110   20.7120 C   0  0  0  0  0  0  0  0  0  0  0  0
  -27.2520  -28.4660   20.6950 C   0  0  0  0  0  3  0  0  0  0  0  0
  -26.0340  -26.8010   19.4480 C   0  0  0  0  0  3  0  0  0  0  0  0
  -24.8930  -27.6280   19.4460 C   0  0  0  0  0  3  0  0  0  0  0  0
  -23.6760  -29.7630   20.1510 C   0  0  0  0  0  2  0  0  0  0  0  0
  -24.7190  -30.9780   22.1050 N   0  0  0  0  0  0  0  0  0  0  0  0
  -23.5580  -32.0450   23.7470 O   0  0  0  0  0  0  0  0  0  0  0  0
  -22.7700  -29.3850   22.4800 C   0  0  0  0  0  0  0  0  0  0  0  0
  -21.4400  -29.2280   22.3550 N   0  0  0  0  0  0  0  0  0  0  0  0
  -23.4420  -28.7320   23.2840 O   0  0  0  0  0  0  0  0  0  0  0  0
  -20.9570  -29.8050   21.6810 H   0  0  0  0  0  0  0  0  0  0  0  0
  -18.0470  -28.0650   22.8620 C   0  0  0  0  0  0  0  0  0  0  0  0
  -20.6130  -28.2790   23.1060 C   0  0  0  0  0  3  0  0  0  0  0  0
  -20.6840  -26.8650   22.4840 C   0  0  0  0  0  2  0  0  0  0  0  0
  -19.5650  -26.5920   21.4740 C   0  0  0  0  0  2  0  0  0  0  0  0
  -18.1940  -26.7370   22.1400 C   0  0  0  0  0  2  0  0  0  0  0  0
  -19.1820  -28.7960   23.3020 C   0  0  0  0  0  0  0  0  0  0  0  0
  -18.9910  -30.0410   23.9410 C   0  0  0  0  0  3  0  0  0  0  0  0
  -17.6970  -30.5550   24.1430 C   0  0  0  0  0  3  0  0  0  0  0  0
  -16.5760  -29.8210   23.7190 C   0  0  0  0  0  3  0  0  0  0  0  0
  -16.7520  -28.5780   23.0860 C   0  0  0  0  0  3  0  0  0  0  0  0
  -25.9220  -32.3960   23.8570 C   0  0  0  0  0  3  0  0  0  0  0  0
  -25.6140  -33.7930   24.2010 N   0  0  0  0  0  0  0  0  0  0  0  0
  -25.9310  -34.8530   23.4460 C   0  0  0  0  0  0  0  0  0  0  0  0
  -26.5790  -34.7560   22.4020 O   0  0  0  0  0  0  0  0  0  0  0  0
  -25.0330  -33.9380   25.0140 H   0  0  0  0  0  0  0  0  0  0  0  0
  -24.1790  -36.6390   23.1650 C   0  0  0  0  0  1  0  0  0  0  0  0
  -25.4540  -36.2390   23.9250 C   0  0  0  0  0  3  0  0  0  0  0  0
  -27.6100  -37.1440   24.6770 C   0  0  0  0  0  1  0  0  0  0  0  0
  -26.4750  -37.2990   23.7720 N   0  0  0  0  0  0  0  0  0  0  0  0
  -26.0670  -38.2170   23.9290 H   0  0  0  0  0  0  0  0  0  0  0  0
  -26.4170  -31.6100   25.1350 C   0  0  1  0  0  0  0  0  0  0  0  0
  -25.3070  -31.3710   26.1860 C   0  0  0  0  0  1  0  0  0  0  0  0
  -26.9960  -30.2300   24.7460 C   0  0  0  0  0  1  0  0  0  0  0  0
  -27.5630  -32.3920   25.8180 C   0  0  0  0  0  1  0  0  0  0  0  0
  1  3  1  0
  1  2  1  0
  2  4  1  0
  3  6  1  0
  4  5  1  1
  6 10  1  0
  6  4  1  0
  7  8  2  0
  7 10  1  0
  8 11  1  0
 10 12  2  0
 11 22  1  0
 11  9  2  0
 12  9  1  0
 12 13  1  0
 14 22  1  0
 15 20  1  0
 16 17  1  0
 16 15  1  0
 18 17  1  0
 18 27  1  0
 18 19  1  0
 20 14  1  0
 20 19  1  0
 21 14  2  0
 22 23  1  0
 24 25  2  0
 25 44  1  0
 26 25  1  0
 26 29  1  0
 27 28  1  0
 27 24  1  0
 28 26  2  0
 29 30  1  0
 30 31  2  0
 32 35  1  0
 32 31  1  0
 33 32  2  0
 34 33  1  0
 34 29  2  0
 35 36  1  0
 36 41  2  0
 36 37  1  0
 37 38  2  0
 38 39  1  0
 39 43  1  0
 40 39  2  0
 41 40  1  0
 42 41  1  0
 44 45  1  0
 45 48  1  0
 45 47  1  0
 46 44  2  0
 49 24  1  0
 49 50  1  0
 51 49  1  0
 52  4  1  0
 52 53  1  0
 54 65  2  0
 55 53  1  0
 55 60  1  0
 56 64  1  0
 56 66  1  0
 57 63  1  0
 57 59  1  0
 58 64  1  0
 59 58  1  0
 60 59  2  0
 61 55  2  0
 62 61  1  0
 62 57  2  0
 63 56  1  0
 64 54  1  0
 66 68  2  0
 67 66  1  0
 69 67  1  0
 70 79  2  0
 70 75  1  0
 71 67  1  0
 71 75  1  0
 72 71  1  0
 73 74  1  0
 73 72  1  0
 74 70  1  0
 75 76  2  0
 76 77  1  0
 78 77  2  0
 79 78  1  0
 80 54  1  0
 80 81  1  0
 80 90  1  0
 81 84  1  0
 82 86  1  0
 82 81  1  0
 83 82  2  0
 86 85  1  0
 88 86  1  0
 88 89  1  0
 88 87  1  0
 90 93  1  1
 90 91  1  0
 92 90  1  0
M  ISO  4  14 100  22 100  52 101  53 101
M  END
>  <TORSDO>  (1) 
F 18

>  <SCORE>  (1) 
-13.871

>  <name>  (1) 
0

>  <ligand_id>  (1) 
0

>  <original_smiles>  (1) 
[H]c1c([H])c([H])c2c(c1[H])C([H])([H])C([H])([H])C([H])([H])C2([H])N([H])C(=O)C1([H])N(C(=O)C([H])(N([H])C(=O)C([H])(N([H])C([H])([H])[H])C([H])([H])[H])C(C([H])([H])[H])(C([H])([H])[H])C([H])([H])[H])C([H])([H])c2c([H])c(OC([H])([H])C3(C([H])([H])[H])N(c4c([H])c([H])c(N([H])C(=O)N5C([H])([H])C([H])([H])C([H])([H])C([H])(n6nc(-c7c([H])c([H])c(Oc8c([H])c([H])c(F)c([H])c8F)c([H])c7[H])c(C(=O)N([H])[H])c6N([H])[H])C5([H])[H])c([H])c4F)C([H])([H])C([H])([H])C3([H])[H])c([H])c([H])c2C1([H])[H]

>  <smiles>  (1) 
[H]c1c([H])c([H])c2c(c1[H])C([H])([H])C([H])([H])C([H])([H])C2([H])N([H])C(=O)C1([H])N(C(=O)C([H])(N([H])C(=O)C([H])(N([H])C([H])([H])[H])C([H])([H])[H])C(C([H])([H])[H])(C([H])([H])[H])C([H])([H])[H])C([H])([H])c2c([H])c(OC([H])([H])C3(C([H])([H])[H])N(c4c([H])c([H])c(N([H])C(=O)N5C([H])([H])C([H])([H])C([H])([H])C([H])(n6nc(-c7c([H])c([H])c(Oc8c([H])c([H])c(F)c([H])c8F)c([H])c7[H])c(C(=O)N([H])[H])c6N([H])[H])C5([H])[H])c([H])c4F)C([H])([H])C([H])([H])C3([H])[H])c([H])c([H])c2C1([H])[H]

$$$$
1:0:0
     RDKit          3D

 93101  0  0  1  0  0  0  0  0999 V2000
  -29.3970  -21.6750   20.2940 N   0  0  0  0  0  0  0  0  0  0  0  0
  -30.2970  -19.6550   21.3780 C   0  0  0  0  0  3  0  0  0  0  0  0
  -30.4980  -18.2490   21.4710 C   0  0  0  0  0  3  0  0  0  0  0  0
  -29.6210  -19.4270   19.0770 C   0  0  0  0  0  0  0  0  0  0  0  0
  -29.8110  -20.2910   20.2060 C   0  0  0  0  0  0  0  0  0  0  0  0
  -30.2610  -17.3810   20.3780 C   0  0  0  0  0  0  0  0  0  0  0  0
  -29.8510  -18.0080   19.1660 C   0  0  0  0  0  0  0  0  0  0  0  0
  -29.0740  -19.9970   17.7810 C   0  0  0  0  0  1  0  0  0  0  0  0
  -29.5890  -17.2210   18.0940 F   0  0  0  0  0  0  0  0  0  0  0  0
  -30.9410  -14.8940   20.1130 C   0  0  0  0  0  0  0  0  0  0  0  0
  -30.7150  -12.6120   19.1450 C   0  0  0  0  0  2  0  0  0  0  0  0
  -29.7430  -12.6900   17.9470 C   0  0  0  0  0  2  0  0  0  0  0  0
  -28.2820  -12.5400   18.4170 C   0  0  0  0  0  2  0  0  0  0  0  0
  -27.9480  -13.4560   19.6230 C   0  0  0  0  0  3  0  0  0  0  0  0
  -29.0290  -13.3430   20.7220 C   0  0  0  0  0  2  0  0  0  0  0  0
  -30.3300  -13.6640   20.1090 N   0  0  0  0  0  0  0  0  0  0  0  0
  -32.0680  -15.0510   19.6310 O   0  0  0  0  0  0  0  0  0  0  0  0
  -30.2030  -15.9360   20.6030 N   0  0  0  0  0  0  0  0  0  0  0  0
  -29.3850  -15.6380   21.1100 H   0  0  0  0  0  0  0  0  0  0  0  0
  -25.5950  -14.0950   20.4340 C   0  0  0  0  0  0  0  0  0  0  0  0
  -24.5220  -13.3410   20.8240 C   0  0  0  0  0  0  0  0  0  0  0  0
  -24.9500  -11.9800   20.7520 C   0  0  0  0  0  0  0  0  0  0  0  0
  -26.6100  -13.1960   20.1470 N   0  0  0  0  0  0  0  0  0  0  0  0
  -26.2280  -11.9180   20.4000 N   0  0  0  0  0  0  0  0  0  0  0  0
  -24.2020  -10.7320   20.9470 C   0  0  0  0  0  0  0  0  0  0  0  0
  -24.6080   -9.7670   21.8950 C   0  0  0  0  0  3  0  0  0  0  0  0
  -23.8600   -8.5840   22.0760 C   0  0  0  0  0  3  0  0  0  0  0  0
  -22.6940   -8.3560   21.3070 C   0  0  0  0  0  0  0  0  0  0  0  0
  -22.3090   -9.3100   20.3490 C   0  0  0  0  0  3  0  0  0  0  0  0
  -23.0570  -10.4840   20.1660 C   0  0  0  0  0  3  0  0  0  0  0  0
  -21.9170   -7.2260   21.3960 O   0  0  0  0  0  0  0  0  0  0  0  0
  -21.8020   -6.5240   22.5690 C   0  0  0  0  0  0  0  0  0  0  0  0
  -21.2780   -7.1120   23.7410 C   0  0  0  0  0  3  0  0  0  0  0  0
  -21.1090   -6.3340   24.9040 C   0  0  0  0  0  3  0  0  0  0  0  0
  -21.4540   -4.9690   24.8970 C   0  0  0  0  0  0  0  0  0  0  0  0
  -21.9730   -4.3810   23.7300 C   0  0  0  0  0  3  0  0  0  0  0  0
  -22.1440   -5.1560   22.5690 C   0  0  0  0  0  0  0  0  0  0  0  0
  -22.6220   -4.5770   21.4420 F   0  0  0  0  0  0  0  0  0  0  0  0
  -21.2870   -4.2220   26.0130 F   0  0  0  0  0  0  0  0  0  0  0  0
  -23.1470  -13.8440   21.1540 C   0  0  0  0  0  0  0  0  0  0  0  0
  -22.4360  -13.1520   22.0380 N   0  0  0  0  0  0  0  0  0  0  0  0
  -22.7140  -14.8830   20.6600 O   0  0  0  0  0  0  0  0  0  0  0  0
  -22.7990  -12.3100   22.4590 H   0  0  0  0  0  0  0  0  0  0  0  0
  -21.5150  -13.4740   22.3010 H   0  0  0  0  0  0  0  0  0  0  0  0
  -25.7890  -15.4640   20.2760 N   0  0  0  0  0  0  0  0  0  0  0  0
  -25.0510  -16.1380   20.4380 H   0  0  0  0  0  0  0  0  0  0  0  0
  -26.6330  -15.8820   19.9040 H   0  0  0  0  0  0  0  0  0  0  0  0
  -27.9350  -22.4690   22.1460 C   0  0  0  0  0  1  0  0  0  0  0  0
  -28.0180  -21.8000   20.7700 C   0  0  0  0  0  2  0  0  0  0  0  0
  -29.8430  -22.7940   19.4070 C   0  0  0  0  0  2  0  0  0  0  0  0
  -29.7400  -24.2920   19.9810 C   0  0  0  0  0  3  0  0  0  0  0  0
  -28.5810  -25.2670   19.4900 C   0  0  0  0  0  3  0  0  0  0  0  0
  -28.6490  -26.7050   19.8550 O   0  0  0  0  0  0  0  0  0  0  0  0
  -24.6870  -31.7620   23.1490 C   0  0  0  0  0  0  0  0  0  0  0  0
  -27.4810  -27.4890   19.8440 C   0  0  0  0  0  0  0  0  0  0  0  0
  -23.5340  -30.4030   21.4380 C   0  0  0  0  0  3  0  0  0  0  0  0
  -25.0410  -28.9900   19.9270 C   0  0  0  0  0  0  0  0  0  0  0  0
  -26.0560  -30.8340   21.2660 C   0  0  0  0  0  2  0  0  0  0  0  0
  -26.1880  -29.4950   20.5520 C   0  0  0  0  0  0  0  0  0  0  0  0
  -27.4080  -28.7560   20.5070 C   0  0  0  0  0  3  0  0  0  0  0  0
  -26.3090  -27.0440   19.1900 C   0  0  0  0  0  3  0  0  0  0  0  0
  -25.1040  -27.7710   19.2350 C   0  0  0  0  0  3  0  0  0  0  0  0
  -23.7660  -29.8020   20.0260 C   0  0  0  0  0  2  0  0  0  0  0  0
  -24.7770  -31.0160   22.0080 N   0  0  0  0  0  0  0  0  0  0  0  0
  -23.5950  -31.9680   23.6990 O   0  0  0  0  0  0  0  0  0  0  0  0
  -22.9160  -29.3160   22.3480 C   0  0  0  0  0  0  0  0  0  0  0  0
  -21.6000  -29.0850   22.2080 N   0  0  0  0  0  0  0  0  0  0  0  0
  -23.6210  -28.6810   23.1390 O   0  0  0  0  0  0  0  0  0  0  0  0
  -21.0910  -29.6510   21.5420 H   0  0  0  0  0  0  0  0  0  0  0  0
  -18.2750  -27.7270   22.6400 C   0  0  0  0  0  0  0  0  0  0  0  0
  -20.8230  -28.0780   22.9300 C   0  0  0  0  0  3  0  0  0  0  0  0
  -20.9840  -26.6840   22.2840 C   0  0  0  0  0  2  0  0  0  0  0  0
  -19.8990  -26.3770   21.2450 C   0  0  0  0  0  2  0  0  0  0  0  0
  -18.5080  -26.4280   21.8860 C   0  0  0  0  0  2  0  0  0  0  0  0
  -19.3620  -28.5090   23.1120 C   0  0  0  0  0  0  0  0  0  0  0  0
  -19.0930  -29.7290   23.7700 C   0  0  0  0  0  3  0  0  0  0  0  0
  -17.7680  -30.1680   23.9590 C   0  0  0  0  0  3  0  0  0  0  0  0
  -16.6950  -29.3810   23.5030 C   0  0  0  0  0  3  0  0  0  0  0  0
  -16.9500  -28.1610   22.8530 C   0  0  0  0  0  3  0  0  0  0  0  0
  -25.9470  -32.4120   23.7990 C   0  0  0  0  0  3  0  0  0  0  0  0
  -25.6040  -33.8010   24.1420 N   0  0  0  0  0  0  0  0  0  0  0  0
  -25.9270  -34.8700   23.4020 C   0  0  0  0  0  0  0  0  0  0  0  0
  -26.6130  -34.7930   22.3780 O   0  0  0  0  0  0  0  0  0  0  0  0
  -24.9920  -33.9310   24.9340 H   0  0  0  0  0  0  0  0  0  0  0  0
  -24.1690  -36.6350   23.0440 C   0  0  0  0  0  1  0  0  0  0  0  0
  -25.4070  -36.2450   23.8680 C   0  0  0  0  0  3  0  0  0  0  0  0
  -27.5050  -37.1680   24.7490 C   0  0  0  0  0  1  0  0  0  0  0  0
  -26.4200  -37.3190   23.7820 N   0  0  0  0  0  0  0  0  0  0  0  0
  -25.9930  -38.2300   23.9250 H   0  0  0  0  0  0  0  0  0  0  0  0
  -26.4560  -31.6360   25.0750 C   0  0  1  0  0  0  0  0  0  0  0  0
  -25.3490  -31.3600   26.1190 C   0  0  0  0  0  1  0  0  0  0  0  0
  -27.0740  -30.2780   24.6730 C   0  0  0  0  0  1  0  0  0  0  0  0
  -27.5790  -32.4460   25.7680 C   0  0  0  0  0  1  0  0  0  0  0  0
  1 49  1  0
  2  3  1  0
  4  7  2  0
  4  5  1  0
  5  1  1  0
  5  2  2  0
  6 18  1  0
  6  3  2  0
  7  6  1  0
  8  4  1  0
  9  7  1  0
 10 18  1  0
 11 16  1  0
 12 13  1  0
 12 11  1  0
 14 13  1  0
 14 23  1  0
 14 15  1  0
 16 10  1  0
 16 15  1  0
 17 10  2  0
 18 19  1  0
 20 21  2  0
 21 40  1  0
 22 21  1  0
 22 25  1  0
 23 24  1  0
 23 20  1  0
 24 22  2  0
 25 26  1  0
 26 27  2  0
 28 31  1  0
 28 27  1  0
 29 28  2  0
 30 29  1  0
 30 25  2  0
 31 32  1  0
 32 37  2  0
 32 33  1  0
 33 34  2  0
 35 34  1  0
 35 39  1  0
 36 35  2  0
 37 36  1  0
 38 37  1  0
 40 41  1  0
 41 44  1  0
 41 43  1  0
 42 40  2  0
 45 20  1  0
 45 46  1  0
 47 45  1  0
 49 48  1  0
 50 51  1  0
 50  1  1  0
 52 53  1  0
 52 51  2  0
 54 65  2  0
 55 53  1  0
 55 60  1  0
 56 64  1  0
 56 66  1  0
 57 63  1  0
 57 59  1  0
 58 64  1  0
 59 58  1  0
 60 59  2  0
 61 62  1  0
 61 55  2  0
 62 57  2  0
 63 56  1  0
 64 54  1  0
 66 68  2  0
 67 66  1  0
 69 67  1  0
 70 79  2  0
 70 75  1  0
 71 67  1  0
 71 75  1  0
 72 71  1  0
 73 74  1  0
 73 72  1  0
 74 70  1  0
 75 76  2  0
 76 77  1  0
 78 77  2  0
 79 78  1  0
 80 54  1  0
 80 81  1  0
 80 90  1  0
 81 84  1  0
 82 86  1  0
 82 81  1  0
 83 82  2  0
 86 85  1  0
 88 86  1  0
 88 89  1  0
 88 87  1  0
 90 93  1  1
 90 91  1  0
 92 90  1  0
M  ISO  4  10 100  18 100  52 101  53 101
M  END
>  <TORSDO>  (2) 
F 21

>  <SCORE>  (2) 
-12.799

>  <name>  (2) 
1

>  <ligand_id>  (2) 
1

>  <original_smiles>  (2) 
[H]c1c([H])c([H])c2c(c1[H])C([H])([H])C([H])([H])C([H])([H])C2([H])N([H])C(=O)C1([H])N(C(=O)C([H])(N([H])C(=O)C([H])(N([H])C([H])([H])[H])C([H])([H])[H])C(C([H])([H])[H])(C([H])([H])[H])C([H])([H])[H])C([H])([H])c2c([H])c(OC([H])([H])C([H])([H])C([H])([H])N(c3c([H])c([H])c(N([H])C(=O)N4C([H])([H])C([H])([H])C([H])([H])C([H])(n5nc(-c6c([H])c([H])c(Oc7c([H])c([H])c(F)c([H])c7F)c([H])c6[H])c(C(=O)N([H])[H])c5N([H])[H])C4([H])[H])c(F)c3C([H])([H])[H])C([H])([H])C([H])([H])[H])c([H])c([H])c2C1([H])[H]

>  <smiles>  (2) 
[H]c1c([H])c([H])c2c(c1[H])C([H])([H])C([H])([H])C([H])([H])C2([H])N([H])C(=O)C1([H])N(C(=O)C([H])(N([H])C(=O)C([H])(N([H])C([H])([H])[H])C([H])([H])[H])C(C([H])([H])[H])(C([H])([H])[H])C([H])([H])[H])C([H])([H])c2c([H])c(OC([H])([H])C([H])([H])C([H])([H])N(c3c([H])c([H])c(N([H])C(=O)N4C([H])([H])C([H])([H])C([H])([H])C([H])(n5nc(-c6c([H])c([H])c(Oc7c([H])c([H])c(F)c([H])c7F)c([H])c6[H])c(C(=O)N([H])[H])c5N([H])[H])C4([H])[H])c(F)c3C([H])([H])[H])C([H])([H])C([H])([H])[H])c([H])c([H])c2C1([H])[H]

$$$$
2:0:0
     RDKit          3D

 93102  0  0  1  0  0  0  0  0999 V2000
  -28.8310  -22.5240   20.6040 C   0  0  0  0  0  0  0  0  0  0  0  0
  -30.4040  -23.8590   19.4380 C   0  0  0  0  0  2  0  0  0  0  0  0
  -30.8770  -22.3960   19.5930 C   0  0  0  0  0  2  0  0  0  0  0  0
  -29.2510  -24.0240   20.4280 C   0  0  0  0  0  3  0  0  0  0  0  0
  -29.7780  -21.6240   20.1850 N   0  0  0  0  0  0  0  0  0  0  0  0
  -27.7370  -22.2350   21.0960 O   0  0  0  0  0  0  0  0  0  0  0  0
  -28.6960  -19.3560   20.6970 C   0  0  0  0  0  3  0  0  0  0  0  0
  -28.7400  -17.9340   20.7860 C   0  0  0  0  0  3  0  0  0  0  0  0
  -31.0290  -17.9450   20.0850 C   0  0  0  0  0  3  0  0  0  0  0  0
  -29.8160  -20.1390   20.2940 C   0  0  0  0  0  0  0  0  0  0  0  0
  -29.9000  -17.1790   20.4750 C   0  0  0  0  0  0  0  0  0  0  0  0
  -30.9930  -19.3710   20.0010 C   0  0  0  0  0  0  0  0  0  0  0  0
  -32.1420  -19.9870   19.6360 F   0  0  0  0  0  0  0  0  0  0  0  0
  -30.6140  -14.6980   20.0950 C   0  0  0  0  0  0  0  0  0  0  0  0
  -30.3500  -12.4960   18.9680 C   0  0  0  0  0  2  0  0  0  0  0  0
  -29.3350  -12.6600   17.8150 C   0  0  0  0  0  2  0  0  0  0  0  0
  -27.8900  -12.4800   18.3240 C   0  0  0  0  0  2  0  0  0  0  0  0
  -27.6030  -13.3080   19.6040 C   0  0  0  0  0  3  0  0  0  0  0  0
  -28.7210  -13.1120   20.6530 C   0  0  0  0  0  2  0  0  0  0  0  0
  -29.9990  -13.4750   20.0170 N   0  0  0  0  0  0  0  0  0  0  0  0
  -31.7420  -14.8800   19.6260 O   0  0  0  0  0  0  0  0  0  0  0  0
  -29.8350  -15.7170   20.5770 N   0  0  0  0  0  0  0  0  0  0  0  0
  -28.9700  -15.3710   20.9620 H   0  0  0  0  0  0  0  0  0  0  0  0
  -25.2520  -13.8880   20.4700 C   0  0  0  0  0  0  0  0  0  0  0  0
  -24.2050  -13.1050   20.8750 C   0  0  0  0  0  0  0  0  0  0  0  0
  -24.6640  -11.7550   20.7780 C   0  0  0  0  0  0  0  0  0  0  0  0
  -26.2810  -13.0150   20.1530 N   0  0  0  0  0  0  0  0  0  0  0  0
  -25.9340  -11.7240   20.3980 N   0  0  0  0  0  0  0  0  0  0  0  0
  -23.9460  -10.4870   20.9690 C   0  0  0  0  0  0  0  0  0  0  0  0
  -24.3930   -9.5190   21.8970 C   0  0  0  0  0  3  0  0  0  0  0  0
  -23.6760   -8.3160   22.0760 C   0  0  0  0  0  3  0  0  0  0  0  0
  -22.4990   -8.0720   21.3280 C   0  0  0  0  0  0  0  0  0  0  0  0
  -22.0740   -9.0280   20.3890 C   0  0  0  0  0  3  0  0  0  0  0  0
  -22.7910  -10.2230   20.2080 C   0  0  0  0  0  3  0  0  0  0  0  0
  -21.7540   -6.9210   21.4170 O   0  0  0  0  0  0  0  0  0  0  0  0
  -21.6650   -6.2100   22.5860 C   0  0  0  0  0  0  0  0  0  0  0  0
  -21.1640   -6.7870   23.7730 C   0  0  0  0  0  3  0  0  0  0  0  0
  -21.0270   -6.0010   24.9350 C   0  0  0  0  0  3  0  0  0  0  0  0
  -21.3780   -4.6370   24.9090 C   0  0  0  0  0  0  0  0  0  0  0  0
  -21.8710   -4.0590   23.7260 C   0  0  0  0  0  3  0  0  0  0  0  0
  -22.0110   -4.8430   22.5670 C   0  0  0  0  0  0  0  0  0  0  0  0
  -22.4670   -4.2770   21.4230 F   0  0  0  0  0  0  0  0  0  0  0  0
  -21.2380   -3.8800   26.0210 F   0  0  0  0  0  0  0  0  0  0  0  0
  -22.8270  -13.5730   21.2390 C   0  0  0  0  0  0  0  0  0  0  0  0
  -22.1470  -12.8520   22.1240 N   0  0  0  0  0  0  0  0  0  0  0  0
  -22.3620  -14.6150   20.7760 O   0  0  0  0  0  0  0  0  0  0  0  0
  -22.5340  -12.0080   22.5170 H   0  0  0  0  0  0  0  0  0  0  0  0
  -21.2250  -13.1470   22.4110 H   0  0  0  0  0  0  0  0  0  0  0  0
  -25.4090  -15.2640   20.3240 N   0  0  0  0  0  0  0  0  0  0  0  0
  -24.6440  -15.9100   20.4830 H   0  0  0  0  0  0  0  0  0  0  0  0
  -26.2270  -15.7100   19.9290 H   0  0  0  0  0  0  0  0  0  0  0  0
  -28.1330  -25.0870   20.0260 C   0  0  0  0  0  2  0  0  0  0  0  0
  -28.3470  -26.5390   20.2410 O   0  0  0  0  0  0  0  0  0  0  0  0
  -24.6150  -31.9090   23.2900 C   0  0  0  0  0  0  0  0  0  0  0  0
  -27.2220  -27.3800   20.1950 C   0  0  0  0  0  0  0  0  0  0  0  0
  -23.4040  -30.5230   21.6440 C   0  0  0  0  0  3  0  0  0  0  0  0
  -24.8490  -28.9830   20.2040 C   0  0  0  0  0  0  0  0  0  0  0  0
  -25.9410  -30.8440   21.4540 C   0  0  0  0  0  2  0  0  0  0  0  0
  -26.0190  -29.4700   20.7990 C   0  0  0  0  0  0  0  0  0  0  0  0
  -27.2080  -28.6820   20.7830 C   0  0  0  0  0  3  0  0  0  0  0  0
  -26.0250  -26.9460   19.5750 C   0  0  0  0  0  3  0  0  0  0  0  0
  -24.8530  -27.7260   19.5840 C   0  0  0  0  0  3  0  0  0  0  0  0
  -23.6120  -29.8560   20.2600 C   0  0  0  0  0  2  0  0  0  0  0  0
  -24.6720  -31.1080   22.1870 N   0  0  0  0  0  0  0  0  0  0  0  0
  -23.5330  -32.1840   23.8300 O   0  0  0  0  0  0  0  0  0  0  0  0
  -22.7420  -29.5010   22.6000 C   0  0  0  0  0  0  0  0  0  0  0  0
  -21.4180  -29.3210   22.4680 N   0  0  0  0  0  0  0  0  0  0  0  0
  -23.4200  -28.8750   23.4180 O   0  0  0  0  0  0  0  0  0  0  0  0
  -20.9290  -29.8800   21.7820 H   0  0  0  0  0  0  0  0  0  0  0  0
  -18.0410  -28.1180   22.9540 C   0  0  0  0  0  0  0  0  0  0  0  0
  -20.5990  -28.3790   23.2320 C   0  0  0  0  0  3  0  0  0  0  0  0
  -20.7040  -26.9500   22.6510 C   0  0  0  0  0  2  0  0  0  0  0  0
  -19.6040  -26.6300   21.6320 C   0  0  0  0  0  2  0  0  0  0  0  0
  -18.2210  -26.7710   22.2730 C   0  0  0  0  0  2  0  0  0  0  0  0
  -19.1580  -28.8800   23.3890 C   0  0  0  0  0  0  0  0  0  0  0  0
  -18.9370  -30.1420   23.9840 C   0  0  0  0  0  3  0  0  0  0  0  0
  -17.6310  -30.6400   24.1510 C   0  0  0  0  0  3  0  0  0  0  0  0
  -16.5290  -29.8760   23.7300 C   0  0  0  0  0  3  0  0  0  0  0  0
  -16.7340  -28.6170   23.1370 C   0  0  0  0  0  3  0  0  0  0  0  0
  -25.9010  -32.5340   23.9140 C   0  0  0  0  0  3  0  0  0  0  0  0
  -25.6010  -33.9350   24.2390 N   0  0  0  0  0  0  0  0  0  0  0  0
  -25.9140  -34.9820   23.4640 C   0  0  0  0  0  0  0  0  0  0  0  0
  -26.5580  -34.8710   22.4170 O   0  0  0  0  0  0  0  0  0  0  0  0
  -25.0310  -34.0980   25.0560 H   0  0  0  0  0  0  0  0  0  0  0  0
  -24.1620  -36.7600   23.1610 C   0  0  0  0  0  1  0  0  0  0  0  0
  -25.4390  -36.3740   23.9250 C   0  0  0  0  0  3  0  0  0  0  0  0
  -27.5990  -37.2830   24.6590 C   0  0  0  0  0  1  0  0  0  0  0  0
  -26.4600  -37.4300   23.7560 N   0  0  0  0  0  0  0  0  0  0  0  0
  -26.0530  -38.3490   23.9070 H   0  0  0  0  0  0  0  0  0  0  0  0
  -26.4080  -31.7630   25.1930 C   0  0  1  0  0  0  0  0  0  0  0  0
  -25.3100  -31.5330   26.2570 C   0  0  0  0  0  1  0  0  0  0  0  0
  -26.9880  -30.3830   24.8040 C   0  0  0  0  0  1  0  0  0  0  0  0
  -27.5590  -32.5550   25.8590 C   0  0  0  0  0  1  0  0  0  0  0  0
  1  6  2  0
  2  3  1  0
  2  4  1  0
  3  5  1  0
  4 52  1  0
  4  1  1  0
  5 10  1  0
  5  1  1  0
  7  8  1  0
  9 11  1  0
 10  7  2  0
 11 22  1  0
 11  8  2  0
 12  9  2  0
 12 10  1  0
 13 12  1  0
 14 22  1  0
 15 20  1  0
 16 17  1  0
 16 15  1  0
 18 17  1  0
 18 27  1  0
 18 19  1  0
 20 14  1  0
 20 19  1  0
 21 14  2  0
 22 23  1  0
 24 25  2  0
 25 44  1  0
 26 25  1  0
 26 29  1  0
 27 28  1  0
 27 24  1  0
 28 26  2  0
 29 30  1  0
 30 31  2  0
 32 35  1  0
 32 31  1  0
 33 32  2  0
 34 33  1  0
 34 29  2  0
 35 36  1  0
 36 37  1  0
 37 38  2  0
 39 38  1  0
 39 43  1  0
 40 39  2  0
 41 36  2  0
 41 40  1  0
 42 41  1  0
 44 45  1  0
 45 48  1  0
 45 47  1  0
 46 44  2  0
 49 24  1  0
 49 50  1  0
 51 49  1  0
 52 53  1  0
 54 65  2  0
 55 53  1  0
 55 60  1  0
 56 64  1  0
 56 66  1  0
 57 63  1  0
 57 59  1  0
 58 64  1  0
 59 58  1  0
 60 59  2  0
 61 62  1  0
 61 55  2  0
 62 57  2  0
 63 56  1  0
 64 54  1  0
 66 68  2  0
 67 66  1  0
 69 67  1  0
 70 79  2  0
 70 75  1  0
 71 67  1  0
 71 75  1  0
 72 71  1  0
 73 74  1  0
 73 72  1  0
 74 70  1  0
 75 76  2  0
 76 77  1  0
 78 77  2  0
 79 78  1  0
 80 54  1  0
 80 81  1  0
 80 90  1  0
 81 84  1  0
 82 86  1  0
 82 81  1  0
 83 82  2  0
 86 85  1  0
 88 89  1  0
 88 86  1  0
 88 87  1  0
 90 93  1  1
 90 91  1  0
 92 90  1  0
M  ISO  4  14 100  22 100  52 101  53 101
M  END
>  <TORSDO>  (3) 
F 18

>  <SCORE>  (3) 
-14.643

>  <name>  (3) 
2

>  <ligand_id>  (3) 
2

>  <original_smiles>  (3) 
[H]c1c([H])c([H])c2c(c1[H])C([H])([H])C([H])([H])C([H])([H])C2([H])N([H])C(=O)C1([H])N(C(=O)C([H])(N([H])C(=O)C([H])(N([H])C([H])([H])[H])C([H])([H])[H])C(C([H])([H])[H])(C([H])([H])[H])C([H])([H])[H])C([H])([H])c2c([H])c(OC([H])([H])C3([H])C(=O)N(c4c([H])c([H])c(N([H])C(=O)N5C([H])([H])C([H])([H])C([H])([H])C([H])(n6nc(-c7c([H])c([H])c(Oc8c([H])c([H])c(F)c([H])c8F)c([H])c7[H])c(C(=O)N([H])[H])c6N([H])[H])C5([H])[H])c([H])c4F)C([H])([H])C3([H])[H])c([H])c([H])c2C1([H])[H]

>  <smiles>  (3) 
[H]c1c([H])c([H])c2c(c1[H])C([H])([H])C([H])([H])C([H])([H])C2([H])N([H])C(=O)C1([H])N(C(=O)C([H])(N([H])C(=O)C([H])(N([H])C([H])([H])[H])C([H])([H])[H])C(C([H])([H])[H])(C([H])([H])[H])C([H])([H])[H])C([H])([H])c2c([H])c(OC([H])([H])C3([H])C(=O)N(c4c([H])c([H])c(N([H])C(=O)N5C([H])([H])C([H])([H])C([H])([H])C([H])(n6nc(-c7c([H])c([H])c(Oc8c([H])c([H])c(F)c([H])c8F)c([H])c7[H])c(C(=O)N([H])[H])c6N([H])[H])C5([H])[H])c([H])c4F)C([H])([H])C3([H])[H])c([H])c([H])c2C1([H])[H]

$$$$
3:0:0
     RDKit          3D

 92100  0  0  1  0  0  0  0  0999 V2000
  -29.9430  -19.2370   19.8390 C   0  0  0  0  0  3  0  0  0  0  0  0
  -28.2820  -17.4600   19.7190 C   0  0  0  0  0  3  0  0  0  0  0  0
  -27.5880  -19.8050   19.6700 C   0  0  0  0  0  3  0  0  0  0  0  0
  -29.6330  -17.8520   19.8340 C   0  0  0  0  0  0  0  0  0  0  0  0
  -28.9350  -20.2300   19.7480 C   0  0  0  0  0  0  0  0  0  0  0  0
  -27.2660  -18.4320   19.6520 C   0  0  0  0  0  0  0  0  0  0  0  0
  -25.9700  -18.0480   19.5590 F   0  0  0  0  0  0  0  0  0  0  0  0
  -29.3100  -21.5930   19.7180 N   0  0  0  0  0  0  0  0  0  0  0  0
  -30.3040  -21.8030   19.7890 H   0  0  0  0  0  0  0  0  0  0  0  0
  -28.3760  -22.6490   20.1330 C   0  0  0  0  0  2  0  0  0  0  0  0
  -28.8210  -24.0850   19.7500 C   0  0  0  0  0  2  0  0  0  0  0  0
  -28.0100  -25.1640   20.5110 C   0  0  0  0  0  2  0  0  0  0  0  0
  -28.2570  -26.5170   20.0810 O   0  0  0  0  0  0  0  0  0  0  0  0
  -24.6280  -31.7110   23.3540 C   0  0  0  0  0  0  0  0  0  0  0  0
  -27.1370  -27.3220   20.0930 C   0  0  0  0  0  0  0  0  0  0  0  0
  -23.3870  -30.4270   21.6430 C   0  0  0  0  0  3  0  0  0  0  0  0
  -24.7990  -28.9080   20.1560 C   0  0  0  0  0  0  0  0  0  0  0  0
  -25.9250  -30.7090   21.4750 C   0  0  0  0  0  2  0  0  0  0  0  0
  -25.9710  -29.3670   20.7720 C   0  0  0  0  0  0  0  0  0  0  0  0
  -27.1480  -28.5820   20.7340 C   0  0  0  0  0  3  0  0  0  0  0  0
  -25.9530  -26.8810   19.4660 C   0  0  0  0  0  3  0  0  0  0  0  0
  -24.7840  -27.6650   19.4990 C   0  0  0  0  0  3  0  0  0  0  0  0
  -23.5830  -29.8040   20.2360 C   0  0  0  0  0  2  0  0  0  0  0  0
  -24.6650  -30.9610   22.2170 N   0  0  0  0  0  0  0  0  0  0  0  0
  -23.5540  -31.9950   23.9000 O   0  0  0  0  0  0  0  0  0  0  0  0
  -22.6950  -29.3870   22.5530 C   0  0  0  0  0  0  0  0  0  0  0  0
  -21.3660  -29.2550   22.4070 N   0  0  0  0  0  0  0  0  0  0  0  0
  -23.3500  -28.7020   23.3440 O   0  0  0  0  0  0  0  0  0  0  0  0
  -20.9000  -29.8580   21.7430 H   0  0  0  0  0  0  0  0  0  0  0  0
  -17.9490  -28.1640   22.8320 C   0  0  0  0  0  0  0  0  0  0  0  0
  -20.5120  -28.3110   23.1270 C   0  0  0  0  0  3  0  0  0  0  0  0
  -20.5650  -26.9080   22.4820 C   0  0  0  0  0  2  0  0  0  0  0  0
  -19.4580  -26.6770   21.4480 C   0  0  0  0  0  2  0  0  0  0  0  0
  -18.0790  -26.8430   22.0920 C   0  0  0  0  0  2  0  0  0  0  0  0
  -19.0920  -28.8610   23.3040 C   0  0  0  0  0  0  0  0  0  0  0  0
  -18.9180  -30.1030   23.9540 C   0  0  0  0  0  3  0  0  0  0  0  0
  -17.6320  -30.6450   24.1360 C   0  0  0  0  0  3  0  0  0  0  0  0
  -16.5020  -29.9430   23.6810 C   0  0  0  0  0  3  0  0  0  0  0  0
  -16.6610  -28.7030   23.0350 C   0  0  0  0  0  3  0  0  0  0  0  0
  -25.9310  -32.2670   24.0100 C   0  0  0  0  0  3  0  0  0  0  0  0
  -25.6870  -33.6730   24.3560 N   0  0  0  0  0  0  0  0  0  0  0  0
  -26.0880  -34.7180   23.6170 C   0  0  0  0  0  0  0  0  0  0  0  0
  -26.7730  -34.5940   22.5980 O   0  0  0  0  0  0  0  0  0  0  0  0
  -25.0840  -33.8470   25.1460 H   0  0  0  0  0  0  0  0  0  0  0  0
  -24.4510  -36.5940   23.2620 C   0  0  0  0  0  1  0  0  0  0  0  0
  -25.6590  -36.1220   24.0860 C   0  0  0  0  0  3  0  0  0  0  0  0
  -27.8200  -36.8950   24.9560 C   0  0  0  0  0  1  0  0  0  0  0  0
  -26.7410  -37.1260   24.0000 N   0  0  0  0  0  0  0  0  0  0  0  0
  -26.3770  -38.0620   24.1510 H   0  0  0  0  0  0  0  0  0  0  0  0
  -26.3860  -31.4500   25.2820 C   0  0  1  0  0  0  0  0  0  0  0  0
  -25.2600  -31.2430   26.3220 C   0  0  0  0  0  1  0  0  0  0  0  0
  -26.9160  -30.0560   24.8750 C   0  0  0  0  0  1  0  0  0  0  0  0
  -27.5550  -32.1800   25.9850 C   0  0  0  0  0  1  0  0  0  0  0  0
  -30.7840  -16.8360   19.9050 C   0  0  0  0  0  2  0  0  0  0  0  0
  -31.2280  -14.4800   20.2250 C   0  0  0  0  0  0  0  0  0  0  0  0
  -30.8390  -12.2360   19.2690 C   0  0  0  0  0  2  0  0  0  0  0  0
  -29.9170  -12.3430   18.0370 C   0  0  0  0  0  2  0  0  0  0  0  0
  -28.4380  -12.2850   18.4630 C   0  0  0  0  0  2  0  0  0  0  0  0
  -28.1140  -13.2560   19.6300 C   0  0  0  0  0  3  0  0  0  0  0  0
  -29.1510  -13.1290   20.7660 C   0  0  0  0  0  2  0  0  0  0  0  0
  -30.4910  -13.3330   20.1900 N   0  0  0  0  0  0  0  0  0  0  0  0
  -32.3230  -14.5670   19.6600 O   0  0  0  0  0  0  0  0  0  0  0  0
  -30.6590  -15.8120   22.1650 C   0  0  0  0  0  1  0  0  0  0  0  0
  -30.6220  -15.5980   20.7090 N   0  0  0  0  0  0  0  0  0  0  0  0
  -25.7670  -14.0110   20.3640 C   0  0  0  0  0  0  0  0  0  0  0  0
  -24.6550  -13.3070   20.7400 C   0  0  0  0  0  0  0  0  0  0  0  0
  -25.0290  -11.9290   20.7000 C   0  0  0  0  0  0  0  0  0  0  0  0
  -26.7510  -13.0660   20.1200 N   0  0  0  0  0  0  0  0  0  0  0  0
  -26.3100  -11.8080   20.3790 N   0  0  0  0  0  0  0  0  0  0  0  0
  -24.2260  -10.7150   20.8930 C   0  0  0  0  0  0  0  0  0  0  0  0
  -24.6070   -9.7150   21.8150 C   0  0  0  0  0  3  0  0  0  0  0  0
  -23.8090   -8.5660   21.9960 C   0  0  0  0  0  3  0  0  0  0  0  0
  -22.6120   -8.4090   21.2550 C   0  0  0  0  0  0  0  0  0  0  0  0
  -22.2490   -9.3960   20.3230 C   0  0  0  0  0  3  0  0  0  0  0  0
  -23.0480  -10.5360   20.1390 C   0  0  0  0  0  3  0  0  0  0  0  0
  -21.7870   -7.3130   21.3480 O   0  0  0  0  0  0  0  0  0  0  0  0
  -21.7100   -6.5650   22.4940 C   0  0  0  0  0  0  0  0  0  0  0  0
  -21.3390   -7.1340   23.7310 C   0  0  0  0  0  3  0  0  0  0  0  0
  -21.2030   -6.3150   24.8710 C   0  0  0  0  0  3  0  0  0  0  0  0
  -21.4280   -4.9290   24.7730 C   0  0  0  0  0  0  0  0  0  0  0  0
  -21.7910   -4.3600   23.5400 C   0  0  0  0  0  3  0  0  0  0  0  0
  -21.9290   -5.1760   22.4030 C   0  0  0  0  0  0  0  0  0  0  0  0
  -22.2580   -4.6180   21.2130 F   0  0  0  0  0  0  0  0  0  0  0  0
  -21.2910   -4.1410   25.8650 F   0  0  0  0  0  0  0  0  0  0  0  0
  -23.2950  -13.8720   21.0290 C   0  0  0  0  0  0  0  0  0  0  0  0
  -22.5390  -13.2280   21.9120 N   0  0  0  0  0  0  0  0  0  0  0  0
  -22.9120  -14.9180   20.5070 O   0  0  0  0  0  0  0  0  0  0  0  0
  -22.8630  -12.3800   22.3550 H   0  0  0  0  0  0  0  0  0  0  0  0
  -21.6250  -13.5870   22.1480 H   0  0  0  0  0  0  0  0  0  0  0  0
  -26.0200  -15.3680   20.1910 N   0  0  0  0  0  0  0  0  0  0  0  0
  -25.3070  -16.0750   20.3320 H   0  0  0  0  0  0  0  0  0  0  0  0
  -26.8980  -15.7510   19.8670 H   0  0  0  0  0  0  0  0  0  0  0  0
  2  4  2  0
  3  5  1  0
  4  1  1  0
  4 54  1  0
  5  1  2  0
  6  3  2  0
  6  2  1  0
  7  6  1  0
  8  5  1  0
  8  9  1  0
  8 10  1  0
 11 10  1  0
 11 12  1  0
 13 15  1  0
 13 12  1  0
 14 25  2  0
 15 20  1  0
 16 24  1  0
 16 26  1  0
 17 23  1  0
 17 19  1  0
 18 24  1  0
 19 18  1  0
 20 19  2  0
 21 22  1  0
 21 15  2  0
 22 17  2  0
 23 16  1  0
 24 14  1  0
 26 28  2  0
 27 26  1  0
 29 27  1  0
 30 39  2  0
 30 35  1  0
 31 27  1  0
 31 35  1  0
 32 31  1  0
 33 34  1  0
 33 32  1  0
 34 30  1  0
 35 36  2  0
 36 37  1  0
 38 37  2  0
 39 38  1  0
 40 14  1  0
 40 41  1  0
 40 50  1  0
 41 44  1  0
 42 46  1  0
 42 41  1  0
 43 42  2  0
 46 45  1  0
 48 46  1  0
 48 49  1  0
 48 47  1  0
 50 53  1  1
 50 51  1  0
 52 50  1  0
 54 64  1  0
 55 64  1  0
 56 61  1  0
 57 58  1  0
 57 56  1  0
 59 58  1  0
 59 68  1  0
 59 60  1  0
 61 55  1  0
 61 60  1  0
 62 55  2  0
 64 63  1  0
 65 66  2  0
 66 85  1  0
 67 66  1  0
 67 70  1  0
 68 65  1  0
 68 69  1  0
 69 67  2  0
 70 71  1  0
 71 72  2  0
 73 76  1  0
 73 72  1  0
 74 73  2  0
 75 74  1  0
 75 70  2  0
 76 77  1  0
 77 78  1  0
 78 79  2  0
 80 79  1  0
 80 84  1  0
 81 80  2  0
 82 77  2  0
 82 81  1  0
 83 82  1  0
 85 86  1  0
 86 89  1  0
 86 88  1  0
 87 85  2  0
 90 91  1  0
 90 65  1  0
 92 90  1  0
M  ISO  4  12 101  13 101  55 100  64 100
M  END
>  <TORSDO>  (4) 
F 21

>  <SCORE>  (4) 
-12.993

>  <name>  (4) 
3

>  <ligand_id>  (4) 
3

>  <original_smiles>  (4) 
[H]c1c([H])c([H])c2c(c1[H])C([H])([H])C([H])([H])C([H])([H])C2([H])N([H])C(=O)C1([H])N(C(=O)C([H])(N([H])C(=O)C([H])(N([H])C([H])([H])[H])C([H])([H])[H])C(C([H])([H])[H])(C([H])([H])[H])C([H])([H])[H])C([H])([H])c2c([H])c(OC([H])([H])C([H])([H])C([H])([H])N([H])c3c([H])c(F)c([H])c(C([H])([H])N(C(=O)N4C([H])([H])C([H])([H])C([H])([H])C([H])(n5nc(-c6c([H])c([H])c(Oc7c([H])c([H])c(F)c([H])c7F)c([H])c6[H])c(C(=O)N([H])[H])c5N([H])[H])C4([H])[H])C([H])([H])[H])c3[H])c([H])c([H])c2C1([H])[H]

>  <smiles>  (4) 
[H]c1c([H])c([H])c2c(c1[H])C([H])([H])C([H])([H])C([H])([H])C2([H])N([H])C(=O)C1([H])N(C(=O)C([H])(N([H])C(=O)C([H])(N([H])C([H])([H])[H])C([H])([H])[H])C(C([H])([H])[H])(C([H])([H])[H])C([H])([H])[H])C([H])([H])c2c([H])c(OC([H])([H])C([H])([H])C([H])([H])N([H])c3c([H])c(F)c([H])c(C([H])([H])N(C(=O)N4C([H])([H])C([H])([H])C([H])([H])C([H])(n5nc(-c6c([H])c([H])c(Oc7c([H])c([H])c(F)c([H])c7F)c([H])c6[H])c(C(=O)N([H])[H])c5N([H])[H])C4([H])[H])C([H])([H])[H])c3[H])c([H])c([H])c2C1([H])[H]

$$$$
4:0:0
     RDKit          3D

 96105  0  0  1  0  0  0  0  0999 V2000
  -30.8130  -18.5320   22.6680 C   0  0  0  0  0  3  0  0  0  0  0  0
  -29.8740  -18.4600   20.0530 C   0  0  0  0  0  3  0  0  0  0  0  0
  -30.5240  -19.7590   22.0180 C   0  0  0  0  0  0  0  0  0  0  0  0
  -30.0470  -19.7660   20.6770 C   0  0  0  0  0  0  0  0  0  0  0  0
  -30.1830  -17.1960   20.7070 C   0  0  0  0  0  0  0  0  0  0  0  0
  -30.6520  -17.2830   22.0340 C   0  0  0  0  0  0  0  0  0  0  0  0
  -30.9080  -16.1520   22.7380 F   0  0  0  0  0  0  0  0  0  0  0  0
  -30.7150  -14.7270   20.0310 C   0  0  0  0  0  0  0  0  0  0  0  0
  -30.4310  -12.5050   18.9150 C   0  0  0  0  0  2  0  0  0  0  0  0
  -29.3960  -12.6320   17.7760 C   0  0  0  0  0  2  0  0  0  0  0  0
  -27.9610  -12.4480   18.3110 C   0  0  0  0  0  2  0  0  0  0  0  0
  -27.6900  -13.2860   19.5880 C   0  0  0  0  0  3  0  0  0  0  0  0
  -28.8320  -13.1410   20.6170 C   0  0  0  0  0  2  0  0  0  0  0  0
  -30.0770  -13.5130   19.9350 N   0  0  0  0  0  0  0  0  0  0  0  0
  -31.8950  -14.8400   19.6890 O   0  0  0  0  0  0  0  0  0  0  0  0
  -29.9080  -15.8450   20.1700 N   0  0  0  0  0  0  0  0  0  0  0  0
  -28.9260  -15.6320   20.0930 H   0  0  0  0  0  0  0  0  0  0  0  0
  -25.3690  -13.8720   20.5080 C   0  0  0  0  0  0  0  0  0  0  0  0
  -24.3250  -13.0920   20.9270 C   0  0  0  0  0  0  0  0  0  0  0  0
  -24.7730  -11.7400   20.8160 C   0  0  0  0  0  0  0  0  0  0  0  0
  -26.3840  -12.9920   20.1670 N   0  0  0  0  0  0  0  0  0  0  0  0
  -26.0380  -11.7040   20.4160 N   0  0  0  0  0  0  0  0  0  0  0  0
  -24.0490  -10.4770   21.0130 C   0  0  0  0  0  0  0  0  0  0  0  0
  -24.5010   -9.5040   21.9330 C   0  0  0  0  0  3  0  0  0  0  0  0
  -23.7790   -8.3050   22.1190 C   0  0  0  0  0  3  0  0  0  0  0  0
  -22.5910   -8.0720   21.3860 C   0  0  0  0  0  0  0  0  0  0  0  0
  -22.1580   -9.0320   20.4550 C   0  0  0  0  0  3  0  0  0  0  0  0
  -22.8810  -10.2230   20.2670 C   0  0  0  0  0  3  0  0  0  0  0  0
  -21.8390   -6.9260   21.4810 O   0  0  0  0  0  0  0  0  0  0  0  0
  -21.7710   -6.2060   22.6470 C   0  0  0  0  0  0  0  0  0  0  0  0
  -21.2840   -6.7720   23.8450 C   0  0  0  0  0  3  0  0  0  0  0  0
  -21.1640   -5.9770   25.0030 C   0  0  0  0  0  3  0  0  0  0  0  0
  -21.5230   -4.6160   24.9620 C   0  0  0  0  0  0  0  0  0  0  0  0
  -22.0020   -4.0490   23.7690 C   0  0  0  0  0  3  0  0  0  0  0  0
  -22.1230   -4.8420   22.6140 C   0  0  0  0  0  0  0  0  0  0  0  0
  -22.5660   -4.2850   21.4610 F   0  0  0  0  0  0  0  0  0  0  0  0
  -21.4010   -3.8500   26.0710 F   0  0  0  0  0  0  0  0  0  0  0  0
  -22.9540  -13.5690   21.3140 C   0  0  0  0  0  0  0  0  0  0  0  0
  -22.2850  -12.8450   22.2030 N   0  0  0  0  0  0  0  0  0  0  0  0
  -22.4920  -14.6170   20.8640 O   0  0  0  0  0  0  0  0  0  0  0  0
  -22.6750  -11.9970   22.5850 H   0  0  0  0  0  0  0  0  0  0  0  0
  -21.3690  -13.1430   22.5080 H   0  0  0  0  0  0  0  0  0  0  0  0
  -25.5260  -15.2470   20.3650 N   0  0  0  0  0  0  0  0  0  0  0  0
  -24.7610  -15.8890   20.5400 H   0  0  0  0  0  0  0  0  0  0  0  0
  -26.3310  -15.7000   19.9520 H   0  0  0  0  0  0  0  0  0  0  0  0
  -31.9460  -21.7410   24.6310 C   0  0  0  0  0  2  0  0  0  0  0  0
  -30.5060  -22.2430   24.6820 C   0  0  0  0  0  2  0  0  0  0  0  0
  -32.0950  -21.1920   23.2070 C   0  0  0  0  0  2  0  0  0  0  0  0
  -29.7910  -21.2480   23.7760 C   0  0  0  0  0  2  0  0  0  0  0  0
  -30.7410  -20.9730   22.7010 N   0  0  0  0  0  0  0  0  0  0  0  0
  -29.9030  -21.0320   19.9760 N   0  0  0  0  0  0  0  0  0  0  0  0
  -30.8250  -21.4380   19.8450 H   0  0  0  0  0  0  0  0  0  0  0  0
  -28.9100  -22.1350   20.2910 C   0  0  0  0  0  2  0  0  0  0  0  0
  -29.3760  -23.6890   20.2090 C   0  0  0  0  0  3  0  0  0  0  0  0
  -28.2420  -24.8410   20.1280 C   0  0  0  0  0  3  0  0  0  0  0  0
  -28.5090  -26.3270   20.1450 O   0  0  0  0  0  0  0  0  0  0  0  0
  -24.6750  -31.7240   23.1640 C   0  0  0  0  0  0  0  0  0  0  0  0
  -27.4010  -27.2090   20.0890 C   0  0  0  0  0  0  0  0  0  0  0  0
  -23.5230  -30.3340   21.4850 C   0  0  0  0  0  3  0  0  0  0  0  0
  -25.0220  -28.8290   20.0580 C   0  0  0  0  0  0  0  0  0  0  0  0
  -26.0650  -30.6810   21.3530 C   0  0  0  0  0  2  0  0  0  0  0  0
  -26.1780  -29.3100   20.6860 C   0  0  0  0  0  0  0  0  0  0  0  0
  -27.3710  -28.5150   20.6880 C   0  0  0  0  0  3  0  0  0  0  0  0
  -26.2160  -26.8040   19.4280 C   0  0  0  0  0  3  0  0  0  0  0  0
  -25.0470  -27.5850   19.4190 C   0  0  0  0  0  3  0  0  0  0  0  0
  -23.7730  -29.6900   20.0980 C   0  0  0  0  0  2  0  0  0  0  0  0
  -24.7730  -30.9300   22.0580 N   0  0  0  0  0  0  0  0  0  0  0  0
  -23.5780  -31.9760   23.6850 O   0  0  0  0  0  0  0  0  0  0  0  0
  -22.8600  -29.2890   22.4170 C   0  0  0  0  0  0  0  0  0  0  0  0
  -21.5350  -29.1030   22.2770 N   0  0  0  0  0  0  0  0  0  0  0  0
  -23.5360  -28.6520   23.2290 O   0  0  0  0  0  0  0  0  0  0  0  0
  -21.0480  -29.6720   21.5990 H   0  0  0  0  0  0  0  0  0  0  0  0
  -18.1580  -27.8980   22.7680 C   0  0  0  0  0  0  0  0  0  0  0  0
  -20.7190  -28.1410   23.0220 C   0  0  0  0  0  3  0  0  0  0  0  0
  -20.8110  -26.7280   22.4000 C   0  0  0  0  0  2  0  0  0  0  0  0
  -19.6990  -26.4420   21.3850 C   0  0  0  0  0  2  0  0  0  0  0  0
  -18.3240  -26.5700   22.0450 C   0  0  0  0  0  2  0  0  0  0  0  0
  -19.2830  -28.6410   23.2120 C   0  0  0  0  0  0  0  0  0  0  0  0
  -19.0740  -29.8840   23.8500 C   0  0  0  0  0  3  0  0  0  0  0  0
  -17.7730  -30.3830   24.0440 C   0  0  0  0  0  3  0  0  0  0  0  0
  -16.6620  -29.6370   23.6140 C   0  0  0  0  0  3  0  0  0  0  0  0
  -16.8550  -28.3960   22.9810 C   0  0  0  0  0  3  0  0  0  0  0  0
  -25.9360  -32.3700   23.8160 C   0  0  0  0  0  3  0  0  0  0  0  0
  -25.5980  -33.7600   24.1530 N   0  0  0  0  0  0  0  0  0  0  0  0
  -25.9220  -34.8260   23.4070 C   0  0  0  0  0  0  0  0  0  0  0  0
  -26.6050  -34.7410   22.3820 O   0  0  0  0  0  0  0  0  0  0  0  0
  -24.9940  -33.8980   24.9490 H   0  0  0  0  0  0  0  0  0  0  0  0
  -24.1760  -36.6000   23.0420 C   0  0  0  0  0  1  0  0  0  0  0  0
  -25.4090  -36.2030   23.8700 C   0  0  0  0  0  3  0  0  0  0  0  0
  -27.5110  -37.1150   24.7510 C   0  0  0  0  0  1  0  0  0  0  0  0
  -26.4280  -37.2700   23.7840 N   0  0  0  0  0  0  0  0  0  0  0  0
  -26.0060  -38.1830   23.9280 H   0  0  0  0  0  0  0  0  0  0  0  0
  -26.4380  -31.5950   25.0980 C   0  0  1  0  0  0  0  0  0  0  0  0
  -25.3220  -31.3200   26.1340 C   0  0  0  0  0  1  0  0  0  0  0  0
  -27.0650  -30.2360   24.7080 C   0  0  0  0  0  1  0  0  0  0  0  0
  -27.5530  -32.4090   25.7960 C   0  0  0  0  0  1  0  0  0  0  0  0
  2  4  2  0
  2  5  1  0
  3  1  2  0
  3 50  1  0
  4  3  1  0
  5  6  2  0
  6  1  1  0
  6  7  1  0
  8 16  1  0
  9 14  1  0
 10 11  1  0
 10  9  1  0
 12 11  1  0
 12 21  1  0
 12 13  1  0
 14  8  1  0
 14 13  1  0
 15  8  2  0
 16  5  1  0
 17 16  1  0
 18 19  2  0
 19 38  1  0
 20 19  1  0
 20 23  1  0
 21 22  1  0
 21 18  1  0
 22 20  2  0
 23 24  1  0
 24 25  2  0
 26 29  1  0
 26 25  1  0
 27 26  2  0
 28 27  1  0
 28 23  2  0
 29 30  1  0
 30 31  1  0
 31 32  2  0
 33 32  1  0
 33 37  1  0
 34 33  2  0
 35 30  2  0
 35 34  1  0
 36 35  1  0
 38 39  1  0
 39 42  1  0
 39 41  1  0
 40 38  2  0
 43 18  1  0
 43 44  1  0
 45 43  1  0
 46 47  1  0
 48 46  1  0
 49 47  1  0
 50 48  1  0
 50 49  1  0
 51 53  1  0
 51  4  1  0
 52 51  1  0
 54 53  1  0
 55 56  1  0
 55 54  2  0
 57 68  2  0
 58 56  1  0
 58 63  1  0
 59 67  1  0
 59 69  1  0
 60 66  1  0
 60 62  1  0
 61 67  1  0
 62 63  2  0
 62 61  1  0
 64 58  2  0
 65 64  1  0
 65 60  2  0
 66 59  1  0
 67 57  1  0
 69 71  2  0
 70 69  1  0
 72 70  1  0
 73 82  2  0
 73 78  1  0
 74 70  1  0
 74 78  1  0
 75 74  1  0
 76 77  1  0
 76 75  1  0
 77 73  1  0
 78 79  2  0
 79 80  1  0
 81 80  2  0
 82 81  1  0
 83 57  1  0
 83 84  1  0
 83 93  1  0
 84 87  1  0
 85 89  1  0
 85 84  1  0
 86 85  2  0
 89 88  1  0
 91 89  1  0
 91 92  1  0
 91 90  1  0
 93 96  1  1
 93 94  1  0
 95 93  1  0
M  ISO  4   8 100  16 100  55 101  56 101
M  END
>  <TORSDO>  (5) 
F 21

>  <SCORE>  (5) 
-13.201

>  <name>  (5) 
4

>  <ligand_id>  (5) 
4

>  <original_smiles>  (5) 
[H]c1c([H])c([H])c2c(c1[H])C([H])([H])C([H])([H])C([H])([H])C2([H])N([H])C(=O)C1([H])N(C(=O)C([H])(N([H])C(=O)C([H])(N([H])C([H])([H])[H])C([H])([H])[H])C(C([H])([H])[H])(C([H])([H])[H])C([H])([H])[H])C([H])([H])c2c([H])c(OC([H])([H])C([H])([H])C([H])([H])N([H])c3c([H])c(N([H])C(=O)N4C([H])([H])C([H])([H])C([H])([H])C([H])(n5nc(-c6c([H])c([H])c(Oc7c([H])c([H])c(F)c([H])c7F)c([H])c6[H])c(C(=O)N([H])[H])c5N([H])[H])C4([H])[H])c(F)c([H])c3N3C([H])([H])C([H])([H])C([H])([H])C3([H])[H])c([H])c([H])c2C1([H])[H]

>  <smiles>  (5) 
[H]c1c([H])c([H])c2c(c1[H])C([H])([H])C([H])([H])C([H])([H])C2([H])N([H])C(=O)C1([H])N(C(=O)C([H])(N([H])C(=O)C([H])(N([H])C([H])([H])[H])C([H])([H])[H])C(C([H])([H])[H])(C([H])([H])[H])C([H])([H])[H])C([H])([H])c2c([H])c(OC([H])([H])C([H])([H])C([H])([H])N([H])c3c([H])c(N([H])C(=O)N4C([H])([H])C([H])([H])C([H])([H])C([H])(n5nc(-c6c([H])c([H])c(Oc7c([H])c([H])c(F)c([H])c7F)c([H])c6[H])c(C(=O)N([H])[H])c5N([H])[H])C4([H])[H])c(F)c([H])c3N3C([H])([H])C([H])([H])C([H])([H])C3([H])[H])c([H])c([H])c2C1([H])[H]

$$$$
5:0:0
     RDKit          3D

 95104  0  0  1  0  0  0  0  0999 V2000
  -29.5410  -22.7990   19.8750 C   0  0  0  0  0  3  0  0  0  0  0  0
  -29.0120  -23.7980   20.6890 C   0  0  0  0  0  3  0  0  0  0  0  0
  -29.4700  -22.9230   18.3640 C   0  0  0  0  0  2  0  0  0  0  0  0
  -30.9370  -22.9080   18.0110 C   0  0  0  0  0  2  0  0  0  0  0  0
  -31.5230  -21.9420   19.0300 C   0  0  0  0  0  2  0  0  0  0  0  0
  -29.2780  -23.8510   22.1980 C   0  0  0  0  0  1  0  0  0  0  0  0
  -30.5270  -21.7590   20.1130 N   0  0  0  0  0  0  0  0  0  0  0  0
  -31.3700  -17.9830   20.5770 C   0  0  0  0  0  3  0  0  0  0  0  0
  -29.1380  -19.6380   20.3350 C   0  0  0  0  0  3  0  0  0  0  0  0
  -31.5180  -19.4100   20.5270 C   0  0  0  0  0  0  0  0  0  0  0  0
  -30.3940  -20.3150   20.3430 C   0  0  0  0  0  0  0  0  0  0  0  0
  -30.1090  -17.3270   20.5500 C   0  0  0  0  0  0  0  0  0  0  0  0
  -29.0030  -18.2130   20.4580 C   0  0  0  0  0  0  0  0  0  0  0  0
  -32.9540  -19.8970   20.7090 C   0  0  0  0  0  1  0  0  0  0  0  0
  -27.7580  -17.6700   20.4770 F   0  0  0  0  0  0  0  0  0  0  0  0
  -30.6330  -14.7460   20.4020 C   0  0  0  0  0  0  0  0  0  0  0  0
  -30.4000  -12.4830   19.3700 C   0  0  0  0  0  2  0  0  0  0  0  0
  -29.4590  -12.5800   18.1490 C   0  0  0  0  0  2  0  0  0  0  0  0
  -27.9860  -12.4110   18.5750 C   0  0  0  0  0  2  0  0  0  0  0  0
  -27.6190  -13.2760   19.8080 C   0  0  0  0  0  3  0  0  0  0  0  0
  -28.6870  -13.1860   20.9240 C   0  0  0  0  0  2  0  0  0  0  0  0
  -29.9880  -13.5330   20.3300 N   0  0  0  0  0  0  0  0  0  0  0  0
  -31.8120  -14.8430   20.0600 O   0  0  0  0  0  0  0  0  0  0  0  0
  -29.8670  -15.8670   20.6560 N   0  0  0  0  0  0  0  0  0  0  0  0
  -28.9010  -15.6450   20.8380 H   0  0  0  0  0  0  0  0  0  0  0  0
  -25.2180  -13.8480   20.5200 C   0  0  0  0  0  0  0  0  0  0  0  0
  -24.1530  -13.0720   20.8880 C   0  0  0  0  0  0  0  0  0  0  0  0
  -24.6220  -11.7230   20.8640 C   0  0  0  0  0  0  0  0  0  0  0  0
  -26.2720  -12.9780   20.2950 N   0  0  0  0  0  0  0  0  0  0  0  0
  -25.9160  -11.6920   20.5610 N   0  0  0  0  0  0  0  0  0  0  0  0
  -23.8980  -10.4570   21.0560 C   0  0  0  0  0  0  0  0  0  0  0  0
  -24.3380   -9.4890   21.9860 C   0  0  0  0  0  3  0  0  0  0  0  0
  -23.6180   -8.2900   22.1690 C   0  0  0  0  0  3  0  0  0  0  0  0
  -22.4400   -8.0460   21.4210 C   0  0  0  0  0  0  0  0  0  0  0  0
  -22.0160   -9.0050   20.4820 C   0  0  0  0  0  3  0  0  0  0  0  0
  -22.7410  -10.1960   20.2970 C   0  0  0  0  0  3  0  0  0  0  0  0
  -21.6870   -6.9000   21.5130 O   0  0  0  0  0  0  0  0  0  0  0  0
  -21.6590   -6.1490   22.6600 C   0  0  0  0  0  0  0  0  0  0  0  0
  -21.2500   -6.6940   23.8970 C   0  0  0  0  0  3  0  0  0  0  0  0
  -21.1650   -5.8680   25.0370 C   0  0  0  0  0  3  0  0  0  0  0  0
  -21.4780   -4.4990   24.9400 C   0  0  0  0  0  0  0  0  0  0  0  0
  -21.8830   -3.9550   23.7100 C   0  0  0  0  0  3  0  0  0  0  0  0
  -21.9690   -4.7770   22.5720 C   0  0  0  0  0  0  0  0  0  0  0  0
  -22.3380   -4.2420   21.3820 F   0  0  0  0  0  0  0  0  0  0  0  0
  -21.3910   -3.7050   26.0320 F   0  0  0  0  0  0  0  0  0  0  0  0
  -22.7490  -13.5440   21.1450 C   0  0  0  0  0  0  0  0  0  0  0  0
  -22.0160  -12.8560   22.0120 N   0  0  0  0  0  0  0  0  0  0  0  0
  -22.3120  -14.5630   20.6110 O   0  0  0  0  0  0  0  0  0  0  0  0
  -22.3790  -12.0300   22.4650 H   0  0  0  0  0  0  0  0  0  0  0  0
  -21.0770  -13.1600   22.2250 H   0  0  0  0  0  0  0  0  0  0  0  0
  -25.3770  -15.2210   20.3410 N   0  0  0  0  0  0  0  0  0  0  0  0
  -24.6060  -15.8690   20.4650 H   0  0  0  0  0  0  0  0  0  0  0  0
  -26.2290  -15.6780   20.0420 H   0  0  0  0  0  0  0  0  0  0  0  0
  -28.0000  -24.9390   20.2020 C   0  0  0  0  0  2  0  0  0  0  0  0
  -28.3020  -26.4010   20.3340 O   0  0  0  0  0  0  0  0  0  0  0  0
  -24.6340  -31.8940   23.2420 C   0  0  0  0  0  0  0  0  0  0  0  0
  -27.2140  -27.3050   20.2190 C   0  0  0  0  0  0  0  0  0  0  0  0
  -23.4170  -30.5100   21.5930 C   0  0  0  0  0  3  0  0  0  0  0  0
  -24.8640  -28.9540   20.1660 C   0  0  0  0  0  0  0  0  0  0  0  0
  -25.9630  -30.8100   21.4200 C   0  0  0  0  0  2  0  0  0  0  0  0
  -26.0340  -29.4310   20.7750 C   0  0  0  0  0  0  0  0  0  0  0  0
  -27.2090  -28.6190   20.7940 C   0  0  0  0  0  3  0  0  0  0  0  0
  -26.0290  -26.9080   19.5530 C   0  0  0  0  0  3  0  0  0  0  0  0
  -24.8660  -27.6990   19.5400 C   0  0  0  0  0  3  0  0  0  0  0  0
  -23.6330  -29.8380   20.2100 C   0  0  0  0  0  2  0  0  0  0  0  0
  -24.6880  -31.0910   22.1400 N   0  0  0  0  0  0  0  0  0  0  0  0
  -23.5540  -32.1740   23.7840 O   0  0  0  0  0  0  0  0  0  0  0  0
  -22.7480  -29.4940   22.5530 C   0  0  0  0  0  0  0  0  0  0  0  0
  -21.4200  -29.3260   22.4330 N   0  0  0  0  0  0  0  0  0  0  0  0
  -23.4260  -28.8620   23.3680 O   0  0  0  0  0  0  0  0  0  0  0  0
  -20.9330  -29.8870   21.7480 H   0  0  0  0  0  0  0  0  0  0  0  0
  -18.0360  -28.1510   22.9530 C   0  0  0  0  0  0  0  0  0  0  0  0
  -20.5980  -28.3940   23.2100 C   0  0  0  0  0  3  0  0  0  0  0  0
  -20.6870  -26.9620   22.6340 C   0  0  0  0  0  2  0  0  0  0  0  0
  -19.5780  -26.6470   21.6240 C   0  0  0  0  0  2  0  0  0  0  0  0
  -18.2000  -26.8000   22.2720 C   0  0  0  0  0  2  0  0  0  0  0  0
  -19.1630  -28.9050   23.3770 C   0  0  0  0  0  0  0  0  0  0  0  0
  -18.9510  -30.1670   23.9720 C   0  0  0  0  0  3  0  0  0  0  0  0
  -17.6510  -30.6760   24.1470 C   0  0  0  0  0  3  0  0  0  0  0  0
  -16.5400  -29.9170   23.7430 C   0  0  0  0  0  3  0  0  0  0  0  0
  -16.7330  -28.6570   23.1510 C   0  0  0  0  0  3  0  0  0  0  0  0
  -25.9240  -32.5180   23.8560 C   0  0  0  0  0  3  0  0  0  0  0  0
  -25.6240  -33.9140   24.2030 N   0  0  0  0  0  0  0  0  0  0  0  0
  -25.9260  -34.9710   23.4370 C   0  0  0  0  0  0  0  0  0  0  0  0
  -26.5640  -34.8710   22.3840 O   0  0  0  0  0  0  0  0  0  0  0  0
  -25.0760  -34.0630   25.0380 H   0  0  0  0  0  0  0  0  0  0  0  0
  -24.1810  -36.7550   23.1410 C   0  0  0  0  0  1  0  0  0  0  0  0
  -25.4500  -36.3560   23.9110 C   0  0  0  0  0  3  0  0  0  0  0  0
  -27.6090  -37.2510   24.6670 C   0  0  0  0  0  1  0  0  0  0  0  0
  -26.4730  -37.4160   23.7630 N   0  0  0  0  0  0  0  0  0  0  0  0
  -26.0660  -38.3340   23.9250 H   0  0  0  0  0  0  0  0  0  0  0  0
  -26.4510  -31.7340   25.1220 C   0  0  1  0  0  0  0  0  0  0  0  0
  -25.3710  -31.4880   26.2000 C   0  0  0  0  0  1  0  0  0  0  0  0
  -27.0320  -30.3580   24.7250 C   0  0  0  0  0  1  0  0  0  0  0  0
  -27.6140  -32.5190   25.7780 C   0  0  0  0  0  1  0  0  0  0  0  0
  1  7  1  0
  1  2  1  0
  2  6  1  0
  3  1  1  0
  4  3  1  0
  4  5  1  0
  5  7  1  0
  7 11  1  0
  9 11  2  0
  9 13  1  0
 10  8  2  0
 10 14  1  0
 11 10  1  0
 12  8  1  0
 12 24  1  0
 13 15  1  0
 13 12  2  0
 16 24  1  0
 17 22  1  0
 18 19  1  0
 18 17  1  0
 20 19  1  0
 20 29  1  0
 20 21  1  0
 22 16  1  0
 22 21  1  0
 23 16  2  0
 24 25  1  0
 26 27  2  0
 27 46  1  0
 28 27  1  0
 28 31  1  0
 29 26  1  0
 29 30  1  0
 30 28  2  0
 31 32  1  0
 32 33  2  0
 34 37  1  0
 34 33  1  0
 35 34  2  0
 36 35  1  0
 36 31  2  0
 37 38  1  0
 38 39  1  0
 39 40  2  0
 41 40  1  0
 41 45  1  0
 42 41  2  0
 43 38  2  0
 43 42  1  0
 44 43  1  0
 46 47  1  0
 47 50  1  0
 47 49  1  0
 48 46  2  0
 51 52  1  0
 51 26  1  0
 53 51  1  0
 54 55  1  0
 54  2  1  0
 56 67  2  0
 57 55  1  0
 57 62  1  0
 58 66  1  0
 58 68  1  0
 59 65  1  0
 59 61  1  0
 60 66  1  0
 61 62  2  0
 61 60  1  0
 63 57  2  0
 64 63  1  0
 64 59  2  0
 65 58  1  0
 66 56  1  0
 68 70  2  0
 69 68  1  0
 71 69  1  0
 72 81  2  0
 72 77  1  0
 73 69  1  0
 73 77  1  0
 74 73  1  0
 75 76  1  0
 75 74  1  0
 76 72  1  0
 77 78  2  0
 78 79  1  0
 80 79  2  0
 81 80  1  0
 82 56  1  0
 82 83  1  0
 82 92  1  0
 83 86  1  0
 84 88  1  0
 84 83  1  0
 85 84  2  0
 88 87  1  0
 90 88  1  0
 90 91  1  0
 90 89  1  0
 92 95  1  1
 92 93  1  0
 94 92  1  0
M  ISO  4  16 100  24 100  54 101  55 101
M  END
>  <TORSDO>  (6) 
F 18

>  <SCORE>  (6) 
-15.145

>  <name>  (6) 
5

>  <ligand_id>  (6) 
5

>  <original_smiles>  (6) 
[H]c1c([H])c([H])c2c(c1[H])C([H])([H])C([H])([H])C([H])([H])C2([H])N([H])C(=O)C1([H])N(C(=O)C([H])(N([H])C(=O)C([H])(N([H])C([H])([H])[H])C([H])([H])[H])C(C([H])([H])[H])(C([H])([H])[H])C([H])([H])[H])C([H])([H])c2c([H])c(OC([H])([H])C(=C3N(c4c([H])c(F)c(N([H])C(=O)N5C([H])([H])C([H])([H])C([H])([H])C([H])(n6nc(-c7c([H])c([H])c(Oc8c([H])c([H])c(F)c([H])c8F)c([H])c7[H])c(C(=O)N([H])[H])c6N([H])[H])C5([H])[H])c([H])c4C([H])([H])[H])C([H])([H])C([H])([H])C3([H])[H])C([H])([H])[H])c([H])c([H])c2C1([H])[H]

>  <smiles>  (6) 
[H]c1c([H])c([H])c2c(c1[H])C([H])([H])C([H])([H])C([H])([H])C2([H])N([H])C(=O)C1([H])N(C(=O)C([H])(N([H])C(=O)C([H])(N([H])C([H])([H])[H])C([H])([H])[H])C(C([H])([H])[H])(C([H])([H])[H])C([H])([H])[H])C([H])([H])c2c([H])c(OC([H])([H])C(=C3N(c4c([H])c(F)c(N([H])C(=O)N5C([H])([H])C([H])([H])C([H])([H])C([H])(n6nc(-c7c([H])c([H])c(Oc8c([H])c([H])c(F)c([H])c8F)c([H])c7[H])c(C(=O)N([H])[H])c6N([H])[H])C5([H])[H])c([H])c4C([H])([H])[H])C([H])([H])C([H])([H])C3([H])[H])C([H])([H])[H])c([H])c([H])c2C1([H])[H]

$$$$
6:0:0
     RDKit          3D

 92101  0  0  1  0  0  0  0  0999 V2000
  -30.2580  -23.2090   22.2190 C   0  0  0  0  0  2  0  0  0  0  0  0
  -30.6250  -23.7620   20.8370 C   0  0  0  0  0  2  0  0  0  0  0  0
  -29.0690  -22.2650   21.9800 C   0  0  0  0  0  2  0  0  0  0  0  0
  -29.4320  -23.3870   19.9600 C   0  0  0  0  0  3  0  0  0  0  0  0
  -29.0280  -22.0050   20.5410 N   0  0  0  0  0  0  0  0  0  0  0  0
  -30.7290  -19.9780   20.3440 C   0  0  0  0  0  3  0  0  0  0  0  0
  -30.9920  -18.5350   20.3440 C   0  0  0  0  0  3  0  0  0  0  0  0
  -28.6710  -18.1380   20.3060 C   0  0  0  0  0  3  0  0  0  0  0  0
  -28.4010  -19.5590   20.3050 C   0  0  0  0  0  0  0  0  0  0  0  0
  -29.4160  -20.5780   20.3380 C   0  0  0  0  0  0  0  0  0  0  0  0
  -29.9640  -17.5280   20.3410 C   0  0  0  0  0  0  0  0  0  0  0  0
  -26.9390  -19.9820   20.2960 C   0  0  0  0  0  1  0  0  0  0  0  0
  -30.8800  -14.9210   20.0210 C   0  0  0  0  0  0  0  0  0  0  0  0
  -30.7240  -12.6080   19.0010 C   0  0  0  0  0  2  0  0  0  0  0  0
  -29.7130  -12.6340   17.8270 C   0  0  0  0  0  2  0  0  0  0  0  0
  -28.2720  -12.4270   18.3340 C   0  0  0  0  0  2  0  0  0  0  0  0
  -27.9490  -13.3060   19.5700 C   0  0  0  0  0  3  0  0  0  0  0  0
  -29.0670  -13.2300   20.6330 C   0  0  0  0  0  2  0  0  0  0  0  0
  -30.3170  -13.6500   19.9800 N   0  0  0  0  0  0  0  0  0  0  0  0
  -32.0430  -15.0610   19.6240 O   0  0  0  0  0  0  0  0  0  0  0  0
  -30.0330  -15.9990   20.3620 N   0  0  0  0  0  0  0  0  0  0  0  0
  -29.1610  -15.6040   20.6810 H   0  0  0  0  0  0  0  0  0  0  0  0
  -25.6210  -13.8910   20.4680 C   0  0  0  0  0  0  0  0  0  0  0  0
  -24.5680  -13.1160   20.8690 C   0  0  0  0  0  0  0  0  0  0  0  0
  -25.0060  -11.7610   20.7510 C   0  0  0  0  0  0  0  0  0  0  0  0
  -26.6340  -13.0090   20.1290 N   0  0  0  0  0  0  0  0  0  0  0  0
  -26.2750  -11.7200   20.3620 N   0  0  0  0  0  0  0  0  0  0  0  0
  -24.2710  -10.5020   20.9270 C   0  0  0  0  0  0  0  0  0  0  0  0
  -24.6960   -9.5210   21.8510 C   0  0  0  0  0  3  0  0  0  0  0  0
  -23.9600   -8.3280   22.0170 C   0  0  0  0  0  3  0  0  0  0  0  0
  -22.7860   -8.1070   21.2580 C   0  0  0  0  0  0  0  0  0  0  0  0
  -22.3800   -9.0770   20.3240 C   0  0  0  0  0  3  0  0  0  0  0  0
  -23.1160  -10.2620   20.1560 C   0  0  0  0  0  3  0  0  0  0  0  0
  -22.0220   -6.9670   21.3340 O   0  0  0  0  0  0  0  0  0  0  0  0
  -21.8910   -6.2650   22.5050 C   0  0  0  0  0  0  0  0  0  0  0  0
  -21.3950   -6.8660   23.6830 C   0  0  0  0  0  3  0  0  0  0  0  0
  -21.2120   -6.0900   24.8460 C   0  0  0  0  0  3  0  0  0  0  0  0
  -21.5130   -4.7160   24.8300 C   0  0  0  0  0  0  0  0  0  0  0  0
  -22.0020   -4.1150   23.6570 C   0  0  0  0  0  3  0  0  0  0  0  0
  -22.1870   -4.8870   22.4960 C   0  0  0  0  0  0  0  0  0  0  0  0
  -22.6380   -4.2980   21.3630 F   0  0  0  0  0  0  0  0  0  0  0  0
  -21.3310   -3.9680   25.9440 F   0  0  0  0  0  0  0  0  0  0  0  0
  -23.1970  -13.6010   21.2430 C   0  0  0  0  0  0  0  0  0  0  0  0
  -22.5180  -12.8900   22.1360 N   0  0  0  0  0  0  0  0  0  0  0  0
  -22.7400  -14.6430   20.7770 O   0  0  0  0  0  0  0  0  0  0  0  0
  -22.9020  -12.0450   22.5330 H   0  0  0  0  0  0  0  0  0  0  0  0
  -21.6010  -13.1950   22.4280 H   0  0  0  0  0  0  0  0  0  0  0  0
  -25.7940  -15.2670   20.3360 N   0  0  0  0  0  0  0  0  0  0  0  0
  -25.0260  -15.9110   20.4920 H   0  0  0  0  0  0  0  0  0  0  0  0
  -26.5860  -15.7000   19.8820 H   0  0  0  0  0  0  0  0  0  0  0  0
  -28.3360  -24.6690   19.9930 C   0  0  0  0  0  2  0  0  0  0  0  0
  -28.6040  -26.1880   19.8180 O   0  0  0  0  0  0  0  0  0  0  0  0
  -24.8650  -31.6130   23.1210 C   0  0  0  0  0  0  0  0  0  0  0  0
  -27.5310  -27.1470   19.8280 C   0  0  0  0  0  0  0  0  0  0  0  0
  -23.7050  -30.3310   21.3640 C   0  0  0  0  0  3  0  0  0  0  0  0
  -25.1900  -28.8660   19.8680 C   0  0  0  0  0  0  0  0  0  0  0  0
  -26.2600  -30.6200   21.2700 C   0  0  0  0  0  2  0  0  0  0  0  0
  -26.3540  -29.2790   20.5280 C   0  0  0  0  0  0  0  0  0  0  0  0
  -27.5270  -28.4370   20.4920 C   0  0  0  0  0  3  0  0  0  0  0  0
  -26.3420  -26.8380   19.1300 C   0  0  0  0  0  3  0  0  0  0  0  0
  -25.1950  -27.6590   19.1550 C   0  0  0  0  0  3  0  0  0  0  0  0
  -23.9570  -29.7530   19.9470 C   0  0  0  0  0  2  0  0  0  0  0  0
  -24.9620  -30.8720   21.9750 N   0  0  0  0  0  0  0  0  0  0  0  0
  -23.7670  -31.8570   23.6430 O   0  0  0  0  0  0  0  0  0  0  0  0
  -23.0120  -29.2570   22.2380 C   0  0  0  0  0  0  0  0  0  0  0  0
  -21.6820  -29.1130   22.0940 N   0  0  0  0  0  0  0  0  0  0  0  0
  -23.6730  -28.5580   23.0110 O   0  0  0  0  0  0  0  0  0  0  0  0
  -21.2070  -29.7290   21.4500 H   0  0  0  0  0  0  0  0  0  0  0  0
  -18.2740  -27.9760   22.5510 C   0  0  0  0  0  0  0  0  0  0  0  0
  -20.8450  -28.1280   22.7850 C   0  0  0  0  0  3  0  0  0  0  0  0
  -20.8880  -26.7590   22.0650 C   0  0  0  0  0  2  0  0  0  0  0  0
  -19.7550  -26.5760   21.0500 C   0  0  0  0  0  2  0  0  0  0  0  0
  -18.3920  -26.6980   21.7380 C   0  0  0  0  0  2  0  0  0  0  0  0
  -19.4260  -28.6550   23.0290 C   0  0  0  0  0  0  0  0  0  0  0  0
  -19.2600  -29.8550   23.7540 C   0  0  0  0  0  3  0  0  0  0  0  0
  -17.9750  -30.3750   24.0020 C   0  0  0  0  0  3  0  0  0  0  0  0
  -16.8380  -29.6910   23.5390 C   0  0  0  0  0  3  0  0  0  0  0  0
  -16.9890  -28.4920   22.8180 C   0  0  0  0  0  3  0  0  0  0  0  0
  -26.1280  -32.2070   23.8170 C   0  0  0  0  0  3  0  0  0  0  0  0
  -25.8080  -33.5840   24.2220 N   0  0  0  0  0  0  0  0  0  0  0  0
  -26.1380  -34.6820   23.5280 C   0  0  0  0  0  0  0  0  0  0  0  0
  -26.8110  -34.6410   22.4940 O   0  0  0  0  0  0  0  0  0  0  0  0
  -25.2100  -33.6900   25.0280 H   0  0  0  0  0  0  0  0  0  0  0  0
  -24.3890  -36.4760   23.2960 C   0  0  0  0  0  1  0  0  0  0  0  0
  -25.6470  -36.0410   24.0650 C   0  0  0  0  0  3  0  0  0  0  0  0
  -27.7840  -36.9070   24.9100 C   0  0  0  0  0  1  0  0  0  0  0  0
  -26.6680  -37.1090   23.9900 N   0  0  0  0  0  0  0  0  0  0  0  0
  -26.2550  -38.0170   24.1860 H   0  0  0  0  0  0  0  0  0  0  0  0
  -26.6030  -31.3620   25.0620 C   0  0  1  0  0  0  0  0  0  0  0  0
  -25.4790  -31.0760   26.0860 C   0  0  0  0  0  1  0  0  0  0  0  0
  -27.1870  -30.0030   24.6150 C   0  0  0  0  0  1  0  0  0  0  0  0
  -27.7390  -32.1100   25.7980 C   0  0  0  0  0  1  0  0  0  0  0  0
  2  1  1  0
  3  1  1  0
  4 51  1  0
  4  5  1  0
  4  2  1  0
  5  3  1  0
  6  7  1  0
  8 11  1  0
  9  8  2  0
  9 10  1  0
 10  6  2  0
 10  5  1  0
 11  7  2  0
 11 21  1  0
 12  9  1  0
 13 21  1  0
 14 19  1  0
 15 16  1  0
 15 14  1  0
 17 16  1  0
 17 26  1  0
 17 18  1  0
 19 13  1  0
 19 18  1  0
 20 13  2  0
 21 22  1  0
 23 24  2  0
 24 43  1  0
 25 24  1  0
 25 28  1  0
 26 27  1  0
 26 23  1  0
 27 25  2  0
 28 29  1  0
 29 30  2  0
 31 34  1  0
 31 30  1  0
 32 31  2  0
 33 32  1  0
 33 28  2  0
 34 35  1  0
 35 36  1  0
 36 37  2  0
 38 37  1  0
 38 42  1  0
 39 38  2  0
 40 35  2  0
 40 39  1  0
 41 40  1  0
 43 44  1  0
 44 47  1  0
 44 46  1  0
 45 43  2  0
 48 23  1  0
 48 49  1  0
 50 48  1  0
 52 54  1  0
 52 51  1  0
 53 64  2  0
 54 59  1  0
 55 63  1  0
 55 65  1  0
 56 62  1  0
 56 58  1  0
 57 63  1  0
 58 57  1  0
 59 58  2  0
 60 61  1  0
 60 54  2  0
 61 56  2  0
 62 55  1  0
 63 53  1  0
 65 67  2  0
 66 65  1  0
 68 66  1  0
 69 78  2  0
 69 74  1  0
 70 66  1  0
 70 74  1  0
 71 70  1  0
 72 73  1  0
 72 71  1  0
 73 69  1  0
 74 75  2  0
 75 76  1  0
 77 76  2  0
 78 77  1  0
 79 53  1  0
 79 80  1  0
 79 89  1  0
 80 83  1  0
 81 85  1  0
 81 80  1  0
 82 81  2  0
 85 84  1  0
 87 85  1  0
 87 88  1  0
 87 86  1  0
 89 92  1  1
 89 90  1  0
 91 89  1  0
M  ISO  4  13 100  21 100  51 101  52 101
M  END
>  <TORSDO>  (7) 
F 18

>  <SCORE>  (7) 
-13.132

>  <name>  (7) 
6

>  <ligand_id>  (7) 
6

>  <original_smiles>  (7) 
[H]c1c([H])c([H])c2c(c1[H])C([H])([H])C([H])([H])C([H])([H])C2([H])N([H])C(=O)C1([H])N(C(=O)C([H])(N([H])C(=O)C([H])(N([H])C([H])([H])[H])C([H])([H])[H])C(C([H])([H])[H])(C([H])([H])[H])C([H])([H])[H])C([H])([H])c2c([H])c(OC([H])([H])C3([H])N(c4c([H])c([H])c(N([H])C(=O)N5C([H])([H])C([H])([H])C([H])([H])C([H])(n6nc(-c7c([H])c([H])c(Oc8c([H])c([H])c(F)c([H])c8F)c([H])c7[H])c(C(=O)N([H])[H])c6N([H])[H])C5([H])[H])c([H])c4C([H])([H])[H])C([H])([H])C([H])([H])C3([H])[H])c([H])c([H])c2C1([H])[H]

>  <smiles>  (7) 
[H]c1c([H])c([H])c2c(c1[H])C([H])([H])C([H])([H])C([H])([H])C2([H])N([H])C(=O)C1([H])N(C(=O)C([H])(N([H])C(=O)C([H])(N([H])C([H])([H])[H])C([H])([H])[H])C(C([H])([H])[H])(C([H])([H])[H])C([H])([H])[H])C([H])([H])c2c([H])c(OC([H])([H])C3([H])N(c4c([H])c([H])c(N([H])C(=O)N5C([H])([H])C([H])([H])C([H])([H])C([H])(n6nc(-c7c([H])c([H])c(Oc8c([H])c([H])c(F)c([H])c8F)c([H])c7[H])c(C(=O)N([H])[H])c6N([H])[H])C5([H])[H])c([H])c4C([H])([H])[H])C([H])([H])C([H])([H])C3([H])[H])c([H])c([H])c2C1([H])[H]

$$$$
7:0:0
     RDKit          3D

 93102  0  0  1  0  0  0  0  0999 V2000
  -26.6680  -22.5430   20.9890 C   0  0  0  0  0  2  0  0  0  0  0  0
  -27.8580  -23.3450   21.5330 C   0  0  0  0  0  2  0  0  0  0  0  0
  -27.1270  -22.0110   19.6190 C   0  0  0  0  0  2  0  0  0  0  0  0
  -28.7610  -23.5180   20.3130 C   0  0  0  0  0  3  0  0  0  0  0  0
  -28.5820  -22.1520   19.5900 N   0  0  0  0  0  0  0  0  0  0  0  0
  -29.5750  -20.1410   20.9720 C   0  0  0  0  0  3  0  0  0  0  0  0
  -29.8660  -18.7180   21.0990 C   0  0  0  0  0  3  0  0  0  0  0  0
  -29.1290  -20.7690   19.7620 C   0  0  0  0  0  0  0  0  0  0  0  0
  -29.7820  -17.7530   20.0330 C   0  0  0  0  0  0  0  0  0  0  0  0
  -29.0750  -19.8030   18.6890 C   0  0  0  0  0  0  0  0  0  0  0  0
  -29.3850  -18.3860   18.8120 C   0  0  0  0  0  0  0  0  0  0  0  0
  -28.6490  -20.2390   17.4780 F   0  0  0  0  0  0  0  0  0  0  0  0
  -29.2150  -17.6000   17.7200 F   0  0  0  0  0  0  0  0  0  0  0  0
  -30.6090  -15.1380   19.8670 C   0  0  0  0  0  0  0  0  0  0  0  0
  -30.4680  -12.7940   18.9260 C   0  0  0  0  0  2  0  0  0  0  0  0
  -29.4510  -12.7720   17.7600 C   0  0  0  0  0  2  0  0  0  0  0  0
  -28.0180  -12.5590   18.2830 C   0  0  0  0  0  2  0  0  0  0  0  0
  -27.6920  -13.4670   19.4970 C   0  0  0  0  0  3  0  0  0  0  0  0
  -28.8180  -13.4440   20.5540 C   0  0  0  0  0  2  0  0  0  0  0  0
  -30.0550  -13.8630   19.8780 N   0  0  0  0  0  0  0  0  0  0  0  0
  -31.7580  -15.2670   19.4260 O   0  0  0  0  0  0  0  0  0  0  0  0
  -29.8150  -16.2400   20.2570 N   0  0  0  0  0  0  0  0  0  0  0  0
  -28.9830  -15.9120   20.7240 H   0  0  0  0  0  0  0  0  0  0  0  0
  -25.3720  -14.0380   20.4170 C   0  0  0  0  0  0  0  0  0  0  0  0
  -24.3290  -13.2580   20.8350 C   0  0  0  0  0  0  0  0  0  0  0  0
  -24.7780  -11.9060   20.7260 C   0  0  0  0  0  0  0  0  0  0  0  0
  -26.3880  -13.1630   20.0750 N   0  0  0  0  0  0  0  0  0  0  0  0
  -26.0440  -11.8720   20.3230 N   0  0  0  0  0  0  0  0  0  0  0  0
  -24.0570  -10.6420   20.9240 C   0  0  0  0  0  0  0  0  0  0  0  0
  -24.4910   -9.6830   21.8640 C   0  0  0  0  0  3  0  0  0  0  0  0
  -23.7690   -8.4840   22.0500 C   0  0  0  0  0  3  0  0  0  0  0  0
  -22.5970   -8.2370   21.2940 C   0  0  0  0  0  0  0  0  0  0  0  0
  -22.1820   -9.1850   20.3420 C   0  0  0  0  0  3  0  0  0  0  0  0
  -22.9050  -10.3750   20.1560 C   0  0  0  0  0  3  0  0  0  0  0  0
  -21.8460   -7.0910   21.3890 O   0  0  0  0  0  0  0  0  0  0  0  0
  -21.7240   -6.4050   22.5710 C   0  0  0  0  0  0  0  0  0  0  0  0
  -21.1850   -7.0070   23.7290 C   0  0  0  0  0  3  0  0  0  0  0  0
  -21.0150   -6.2460   24.9040 C   0  0  0  0  0  3  0  0  0  0  0  0
  -21.3730   -4.8850   24.9190 C   0  0  0  0  0  0  0  0  0  0  0  0
  -21.9040   -4.2830   23.7650 C   0  0  0  0  0  3  0  0  0  0  0  0
  -22.0760   -5.0410   22.5940 C   0  0  0  0  0  0  0  0  0  0  0  0
  -22.5700   -4.4510   21.4770 F   0  0  0  0  0  0  0  0  0  0  0  0
  -21.2010   -4.1510   26.0430 F   0  0  0  0  0  0  0  0  0  0  0  0
  -22.9580  -13.7340   21.2210 C   0  0  0  0  0  0  0  0  0  0  0  0
  -22.2870  -13.0150   22.1130 N   0  0  0  0  0  0  0  0  0  0  0  0
  -22.4940  -14.7780   20.7650 O   0  0  0  0  0  0  0  0  0  0  0  0
  -22.6780  -12.1690   22.5020 H   0  0  0  0  0  0  0  0  0  0  0  0
  -21.3710  -13.3150   22.4120 H   0  0  0  0  0  0  0  0  0  0  0  0
  -25.5340  -15.4140   20.2750 N   0  0  0  0  0  0  0  0  0  0  0  0
  -24.7740  -16.0630   20.4490 H   0  0  0  0  0  0  0  0  0  0  0  0
  -26.3440  -15.8560   19.8630 H   0  0  0  0  0  0  0  0  0  0  0  0
  -28.2800  -24.9520   19.5580 C   0  0  0  0  0  2  0  0  0  0  0  0
  -28.2830  -26.4050   20.1170 O   0  0  0  0  0  0  0  0  0  0  0  0
  -24.6050  -31.9650   23.2200 C   0  0  0  0  0  0  0  0  0  0  0  0
  -27.1920  -27.3460   20.0540 C   0  0  0  0  0  0  0  0  0  0  0  0
  -23.3940  -30.5870   21.5760 C   0  0  0  0  0  3  0  0  0  0  0  0
  -24.8370  -29.0580   20.0990 C   0  0  0  0  0  0  0  0  0  0  0  0
  -25.9430  -30.8840   21.3770 C   0  0  0  0  0  2  0  0  0  0  0  0
  -26.0190  -29.5060   20.6990 C   0  0  0  0  0  0  0  0  0  0  0  0
  -27.1920  -28.6640   20.6660 C   0  0  0  0  0  3  0  0  0  0  0  0
  -25.9790  -27.0040   19.4100 C   0  0  0  0  0  3  0  0  0  0  0  0
  -24.8300  -27.8190   19.4400 C   0  0  0  0  0  3  0  0  0  0  0  0
  -23.5990  -29.9360   20.1830 C   0  0  0  0  0  2  0  0  0  0  0  0
  -24.6680  -31.1650   22.1120 N   0  0  0  0  0  0  0  0  0  0  0  0
  -23.5250  -32.2280   23.7690 O   0  0  0  0  0  0  0  0  0  0  0  0
  -22.7450  -29.5520   22.5290 C   0  0  0  0  0  0  0  0  0  0  0  0
  -21.4200  -29.3530   22.4050 N   0  0  0  0  0  0  0  0  0  0  0  0
  -23.4330  -28.9330   23.3430 O   0  0  0  0  0  0  0  0  0  0  0  0
  -20.9180  -29.9060   21.7250 H   0  0  0  0  0  0  0  0  0  0  0  0
  -18.0720  -28.0600   22.8920 C   0  0  0  0  0  0  0  0  0  0  0  0
  -20.6230  -28.3890   23.1680 C   0  0  0  0  0  3  0  0  0  0  0  0
  -20.7650  -26.9650   22.5850 C   0  0  0  0  0  2  0  0  0  0  0  0
  -19.6760  -26.6180   21.5670 C   0  0  0  0  0  2  0  0  0  0  0  0
  -18.2870  -26.7210   22.2060 C   0  0  0  0  0  2  0  0  0  0  0  0
  -19.1690  -28.8510   23.3290 C   0  0  0  0  0  0  0  0  0  0  0  0
  -18.9120  -30.1030   23.9260 C   0  0  0  0  0  3  0  0  0  0  0  0
  -17.5930  -30.5650   24.0930 C   0  0  0  0  0  3  0  0  0  0  0  0
  -16.5110  -29.7720   23.6730 C   0  0  0  0  0  3  0  0  0  0  0  0
  -16.7520  -28.5210   23.0780 C   0  0  0  0  0  3  0  0  0  0  0  0
  -25.8860  -32.6050   23.8380 C   0  0  0  0  0  3  0  0  0  0  0  0
  -25.5710  -34.0030   24.1730 N   0  0  0  0  0  0  0  0  0  0  0  0
  -25.8870  -35.0610   23.4160 C   0  0  0  0  0  0  0  0  0  0  0  0
  -26.5440  -34.9630   22.3750 O   0  0  0  0  0  0  0  0  0  0  0  0
  -24.9860  -34.1500   24.9830 H   0  0  0  0  0  0  0  0  0  0  0  0
  -24.1500  -36.8520   23.0920 C   0  0  0  0  0  1  0  0  0  0  0  0
  -25.4020  -36.4460   23.8860 C   0  0  0  0  0  3  0  0  0  0  0  0
  -27.5400  -37.3400   24.6980 C   0  0  0  0  0  1  0  0  0  0  0  0
  -26.4300  -37.5030   23.7640 N   0  0  0  0  0  0  0  0  0  0  0  0
  -26.0220  -38.4220   23.9130 H   0  0  0  0  0  0  0  0  0  0  0  0
  -26.4080  -31.8370   25.1150 C   0  0  1  0  0  0  0  0  0  0  0  0
  -25.3170  -31.5960   26.1850 C   0  0  0  0  0  1  0  0  0  0  0  0
  -26.9960  -30.4620   24.7280 C   0  0  0  0  0  1  0  0  0  0  0  0
  -27.5550  -32.6370   25.7730 C   0  0  0  0  0  1  0  0  0  0  0  0
  1  2  1  0
  3  1  1  0
  4 52  1  0
  4  2  1  0
  5  3  1  0
  5  8  1  0
  5  4  1  0
  6  7  1  0
  8  6  2  0
  9 22  1  0
  9  7  2  0
 10 11  2  0
 10  8  1  0
 11  9  1  0
 12 10  1  0
 13 11  1  0
 14 20  1  0
 14 22  1  0
 15 20  1  0
 16 17  1  0
 16 15  1  0
 18 17  1  0
 18 27  1  0
 18 19  1  0
 20 19  1  0
 21 14  2  0
 22 23  1  0
 24 25  2  0
 25 44  1  0
 26 25  1  0
 26 29  1  0
 27 28  1  0
 27 24  1  0
 28 26  2  0
 29 30  1  0
 30 31  2  0
 32 35  1  0
 32 31  1  0
 33 32  2  0
 34 33  1  0
 34 29  2  0
 35 36  1  0
 36 41  2  0
 36 37  1  0
 37 38  2  0
 38 39  1  0
 39 43  1  0
 40 39  2  0
 41 40  1  0
 42 41  1  0
 44 45  1  0
 45 48  1  0
 45 47  1  0
 46 44  2  0
 49 24  1  0
 49 50  1  0
 51 49  1  0
 52 53  1  0
 54 65  2  0
 55 53  1  0
 55 60  1  0
 56 64  1  0
 56 66  1  0
 57 63  1  0
 57 59  1  0
 58 64  1  0
 59 58  1  0
 60 59  2  0
 61 62  1  0
 61 55  2  0
 62 57  2  0
 63 56  1  0
 64 54  1  0
 66 68  2  0
 67 66  1  0
 69 67  1  0
 70 79  2  0
 70 75  1  0
 71 67  1  0
 71 75  1  0
 72 71  1  0
 73 74  1  0
 73 72  1  0
 74 70  1  0
 75 76  2  0
 76 77  1  0
 78 77  2  0
 79 78  1  0
 80 54  1  0
 80 81  1  0
 80 90  1  0
 81 84  1  0
 82 86  1  0
 82 81  1  0
 83 82  2  0
 86 85  1  0
 88 86  1  0
 88 89  1  0
 88 87  1  0
 90 93  1  1
 90 91  1  0
 92 90  1  0
M  ISO  4  14 100  22 100  52 101  53 101
M  END
>  <TORSDO>  (8) 
F 18

>  <SCORE>  (8) 
-14.215

>  <name>  (8) 
7

>  <ligand_id>  (8) 
7

>  <original_smiles>  (8) 
[H]c1c([H])c([H])c2c(c1[H])C([H])([H])C([H])([H])C([H])([H])C2([H])N([H])C(=O)C1([H])N(C(=O)C([H])(N([H])C(=O)C([H])(N([H])C([H])([H])[H])C([H])([H])[H])C(C([H])([H])[H])(C([H])([H])[H])C([H])([H])[H])C([H])([H])c2c([H])c(OC([H])([H])C3([H])N(c4c([H])c([H])c(N([H])C(=O)N5C([H])([H])C([H])([H])C([H])([H])C([H])(n6nc(-c7c([H])c([H])c(Oc8c([H])c([H])c(F)c([H])c8F)c([H])c7[H])c(C(=O)N([H])[H])c6N([H])[H])C5([H])[H])c(F)c4F)C([H])([H])C([H])([H])C3([H])[H])c([H])c([H])c2C1([H])[H]

>  <smiles>  (8) 
[H]c1c([H])c([H])c2c(c1[H])C([H])([H])C([H])([H])C([H])([H])C2([H])N([H])C(=O)C1([H])N(C(=O)C([H])(N([H])C(=O)C([H])(N([H])C([H])([H])[H])C([H])([H])[H])C(C([H])([H])[H])(C([H])([H])[H])C([H])([H])[H])C([H])([H])c2c([H])c(OC([H])([H])C3([H])N(c4c([H])c([H])c(N([H])C(=O)N5C([H])([H])C([H])([H])C([H])([H])C([H])(n6nc(-c7c([H])c([H])c(Oc8c([H])c([H])c(F)c([H])c8F)c([H])c7[H])c(C(=O)N([H])[H])c6N([H])[H])C5([H])[H])c(F)c4F)C([H])([H])C([H])([H])C3([H])[H])c([H])c([H])c2C1([H])[H]

$$$$
8:0:0
     RDKit          3D

 91100  0  0  1  0  0  0  0  0999 V2000
  -28.2800  -19.9180   19.6620 C   0  0  0  0  0  3  0  0  0  0  0  0
  -30.3270  -18.7610   21.0670 C   0  0  0  0  0  3  0  0  0  0  0  0
  -29.0010  -20.9300   20.4000 C   0  0  0  0  0  0  0  0  0  0  0  0
  -29.5490  -17.7750   20.3570 C   0  0  0  0  0  0  0  0  0  0  0  0
  -30.0660  -20.2110   21.0890 C   0  0  0  0  0  0  0  0  0  0  0  0
  -28.5080  -18.4740   19.6460 C   0  0  0  0  0  0  0  0  0  0  0  0
  -30.8890  -20.9570   21.8660 F   0  0  0  0  0  0  0  0  0  0  0  0
  -27.4120  -17.5170   18.7150 Cl  0  0  0  0  0  0  0  0  0  0  0  0
  -30.4520  -15.0870   20.3140 C   0  0  0  0  0  0  0  0  0  0  0  0
  -30.3900  -12.7230   19.3530 C   0  0  0  0  0  2  0  0  0  0  0  0
  -29.4370  -12.6620   18.1360 C   0  0  0  0  0  2  0  0  0  0  0  0
  -27.9800  -12.4290   18.5840 C   0  0  0  0  0  2  0  0  0  0  0  0
  -27.5780  -13.3400   19.7730 C   0  0  0  0  0  3  0  0  0  0  0  0
  -28.6490  -13.3490   20.8850 C   0  0  0  0  0  2  0  0  0  0  0  0
  -29.9030  -13.8000   20.2630 N   0  0  0  0  0  0  0  0  0  0  0  0
  -31.6580  -15.1880   20.0550 O   0  0  0  0  0  0  0  0  0  0  0  0
  -29.5760  -16.2150   20.4370 N   0  0  0  0  0  0  0  0  0  0  0  0
  -28.6340  -15.8590   20.4700 H   0  0  0  0  0  0  0  0  0  0  0  0
  -25.2070  -13.9000   20.5550 C   0  0  0  0  0  0  0  0  0  0  0  0
  -24.1500  -13.1170   20.9280 C   0  0  0  0  0  0  0  0  0  0  0  0
  -24.6170  -11.7680   20.8710 C   0  0  0  0  0  0  0  0  0  0  0  0
  -26.2490  -13.0280   20.2860 N   0  0  0  0  0  0  0  0  0  0  0  0
  -25.9040  -11.7400   20.5440 N   0  0  0  0  0  0  0  0  0  0  0  0
  -23.8930  -10.5020   21.0500 C   0  0  0  0  0  0  0  0  0  0  0  0
  -24.3210   -9.5320   21.9830 C   0  0  0  0  0  3  0  0  0  0  0  0
  -23.5970   -8.3330   22.1500 C   0  0  0  0  0  3  0  0  0  0  0  0
  -22.4290   -8.0950   21.3860 C   0  0  0  0  0  0  0  0  0  0  0  0
  -22.0210   -9.0540   20.4430 C   0  0  0  0  0  3  0  0  0  0  0  0
  -22.7460  -10.2460   20.2730 C   0  0  0  0  0  3  0  0  0  0  0  0
  -21.6770   -6.9490   21.4640 O   0  0  0  0  0  0  0  0  0  0  0  0
  -21.5960   -6.2180   22.6220 C   0  0  0  0  0  0  0  0  0  0  0  0
  -21.1010   -6.7740   23.8210 C   0  0  0  0  0  3  0  0  0  0  0  0
  -20.9710   -5.9680   24.9710 C   0  0  0  0  0  3  0  0  0  0  0  0
  -21.3260   -4.6060   24.9200 C   0  0  0  0  0  0  0  0  0  0  0  0
  -21.8130   -4.0500   23.7240 C   0  0  0  0  0  3  0  0  0  0  0  0
  -21.9450   -4.8520   22.5780 C   0  0  0  0  0  0  0  0  0  0  0  0
  -22.3960   -4.3060   21.4240 F   0  0  0  0  0  0  0  0  0  0  0  0
  -21.1930   -3.8300   26.0210 F   0  0  0  0  0  0  0  0  0  0  0  0
  -22.7550  -13.5900   21.2180 C   0  0  0  0  0  0  0  0  0  0  0  0
  -22.0380  -12.8860   22.0870 N   0  0  0  0  0  0  0  0  0  0  0  0
  -22.3090  -14.6170   20.7080 O   0  0  0  0  0  0  0  0  0  0  0  0
  -22.4110  -12.0550   22.5210 H   0  0  0  0  0  0  0  0  0  0  0  0
  -21.1030  -13.1840   22.3240 H   0  0  0  0  0  0  0  0  0  0  0  0
  -25.3580  -15.2730   20.3930 N   0  0  0  0  0  0  0  0  0  0  0  0
  -24.5680  -15.8990   20.5020 H   0  0  0  0  0  0  0  0  0  0  0  0
  -26.1470  -15.7200   19.9450 H   0  0  0  0  0  0  0  0  0  0  0  0
  -29.2210  -23.6260   21.1680 C   0  0  0  0  0  2  0  0  0  0  0  0
  -27.9920  -23.4120   19.5150 C   0  0  0  0  0  2  0  0  0  0  0  0
  -28.0820  -24.6160   20.5880 C   0  0  0  0  0  3  0  0  0  0  0  0
  -28.5980  -22.4430   20.4950 N   0  0  0  0  0  0  0  0  0  0  0  0
  -28.2880  -26.1710   20.3640 O   0  0  0  0  0  0  0  0  0  0  0  0
  -24.6170  -31.9250   23.2850 C   0  0  0  0  0  0  0  0  0  0  0  0
  -27.2200  -27.1540   20.3230 C   0  0  0  0  0  0  0  0  0  0  0  0
  -23.4340  -30.5200   21.6410 C   0  0  0  0  0  3  0  0  0  0  0  0
  -24.8940  -28.9200   20.2480 C   0  0  0  0  0  0  0  0  0  0  0  0
  -25.9920  -30.7710   21.5040 C   0  0  0  0  0  2  0  0  0  0  0  0
  -26.0710  -29.3690   20.8630 C   0  0  0  0  0  0  0  0  0  0  0  0
  -27.2350  -28.5060   20.8740 C   0  0  0  0  0  3  0  0  0  0  0  0
  -26.0150  -26.8070   19.6780 C   0  0  0  0  0  3  0  0  0  0  0  0
  -24.8820  -27.6540   19.6400 C   0  0  0  0  0  3  0  0  0  0  0  0
  -23.6700  -29.8260   20.2720 C   0  0  0  0  0  2  0  0  0  0  0  0
  -24.7000  -31.0950   22.1980 N   0  0  0  0  0  0  0  0  0  0  0  0
  -23.5250  -32.2160   23.7970 O   0  0  0  0  0  0  0  0  0  0  0  0
  -22.7380  -29.5260   22.6050 C   0  0  0  0  0  0  0  0  0  0  0  0
  -21.4120  -29.3540   22.4610 N   0  0  0  0  0  0  0  0  0  0  0  0
  -23.3970  -28.9090   23.4470 O   0  0  0  0  0  0  0  0  0  0  0  0
  -20.9380  -29.9020   21.7560 H   0  0  0  0  0  0  0  0  0  0  0  0
  -18.0230  -28.1600   22.9310 C   0  0  0  0  0  0  0  0  0  0  0  0
  -20.5790  -28.4230   23.2270 C   0  0  0  0  0  3  0  0  0  0  0  0
  -20.6860  -26.9870   22.6630 C   0  0  0  0  0  2  0  0  0  0  0  0
  -19.5960  -26.6580   21.6380 C   0  0  0  0  0  2  0  0  0  0  0  0
  -18.2070  -26.8080   22.2640 C   0  0  0  0  0  2  0  0  0  0  0  0
  -19.1370  -28.9260   23.3690 C   0  0  0  0  0  0  0  0  0  0  0  0
  -18.9100  -30.1900   23.9540 C   0  0  0  0  0  3  0  0  0  0  0  0
  -17.6030  -30.6910   24.1040 C   0  0  0  0  0  3  0  0  0  0  0  0
  -16.5040  -29.9230   23.6810 C   0  0  0  0  0  3  0  0  0  0  0  0
  -16.7140  -28.6600   23.1010 C   0  0  0  0  0  3  0  0  0  0  0  0
  -25.8870  -32.5640   23.9240 C   0  0  0  0  0  3  0  0  0  0  0  0
  -26.3710  -31.8120   25.2250 C   0  0  1  0  0  0  0  0  0  0  0  0
  -25.2540  -31.5990   26.2750 C   0  0  0  0  0  1  0  0  0  0  0  0
  -26.9540  -30.4240   24.8740 C   0  0  0  0  0  1  0  0  0  0  0  0
  -27.5130  -32.6100   25.8980 C   0  0  0  0  0  1  0  0  0  0  0  0
  -25.5770  -33.9690   24.2340 N   0  0  0  0  0  0  0  0  0  0  0  0
  -25.9100  -35.0140   23.4650 C   0  0  0  0  0  0  0  0  0  0  0  0
  -26.5760  -34.8970   22.4330 O   0  0  0  0  0  0  0  0  0  0  0  0
  -24.9850  -34.1340   25.0340 H   0  0  0  0  0  0  0  0  0  0  0  0
  -24.1800  -36.8080   23.1070 C   0  0  0  0  0  1  0  0  0  0  0  0
  -25.4310  -36.4110   23.9080 C   0  0  0  0  0  3  0  0  0  0  0  0
  -27.5710  -37.3130   24.7080 C   0  0  0  0  0  1  0  0  0  0  0  0
  -26.4630  -37.4610   23.7670 N   0  0  0  0  0  0  0  0  0  0  0  0
  -26.0590  -38.3850   23.8960 H   0  0  0  0  0  0  0  0  0  0  0  0
  1  3  1  0
  2  5  1  0
  3 50  1  0
  3  5  2  0
  4 17  1  0
  4  2  2  0
  5  7  1  0
  6  1  2  0
  6  4  1  0
  8  6  1  0
  9 17  1  0
 10 15  1  0
 11 12  1  0
 11 10  1  0
 13 12  1  0
 13 22  1  0
 13 14  1  0
 15  9  1  0
 15 14  1  0
 16  9  2  0
 17 18  1  0
 19 20  2  0
 20 39  1  0
 21 20  1  0
 21 24  1  0
 22 23  1  0
 22 19  1  0
 23 21  2  0
 24 25  1  0
 25 26  2  0
 27 30  1  0
 27 26  1  0
 28 27  2  0
 29 28  1  0
 29 24  2  0
 30 31  1  0
 31 32  1  0
 32 33  2  0
 34 33  1  0
 34 38  1  0
 35 34  2  0
 36 31  2  0
 36 35  1  0
 37 36  1  0
 39 40  1  0
 40 43  1  0
 40 42  1  0
 41 39  2  0
 44 45  1  0
 44 19  1  0
 46 44  1  0
 48 50  1  0
 48 49  1  0
 49 51  1  0
 49 47  1  0
 50 47  1  0
 52 63  2  0
 53 51  1  0
 53 58  1  0
 54 62  1  0
 54 64  1  0
 55 61  1  0
 55 57  1  0
 56 62  1  0
 57 58  2  0
 57 56  1  0
 59 53  2  0
 60 59  1  0
 60 55  2  0
 61 54  1  0
 62 52  1  0
 64 66  2  0
 65 64  1  0
 67 65  1  0
 68 77  2  0
 68 73  1  0
 69 65  1  0
 69 73  1  0
 70 69  1  0
 71 72  1  0
 71 70  1  0
 72 68  1  0
 73 74  2  0
 74 75  1  0
 76 75  2  0
 77 76  1  0
 78 52  1  0
 78 83  1  0
 78 79  1  0
 79 82  1  1
 79 80  1  0
 81 79  1  0
 83 86  1  0
 84 88  1  0
 84 83  1  0
 85 84  2  0
 88 87  1  0
 90 91  1  0
 90 88  1  0
 90 89  1  0
M  ISO  4   9 100  17 100  49 101  51 101
M  END
>  <TORSDO>  (9) 
F 17

>  <SCORE>  (9) 
-15.324

>  <name>  (9) 
8

>  <ligand_id>  (9) 
8

>  <original_smiles>  (9) 
[H]c1c([H])c([H])c2c(c1[H])C([H])([H])C([H])([H])C([H])([H])C2([H])N([H])C(=O)C1([H])N(C(=O)C([H])(N([H])C(=O)C([H])(N([H])C([H])([H])[H])C([H])([H])[H])C(C([H])([H])[H])(C([H])([H])[H])C([H])([H])[H])C([H])([H])c2c([H])c(OC3([H])C([H])([H])N(c4c([H])c(Cl)c(N([H])C(=O)N5C([H])([H])C([H])([H])C([H])([H])C([H])(n6nc(-c7c([H])c([H])c(Oc8c([H])c([H])c(F)c([H])c8F)c([H])c7[H])c(C(=O)N([H])[H])c6N([H])[H])C5([H])[H])c([H])c4F)C3([H])[H])c([H])c([H])c2C1([H])[H]

>  <smiles>  (9) 
[H]c1c([H])c([H])c2c(c1[H])C([H])([H])C([H])([H])C([H])([H])C2([H])N([H])C(=O)C1([H])N(C(=O)C([H])(N([H])C(=O)C([H])(N([H])C([H])([H])[H])C([H])([H])[H])C(C([H])([H])[H])(C([H])([H])[H])C([H])([H])[H])C([H])([H])c2c([H])c(OC3([H])C([H])([H])N(c4c([H])c(Cl)c(N([H])C(=O)N5C([H])([H])C([H])([H])C([H])([H])C([H])(n6nc(-c7c([H])c([H])c(Oc8c([H])c([H])c(F)c([H])c8F)c([H])c7[H])c(C(=O)N([H])[H])c6N([H])[H])C5([H])[H])c([H])c4F)C3([H])[H])c([H])c([H])c2C1([H])[H]

$$$$
9:0:0
     RDKit          3D

 93101  0  0  1  0  0  0  0  0999 V2000
  -29.1140  -20.4870   20.7940 C   0  0  0  0  0  0  0  0  0  0  0  0
  -29.5340  -21.7710   20.6560 N   0  0  0  0  0  0  0  0  0  0  0  0
  -27.9370  -20.1900   20.5570 O   0  0  0  0  0  0  0  0  0  0  0  0
  -30.5090  -21.9830   20.8220 H   0  0  0  0  0  0  0  0  0  0  0  0
  -31.9230  -18.4320   22.5250 C   0  0  0  0  0  3  0  0  0  0  0  0
  -31.5630  -17.1230   22.1490 C   0  0  0  0  0  3  0  0  0  0  0  0
  -29.7370  -18.0300   20.8380 C   0  0  0  0  0  3  0  0  0  0  0  0
  -30.0680  -19.3690   21.2140 C   0  0  0  0  0  0  0  0  0  0  0  0
  -31.1910  -19.5580   22.0790 C   0  0  0  0  0  0  0  0  0  0  0  0
  -30.4700  -16.9010   21.2870 C   0  0  0  0  0  0  0  0  0  0  0  0
  -31.6380  -20.9270   22.5830 C   0  0  0  0  0  1  0  0  0  0  0  0
  -30.6020  -14.6490   20.1910 C   0  0  0  0  0  0  0  0  0  0  0  0
  -30.2440  -12.5310   18.9380 C   0  0  0  0  0  2  0  0  0  0  0  0
  -29.2240  -12.7380   17.7960 C   0  0  0  0  0  2  0  0  0  0  0  0
  -27.7760  -12.5700   18.3060 C   0  0  0  0  0  2  0  0  0  0  0  0
  -27.5060  -13.3680   19.6090 C   0  0  0  0  0  3  0  0  0  0  0  0
  -28.6250  -13.1240   20.6470 C   0  0  0  0  0  2  0  0  0  0  0  0
  -29.9160  -13.4750   20.0240 N   0  0  0  0  0  0  0  0  0  0  0  0
  -31.6500  -14.8890   19.5820 O   0  0  0  0  0  0  0  0  0  0  0  0
  -30.0210  -15.5690   20.9960 N   0  0  0  0  0  0  0  0  0  0  0  0
  -29.1350  -15.2950   21.3960 H   0  0  0  0  0  0  0  0  0  0  0  0
  -25.1510  -13.9280   20.4800 C   0  0  0  0  0  0  0  0  0  0  0  0
  -24.1080  -13.1370   20.8800 C   0  0  0  0  0  0  0  0  0  0  0  0
  -24.5680  -11.7890   20.7640 C   0  0  0  0  0  0  0  0  0  0  0  0
  -26.1850  -13.0630   20.1530 N   0  0  0  0  0  0  0  0  0  0  0  0
  -25.8380  -11.7680   20.3730 N   0  0  0  0  0  0  0  0  0  0  0  0
  -23.8560  -10.5180   20.9530 C   0  0  0  0  0  0  0  0  0  0  0  0
  -24.2820   -9.5680   21.9060 C   0  0  0  0  0  3  0  0  0  0  0  0
  -23.5730   -8.3600   22.0800 C   0  0  0  0  0  3  0  0  0  0  0  0
  -22.4220   -8.0940   21.3010 C   0  0  0  0  0  0  0  0  0  0  0  0
  -22.0150   -9.0330   20.3370 C   0  0  0  0  0  3  0  0  0  0  0  0
  -22.7250  -10.2340   20.1610 C   0  0  0  0  0  3  0  0  0  0  0  0
  -21.6860   -6.9370   21.3830 O   0  0  0  0  0  0  0  0  0  0  0  0
  -21.5560   -6.2460   22.5620 C   0  0  0  0  0  0  0  0  0  0  0  0
  -20.9650   -6.8300   23.7040 C   0  0  0  0  0  3  0  0  0  0  0  0
  -20.7850   -6.0620   24.8710 C   0  0  0  0  0  3  0  0  0  0  0  0
  -21.1850   -4.7130   24.8990 C   0  0  0  0  0  0  0  0  0  0  0  0
  -21.7650   -4.1290   23.7610 C   0  0  0  0  0  3  0  0  0  0  0  0
  -21.9480   -4.8930   22.5940 C   0  0  0  0  0  0  0  0  0  0  0  0
  -22.4900   -4.3200   21.4940 F   0  0  0  0  0  0  0  0  0  0  0  0
  -21.0040   -3.9760   26.0200 F   0  0  0  0  0  0  0  0  0  0  0  0
  -22.7290  -13.6020   21.2530 C   0  0  0  0  0  0  0  0  0  0  0  0
  -22.0400  -12.8630   22.1190 N   0  0  0  0  0  0  0  0  0  0  0  0
  -22.2670  -14.6530   20.8080 O   0  0  0  0  0  0  0  0  0  0  0  0
  -22.4220  -12.0160   22.5090 H   0  0  0  0  0  0  0  0  0  0  0  0
  -21.1150  -13.1560   22.3980 H   0  0  0  0  0  0  0  0  0  0  0  0
  -25.3010  -15.3050   20.3520 N   0  0  0  0  0  0  0  0  0  0  0  0
  -24.5390  -15.9480   20.5420 H   0  0  0  0  0  0  0  0  0  0  0  0
  -26.1390  -15.7650   20.0150 H   0  0  0  0  0  0  0  0  0  0  0  0
  -28.6000  -22.8800   20.3480 C   0  0  0  0  0  2  0  0  0  0  0  0
  -29.1440  -24.3480   20.3620 C   0  0  0  0  0  2  0  0  0  0  0  0
  -27.9560  -25.3620   20.3910 C   0  0  0  0  0  2  0  0  0  0  0  0
  -28.1990  -26.7370   19.9760 O   0  0  0  0  0  0  0  0  0  0  0  0
  -24.5010  -31.9510   23.1770 C   0  0  0  0  0  0  0  0  0  0  0  0
  -27.0600  -27.5340   19.9620 C   0  0  0  0  0  0  0  0  0  0  0  0
  -23.2500  -30.5710   21.5490 C   0  0  0  0  0  3  0  0  0  0  0  0
  -24.6670  -29.0680   20.0490 C   0  0  0  0  0  0  0  0  0  0  0  0
  -25.7720  -30.9330   21.2860 C   0  0  0  0  0  2  0  0  0  0  0  0
  -25.8430  -29.5710   20.6210 C   0  0  0  0  0  0  0  0  0  0  0  0
  -27.0410  -28.8120   20.5770 C   0  0  0  0  0  3  0  0  0  0  0  0
  -25.8680  -27.0790   19.3470 C   0  0  0  0  0  3  0  0  0  0  0  0
  -24.6810  -27.8240   19.4020 C   0  0  0  0  0  3  0  0  0  0  0  0
  -23.4220  -29.9210   20.1510 C   0  0  0  0  0  2  0  0  0  0  0  0
  -24.5280  -31.1650   22.0620 N   0  0  0  0  0  0  0  0  0  0  0  0
  -23.4350  -32.2100   23.7540 O   0  0  0  0  0  0  0  0  0  0  0  0
  -22.6340  -29.5300   22.5090 C   0  0  0  0  0  0  0  0  0  0  0  0
  -21.3140  -29.3200   22.3960 N   0  0  0  0  0  0  0  0  0  0  0  0
  -23.3390  -28.9180   23.3170 O   0  0  0  0  0  0  0  0  0  0  0  0
  -20.7970  -29.8700   21.7230 H   0  0  0  0  0  0  0  0  0  0  0  0
  -17.9690  -28.0510   22.9190 C   0  0  0  0  0  0  0  0  0  0  0  0
  -20.5230  -28.3600   23.1650 C   0  0  0  0  0  3  0  0  0  0  0  0
  -20.6470  -26.9330   22.5790 C   0  0  0  0  0  2  0  0  0  0  0  0
  -19.5400  -26.5940   21.5740 C   0  0  0  0  0  2  0  0  0  0  0  0
  -18.1650  -26.7090   22.2350 C   0  0  0  0  0  2  0  0  0  0  0  0
  -19.0770  -28.8330   23.3420 C   0  0  0  0  0  0  0  0  0  0  0  0
  -18.8400  -30.0900   23.9410 C   0  0  0  0  0  3  0  0  0  0  0  0
  -17.5280  -30.5640   24.1250 C   0  0  0  0  0  3  0  0  0  0  0  0
  -16.4330  -29.7800   23.7130 C   0  0  0  0  0  3  0  0  0  0  0  0
  -16.6570  -28.5260   23.1190 C   0  0  0  0  0  3  0  0  0  0  0  0
  -25.8030  -32.5750   23.7670 C   0  0  0  0  0  3  0  0  0  0  0  0
  -26.3580  -31.7880   25.0150 C   0  0  1  0  0  0  0  0  0  0  0  0
  -25.2910  -31.5030   26.0960 C   0  0  0  0  0  1  0  0  0  0  0  0
  -26.9630  -30.4340   24.5760 C   0  0  0  0  0  1  0  0  0  0  0  0
  -27.5040  -32.5920   25.6760 C   0  0  0  0  0  1  0  0  0  0  0  0
  -25.5040  -33.9690   24.1240 N   0  0  0  0  0  0  0  0  0  0  0  0
  -25.8260  -35.0300   23.3720 C   0  0  0  0  0  0  0  0  0  0  0  0
  -26.4760  -34.9380   22.3250 O   0  0  0  0  0  0  0  0  0  0  0  0
  -24.9310  -34.1180   24.9400 H   0  0  0  0  0  0  0  0  0  0  0  0
  -24.1080  -36.8390   23.0500 C   0  0  0  0  0  1  0  0  0  0  0  0
  -25.3470  -36.4130   23.8560 C   0  0  0  0  0  3  0  0  0  0  0  0
  -27.4840  -37.2710   24.7090 C   0  0  0  0  0  1  0  0  0  0  0  0
  -26.3880  -37.4610   23.7620 N   0  0  0  0  0  0  0  0  0  0  0  0
  -25.9870  -38.3830   23.9180 H   0  0  0  0  0  0  0  0  0  0  0  0
  1  8  1  0
  2  1  1  0
  2  4  1  0
  3  1  2  0
  6  5  1  0
  7  8  2  0
  7 10  1  0
  8  9  1  0
  9  5  2  0
  9 11  1  0
 10  6  2  0
 12 20  1  0
 13 18  1  0
 14 15  1  0
 14 13  1  0
 16 15  1  0
 16 25  1  0
 16 17  1  0
 18 12  1  0
 18 17  1  0
 19 12  2  0
 20 10  1  0
 20 21  1  0
 22 23  2  0
 23 42  1  0
 24 23  1  0
 24 27  1  0
 25 26  1  0
 25 22  1  0
 26 24  2  0
 27 28  1  0
 28 29  2  0
 30 33  1  0
 30 29  1  0
 31 30  2  0
 32 31  1  0
 32 27  2  0
 33 34  1  0
 34 39  2  0
 34 35  1  0
 35 36  2  0
 36 37  1  0
 37 41  1  0
 38 37  2  0
 39 38  1  0
 40 39  1  0
 42 43  1  0
 43 46  1  0
 43 45  1  0
 44 42  2  0
 47 22  1  0
 47 48  1  0
 49 47  1  0
 50 51  1  0
 50  2  1  0
 51 52  1  0
 53 52  1  0
 54 65  2  0
 55 53  1  0
 55 60  1  0
 56 64  1  0
 56 66  1  0
 57 63  1  0
 57 59  1  0
 58 64  1  0
 59 58  1  0
 60 59  2  0
 61 62  1  0
 61 55  2  0
 62 57  2  0
 63 56  1  0
 64 54  1  0
 66 68  2  0
 67 66  1  0
 69 67  1  0
 70 79  2  0
 70 75  1  0
 71 67  1  0
 71 75  1  0
 72 71  1  0
 73 74  1  0
 73 72  1  0
 74 70  1  0
 75 76  2  0
 76 77  1  0
 78 77  2  0
 79 78  1  0
 80 54  1  0
 80 85  1  0
 80 81  1  0
 81 84  1  1
 81 82  1  0
 83 81  1  0
 85 88  1  0
 86 90  1  0
 86 85  1  0
 87 86  2  0
 90 89  1  0
 92 90  1  0
 92 93  1  0
 92 91  1  0
M  ISO  4  12 100  20 100  52 101  53 101
M  END
>  <TORSDO>  (10) 
F 20

>  <SCORE>  (10) 
-12.945

>  <name>  (10) 
9

>  <ligand_id>  (10) 
9

>  <original_smiles>  (10) 
[H]c1c([H])c([H])c2c(c1[H])C([H])([H])C([H])([H])C([H])([H])C2([H])N([H])C(=O)C1([H])N(C(=O)C([H])(N([H])C(=O)C([H])(N([H])C([H])([H])[H])C([H])([H])[H])C(C([H])([H])[H])(C([H])([H])[H])C([H])([H])[H])C([H])([H])c2c([H])c(OC([H])([H])C([H])([H])C([H])([H])N([H])C(=O)c3c([H])c(N([H])C(=O)N4C([H])([H])C([H])([H])C([H])([H])C([H])(n5nc(-c6c([H])c([H])c(Oc7c([H])c([H])c(F)c([H])c7F)c([H])c6[H])c(C(=O)N([H])[H])c5N([H])[H])C4([H])[H])c([H])c([H])c3C([H])([H])[H])c([H])c([H])c2C1([H])[H]

>  <smiles>  (10) 
[H]c1c([H])c([H])c2c(c1[H])C([H])([H])C([H])([H])C([H])([H])C2([H])N([H])C(=O)C1([H])N(C(=O)C([H])(N([H])C(=O)C([H])(N([H])C([H])([H])[H])C([H])([H])[H])C(C([H])([H])[H])(C([H])([H])[H])C([H])([H])[H])C([H])([H])c2c([H])c(OC([H])([H])C([H])([H])C([H])([H])N([H])C(=O)c3c([H])c(N([H])C(=O)N4C([H])([H])C([H])([H])C([H])([H])C([H])(n5nc(-c6c([H])c([H])c(Oc7c([H])c([H])c(F)c([H])c7F)c([H])c6[H])c(C(=O)N([H])[H])c5N([H])[H])C4([H])[H])c([H])c([H])c3C([H])([H])[H])c([H])c([H])c2C1([H])[H]

$$$$
10:0:0
     RDKit          3D

 99107  0  0  1  0  0  0  0  0999 V2000
  -29.1200  -23.5760   20.2270 C   0  0  0  0  0  3  0  0  0  0  0  0
  -30.1510  -22.5070   20.1770 N   0  0  0  0  0  4  0  0  0  0  0  0
  -30.8940  -22.7790   19.5480 H   0  0  0  0  0  0  0  0  0  0  0  0
  -30.5360  -22.4140   21.1030 H   0  0  0  0  0  0  0  0  0  0  0  0
  -29.6910  -21.1600   19.7380 C   0  0  0  0  0  2  0  0  0  0  0  0
  -32.7360  -18.1130   20.3590 C   0  0  0  0  0  3  0  0  0  0  0  0
  -33.0930  -19.4030   19.9350 C   0  0  0  0  0  3  0  0  0  0  0  0
  -30.3900  -18.7470   20.3440 C   0  0  0  0  0  3  0  0  0  0  0  0
  -30.7480  -20.0680   19.9480 C   0  0  0  0  0  0  0  0  0  0  0  0
  -31.3750  -17.7350   20.5130 C   0  0  0  0  0  0  0  0  0  0  0  0
  -32.1060  -20.3680   19.7060 C   0  0  0  0  0  0  0  0  0  0  0  0
  -32.4710  -21.6000   19.2710 F   0  0  0  0  0  0  0  0  0  0  0  0
  -31.6250  -15.2440   20.4580 C   0  0  0  0  0  0  0  0  0  0  0  0
  -31.3440  -12.9540   19.6040 C   0  0  0  0  0  2  0  0  0  0  0  0
  -30.4840  -12.9980   18.3260 C   0  0  0  0  0  2  0  0  0  0  0  0
  -28.9920  -12.8840   18.6890 C   0  0  0  0  0  2  0  0  0  0  0  0
  -28.5730  -13.8690   19.8140 C   0  0  0  0  0  3  0  0  0  0  0  0
  -29.5710  -13.8560   20.9960 C   0  0  0  0  0  2  0  0  0  0  0  0
  -30.9220  -14.0780   20.4620 N   0  0  0  0  0  0  0  0  0  0  0  0
  -32.7730  -15.2800   20.0160 O   0  0  0  0  0  0  0  0  0  0  0  0
  -30.9760  -16.3790   20.8190 N   0  0  0  0  0  0  0  0  0  0  0  0
  -30.0340  -16.2460   21.1520 H   0  0  0  0  0  0  0  0  0  0  0  0
  -26.1710  -14.5090   20.4700 C   0  0  0  0  0  0  0  0  0  0  0  0
  -25.0790  -13.7530   20.7990 C   0  0  0  0  0  0  0  0  0  0  0  0
  -25.5120  -12.3920   20.7580 C   0  0  0  0  0  0  0  0  0  0  0  0
  -27.2030  -13.6110   20.2550 N   0  0  0  0  0  0  0  0  0  0  0  0
  -26.8090  -12.3310   20.4860 N   0  0  0  0  0  0  0  0  0  0  0  0
  -24.7530  -11.1410   20.9070 C   0  0  0  0  0  0  0  0  0  0  0  0
  -25.0740  -10.1950   21.9070 C   0  0  0  0  0  3  0  0  0  0  0  0
  -24.3170   -9.0120   22.0410 C   0  0  0  0  0  3  0  0  0  0  0  0
  -23.2250   -8.7660   21.1760 C   0  0  0  0  0  0  0  0  0  0  0  0
  -22.9240   -9.7000   20.1690 C   0  0  0  0  0  3  0  0  0  0  0  0
  -23.6820  -10.8750   20.0320 C   0  0  0  0  0  3  0  0  0  0  0  0
  -22.4490   -7.6320   21.2180 O   0  0  0  0  0  0  0  0  0  0  0  0
  -22.1820   -6.9860   22.3970 C   0  0  0  0  0  0  0  0  0  0  0  0
  -21.5060   -7.6240   23.4610 C   0  0  0  0  0  3  0  0  0  0  0  0
  -21.1890   -6.9020   24.6280 C   0  0  0  0  0  3  0  0  0  0  0  0
  -21.5390   -5.5430   24.7330 C   0  0  0  0  0  0  0  0  0  0  0  0
  -22.2070   -4.9040   23.6730 C   0  0  0  0  0  3  0  0  0  0  0  0
  -22.5240   -5.6230   22.5080 C   0  0  0  0  0  0  0  0  0  0  0  0
  -23.1490   -4.9970   21.4820 F   0  0  0  0  0  0  0  0  0  0  0  0
  -21.2280   -4.8460   25.8510 F   0  0  0  0  0  0  0  0  0  0  0  0
  -23.6850  -14.2540   21.0420 C   0  0  0  0  0  0  0  0  0  0  0  0
  -22.9250  -13.5680   21.8880 N   0  0  0  0  0  0  0  0  0  0  0  0
  -23.2780  -15.2910   20.5180 O   0  0  0  0  0  0  0  0  0  0  0  0
  -23.2660  -12.7260   22.3310 H   0  0  0  0  0  0  0  0  0  0  0  0
  -21.9890  -13.8850   22.0960 H   0  0  0  0  0  0  0  0  0  0  0  0
  -26.3710  -15.8780   20.3150 N   0  0  0  0  0  0  0  0  0  0  0  0
  -25.6160  -16.5500   20.3990 H   0  0  0  0  0  0  0  0  0  0  0  0
  -27.2360  -16.2930   19.9910 H   0  0  0  0  0  0  0  0  0  0  0  0
  -30.0290  -24.6430   18.0720 C   0  0  0  0  0  1  0  0  0  0  0  0
  -30.7200  -25.6170   20.2910 C   0  0  0  0  0  1  0  0  0  0  0  0
  -29.5740  -24.9210   19.5240 C   0  0  2  0  0  0  0  0  0  0  0  0
  -28.3420  -25.8680   19.4480 C   0  0  0  0  0  2  0  0  0  0  0  0
  -28.5670  -27.2610   19.1430 O   0  0  0  0  0  0  0  0  0  0  0  0
  -24.7340  -31.7350   23.1580 C   0  0  0  0  0  0  0  0  0  0  0  0
  -27.4070  -28.0080   19.2550 C   0  0  0  0  0  0  0  0  0  0  0  0
  -23.5130  -30.5650   21.3580 C   0  0  0  0  0  3  0  0  0  0  0  0
  -24.9590  -29.3840   19.6250 C   0  0  0  0  0  0  0  0  0  0  0  0
  -26.0080  -31.0860   21.1180 C   0  0  0  0  0  2  0  0  0  0  0  0
  -26.1260  -29.8530   20.2460 C   0  0  0  0  0  0  0  0  0  0  0  0
  -27.3560  -29.1730   20.0600 C   0  0  0  0  0  3  0  0  0  0  0  0
  -26.2220  -27.5890   18.6060 C   0  0  0  0  0  3  0  0  0  0  0  0
  -25.0030  -28.2540   18.7990 C   0  0  0  0  0  3  0  0  0  0  0  0
  -23.6820  -30.1520   19.8730 C   0  0  0  0  0  2  0  0  0  0  0  0
  -24.7720  -31.1350   21.9360 N   0  0  0  0  0  0  0  0  0  0  0  0
  -23.6700  -31.8550   23.7810 O   0  0  0  0  0  0  0  0  0  0  0  0
  -22.9620  -29.3590   22.1520 C   0  0  0  0  0  0  0  0  0  0  0  0
  -21.6440  -29.1220   22.0390 N   0  0  0  0  0  0  0  0  0  0  0  0
  -23.7120  -28.6520   22.8290 O   0  0  0  0  0  0  0  0  0  0  0  0
  -21.0980  -29.7580   21.4750 H   0  0  0  0  0  0  0  0  0  0  0  0
  -18.3470  -27.7150   22.5080 C   0  0  0  0  0  0  0  0  0  0  0  0
  -20.9090  -28.0270   22.6690 C   0  0  0  0  0  3  0  0  0  0  0  0
  -21.0170  -26.7290   21.8350 C   0  0  0  0  0  2  0  0  0  0  0  0
  -19.8600  -26.5510   20.8450 C   0  0  0  0  0  2  0  0  0  0  0  0
  -18.5200  -26.5180   21.5870 C   0  0  0  0  0  2  0  0  0  0  0  0
  -19.4690  -28.4320   23.0030 C   0  0  0  0  0  0  0  0  0  0  0  0
  -19.2530  -29.5580   23.8280 C   0  0  0  0  0  3  0  0  0  0  0  0
  -17.9490  -29.9660   24.1610 C   0  0  0  0  0  3  0  0  0  0  0  0
  -16.8430  -29.2430   23.6820 C   0  0  0  0  0  3  0  0  0  0  0  0
  -17.0430  -28.1190   22.8600 C   0  0  0  0  0  3  0  0  0  0  0  0
  -26.0190  -32.3240   23.8190 C   0  0  0  0  0  3  0  0  0  0  0  0
  -25.7070  -33.6920   24.2510 N   0  0  0  0  0  0  0  0  0  0  0  0
  -25.9900  -34.7950   23.5450 C   0  0  0  0  0  0  0  0  0  0  0  0
  -26.6170  -34.7680   22.4830 O   0  0  0  0  0  0  0  0  0  0  0  0
  -25.1490  -33.7870   25.0870 H   0  0  0  0  0  0  0  0  0  0  0  0
  -24.2040  -36.5590   23.3980 C   0  0  0  0  0  1  0  0  0  0  0  0
  -25.5020  -36.1440   24.1070 C   0  0  0  0  0  3  0  0  0  0  0  0
  -27.6580  -37.0410   24.8640 C   0  0  0  0  0  1  0  0  0  0  0  0
  -26.5020  -37.2280   23.9910 N   0  0  0  0  0  0  0  0  0  0  0  0
  -26.0830  -38.1260   24.2150 H   0  0  0  0  0  0  0  0  0  0  0  0
  -26.5420  -31.4600   25.0310 C   0  0  1  0  0  0  0  0  0  0  0  0
  -25.4540  -31.1390   26.0830 C   0  0  0  0  0  1  0  0  0  0  0  0
  -27.1270  -30.1190   24.5310 C   0  0  0  0  0  1  0  0  0  0  0  0
  -27.6940  -32.2060   25.7470 C   0  0  0  0  0  1  0  0  0  0  0  0
  -28.7100  -23.7750   21.7170 C   0  0  0  0  0  2  0  0  0  0  0  0
  -26.4630  -24.6440   21.7420 C   0  0  0  0  0  1  0  0  0  0  0  0
  -27.1550  -23.0920   23.3820 C   0  0  0  0  0  1  0  0  0  0  0  0
  -27.3010  -23.4660   21.9760 N   0  0  0  0  0  0  0  0  0  0  0  0
  1 96  1  0
  2  1  1  0
  2  4  1  0
  3  2  1  0
  5  9  1  0
  5  2  1  0
  6 10  1  0
  7  6  2  0
  8 10  2  0
  9  8  1  0
 10 21  1  0
 11  7  1  0
 11  9  2  0
 12 11  1  0
 13 19  1  0
 13 21  1  0
 14 19  1  0
 15 16  1  0
 15 14  1  0
 17 16  1  0
 17 26  1  0
 17 18  1  0
 19 18  1  0
 20 13  2  0
 21 22  1  0
 23 24  2  0
 24 43  1  0
 25 24  1  0
 25 28  1  0
 26 23  1  0
 26 27  1  0
 27 25  2  0
 28 29  1  0
 29 30  2  0
 31 34  1  0
 31 30  1  0
 32 31  2  0
 33 32  1  0
 33 28  2  0
 34 35  1  0
 35 40  2  0
 35 36  1  0
 36 37  2  0
 37 38  1  0
 38 42  1  0
 39 38  2  0
 40 39  1  0
 41 40  1  0
 43 44  1  0
 44 47  1  0
 44 46  1  0
 45 43  2  0
 48 49  1  0
 48 23  1  0
 50 48  1  0
 53 51  1  6
 53  1  1  0
 53 52  1  0
 54 53  1  0
 55 57  1  0
 55 54  1  0
 56 67  2  0
 57 62  1  0
 58 66  1  0
 58 68  1  0
 59 65  1  0
 59 61  1  0
 60 66  1  0
 61 60  1  0
 62 61  2  0
 63 64  1  0
 63 57  2  0
 64 59  2  0
 65 58  1  0
 66 56  1  0
 68 70  2  0
 69 68  1  0
 71 69  1  0
 72 81  2  0
 72 77  1  0
 73 69  1  0
 73 77  1  0
 74 73  1  0
 75 76  1  0
 75 74  1  0
 76 72  1  0
 77 78  2  0
 78 79  1  0
 80 79  2  0
 81 80  1  0
 82 56  1  0
 82 83  1  0
 82 92  1  0
 83 86  1  0
 84 88  1  0
 84 83  1  0
 85 84  2  0
 88 87  1  0
 90 88  1  0
 90 91  1  0
 90 89  1  0
 92 95  1  1
 92 93  1  0
 94 92  1  0
 96 99  1  0
 97 99  1  0
 99 98  1  0
M  ISO  4  13 100  21 100  54 101  55 101
M  END
>  <TORSDO>  (11) 
F 23

>  <SCORE>  (11) 
-7.349

>  <name>  (11) 
10

>  <ligand_id>  (11) 
10

>  <original_smiles>  (11) 
[H]c1c([H])c([H])c2c(c1[H])C([H])([H])C([H])([H])C([H])([H])C2([H])N([H])C(=O)C1([H])N(C(=O)C([H])(N([H])C(=O)C([H])(N([H])C([H])([H])[H])C([H])([H])[H])C(C([H])([H])[H])(C([H])([H])[H])C([H])([H])[H])C([H])([H])c2c([H])c(OC([H])([H])C(C([H])([H])[H])(C([H])([H])[H])C([H])(C([H])([H])N(C([H])([H])[H])C([H])([H])[H])[N+]([H])([H])C([H])([H])c3c([H])c(N([H])C(=O)N4C([H])([H])C([H])([H])C([H])([H])C([H])(n5nc(-c6c([H])c([H])c(Oc7c([H])c([H])c(F)c([H])c7F)c([H])c6[H])c(C(=O)N([H])[H])c5N([H])[H])C4([H])[H])c([H])c([H])c3F)c([H])c([H])c2C1([H])[H]

>  <smiles>  (11) 
[H]c1c([H])c([H])c2c(c1[H])C([H])([H])C([H])([H])C([H])([H])C2([H])N([H])C(=O)C1([H])N(C(=O)C([H])(N([H])C(=O)C([H])(N([H])C([H])([H])[H])C([H])([H])[H])C(C([H])([H])[H])(C([H])([H])[H])C([H])([H])[H])C([H])([H])c2c([H])c(OC([H])([H])C(C([H])([H])[H])(C([H])([H])[H])C([H])(C([H])([H])N(C([H])([H])[H])C([H])([H])[H])[N+]([H])([H])C([H])([H])c3c([H])c(N([H])C(=O)N4C([H])([H])C([H])([H])C([H])([H])C([H])(n5nc(-c6c([H])c([H])c(Oc7c([H])c([H])c(F)c([H])c7F)c([H])c6[H])c(C(=O)N([H])[H])c5N([H])[H])C4([H])[H])c([H])c([H])c3F)c([H])c([H])c2C1([H])[H]

$$$$
11:0:0
     RDKit          3D

 93101  0  0  1  0  0  0  0  0999 V2000
  -28.5330  -21.0780   21.7210 C   0  0  0  0  0  1  0  0  0  0  0  0
  -28.9650  -21.1860   20.3120 N   0  0  1  0  0  4  0  0  0  0  0  0
  -29.9130  -21.5200   20.3550 H   0  0  0  0  0  0  0  0  0  0  0  0
  -29.1200  -19.7680   19.6960 C   0  0  0  0  0  2  0  0  0  0  0  0
  -31.7760  -17.1070   21.1410 C   0  0  0  0  0  3  0  0  0  0  0  0
  -32.7210  -18.0310   21.5980 C   0  0  0  0  0  3  0  0  0  0  0  0
  -31.4240  -19.7960   20.5980 C   0  0  0  0  0  3  0  0  0  0  0  0
  -30.3740  -18.9170   20.2100 C   0  0  0  0  0  0  0  0  0  0  0  0
  -30.6270  -17.4500   20.3620 C   0  0  0  0  0  0  0  0  0  0  0  0
  -32.5670  -19.3750   21.2850 C   0  0  0  0  0  0  0  0  0  0  0  0
  -33.5010  -20.2690   21.6810 F   0  0  0  0  0  0  0  0  0  0  0  0
  -30.5510  -14.9980   19.6350 C   0  0  0  0  0  0  0  0  0  0  0  0
  -30.2280  -12.6830   18.7640 C   0  0  0  0  0  2  0  0  0  0  0  0
  -29.1730  -12.6480   17.6420 C   0  0  0  0  0  2  0  0  0  0  0  0
  -27.7800  -12.4130   18.2480 C   0  0  0  0  0  2  0  0  0  0  0  0
  -27.4780  -13.3570   19.4380 C   0  0  0  0  0  3  0  0  0  0  0  0
  -28.6590  -13.4550   20.4320 C   0  0  0  0  0  2  0  0  0  0  0  0
  -29.8700  -13.7980   19.6750 N   0  0  0  0  0  0  0  0  0  0  0  0
  -31.7080  -14.9960   19.2080 O   0  0  0  0  0  0  0  0  0  0  0  0
  -28.7560  -16.4840   18.9600 C   0  0  0  0  0  1  0  0  0  0  0  0
  -29.9170  -16.2440   19.8170 N   0  0  0  0  0  0  0  0  0  0  0  0
  -25.2020  -13.8860   20.4830 C   0  0  0  0  0  0  0  0  0  0  0  0
  -24.1960  -13.0790   20.9440 C   0  0  0  0  0  0  0  0  0  0  0  0
  -24.6710  -11.7390   20.8130 C   0  0  0  0  0  0  0  0  0  0  0  0
  -26.2200  -13.0280   20.0950 N   0  0  0  0  0  0  0  0  0  0  0  0
  -25.9180  -11.7310   20.3570 N   0  0  0  0  0  0  0  0  0  0  0  0
  -23.9870  -10.4600   21.0330 C   0  0  0  0  0  0  0  0  0  0  0  0
  -24.4610   -9.5270   21.9810 C   0  0  0  0  0  3  0  0  0  0  0  0
  -23.7800   -8.3090   22.1890 C   0  0  0  0  0  3  0  0  0  0  0  0
  -22.6070   -8.0190   21.4510 C   0  0  0  0  0  0  0  0  0  0  0  0
  -22.1510   -8.9420   20.4920 C   0  0  0  0  0  3  0  0  0  0  0  0
  -22.8360  -10.1520   20.2830 C   0  0  0  0  0  3  0  0  0  0  0  0
  -21.8910   -6.8560   21.5740 O   0  0  0  0  0  0  0  0  0  0  0  0
  -21.7930   -6.1920   22.7720 C   0  0  0  0  0  0  0  0  0  0  0  0
  -21.2390   -6.8020   23.9180 C   0  0  0  0  0  3  0  0  0  0  0  0
  -21.0960   -6.0620   25.1080 C   0  0  0  0  0  3  0  0  0  0  0  0
  -21.4950   -4.7120   25.1510 C   0  0  0  0  0  0  0  0  0  0  0  0
  -22.0390   -4.1010   24.0080 C   0  0  0  0  0  3  0  0  0  0  0  0
  -22.1860   -4.8390   22.8210 C   0  0  0  0  0  0  0  0  0  0  0  0
  -22.6940   -4.2400   21.7170 F   0  0  0  0  0  0  0  0  0  0  0  0
  -21.3460   -3.9990   26.2920 F   0  0  0  0  0  0  0  0  0  0  0  0
  -22.8330  -13.5280   21.3830 C   0  0  0  0  0  0  0  0  0  0  0  0
  -22.2210  -12.8070   22.3180 N   0  0  0  0  0  0  0  0  0  0  0  0
  -22.3210  -14.5520   20.9390 O   0  0  0  0  0  0  0  0  0  0  0  0
  -22.6480  -11.9830   22.7110 H   0  0  0  0  0  0  0  0  0  0  0  0
  -21.3070  -13.0890   22.6420 H   0  0  0  0  0  0  0  0  0  0  0  0
  -25.3260  -15.2640   20.3380 N   0  0  0  0  0  0  0  0  0  0  0  0
  -24.5720  -15.9080   20.5510 H   0  0  0  0  0  0  0  0  0  0  0  0
  -26.1360  -15.7230   19.9430 H   0  0  0  0  0  0  0  0  0  0  0  0
  -28.2130  -22.3170   19.5760 C   0  0  0  0  0  2  0  0  0  0  0  0
  -28.4030  -23.8640   20.0730 C   0  0  0  0  0  3  0  0  0  0  0  0
  -27.6290  -25.0720   19.3190 C   0  0  0  0  0  3  0  0  0  0  0  0
  -27.8140  -26.5280   19.6840 O   0  0  0  0  0  0  0  0  0  0  0  0
  -24.4880  -31.9440   23.2120 C   0  0  0  0  0  0  0  0  0  0  0  0
  -26.7300  -27.4470   19.7320 C   0  0  0  0  0  0  0  0  0  0  0  0
  -23.1280  -30.6530   21.6120 C   0  0  0  0  0  3  0  0  0  0  0  0
  -24.4240  -29.1500   19.9980 C   0  0  0  0  0  0  0  0  0  0  0  0
  -25.6600  -30.9170   21.2440 C   0  0  0  0  0  2  0  0  0  0  0  0
  -25.6530  -29.5710   20.5200 C   0  0  0  0  0  0  0  0  0  0  0  0
  -26.8070  -28.7320   20.3720 C   0  0  0  0  0  3  0  0  0  0  0  0
  -25.4740  -27.1130   19.1700 C   0  0  0  0  0  3  0  0  0  0  0  0
  -24.3390  -27.9300   19.3140 C   0  0  0  0  0  3  0  0  0  0  0  0
  -23.2190  -30.0500   20.1900 C   0  0  0  0  0  2  0  0  0  0  0  0
  -24.4500  -31.1870   22.0770 N   0  0  0  0  0  0  0  0  0  0  0  0
  -23.4550  -32.2170   23.8410 O   0  0  0  0  0  0  0  0  0  0  0  0
  -22.5200  -29.6010   22.5700 C   0  0  0  0  0  0  0  0  0  0  0  0
  -21.2060  -29.3450   22.4360 N   0  0  0  0  0  0  0  0  0  0  0  0
  -23.2280  -29.0170   23.3950 O   0  0  0  0  0  0  0  0  0  0  0  0
  -20.6920  -29.8700   21.7440 H   0  0  0  0  0  0  0  0  0  0  0  0
  -17.9350  -27.8450   22.8260 C   0  0  0  0  0  0  0  0  0  0  0  0
  -20.4380  -28.3660   23.2090 C   0  0  0  0  0  3  0  0  0  0  0  0
  -20.7060  -26.9270   22.7080 C   0  0  0  0  0  2  0  0  0  0  0  0
  -19.6960  -26.4560   21.6570 C   0  0  0  0  0  2  0  0  0  0  0  0
  -18.2750  -26.4920   22.2240 C   0  0  0  0  0  2  0  0  0  0  0  0
  -18.9500  -28.7300   23.2750 C   0  0  0  0  0  0  0  0  0  0  0  0
  -18.5790  -29.9890   23.7970 C   0  0  0  0  0  3  0  0  0  0  0  0
  -17.2250  -30.3660   23.8740 C   0  0  0  0  0  3  0  0  0  0  0  0
  -16.2230  -29.4800   23.4400 C   0  0  0  0  0  3  0  0  0  0  0  0
  -16.5780  -28.2210   22.9230 C   0  0  0  0  0  3  0  0  0  0  0  0
  -25.8270  -32.5260   23.7590 C   0  0  0  0  0  3  0  0  0  0  0  0
  -25.5760  -33.9180   24.1580 N   0  0  0  0  0  0  0  0  0  0  0  0
  -25.8790  -34.9920   23.4170 C   0  0  0  0  0  0  0  0  0  0  0  0
  -26.4720  -34.9110   22.3380 O   0  0  0  0  0  0  0  0  0  0  0  0
  -25.0450  -34.0540   25.0070 H   0  0  0  0  0  0  0  0  0  0  0  0
  -24.1800  -36.8390   23.2430 C   0  0  0  0  0  1  0  0  0  0  0  0
  -25.4590  -36.3730   23.9570 C   0  0  0  0  0  3  0  0  0  0  0  0
  -27.6620  -37.1760   24.6860 C   0  0  0  0  0  1  0  0  0  0  0  0
  -26.5100  -37.4040   23.8180 N   0  0  0  0  0  0  0  0  0  0  0  0
  -26.1380  -38.3270   24.0210 H   0  0  0  0  0  0  0  0  0  0  0  0
  -26.4110  -31.6970   24.9690 C   0  0  1  0  0  0  0  0  0  0  0  0
  -25.3830  -31.4250   26.0900 C   0  0  0  0  0  1  0  0  0  0  0  0
  -26.9550  -30.3300   24.4930 C   0  0  0  0  0  1  0  0  0  0  0  0
  -27.6080  -32.4580   25.5870 C   0  0  0  0  0  1  0  0  0  0  0  0
  2  3  1  1
  2  1  1  0
  4  8  1  0
  4  2  1  0
  5  6  1  0
  7 10  1  0
  8  9  1  0
  8  7  2  0
  9  5  2  0
 10  6  2  0
 10 11  1  0
 12 18  1  0
 12 21  1  0
 13 18  1  0
 14 15  1  0
 14 13  1  0
 16 15  1  0
 16 25  1  0
 16 17  1  0
 18 17  1  0
 19 12  2  0
 20 21  1  0
 21  9  1  0
 22 23  2  0
 23 42  1  0
 24 23  1  0
 24 27  1  0
 25 26  1  0
 25 22  1  0
 26 24  2  0
 27 28  1  0
 28 29  2  0
 30 33  1  0
 30 29  1  0
 31 30  2  0
 32 31  1  0
 32 27  2  0
 33 34  1  0
 34 39  2  0
 34 35  1  0
 35 36  2  0
 36 37  1  0
 37 41  1  0
 38 37  2  0
 39 38  1  0
 40 39  1  0
 42 43  1  0
 43 46  1  0
 43 45  1  0
 44 42  2  0
 47 22  1  0
 47 48  1  0
 49 47  1  0
 50 51  1  0
 50  2  1  0
 52 53  1  0
 52 51  2  0
 53 55  1  0
 54 65  2  0
 55 60  1  0
 56 64  1  0
 56 66  1  0
 57 63  1  0
 57 59  1  0
 58 64  1  0
 59 58  1  0
 60 59  2  0
 61 62  1  0
 61 55  2  0
 62 57  2  0
 63 56  1  0
 64 54  1  0
 66 68  2  0
 67 66  1  0
 69 67  1  0
 70 79  2  0
 70 75  1  0
 71 67  1  0
 71 75  1  0
 72 71  1  0
 73 74  1  0
 73 72  1  0
 74 70  1  0
 75 76  2  0
 76 77  1  0
 78 77  2  0
 79 78  1  0
 80 54  1  0
 80 81  1  0
 80 90  1  0
 81 84  1  0
 82 86  1  0
 82 81  1  0
 83 82  2  0
 86 85  1  0
 88 86  1  0
 88 89  1  0
 88 87  1  0
 90 93  1  1
 90 91  1  0
 92 90  1  0
M  ISO  4  12 100  21 100  52 101  53 101
M  END
>  <TORSDO>  (12) 
F 21

>  <SCORE>  (12) 
-11.916

>  <name>  (12) 
11

>  <ligand_id>  (12) 
11

>  <original_smiles>  (12) 
[H]c1c([H])c([H])c2c(c1[H])C([H])([H])C([H])([H])C([H])([H])C2([H])N([H])C(=O)C1([H])N(C(=O)C([H])(N([H])C(=O)C([H])(N([H])C([H])([H])[H])C([H])([H])[H])C(C([H])([H])[H])(C([H])([H])[H])C([H])([H])[H])C([H])([H])c2c([H])c(OC([H])([H])C([H])([H])C([H])([H])[N+]([H])(C([H])([H])[H])C([H])([H])c3c([H])c(F)c([H])c([H])c3N(C(=O)N3C([H])([H])C([H])([H])C([H])([H])C([H])(n4nc(-c5c([H])c([H])c(Oc6c([H])c([H])c(F)c([H])c6F)c([H])c5[H])c(C(=O)N([H])[H])c4N([H])[H])C3([H])[H])C([H])([H])[H])c([H])c([H])c2C1([H])[H]

>  <smiles>  (12) 
[H]c1c([H])c([H])c2c(c1[H])C([H])([H])C([H])([H])C([H])([H])C2([H])N([H])C(=O)C1([H])N(C(=O)C([H])(N([H])C(=O)C([H])(N([H])C([H])([H])[H])C([H])([H])[H])C(C([H])([H])[H])(C([H])([H])[H])C([H])([H])[H])C([H])([H])c2c([H])c(OC([H])([H])C([H])([H])C([H])([H])[N+]([H])(C([H])([H])[H])C([H])([H])c3c([H])c(F)c([H])c([H])c3N(C(=O)N3C([H])([H])C([H])([H])C([H])([H])C([H])(n4nc(-c5c([H])c([H])c(Oc6c([H])c([H])c(F)c([H])c6F)c([H])c5[H])c(C(=O)N([H])[H])c4N([H])[H])C3([H])[H])C([H])([H])[H])c([H])c([H])c2C1([H])[H]

$$$$
12:0:0
     RDKit          3D

 93102  0  0  1  0  0  0  0  0999 V2000
  -29.2310  -22.4390   19.4150 C   0  0  0  0  0  0  0  0  0  0  0  0
  -28.5030  -22.2220   21.3470 C   0  0  0  0  0  2  0  0  0  0  0  0
  -28.9070  -23.5230   20.5390 C   0  0  0  0  0  3  0  0  0  0  0  0
  -28.9450  -21.3260   20.2510 N   0  0  0  0  0  0  0  0  0  0  0  0
  -29.6640  -22.4660   18.2810 O   0  0  0  0  0  0  0  0  0  0  0  0
  -31.4750  -17.7600   21.0050 C   0  0  0  0  0  3  0  0  0  0  0  0
  -31.8980  -19.0920   21.1590 C   0  0  0  0  0  3  0  0  0  0  0  0
  -29.6910  -20.0400   20.5220 C   0  0  0  0  0  0  0  0  0  0  0  0
  -30.1570  -17.4530   20.6090 C   0  0  0  0  0  0  0  0  0  0  0  0
  -31.0430  -20.1860   20.9260 C   0  0  0  0  0  0  0  0  0  0  0  0
  -29.2860  -18.6240   20.3930 C   0  0  0  0  0  0  0  0  0  0  0  0
  -31.5540  -21.4310   21.0970 F   0  0  0  0  0  0  0  0  0  0  0  0
  -28.0050  -18.3720   20.0300 F   0  0  0  0  0  0  0  0  0  0  0  0
  -30.5100  -14.8350   20.2690 C   0  0  0  0  0  0  0  0  0  0  0  0
  -30.3020  -12.5560   19.2260 C   0  0  0  0  0  2  0  0  0  0  0  0
  -29.3460  -12.6100   18.0140 C   0  0  0  0  0  2  0  0  0  0  0  0
  -27.8870  -12.4130   18.4660 C   0  0  0  0  0  2  0  0  0  0  0  0
  -27.5210  -13.2890   19.6950 C   0  0  0  0  0  3  0  0  0  0  0  0
  -28.6000  -13.2230   20.7990 C   0  0  0  0  0  2  0  0  0  0  0  0
  -29.8730  -13.6090   20.1810 N   0  0  0  0  0  0  0  0  0  0  0  0
  -31.6990  -14.8940   19.9390 O   0  0  0  0  0  0  0  0  0  0  0  0
  -29.7590  -16.0010   20.4930 N   0  0  0  0  0  0  0  0  0  0  0  0
  -28.7680  -15.8370   20.5740 H   0  0  0  0  0  0  0  0  0  0  0  0
  -25.1460  -13.8520   20.4720 C   0  0  0  0  0  0  0  0  0  0  0  0
  -24.0910  -13.0690   20.8490 C   0  0  0  0  0  0  0  0  0  0  0  0
  -24.5600  -11.7210   20.7940 C   0  0  0  0  0  0  0  0  0  0  0  0
  -26.1900  -12.9830   20.2060 N   0  0  0  0  0  0  0  0  0  0  0  0
  -25.8460  -11.6940   20.4650 N   0  0  0  0  0  0  0  0  0  0  0  0
  -23.8410  -10.4530   20.9790 C   0  0  0  0  0  0  0  0  0  0  0  0
  -24.2960   -9.4700   21.8860 C   0  0  0  0  0  3  0  0  0  0  0  0
  -23.5750   -8.2690   22.0600 C   0  0  0  0  0  3  0  0  0  0  0  0
  -22.3870   -8.0410   21.3260 C   0  0  0  0  0  0  0  0  0  0  0  0
  -21.9510   -9.0120   20.4070 C   0  0  0  0  0  3  0  0  0  0  0  0
  -22.6730  -10.2050   20.2310 C   0  0  0  0  0  3  0  0  0  0  0  0
  -21.6360   -6.8930   21.4120 O   0  0  0  0  0  0  0  0  0  0  0  0
  -21.6210   -6.1250   22.5480 C   0  0  0  0  0  0  0  0  0  0  0  0
  -21.2060   -6.6450   23.7940 C   0  0  0  0  0  3  0  0  0  0  0  0
  -21.1410   -5.8030   24.9210 C   0  0  0  0  0  3  0  0  0  0  0  0
  -21.4800   -4.4410   24.8060 C   0  0  0  0  0  0  0  0  0  0  0  0
  -21.8890   -3.9210   23.5650 C   0  0  0  0  0  3  0  0  0  0  0  0
  -21.9560   -4.7600   22.4390 C   0  0  0  0  0  0  0  0  0  0  0  0
  -22.3300   -4.2490   21.2410 F   0  0  0  0  0  0  0  0  0  0  0  0
  -21.4100   -3.6300   25.8870 F   0  0  0  0  0  0  0  0  0  0  0  0
  -22.6960  -13.5360   21.1460 C   0  0  0  0  0  0  0  0  0  0  0  0
  -21.9860  -12.8320   22.0200 N   0  0  0  0  0  0  0  0  0  0  0  0
  -22.2430  -14.5620   20.6370 O   0  0  0  0  0  0  0  0  0  0  0  0
  -22.3670  -12.0030   22.4550 H   0  0  0  0  0  0  0  0  0  0  0  0
  -21.0500  -13.1260   22.2600 H   0  0  0  0  0  0  0  0  0  0  0  0
  -25.2980  -15.2270   20.3070 N   0  0  0  0  0  0  0  0  0  0  0  0
  -24.5220  -15.8690   20.4330 H   0  0  0  0  0  0  0  0  0  0  0  0
  -26.1260  -15.6790   19.9410 H   0  0  0  0  0  0  0  0  0  0  0  0
  -27.9200  -24.7870   20.1800 C   0  0  0  0  0  2  0  0  0  0  0  0
  -28.2400  -26.2780   20.3430 O   0  0  0  0  0  0  0  0  0  0  0  0
  -24.6480  -31.8850   23.3540 C   0  0  0  0  0  0  0  0  0  0  0  0
  -27.1840  -27.2370   20.2740 C   0  0  0  0  0  0  0  0  0  0  0  0
  -23.4330  -30.5170   21.7010 C   0  0  0  0  0  3  0  0  0  0  0  0
  -24.8650  -28.9590   20.2560 C   0  0  0  0  0  0  0  0  0  0  0  0
  -25.9840  -30.7830   21.5300 C   0  0  0  0  0  2  0  0  0  0  0  0
  -26.0460  -29.4030   20.8670 C   0  0  0  0  0  0  0  0  0  0  0  0
  -27.2100  -28.5580   20.8580 C   0  0  0  0  0  3  0  0  0  0  0  0
  -25.9800  -26.8830   19.6250 C   0  0  0  0  0  3  0  0  0  0  0  0
  -24.8420  -27.7120   19.6210 C   0  0  0  0  0  3  0  0  0  0  0  0
  -23.6440  -29.8580   20.3120 C   0  0  0  0  0  2  0  0  0  0  0  0
  -24.7090  -31.0820   22.2500 N   0  0  0  0  0  0  0  0  0  0  0  0
  -23.5660  -32.1710   23.8890 O   0  0  0  0  0  0  0  0  0  0  0  0
  -22.7510  -29.5020   22.6490 C   0  0  0  0  0  0  0  0  0  0  0  0
  -21.4250  -29.3330   22.5110 N   0  0  0  0  0  0  0  0  0  0  0  0
  -23.4180  -28.8680   23.4730 O   0  0  0  0  0  0  0  0  0  0  0  0
  -20.9460  -29.8950   21.8210 H   0  0  0  0  0  0  0  0  0  0  0  0
  -18.0370  -28.1380   22.9710 C   0  0  0  0  0  0  0  0  0  0  0  0
  -20.5930  -28.3950   23.2700 C   0  0  0  0  0  3  0  0  0  0  0  0
  -20.6990  -26.9640   22.6940 C   0  0  0  0  0  2  0  0  0  0  0  0
  -19.6080  -26.6460   21.6650 C   0  0  0  0  0  2  0  0  0  0  0  0
  -18.2200  -26.7900   22.2940 C   0  0  0  0  0  2  0  0  0  0  0  0
  -19.1520  -28.8990   23.4150 C   0  0  0  0  0  0  0  0  0  0  0  0
  -18.9260  -30.1600   24.0080 C   0  0  0  0  0  3  0  0  0  0  0  0
  -17.6190  -30.6610   24.1620 C   0  0  0  0  0  3  0  0  0  0  0  0
  -16.5200  -29.8980   23.7340 C   0  0  0  0  0  3  0  0  0  0  0  0
  -16.7300  -28.6380   23.1450 C   0  0  0  0  0  3  0  0  0  0  0  0
  -25.9340  -32.5000   23.9870 C   0  0  0  0  0  3  0  0  0  0  0  0
  -25.6420  -33.9030   24.3150 N   0  0  0  0  0  0  0  0  0  0  0  0
  -25.9730  -34.9500   23.5470 C   0  0  0  0  0  0  0  0  0  0  0  0
  -26.6280  -34.8360   22.5070 O   0  0  0  0  0  0  0  0  0  0  0  0
  -25.0610  -34.0670   25.1240 H   0  0  0  0  0  0  0  0  0  0  0  0
  -24.2530  -36.7590   23.2260 C   0  0  0  0  0  1  0  0  0  0  0  0
  -25.5100  -36.3460   24.0090 C   0  0  0  0  0  3  0  0  0  0  0  0
  -27.6670  -37.2230   24.7900 C   0  0  0  0  0  1  0  0  0  0  0  0
  -26.5490  -37.3890   23.8650 N   0  0  0  0  0  0  0  0  0  0  0  0
  -26.1520  -38.3130   24.0080 H   0  0  0  0  0  0  0  0  0  0  0  0
  -26.4240  -31.7250   25.2720 C   0  0  1  0  0  0  0  0  0  0  0  0
  -25.3170  -31.5080   26.3300 C   0  0  0  0  0  1  0  0  0  0  0  0
  -26.9890  -30.3360   24.8910 C   0  0  0  0  0  1  0  0  0  0  0  0
  -27.5790  -32.5030   25.9430 C   0  0  0  0  0  1  0  0  0  0  0  0
  1  4  1  0
  1  3  1  0
  3 52  1  0
  3  2  1  0
  4  8  1  0
  4  2  1  0
  5  1  2  0
  6  7  1  0
  8 10  1  0
  9  6  2  0
 10 12  1  0
 10  7  2  0
 11  8  2  0
 11  9  1  0
 13 11  1  0
 14 22  1  0
 15 20  1  0
 16 17  1  0
 16 15  1  0
 18 17  1  0
 18 27  1  0
 18 19  1  0
 20 14  1  0
 20 19  1  0
 21 14  2  0
 22 23  1  0
 22  9  1  0
 24 25  2  0
 25 44  1  0
 26 25  1  0
 26 29  1  0
 27 28  1  0
 27 24  1  0
 28 26  2  0
 29 30  1  0
 30 31  2  0
 32 35  1  0
 32 31  1  0
 33 32  2  0
 34 33  1  0
 34 29  2  0
 35 36  1  0
 36 37  1  0
 37 38  2  0
 39 38  1  0
 39 43  1  0
 40 39  2  0
 41 36  2  0
 41 40  1  0
 42 41  1  0
 44 45  1  0
 45 48  1  0
 45 47  1  0
 46 44  2  0
 49 50  1  0
 49 24  1  0
 51 49  1  0
 52 53  1  0
 54 65  2  0
 55 53  1  0
 55 60  1  0
 56 64  1  0
 56 66  1  0
 57 63  1  0
 57 59  1  0
 58 64  1  0
 59 58  1  0
 60 59  2  0
 61 55  2  0
 62 61  1  0
 62 57  2  0
 63 56  1  0
 64 54  1  0
 66 68  2  0
 67 66  1  0
 69 67  1  0
 70 79  2  0
 70 75  1  0
 71 67  1  0
 71 75  1  0
 72 71  1  0
 73 74  1  0
 73 72  1  0
 74 70  1  0
 75 76  2  0
 76 77  1  0
 78 77  2  0
 79 78  1  0
 80 54  1  0
 80 81  1  0
 80 90  1  0
 81 84  1  0
 82 86  1  0
 82 81  1  0
 83 82  2  0
 86 85  1  0
 88 89  1  0
 88 86  1  0
 88 87  1  0
 90 93  1  1
 90 91  1  0
 92 90  1  0
M  ISO  4  14 100  22 100  52 101  53 101
M  END
>  <TORSDO>  (13) 
F 18

>  <SCORE>  (13) 
-15.027

>  <name>  (13) 
12

>  <ligand_id>  (13) 
12

>  <original_smiles>  (13) 
[H]c1c([H])c([H])c2c(c1[H])C([H])([H])C([H])([H])C([H])([H])C2([H])N([H])C(=O)C1([H])N(C(=O)C([H])(N([H])C(=O)C([H])(N([H])C([H])([H])[H])C([H])([H])[H])C(C([H])([H])[H])(C([H])([H])[H])C([H])([H])[H])C([H])([H])c2c([H])c(OC([H])([H])C3([H])C(=O)N(c4c(F)c([H])c([H])c(N([H])C(=O)N5C([H])([H])C([H])([H])C([H])([H])C([H])(n6nc(-c7c([H])c([H])c(Oc8c([H])c([H])c(F)c([H])c8F)c([H])c7[H])c(C(=O)N([H])[H])c6N([H])[H])C5([H])[H])c4F)C3([H])[H])c([H])c([H])c2C1([H])[H]

>  <smiles>  (13) 
[H]c1c([H])c([H])c2c(c1[H])C([H])([H])C([H])([H])C([H])([H])C2([H])N([H])C(=O)C1([H])N(C(=O)C([H])(N([H])C(=O)C([H])(N([H])C([H])([H])[H])C([H])([H])[H])C(C([H])([H])[H])(C([H])([H])[H])C([H])([H])[H])C([H])([H])c2c([H])c(OC([H])([H])C3([H])C(=O)N(c4c(F)c([H])c([H])c(N([H])C(=O)N5C([H])([H])C([H])([H])C([H])([H])C([H])(n6nc(-c7c([H])c([H])c(Oc8c([H])c([H])c(F)c([H])c8F)c([H])c7[H])c(C(=O)N([H])[H])c6N([H])[H])C5([H])[H])c4F)C3([H])[H])c([H])c([H])c2C1([H])[H]

$$$$
13:0:0
     RDKit          3D

 92101  0  0  1  0  0  0  0  0999 V2000
  -27.6150  -20.2520   19.4560 C   0  0  0  0  0  3  0  0  0  0  0  0
  -26.9680  -21.4320   19.2360 C   0  0  0  0  0  0  0  0  0  0  0  0
  -27.0910  -22.7400   20.0630 C   0  0  0  0  0  2  0  0  0  0  0  0
  -29.5090  -22.4650   20.7990 C   0  0  0  0  0  2  0  0  0  0  0  0
  -30.7320  -20.1280   20.5890 C   0  0  0  0  0  2  0  0  0  0  0  0
  -28.7260  -20.0030   20.4670 C   0  0  0  0  0  3  0  0  0  0  0  0
  -28.4590  -23.5000   20.1180 C   0  0  0  0  0  3  0  0  0  0  0  0
  -29.8520  -18.8880   20.1690 C   0  0  0  0  0  3  0  0  0  0  0  0
  -25.9320  -21.5210   18.1290 C   0  0  0  0  0  1  0  0  0  0  0  0
  -29.6870  -21.0790   20.1570 N   0  0  1  0  0  4  0  0  0  0  0  0
  -29.7600  -21.1830   19.1560 H   0  0  0  0  0  0  0  0  0  0  0  0
  -30.1890  -17.4670   20.9410 C   0  0  0  0  0  2  0  0  0  0  0  0
  -30.5980  -14.8770   20.3320 C   0  0  0  0  0  0  0  0  0  0  0  0
  -30.4320  -12.5780   19.3230 C   0  0  0  0  0  2  0  0  0  0  0  0
  -29.4900  -12.5960   18.1000 C   0  0  0  0  0  2  0  0  0  0  0  0
  -28.0230  -12.4060   18.5370 C   0  0  0  0  0  2  0  0  0  0  0  0
  -27.6370  -13.3130   19.7370 C   0  0  0  0  0  3  0  0  0  0  0  0
  -28.6970  -13.2650   20.8550 C   0  0  0  0  0  2  0  0  0  0  0  0
  -29.9770  -13.6450   20.2460 N   0  0  0  0  0  0  0  0  0  0  0  0
  -31.8040  -14.9570   20.0890 O   0  0  0  0  0  0  0  0  0  0  0  0
  -29.8170  -16.0300   20.5000 N   0  0  0  0  0  0  0  0  0  0  0  0
  -28.8280  -15.8350   20.5370 H   0  0  0  0  0  0  0  0  0  0  0  0
  -25.2520  -13.9000   20.4660 C   0  0  0  0  0  0  0  0  0  0  0  0
  -24.1870  -13.1260   20.8390 C   0  0  0  0  0  0  0  0  0  0  0  0
  -24.6540  -11.7750   20.8160 C   0  0  0  0  0  0  0  0  0  0  0  0
  -26.2960  -13.0220   20.2340 N   0  0  0  0  0  0  0  0  0  0  0  0
  -25.9450  -11.7390   20.5110 N   0  0  0  0  0  0  0  0  0  0  0  0
  -23.9300  -10.5120   21.0100 C   0  0  0  0  0  0  0  0  0  0  0  0
  -24.3580   -9.5520   21.9520 C   0  0  0  0  0  3  0  0  0  0  0  0
  -23.6320   -8.3540   22.1330 C   0  0  0  0  0  3  0  0  0  0  0  0
  -22.4640   -8.1090   21.3720 C   0  0  0  0  0  0  0  0  0  0  0  0
  -22.0570   -9.0580   20.4190 C   0  0  0  0  0  3  0  0  0  0  0  0
  -22.7820  -10.2470   20.2360 C   0  0  0  0  0  3  0  0  0  0  0  0
  -21.7120   -6.9630   21.4630 O   0  0  0  0  0  0  0  0  0  0  0  0
  -21.6520   -6.2310   22.6210 C   0  0  0  0  0  0  0  0  0  0  0  0
  -21.2040   -6.7930   23.8360 C   0  0  0  0  0  3  0  0  0  0  0  0
  -21.0930   -5.9860   24.9870 C   0  0  0  0  0  3  0  0  0  0  0  0
  -21.4200   -4.6190   24.9220 C   0  0  0  0  0  0  0  0  0  0  0  0
  -21.8600   -4.0560   23.7120 C   0  0  0  0  0  3  0  0  0  0  0  0
  -21.9730   -4.8590   22.5630 C   0  0  0  0  0  0  0  0  0  0  0  0
  -22.3790   -4.3080   21.3940 F   0  0  0  0  0  0  0  0  0  0  0  0
  -21.3050   -3.8410   26.0240 F   0  0  0  0  0  0  0  0  0  0  0  0
  -22.7880  -13.6000   21.1020 C   0  0  0  0  0  0  0  0  0  0  0  0
  -22.0560  -12.9040   21.9640 N   0  0  0  0  0  0  0  0  0  0  0  0
  -22.3520  -14.6250   20.5780 O   0  0  0  0  0  0  0  0  0  0  0  0
  -22.4200  -12.0750   22.4090 H   0  0  0  0  0  0  0  0  0  0  0  0
  -21.1160  -13.2040   22.1830 H   0  0  0  0  0  0  0  0  0  0  0  0
  -25.4100  -15.2700   20.2790 N   0  0  0  0  0  0  0  0  0  0  0  0
  -24.6340  -15.9160   20.3720 H   0  0  0  0  0  0  0  0  0  0  0  0
  -26.2440  -15.7080   19.9110 H   0  0  0  0  0  0  0  0  0  0  0  0
  -28.2550  -24.9890   20.8260 C   0  0  0  0  0  2  0  0  0  0  0  0
  -28.3280  -26.3700   20.1960 O   0  0  0  0  0  0  0  0  0  0  0  0
  -24.6020  -31.8910   23.2400 C   0  0  0  0  0  0  0  0  0  0  0  0
  -27.2210  -27.2590   20.2240 C   0  0  0  0  0  0  0  0  0  0  0  0
  -23.4050  -30.4800   21.6070 C   0  0  0  0  0  3  0  0  0  0  0  0
  -24.8630  -28.9130   20.1940 C   0  0  0  0  0  0  0  0  0  0  0  0
  -25.9490  -30.7900   21.4240 C   0  0  0  0  0  2  0  0  0  0  0  0
  -26.0340  -29.3990   20.7860 C   0  0  0  0  0  0  0  0  0  0  0  0
  -27.2200  -28.5880   20.7810 C   0  0  0  0  0  3  0  0  0  0  0  0
  -26.0230  -26.8380   19.6130 C   0  0  0  0  0  3  0  0  0  0  0  0
  -24.8630  -27.6410   19.5950 C   0  0  0  0  0  3  0  0  0  0  0  0
  -23.6250  -29.7930   20.2330 C   0  0  0  0  0  2  0  0  0  0  0  0
  -24.6720  -31.0740   22.1470 N   0  0  0  0  0  0  0  0  0  0  0  0
  -23.5170  -32.1670   23.7730 O   0  0  0  0  0  0  0  0  0  0  0  0
  -22.7420  -29.4700   22.5750 C   0  0  0  0  0  0  0  0  0  0  0  0
  -21.4170  -29.2870   22.4500 N   0  0  0  0  0  0  0  0  0  0  0  0
  -23.4210  -28.8530   23.3990 O   0  0  0  0  0  0  0  0  0  0  0  0
  -20.9250  -29.8360   21.7570 H   0  0  0  0  0  0  0  0  0  0  0  0
  -18.0460  -28.0640   22.9500 C   0  0  0  0  0  0  0  0  0  0  0  0
  -20.6020  -28.3480   23.2240 C   0  0  0  0  0  3  0  0  0  0  0  0
  -20.7170  -26.9130   22.6600 C   0  0  0  0  0  2  0  0  0  0  0  0
  -19.6200  -26.5730   21.6450 C   0  0  0  0  0  2  0  0  0  0  0  0
  -18.2350  -26.7110   22.2840 C   0  0  0  0  0  2  0  0  0  0  0  0
  -19.1570  -28.8380   23.3770 C   0  0  0  0  0  0  0  0  0  0  0  0
  -18.9250  -30.1030   23.9610 C   0  0  0  0  0  3  0  0  0  0  0  0
  -17.6150  -30.5930   24.1220 C   0  0  0  0  0  3  0  0  0  0  0  0
  -16.5190  -29.8150   23.7120 C   0  0  0  0  0  3  0  0  0  0  0  0
  -16.7350  -28.5520   23.1320 C   0  0  0  0  0  3  0  0  0  0  0  0
  -25.8800  -32.5360   23.8610 C   0  0  0  0  0  3  0  0  0  0  0  0
  -25.5630  -33.9350   24.1820 N   0  0  0  0  0  0  0  0  0  0  0  0
  -25.8920  -34.9860   23.4190 C   0  0  0  0  0  0  0  0  0  0  0  0
  -26.5620  -34.8790   22.3880 O   0  0  0  0  0  0  0  0  0  0  0  0
  -24.9720  -34.0920   24.9860 H   0  0  0  0  0  0  0  0  0  0  0  0
  -24.1640  -36.7760   23.0530 C   0  0  0  0  0  1  0  0  0  0  0  0
  -25.4020  -36.3750   23.8710 C   0  0  0  0  0  3  0  0  0  0  0  0
  -27.5290  -37.2680   24.7110 C   0  0  0  0  0  1  0  0  0  0  0  0
  -26.4330  -37.4310   23.7590 N   0  0  0  0  0  0  0  0  0  0  0  0
  -26.0240  -38.3500   23.9010 H   0  0  0  0  0  0  0  0  0  0  0  0
  -26.3950  -31.7790   25.1480 C   0  0  1  0  0  0  0  0  0  0  0  0
  -25.2990  -31.5480   26.2150 C   0  0  0  0  0  1  0  0  0  0  0  0
  -26.9850  -30.4000   24.7720 C   0  0  0  0  0  1  0  0  0  0  0  0
  -27.5400  -32.5840   25.8060 C   0  0  0  0  0  1  0  0  0  0  0  0
  2  1  2  0
  2  3  1  0
  3  7  1  0
  6  1  1  0
  7  4  1  0
  7 51  1  0
  8  6  1  0
  8  5  1  0
  8 12  1  0
  9  2  1  0
 10 11  1  6
 10  6  1  0
 10  5  1  0
 10  4  1  0
 13 21  1  0
 14 19  1  0
 15 16  1  0
 15 14  1  0
 17 16  1  0
 17 26  1  0
 17 18  1  0
 19 13  1  0
 19 18  1  0
 20 13  2  0
 21 22  1  0
 21 12  1  0
 23 24  2  0
 24 43  1  0
 25 24  1  0
 25 28  1  0
 26 23  1  0
 26 27  1  0
 27 25  2  0
 28 29  1  0
 29 30  2  0
 31 34  1  0
 31 30  1  0
 32 31  2  0
 33 32  1  0
 33 28  2  0
 34 35  1  0
 35 36  1  0
 36 37  2  0
 38 37  1  0
 38 42  1  0
 39 38  2  0
 40 35  2  0
 40 39  1  0
 41 40  1  0
 43 44  1  0
 44 47  1  0
 44 46  1  0
 45 43  2  0
 48 49  1  0
 48 23  1  0
 50 48  1  0
 52 54  1  0
 52 51  1  0
 53 64  2  0
 54 59  1  0
 55 63  1  0
 55 65  1  0
 56 62  1  0
 56 58  1  0
 57 63  1  0
 58 57  1  0
 59 58  2  0
 60 54  2  0
 61 60  1  0
 61 56  2  0
 62 55  1  0
 63 53  1  0
 65 67  2  0
 66 65  1  0
 68 66  1  0
 69 78  2  0
 69 74  1  0
 70 66  1  0
 70 74  1  0
 71 70  1  0
 72 73  1  0
 72 71  1  0
 73 69  1  0
 74 75  2  0
 75 76  1  0
 77 76  2  0
 78 77  1  0
 79 53  1  0
 79 80  1  0
 79 89  1  0
 80 83  1  0
 81 85  1  0
 81 80  1  0
 82 81  2  0
 85 84  1  0
 87 85  1  0
 87 88  1  0
 87 86  1  0
 89 92  1  1
 89 90  1  0
 91 89  1  0
M  ISO  4  13 100  21 100  51 101  52 101
M  END
>  <TORSDO>  (14) 
F 18

>  <SCORE>  (14) 
-14.740

>  <name>  (14) 
13

>  <ligand_id>  (14) 
13

>  <original_smiles>  (14) 
[H]C1=C(C([H])([H])[H])C([H])([H])C([H])(C([H])([H])Oc2c([H])c([H])c3c(c2[H])C([H])([H])N(C(=O)C([H])(N([H])C(=O)C([H])(N([H])C([H])([H])[H])C([H])([H])[H])C(C([H])([H])[H])(C([H])([H])[H])C([H])([H])[H])C([H])(C(=O)N([H])C2([H])c4c([H])c([H])c([H])c([H])c4C([H])([H])C([H])([H])C2([H])[H])C3([H])[H])C([H])([H])[N+]2([H])C([H])([H])C([H])(C([H])([H])N([H])C(=O)N3C([H])([H])C([H])([H])C([H])([H])C([H])(n4nc(-c5c([H])c([H])c(Oc6c([H])c([H])c(F)c([H])c6F)c([H])c5[H])c(C(=O)N([H])[H])c4N([H])[H])C3([H])[H])C12[H]

>  <smiles>  (14) 
[H]C1=C(C([H])([H])[H])C([H])([H])C([H])(C([H])([H])Oc2c([H])c([H])c3c(c2[H])C([H])([H])N(C(=O)C([H])(N([H])C(=O)C([H])(N([H])C([H])([H])[H])C([H])([H])[H])C(C([H])([H])[H])(C([H])([H])[H])C([H])([H])[H])C([H])(C(=O)N([H])C2([H])c4c([H])c([H])c([H])c([H])c4C([H])([H])C([H])([H])C2([H])[H])C3([H])[H])C([H])([H])[N+]2([H])C([H])([H])C([H])(C([H])([H])N([H])C(=O)N3C([H])([H])C([H])([H])C([H])([H])C([H])(n4nc(-c5c([H])c([H])c(Oc6c([H])c([H])c(F)c([H])c6F)c([H])c5[H])c(C(=O)N([H])[H])c4N([H])[H])C3([H])[H])C12[H]

$$$$
14:0:0
     RDKit          3D

 93102  0  0  1  0  0  0  0  0999 V2000
  -30.5220  -23.9300   18.8150 C   0  0  0  0  0  2  0  0  0  0  0  0
  -29.0040  -24.0840   18.6850 C   0  0  0  0  0  2  0  0  0  0  0  0
  -30.7480  -23.3990   20.2370 C   0  0  0  0  0  2  0  0  0  0  0  0
  -28.4750  -23.8550   20.1030 C   0  0  0  0  0  3  0  0  0  0  0  0
  -29.4550  -22.8920   20.7020 N   0  0  0  0  0  0  0  0  0  0  0  0
  -29.0100  -19.2810   19.4900 C   0  0  0  0  0  3  0  0  0  0  0  0
  -28.7910  -20.6870   19.6360 C   0  0  0  0  0  3  0  0  0  0  0  0
  -30.4320  -19.2880   21.4230 C   0  0  0  0  0  3  0  0  0  0  0  0
  -29.8780  -18.5520   20.3500 C   0  0  0  0  0  0  0  0  0  0  0  0
  -30.2210  -20.6910   21.5760 C   0  0  0  0  0  0  0  0  0  0  0  0
  -29.4400  -21.4490   20.6470 C   0  0  0  0  0  0  0  0  0  0  0  0
  -30.9080  -21.3840   22.7460 C   0  0  0  0  0  1  0  0  0  0  0  0
  -30.4560  -17.1420   19.9640 C   0  0  0  0  0  2  0  0  0  0  0  0
  -30.6650  -14.6560   20.3020 C   0  0  0  0  0  0  0  0  0  0  0  0
  -30.3710  -12.4330   19.2550 C   0  0  0  0  0  2  0  0  0  0  0  0
  -29.4350  -12.5860   18.0390 C   0  0  0  0  0  2  0  0  0  0  0  0
  -27.9660  -12.4420   18.4730 C   0  0  0  0  0  2  0  0  0  0  0  0
  -27.6180  -13.3020   19.7200 C   0  0  0  0  0  3  0  0  0  0  0  0
  -28.6800  -13.1650   20.8320 C   0  0  0  0  0  2  0  0  0  0  0  0
  -29.9850  -13.4690   20.2360 N   0  0  0  0  0  0  0  0  0  0  0  0
  -31.8450  -14.7170   19.9520 O   0  0  0  0  0  0  0  0  0  0  0  0
  -29.9560  -15.8190   20.4820 N   0  0  0  0  0  0  0  0  0  0  0  0
  -28.9830  -15.7490   20.7340 H   0  0  0  0  0  0  0  0  0  0  0  0
  -25.2290  -13.9000   20.4420 C   0  0  0  0  0  0  0  0  0  0  0  0
  -24.1630  -13.1290   20.8180 C   0  0  0  0  0  0  0  0  0  0  0  0
  -24.6260  -11.7780   20.7980 C   0  0  0  0  0  0  0  0  0  0  0  0
  -26.2730  -13.0200   20.2130 N   0  0  0  0  0  0  0  0  0  0  0  0
  -25.9160  -11.7380   20.4890 N   0  0  0  0  0  0  0  0  0  0  0  0
  -23.9000  -10.5180   20.9980 C   0  0  0  0  0  0  0  0  0  0  0  0
  -24.3330   -9.5550   21.9370 C   0  0  0  0  0  3  0  0  0  0  0  0
  -23.6060   -8.3600   22.1230 C   0  0  0  0  0  3  0  0  0  0  0  0
  -22.4340   -8.1160   21.3700 C   0  0  0  0  0  0  0  0  0  0  0  0
  -22.0210   -9.0670   20.4200 C   0  0  0  0  0  3  0  0  0  0  0  0
  -22.7470  -10.2540   20.2310 C   0  0  0  0  0  3  0  0  0  0  0  0
  -21.6770   -6.9740   21.4680 O   0  0  0  0  0  0  0  0  0  0  0  0
  -21.6270   -6.2400   22.6260 C   0  0  0  0  0  0  0  0  0  0  0  0
  -21.1920   -6.8000   23.8470 C   0  0  0  0  0  3  0  0  0  0  0  0
  -21.0910   -5.9900   24.9960 C   0  0  0  0  0  3  0  0  0  0  0  0
  -21.4130   -4.6220   24.9250 C   0  0  0  0  0  0  0  0  0  0  0  0
  -21.8420   -4.0610   23.7090 C   0  0  0  0  0  3  0  0  0  0  0  0
  -21.9450   -4.8680   22.5620 C   0  0  0  0  0  0  0  0  0  0  0  0
  -22.3360   -4.3160   21.3880 F   0  0  0  0  0  0  0  0  0  0  0  0
  -21.3080   -3.8430   26.0270 F   0  0  0  0  0  0  0  0  0  0  0  0
  -22.7660  -13.6080   21.0840 C   0  0  0  0  0  0  0  0  0  0  0  0
  -22.0370  -12.9200   21.9540 N   0  0  0  0  0  0  0  0  0  0  0  0
  -22.3310  -14.6310   20.5550 O   0  0  0  0  0  0  0  0  0  0  0  0
  -22.4020  -12.0930   22.4030 H   0  0  0  0  0  0  0  0  0  0  0  0
  -21.0980  -13.2200   22.1730 H   0  0  0  0  0  0  0  0  0  0  0  0
  -25.3930  -15.2690   20.2520 N   0  0  0  0  0  0  0  0  0  0  0  0
  -24.6250  -15.9240   20.3580 H   0  0  0  0  0  0  0  0  0  0  0  0
  -26.2360  -15.7060   19.9040 H   0  0  0  0  0  0  0  0  0  0  0  0
  -28.3380  -25.2390   20.9070 C   0  0  0  0  0  2  0  0  0  0  0  0
  -28.4270  -26.5470   20.2320 O   0  0  0  0  0  0  0  0  0  0  0  0
  -24.6320  -31.8750   23.2450 C   0  0  0  0  0  0  0  0  0  0  0  0
  -27.2940  -27.3560   20.2250 C   0  0  0  0  0  0  0  0  0  0  0  0
  -23.4450  -30.4600   21.6040 C   0  0  0  0  0  3  0  0  0  0  0  0
  -24.9140  -28.9160   20.1910 C   0  0  0  0  0  0  0  0  0  0  0  0
  -25.9770  -30.8140   21.4210 C   0  0  0  0  0  2  0  0  0  0  0  0
  -26.0730  -29.4340   20.7840 C   0  0  0  0  0  0  0  0  0  0  0  0
  -27.2710  -28.6650   20.7840 C   0  0  0  0  0  3  0  0  0  0  0  0
  -26.1150  -26.8720   19.6210 C   0  0  0  0  0  3  0  0  0  0  0  0
  -24.9350  -27.6420   19.5980 C   0  0  0  0  0  3  0  0  0  0  0  0
  -23.6670  -29.7770   20.2280 C   0  0  0  0  0  2  0  0  0  0  0  0
  -24.7040  -31.0670   22.1470 N   0  0  0  0  0  0  0  0  0  0  0  0
  -23.5460  -32.1420   23.7770 O   0  0  0  0  0  0  0  0  0  0  0  0
  -22.7890  -29.4420   22.5670 C   0  0  0  0  0  0  0  0  0  0  0  0
  -21.4650  -29.2520   22.4340 N   0  0  0  0  0  0  0  0  0  0  0  0
  -23.4700  -28.8260   23.3900 O   0  0  0  0  0  0  0  0  0  0  0  0
  -20.9740  -29.8010   21.7410 H   0  0  0  0  0  0  0  0  0  0  0  0
  -18.0950  -28.0370   22.9270 C   0  0  0  0  0  0  0  0  0  0  0  0
  -20.6510  -28.3130   23.2040 C   0  0  0  0  0  3  0  0  0  0  0  0
  -20.7640  -26.8810   22.6320 C   0  0  0  0  0  2  0  0  0  0  0  0
  -19.6680  -26.5480   21.6150 C   0  0  0  0  0  2  0  0  0  0  0  0
  -18.2820  -26.6880   22.2530 C   0  0  0  0  0  2  0  0  0  0  0  0
  -19.2070  -28.8070   23.3580 C   0  0  0  0  0  0  0  0  0  0  0  0
  -18.9790  -30.0690   23.9470 C   0  0  0  0  0  3  0  0  0  0  0  0
  -17.6710  -30.5640   24.1070 C   0  0  0  0  0  3  0  0  0  0  0  0
  -16.5730  -29.7910   23.6910 C   0  0  0  0  0  3  0  0  0  0  0  0
  -16.7860  -28.5290   23.1080 C   0  0  0  0  0  3  0  0  0  0  0  0
  -25.9090  -32.5190   23.8700 C   0  0  0  0  0  3  0  0  0  0  0  0
  -26.4280  -31.7550   25.1510 C   0  0  1  0  0  0  0  0  0  0  0  0
  -25.3350  -31.5130   26.2160 C   0  0  0  0  0  1  0  0  0  0  0  0
  -27.0230  -30.3810   24.7660 C   0  0  0  0  0  1  0  0  0  0  0  0
  -27.5700  -32.5610   25.8140 C   0  0  0  0  0  1  0  0  0  0  0  0
  -25.5890  -33.9160   24.1940 N   0  0  0  0  0  0  0  0  0  0  0  0
  -25.9150  -34.9690   23.4330 C   0  0  0  0  0  0  0  0  0  0  0  0
  -26.5880  -34.8660   22.4030 O   0  0  0  0  0  0  0  0  0  0  0  0
  -24.9920  -34.0690   24.9940 H   0  0  0  0  0  0  0  0  0  0  0  0
  -24.1760  -36.7480   23.0690 C   0  0  0  0  0  1  0  0  0  0  0  0
  -25.4170  -36.3550   23.8840 C   0  0  0  0  0  3  0  0  0  0  0  0
  -27.5430  -37.2580   24.7180 C   0  0  0  0  0  1  0  0  0  0  0  0
  -26.4430  -37.4160   23.7700 N   0  0  0  0  0  0  0  0  0  0  0  0
  -26.0290  -38.3330   23.9150 H   0  0  0  0  0  0  0  0  0  0  0  0
  1  3  1  0
  2  1  1  0
  2  4  1  0
  3  5  1  0
  4  5  1  0
  4 52  1  0
  6  7  2  0
  6  9  1  0
  7 11  1  0
  8 10  1  0
  9  8  2  0
 10 12  1  0
 11  5  1  0
 11 10  2  0
 13  9  1  0
 13 22  1  0
 14 22  1  0
 15 20  1  0
 16 17  1  0
 16 15  1  0
 18 17  1  0
 18 27  1  0
 18 19  1  0
 20 14  1  0
 20 19  1  0
 21 14  2  0
 22 23  1  0
 24 25  2  0
 25 44  1  0
 26 25  1  0
 26 29  1  0
 27 24  1  0
 27 28  1  0
 28 26  2  0
 29 30  1  0
 30 31  2  0
 32 35  1  0
 32 31  1  0
 33 32  2  0
 34 33  1  0
 34 29  2  0
 35 36  1  0
 36 37  1  0
 37 38  2  0
 39 38  1  0
 39 43  1  0
 40 39  2  0
 41 36  2  0
 41 40  1  0
 42 41  1  0
 44 45  1  0
 45 48  1  0
 45 47  1  0
 46 44  2  0
 49 50  1  0
 49 24  1  0
 51 49  1  0
 53 52  1  0
 54 65  2  0
 55 53  1  0
 55 60  1  0
 56 64  1  0
 56 66  1  0
 57 63  1  0
 57 59  1  0
 58 64  1  0
 59 58  1  0
 60 59  2  0
 61 55  2  0
 62 61  1  0
 62 57  2  0
 63 56  1  0
 64 54  1  0
 66 68  2  0
 67 66  1  0
 69 67  1  0
 70 79  2  0
 70 75  1  0
 71 67  1  0
 71 75  1  0
 72 71  1  0
 73 74  1  0
 73 72  1  0
 74 70  1  0
 75 76  2  0
 76 77  1  0
 78 77  2  0
 79 78  1  0
 80 54  1  0
 80 85  1  0
 80 81  1  0
 81 84  1  1
 81 82  1  0
 83 81  1  0
 85 88  1  0
 86 90  1  0
 86 85  1  0
 87 86  2  0
 90 89  1  0
 92 90  1  0
 92 93  1  0
 92 91  1  0
M  ISO  4  14 100  22 100  52 101  53 101
M  END
>  <TORSDO>  (15) 
F 19

>  <SCORE>  (15) 
-14.444

>  <name>  (15) 
14

>  <ligand_id>  (15) 
14

>  <original_smiles>  (15) 
[H]c1c([H])c([H])c2c(c1[H])C([H])([H])C([H])([H])C([H])([H])C2([H])N([H])C(=O)C1([H])N(C(=O)C([H])(N([H])C(=O)C([H])(N([H])C([H])([H])[H])C([H])([H])[H])C(C([H])([H])[H])(C([H])([H])[H])C([H])([H])[H])C([H])([H])c2c([H])c(OC([H])([H])C3([H])N(c4c([H])c([H])c(C([H])([H])N([H])C(=O)N5C([H])([H])C([H])([H])C([H])([H])C([H])(n6nc(-c7c([H])c([H])c(Oc8c([H])c([H])c(F)c([H])c8F)c([H])c7[H])c(C(=O)N([H])[H])c6N([H])[H])C5([H])[H])c([H])c4C([H])([H])[H])C([H])([H])C([H])([H])C3([H])[H])c([H])c([H])c2C1([H])[H]

>  <smiles>  (15) 
[H]c1c([H])c([H])c2c(c1[H])C([H])([H])C([H])([H])C([H])([H])C2([H])N([H])C(=O)C1([H])N(C(=O)C([H])(N([H])C(=O)C([H])(N([H])C([H])([H])[H])C([H])([H])[H])C(C([H])([H])[H])(C([H])([H])[H])C([H])([H])[H])C([H])([H])c2c([H])c(OC([H])([H])C3([H])N(c4c([H])c([H])c(C([H])([H])N([H])C(=O)N5C([H])([H])C([H])([H])C([H])([H])C([H])(n6nc(-c7c([H])c([H])c(Oc8c([H])c([H])c(F)c([H])c8F)c([H])c7[H])c(C(=O)N([H])[H])c6N([H])[H])C5([H])[H])c([H])c4C([H])([H])[H])C([H])([H])C([H])([H])C3([H])[H])c([H])c([H])c2C1([H])[H]

$$$$
15:0:0
     RDKit          3D

101109  0  0  1  0  0  0  0  0999 V2000
  -31.1630  -22.8020   19.3460 C   0  0  0  0  0  3  0  0  0  0  0  0
  -32.2260  -23.6490   20.1080 C   0  0  1  0  0  0  0  0  0  0  0  0
  -32.4730  -23.1760   21.3270 F   0  0  0  0  0  0  0  0  0  0  0  0
  -33.3690  -23.7150   19.4230 F   0  0  0  0  0  0  0  0  0  0  0  0
  -31.7720  -24.8980   20.2520 F   0  0  0  0  0  0  0  0  0  0  0  0
  -30.8240  -23.5780   18.1460 N   0  0  0  0  0  0  0  0  0  0  0  0
  -31.2520  -24.4930   18.2480 H   0  0  0  0  0  0  0  0  0  0  0  0
  -29.3950  -23.7370   17.8760 C   0  0  0  0  0  2  0  0  0  0  0  0
  -29.8310  -26.2660   17.7170 C   0  0  0  0  0  1  0  0  0  0  0  0
  -28.8640  -25.1640   18.1910 C   0  0  1  0  0  0  0  0  0  0  0  0
  -27.7600  -25.2940   17.4570 F   0  0  0  0  0  0  0  0  0  0  0  0
  -28.4570  -25.3300   19.6780 C   0  0  0  0  0  2  0  0  0  0  0  0
  -28.3660  -26.6980   20.0910 O   0  0  0  0  0  0  0  0  0  0  0  0
  -24.6050  -31.8130   23.2380 C   0  0  0  0  0  0  0  0  0  0  0  0
  -27.1620  -27.3720   20.0880 C   0  0  0  0  0  0  0  0  0  0  0  0
  -23.3600  -30.4390   21.5990 C   0  0  0  0  0  3  0  0  0  0  0  0
  -24.7760  -28.8900   20.1480 C   0  0  0  0  0  0  0  0  0  0  0  0
  -25.8850  -30.7690   21.3730 C   0  0  0  0  0  2  0  0  0  0  0  0
  -25.9430  -29.4040   20.7220 C   0  0  0  0  0  0  0  0  0  0  0  0
  -27.1360  -28.6510   20.6870 C   0  0  0  0  0  3  0  0  0  0  0  0
  -25.9720  -26.8640   19.5180 C   0  0  0  0  0  3  0  0  0  0  0  0
  -24.7830  -27.6200   19.5460 C   0  0  0  0  0  3  0  0  0  0  0  0
  -23.5430  -29.7630   20.2130 C   0  0  0  0  0  2  0  0  0  0  0  0
  -24.6360  -31.0210   22.1290 N   0  0  0  0  0  0  0  0  0  0  0  0
  -23.5360  -32.0970   23.7930 O   0  0  0  0  0  0  0  0  0  0  0  0
  -22.7060  -29.4230   22.5620 C   0  0  0  0  0  0  0  0  0  0  0  0
  -21.3790  -29.2570   22.4450 N   0  0  0  0  0  0  0  0  0  0  0  0
  -23.3890  -28.7880   23.3690 O   0  0  0  0  0  0  0  0  0  0  0  0
  -20.8900  -29.8200   21.7630 H   0  0  0  0  0  0  0  0  0  0  0  0
  -17.9950  -28.0980   22.9540 C   0  0  0  0  0  0  0  0  0  0  0  0
  -20.5570  -28.3250   23.2150 C   0  0  0  0  0  3  0  0  0  0  0  0
  -20.6420  -26.8940   22.6360 C   0  0  0  0  0  2  0  0  0  0  0  0
  -19.5330  -26.5860   21.6250 C   0  0  0  0  0  2  0  0  0  0  0  0
  -18.1540  -26.7460   22.2750 C   0  0  0  0  0  2  0  0  0  0  0  0
  -19.1230  -28.8440   23.3810 C   0  0  0  0  0  0  0  0  0  0  0  0
  -18.9230  -30.1110   23.9720 C   0  0  0  0  0  3  0  0  0  0  0  0
  -17.6250  -30.6270   24.1430 C   0  0  0  0  0  3  0  0  0  0  0  0
  -16.5110  -29.8750   23.7340 C   0  0  0  0  0  3  0  0  0  0  0  0
  -16.6960  -28.6120   23.1440 C   0  0  0  0  0  3  0  0  0  0  0  0
  -25.9090  -32.4210   23.8470 C   0  0  0  0  0  3  0  0  0  0  0  0
  -25.6320  -33.8250   24.1760 N   0  0  0  0  0  0  0  0  0  0  0  0
  -25.9860  -34.8690   23.4140 C   0  0  0  0  0  0  0  0  0  0  0  0
  -26.6540  -34.7490   22.3830 O   0  0  0  0  0  0  0  0  0  0  0  0
  -25.0430  -33.9960   24.9800 H   0  0  0  0  0  0  0  0  0  0  0  0
  -24.3040  -36.7010   23.0430 C   0  0  0  0  0  1  0  0  0  0  0  0
  -25.5260  -36.2670   23.8680 C   0  0  0  0  0  3  0  0  0  0  0  0
  -27.6700  -37.1000   24.7270 C   0  0  0  0  0  1  0  0  0  0  0  0
  -26.5840  -37.2960   23.7700 N   0  0  0  0  0  0  0  0  0  0  0  0
  -26.1960  -38.2260   23.9140 H   0  0  0  0  0  0  0  0  0  0  0  0
  -26.4290  -31.6400   25.1170 C   0  0  1  0  0  0  0  0  0  0  0  0
  -25.3480  -31.4200   26.1990 C   0  0  0  0  0  1  0  0  0  0  0  0
  -26.9790  -30.2520   24.7130 C   0  0  0  0  0  1  0  0  0  0  0  0
  -27.5980  -32.4170   25.7670 C   0  0  0  0  0  1  0  0  0  0  0  0
  -31.6440  -21.4230   18.8110 C   0  0  0  0  0  2  0  0  0  0  0  0
  -32.7640  -20.3450   20.8170 C   0  0  0  0  0  1  0  0  0  0  0  0
  -31.7720  -20.2880   19.7430 N   0  0  0  0  0  0  0  0  0  0  0  0
  -31.4730  -17.2590   17.5120 C   0  0  0  0  0  3  0  0  0  0  0  0
  -30.8200  -16.3720   18.3780 C   0  0  0  0  0  3  0  0  0  0  0  0
  -30.9080  -18.0420   20.1430 C   0  0  0  0  0  3  0  0  0  0  0  0
  -31.8940  -18.5270   17.9540 C   0  0  0  0  0  0  0  0  0  0  0  0
  -30.6190  -16.7190   19.7290 C   0  0  0  0  0  0  0  0  0  0  0  0
  -31.5230  -18.9780   19.2600 C   0  0  0  0  0  0  0  0  0  0  0  0
  -32.8130  -19.2920   17.0060 C   0  0  0  0  0  1  0  0  0  0  0  0
  -30.9280  -14.5870   20.8070 C   0  0  0  0  0  0  0  0  0  0  0  0
  -30.6950  -12.3290   19.9160 C   0  0  0  0  0  2  0  0  0  0  0  0
  -29.8650  -12.4090   18.6180 C   0  0  0  0  0  2  0  0  0  0  0  0
  -28.3570  -12.3260   18.9240 C   0  0  0  0  0  2  0  0  0  0  0  0
  -27.9100  -13.2690   20.0740 C   0  0  0  0  0  3  0  0  0  0  0  0
  -28.8740  -13.1980   21.2810 C   0  0  0  0  0  2  0  0  0  0  0  0
  -30.2400  -13.4200   20.7890 N   0  0  0  0  0  0  0  0  0  0  0  0
  -32.1510  -14.6480   20.6550 O   0  0  0  0  0  0  0  0  0  0  0  0
  -30.1960  -15.7080   20.6490 N   0  0  0  0  0  0  0  0  0  0  0  0
  -29.2060  -15.6350   20.8250 H   0  0  0  0  0  0  0  0  0  0  0  0
  -25.4710  -13.8960   20.6020 C   0  0  0  0  0  0  0  0  0  0  0  0
  -24.3780  -13.1330   20.9120 C   0  0  0  0  0  0  0  0  0  0  0  0
  -24.8360  -11.7820   20.9490 C   0  0  0  0  0  0  0  0  0  0  0  0
  -26.5280  -13.0080   20.4700 N   0  0  0  0  0  0  0  0  0  0  0  0
  -26.1460  -11.7330   20.7420 N   0  0  0  0  0  0  0  0  0  0  0  0
  -24.0940  -10.5240   21.1110 C   0  0  0  0  0  0  0  0  0  0  0  0
  -24.4570   -9.5730   22.0900 C   0  0  0  0  0  3  0  0  0  0  0  0
  -23.7170   -8.3800   22.2390 C   0  0  0  0  0  3  0  0  0  0  0  0
  -22.6000   -8.1300   21.4070 C   0  0  0  0  0  0  0  0  0  0  0  0
  -22.2570   -9.0680   20.4190 C   0  0  0  0  0  3  0  0  0  0  0  0
  -22.9980  -10.2520   20.2680 C   0  0  0  0  0  3  0  0  0  0  0  0
  -21.8340   -6.9890   21.4650 O   0  0  0  0  0  0  0  0  0  0  0  0
  -21.7090   -6.2640   22.6220 C   0  0  0  0  0  0  0  0  0  0  0  0
  -21.2000   -6.8360   23.8090 C   0  0  0  0  0  3  0  0  0  0  0  0
  -21.0210   -6.0360   24.9560 C   0  0  0  0  0  3  0  0  0  0  0  0
  -21.3420   -4.6650   24.9160 C   0  0  0  0  0  0  0  0  0  0  0  0
  -21.8450   -4.0930   23.7340 C   0  0  0  0  0  3  0  0  0  0  0  0
  -22.0250   -4.8900   22.5910 C   0  0  0  0  0  0  0  0  0  0  0  0
  -22.4880   -4.3290   21.4490 F   0  0  0  0  0  0  0  0  0  0  0  0
  -21.1650   -3.8970   26.0160 F   0  0  0  0  0  0  0  0  0  0  0  0
  -22.9640  -13.6170   21.0650 C   0  0  0  0  0  0  0  0  0  0  0  0
  -22.1710  -12.9460   21.8950 N   0  0  0  0  0  0  0  0  0  0  0  0
  -22.5680  -14.6240   20.4840 O   0  0  0  0  0  0  0  0  0  0  0  0
  -22.5020  -12.1350   22.3970 H   0  0  0  0  0  0  0  0  0  0  0  0
  -21.2180  -13.2530   22.0330 H   0  0  0  0  0  0  0  0  0  0  0  0
  -25.6510  -15.2620   20.4040 N   0  0  0  0  0  0  0  0  0  0  0  0
  -24.8820  -15.9220   20.4470 H   0  0  0  0  0  0  0  0  0  0  0  0
  -26.5220  -15.6910   20.1190 H   0  0  0  0  0  0  0  0  0  0  0  0
  1 54  1  0
  1  2  1  0
  2  5  1  1
  2  3  1  0
  4  2  1  0
  6  7  1  0
  6  1  1  0
  8  6  1  0
  8 10  1  0
 10  9  1  6
 10 12  1  0
 11 10  1  0
 12 13  1  0
 14 25  2  0
 15 13  1  0
 15 20  1  0
 16 24  1  0
 16 26  1  0
 17 23  1  0
 17 19  1  0
 18 24  1  0
 19 18  1  0
 20 19  2  0
 21 22  1  0
 21 15  2  0
 22 17  2  0
 23 16  1  0
 24 14  1  0
 26 28  2  0
 27 26  1  0
 29 27  1  0
 30 39  2  0
 30 35  1  0
 31 27  1  0
 31 35  1  0
 32 31  1  0
 33 34  1  0
 33 32  1  0
 34 30  1  0
 35 36  2  0
 36 37  1  0
 38 37  2  0
 39 38  1  0
 40 14  1  0
 40 41  1  0
 40 50  1  0
 41 44  1  0
 42 46  1  0
 42 41  1  0
 43 42  2  0
 46 45  1  0
 48 46  1  0
 48 49  1  0
 48 47  1  0
 50 53  1  1
 50 51  1  0
 52 50  1  0
 54 56  1  0
 56 55  1  0
 57 60  2  0
 57 58  1  0
 58 61  2  0
 60 62  1  0
 61 59  1  0
 61 72  1  0
 62 56  1  0
 62 59  2  0
 63 60  1  0
 65 70  1  0
 66 67  1  0
 66 65  1  0
 68 67  1  0
 68 77  1  0
 68 69  1  0
 70 64  1  0
 70 69  1  0
 71 64  2  0
 72 64  1  0
 72 73  1  0
 74 75  2  0
 75 76  1  0
 75 94  1  0
 76 79  1  0
 77 74  1  0
 77 78  1  0
 78 76  2  0
 79 80  1  0
 80 81  2  0
 82 85  1  0
 82 81  1  0
 83 82  2  0
 84 83  1  0
 84 79  2  0
 85 86  1  0
 86 87  1  0
 87 88  2  0
 89 88  1  0
 89 93  1  0
 90 89  2  0
 91 86  2  0
 91 90  1  0
 92 91  1  0
 94 95  1  0
 95 98  1  0
 95 97  1  0
 96 94  2  0
 99100  1  0
 99 74  1  0
101 99  1  0
M  ISO  4  12 101  13 101  64 100  72 100
M  END
>  <TORSDO>  (16) 
F 24

>  <SCORE>  (16) 
-11.716

>  <name>  (16) 
15

>  <ligand_id>  (16) 
15

>  <original_smiles>  (16) 
[H]c1c([H])c([H])c2c(c1[H])C([H])([H])C([H])([H])C([H])([H])C2([H])N([H])C(=O)C1([H])N(C(=O)C([H])(N([H])C(=O)C([H])(N([H])C([H])([H])[H])C([H])([H])[H])C(C([H])([H])[H])(C([H])([H])[H])C([H])([H])[H])C([H])([H])c2c([H])c(OC([H])([H])C(F)(C([H])([H])[H])C([H])([H])N([H])C([H])(C(F)(F)F)C([H])([H])N(c3c([H])c(N([H])C(=O)N4C([H])([H])C([H])([H])C([H])([H])C([H])(n5nc(-c6c([H])c([H])c(Oc7c([H])c([H])c(F)c([H])c7F)c([H])c6[H])c(C(=O)N([H])[H])c5N([H])[H])C4([H])[H])c([H])c([H])c3C([H])([H])[H])C([H])([H])[H])c([H])c([H])c2C1([H])[H]

>  <smiles>  (16) 
[H]c1c([H])c([H])c2c(c1[H])C([H])([H])C([H])([H])C([H])([H])C2([H])N([H])C(=O)C1([H])N(C(=O)C([H])(N([H])C(=O)C([H])(N([H])C([H])([H])[H])C([H])([H])[H])C(C([H])([H])[H])(C([H])([H])[H])C([H])([H])[H])C([H])([H])c2c([H])c(OC([H])([H])C(F)(C([H])([H])[H])C([H])([H])N([H])C([H])(C(F)(F)F)C([H])([H])N(c3c([H])c(N([H])C(=O)N4C([H])([H])C([H])([H])C([H])([H])C([H])(n5nc(-c6c([H])c([H])c(Oc7c([H])c([H])c(F)c([H])c7F)c([H])c6[H])c(C(=O)N([H])[H])c5N([H])[H])C4([H])[H])c([H])c([H])c3C([H])([H])[H])C([H])([H])[H])c([H])c([H])c2C1([H])[H]

$$$$
16:0:0
     RDKit          3D

 92101  0  0  1  0  0  0  0  0999 V2000
  -27.1990  -22.5880   21.6540 C   0  0  0  0  0  2  0  0  0  0  0  0
  -28.4610  -23.4630   21.7200 C   0  0  0  0  0  2  0  0  0  0  0  0
  -27.1750  -22.0160   20.2270 C   0  0  0  0  0  2  0  0  0  0  0  0
  -28.9150  -23.5630   20.2610 C   0  0  0  0  0  3  0  0  0  0  0  0
  -28.5380  -22.1530   19.7190 N   0  0  0  0  0  0  0  0  0  0  0  0
  -29.8840  -20.2000   20.8720 C   0  0  0  0  0  3  0  0  0  0  0  0
  -30.2030  -18.7810   20.9790 C   0  0  0  0  0  3  0  0  0  0  0  0
  -29.1300  -18.3700   18.9230 C   0  0  0  0  0  3  0  0  0  0  0  0
  -29.1330  -20.7850   19.7960 C   0  0  0  0  0  0  0  0  0  0  0  0
  -29.8380  -17.7750   20.0150 C   0  0  0  0  0  0  0  0  0  0  0  0
  -28.7970  -19.7780   18.8180 C   0  0  0  0  0  0  0  0  0  0  0  0
  -28.0600  -20.1620   17.7460 F   0  0  0  0  0  0  0  0  0  0  0  0
  -30.7090  -15.1700   19.9230 C   0  0  0  0  0  0  0  0  0  0  0  0
  -30.5890  -12.8170   19.0000 C   0  0  0  0  0  2  0  0  0  0  0  0
  -29.5890  -12.7930   17.8180 C   0  0  0  0  0  2  0  0  0  0  0  0
  -28.1470  -12.5820   18.3200 C   0  0  0  0  0  2  0  0  0  0  0  0
  -27.8030  -13.4920   19.5290 C   0  0  0  0  0  3  0  0  0  0  0  0
  -28.9170  -13.4760   20.5990 C   0  0  0  0  0  2  0  0  0  0  0  0
  -30.1620  -13.8910   19.9370 N   0  0  0  0  0  0  0  0  0  0  0  0
  -31.8650  -15.3040   19.5050 O   0  0  0  0  0  0  0  0  0  0  0  0
  -29.8830  -16.2670   20.2590 N   0  0  0  0  0  0  0  0  0  0  0  0
  -29.0190  -15.9210   20.6510 H   0  0  0  0  0  0  0  0  0  0  0  0
  -25.4750  -14.0650   20.4270 C   0  0  0  0  0  0  0  0  0  0  0  0
  -24.4280  -13.2840   20.8350 C   0  0  0  0  0  0  0  0  0  0  0  0
  -24.8760  -11.9320   20.7250 C   0  0  0  0  0  0  0  0  0  0  0  0
  -26.4920  -13.1880   20.0910 N   0  0  0  0  0  0  0  0  0  0  0  0
  -26.1460  -11.8970   20.3340 N   0  0  0  0  0  0  0  0  0  0  0  0
  -24.1500  -10.6690   20.9150 C   0  0  0  0  0  0  0  0  0  0  0  0
  -24.5670   -9.7130   21.8660 C   0  0  0  0  0  3  0  0  0  0  0  0
  -23.8410   -8.5150   22.0430 C   0  0  0  0  0  3  0  0  0  0  0  0
  -22.6830   -8.2660   21.2680 C   0  0  0  0  0  0  0  0  0  0  0  0
  -22.2860   -9.2110   20.3060 C   0  0  0  0  0  3  0  0  0  0  0  0
  -23.0130  -10.4000   20.1280 C   0  0  0  0  0  3  0  0  0  0  0  0
  -21.9310   -7.1190   21.3530 O   0  0  0  0  0  0  0  0  0  0  0  0
  -21.7810   -6.4420   22.5370 C   0  0  0  0  0  0  0  0  0  0  0  0
  -21.1900   -7.0450   23.6690 C   0  0  0  0  0  3  0  0  0  0  0  0
  -20.9920   -6.2910   24.8440 C   0  0  0  0  0  3  0  0  0  0  0  0
  -21.3750   -4.9370   24.8850 C   0  0  0  0  0  0  0  0  0  0  0  0
  -21.9590   -4.3340   23.7570 C   0  0  0  0  0  3  0  0  0  0  0  0
  -22.1580   -5.0850   22.5850 C   0  0  0  0  0  0  0  0  0  0  0  0
  -22.7010   -4.4950   21.4940 F   0  0  0  0  0  0  0  0  0  0  0  0
  -21.1780   -4.2110   26.0100 F   0  0  0  0  0  0  0  0  0  0  0  0
  -23.0550  -13.7620   21.2090 C   0  0  0  0  0  0  0  0  0  0  0  0
  -22.3770  -13.0420   22.0960 N   0  0  0  0  0  0  0  0  0  0  0  0
  -22.5960  -14.8080   20.7510 O   0  0  0  0  0  0  0  0  0  0  0  0
  -22.7640  -12.1960   22.4870 H   0  0  0  0  0  0  0  0  0  0  0  0
  -21.4580  -13.3430   22.3890 H   0  0  0  0  0  0  0  0  0  0  0  0
  -25.6390  -15.4400   20.2910 N   0  0  0  0  0  0  0  0  0  0  0  0
  -24.8820  -16.0890   20.4720 H   0  0  0  0  0  0  0  0  0  0  0  0
  -26.4550  -15.8870   19.8950 H   0  0  0  0  0  0  0  0  0  0  0  0
  -28.1730  -24.9430   19.6310 C   0  0  0  0  0  2  0  0  0  0  0  0
  -28.3290  -26.4260   20.0660 O   0  0  0  0  0  0  0  0  0  0  0  0
  -24.5950  -31.9630   23.1350 C   0  0  0  0  0  0  0  0  0  0  0  0
  -27.2510  -27.3790   19.9930 C   0  0  0  0  0  0  0  0  0  0  0  0
  -23.4130  -30.5700   21.4810 C   0  0  0  0  0  3  0  0  0  0  0  0
  -24.8850  -29.0610   20.0120 C   0  0  0  0  0  0  0  0  0  0  0  0
  -25.9570  -30.8970   21.3040 C   0  0  0  0  0  2  0  0  0  0  0  0
  -26.0550  -29.5210   20.6260 C   0  0  0  0  0  0  0  0  0  0  0  0
  -27.2360  -28.6920   20.6080 C   0  0  0  0  0  3  0  0  0  0  0  0
  -26.0600  -27.0320   19.3160 C   0  0  0  0  0  3  0  0  0  0  0  0
  -24.8980  -27.8310   19.3410 C   0  0  0  0  0  3  0  0  0  0  0  0
  -23.6360  -29.9260   20.0870 C   0  0  0  0  0  2  0  0  0  0  0  0
  -24.6750  -31.1640   22.0270 N   0  0  0  0  0  0  0  0  0  0  0  0
  -23.5080  -32.2140   23.6760 O   0  0  0  0  0  0  0  0  0  0  0  0
  -22.7670  -29.5290   22.4280 C   0  0  0  0  0  0  0  0  0  0  0  0
  -21.4420  -29.3290   22.3060 N   0  0  0  0  0  0  0  0  0  0  0  0
  -23.4590  -28.9050   23.2360 O   0  0  0  0  0  0  0  0  0  0  0  0
  -20.9400  -29.8920   21.6330 H   0  0  0  0  0  0  0  0  0  0  0  0
  -18.0920  -28.0530   22.8150 C   0  0  0  0  0  0  0  0  0  0  0  0
  -20.6480  -28.3580   23.0620 C   0  0  0  0  0  3  0  0  0  0  0  0
  -20.7730  -26.9420   22.4550 C   0  0  0  0  0  2  0  0  0  0  0  0
  -19.6640  -26.6130   21.4490 C   0  0  0  0  0  2  0  0  0  0  0  0
  -18.2860  -26.7220   22.1070 C   0  0  0  0  0  2  0  0  0  0  0  0
  -19.2000  -28.8280   23.2500 C   0  0  0  0  0  0  0  0  0  0  0  0
  -18.9620  -30.0710   23.8740 C   0  0  0  0  0  3  0  0  0  0  0  0
  -17.6490  -30.5420   24.0650 C   0  0  0  0  0  3  0  0  0  0  0  0
  -16.5560  -29.7650   23.6450 C   0  0  0  0  0  3  0  0  0  0  0  0
  -16.7780  -28.5210   23.0260 C   0  0  0  0  0  3  0  0  0  0  0  0
  -25.8650  -32.6140   23.7630 C   0  0  0  0  0  3  0  0  0  0  0  0
  -25.5310  -34.0050   24.1040 N   0  0  0  0  0  0  0  0  0  0  0  0
  -25.8310  -35.0700   23.3470 C   0  0  0  0  0  0  0  0  0  0  0  0
  -26.4860  -34.9850   22.3050 O   0  0  0  0  0  0  0  0  0  0  0  0
  -24.9460  -34.1430   24.9140 H   0  0  0  0  0  0  0  0  0  0  0  0
  -24.0650  -36.8380   23.0320 C   0  0  0  0  0  1  0  0  0  0  0  0
  -25.3260  -36.4470   23.8220 C   0  0  0  0  0  3  0  0  0  0  0  0
  -27.4480  -37.3770   24.6380 C   0  0  0  0  0  1  0  0  0  0  0  0
  -26.3380  -37.5200   23.6990 N   0  0  0  0  0  0  0  0  0  0  0  0
  -25.9160  -38.4330   23.8450 H   0  0  0  0  0  0  0  0  0  0  0  0
  -26.3890  -31.8450   25.0390 C   0  0  1  0  0  0  0  0  0  0  0  0
  -25.2940  -31.5820   26.0990 C   0  0  0  0  0  1  0  0  0  0  0  0
  -27.0020  -30.4810   24.6480 C   0  0  0  0  0  1  0  0  0  0  0  0
  -27.5190  -32.6590   25.7110 C   0  0  0  0  0  1  0  0  0  0  0  0
  1  2  1  0
  3  1  1  0
  4 51  1  0
  4  2  1  0
  5  9  1  0
  5  3  1  0
  5  4  1  0
  6  7  1  0
  8 10  1  0
  9  6  2  0
 10 21  1  0
 10  7  2  0
 11  8  2  0
 11  9  1  0
 12 11  1  0
 13 19  1  0
 13 21  1  0
 14 19  1  0
 15 16  1  0
 15 14  1  0
 17 16  1  0
 17 26  1  0
 17 18  1  0
 19 18  1  0
 20 13  2  0
 21 22  1  0
 23 24  2  0
 24 43  1  0
 25 24  1  0
 25 28  1  0
 26 27  1  0
 26 23  1  0
 27 25  2  0
 28 29  1  0
 29 30  2  0
 31 34  1  0
 31 30  1  0
 32 31  2  0
 33 32  1  0
 33 28  2  0
 34 35  1  0
 35 40  2  0
 35 36  1  0
 36 37  2  0
 37 38  1  0
 38 42  1  0
 39 38  2  0
 40 39  1  0
 41 40  1  0
 43 44  1  0
 44 47  1  0
 44 46  1  0
 45 43  2  0
 48 23  1  0
 48 49  1  0
 50 48  1  0
 51 52  1  0
 53 64  2  0
 54 52  1  0
 54 59  1  0
 55 63  1  0
 55 65  1  0
 56 62  1  0
 56 58  1  0
 57 63  1  0
 58 57  1  0
 59 58  2  0
 60 61  1  0
 60 54  2  0
 61 56  2  0
 62 55  1  0
 63 53  1  0
 65 67  2  0
 66 65  1  0
 68 66  1  0
 69 78  2  0
 69 74  1  0
 70 66  1  0
 70 74  1  0
 71 70  1  0
 72 73  1  0
 72 71  1  0
 73 69  1  0
 74 75  2  0
 75 76  1  0
 77 76  2  0
 78 77  1  0
 79 53  1  0
 79 80  1  0
 79 89  1  0
 80 83  1  0
 81 85  1  0
 81 80  1  0
 82 81  2  0
 85 84  1  0
 87 85  1  0
 87 88  1  0
 87 86  1  0
 89 92  1  1
 89 90  1  0
 91 89  1  0
M  ISO  4  13 100  21 100  51 101  52 101
M  END
>  <TORSDO>  (17) 
F 18

>  <SCORE>  (17) 
-14.277

>  <name>  (17) 
16

>  <ligand_id>  (17) 
16

>  <original_smiles>  (17) 
[H]c1c([H])c([H])c2c(c1[H])C([H])([H])C([H])([H])C([H])([H])C2([H])N([H])C(=O)C1([H])N(C(=O)C([H])(N([H])C(=O)C([H])(N([H])C([H])([H])[H])C([H])([H])[H])C(C([H])([H])[H])(C([H])([H])[H])C([H])([H])[H])C([H])([H])c2c([H])c(OC([H])([H])C3([H])N(c4c([H])c([H])c(N([H])C(=O)N5C([H])([H])C([H])([H])C([H])([H])C([H])(n6nc(-c7c([H])c([H])c(Oc8c([H])c([H])c(F)c([H])c8F)c([H])c7[H])c(C(=O)N([H])[H])c6N([H])[H])C5([H])[H])c([H])c4F)C([H])([H])C([H])([H])C3([H])[H])c([H])c([H])c2C1([H])[H]

>  <smiles>  (17) 
[H]c1c([H])c([H])c2c(c1[H])C([H])([H])C([H])([H])C([H])([H])C2([H])N([H])C(=O)C1([H])N(C(=O)C([H])(N([H])C(=O)C([H])(N([H])C([H])([H])[H])C([H])([H])[H])C(C([H])([H])[H])(C([H])([H])[H])C([H])([H])[H])C([H])([H])c2c([H])c(OC([H])([H])C3([H])N(c4c([H])c([H])c(N([H])C(=O)N5C([H])([H])C([H])([H])C([H])([H])C([H])(n6nc(-c7c([H])c([H])c(Oc8c([H])c([H])c(F)c([H])c8F)c([H])c7[H])c(C(=O)N([H])[H])c6N([H])[H])C5([H])[H])c([H])c4F)C([H])([H])C([H])([H])C3([H])[H])c([H])c([H])c2C1([H])[H]

$$$$
17:0:0
     RDKit          3D

 92101  0  0  1  0  0  0  0  0999 V2000
  -30.2580  -23.2090   22.2190 C   0  0  0  0  0  2  0  0  0  0  0  0
  -30.6250  -23.7620   20.8370 C   0  0  0  0  0  2  0  0  0  0  0  0
  -29.0690  -22.2650   21.9800 C   0  0  0  0  0  2  0  0  0  0  0  0
  -29.4320  -23.3870   19.9600 C   0  0  0  0  0  3  0  0  0  0  0  0
  -29.0280  -22.0050   20.5410 N   0  0  0  0  0  0  0  0  0  0  0  0
  -30.7290  -19.9780   20.3440 C   0  0  0  0  0  3  0  0  0  0  0  0
  -30.9920  -18.5350   20.3440 C   0  0  0  0  0  3  0  0  0  0  0  0
  -28.6710  -18.1380   20.3060 C   0  0  0  0  0  3  0  0  0  0  0  0
  -28.4010  -19.5590   20.3050 C   0  0  0  0  0  0  0  0  0  0  0  0
  -29.4160  -20.5780   20.3380 C   0  0  0  0  0  0  0  0  0  0  0  0
  -29.9640  -17.5280   20.3410 C   0  0  0  0  0  0  0  0  0  0  0  0
  -26.9390  -19.9820   20.2960 C   0  0  0  0  0  1  0  0  0  0  0  0
  -30.8800  -14.9210   20.0210 C   0  0  0  0  0  0  0  0  0  0  0  0
  -30.7240  -12.6080   19.0010 C   0  0  0  0  0  2  0  0  0  0  0  0
  -29.7130  -12.6340   17.8270 C   0  0  0  0  0  2  0  0  0  0  0  0
  -28.2720  -12.4270   18.3340 C   0  0  0  0  0  2  0  0  0  0  0  0
  -27.9490  -13.3060   19.5700 C   0  0  0  0  0  3  0  0  0  0  0  0
  -29.0670  -13.2300   20.6330 C   0  0  0  0  0  2  0  0  0  0  0  0
  -30.3170  -13.6500   19.9800 N   0  0  0  0  0  0  0  0  0  0  0  0
  -32.0430  -15.0610   19.6240 O   0  0  0  0  0  0  0  0  0  0  0  0
  -30.0330  -15.9990   20.3620 N   0  0  0  0  0  0  0  0  0  0  0  0
  -29.1610  -15.6040   20.6810 H   0  0  0  0  0  0  0  0  0  0  0  0
  -25.6210  -13.8910   20.4680 C   0  0  0  0  0  0  0  0  0  0  0  0
  -24.5680  -13.1160   20.8690 C   0  0  0  0  0  0  0  0  0  0  0  0
  -25.0060  -11.7610   20.7510 C   0  0  0  0  0  0  0  0  0  0  0  0
  -26.6340  -13.0090   20.1290 N   0  0  0  0  0  0  0  0  0  0  0  0
  -26.2750  -11.7200   20.3620 N   0  0  0  0  0  0  0  0  0  0  0  0
  -24.2710  -10.5020   20.9270 C   0  0  0  0  0  0  0  0  0  0  0  0
  -24.6960   -9.5210   21.8510 C   0  0  0  0  0  3  0  0  0  0  0  0
  -23.9600   -8.3280   22.0170 C   0  0  0  0  0  3  0  0  0  0  0  0
  -22.7860   -8.1070   21.2580 C   0  0  0  0  0  0  0  0  0  0  0  0
  -22.3800   -9.0770   20.3240 C   0  0  0  0  0  3  0  0  0  0  0  0
  -23.1160  -10.2620   20.1560 C   0  0  0  0  0  3  0  0  0  0  0  0
  -22.0220   -6.9670   21.3340 O   0  0  0  0  0  0  0  0  0  0  0  0
  -21.8910   -6.2650   22.5050 C   0  0  0  0  0  0  0  0  0  0  0  0
  -21.3950   -6.8660   23.6830 C   0  0  0  0  0  3  0  0  0  0  0  0
  -21.2120   -6.0900   24.8460 C   0  0  0  0  0  3  0  0  0  0  0  0
  -21.5130   -4.7160   24.8300 C   0  0  0  0  0  0  0  0  0  0  0  0
  -22.0020   -4.1150   23.6570 C   0  0  0  0  0  3  0  0  0  0  0  0
  -22.1870   -4.8870   22.4960 C   0  0  0  0  0  0  0  0  0  0  0  0
  -22.6380   -4.2980   21.3630 F   0  0  0  0  0  0  0  0  0  0  0  0
  -21.3310   -3.9680   25.9440 F   0  0  0  0  0  0  0  0  0  0  0  0
  -23.1970  -13.6010   21.2430 C   0  0  0  0  0  0  0  0  0  0  0  0
  -22.5180  -12.8900   22.1360 N   0  0  0  0  0  0  0  0  0  0  0  0
  -22.7400  -14.6430   20.7770 O   0  0  0  0  0  0  0  0  0  0  0  0
  -22.9020  -12.0450   22.5330 H   0  0  0  0  0  0  0  0  0  0  0  0
  -21.6010  -13.1950   22.4280 H   0  0  0  0  0  0  0  0  0  0  0  0
  -25.7940  -15.2670   20.3360 N   0  0  0  0  0  0  0  0  0  0  0  0
  -25.0260  -15.9110   20.4920 H   0  0  0  0  0  0  0  0  0  0  0  0
  -26.5860  -15.7000   19.8820 H   0  0  0  0  0  0  0  0  0  0  0  0
  -28.3360  -24.6690   19.9930 C   0  0  0  0  0  2  0  0  0  0  0  0
  -28.6040  -26.1880   19.8180 O   0  0  0  0  0  0  0  0  0  0  0  0
  -24.8650  -31.6130   23.1210 C   0  0  0  0  0  0  0  0  0  0  0  0
  -27.5310  -27.1470   19.8280 C   0  0  0  0  0  0  0  0  0  0  0  0
  -23.7050  -30.3310   21.3640 C   0  0  0  0  0  3  0  0  0  0  0  0
  -25.1900  -28.8660   19.8680 C   0  0  0  0  0  0  0  0  0  0  0  0
  -26.2600  -30.6200   21.2700 C   0  0  0  0  0  2  0  0  0  0  0  0
  -26.3540  -29.2790   20.5280 C   0  0  0  0  0  0  0  0  0  0  0  0
  -27.5270  -28.4370   20.4920 C   0  0  0  0  0  3  0  0  0  0  0  0
  -26.3420  -26.8380   19.1300 C   0  0  0  0  0  3  0  0  0  0  0  0
  -25.1950  -27.6590   19.1550 C   0  0  0  0  0  3  0  0  0  0  0  0
  -23.9570  -29.7530   19.9470 C   0  0  0  0  0  2  0  0  0  0  0  0
  -24.9620  -30.8720   21.9750 N   0  0  0  0  0  0  0  0  0  0  0  0
  -23.7670  -31.8570   23.6430 O   0  0  0  0  0  0  0  0  0  0  0  0
  -23.0120  -29.2570   22.2380 C   0  0  0  0  0  0  0  0  0  0  0  0
  -21.6820  -29.1130   22.0940 N   0  0  0  0  0  0  0  0  0  0  0  0
  -23.6730  -28.5580   23.0110 O   0  0  0  0  0  0  0  0  0  0  0  0
  -21.2070  -29.7290   21.4500 H   0  0  0  0  0  0  0  0  0  0  0  0
  -18.2740  -27.9760   22.5510 C   0  0  0  0  0  0  0  0  0  0  0  0
  -20.8450  -28.1280   22.7850 C   0  0  0  0  0  3  0  0  0  0  0  0
  -20.8880  -26.7590   22.0650 C   0  0  0  0  0  2  0  0  0  0  0  0
  -19.7550  -26.5760   21.0500 C   0  0  0  0  0  2  0  0  0  0  0  0
  -18.3920  -26.6980   21.7380 C   0  0  0  0  0  2  0  0  0  0  0  0
  -19.4260  -28.6550   23.0290 C   0  0  0  0  0  0  0  0  0  0  0  0
  -19.2600  -29.8550   23.7540 C   0  0  0  0  0  3  0  0  0  0  0  0
  -17.9750  -30.3750   24.0020 C   0  0  0  0  0  3  0  0  0  0  0  0
  -16.8380  -29.6910   23.5390 C   0  0  0  0  0  3  0  0  0  0  0  0
  -16.9890  -28.4920   22.8180 C   0  0  0  0  0  3  0  0  0  0  0  0
  -26.1280  -32.2070   23.8170 C   0  0  0  0  0  3  0  0  0  0  0  0
  -25.8080  -33.5840   24.2220 N   0  0  0  0  0  0  0  0  0  0  0  0
  -26.1380  -34.6820   23.5280 C   0  0  0  0  0  0  0  0  0  0  0  0
  -26.8110  -34.6410   22.4940 O   0  0  0  0  0  0  0  0  0  0  0  0
  -25.2100  -33.6900   25.0280 H   0  0  0  0  0  0  0  0  0  0  0  0
  -24.3890  -36.4760   23.2960 C   0  0  0  0  0  1  0  0  0  0  0  0
  -25.6470  -36.0410   24.0650 C   0  0  0  0  0  3  0  0  0  0  0  0
  -27.7840  -36.9070   24.9100 C   0  0  0  0  0  1  0  0  0  0  0  0
  -26.6680  -37.1090   23.9900 N   0  0  0  0  0  0  0  0  0  0  0  0
  -26.2550  -38.0170   24.1860 H   0  0  0  0  0  0  0  0  0  0  0  0
  -26.6030  -31.3620   25.0620 C   0  0  1  0  0  0  0  0  0  0  0  0
  -25.4790  -31.0760   26.0860 C   0  0  0  0  0  1  0  0  0  0  0  0
  -27.1870  -30.0030   24.6150 C   0  0  0  0  0  1  0  0  0  0  0  0
  -27.7390  -32.1100   25.7980 C   0  0  0  0  0  1  0  0  0  0  0  0
  2  1  1  0
  3  1  1  0
  4 51  1  0
  4  5  1  0
  4  2  1  0
  5  3  1  0
  6  7  1  0
  8 11  1  0
  9  8  2  0
  9 10  1  0
 10  6  2  0
 10  5  1  0
 11  7  2  0
 11 21  1  0
 12  9  1  0
 13 21  1  0
 14 19  1  0
 15 16  1  0
 15 14  1  0
 17 16  1  0
 17 26  1  0
 17 18  1  0
 19 13  1  0
 19 18  1  0
 20 13  2  0
 21 22  1  0
 23 24  2  0
 24 43  1  0
 25 24  1  0
 25 28  1  0
 26 27  1  0
 26 23  1  0
 27 25  2  0
 28 29  1  0
 29 30  2  0
 31 34  1  0
 31 30  1  0
 32 31  2  0
 33 32  1  0
 33 28  2  0
 34 35  1  0
 35 36  1  0
 36 37  2  0
 38 37  1  0
 38 42  1  0
 39 38  2  0
 40 35  2  0
 40 39  1  0
 41 40  1  0
 43 44  1  0
 44 47  1  0
 44 46  1  0
 45 43  2  0
 48 23  1  0
 48 49  1  0
 50 48  1  0
 52 54  1  0
 52 51  1  0
 53 64  2  0
 54 59  1  0
 55 63  1  0
 55 65  1  0
 56 62  1  0
 56 58  1  0
 57 63  1  0
 58 57  1  0
 59 58  2  0
 60 61  1  0
 60 54  2  0
 61 56  2  0
 62 55  1  0
 63 53  1  0
 65 67  2  0
 66 65  1  0
 68 66  1  0
 69 78  2  0
 69 74  1  0
 70 66  1  0
 70 74  1  0
 71 70  1  0
 72 73  1  0
 72 71  1  0
 73 69  1  0
 74 75  2  0
 75 76  1  0
 77 76  2  0
 78 77  1  0
 79 53  1  0
 79 80  1  0
 79 89  1  0
 80 83  1  0
 81 85  1  0
 81 80  1  0
 82 81  2  0
 85 84  1  0
 87 85  1  0
 87 88  1  0
 87 86  1  0
 89 92  1  1
 89 90  1  0
 91 89  1  0
M  ISO  4  13 100  21 100  51 101  52 101
M  END
>  <TORSDO>  (18) 
F 18

>  <SCORE>  (18) 
-13.132

>  <name>  (18) 
17

>  <ligand_id>  (18) 
17

>  <original_smiles>  (18) 
[H]c1c([H])c([H])c2c(c1[H])C([H])([H])C([H])([H])C([H])([H])C2([H])N([H])C(=O)C1([H])N(C(=O)C([H])(N([H])C(=O)C([H])(N([H])C([H])([H])[H])C([H])([H])[H])C(C([H])([H])[H])(C([H])([H])[H])C([H])([H])[H])C([H])([H])c2c([H])c(OC([H])([H])C3([H])N(c4c([H])c([H])c(N([H])C(=O)N5C([H])([H])C([H])([H])C([H])([H])C([H])(n6nc(-c7c([H])c([H])c(Oc8c([H])c([H])c(F)c([H])c8F)c([H])c7[H])c(C(=O)N([H])[H])c6N([H])[H])C5([H])[H])c([H])c4C([H])([H])[H])C([H])([H])C([H])([H])C3([H])[H])c([H])c([H])c2C1([H])[H]

>  <smiles>  (18) 
[H]c1c([H])c([H])c2c(c1[H])C([H])([H])C([H])([H])C([H])([H])C2([H])N([H])C(=O)C1([H])N(C(=O)C([H])(N([H])C(=O)C([H])(N([H])C([H])([H])[H])C([H])([H])[H])C(C([H])([H])[H])(C([H])([H])[H])C([H])([H])[H])C([H])([H])c2c([H])c(OC([H])([H])C3([H])N(c4c([H])c([H])c(N([H])C(=O)N5C([H])([H])C([H])([H])C([H])([H])C([H])(n6nc(-c7c([H])c([H])c(Oc8c([H])c([H])c(F)c([H])c8F)c([H])c7[H])c(C(=O)N([H])[H])c6N([H])[H])C5([H])[H])c([H])c4C([H])([H])[H])C([H])([H])C([H])([H])C3([H])[H])c([H])c([H])c2C1([H])[H]

$$$$
18:0:0
     RDKit          3D

 92101  0  0  1  0  0  0  0  0999 V2000
  -30.2580  -23.2090   22.2190 C   0  0  0  0  0  2  0  0  0  0  0  0
  -30.6250  -23.7620   20.8370 C   0  0  0  0  0  2  0  0  0  0  0  0
  -29.0690  -22.2650   21.9800 C   0  0  0  0  0  2  0  0  0  0  0  0
  -29.4320  -23.3870   19.9600 C   0  0  0  0  0  3  0  0  0  0  0  0
  -29.0280  -22.0050   20.5410 N   0  0  0  0  0  0  0  0  0  0  0  0
  -30.7290  -19.9780   20.3440 C   0  0  0  0  0  3  0  0  0  0  0  0
  -30.9920  -18.5350   20.3440 C   0  0  0  0  0  3  0  0  0  0  0  0
  -28.6710  -18.1380   20.3060 C   0  0  0  0  0  3  0  0  0  0  0  0
  -28.4010  -19.5590   20.3050 C   0  0  0  0  0  0  0  0  0  0  0  0
  -29.4160  -20.5780   20.3380 C   0  0  0  0  0  0  0  0  0  0  0  0
  -29.9640  -17.5280   20.3410 C   0  0  0  0  0  0  0  0  0  0  0  0
  -26.9390  -19.9820   20.2960 C   0  0  0  0  0  1  0  0  0  0  0  0
  -30.8800  -14.9210   20.0210 C   0  0  0  0  0  0  0  0  0  0  0  0
  -30.7240  -12.6080   19.0010 C   0  0  0  0  0  2  0  0  0  0  0  0
  -29.7130  -12.6340   17.8270 C   0  0  0  0  0  2  0  0  0  0  0  0
  -28.2720  -12.4270   18.3340 C   0  0  0  0  0  2  0  0  0  0  0  0
  -27.9490  -13.3060   19.5700 C   0  0  0  0  0  3  0  0  0  0  0  0
  -29.0670  -13.2300   20.6330 C   0  0  0  0  0  2  0  0  0  0  0  0
  -30.3170  -13.6500   19.9800 N   0  0  0  0  0  0  0  0  0  0  0  0
  -32.0430  -15.0610   19.6240 O   0  0  0  0  0  0  0  0  0  0  0  0
  -30.0330  -15.9990   20.3620 N   0  0  0  0  0  0  0  0  0  0  0  0
  -29.1610  -15.6040   20.6810 H   0  0  0  0  0  0  0  0  0  0  0  0
  -25.6210  -13.8910   20.4680 C   0  0  0  0  0  0  0  0  0  0  0  0
  -24.5680  -13.1160   20.8690 C   0  0  0  0  0  0  0  0  0  0  0  0
  -25.0060  -11.7610   20.7510 C   0  0  0  0  0  0  0  0  0  0  0  0
  -26.6340  -13.0090   20.1290 N   0  0  0  0  0  0  0  0  0  0  0  0
  -26.2750  -11.7200   20.3620 N   0  0  0  0  0  0  0  0  0  0  0  0
  -24.2710  -10.5020   20.9270 C   0  0  0  0  0  0  0  0  0  0  0  0
  -24.6960   -9.5210   21.8510 C   0  0  0  0  0  3  0  0  0  0  0  0
  -23.9600   -8.3280   22.0170 C   0  0  0  0  0  3  0  0  0  0  0  0
  -22.7860   -8.1070   21.2580 C   0  0  0  0  0  0  0  0  0  0  0  0
  -22.3800   -9.0770   20.3240 C   0  0  0  0  0  3  0  0  0  0  0  0
  -23.1160  -10.2620   20.1560 C   0  0  0  0  0  3  0  0  0  0  0  0
  -22.0220   -6.9670   21.3340 O   0  0  0  0  0  0  0  0  0  0  0  0
  -21.8910   -6.2650   22.5050 C   0  0  0  0  0  0  0  0  0  0  0  0
  -21.3950   -6.8660   23.6830 C   0  0  0  0  0  3  0  0  0  0  0  0
  -21.2120   -6.0900   24.8460 C   0  0  0  0  0  3  0  0  0  0  0  0
  -21.5130   -4.7160   24.8300 C   0  0  0  0  0  0  0  0  0  0  0  0
  -22.0020   -4.1150   23.6570 C   0  0  0  0  0  3  0  0  0  0  0  0
  -22.1870   -4.8870   22.4960 C   0  0  0  0  0  0  0  0  0  0  0  0
  -22.6380   -4.2980   21.3630 F   0  0  0  0  0  0  0  0  0  0  0  0
  -21.3310   -3.9680   25.9440 F   0  0  0  0  0  0  0  0  0  0  0  0
  -23.1970  -13.6010   21.2430 C   0  0  0  0  0  0  0  0  0  0  0  0
  -22.5180  -12.8900   22.1360 N   0  0  0  0  0  0  0  0  0  0  0  0
  -22.7400  -14.6430   20.7770 O   0  0  0  0  0  0  0  0  0  0  0  0
  -22.9020  -12.0450   22.5330 H   0  0  0  0  0  0  0  0  0  0  0  0
  -21.6010  -13.1950   22.4280 H   0  0  0  0  0  0  0  0  0  0  0  0
  -25.7940  -15.2670   20.3360 N   0  0  0  0  0  0  0  0  0  0  0  0
  -25.0260  -15.9110   20.4920 H   0  0  0  0  0  0  0  0  0  0  0  0
  -26.5860  -15.7000   19.8820 H   0  0  0  0  0  0  0  0  0  0  0  0
  -28.3360  -24.6690   19.9930 C   0  0  0  0  0  2  0  0  0  0  0  0
  -28.6040  -26.1880   19.8180 O   0  0  0  0  0  0  0  0  0  0  0  0
  -24.8650  -31.6130   23.1210 C   0  0  0  0  0  0  0  0  0  0  0  0
  -27.5310  -27.1470   19.8280 C   0  0  0  0  0  0  0  0  0  0  0  0
  -23.7050  -30.3310   21.3640 C   0  0  0  0  0  3  0  0  0  0  0  0
  -25.1900  -28.8660   19.8680 C   0  0  0  0  0  0  0  0  0  0  0  0
  -26.2600  -30.6200   21.2700 C   0  0  0  0  0  2  0  0  0  0  0  0
  -26.3540  -29.2790   20.5280 C   0  0  0  0  0  0  0  0  0  0  0  0
  -27.5270  -28.4370   20.4920 C   0  0  0  0  0  3  0  0  0  0  0  0
  -26.3420  -26.8380   19.1300 C   0  0  0  0  0  3  0  0  0  0  0  0
  -25.1950  -27.6590   19.1550 C   0  0  0  0  0  3  0  0  0  0  0  0
  -23.9570  -29.7530   19.9470 C   0  0  0  0  0  2  0  0  0  0  0  0
  -24.9620  -30.8720   21.9750 N   0  0  0  0  0  0  0  0  0  0  0  0
  -23.7670  -31.8570   23.6430 O   0  0  0  0  0  0  0  0  0  0  0  0
  -23.0120  -29.2570   22.2380 C   0  0  0  0  0  0  0  0  0  0  0  0
  -21.6820  -29.1130   22.0940 N   0  0  0  0  0  0  0  0  0  0  0  0
  -23.6730  -28.5580   23.0110 O   0  0  0  0  0  0  0  0  0  0  0  0
  -21.2070  -29.7290   21.4500 H   0  0  0  0  0  0  0  0  0  0  0  0
  -18.2740  -27.9760   22.5510 C   0  0  0  0  0  0  0  0  0  0  0  0
  -20.8450  -28.1280   22.7850 C   0  0  0  0  0  3  0  0  0  0  0  0
  -20.8880  -26.7590   22.0650 C   0  0  0  0  0  2  0  0  0  0  0  0
  -19.7550  -26.5760   21.0500 C   0  0  0  0  0  2  0  0  0  0  0  0
  -18.3920  -26.6980   21.7380 C   0  0  0  0  0  2  0  0  0  0  0  0
  -19.4260  -28.6550   23.0290 C   0  0  0  0  0  0  0  0  0  0  0  0
  -19.2600  -29.8550   23.7540 C   0  0  0  0  0  3  0  0  0  0  0  0
  -17.9750  -30.3750   24.0020 C   0  0  0  0  0  3  0  0  0  0  0  0
  -16.8380  -29.6910   23.5390 C   0  0  0  0  0  3  0  0  0  0  0  0
  -16.9890  -28.4920   22.8180 C   0  0  0  0  0  3  0  0  0  0  0  0
  -26.1280  -32.2070   23.8170 C   0  0  0  0  0  3  0  0  0  0  0  0
  -25.8080  -33.5840   24.2220 N   0  0  0  0  0  0  0  0  0  0  0  0
  -26.1380  -34.6820   23.5280 C   0  0  0  0  0  0  0  0  0  0  0  0
  -26.8110  -34.6410   22.4940 O   0  0  0  0  0  0  0  0  0  0  0  0
  -25.2100  -33.6900   25.0280 H   0  0  0  0  0  0  0  0  0  0  0  0
  -24.3890  -36.4760   23.2960 C   0  0  0  0  0  1  0  0  0  0  0  0
  -25.6470  -36.0410   24.0650 C   0  0  0  0  0  3  0  0  0  0  0  0
  -27.7840  -36.9070   24.9100 C   0  0  0  0  0  1  0  0  0  0  0  0
  -26.6680  -37.1090   23.9900 N   0  0  0  0  0  0  0  0  0  0  0  0
  -26.2550  -38.0170   24.1860 H   0  0  0  0  0  0  0  0  0  0  0  0
  -26.6030  -31.3620   25.0620 C   0  0  1  0  0  0  0  0  0  0  0  0
  -25.4790  -31.0760   26.0860 C   0  0  0  0  0  1  0  0  0  0  0  0
  -27.1870  -30.0030   24.6150 C   0  0  0  0  0  1  0  0  0  0  0  0
  -27.7390  -32.1100   25.7980 C   0  0  0  0  0  1  0  0  0  0  0  0
  2  1  1  0
  3  1  1  0
  4 51  1  0
  4  5  1  0
  4  2  1  0
  5  3  1  0
  6  7  1  0
  8 11  1  0
  9  8  2  0
  9 10  1  0
 10  6  2  0
 10  5  1  0
 11  7  2  0
 11 21  1  0
 12  9  1  0
 13 21  1  0
 14 19  1  0
 15 16  1  0
 15 14  1  0
 17 16  1  0
 17 26  1  0
 17 18  1  0
 19 13  1  0
 19 18  1  0
 20 13  2  0
 21 22  1  0
 23 24  2  0
 24 43  1  0
 25 24  1  0
 25 28  1  0
 26 27  1  0
 26 23  1  0
 27 25  2  0
 28 29  1  0
 29 30  2  0
 31 34  1  0
 31 30  1  0
 32 31  2  0
 33 32  1  0
 33 28  2  0
 34 35  1  0
 35 36  1  0
 36 37  2  0
 38 37  1  0
 38 42  1  0
 39 38  2  0
 40 35  2  0
 40 39  1  0
 41 40  1  0
 43 44  1  0
 44 47  1  0
 44 46  1  0
 45 43  2  0
 48 23  1  0
 48 49  1  0
 50 48  1  0
 52 54  1  0
 52 51  1  0
 53 64  2  0
 54 59  1  0
 55 63  1  0
 55 65  1  0
 56 62  1  0
 56 58  1  0
 57 63  1  0
 58 57  1  0
 59 58  2  0
 60 61  1  0
 60 54  2  0
 61 56  2  0
 62 55  1  0
 63 53  1  0
 65 67  2  0
 66 65  1  0
 68 66  1  0
 69 78  2  0
 69 74  1  0
 70 66  1  0
 70 74  1  0
 71 70  1  0
 72 73  1  0
 72 71  1  0
 73 69  1  0
 74 75  2  0
 75 76  1  0
 77 76  2  0
 78 77  1  0
 79 53  1  0
 79 80  1  0
 79 89  1  0
 80 83  1  0
 81 85  1  0
 81 80  1  0
 82 81  2  0
 85 84  1  0
 87 85  1  0
 87 88  1  0
 87 86  1  0
 89 92  1  1
 89 90  1  0
 91 89  1  0
M  ISO  4  13 100  21 100  51 101  52 101
M  END
>  <TORSDO>  (19) 
F 18

>  <SCORE>  (19) 
-13.132

>  <name>  (19) 
18

>  <ligand_id>  (19) 
18

>  <original_smiles>  (19) 
[H]c1c([H])c([H])c2c(c1[H])C([H])([H])C([H])([H])C([H])([H])C2([H])N([H])C(=O)C1([H])N(C(=O)C([H])(N([H])C(=O)C([H])(N([H])C([H])([H])[H])C([H])([H])[H])C(C([H])([H])[H])(C([H])([H])[H])C([H])([H])[H])C([H])([H])c2c([H])c(OC([H])([H])C3([H])N(c4c([H])c([H])c(N([H])C(=O)N5C([H])([H])C([H])([H])C([H])([H])C([H])(n6nc(-c7c([H])c([H])c(Oc8c([H])c([H])c(F)c([H])c8F)c([H])c7[H])c(C(=O)N([H])[H])c6N([H])[H])C5([H])[H])c([H])c4C([H])([H])[H])C([H])([H])C([H])([H])C3([H])[H])c([H])c([H])c2C1([H])[H]

>  <smiles>  (19) 
[H]c1c([H])c([H])c2c(c1[H])C([H])([H])C([H])([H])C([H])([H])C2([H])N([H])C(=O)C1([H])N(C(=O)C([H])(N([H])C(=O)C([H])(N([H])C([H])([H])[H])C([H])([H])[H])C(C([H])([H])[H])(C([H])([H])[H])C([H])([H])[H])C([H])([H])c2c([H])c(OC([H])([H])C3([H])N(c4c([H])c([H])c(N([H])C(=O)N5C([H])([H])C([H])([H])C([H])([H])C([H])(n6nc(-c7c([H])c([H])c(Oc8c([H])c([H])c(F)c([H])c8F)c([H])c7[H])c(C(=O)N([H])[H])c6N([H])[H])C5([H])[H])c([H])c4C([H])([H])[H])C([H])([H])C([H])([H])C3([H])[H])c([H])c([H])c2C1([H])[H]

$$$$
19:0:0
     RDKit          3D

 94103  0  0  1  0  0  0  0  0999 V2000
  -28.9700  -22.4260   20.5810 C   0  0  0  0  0  0  0  0  0  0  0  0
  -27.8010  -22.2340   17.9190 C   0  0  0  0  0  2  0  0  0  0  0  0
  -27.7430  -23.6360   18.5630 C   0  0  0  0  0  2  0  0  0  0  0  0
  -29.1090  -21.5300   18.2970 C   0  0  0  0  0  2  0  0  0  0  0  0
  -28.0710  -23.6530   20.0890 C   0  0  0  0  0  3  0  0  0  0  0  0
  -29.2090  -21.3430   19.7550 N   0  0  0  0  0  0  0  0  0  0  0  0
  -29.3970  -22.4460   21.7420 O   0  0  0  0  0  0  0  0  0  0  0  0
  -28.4970  -19.1640   20.7710 C   0  0  0  0  0  3  0  0  0  0  0  0
  -28.6730  -17.7620   20.9340 C   0  0  0  0  0  3  0  0  0  0  0  0
  -30.9100  -17.9100   20.0280 C   0  0  0  0  0  3  0  0  0  0  0  0
  -29.5120  -19.9740   20.1880 C   0  0  0  0  0  0  0  0  0  0  0  0
  -29.8580  -17.0880   20.5340 C   0  0  0  0  0  0  0  0  0  0  0  0
  -30.7360  -19.3180   19.8520 C   0  0  0  0  0  0  0  0  0  0  0  0
  -31.7570  -20.0310   19.3120 F   0  0  0  0  0  0  0  0  0  0  0  0
  -30.6500  -14.6440   20.0900 C   0  0  0  0  0  0  0  0  0  0  0  0
  -30.3830  -12.4740   18.9130 C   0  0  0  0  0  2  0  0  0  0  0  0
  -29.3580  -12.6510   17.7720 C   0  0  0  0  0  2  0  0  0  0  0  0
  -27.9150  -12.4700   18.2800 C   0  0  0  0  0  2  0  0  0  0  0  0
  -27.6320  -13.2850   19.5630 C   0  0  0  0  0  3  0  0  0  0  0  0
  -28.7480  -13.0560   20.6050 C   0  0  0  0  0  2  0  0  0  0  0  0
  -30.0370  -13.4250   19.9880 N   0  0  0  0  0  0  0  0  0  0  0  0
  -31.7710  -14.8500   19.6080 O   0  0  0  0  0  0  0  0  0  0  0  0
  -29.8800  -15.6320   20.6400 N   0  0  0  0  0  0  0  0  0  0  0  0
  -29.0300  -15.2470   21.0260 H   0  0  0  0  0  0  0  0  0  0  0  0
  -25.2730  -13.8700   20.4110 C   0  0  0  0  0  0  0  0  0  0  0  0
  -24.2280  -13.0890   20.8260 C   0  0  0  0  0  0  0  0  0  0  0  0
  -24.6910  -11.7430   20.7450 C   0  0  0  0  0  0  0  0  0  0  0  0
  -26.3050  -12.9960   20.1060 N   0  0  0  0  0  0  0  0  0  0  0  0
  -25.9610  -11.7100   20.3640 N   0  0  0  0  0  0  0  0  0  0  0  0
  -23.9790  -10.4710   20.9480 C   0  0  0  0  0  0  0  0  0  0  0  0
  -24.4310   -9.5090   21.8790 C   0  0  0  0  0  3  0  0  0  0  0  0
  -23.7170   -8.3050   22.0650 C   0  0  0  0  0  3  0  0  0  0  0  0
  -22.5350   -8.0540   21.3300 C   0  0  0  0  0  0  0  0  0  0  0  0
  -22.1000   -9.0060   20.3920 C   0  0  0  0  0  3  0  0  0  0  0  0
  -22.8150  -10.2010   20.2030 C   0  0  0  0  0  3  0  0  0  0  0  0
  -21.7980   -6.9010   21.4270 O   0  0  0  0  0  0  0  0  0  0  0  0
  -21.7300   -6.1850   22.5970 C   0  0  0  0  0  0  0  0  0  0  0  0
  -21.2610   -6.7600   23.7980 C   0  0  0  0  0  3  0  0  0  0  0  0
  -21.1460   -5.9720   24.9620 C   0  0  0  0  0  3  0  0  0  0  0  0
  -21.4850   -4.6070   24.9230 C   0  0  0  0  0  0  0  0  0  0  0  0
  -21.9410   -4.0290   23.7260 C   0  0  0  0  0  3  0  0  0  0  0  0
  -22.0620   -4.8160   22.5670 C   0  0  0  0  0  0  0  0  0  0  0  0
  -22.4880   -4.2490   21.4130 F   0  0  0  0  0  0  0  0  0  0  0  0
  -21.3670   -3.8500   26.0380 F   0  0  0  0  0  0  0  0  0  0  0  0
  -22.8440  -13.5610   21.1760 C   0  0  0  0  0  0  0  0  0  0  0  0
  -22.1590  -12.8490   22.0620 N   0  0  0  0  0  0  0  0  0  0  0  0
  -22.3800  -14.5990   20.7040 O   0  0  0  0  0  0  0  0  0  0  0  0
  -22.5490  -12.0200   22.4840 H   0  0  0  0  0  0  0  0  0  0  0  0
  -21.2400  -13.1610   22.3490 H   0  0  0  0  0  0  0  0  0  0  0  0
  -25.4280  -15.2420   20.2510 N   0  0  0  0  0  0  0  0  0  0  0  0
  -24.6530  -15.8840   20.3740 H   0  0  0  0  0  0  0  0  0  0  0  0
  -26.2480  -15.6810   19.8530 H   0  0  0  0  0  0  0  0  0  0  0  0
  -28.2530  -25.1050   20.8010 C   0  0  0  0  0  2  0  0  0  0  0  0
  -28.3630  -26.4470   20.1500 O   0  0  0  0  0  0  0  0  0  0  0  0
  -24.6330  -31.8870   23.2160 C   0  0  0  0  0  0  0  0  0  0  0  0
  -27.2580  -27.3130   20.1780 C   0  0  0  0  0  0  0  0  0  0  0  0
  -23.4350  -30.4740   21.5780 C   0  0  0  0  0  3  0  0  0  0  0  0
  -24.9000  -28.9220   20.1610 C   0  0  0  0  0  0  0  0  0  0  0  0
  -25.9780  -30.8010   21.3990 C   0  0  0  0  0  2  0  0  0  0  0  0
  -26.0650  -29.4180   20.7600 C   0  0  0  0  0  0  0  0  0  0  0  0
  -27.2550  -28.6240   20.7560 C   0  0  0  0  0  3  0  0  0  0  0  0
  -26.0750  -26.8720   19.5600 C   0  0  0  0  0  3  0  0  0  0  0  0
  -24.9080  -27.6580   19.5490 C   0  0  0  0  0  3  0  0  0  0  0  0
  -23.6600  -29.7920   20.2020 C   0  0  0  0  0  2  0  0  0  0  0  0
  -24.7000  -31.0750   22.1200 N   0  0  0  0  0  0  0  0  0  0  0  0
  -23.5450  -32.1590   23.7500 O   0  0  0  0  0  0  0  0  0  0  0  0
  -22.7790  -29.4570   22.5400 C   0  0  0  0  0  0  0  0  0  0  0  0
  -21.4520  -29.2800   22.4250 N   0  0  0  0  0  0  0  0  0  0  0  0
  -23.4680  -28.8340   23.3520 O   0  0  0  0  0  0  0  0  0  0  0  0
  -20.9520  -29.8380   21.7460 H   0  0  0  0  0  0  0  0  0  0  0  0
  -18.0820  -28.0790   22.9430 C   0  0  0  0  0  0  0  0  0  0  0  0
  -20.6420  -28.3390   23.1980 C   0  0  0  0  0  3  0  0  0  0  0  0
  -20.7410  -26.9040   22.6280 C   0  0  0  0  0  2  0  0  0  0  0  0
  -19.6330  -26.5770   21.6170 C   0  0  0  0  0  2  0  0  0  0  0  0
  -18.2540  -26.7270   22.2660 C   0  0  0  0  0  2  0  0  0  0  0  0
  -19.2030  -28.8410   23.3670 C   0  0  0  0  0  0  0  0  0  0  0  0
  -18.9850  -30.1060   23.9580 C   0  0  0  0  0  3  0  0  0  0  0  0
  -17.6810  -30.6040   24.1370 C   0  0  0  0  0  3  0  0  0  0  0  0
  -16.5760  -29.8390   23.7260 C   0  0  0  0  0  3  0  0  0  0  0  0
  -16.7780  -28.5790   23.1360 C   0  0  0  0  0  3  0  0  0  0  0  0
  -25.9150  -32.5270   23.8340 C   0  0  0  0  0  3  0  0  0  0  0  0
  -25.5940  -33.9230   24.1690 N   0  0  0  0  0  0  0  0  0  0  0  0
  -25.9170  -34.9810   23.4140 C   0  0  0  0  0  0  0  0  0  0  0  0
  -26.5830  -34.8870   22.3820 O   0  0  0  0  0  0  0  0  0  0  0  0
  -25.0080  -34.0700   24.9770 H   0  0  0  0  0  0  0  0  0  0  0  0
  -24.1790  -36.7660   23.0610 C   0  0  0  0  0  1  0  0  0  0  0  0
  -25.4190  -36.3660   23.8760 C   0  0  0  0  0  3  0  0  0  0  0  0
  -27.5480  -37.2600   24.7160 C   0  0  0  0  0  1  0  0  0  0  0  0
  -26.4460  -37.4260   23.7730 N   0  0  0  0  0  0  0  0  0  0  0  0
  -26.0340  -38.3440   23.9160 H   0  0  0  0  0  0  0  0  0  0  0  0
  -26.4350  -31.7590   25.1100 C   0  0  1  0  0  0  0  0  0  0  0  0
  -25.3450  -31.5240   26.1810 C   0  0  0  0  0  1  0  0  0  0  0  0
  -27.0160  -30.3770   24.7260 C   0  0  0  0  0  1  0  0  0  0  0  0
  -27.5830  -32.5540   25.7720 C   0  0  0  0  0  1  0  0  0  0  0  0
  1  7  2  0
  2  4  1  0
  2  3  1  0
  3  5  1  0
  4  6  1  0
  5  1  1  0
  5 53  1  0
  6 11  1  0
  6  1  1  0
  8  9  1  0
 10 12  1  0
 11  8  2  0
 12 23  1  0
 12  9  2  0
 13 10  2  0
 13 11  1  0
 14 13  1  0
 15 23  1  0
 16 21  1  0
 17 18  1  0
 17 16  1  0
 19 18  1  0
 19 28  1  0
 19 20  1  0
 21 15  1  0
 21 20  1  0
 22 15  2  0
 23 24  1  0
 25 26  2  0
 26 45  1  0
 27 26  1  0
 27 30  1  0
 28 29  1  0
 28 25  1  0
 29 27  2  0
 30 31  1  0
 31 32  2  0
 33 36  1  0
 33 32  1  0
 34 33  2  0
 35 34  1  0
 35 30  2  0
 36 37  1  0
 37 38  1  0
 38 39  2  0
 40 39  1  0
 40 44  1  0
 41 40  2  0
 42 37  2  0
 42 41  1  0
 43 42  1  0
 45 46  1  0
 46 49  1  0
 46 48  1  0
 47 45  2  0
 50 51  1  0
 50 25  1  0
 52 50  1  0
 54 56  1  0
 54 53  1  0
 55 66  2  0
 56 61  1  0
 57 65  1  0
 57 67  1  0
 58 64  1  0
 58 60  1  0
 59 65  1  0
 60 59  1  0
 61 60  2  0
 62 56  2  0
 63 62  1  0
 63 58  2  0
 64 57  1  0
 65 55  1  0
 67 69  2  0
 68 67  1  0
 70 68  1  0
 71 80  2  0
 71 76  1  0
 72 68  1  0
 72 76  1  0
 73 72  1  0
 74 75  1  0
 74 73  1  0
 75 71  1  0
 76 77  2  0
 77 78  1  0
 79 78  2  0
 80 79  1  0
 81 55  1  0
 81 82  1  0
 81 91  1  0
 82 85  1  0
 83 87  1  0
 83 82  1  0
 84 83  2  0
 87 86  1  0
 89 87  1  0
 89 90  1  0
 89 88  1  0
 91 94  1  1
 91 92  1  0
 93 91  1  0
M  ISO  4  15 100  23 100  53 101  54 101
M  END
>  <TORSDO>  (20) 
F 18

>  <SCORE>  (20) 
-14.425

>  <name>  (20) 
19

>  <ligand_id>  (20) 
19

>  <original_smiles>  (20) 
[H]c1c([H])c([H])c2c(c1[H])C([H])([H])C([H])([H])C([H])([H])C2([H])N([H])C(=O)C1([H])N(C(=O)C([H])(N([H])C(=O)C([H])(N([H])C([H])([H])[H])C([H])([H])[H])C(C([H])([H])[H])(C([H])([H])[H])C([H])([H])[H])C([H])([H])c2c([H])c(OC([H])([H])C3([H])C(=O)N(c4c([H])c([H])c(N([H])C(=O)N5C([H])([H])C([H])([H])C([H])([H])C([H])(n6nc(-c7c([H])c([H])c(Oc8c([H])c([H])c(F)c([H])c8F)c([H])c7[H])c(C(=O)N([H])[H])c6N([H])[H])C5([H])[H])c([H])c4F)C([H])([H])C([H])([H])C3([H])[H])c([H])c([H])c2C1([H])[H]

>  <smiles>  (20) 
[H]c1c([H])c([H])c2c(c1[H])C([H])([H])C([H])([H])C([H])([H])C2([H])N([H])C(=O)C1([H])N(C(=O)C([H])(N([H])C(=O)C([H])(N([H])C([H])([H])[H])C([H])([H])[H])C(C([H])([H])[H])(C([H])([H])[H])C([H])([H])[H])C([H])([H])c2c([H])c(OC([H])([H])C3([H])C(=O)N(c4c([H])c([H])c(N([H])C(=O)N5C([H])([H])C([H])([H])C([H])([H])C([H])(n6nc(-c7c([H])c([H])c(Oc8c([H])c([H])c(F)c([H])c8F)c([H])c7[H])c(C(=O)N([H])[H])c6N([H])[H])C5([H])[H])c([H])c4F)C([H])([H])C([H])([H])C3([H])[H])c([H])c([H])c2C1([H])[H]

$$$$
20:0:0
     RDKit          3D

 94103  0  0  1  0  0  0  0  0999 V2000
  -27.6390  -23.0690   22.6470 C   0  0  0  0  0  2  0  0  0  0  0  0
  -28.0880  -24.4540   22.1950 C   0  0  0  0  0  2  0  0  0  0  0  0
  -27.6480  -22.2670   21.3500 C   0  0  0  0  0  2  0  0  0  0  0  0
  -28.9970  -24.2210   20.9680 C   0  0  0  0  0  3  0  0  0  0  0  0
  -28.8450  -22.7330   20.6130 N   0  0  1  0  0  4  0  0  0  0  0  0
  -28.6550  -22.6440   19.6250 H   0  0  0  0  0  0  0  0  0  0  0  0
  -30.0540  -21.8480   20.8880 C   0  0  0  0  0  2  0  0  0  0  0  0
  -29.0650  -19.5540   20.0120 C   0  0  0  0  0  3  0  0  0  0  0  0
  -29.1340  -18.1360   19.8910 C   0  0  0  0  0  3  0  0  0  0  0  0
  -30.9790  -18.0540   21.4280 C   0  0  0  0  0  3  0  0  0  0  0  0
  -29.9690  -20.2710   20.8330 C   0  0  0  0  0  0  0  0  0  0  0  0
  -30.1260  -17.3430   20.5440 C   0  0  0  0  0  0  0  0  0  0  0  0
  -30.9010  -19.4760   21.5640 C   0  0  0  0  0  0  0  0  0  0  0  0
  -31.7910  -20.0950   22.3760 F   0  0  0  0  0  0  0  0  0  0  0  0
  -30.9740  -14.9040   20.7690 C   0  0  0  0  0  0  0  0  0  0  0  0
  -30.8290  -12.5650   19.9470 C   0  0  0  0  0  2  0  0  0  0  0  0
  -29.9870  -12.4840   18.6520 C   0  0  0  0  0  2  0  0  0  0  0  0
  -28.4780  -12.4270   18.9620 C   0  0  0  0  0  2  0  0  0  0  0  0
  -28.0150  -13.4100   20.0730 C   0  0  0  0  0  3  0  0  0  0  0  0
  -28.9840  -13.4190   21.2740 C   0  0  0  0  0  2  0  0  0  0  0  0
  -30.3260  -13.6950   20.7480 N   0  0  0  0  0  0  0  0  0  0  0  0
  -32.2070  -14.9500   20.7790 O   0  0  0  0  0  0  0  0  0  0  0  0
  -30.3680  -15.8280   18.6570 C   0  0  0  0  0  1  0  0  0  0  0  0
  -30.3050  -15.9390   20.1320 N   0  0  0  0  0  0  0  0  0  0  0  0
  -25.5880  -14.0560   20.6110 C   0  0  0  0  0  0  0  0  0  0  0  0
  -24.4830  -13.3030   20.9000 C   0  0  0  0  0  0  0  0  0  0  0  0
  -24.9250  -11.9440   20.9270 C   0  0  0  0  0  0  0  0  0  0  0  0
  -26.6340  -13.1560   20.4730 N   0  0  0  0  0  0  0  0  0  0  0  0
  -26.2360  -11.8840   20.7300 N   0  0  0  0  0  0  0  0  0  0  0  0
  -24.1690  -10.6950   21.0700 C   0  0  0  0  0  0  0  0  0  0  0  0
  -24.5250   -9.7220   22.0300 C   0  0  0  0  0  3  0  0  0  0  0  0
  -23.7700   -8.5370   22.1610 C   0  0  0  0  0  3  0  0  0  0  0  0
  -22.6450   -8.3160   21.3320 C   0  0  0  0  0  0  0  0  0  0  0  0
  -22.3080   -9.2770   20.3620 C   0  0  0  0  0  3  0  0  0  0  0  0
  -23.0640  -10.4540   20.2280 C   0  0  0  0  0  3  0  0  0  0  0  0
  -21.8670   -7.1840   21.3720 O   0  0  0  0  0  0  0  0  0  0  0  0
  -21.7320   -6.4440   22.5200 C   0  0  0  0  0  0  0  0  0  0  0  0
  -21.2360   -7.0080   23.7160 C   0  0  0  0  0  3  0  0  0  0  0  0
  -21.0490   -6.1950   24.8520 C   0  0  0  0  0  3  0  0  0  0  0  0
  -21.3470   -4.8200   24.7920 C   0  0  0  0  0  0  0  0  0  0  0  0
  -21.8360   -4.2570   23.6000 C   0  0  0  0  0  3  0  0  0  0  0  0
  -22.0250   -5.0660   22.4660 C   0  0  0  0  0  0  0  0  0  0  0  0
  -22.4760   -4.5150   21.3140 F   0  0  0  0  0  0  0  0  0  0  0  0
  -21.1590   -4.0370   25.8800 F   0  0  0  0  0  0  0  0  0  0  0  0
  -23.0750  -13.8030   21.0470 C   0  0  0  0  0  0  0  0  0  0  0  0
  -22.2700  -13.1350   21.8660 N   0  0  0  0  0  0  0  0  0  0  0  0
  -22.6940  -14.8210   20.4690 O   0  0  0  0  0  0  0  0  0  0  0  0
  -22.5880  -12.3130   22.3570 H   0  0  0  0  0  0  0  0  0  0  0  0
  -21.3210  -13.4520   22.0070 H   0  0  0  0  0  0  0  0  0  0  0  0
  -25.7900  -15.4220   20.4310 N   0  0  0  0  0  0  0  0  0  0  0  0
  -25.0330  -16.0940   20.4840 H   0  0  0  0  0  0  0  0  0  0  0  0
  -26.6820  -15.8430   20.2080 H   0  0  0  0  0  0  0  0  0  0  0  0
  -28.6250  -25.2710   19.8310 C   0  0  0  0  0  2  0  0  0  0  0  0
  -28.6080  -26.7130   20.1910 O   0  0  0  0  0  0  0  0  0  0  0  0
  -24.6640  -31.9260   23.2100 C   0  0  0  0  0  0  0  0  0  0  0  0
  -27.4420  -27.4940   20.1190 C   0  0  0  0  0  0  0  0  0  0  0  0
  -23.5210  -30.5220   21.5330 C   0  0  0  0  0  3  0  0  0  0  0  0
  -25.0300  -29.0390   20.1020 C   0  0  0  0  0  0  0  0  0  0  0  0
  -26.0530  -30.9120   21.3910 C   0  0  0  0  0  2  0  0  0  0  0  0
  -26.1760  -29.5490   20.7250 C   0  0  0  0  0  0  0  0  0  0  0  0
  -27.3800  -28.7850   20.7280 C   0  0  0  0  0  3  0  0  0  0  0  0
  -26.2730  -27.0480   19.4550 C   0  0  0  0  0  3  0  0  0  0  0  0
  -25.0800  -27.7940   19.4620 C   0  0  0  0  0  3  0  0  0  0  0  0
  -23.7710  -29.8770   20.1460 C   0  0  0  0  0  2  0  0  0  0  0  0
  -24.7640  -31.1380   22.1010 N   0  0  0  0  0  0  0  0  0  0  0  0
  -23.5660  -32.1670   23.7320 O   0  0  0  0  0  0  0  0  0  0  0  0
  -22.8760  -29.4700   22.4660 C   0  0  0  0  0  0  0  0  0  0  0  0
  -21.5510  -29.2830   22.3410 N   0  0  0  0  0  0  0  0  0  0  0  0
  -23.5660  -28.8270   23.2620 O   0  0  0  0  0  0  0  0  0  0  0  0
  -21.0530  -29.8580   21.6760 H   0  0  0  0  0  0  0  0  0  0  0  0
  -18.1790  -28.0830   22.8630 C   0  0  0  0  0  0  0  0  0  0  0  0
  -20.7440  -28.3190   23.0900 C   0  0  0  0  0  3  0  0  0  0  0  0
  -20.8260  -26.9120   22.4550 C   0  0  0  0  0  2  0  0  0  0  0  0
  -19.7010  -26.6350   21.4520 C   0  0  0  0  0  2  0  0  0  0  0  0
  -18.3340  -26.7600   22.1300 C   0  0  0  0  0  2  0  0  0  0  0  0
  -19.3100  -28.8220   23.2990 C   0  0  0  0  0  0  0  0  0  0  0  0
  -19.1110  -30.0600   23.9460 C   0  0  0  0  0  3  0  0  0  0  0  0
  -17.8130  -30.5600   24.1610 C   0  0  0  0  0  3  0  0  0  0  0  0
  -16.6960  -29.8190   23.7400 C   0  0  0  0  0  3  0  0  0  0  0  0
  -16.8800  -28.5810   23.0970 C   0  0  0  0  0  3  0  0  0  0  0  0
  -25.9220  -32.5830   23.8590 C   0  0  0  0  0  3  0  0  0  0  0  0
  -26.4250  -31.8210   25.1460 C   0  0  1  0  0  0  0  0  0  0  0  0
  -25.3130  -31.5610   26.1900 C   0  0  0  0  0  1  0  0  0  0  0  0
  -27.0440  -30.4550   24.7670 C   0  0  0  0  0  1  0  0  0  0  0  0
  -27.5440  -32.6380   25.8330 C   0  0  0  0  0  1  0  0  0  0  0  0
  -25.5780  -33.9750   24.1840 N   0  0  0  0  0  0  0  0  0  0  0  0
  -25.9080  -35.0360   23.4350 C   0  0  0  0  0  0  0  0  0  0  0  0
  -26.6050  -34.9470   22.4200 O   0  0  0  0  0  0  0  0  0  0  0  0
  -24.9600  -34.1160   24.9700 H   0  0  0  0  0  0  0  0  0  0  0  0
  -24.1590  -36.8000   23.0370 C   0  0  0  0  0  1  0  0  0  0  0  0
  -25.3830  -36.4130   23.8830 C   0  0  0  0  0  3  0  0  0  0  0  0
  -27.4750  -37.3330   24.7810 C   0  0  0  0  0  1  0  0  0  0  0  0
  -26.4000  -37.4840   23.8040 N   0  0  0  0  0  0  0  0  0  0  0  0
  -25.9740  -38.3970   23.9420 H   0  0  0  0  0  0  0  0  0  0  0  0
  2  1  1  0
  3  1  1  0
  4 53  1  0
  4  2  1  0
  5  7  1  0
  5  4  1  0
  5  3  1  0
  5  6  1  6
  8 11  1  0
  9  8  2  0
  9 12  1  0
 10 13  1  0
 11  7  1  0
 11 13  2  0
 12 10  2  0
 13 14  1  0
 15 22  2  0
 16 21  1  0
 17 18  1  0
 17 16  1  0
 19 18  1  0
 19 28  1  0
 19 20  1  0
 21 15  1  0
 21 20  1  0
 23 24  1  0
 24 12  1  0
 24 15  1  0
 25 26  2  0
 26 27  1  0
 26 45  1  0
 27 30  1  0
 28 25  1  0
 28 29  1  0
 29 27  2  0
 30 31  1  0
 31 32  2  0
 33 36  1  0
 33 32  1  0
 34 33  2  0
 35 34  1  0
 35 30  2  0
 36 37  1  0
 37 38  1  0
 38 39  2  0
 40 39  1  0
 40 44  1  0
 41 40  2  0
 42 37  2  0
 42 41  1  0
 43 42  1  0
 45 46  1  0
 46 49  1  0
 46 48  1  0
 47 45  2  0
 50 51  1  0
 50 25  1  0
 52 50  1  0
 53 54  1  0
 55 66  2  0
 56 54  1  0
 56 61  1  0
 57 65  1  0
 57 67  1  0
 58 64  1  0
 58 60  1  0
 59 65  1  0
 60 61  2  0
 60 59  1  0
 62 63  1  0
 62 56  2  0
 63 58  2  0
 64 57  1  0
 65 55  1  0
 67 69  2  0
 68 67  1  0
 70 68  1  0
 71 80  2  0
 71 76  1  0
 72 68  1  0
 72 76  1  0
 73 72  1  0
 74 75  1  0
 74 73  1  0
 75 71  1  0
 76 77  2  0
 77 78  1  0
 79 78  2  0
 80 79  1  0
 81 55  1  0
 81 86  1  0
 81 82  1  0
 82 85  1  1
 82 83  1  0
 84 82  1  0
 86 89  1  0
 87 91  1  0
 87 86  1  0
 88 87  2  0
 91 90  1  0
 93 91  1  0
 93 94  1  0
 93 92  1  0
M  ISO  4  15 100  24 100  53 101  54 101
M  END
>  <TORSDO>  (21) 
F 19

>  <SCORE>  (21) 
-13.245

>  <name>  (21) 
20

>  <ligand_id>  (21) 
20

>  <original_smiles>  (21) 
[H]c1c([H])c([H])c2c(c1[H])C([H])([H])C([H])([H])C([H])([H])C2([H])N([H])C(=O)C1([H])N(C(=O)C([H])(N([H])C(=O)C([H])(N([H])C([H])([H])[H])C([H])([H])[H])C(C([H])([H])[H])(C([H])([H])[H])C([H])([H])[H])C([H])([H])c2c([H])c(OC([H])([H])C3([H])C([H])([H])C([H])([H])C([H])([H])[N+]3([H])C([H])([H])c3c([H])c([H])c(N(C(=O)N4C([H])([H])C([H])([H])C([H])([H])C([H])(n5nc(-c6c([H])c([H])c(Oc7c([H])c([H])c(F)c([H])c7F)c([H])c6[H])c(C(=O)N([H])[H])c5N([H])[H])C4([H])[H])C([H])([H])[H])c([H])c3F)c([H])c([H])c2C1([H])[H]

>  <smiles>  (21) 
[H]c1c([H])c([H])c2c(c1[H])C([H])([H])C([H])([H])C([H])([H])C2([H])N([H])C(=O)C1([H])N(C(=O)C([H])(N([H])C(=O)C([H])(N([H])C([H])([H])[H])C([H])([H])[H])C(C([H])([H])[H])(C([H])([H])[H])C([H])([H])[H])C([H])([H])c2c([H])c(OC([H])([H])C3([H])C([H])([H])C([H])([H])C([H])([H])[N+]3([H])C([H])([H])c3c([H])c([H])c(N(C(=O)N4C([H])([H])C([H])([H])C([H])([H])C([H])(n5nc(-c6c([H])c([H])c(Oc7c([H])c([H])c(F)c([H])c7F)c([H])c6[H])c(C(=O)N([H])[H])c5N([H])[H])C4([H])[H])C([H])([H])[H])c([H])c3F)c([H])c([H])c2C1([H])[H]

$$$$
21:0:0
     RDKit          3D

 93102  0  0  1  0  0  0  0  0999 V2000
  -30.6320  -22.3030   19.5350 C   0  0  0  0  0  0  0  0  0  0  0  0
  -30.3070  -23.8030   19.5200 C   0  0  0  0  0  2  0  0  0  0  0  0
  -28.6720  -22.4810   20.6800 C   0  0  0  0  0  2  0  0  0  0  0  0
  -29.1470  -23.9810   20.5040 C   0  0  0  0  0  3  0  0  0  0  0  0
  -29.8030  -21.5820   20.3190 N   0  0  0  0  0  0  0  0  0  0  0  0
  -31.5480  -21.8560   18.8390 O   0  0  0  0  0  0  0  0  0  0  0  0
  -28.6670  -19.3370   20.3050 C   0  0  0  0  0  3  0  0  0  0  0  0
  -28.6690  -17.9140   20.4060 C   0  0  0  0  0  3  0  0  0  0  0  0
  -31.0120  -17.9390   20.9280 C   0  0  0  0  0  3  0  0  0  0  0  0
  -29.8390  -20.1140   20.4970 C   0  0  0  0  0  0  0  0  0  0  0  0
  -29.8450  -17.1720   20.6900 C   0  0  0  0  0  0  0  0  0  0  0  0
  -31.0110  -19.3690   20.8680 C   0  0  0  0  0  0  0  0  0  0  0  0
  -32.4720  -20.1520   21.3690 Cl  0  0  0  0  0  0  0  0  0  0  0  0
  -30.5860  -14.6900   20.4600 C   0  0  0  0  0  0  0  0  0  0  0  0
  -30.3930  -12.4600   19.3800 C   0  0  0  0  0  2  0  0  0  0  0  0
  -29.4420  -12.6000   18.1690 C   0  0  0  0  0  2  0  0  0  0  0  0
  -27.9700  -12.4340   18.5990 C   0  0  0  0  0  2  0  0  0  0  0  0
  -27.6130  -13.2870   19.8450 C   0  0  0  0  0  3  0  0  0  0  0  0
  -28.6750  -13.1160   20.9550 C   0  0  0  0  0  2  0  0  0  0  0  0
  -29.9830  -13.4650   20.3800 N   0  0  0  0  0  0  0  0  0  0  0  0
  -31.7470  -14.8690   20.0790 O   0  0  0  0  0  0  0  0  0  0  0  0
  -29.7490  -15.7190   20.8000 N   0  0  0  0  0  0  0  0  0  0  0  0
  -28.8260  -15.3800   21.0210 H   0  0  0  0  0  0  0  0  0  0  0  0
  -25.2220  -13.8850   20.5760 C   0  0  0  0  0  0  0  0  0  0  0  0
  -24.1540  -13.1100   20.9400 C   0  0  0  0  0  0  0  0  0  0  0  0
  -24.6110  -11.7580   20.8850 C   0  0  0  0  0  0  0  0  0  0  0  0
  -26.2630  -13.0040   20.3280 N   0  0  0  0  0  0  0  0  0  0  0  0
  -25.9010  -11.7200   20.5720 N   0  0  0  0  0  0  0  0  0  0  0  0
  -23.8810  -10.4960   21.0570 C   0  0  0  0  0  0  0  0  0  0  0  0
  -24.3000   -9.5210   21.9900 C   0  0  0  0  0  3  0  0  0  0  0  0
  -23.5700   -8.3230   22.1510 C   0  0  0  0  0  3  0  0  0  0  0  0
  -22.4060   -8.0930   21.3790 C   0  0  0  0  0  0  0  0  0  0  0  0
  -22.0050   -9.0570   20.4370 C   0  0  0  0  0  3  0  0  0  0  0  0
  -22.7360  -10.2450   20.2740 C   0  0  0  0  0  3  0  0  0  0  0  0
  -21.6500   -6.9500   21.4500 O   0  0  0  0  0  0  0  0  0  0  0  0
  -21.5690   -6.2100   22.6030 C   0  0  0  0  0  0  0  0  0  0  0  0
  -21.0610   -6.7520   23.8030 C   0  0  0  0  0  3  0  0  0  0  0  0
  -20.9300   -5.9380   24.9450 C   0  0  0  0  0  3  0  0  0  0  0  0
  -21.2990   -4.5810   24.8870 C   0  0  0  0  0  0  0  0  0  0  0  0
  -21.8000   -4.0360   23.6930 C   0  0  0  0  0  3  0  0  0  0  0  0
  -21.9330   -4.8490   22.5520 C   0  0  0  0  0  0  0  0  0  0  0  0
  -22.3980   -4.3140   21.3970 F   0  0  0  0  0  0  0  0  0  0  0  0
  -21.1640   -3.7950   25.9810 F   0  0  0  0  0  0  0  0  0  0  0  0
  -22.7590  -13.5880   21.2250 C   0  0  0  0  0  0  0  0  0  0  0  0
  -22.0300  -12.8850   22.0840 N   0  0  0  0  0  0  0  0  0  0  0  0
  -22.3240  -14.6240   20.7210 O   0  0  0  0  0  0  0  0  0  0  0  0
  -22.3940  -12.0490   22.5150 H   0  0  0  0  0  0  0  0  0  0  0  0
  -21.0950  -13.1900   22.3150 H   0  0  0  0  0  0  0  0  0  0  0  0
  -25.3860  -15.2580   20.4140 N   0  0  0  0  0  0  0  0  0  0  0  0
  -24.5990  -15.8930   20.4990 H   0  0  0  0  0  0  0  0  0  0  0  0
  -26.1970  -15.6890   19.9930 H   0  0  0  0  0  0  0  0  0  0  0  0
  -28.0590  -25.0630   20.0800 C   0  0  0  0  0  2  0  0  0  0  0  0
  -28.3120  -26.5170   20.2300 O   0  0  0  0  0  0  0  0  0  0  0  0
  -24.5390  -31.8790   23.2460 C   0  0  0  0  0  0  0  0  0  0  0  0
  -27.1980  -27.3730   20.1610 C   0  0  0  0  0  0  0  0  0  0  0  0
  -23.3580  -30.5010   21.5730 C   0  0  0  0  0  3  0  0  0  0  0  0
  -24.8300  -28.9810   20.1420 C   0  0  0  0  0  0  0  0  0  0  0  0
  -25.8980  -30.8320   21.4220 C   0  0  0  0  0  2  0  0  0  0  0  0
  -25.9910  -29.4630   20.7590 C   0  0  0  0  0  0  0  0  0  0  0  0
  -27.1780  -28.6720   20.7590 C   0  0  0  0  0  3  0  0  0  0  0  0
  -26.0130  -26.9510   19.5120 C   0  0  0  0  0  3  0  0  0  0  0  0
  -24.8430  -27.7320   19.5080 C   0  0  0  0  0  3  0  0  0  0  0  0
  -23.5900  -29.8500   20.1850 C   0  0  0  0  0  2  0  0  0  0  0  0
  -24.6160  -31.0860   22.1390 N   0  0  0  0  0  0  0  0  0  0  0  0
  -23.4480  -32.1450   23.7730 O   0  0  0  0  0  0  0  0  0  0  0  0
  -22.6880  -29.4660   22.5100 C   0  0  0  0  0  0  0  0  0  0  0  0
  -21.3650  -29.2830   22.3610 N   0  0  0  0  0  0  0  0  0  0  0  0
  -23.3580  -28.8350   23.3310 O   0  0  0  0  0  0  0  0  0  0  0  0
  -20.8830  -29.8460   21.6740 H   0  0  0  0  0  0  0  0  0  0  0  0
  -17.9840  -28.0820   22.8160 C   0  0  0  0  0  0  0  0  0  0  0  0
  -20.5390  -28.3330   23.1100 C   0  0  0  0  0  3  0  0  0  0  0  0
  -20.6440  -26.9110   22.5110 C   0  0  0  0  0  2  0  0  0  0  0  0
  -19.5500  -26.6070   21.4830 C   0  0  0  0  0  2  0  0  0  0  0  0
  -18.1630  -26.7440   22.1190 C   0  0  0  0  0  2  0  0  0  0  0  0
  -19.1000  -28.8350   23.2680 C   0  0  0  0  0  0  0  0  0  0  0  0
  -18.8780  -30.0870   23.8800 C   0  0  0  0  0  3  0  0  0  0  0  0
  -17.5710  -30.5870   24.0430 C   0  0  0  0  0  3  0  0  0  0  0  0
  -16.4700  -29.8310   23.6060 C   0  0  0  0  0  3  0  0  0  0  0  0
  -16.6760  -28.5800   22.9990 C   0  0  0  0  0  3  0  0  0  0  0  0
  -25.8130  -32.5070   23.8920 C   0  0  0  0  0  3  0  0  0  0  0  0
  -25.5060  -33.9090   24.2090 N   0  0  0  0  0  0  0  0  0  0  0  0
  -25.8370  -34.9530   23.4370 C   0  0  0  0  0  0  0  0  0  0  0  0
  -26.5040  -34.8380   22.4050 O   0  0  0  0  0  0  0  0  0  0  0  0
  -24.9160  -34.0740   25.0100 H   0  0  0  0  0  0  0  0  0  0  0  0
  -24.1090  -36.7440   23.0690 C   0  0  0  0  0  1  0  0  0  0  0  0
  -25.3530  -36.3480   23.8810 C   0  0  0  0  0  3  0  0  0  0  0  0
  -27.4870  -37.2460   24.7010 C   0  0  0  0  0  1  0  0  0  0  0  0
  -26.3870  -37.3980   23.7520 N   0  0  0  0  0  0  0  0  0  0  0  0
  -25.9800  -38.3200   23.8860 H   0  0  0  0  0  0  0  0  0  0  0  0
  -26.2970  -31.7380   25.1820 C   0  0  1  0  0  0  0  0  0  0  0  0
  -25.1800  -31.5080   26.2260 C   0  0  0  0  0  1  0  0  0  0  0  0
  -26.8850  -30.3580   24.8070 C   0  0  0  0  0  1  0  0  0  0  0  0
  -27.4340  -32.5300   25.8670 C   0  0  0  0  0  1  0  0  0  0  0  0
  1  5  1  0
  2  1  1  0
  2  4  1  0
  4 52  1  0
  4  3  1  0
  5 10  1  0
  5  3  1  0
  6  1  2  0
  7  8  2  0
  7 10  1  0
  8 11  1  0
 10 12  2  0
 11 22  1  0
 11  9  2  0
 12  9  1  0
 12 13  1  0
 14 22  1  0
 15 20  1  0
 16 17  1  0
 16 15  1  0
 18 17  1  0
 18 27  1  0
 18 19  1  0
 20 14  1  0
 20 19  1  0
 21 14  2  0
 22 23  1  0
 24 25  2  0
 25 44  1  0
 26 25  1  0
 26 29  1  0
 27 28  1  0
 27 24  1  0
 28 26  2  0
 29 30  1  0
 30 31  2  0
 32 35  1  0
 32 31  1  0
 33 32  2  0
 34 33  1  0
 34 29  2  0
 35 36  1  0
 36 37  1  0
 37 38  2  0
 39 38  1  0
 39 43  1  0
 40 39  2  0
 41 36  2  0
 41 40  1  0
 42 41  1  0
 44 45  1  0
 45 48  1  0
 45 47  1  0
 46 44  2  0
 49 50  1  0
 49 24  1  0
 51 49  1  0
 52 53  1  0
 54 65  2  0
 55 53  1  0
 55 60  1  0
 56 64  1  0
 56 66  1  0
 57 63  1  0
 57 59  1  0
 58 64  1  0
 59 58  1  0
 60 59  2  0
 61 55  2  0
 62 61  1  0
 62 57  2  0
 63 56  1  0
 64 54  1  0
 66 68  2  0
 67 66  1  0
 69 67  1  0
 70 79  2  0
 70 75  1  0
 71 67  1  0
 71 75  1  0
 72 71  1  0
 73 74  1  0
 73 72  1  0
 74 70  1  0
 75 76  2  0
 76 77  1  0
 78 77  2  0
 79 78  1  0
 80 54  1  0
 80 81  1  0
 80 90  1  0
 81 84  1  0
 82 86  1  0
 82 81  1  0
 83 82  2  0
 86 85  1  0
 88 86  1  0
 88 89  1  0
 88 87  1  0
 90 93  1  1
 90 91  1  0
 92 90  1  0
M  ISO  4  14 100  22 100  52 101  53 101
M  END
>  <TORSDO>  (22) 
F 18

>  <SCORE>  (22) 
-15.069

>  <name>  (22) 
21

>  <ligand_id>  (22) 
21

>  <original_smiles>  (22) 
[H]c1c([H])c([H])c2c(c1[H])C([H])([H])C([H])([H])C([H])([H])C2([H])N([H])C(=O)C1([H])N(C(=O)C([H])(N([H])C(=O)C([H])(N([H])C([H])([H])[H])C([H])([H])[H])C(C([H])([H])[H])(C([H])([H])[H])C([H])([H])[H])C([H])([H])c2c([H])c(OC([H])([H])C3([H])C([H])([H])C(=O)N(c4c([H])c([H])c(N([H])C(=O)N5C([H])([H])C([H])([H])C([H])([H])C([H])(n6nc(-c7c([H])c([H])c(Oc8c([H])c([H])c(F)c([H])c8F)c([H])c7[H])c(C(=O)N([H])[H])c6N([H])[H])C5([H])[H])c([H])c4Cl)C3([H])[H])c([H])c([H])c2C1([H])[H]

>  <smiles>  (22) 
[H]c1c([H])c([H])c2c(c1[H])C([H])([H])C([H])([H])C([H])([H])C2([H])N([H])C(=O)C1([H])N(C(=O)C([H])(N([H])C(=O)C([H])(N([H])C([H])([H])[H])C([H])([H])[H])C(C([H])([H])[H])(C([H])([H])[H])C([H])([H])[H])C([H])([H])c2c([H])c(OC([H])([H])C3([H])C([H])([H])C(=O)N(c4c([H])c([H])c(N([H])C(=O)N5C([H])([H])C([H])([H])C([H])([H])C([H])(n6nc(-c7c([H])c([H])c(Oc8c([H])c([H])c(F)c([H])c8F)c([H])c7[H])c(C(=O)N([H])[H])c6N([H])[H])C5([H])[H])c([H])c4Cl)C3([H])[H])c([H])c([H])c2C1([H])[H]

$$$$
22:0:0
     RDKit          3D

 92100  0  0  1  0  0  0  0  0999 V2000
  -28.7920  -18.8220   20.2850 C   0  0  0  0  0  3  0  0  0  0  0  0
  -30.4660  -21.0590   20.0320 C   0  0  0  0  0  3  0  0  0  0  0  0
  -30.1520  -18.5750   19.9620 C   0  0  0  0  0  0  0  0  0  0  0  0
  -29.1130  -21.2940   20.3670 C   0  0  0  0  0  0  0  0  0  0  0  0
  -28.2930  -20.1400   20.4930 C   0  0  0  0  0  0  0  0  0  0  0  0
  -30.9740  -19.7410   19.8310 C   0  0  0  0  0  0  0  0  0  0  0  0
  -26.9820  -20.2990   20.8060 F   0  0  0  0  0  0  0  0  0  0  0  0
  -32.6410  -19.6110   19.3860 Cl  0  0  0  0  0  0  0  0  0  0  0  0
  -28.5430  -22.5920   20.5900 N   0  0  0  0  0  0  0  0  0  0  0  0
  -27.5450  -22.5730   20.7860 H   0  0  0  0  0  0  0  0  0  0  0  0
  -29.0970  -23.9140   20.1720 C   0  0  0  0  0  2  0  0  0  0  0  0
  -28.2580  -25.1600   20.6910 C   0  0  0  0  0  2  0  0  0  0  0  0
  -28.5510  -26.5210   20.1930 O   0  0  0  0  0  0  0  0  0  0  0  0
  -24.6410  -31.8110   23.1180 C   0  0  0  0  0  0  0  0  0  0  0  0
  -27.4450  -27.3700   20.1060 C   0  0  0  0  0  0  0  0  0  0  0  0
  -23.5280  -30.4220   21.4090 C   0  0  0  0  0  3  0  0  0  0  0  0
  -25.0620  -28.9300   20.0140 C   0  0  0  0  0  0  0  0  0  0  0  0
  -26.0660  -30.7910   21.3360 C   0  0  0  0  0  2  0  0  0  0  0  0
  -26.1950  -29.4290   20.6700 C   0  0  0  0  0  0  0  0  0  0  0  0
  -27.3940  -28.6610   20.7070 C   0  0  0  0  0  3  0  0  0  0  0  0
  -26.3020  -26.9290   19.4030 C   0  0  0  0  0  3  0  0  0  0  0  0
  -25.1170  -27.6840   19.3700 C   0  0  0  0  0  3  0  0  0  0  0  0
  -23.8090  -29.7820   20.0260 C   0  0  0  0  0  2  0  0  0  0  0  0
  -24.7620  -31.0240   22.0120 N   0  0  0  0  0  0  0  0  0  0  0  0
  -23.5310  -32.0600   23.6120 O   0  0  0  0  0  0  0  0  0  0  0  0
  -22.8470  -29.3740   22.3210 C   0  0  0  0  0  0  0  0  0  0  0  0
  -21.5180  -29.2270   22.1910 N   0  0  0  0  0  0  0  0  0  0  0  0
  -23.5150  -28.6980   23.1090 O   0  0  0  0  0  0  0  0  0  0  0  0
  -21.0390  -29.8280   21.5370 H   0  0  0  0  0  0  0  0  0  0  0  0
  -18.1070  -28.1520   22.7310 C   0  0  0  0  0  0  0  0  0  0  0  0
  -20.6820  -28.2740   22.9220 C   0  0  0  0  0  3  0  0  0  0  0  0
  -20.6950  -26.8820   22.2480 C   0  0  0  0  0  2  0  0  0  0  0  0
  -19.5460  -26.6840   21.2540 C   0  0  0  0  0  2  0  0  0  0  0  0
  -18.1950  -26.8460   21.9570 C   0  0  0  0  0  2  0  0  0  0  0  0
  -19.2750  -28.8290   23.1710 C   0  0  0  0  0  0  0  0  0  0  0  0
  -19.1400  -30.0570   23.8550 C   0  0  0  0  0  3  0  0  0  0  0  0
  -17.8680  -30.6030   24.1060 C   0  0  0  0  0  3  0  0  0  0  0  0
  -16.7150  -29.9220   23.6800 C   0  0  0  0  0  3  0  0  0  0  0  0
  -16.8340  -28.6990   22.9970 C   0  0  0  0  0  3  0  0  0  0  0  0
  -25.8860  -32.4560   23.8000 C   0  0  0  0  0  3  0  0  0  0  0  0
  -26.3650  -31.6780   25.0880 C   0  0  1  0  0  0  0  0  0  0  0  0
  -25.2340  -31.4030   26.1070 C   0  0  0  0  0  1  0  0  0  0  0  0
  -26.9960  -30.3180   24.7090 C   0  0  0  0  0  1  0  0  0  0  0  0
  -27.4690  -32.4890   25.8070 C   0  0  0  0  0  1  0  0  0  0  0  0
  -25.5340  -33.8440   24.1340 N   0  0  0  0  0  0  0  0  0  0  0  0
  -25.8630  -34.9140   23.3950 C   0  0  0  0  0  0  0  0  0  0  0  0
  -26.5640  -34.8370   22.3820 O   0  0  0  0  0  0  0  0  0  0  0  0
  -24.9110  -33.9760   24.9170 H   0  0  0  0  0  0  0  0  0  0  0  0
  -24.1050  -36.6750   23.0150 C   0  0  0  0  0  1  0  0  0  0  0  0
  -25.3330  -36.2860   23.8530 C   0  0  0  0  0  3  0  0  0  0  0  0
  -27.4200  -37.2140   24.7550 C   0  0  0  0  0  1  0  0  0  0  0  0
  -26.3420  -37.3650   23.7820 N   0  0  0  0  0  0  0  0  0  0  0  0
  -25.9080  -38.2730   23.9290 H   0  0  0  0  0  0  0  0  0  0  0  0
  -30.7150  -17.1340   19.6330 C   0  0  0  0  0  2  0  0  0  0  0  0
  -30.9900  -14.6750   20.0260 C   0  0  0  0  0  0  0  0  0  0  0  0
  -30.6000  -12.5030   18.8880 C   0  0  0  0  0  2  0  0  0  0  0  0
  -29.5770  -12.6970   17.7480 C   0  0  0  0  0  2  0  0  0  0  0  0
  -28.1360  -12.5470   18.2730 C   0  0  0  0  0  2  0  0  0  0  0  0
  -27.8880  -13.3510   19.5790 C   0  0  0  0  0  3  0  0  0  0  0  0
  -29.0230  -13.1220   20.5990 C   0  0  0  0  0  2  0  0  0  0  0  0
  -30.2850  -13.4970   19.9390 N   0  0  0  0  0  0  0  0  0  0  0  0
  -32.1160  -14.7410   19.5230 O   0  0  0  0  0  0  0  0  0  0  0  0
  -29.7990  -16.0310   21.7040 C   0  0  0  0  0  1  0  0  0  0  0  0
  -30.3340  -15.8530   20.3510 N   0  0  0  0  0  0  0  0  0  0  0  0
  -25.5570  -13.9430   20.4840 C   0  0  0  0  0  0  0  0  0  0  0  0
  -24.5080  -13.1650   20.8940 C   0  0  0  0  0  0  0  0  0  0  0  0
  -24.9490  -11.8110   20.7760 C   0  0  0  0  0  0  0  0  0  0  0  0
  -26.5730  -13.0620   20.1460 N   0  0  0  0  0  0  0  0  0  0  0  0
  -26.2150  -11.7730   20.3770 N   0  0  0  0  0  0  0  0  0  0  0  0
  -24.2200  -10.5490   20.9640 C   0  0  0  0  0  0  0  0  0  0  0  0
  -24.6520   -9.5780   21.8940 C   0  0  0  0  0  3  0  0  0  0  0  0
  -23.9210   -8.3830   22.0710 C   0  0  0  0  0  3  0  0  0  0  0  0
  -22.7470   -8.1500   21.3170 C   0  0  0  0  0  0  0  0  0  0  0  0
  -22.3350   -9.1100   20.3760 C   0  0  0  0  0  3  0  0  0  0  0  0
  -23.0660  -10.2960   20.1970 C   0  0  0  0  0  3  0  0  0  0  0  0
  -21.9890   -7.0080   21.4040 O   0  0  0  0  0  0  0  0  0  0  0  0
  -21.8760   -6.3070   22.5770 C   0  0  0  0  0  0  0  0  0  0  0  0
  -21.3420   -6.8920   23.7450 C   0  0  0  0  0  3  0  0  0  0  0  0
  -21.1790   -6.1160   24.9110 C   0  0  0  0  0  3  0  0  0  0  0  0
  -21.5380   -4.7550   24.9070 C   0  0  0  0  0  0  0  0  0  0  0  0
  -22.0650   -4.1690   23.7420 C   0  0  0  0  0  3  0  0  0  0  0  0
  -22.2290   -4.9430   22.5800 C   0  0  0  0  0  0  0  0  0  0  0  0
  -22.7170   -4.3670   21.4540 F   0  0  0  0  0  0  0  0  0  0  0  0
  -21.3760   -4.0070   26.0240 F   0  0  0  0  0  0  0  0  0  0  0  0
  -23.1390  -13.6450   21.2820 C   0  0  0  0  0  0  0  0  0  0  0  0
  -22.4620  -12.9200   22.1670 N   0  0  0  0  0  0  0  0  0  0  0  0
  -22.6780  -14.6950   20.8340 O   0  0  0  0  0  0  0  0  0  0  0  0
  -22.8500  -12.0710   22.5510 H   0  0  0  0  0  0  0  0  0  0  0  0
  -21.5450  -13.2200   22.4670 H   0  0  0  0  0  0  0  0  0  0  0  0
  -25.7260  -15.3180   20.3520 N   0  0  0  0  0  0  0  0  0  0  0  0
  -24.9750  -15.9720   20.5420 H   0  0  0  0  0  0  0  0  0  0  0  0
  -26.5590  -15.7630   19.9900 H   0  0  0  0  0  0  0  0  0  0  0  0
  1  5  1  0
  2  4  1  0
  3  1  2  0
  4  5  2  0
  4  9  1  0
  5  7  1  0
  6  3  1  0
  6  2  2  0
  8  6  1  0
  9 10  1  0
 11  9  1  0
 11 12  1  0
 13 12  1  0
 14 25  2  0
 15 13  1  0
 15 20  1  0
 16 24  1  0
 16 26  1  0
 17 23  1  0
 17 19  1  0
 18 24  1  0
 19 20  2  0
 19 18  1  0
 21 15  2  0
 22 21  1  0
 22 17  2  0
 23 16  1  0
 24 14  1  0
 26 28  2  0
 27 26  1  0
 29 27  1  0
 30 39  2  0
 30 35  1  0
 31 27  1  0
 31 35  1  0
 32 31  1  0
 33 34  1  0
 33 32  1  0
 34 30  1  0
 35 36  2  0
 36 37  1  0
 38 37  2  0
 39 38  1  0
 40 14  1  0
 40 45  1  0
 40 41  1  0
 41 44  1  1
 41 42  1  0
 43 41  1  0
 45 48  1  0
 46 50  1  0
 46 45  1  0
 47 46  2  0
 50 49  1  0
 52 50  1  0
 52 53  1  0
 52 51  1  0
 54  3  1  0
 54 64  1  0
 55 64  1  0
 56 61  1  0
 57 58  1  0
 57 56  1  0
 59 58  1  0
 59 68  1  0
 59 60  1  0
 61 55  1  0
 61 60  1  0
 62 55  2  0
 64 63  1  0
 65 66  2  0
 66 85  1  0
 67 66  1  0
 67 70  1  0
 68 69  1  0
 68 65  1  0
 69 67  2  0
 70 71  1  0
 71 72  2  0
 73 76  1  0
 73 72  1  0
 74 73  2  0
 75 74  1  0
 75 70  2  0
 76 77  1  0
 77 82  2  0
 77 78  1  0
 78 79  2  0
 80 79  1  0
 80 84  1  0
 81 80  2  0
 82 81  1  0
 83 82  1  0
 85 86  1  0
 86 89  1  0
 86 88  1  0
 87 85  2  0
 90 65  1  0
 90 91  1  0
 92 90  1  0
M  ISO  4  12 101  13 101  55 100  64 100
M  END
>  <TORSDO>  (23) 
F 20

>  <SCORE>  (23) 
-12.926

>  <name>  (23) 
22

>  <ligand_id>  (23) 
22

>  <original_smiles>  (23) 
[H]c1c([H])c([H])c2c(c1[H])C([H])([H])C([H])([H])C([H])([H])C2([H])N([H])C(=O)C1([H])N(C(=O)C([H])(N([H])C(=O)C([H])(N([H])C([H])([H])[H])C([H])([H])[H])C(C([H])([H])[H])(C([H])([H])[H])C([H])([H])[H])C([H])([H])c2c([H])c(OC([H])([H])C([H])([H])N([H])c3c([H])c(Cl)c(C([H])([H])N(C(=O)N4C([H])([H])C([H])([H])C([H])([H])C([H])(n5nc(-c6c([H])c([H])c(Oc7c([H])c([H])c(F)c([H])c7F)c([H])c6[H])c(C(=O)N([H])[H])c5N([H])[H])C4([H])[H])C([H])([H])[H])c([H])c3F)c([H])c([H])c2C1([H])[H]

>  <smiles>  (23) 
[H]c1c([H])c([H])c2c(c1[H])C([H])([H])C([H])([H])C([H])([H])C2([H])N([H])C(=O)C1([H])N(C(=O)C([H])(N([H])C(=O)C([H])(N([H])C([H])([H])[H])C([H])([H])[H])C(C([H])([H])[H])(C([H])([H])[H])C([H])([H])[H])C([H])([H])c2c([H])c(OC([H])([H])C([H])([H])N([H])c3c([H])c(Cl)c(C([H])([H])N(C(=O)N4C([H])([H])C([H])([H])C([H])([H])C([H])(n5nc(-c6c([H])c([H])c(Oc7c([H])c([H])c(F)c([H])c7F)c([H])c6[H])c(C(=O)N([H])[H])c5N([H])[H])C4([H])[H])C([H])([H])[H])c([H])c3F)c([H])c([H])c2C1([H])[H]

$$$$
23:0:0
     RDKit          3D

 95104  0  0  1  0  0  0  0  0999 V2000
  -28.4460  -22.8290   21.0260 C   0  0  0  0  0  0  0  0  0  0  0  0
  -28.8140  -23.2020   19.0520 C   0  0  0  0  0  2  0  0  0  0  0  0
  -28.0400  -24.0130   20.1090 C   0  0  1  0  0  0  0  0  0  0  0  0
  -26.4930  -23.9790   20.0010 C   0  0  0  0  0  1  0  0  0  0  0  0
  -28.6750  -22.0280   19.9270 N   0  0  0  0  0  0  0  0  0  0  0  0
  -28.3860  -22.5720   22.2110 O   0  0  0  0  0  0  0  0  0  0  0  0
  -28.1750  -20.6810   19.6390 C   0  0  0  0  0  2  0  0  0  0  0  0
  -29.1560  -18.4730   18.8560 C   0  0  0  0  0  3  0  0  0  0  0  0
  -30.1800  -17.9190   21.4070 C   0  0  0  0  0  3  0  0  0  0  0  0
  -29.0680  -19.4600   19.8620 C   0  0  0  0  0  0  0  0  0  0  0  0
  -30.1890  -16.8960   20.4300 C   0  0  0  0  0  0  0  0  0  0  0  0
  -29.6940  -17.1990   19.1330 C   0  0  0  0  0  0  0  0  0  0  0  0
  -29.6200  -19.1850   21.1320 C   0  0  0  0  0  0  0  0  0  0  0  0
  -29.6270  -16.2520   18.1670 F   0  0  0  0  0  0  0  0  0  0  0  0
  -29.5380  -20.1030   22.1250 F   0  0  0  0  0  0  0  0  0  0  0  0
  -31.1530  -14.6230   20.1140 C   0  0  0  0  0  0  0  0  0  0  0  0
  -30.8760  -12.3900   19.1020 C   0  0  0  0  0  2  0  0  0  0  0  0
  -29.9000  -12.5050   17.9120 C   0  0  0  0  0  2  0  0  0  0  0  0
  -28.4400  -12.3620   18.3860 C   0  0  0  0  0  2  0  0  0  0  0  0
  -28.1180  -13.2780   19.5960 C   0  0  0  0  0  3  0  0  0  0  0  0
  -29.1990  -13.1340   20.6920 C   0  0  0  0  0  2  0  0  0  0  0  0
  -30.5150  -13.4200   20.0880 N   0  0  0  0  0  0  0  0  0  0  0  0
  -32.2080  -14.8430   19.5100 O   0  0  0  0  0  0  0  0  0  0  0  0
  -30.5510  -15.5740   20.8460 N   0  0  0  0  0  0  0  0  0  0  0  0
  -29.9730  -15.2080   21.5870 H   0  0  0  0  0  0  0  0  0  0  0  0
  -25.7600  -13.9100   20.4230 C   0  0  0  0  0  0  0  0  0  0  0  0
  -24.6940  -13.1470   20.8190 C   0  0  0  0  0  0  0  0  0  0  0  0
  -25.1260  -11.7890   20.7260 C   0  0  0  0  0  0  0  0  0  0  0  0
  -26.7780  -13.0170   20.1220 N   0  0  0  0  0  0  0  0  0  0  0  0
  -26.4000  -11.7350   20.3580 N   0  0  0  0  0  0  0  0  0  0  0  0
  -24.3840  -10.5350   20.9130 C   0  0  0  0  0  0  0  0  0  0  0  0
  -24.7590   -9.5940   21.8980 C   0  0  0  0  0  3  0  0  0  0  0  0
  -24.0200   -8.4030   22.0680 C   0  0  0  0  0  3  0  0  0  0  0  0
  -22.8910   -8.1450   21.2560 C   0  0  0  0  0  0  0  0  0  0  0  0
  -22.5350   -9.0740   20.2620 C   0  0  0  0  0  3  0  0  0  0  0  0
  -23.2750  -10.2560   20.0890 C   0  0  0  0  0  3  0  0  0  0  0  0
  -22.1290   -7.0050   21.3340 O   0  0  0  0  0  0  0  0  0  0  0  0
  -21.9010   -6.3720   22.5290 C   0  0  0  0  0  0  0  0  0  0  0  0
  -21.2830   -7.0300   23.6160 C   0  0  0  0  0  3  0  0  0  0  0  0
  -21.0070   -6.3210   24.8020 C   0  0  0  0  0  3  0  0  0  0  0  0
  -21.3370   -4.9560   24.9010 C   0  0  0  0  0  0  0  0  0  0  0  0
  -21.9470   -4.2980   23.8190 C   0  0  0  0  0  3  0  0  0  0  0  0
  -22.2250   -5.0040   22.6350 C   0  0  0  0  0  0  0  0  0  0  0  0
  -22.7940   -4.3600   21.5880 F   0  0  0  0  0  0  0  0  0  0  0  0
  -21.0640   -4.2740   26.0380 F   0  0  0  0  0  0  0  0  0  0  0  0
  -23.3200  -13.6410   21.1710 C   0  0  0  0  0  0  0  0  0  0  0  0
  -22.6390  -12.9580   22.0860 N   0  0  0  0  0  0  0  0  0  0  0  0
  -22.8610  -14.6670   20.6700 O   0  0  0  0  0  0  0  0  0  0  0  0
  -23.0230  -12.1290   22.5140 H   0  0  0  0  0  0  0  0  0  0  0  0
  -21.7180  -13.2700   22.3620 H   0  0  0  0  0  0  0  0  0  0  0  0
  -25.9450  -15.2820   20.2790 N   0  0  0  0  0  0  0  0  0  0  0  0
  -25.1950  -15.9470   20.4350 H   0  0  0  0  0  0  0  0  0  0  0  0
  -26.7920  -15.7120   19.9300 H   0  0  0  0  0  0  0  0  0  0  0  0
  -28.5710  -25.4040   20.5900 C   0  0  0  0  0  2  0  0  0  0  0  0
  -28.6260  -26.8120   20.1900 O   0  0  0  0  0  0  0  0  0  0  0  0
  -24.6200  -31.8860   23.2560 C   0  0  0  0  0  0  0  0  0  0  0  0
  -27.4490  -27.5560   20.1700 C   0  0  0  0  0  0  0  0  0  0  0  0
  -23.4980  -30.4910   21.5520 C   0  0  0  0  0  3  0  0  0  0  0  0
  -25.0270  -29.0210   20.1400 C   0  0  0  0  0  0  0  0  0  0  0  0
  -26.0220  -30.9040   21.4440 C   0  0  0  0  0  2  0  0  0  0  0  0
  -26.1560  -29.5470   20.7820 C   0  0  0  0  0  0  0  0  0  0  0  0
  -27.3720  -28.8210   20.8000 C   0  0  0  0  0  3  0  0  0  0  0  0
  -26.3130  -27.0720   19.4880 C   0  0  0  0  0  3  0  0  0  0  0  0
  -25.1010  -27.7790   19.4910 C   0  0  0  0  0  3  0  0  0  0  0  0
  -23.7640  -29.8500   20.1650 C   0  0  0  0  0  2  0  0  0  0  0  0
  -24.7290  -31.1070   22.1430 N   0  0  0  0  0  0  0  0  0  0  0  0
  -23.5160  -32.1220   23.7670 O   0  0  0  0  0  0  0  0  0  0  0  0
  -22.8410  -29.4340   22.4700 C   0  0  0  0  0  0  0  0  0  0  0  0
  -21.5220  -29.2380   22.3110 N   0  0  0  0  0  0  0  0  0  0  0  0
  -23.5160  -28.7940   23.2790 O   0  0  0  0  0  0  0  0  0  0  0  0
  -21.0380  -29.8080   21.6310 H   0  0  0  0  0  0  0  0  0  0  0  0
  -18.1490  -28.0240   22.7450 C   0  0  0  0  0  0  0  0  0  0  0  0
  -20.7040  -28.2660   23.0350 C   0  0  0  0  0  3  0  0  0  0  0  0
  -20.8090  -26.8640   22.3930 C   0  0  0  0  0  2  0  0  0  0  0  0
  -19.7090  -26.5900   21.3630 C   0  0  0  0  0  2  0  0  0  0  0  0
  -18.3270  -26.7030   22.0150 C   0  0  0  0  0  2  0  0  0  0  0  0
  -19.2650  -28.7660   23.2110 C   0  0  0  0  0  0  0  0  0  0  0  0
  -19.0460  -30.0040   23.8500 C   0  0  0  0  0  3  0  0  0  0  0  0
  -17.7420  -30.5010   24.0310 C   0  0  0  0  0  3  0  0  0  0  0  0
  -16.6390  -29.7550   23.5820 C   0  0  0  0  0  3  0  0  0  0  0  0
  -16.8430  -28.5180   22.9450 C   0  0  0  0  0  3  0  0  0  0  0  0
  -25.8720  -32.5330   23.9260 C   0  0  0  0  0  3  0  0  0  0  0  0
  -26.3420  -31.7760   25.2290 C   0  0  1  0  0  0  0  0  0  0  0  0
  -25.2050  -31.5210   26.2460 C   0  0  0  0  0  1  0  0  0  0  0  0
  -26.9660  -30.4070   24.8680 C   0  0  0  0  0  1  0  0  0  0  0  0
  -27.4450  -32.5920   25.9420 C   0  0  0  0  0  1  0  0  0  0  0  0
  -25.5380  -33.9300   24.2310 N   0  0  0  0  0  0  0  0  0  0  0  0
  -25.8730  -34.9760   23.4630 C   0  0  0  0  0  0  0  0  0  0  0  0
  -26.5660  -34.8670   22.4480 O   0  0  0  0  0  0  0  0  0  0  0  0
  -24.9240  -34.0880   25.0160 H   0  0  0  0  0  0  0  0  0  0  0  0
  -24.1220  -36.7340   23.0500 C   0  0  0  0  0  1  0  0  0  0  0  0
  -25.3560  -36.3630   23.8880 C   0  0  0  0  0  3  0  0  0  0  0  0
  -27.4590  -37.3000   24.7410 C   0  0  0  0  0  1  0  0  0  0  0  0
  -26.3740  -37.4310   23.7730 N   0  0  0  0  0  0  0  0  0  0  0  0
  -25.9510  -38.3470   23.8930 H   0  0  0  0  0  0  0  0  0  0  0  0
  1  6  2  0
  2  5  1  0
  2  3  1  0
  3  4  1  6
  3 54  1  0
  3  1  1  0
  5  1  1  0
  7 10  1  0
  7  5  1  0
  8 12  2  0
  8 10  1  0
 10 13  2  0
 11 24  1  0
 11  9  2  0
 12 11  1  0
 13  9  1  0
 13 15  1  0
 14 12  1  0
 16 24  1  0
 17 22  1  0
 18 19  1  0
 18 17  1  0
 20 19  1  0
 20 29  1  0
 20 21  1  0
 22 16  1  0
 22 21  1  0
 23 16  2  0
 24 25  1  0
 26 27  2  0
 27 46  1  0
 28 27  1  0
 28 31  1  0
 29 30  1  0
 29 26  1  0
 30 28  2  0
 31 32  1  0
 32 33  2  0
 34 37  1  0
 34 33  1  0
 35 34  2  0
 36 35  1  0
 36 31  2  0
 37 38  1  0
 38 43  2  0
 38 39  1  0
 39 40  2  0
 40 41  1  0
 41 45  1  0
 42 41  2  0
 43 42  1  0
 44 43  1  0
 46 47  1  0
 47 50  1  0
 47 49  1  0
 48 46  2  0
 51 26  1  0
 51 52  1  0
 53 51  1  0
 55 54  1  0
 56 67  2  0
 57 55  1  0
 57 62  1  0
 58 66  1  0
 58 68  1  0
 59 65  1  0
 59 61  1  0
 60 66  1  0
 61 62  2  0
 61 60  1  0
 63 64  1  0
 63 57  2  0
 64 59  2  0
 65 58  1  0
 66 56  1  0
 68 70  2  0
 69 68  1  0
 71 69  1  0
 72 81  2  0
 72 77  1  0
 73 69  1  0
 73 77  1  0
 74 73  1  0
 75 76  1  0
 75 74  1  0
 76 72  1  0
 77 78  2  0
 78 79  1  0
 80 79  2  0
 81 80  1  0
 82 56  1  0
 82 87  1  0
 82 83  1  0
 83 86  1  1
 83 84  1  0
 85 83  1  0
 87 90  1  0
 88 92  1  0
 88 87  1  0
 89 88  2  0
 92 91  1  0
 94 92  1  0
 94 95  1  0
 94 93  1  0
M  ISO  4  16 100  24 100  54 101  55 101
M  END
>  <TORSDO>  (24) 
F 19

>  <SCORE>  (24) 
-13.348

>  <name>  (24) 
23

>  <ligand_id>  (24) 
23

>  <original_smiles>  (24) 
[H]c1c([H])c([H])c2c(c1[H])C([H])([H])C([H])([H])C([H])([H])C2([H])N([H])C(=O)C1([H])N(C(=O)C([H])(N([H])C(=O)C([H])(N([H])C([H])([H])[H])C([H])([H])[H])C(C([H])([H])[H])(C([H])([H])[H])C([H])([H])[H])C([H])([H])c2c([H])c(OC([H])([H])C3(C([H])([H])[H])C(=O)N(C([H])([H])c4c([H])c(F)c(N([H])C(=O)N5C([H])([H])C([H])([H])C([H])([H])C([H])(n6nc(-c7c([H])c([H])c(Oc8c([H])c([H])c(F)c([H])c8F)c([H])c7[H])c(C(=O)N([H])[H])c6N([H])[H])C5([H])[H])c([H])c4F)C3([H])[H])c([H])c([H])c2C1([H])[H]

>  <smiles>  (24) 
[H]c1c([H])c([H])c2c(c1[H])C([H])([H])C([H])([H])C([H])([H])C2([H])N([H])C(=O)C1([H])N(C(=O)C([H])(N([H])C(=O)C([H])(N([H])C([H])([H])[H])C([H])([H])[H])C(C([H])([H])[H])(C([H])([H])[H])C([H])([H])[H])C([H])([H])c2c([H])c(OC([H])([H])C3(C([H])([H])[H])C(=O)N(C([H])([H])c4c([H])c(F)c(N([H])C(=O)N5C([H])([H])C([H])([H])C([H])([H])C([H])(n6nc(-c7c([H])c([H])c(Oc8c([H])c([H])c(F)c([H])c8F)c([H])c7[H])c(C(=O)N([H])[H])c6N([H])[H])C5([H])[H])c([H])c4F)C3([H])[H])c([H])c([H])c2C1([H])[H]

$$$$
24:0:0
     RDKit          3D

 93102  0  0  1  0  0  0  0  0999 V2000
  -28.7870  -22.4840   20.5680 C   0  0  0  0  0  0  0  0  0  0  0  0
  -30.4000  -23.7990   19.4330 C   0  0  0  0  0  2  0  0  0  0  0  0
  -30.8560  -22.3300   19.5930 C   0  0  0  0  0  2  0  0  0  0  0  0
  -29.2320  -23.9780   20.4050 C   0  0  0  0  0  3  0  0  0  0  0  0
  -29.7330  -21.5780   20.1610 N   0  0  0  0  0  0  0  0  0  0  0  0
  -27.6820  -22.1980   21.0390 O   0  0  0  0  0  0  0  0  0  0  0  0
  -30.9820  -19.3700   20.0460 C   0  0  0  0  0  3  0  0  0  0  0  0
  -31.0670  -17.9460   20.1330 C   0  0  0  0  0  3  0  0  0  0  0  0
  -28.6470  -19.2880   20.5880 C   0  0  0  0  0  3  0  0  0  0  0  0
  -29.7730  -20.0990   20.2670 C   0  0  0  0  0  0  0  0  0  0  0  0
  -29.9330  -17.1540   20.4500 C   0  0  0  0  0  0  0  0  0  0  0  0
  -28.7270  -17.8680   20.6760 C   0  0  0  0  0  0  0  0  0  0  0  0
  -27.6100  -17.1630   20.9780 F   0  0  0  0  0  0  0  0  0  0  0  0
  -30.6560  -14.6830   20.0650 C   0  0  0  0  0  0  0  0  0  0  0  0
  -30.3860  -12.4880   18.9260 C   0  0  0  0  0  2  0  0  0  0  0  0
  -29.3720  -12.6650   17.7730 C   0  0  0  0  0  2  0  0  0  0  0  0
  -27.9250  -12.4950   18.2770 C   0  0  0  0  0  2  0  0  0  0  0  0
  -27.6410  -13.3090   19.5680 C   0  0  0  0  0  3  0  0  0  0  0  0
  -28.7600  -13.0970   20.6140 C   0  0  0  0  0  2  0  0  0  0  0  0
  -30.0380  -13.4610   19.9800 N   0  0  0  0  0  0  0  0  0  0  0  0
  -31.7830  -14.8660   19.5950 O   0  0  0  0  0  0  0  0  0  0  0  0
  -29.8850  -15.6980   20.5600 N   0  0  0  0  0  0  0  0  0  0  0  0
  -29.0190  -15.3670   20.9590 H   0  0  0  0  0  0  0  0  0  0  0  0
  -25.2870  -13.8880   20.4230 C   0  0  0  0  0  0  0  0  0  0  0  0
  -24.2390  -13.1040   20.8240 C   0  0  0  0  0  0  0  0  0  0  0  0
  -24.6990  -11.7550   20.7340 C   0  0  0  0  0  0  0  0  0  0  0  0
  -26.3190  -13.0150   20.1140 N   0  0  0  0  0  0  0  0  0  0  0  0
  -25.9710  -11.7250   20.3590 N   0  0  0  0  0  0  0  0  0  0  0  0
  -23.9820  -10.4870   20.9280 C   0  0  0  0  0  0  0  0  0  0  0  0
  -24.4170   -9.5300   21.8710 C   0  0  0  0  0  3  0  0  0  0  0  0
  -23.6990   -8.3280   22.0520 C   0  0  0  0  0  3  0  0  0  0  0  0
  -22.5340   -8.0750   21.2890 C   0  0  0  0  0  0  0  0  0  0  0  0
  -22.1200   -9.0210   20.3360 C   0  0  0  0  0  3  0  0  0  0  0  0
  -22.8370  -10.2150   20.1540 C   0  0  0  0  0  3  0  0  0  0  0  0
  -21.7900   -6.9240   21.3800 O   0  0  0  0  0  0  0  0  0  0  0  0
  -21.6690   -6.2350   22.5600 C   0  0  0  0  0  0  0  0  0  0  0  0
  -21.1450   -6.8370   23.7240 C   0  0  0  0  0  3  0  0  0  0  0  0
  -20.9740   -6.0730   24.8960 C   0  0  0  0  0  3  0  0  0  0  0  0
  -21.3160   -4.7080   24.9030 C   0  0  0  0  0  0  0  0  0  0  0  0
  -21.8320   -4.1050   23.7420 C   0  0  0  0  0  3  0  0  0  0  0  0
  -22.0050   -4.8650   22.5740 C   0  0  0  0  0  0  0  0  0  0  0  0
  -22.4830   -4.2750   21.4520 F   0  0  0  0  0  0  0  0  0  0  0  0
  -21.1440   -3.9710   26.0260 F   0  0  0  0  0  0  0  0  0  0  0  0
  -22.8590  -13.5740   21.1840 C   0  0  0  0  0  0  0  0  0  0  0  0
  -22.1800  -12.8550   22.0710 N   0  0  0  0  0  0  0  0  0  0  0  0
  -22.3930  -14.6110   20.7150 O   0  0  0  0  0  0  0  0  0  0  0  0
  -22.5700  -12.0160   22.4720 H   0  0  0  0  0  0  0  0  0  0  0  0
  -21.2560  -13.1510   22.3550 H   0  0  0  0  0  0  0  0  0  0  0  0
  -25.4410  -15.2630   20.2780 N   0  0  0  0  0  0  0  0  0  0  0  0
  -24.6910  -15.9120   20.4890 H   0  0  0  0  0  0  0  0  0  0  0  0
  -26.3010  -15.7290   20.0220 H   0  0  0  0  0  0  0  0  0  0  0  0
  -28.1380  -25.0570   19.9860 C   0  0  0  0  0  2  0  0  0  0  0  0
  -28.3790  -26.5090   20.1810 O   0  0  0  0  0  0  0  0  0  0  0  0
  -24.6410  -31.8690   23.2490 C   0  0  0  0  0  0  0  0  0  0  0  0
  -27.2620  -27.3610   20.1300 C   0  0  0  0  0  0  0  0  0  0  0  0
  -23.4400  -30.4940   21.5870 C   0  0  0  0  0  3  0  0  0  0  0  0
  -24.8940  -28.9700   20.1400 C   0  0  0  0  0  0  0  0  0  0  0  0
  -25.9810  -30.8170   21.4140 C   0  0  0  0  0  2  0  0  0  0  0  0
  -26.0620  -29.4500   20.7450 C   0  0  0  0  0  0  0  0  0  0  0  0
  -27.2490  -28.6580   20.7310 C   0  0  0  0  0  3  0  0  0  0  0  0
  -26.0670  -26.9380   19.4980 C   0  0  0  0  0  3  0  0  0  0  0  0
  -24.8990  -27.7190   19.5080 C   0  0  0  0  0  3  0  0  0  0  0  0
  -23.6580  -29.8410   20.1970 C   0  0  0  0  0  2  0  0  0  0  0  0
  -24.7070  -31.0760   22.1400 N   0  0  0  0  0  0  0  0  0  0  0  0
  -23.5570  -32.1390   23.7850 O   0  0  0  0  0  0  0  0  0  0  0  0
  -22.7770  -29.4620   22.5290 C   0  0  0  0  0  0  0  0  0  0  0  0
  -21.4520  -29.2850   22.3950 N   0  0  0  0  0  0  0  0  0  0  0  0
  -23.4540  -28.8250   23.3410 O   0  0  0  0  0  0  0  0  0  0  0  0
  -20.9650  -29.8510   21.7140 H   0  0  0  0  0  0  0  0  0  0  0  0
  -18.0700  -28.0970   22.8790 C   0  0  0  0  0  0  0  0  0  0  0  0
  -20.6300  -28.3370   23.1480 C   0  0  0  0  0  3  0  0  0  0  0  0
  -20.7230  -26.9160   22.5470 C   0  0  0  0  0  2  0  0  0  0  0  0
  -19.6170  -26.6170   21.5290 C   0  0  0  0  0  2  0  0  0  0  0  0
  -18.2370  -26.7580   22.1780 C   0  0  0  0  0  2  0  0  0  0  0  0
  -19.1930  -28.8450   23.3200 C   0  0  0  0  0  0  0  0  0  0  0  0
  -18.9820  -30.0980   23.9340 C   0  0  0  0  0  3  0  0  0  0  0  0
  -17.6800  -30.6040   24.1120 C   0  0  0  0  0  3  0  0  0  0  0  0
  -16.5710  -29.8520   23.6870 C   0  0  0  0  0  3  0  0  0  0  0  0
  -16.7660  -28.6000   23.0750 C   0  0  0  0  0  3  0  0  0  0  0  0
  -25.9240  -32.4900   23.8820 C   0  0  0  0  0  3  0  0  0  0  0  0
  -25.6190  -33.8890   24.2150 N   0  0  0  0  0  0  0  0  0  0  0  0
  -25.9440  -34.9410   23.4520 C   0  0  0  0  0  0  0  0  0  0  0  0
  -26.6020  -34.8370   22.4130 O   0  0  0  0  0  0  0  0  0  0  0  0
  -25.0360  -34.0460   25.0240 H   0  0  0  0  0  0  0  0  0  0  0  0
  -24.2030  -36.7280   23.1310 C   0  0  0  0  0  1  0  0  0  0  0  0
  -25.4640  -36.3300   23.9150 C   0  0  0  0  0  3  0  0  0  0  0  0
  -27.6120  -37.2270   24.6960 C   0  0  0  0  0  1  0  0  0  0  0  0
  -26.4910  -37.3860   23.7740 N   0  0  0  0  0  0  0  0  0  0  0  0
  -26.0850  -38.3060   23.9250 H   0  0  0  0  0  0  0  0  0  0  0  0
  -26.4250  -31.7120   25.1600 C   0  0  1  0  0  0  0  0  0  0  0  0
  -25.3220  -31.4760   26.2170 C   0  0  0  0  0  1  0  0  0  0  0  0
  -27.0070  -30.3350   24.7690 C   0  0  0  0  0  1  0  0  0  0  0  0
  -27.5720  -32.5000   25.8360 C   0  0  0  0  0  1  0  0  0  0  0  0
  1  6  2  0
  2  3  1  0
  2  4  1  0
  3  5  1  0
  4 52  1  0
  4  1  1  0
  5 10  1  0
  5  1  1  0
  7  8  2  0
  7 10  1  0
  8 11  1  0
  9 12  1  0
 10  9  2  0
 11 22  1  0
 11 12  2  0
 12 13  1  0
 14 22  1  0
 15 20  1  0
 16 17  1  0
 16 15  1  0
 18 17  1  0
 18 27  1  0
 18 19  1  0
 20 14  1  0
 20 19  1  0
 21 14  2  0
 22 23  1  0
 24 25  2  0
 25 44  1  0
 26 25  1  0
 26 29  1  0
 27 28  1  0
 27 24  1  0
 28 26  2  0
 29 30  1  0
 30 31  2  0
 32 35  1  0
 32 31  1  0
 33 32  2  0
 34 33  1  0
 34 29  2  0
 35 36  1  0
 36 41  2  0
 36 37  1  0
 37 38  2  0
 38 39  1  0
 39 43  1  0
 40 39  2  0
 41 40  1  0
 42 41  1  0
 44 45  1  0
 45 48  1  0
 45 47  1  0
 46 44  2  0
 49 24  1  0
 49 50  1  0
 51 49  1  0
 52 53  1  0
 54 65  2  0
 55 53  1  0
 55 60  1  0
 56 64  1  0
 56 66  1  0
 57 63  1  0
 57 59  1  0
 58 64  1  0
 59 58  1  0
 60 59  2  0
 61 62  1  0
 61 55  2  0
 62 57  2  0
 63 56  1  0
 64 54  1  0
 66 68  2  0
 67 66  1  0
 69 67  1  0
 70 79  2  0
 70 75  1  0
 71 67  1  0
 71 75  1  0
 72 71  1  0
 73 74  1  0
 73 72  1  0
 74 70  1  0
 75 76  2  0
 76 77  1  0
 78 77  2  0
 79 78  1  0
 80 54  1  0
 80 81  1  0
 80 90  1  0
 81 84  1  0
 82 86  1  0
 82 81  1  0
 83 82  2  0
 86 85  1  0
 88 86  1  0
 88 89  1  0
 88 87  1  0
 90 93  1  1
 90 91  1  0
 92 90  1  0
M  ISO  4  14 100  22 100  52 101  53 101
M  END
>  <TORSDO>  (25) 
F 18

>  <SCORE>  (25) 
-14.550

>  <name>  (25) 
24

>  <ligand_id>  (25) 
24

>  <original_smiles>  (25) 
[H]c1c([H])c([H])c2c(c1[H])C([H])([H])C([H])([H])C([H])([H])C2([H])N([H])C(=O)C1([H])N(C(=O)C([H])(N([H])C(=O)C([H])(N([H])C([H])([H])[H])C([H])([H])[H])C(C([H])([H])[H])(C([H])([H])[H])C([H])([H])[H])C([H])([H])c2c([H])c(OC([H])([H])C3([H])C(=O)N(c4c([H])c([H])c(N([H])C(=O)N5C([H])([H])C([H])([H])C([H])([H])C([H])(n6nc(-c7c([H])c([H])c(Oc8c([H])c([H])c(F)c([H])c8F)c([H])c7[H])c(C(=O)N([H])[H])c6N([H])[H])C5([H])[H])c(F)c4[H])C([H])([H])C3([H])[H])c([H])c([H])c2C1([H])[H]

>  <smiles>  (25) 
[H]c1c([H])c([H])c2c(c1[H])C([H])([H])C([H])([H])C([H])([H])C2([H])N([H])C(=O)C1([H])N(C(=O)C([H])(N([H])C(=O)C([H])(N([H])C([H])([H])[H])C([H])([H])[H])C(C([H])([H])[H])(C([H])([H])[H])C([H])([H])[H])C([H])([H])c2c([H])c(OC([H])([H])C3([H])C(=O)N(c4c([H])c([H])c(N([H])C(=O)N5C([H])([H])C([H])([H])C([H])([H])C([H])(n6nc(-c7c([H])c([H])c(Oc8c([H])c([H])c(F)c([H])c8F)c([H])c7[H])c(C(=O)N([H])[H])c6N([H])[H])C5([H])[H])c(F)c4[H])C([H])([H])C3([H])[H])c([H])c([H])c2C1([H])[H]

$$$$
25:0:0
     RDKit          3D

 92101  0  0  1  0  0  0  0  0999 V2000
  -29.5550  -23.1830   22.4950 C   0  0  0  0  0  2  0  0  0  0  0  0
  -30.2200  -23.7540   21.2400 C   0  0  0  0  0  2  0  0  0  0  0  0
  -28.4640  -22.2300   21.9780 C   0  0  0  0  0  2  0  0  0  0  0  0
  -29.2250  -23.4350   20.1290 C   0  0  0  0  0  3  0  0  0  0  0  0
  -28.7320  -22.0240   20.5520 N   0  0  0  0  0  0  0  0  0  0  0  0
  -30.4760  -20.0270   20.2220 C   0  0  0  0  0  3  0  0  0  0  0  0
  -30.7530  -18.5850   20.1940 C   0  0  0  0  0  3  0  0  0  0  0  0
  -28.1790  -19.5660   20.4500 C   0  0  0  0  0  3  0  0  0  0  0  0
  -29.1620  -20.6060   20.3660 C   0  0  0  0  0  0  0  0  0  0  0  0
  -29.7400  -17.5640   20.3050 C   0  0  0  0  0  0  0  0  0  0  0  0
  -28.4440  -18.1500   20.4230 C   0  0  0  0  0  0  0  0  0  0  0  0
  -27.3900  -17.3050   20.5290 F   0  0  0  0  0  0  0  0  0  0  0  0
  -30.6450  -14.9560   19.9720 C   0  0  0  0  0  0  0  0  0  0  0  0
  -30.4770  -12.6480   18.9400 C   0  0  0  0  0  2  0  0  0  0  0  0
  -29.4540  -12.6820   17.7780 C   0  0  0  0  0  2  0  0  0  0  0  0
  -28.0180  -12.4690   18.2990 C   0  0  0  0  0  2  0  0  0  0  0  0
  -27.7060  -13.3370   19.5460 C   0  0  0  0  0  3  0  0  0  0  0  0
  -28.8390  -13.2570   20.5930 C   0  0  0  0  0  2  0  0  0  0  0  0
  -30.0790  -13.6850   19.9290 N   0  0  0  0  0  0  0  0  0  0  0  0
  -31.8060  -15.0950   19.5660 O   0  0  0  0  0  0  0  0  0  0  0  0
  -29.8060  -16.0350   20.3170 N   0  0  0  0  0  0  0  0  0  0  0  0
  -28.9230  -15.6650   20.6320 H   0  0  0  0  0  0  0  0  0  0  0  0
  -25.3760  -13.8980   20.4580 C   0  0  0  0  0  0  0  0  0  0  0  0
  -24.3350  -13.1120   20.8700 C   0  0  0  0  0  0  0  0  0  0  0  0
  -24.7910  -11.7630   20.7630 C   0  0  0  0  0  0  0  0  0  0  0  0
  -26.4000  -13.0280   20.1210 N   0  0  0  0  0  0  0  0  0  0  0  0
  -26.0600  -11.7350   20.3670 N   0  0  0  0  0  0  0  0  0  0  0  0
  -24.0730  -10.4970   20.9610 C   0  0  0  0  0  0  0  0  0  0  0  0
  -24.5080   -9.5400   21.9040 C   0  0  0  0  0  3  0  0  0  0  0  0
  -23.7880   -8.3390   22.0880 C   0  0  0  0  0  3  0  0  0  0  0  0
  -22.6200   -8.0880   21.3300 C   0  0  0  0  0  0  0  0  0  0  0  0
  -22.2040   -9.0360   20.3770 C   0  0  0  0  0  3  0  0  0  0  0  0
  -22.9250  -10.2270   20.1900 C   0  0  0  0  0  3  0  0  0  0  0  0
  -21.8720   -6.9390   21.4250 O   0  0  0  0  0  0  0  0  0  0  0  0
  -21.7580   -6.2480   22.6040 C   0  0  0  0  0  0  0  0  0  0  0  0
  -21.2390   -6.8500   23.7720 C   0  0  0  0  0  3  0  0  0  0  0  0
  -21.0740   -6.0850   24.9440 C   0  0  0  0  0  3  0  0  0  0  0  0
  -21.4170   -4.7200   24.9480 C   0  0  0  0  0  0  0  0  0  0  0  0
  -21.9280   -4.1170   23.7840 C   0  0  0  0  0  3  0  0  0  0  0  0
  -22.0950   -4.8800   22.6140 C   0  0  0  0  0  0  0  0  0  0  0  0
  -22.5680   -4.2900   21.4900 F   0  0  0  0  0  0  0  0  0  0  0  0
  -21.2500   -3.9820   26.0710 F   0  0  0  0  0  0  0  0  0  0  0  0
  -22.9620  -13.5840   21.2510 C   0  0  0  0  0  0  0  0  0  0  0  0
  -22.2970  -12.8730   22.1540 N   0  0  0  0  0  0  0  0  0  0  0  0
  -22.4900  -14.6190   20.7820 O   0  0  0  0  0  0  0  0  0  0  0  0
  -22.6910  -12.0370   22.5570 H   0  0  0  0  0  0  0  0  0  0  0  0
  -21.3780  -13.1710   22.4490 H   0  0  0  0  0  0  0  0  0  0  0  0
  -25.5250  -15.2740   20.3220 N   0  0  0  0  0  0  0  0  0  0  0  0
  -24.7760  -15.9130   20.5610 H   0  0  0  0  0  0  0  0  0  0  0  0
  -26.3810  -15.7580   20.0820 H   0  0  0  0  0  0  0  0  0  0  0  0
  -28.1260  -24.7110   20.0240 C   0  0  0  0  0  2  0  0  0  0  0  0
  -28.3920  -26.2390   20.0610 O   0  0  0  0  0  0  0  0  0  0  0  0
  -24.6310  -31.7370   23.2070 C   0  0  0  0  0  0  0  0  0  0  0  0
  -27.3080  -27.1870   20.0380 C   0  0  0  0  0  0  0  0  0  0  0  0
  -23.4670  -30.3910   21.5020 C   0  0  0  0  0  3  0  0  0  0  0  0
  -24.9510  -28.8880   20.0430 C   0  0  0  0  0  0  0  0  0  0  0  0
  -26.0190  -30.6960   21.3790 C   0  0  0  0  0  2  0  0  0  0  0  0
  -26.1180  -29.3320   20.6780 C   0  0  0  0  0  0  0  0  0  0  0  0
  -27.2970  -28.4990   20.6570 C   0  0  0  0  0  3  0  0  0  0  0  0
  -26.1100  -26.8410   19.3720 C   0  0  0  0  0  3  0  0  0  0  0  0
  -24.9600  -27.6570   19.3750 C   0  0  0  0  0  3  0  0  0  0  0  0
  -23.7120  -29.7670   20.1030 C   0  0  0  0  0  2  0  0  0  0  0  0
  -24.7260  -30.9600   22.0850 N   0  0  0  0  0  0  0  0  0  0  0  0
  -23.5360  -31.9900   23.7310 O   0  0  0  0  0  0  0  0  0  0  0  0
  -22.7880  -29.3410   22.4170 C   0  0  0  0  0  0  0  0  0  0  0  0
  -21.4600  -29.1770   22.2800 N   0  0  0  0  0  0  0  0  0  0  0  0
  -23.4570  -28.6770   23.2130 O   0  0  0  0  0  0  0  0  0  0  0  0
  -20.9780  -29.7630   21.6120 H   0  0  0  0  0  0  0  0  0  0  0  0
  -18.0630  -28.0220   22.7840 C   0  0  0  0  0  0  0  0  0  0  0  0
  -20.6340  -28.2090   23.0070 C   0  0  0  0  0  3  0  0  0  0  0  0
  -20.6900  -26.8170   22.3360 C   0  0  0  0  0  2  0  0  0  0  0  0
  -19.5560  -26.5870   21.3300 C   0  0  0  0  0  2  0  0  0  0  0  0
  -18.1930  -26.7180   22.0150 C   0  0  0  0  0  2  0  0  0  0  0  0
  -19.2090  -28.7300   23.2360 C   0  0  0  0  0  0  0  0  0  0  0  0
  -19.0310  -29.9530   23.9180 C   0  0  0  0  0  3  0  0  0  0  0  0
  -17.7430  -30.4680   24.1510 C   0  0  0  0  0  3  0  0  0  0  0  0
  -16.6120  -29.7560   23.7130 C   0  0  0  0  0  3  0  0  0  0  0  0
  -16.7740  -28.5340   23.0360 C   0  0  0  0  0  3  0  0  0  0  0  0
  -25.8940  -32.3600   23.8760 C   0  0  0  0  0  3  0  0  0  0  0  0
  -25.5750  -33.7530   24.2240 N   0  0  0  0  0  0  0  0  0  0  0  0
  -25.8890  -34.8180   23.4750 C   0  0  0  0  0  0  0  0  0  0  0  0
  -26.5440  -34.7310   22.4320 O   0  0  0  0  0  0  0  0  0  0  0  0
  -24.9880  -33.8930   25.0320 H   0  0  0  0  0  0  0  0  0  0  0  0
  -24.1230  -36.5900   23.1930 C   0  0  0  0  0  1  0  0  0  0  0  0
  -25.4000  -36.1990   23.9550 C   0  0  0  0  0  3  0  0  0  0  0  0
  -27.5460  -37.1200   24.7170 C   0  0  0  0  0  1  0  0  0  0  0  0
  -26.4140  -37.2670   23.8070 N   0  0  0  0  0  0  0  0  0  0  0  0
  -25.9970  -38.1820   23.9620 H   0  0  0  0  0  0  0  0  0  0  0  0
  -26.3720  -31.5680   25.1560 C   0  0  1  0  0  0  0  0  0  0  0  0
  -25.2470  -31.3170   26.1870 C   0  0  0  0  0  1  0  0  0  0  0  0
  -26.9650  -30.1950   24.7640 C   0  0  0  0  0  1  0  0  0  0  0  0
  -27.5030  -32.3510   25.8630 C   0  0  0  0  0  1  0  0  0  0  0  0
  2  1  1  0
  3  1  1  0
  4 51  1  0
  4  5  1  0
  4  2  1  0
  5  3  1  0
  6  9  1  0
  7  6  2  0
  7 10  1  0
  9  8  2  0
  9  5  1  0
 10 21  1  0
 10 11  2  0
 11  8  1  0
 11 12  1  0
 13 21  1  0
 14 19  1  0
 15 16  1  0
 15 14  1  0
 17 16  1  0
 17 26  1  0
 17 18  1  0
 19 13  1  0
 19 18  1  0
 20 13  2  0
 21 22  1  0
 23 24  2  0
 24 43  1  0
 25 24  1  0
 25 28  1  0
 26 27  1  0
 26 23  1  0
 27 25  2  0
 28 29  1  0
 29 30  2  0
 31 34  1  0
 31 30  1  0
 32 31  2  0
 33 32  1  0
 33 28  2  0
 34 35  1  0
 35 40  2  0
 35 36  1  0
 36 37  2  0
 37 38  1  0
 38 42  1  0
 39 38  2  0
 40 39  1  0
 41 40  1  0
 43 44  1  0
 44 47  1  0
 44 46  1  0
 45 43  2  0
 48 23  1  0
 48 49  1  0
 50 48  1  0
 51 52  1  0
 53 64  2  0
 54 52  1  0
 54 59  1  0
 55 63  1  0
 55 65  1  0
 56 62  1  0
 56 58  1  0
 57 63  1  0
 58 57  1  0
 59 58  2  0
 60 61  1  0
 60 54  2  0
 61 56  2  0
 62 55  1  0
 63 53  1  0
 65 67  2  0
 66 65  1  0
 68 66  1  0
 69 78  2  0
 69 74  1  0
 70 66  1  0
 70 74  1  0
 71 70  1  0
 72 73  1  0
 72 71  1  0
 73 69  1  0
 74 75  2  0
 75 76  1  0
 77 76  2  0
 78 77  1  0
 79 53  1  0
 79 80  1  0
 79 89  1  0
 80 83  1  0
 81 85  1  0
 81 80  1  0
 82 81  2  0
 85 84  1  0
 87 85  1  0
 87 88  1  0
 87 86  1  0
 89 92  1  1
 89 90  1  0
 91 89  1  0
M  ISO  4  13 100  21 100  51 101  52 101
M  END
>  <TORSDO>  (26) 
F 18

>  <SCORE>  (26) 
-14.730

>  <name>  (26) 
25

>  <ligand_id>  (26) 
25

>  <original_smiles>  (26) 
[H]c1c([H])c([H])c2c(c1[H])C([H])([H])C([H])([H])C([H])([H])C2([H])N([H])C(=O)C1([H])N(C(=O)C([H])(N([H])C(=O)C([H])(N([H])C([H])([H])[H])C([H])([H])[H])C(C([H])([H])[H])(C([H])([H])[H])C([H])([H])[H])C([H])([H])c2c([H])c(OC([H])([H])C3([H])N(c4c([H])c([H])c(N([H])C(=O)N5C([H])([H])C([H])([H])C([H])([H])C([H])(n6nc(-c7c([H])c([H])c(Oc8c([H])c([H])c(F)c([H])c8F)c([H])c7[H])c(C(=O)N([H])[H])c6N([H])[H])C5([H])[H])c(F)c4[H])C([H])([H])C([H])([H])C3([H])[H])c([H])c([H])c2C1([H])[H]

>  <smiles>  (26) 
[H]c1c([H])c([H])c2c(c1[H])C([H])([H])C([H])([H])C([H])([H])C2([H])N([H])C(=O)C1([H])N(C(=O)C([H])(N([H])C(=O)C([H])(N([H])C([H])([H])[H])C([H])([H])[H])C(C([H])([H])[H])(C([H])([H])[H])C([H])([H])[H])C([H])([H])c2c([H])c(OC([H])([H])C3([H])N(c4c([H])c([H])c(N([H])C(=O)N5C([H])([H])C([H])([H])C([H])([H])C([H])(n6nc(-c7c([H])c([H])c(Oc8c([H])c([H])c(F)c([H])c8F)c([H])c7[H])c(C(=O)N([H])[H])c6N([H])[H])C5([H])[H])c(F)c4[H])C([H])([H])C([H])([H])C3([H])[H])c([H])c([H])c2C1([H])[H]

$$$$
26:0:0
     RDKit          3D

 92101  0  0  1  0  0  0  0  0999 V2000
  -29.5550  -23.1830   22.4950 C   0  0  0  0  0  2  0  0  0  0  0  0
  -30.2200  -23.7540   21.2400 C   0  0  0  0  0  2  0  0  0  0  0  0
  -28.4640  -22.2300   21.9780 C   0  0  0  0  0  2  0  0  0  0  0  0
  -29.2250  -23.4350   20.1290 C   0  0  0  0  0  3  0  0  0  0  0  0
  -28.7320  -22.0240   20.5520 N   0  0  0  0  0  0  0  0  0  0  0  0
  -30.4760  -20.0270   20.2220 C   0  0  0  0  0  3  0  0  0  0  0  0
  -30.7530  -18.5850   20.1940 C   0  0  0  0  0  3  0  0  0  0  0  0
  -28.1790  -19.5660   20.4500 C   0  0  0  0  0  3  0  0  0  0  0  0
  -29.1620  -20.6060   20.3660 C   0  0  0  0  0  0  0  0  0  0  0  0
  -29.7400  -17.5640   20.3050 C   0  0  0  0  0  0  0  0  0  0  0  0
  -28.4440  -18.1500   20.4230 C   0  0  0  0  0  0  0  0  0  0  0  0
  -27.3900  -17.3050   20.5290 F   0  0  0  0  0  0  0  0  0  0  0  0
  -30.6450  -14.9560   19.9720 C   0  0  0  0  0  0  0  0  0  0  0  0
  -30.4770  -12.6480   18.9400 C   0  0  0  0  0  2  0  0  0  0  0  0
  -29.4540  -12.6820   17.7780 C   0  0  0  0  0  2  0  0  0  0  0  0
  -28.0180  -12.4690   18.2990 C   0  0  0  0  0  2  0  0  0  0  0  0
  -27.7060  -13.3370   19.5460 C   0  0  0  0  0  3  0  0  0  0  0  0
  -28.8390  -13.2570   20.5930 C   0  0  0  0  0  2  0  0  0  0  0  0
  -30.0790  -13.6850   19.9290 N   0  0  0  0  0  0  0  0  0  0  0  0
  -31.8060  -15.0950   19.5660 O   0  0  0  0  0  0  0  0  0  0  0  0
  -29.8060  -16.0350   20.3170 N   0  0  0  0  0  0  0  0  0  0  0  0
  -28.9230  -15.6650   20.6320 H   0  0  0  0  0  0  0  0  0  0  0  0
  -25.3760  -13.8980   20.4580 C   0  0  0  0  0  0  0  0  0  0  0  0
  -24.3350  -13.1120   20.8700 C   0  0  0  0  0  0  0  0  0  0  0  0
  -24.7910  -11.7630   20.7630 C   0  0  0  0  0  0  0  0  0  0  0  0
  -26.4000  -13.0280   20.1210 N   0  0  0  0  0  0  0  0  0  0  0  0
  -26.0600  -11.7350   20.3670 N   0  0  0  0  0  0  0  0  0  0  0  0
  -24.0730  -10.4970   20.9610 C   0  0  0  0  0  0  0  0  0  0  0  0
  -24.5080   -9.5400   21.9040 C   0  0  0  0  0  3  0  0  0  0  0  0
  -23.7880   -8.3390   22.0880 C   0  0  0  0  0  3  0  0  0  0  0  0
  -22.6200   -8.0880   21.3300 C   0  0  0  0  0  0  0  0  0  0  0  0
  -22.2040   -9.0360   20.3770 C   0  0  0  0  0  3  0  0  0  0  0  0
  -22.9250  -10.2270   20.1900 C   0  0  0  0  0  3  0  0  0  0  0  0
  -21.8720   -6.9390   21.4250 O   0  0  0  0  0  0  0  0  0  0  0  0
  -21.7580   -6.2480   22.6040 C   0  0  0  0  0  0  0  0  0  0  0  0
  -21.2390   -6.8500   23.7720 C   0  0  0  0  0  3  0  0  0  0  0  0
  -21.0740   -6.0850   24.9440 C   0  0  0  0  0  3  0  0  0  0  0  0
  -21.4170   -4.7200   24.9480 C   0  0  0  0  0  0  0  0  0  0  0  0
  -21.9280   -4.1170   23.7840 C   0  0  0  0  0  3  0  0  0  0  0  0
  -22.0950   -4.8800   22.6140 C   0  0  0  0  0  0  0  0  0  0  0  0
  -22.5680   -4.2900   21.4900 F   0  0  0  0  0  0  0  0  0  0  0  0
  -21.2500   -3.9820   26.0710 F   0  0  0  0  0  0  0  0  0  0  0  0
  -22.9620  -13.5840   21.2510 C   0  0  0  0  0  0  0  0  0  0  0  0
  -22.2970  -12.8730   22.1540 N   0  0  0  0  0  0  0  0  0  0  0  0
  -22.4900  -14.6190   20.7820 O   0  0  0  0  0  0  0  0  0  0  0  0
  -22.6910  -12.0370   22.5570 H   0  0  0  0  0  0  0  0  0  0  0  0
  -21.3780  -13.1710   22.4490 H   0  0  0  0  0  0  0  0  0  0  0  0
  -25.5250  -15.2740   20.3220 N   0  0  0  0  0  0  0  0  0  0  0  0
  -24.7760  -15.9130   20.5610 H   0  0  0  0  0  0  0  0  0  0  0  0
  -26.3810  -15.7580   20.0820 H   0  0  0  0  0  0  0  0  0  0  0  0
  -28.1260  -24.7110   20.0240 C   0  0  0  0  0  2  0  0  0  0  0  0
  -28.3920  -26.2390   20.0610 O   0  0  0  0  0  0  0  0  0  0  0  0
  -24.6310  -31.7370   23.2070 C   0  0  0  0  0  0  0  0  0  0  0  0
  -27.3080  -27.1870   20.0380 C   0  0  0  0  0  0  0  0  0  0  0  0
  -23.4670  -30.3910   21.5020 C   0  0  0  0  0  3  0  0  0  0  0  0
  -24.9510  -28.8880   20.0430 C   0  0  0  0  0  0  0  0  0  0  0  0
  -26.0190  -30.6960   21.3790 C   0  0  0  0  0  2  0  0  0  0  0  0
  -26.1180  -29.3320   20.6780 C   0  0  0  0  0  0  0  0  0  0  0  0
  -27.2970  -28.4990   20.6570 C   0  0  0  0  0  3  0  0  0  0  0  0
  -26.1100  -26.8410   19.3720 C   0  0  0  0  0  3  0  0  0  0  0  0
  -24.9600  -27.6570   19.3750 C   0  0  0  0  0  3  0  0  0  0  0  0
  -23.7120  -29.7670   20.1030 C   0  0  0  0  0  2  0  0  0  0  0  0
  -24.7260  -30.9600   22.0850 N   0  0  0  0  0  0  0  0  0  0  0  0
  -23.5360  -31.9900   23.7310 O   0  0  0  0  0  0  0  0  0  0  0  0
  -22.7880  -29.3410   22.4170 C   0  0  0  0  0  0  0  0  0  0  0  0
  -21.4600  -29.1770   22.2800 N   0  0  0  0  0  0  0  0  0  0  0  0
  -23.4570  -28.6770   23.2130 O   0  0  0  0  0  0  0  0  0  0  0  0
  -20.9780  -29.7630   21.6120 H   0  0  0  0  0  0  0  0  0  0  0  0
  -18.0630  -28.0220   22.7840 C   0  0  0  0  0  0  0  0  0  0  0  0
  -20.6340  -28.2090   23.0070 C   0  0  0  0  0  3  0  0  0  0  0  0
  -20.6900  -26.8170   22.3360 C   0  0  0  0  0  2  0  0  0  0  0  0
  -19.5560  -26.5870   21.3300 C   0  0  0  0  0  2  0  0  0  0  0  0
  -18.1930  -26.7180   22.0150 C   0  0  0  0  0  2  0  0  0  0  0  0
  -19.2090  -28.7300   23.2360 C   0  0  0  0  0  0  0  0  0  0  0  0
  -19.0310  -29.9530   23.9180 C   0  0  0  0  0  3  0  0  0  0  0  0
  -17.7430  -30.4680   24.1510 C   0  0  0  0  0  3  0  0  0  0  0  0
  -16.6120  -29.7560   23.7130 C   0  0  0  0  0  3  0  0  0  0  0  0
  -16.7740  -28.5340   23.0360 C   0  0  0  0  0  3  0  0  0  0  0  0
  -25.8940  -32.3600   23.8760 C   0  0  0  0  0  3  0  0  0  0  0  0
  -25.5750  -33.7530   24.2240 N   0  0  0  0  0  0  0  0  0  0  0  0
  -25.8890  -34.8180   23.4750 C   0  0  0  0  0  0  0  0  0  0  0  0
  -26.5440  -34.7310   22.4320 O   0  0  0  0  0  0  0  0  0  0  0  0
  -24.9880  -33.8930   25.0320 H   0  0  0  0  0  0  0  0  0  0  0  0
  -24.1230  -36.5900   23.1930 C   0  0  0  0  0  1  0  0  0  0  0  0
  -25.4000  -36.1990   23.9550 C   0  0  0  0  0  3  0  0  0  0  0  0
  -27.5460  -37.1200   24.7170 C   0  0  0  0  0  1  0  0  0  0  0  0
  -26.4140  -37.2670   23.8070 N   0  0  0  0  0  0  0  0  0  0  0  0
  -25.9970  -38.1820   23.9620 H   0  0  0  0  0  0  0  0  0  0  0  0
  -26.3720  -31.5680   25.1560 C   0  0  1  0  0  0  0  0  0  0  0  0
  -25.2470  -31.3170   26.1870 C   0  0  0  0  0  1  0  0  0  0  0  0
  -26.9650  -30.1950   24.7640 C   0  0  0  0  0  1  0  0  0  0  0  0
  -27.5030  -32.3510   25.8630 C   0  0  0  0  0  1  0  0  0  0  0  0
  2  1  1  0
  3  1  1  0
  4 51  1  0
  4  5  1  0
  4  2  1  0
  5  3  1  0
  6  9  1  0
  7  6  2  0
  7 10  1  0
  9  8  2  0
  9  5  1  0
 10 21  1  0
 10 11  2  0
 11  8  1  0
 11 12  1  0
 13 21  1  0
 14 19  1  0
 15 16  1  0
 15 14  1  0
 17 16  1  0
 17 26  1  0
 17 18  1  0
 19 13  1  0
 19 18  1  0
 20 13  2  0
 21 22  1  0
 23 24  2  0
 24 43  1  0
 25 24  1  0
 25 28  1  0
 26 27  1  0
 26 23  1  0
 27 25  2  0
 28 29  1  0
 29 30  2  0
 31 34  1  0
 31 30  1  0
 32 31  2  0
 33 32  1  0
 33 28  2  0
 34 35  1  0
 35 40  2  0
 35 36  1  0
 36 37  2  0
 37 38  1  0
 38 42  1  0
 39 38  2  0
 40 39  1  0
 41 40  1  0
 43 44  1  0
 44 47  1  0
 44 46  1  0
 45 43  2  0
 48 23  1  0
 48 49  1  0
 50 48  1  0
 51 52  1  0
 53 64  2  0
 54 52  1  0
 54 59  1  0
 55 63  1  0
 55 65  1  0
 56 62  1  0
 56 58  1  0
 57 63  1  0
 58 57  1  0
 59 58  2  0
 60 61  1  0
 60 54  2  0
 61 56  2  0
 62 55  1  0
 63 53  1  0
 65 67  2  0
 66 65  1  0
 68 66  1  0
 69 78  2  0
 69 74  1  0
 70 66  1  0
 70 74  1  0
 71 70  1  0
 72 73  1  0
 72 71  1  0
 73 69  1  0
 74 75  2  0
 75 76  1  0
 77 76  2  0
 78 77  1  0
 79 53  1  0
 79 80  1  0
 79 89  1  0
 80 83  1  0
 81 85  1  0
 81 80  1  0
 82 81  2  0
 85 84  1  0
 87 85  1  0
 87 88  1  0
 87 86  1  0
 89 92  1  1
 89 90  1  0
 91 89  1  0
M  ISO  4  13 100  21 100  51 101  52 101
M  END
>  <TORSDO>  (27) 
F 18

>  <SCORE>  (27) 
-14.730

>  <name>  (27) 
26

>  <ligand_id>  (27) 
26

>  <original_smiles>  (27) 
[H]c1c([H])c([H])c2c(c1[H])C([H])([H])C([H])([H])C([H])([H])C2([H])N([H])C(=O)C1([H])N(C(=O)C([H])(N([H])C(=O)C([H])(N([H])C([H])([H])[H])C([H])([H])[H])C(C([H])([H])[H])(C([H])([H])[H])C([H])([H])[H])C([H])([H])c2c([H])c(OC([H])([H])C3([H])N(c4c([H])c([H])c(N([H])C(=O)N5C([H])([H])C([H])([H])C([H])([H])C([H])(n6nc(-c7c([H])c([H])c(Oc8c([H])c([H])c(F)c([H])c8F)c([H])c7[H])c(C(=O)N([H])[H])c6N([H])[H])C5([H])[H])c(F)c4[H])C([H])([H])C([H])([H])C3([H])[H])c([H])c([H])c2C1([H])[H]

>  <smiles>  (27) 
[H]c1c([H])c([H])c2c(c1[H])C([H])([H])C([H])([H])C([H])([H])C2([H])N([H])C(=O)C1([H])N(C(=O)C([H])(N([H])C(=O)C([H])(N([H])C([H])([H])[H])C([H])([H])[H])C(C([H])([H])[H])(C([H])([H])[H])C([H])([H])[H])C([H])([H])c2c([H])c(OC([H])([H])C3([H])N(c4c([H])c([H])c(N([H])C(=O)N5C([H])([H])C([H])([H])C([H])([H])C([H])(n6nc(-c7c([H])c([H])c(Oc8c([H])c([H])c(F)c([H])c8F)c([H])c7[H])c(C(=O)N([H])[H])c6N([H])[H])C5([H])[H])c(F)c4[H])C([H])([H])C([H])([H])C3([H])[H])c([H])c([H])c2C1([H])[H]

$$$$
27:0:0
     RDKit          3D

 93102  0  0  1  0  0  0  0  0999 V2000
  -29.2510  -22.5560   20.7100 C   0  0  0  0  0  0  0  0  0  0  0  0
  -29.7630  -23.6140   18.6510 C   0  0  0  0  0  2  0  0  0  0  0  0
  -30.2880  -22.1600   18.7060 C   0  0  0  0  0  2  0  0  0  0  0  0
  -29.4490  -23.9890   20.1020 C   0  0  0  0  0  3  0  0  0  0  0  0
  -29.7030  -21.5480   19.9000 N   0  0  0  0  0  0  0  0  0  0  0  0
  -28.7760  -22.4010   21.8390 O   0  0  0  0  0  0  0  0  0  0  0  0
  -31.0520  -19.4210   20.0390 C   0  0  0  0  0  3  0  0  0  0  0  0
  -31.1990  -18.0060   20.1930 C   0  0  0  0  0  3  0  0  0  0  0  0
  -28.8350  -17.8320   20.5510 C   0  0  0  0  0  3  0  0  0  0  0  0
  -29.7950  -20.0930   20.1390 C   0  0  0  0  0  0  0  0  0  0  0  0
  -30.0850  -17.1650   20.4500 C   0  0  0  0  0  0  0  0  0  0  0  0
  -28.6760  -19.2420   20.3880 C   0  0  0  0  0  0  0  0  0  0  0  0
  -27.0600  -19.8550   20.3980 Cl  0  0  0  0  0  0  0  0  0  0  0  0
  -30.9020  -14.7070   20.0680 C   0  0  0  0  0  0  0  0  0  0  0  0
  -30.6730  -12.5050   18.9330 C   0  0  0  0  0  2  0  0  0  0  0  0
  -29.6540  -12.6670   17.7810 C   0  0  0  0  0  2  0  0  0  0  0  0
  -28.2090  -12.4750   18.2860 C   0  0  0  0  0  2  0  0  0  0  0  0
  -27.9180  -13.2860   19.5780 C   0  0  0  0  0  3  0  0  0  0  0  0
  -29.0390  -13.0860   20.6220 C   0  0  0  0  0  2  0  0  0  0  0  0
  -30.3120  -13.4720   19.9890 N   0  0  0  0  0  0  0  0  0  0  0  0
  -32.0240  -14.9140   19.5930 O   0  0  0  0  0  0  0  0  0  0  0  0
  -30.1090  -15.7030   20.5790 N   0  0  0  0  0  0  0  0  0  0  0  0
  -29.2800  -15.3190   21.0050 H   0  0  0  0  0  0  0  0  0  0  0  0
  -25.5680  -13.8440   20.4570 C   0  0  0  0  0  0  0  0  0  0  0  0
  -24.5260  -13.0500   20.8550 C   0  0  0  0  0  0  0  0  0  0  0  0
  -24.9910  -11.7040   20.7410 C   0  0  0  0  0  0  0  0  0  0  0  0
  -26.5990  -12.9790   20.1260 N   0  0  0  0  0  0  0  0  0  0  0  0
  -26.2610  -11.6850   20.3560 N   0  0  0  0  0  0  0  0  0  0  0  0
  -24.2820  -10.4310   20.9230 C   0  0  0  0  0  0  0  0  0  0  0  0
  -24.7060   -9.4790   21.8770 C   0  0  0  0  0  3  0  0  0  0  0  0
  -23.9970   -8.2700   22.0460 C   0  0  0  0  0  3  0  0  0  0  0  0
  -22.8500   -8.0050   21.2610 C   0  0  0  0  0  0  0  0  0  0  0  0
  -22.4470   -8.9450   20.2970 C   0  0  0  0  0  3  0  0  0  0  0  0
  -23.1550  -10.1450   20.1270 C   0  0  0  0  0  3  0  0  0  0  0  0
  -22.1150   -6.8470   21.3370 O   0  0  0  0  0  0  0  0  0  0  0  0
  -21.9390   -6.1830   22.5240 C   0  0  0  0  0  0  0  0  0  0  0  0
  -21.3300   -6.7980   23.6390 C   0  0  0  0  0  3  0  0  0  0  0  0
  -21.1060   -6.0580   24.8180 C   0  0  0  0  0  3  0  0  0  0  0  0
  -21.4820   -4.7030   24.8800 C   0  0  0  0  0  0  0  0  0  0  0  0
  -22.0840   -4.0870   23.7680 C   0  0  0  0  0  3  0  0  0  0  0  0
  -22.3090   -4.8240   22.5930 C   0  0  0  0  0  0  0  0  0  0  0  0
  -22.8700   -4.2200   21.5180 F   0  0  0  0  0  0  0  0  0  0  0  0
  -21.2600   -3.9890   26.0090 F   0  0  0  0  0  0  0  0  0  0  0  0
  -23.1450  -13.5080   21.2280 C   0  0  0  0  0  0  0  0  0  0  0  0
  -22.4760  -12.7780   22.1120 N   0  0  0  0  0  0  0  0  0  0  0  0
  -22.6720  -14.5470   20.7710 O   0  0  0  0  0  0  0  0  0  0  0  0
  -22.8740  -11.9370   22.5040 H   0  0  0  0  0  0  0  0  0  0  0  0
  -21.5520  -13.0650   22.4040 H   0  0  0  0  0  0  0  0  0  0  0  0
  -25.7180  -15.2210   20.3280 N   0  0  0  0  0  0  0  0  0  0  0  0
  -24.9570  -15.8640   20.5180 H   0  0  0  0  0  0  0  0  0  0  0  0
  -26.5350  -15.6790   19.9450 H   0  0  0  0  0  0  0  0  0  0  0  0
  -28.3040  -25.0810   20.3060 C   0  0  0  0  0  2  0  0  0  0  0  0
  -28.5460  -26.5000   19.9390 O   0  0  0  0  0  0  0  0  0  0  0  0
  -24.8360  -31.7530   23.2310 C   0  0  0  0  0  0  0  0  0  0  0  0
  -27.4400  -27.3630   19.9460 C   0  0  0  0  0  0  0  0  0  0  0  0
  -23.6390  -30.4750   21.4910 C   0  0  0  0  0  3  0  0  0  0  0  0
  -25.0930  -28.9970   19.9950 C   0  0  0  0  0  0  0  0  0  0  0  0
  -26.1840  -30.7710   21.3660 C   0  0  0  0  0  2  0  0  0  0  0  0
  -26.2570  -29.4340   20.6400 C   0  0  0  0  0  0  0  0  0  0  0  0
  -27.4340  -28.6290   20.6070 C   0  0  0  0  0  3  0  0  0  0  0  0
  -26.2600  -26.9870   19.2640 C   0  0  0  0  0  3  0  0  0  0  0  0
  -25.0970  -27.7780   19.2980 C   0  0  0  0  0  3  0  0  0  0  0  0
  -23.8660  -29.8820   20.0750 C   0  0  0  0  0  2  0  0  0  0  0  0
  -24.9040  -31.0130   22.0860 N   0  0  0  0  0  0  0  0  0  0  0  0
  -23.7480  -32.0130   23.7660 O   0  0  0  0  0  0  0  0  0  0  0  0
  -22.9490  -29.4110   22.3760 C   0  0  0  0  0  0  0  0  0  0  0  0
  -21.6190  -29.2790   22.2360 N   0  0  0  0  0  0  0  0  0  0  0  0
  -23.6090  -28.7100   23.1470 O   0  0  0  0  0  0  0  0  0  0  0  0
  -21.1480  -29.8990   21.5910 H   0  0  0  0  0  0  0  0  0  0  0  0
  -18.1980  -28.2080   22.7150 C   0  0  0  0  0  0  0  0  0  0  0  0
  -20.7710  -28.3130   22.9370 C   0  0  0  0  0  3  0  0  0  0  0  0
  -20.7860  -26.9400   22.2260 C   0  0  0  0  0  2  0  0  0  0  0  0
  -19.6450  -26.7710   21.2170 C   0  0  0  0  0  2  0  0  0  0  0  0
  -18.2880  -26.9220   21.9110 C   0  0  0  0  0  2  0  0  0  0  0  0
  -19.3640  -28.8680   23.1840 C   0  0  0  0  0  0  0  0  0  0  0  0
  -19.2250  -30.0790   23.8970 C   0  0  0  0  0  3  0  0  0  0  0  0
  -17.9510  -30.6240   24.1480 C   0  0  0  0  0  3  0  0  0  0  0  0
  -16.8000  -29.9570   23.6960 C   0  0  0  0  0  3  0  0  0  0  0  0
  -16.9250  -28.7510   22.9830 C   0  0  0  0  0  3  0  0  0  0  0  0
  -26.1180  -32.3260   23.9100 C   0  0  0  0  0  3  0  0  0  0  0  0
  -25.8240  -33.7070   24.3200 N   0  0  0  0  0  0  0  0  0  0  0  0
  -26.1790  -34.7980   23.6290 C   0  0  0  0  0  0  0  0  0  0  0  0
  -26.8580  -34.7470   22.6010 O   0  0  0  0  0  0  0  0  0  0  0  0
  -25.2230  -33.8210   25.1230 H   0  0  0  0  0  0  0  0  0  0  0  0
  -24.4770  -36.6330   23.3670 C   0  0  0  0  0  1  0  0  0  0  0  0
  -25.7050  -36.1630   24.1650 C   0  0  0  0  0  3  0  0  0  0  0  0
  -27.8360  -36.9740   25.0760 C   0  0  0  0  0  1  0  0  0  0  0  0
  -26.7520  -37.2060   24.1240 N   0  0  0  0  0  0  0  0  0  0  0  0
  -26.3550  -38.1230   24.3120 H   0  0  0  0  0  0  0  0  0  0  0  0
  -26.6000  -31.4710   25.1450 C   0  0  1  0  0  0  0  0  0  0  0  0
  -25.4840  -31.1860   26.1780 C   0  0  0  0  0  1  0  0  0  0  0  0
  -27.1700  -30.1100   24.6830 C   0  0  0  0  0  1  0  0  0  0  0  0
  -27.7490  -32.2060   25.8750 C   0  0  0  0  0  1  0  0  0  0  0  0
  1  6  2  0
  2  3  1  0
  2  4  1  0
  3  5  1  0
  4 52  1  0
  4  1  1  0
  5 10  1  0
  5  1  1  0
  7 10  2  0
  7  8  1  0
  8 11  2  0
 10 12  1  0
 11  9  1  0
 11 22  1  0
 12 13  1  0
 12  9  2  0
 14 22  1  0
 15 20  1  0
 16 17  1  0
 16 15  1  0
 18 17  1  0
 18 27  1  0
 18 19  1  0
 20 14  1  0
 20 19  1  0
 21 14  2  0
 22 23  1  0
 24 25  2  0
 25 44  1  0
 26 25  1  0
 26 29  1  0
 27 28  1  0
 27 24  1  0
 28 26  2  0
 29 30  1  0
 30 31  2  0
 32 35  1  0
 32 31  1  0
 33 32  2  0
 34 33  1  0
 34 29  2  0
 35 36  1  0
 36 41  2  0
 36 37  1  0
 37 38  2  0
 38 39  1  0
 39 43  1  0
 40 39  2  0
 41 40  1  0
 42 41  1  0
 44 45  1  0
 45 48  1  0
 45 47  1  0
 46 44  2  0
 49 24  1  0
 49 50  1  0
 51 49  1  0
 53 55  1  0
 53 52  1  0
 54 65  2  0
 55 60  1  0
 56 64  1  0
 56 66  1  0
 57 63  1  0
 57 59  1  0
 58 64  1  0
 59 58  1  0
 60 59  2  0
 61 62  1  0
 61 55  2  0
 62 57  2  0
 63 56  1  0
 64 54  1  0
 66 68  2  0
 67 66  1  0
 69 67  1  0
 70 79  2  0
 70 75  1  0
 71 67  1  0
 71 75  1  0
 72 71  1  0
 73 74  1  0
 73 72  1  0
 74 70  1  0
 75 76  2  0
 76 77  1  0
 78 77  2  0
 79 78  1  0
 80 54  1  0
 80 81  1  0
 80 90  1  0
 81 84  1  0
 82 86  1  0
 82 81  1  0
 83 82  2  0
 86 85  1  0
 88 86  1  0
 88 89  1  0
 88 87  1  0
 90 93  1  1
 90 91  1  0
 92 90  1  0
M  ISO  4  14 100  22 100  52 101  53 101
M  END
>  <TORSDO>  (28) 
F 18

>  <SCORE>  (28) 
-13.374

>  <name>  (28) 
27

>  <ligand_id>  (28) 
27

>  <original_smiles>  (28) 
[H]c1c([H])c([H])c2c(c1[H])C([H])([H])C([H])([H])C([H])([H])C2([H])N([H])C(=O)C1([H])N(C(=O)C([H])(N([H])C(=O)C([H])(N([H])C([H])([H])[H])C([H])([H])[H])C(C([H])([H])[H])(C([H])([H])[H])C([H])([H])[H])C([H])([H])c2c([H])c(OC([H])([H])C3([H])C(=O)N(c4c([H])c([H])c(N([H])C(=O)N5C([H])([H])C([H])([H])C([H])([H])C([H])(n6nc(-c7c([H])c([H])c(Oc8c([H])c([H])c(F)c([H])c8F)c([H])c7[H])c(C(=O)N([H])[H])c6N([H])[H])C5([H])[H])c([H])c4Cl)C([H])([H])C3([H])[H])c([H])c([H])c2C1([H])[H]

>  <smiles>  (28) 
[H]c1c([H])c([H])c2c(c1[H])C([H])([H])C([H])([H])C([H])([H])C2([H])N([H])C(=O)C1([H])N(C(=O)C([H])(N([H])C(=O)C([H])(N([H])C([H])([H])[H])C([H])([H])[H])C(C([H])([H])[H])(C([H])([H])[H])C([H])([H])[H])C([H])([H])c2c([H])c(OC([H])([H])C3([H])C(=O)N(c4c([H])c([H])c(N([H])C(=O)N5C([H])([H])C([H])([H])C([H])([H])C([H])(n6nc(-c7c([H])c([H])c(Oc8c([H])c([H])c(F)c([H])c8F)c([H])c7[H])c(C(=O)N([H])[H])c6N([H])[H])C5([H])[H])c([H])c4Cl)C([H])([H])C3([H])[H])c([H])c([H])c2C1([H])[H]

$$$$
28:0:0
     RDKit          3D

 90 99  0  0  1  0  0  0  0  0999 V2000
  -28.0880  -19.9090   19.9850 C   0  0  0  0  0  3  0  0  0  0  0  0
  -28.3040  -18.4650   19.9750 C   0  0  0  0  0  3  0  0  0  0  0  0
  -30.4570  -18.7750   20.7790 C   0  0  0  0  0  3  0  0  0  0  0  0
  -28.9950  -20.9400   20.4270 C   0  0  0  0  0  0  0  0  0  0  0  0
  -29.5010  -17.7720   20.3770 C   0  0  0  0  0  0  0  0  0  0  0  0
  -30.2160  -20.2320   20.8110 C   0  0  0  0  0  0  0  0  0  0  0  0
  -31.5280  -21.1950   21.3950 Cl  0  0  0  0  0  0  0  0  0  0  0  0
  -30.4230  -15.0840   20.2960 C   0  0  0  0  0  0  0  0  0  0  0  0
  -30.3570  -12.7180   19.3370 C   0  0  0  0  0  2  0  0  0  0  0  0
  -29.3970  -12.6550   18.1230 C   0  0  0  0  0  2  0  0  0  0  0  0
  -27.9430  -12.4260   18.5790 C   0  0  0  0  0  2  0  0  0  0  0  0
  -27.5470  -13.3370   19.7680 C   0  0  0  0  0  3  0  0  0  0  0  0
  -28.6230  -13.3460   20.8740 C   0  0  0  0  0  2  0  0  0  0  0  0
  -29.8740  -13.7960   20.2490 N   0  0  0  0  0  0  0  0  0  0  0  0
  -31.6250  -15.1880   20.0220 O   0  0  0  0  0  0  0  0  0  0  0  0
  -29.5440  -16.2120   20.4360 N   0  0  0  0  0  0  0  0  0  0  0  0
  -28.6130  -15.8390   20.5360 H   0  0  0  0  0  0  0  0  0  0  0  0
  -25.1800  -13.9050   20.5560 C   0  0  0  0  0  0  0  0  0  0  0  0
  -24.1230  -13.1240   20.9330 C   0  0  0  0  0  0  0  0  0  0  0  0
  -24.5860  -11.7740   20.8750 C   0  0  0  0  0  0  0  0  0  0  0  0
  -26.2190  -13.0300   20.2850 N   0  0  0  0  0  0  0  0  0  0  0  0
  -25.8720  -11.7430   20.5440 N   0  0  0  0  0  0  0  0  0  0  0  0
  -23.8610  -10.5100   21.0560 C   0  0  0  0  0  0  0  0  0  0  0  0
  -24.2950   -9.5350   21.9820 C   0  0  0  0  0  3  0  0  0  0  0  0
  -23.5690   -8.3360   22.1530 C   0  0  0  0  0  3  0  0  0  0  0  0
  -22.3950   -8.1050   21.3980 C   0  0  0  0  0  0  0  0  0  0  0  0
  -21.9800   -9.0690   20.4610 C   0  0  0  0  0  3  0  0  0  0  0  0
  -22.7060  -10.2580   20.2880 C   0  0  0  0  0  3  0  0  0  0  0  0
  -21.6400   -6.9590   21.4780 O   0  0  0  0  0  0  0  0  0  0  0  0
  -21.5760   -6.2190   22.6320 C   0  0  0  0  0  0  0  0  0  0  0  0
  -21.0990   -6.7670   23.8420 C   0  0  0  0  0  3  0  0  0  0  0  0
  -20.9840   -5.9520   24.9860 C   0  0  0  0  0  3  0  0  0  0  0  0
  -21.3360   -4.5910   24.9200 C   0  0  0  0  0  0  0  0  0  0  0  0
  -21.8060   -4.0420   23.7140 C   0  0  0  0  0  3  0  0  0  0  0  0
  -21.9230   -4.8540   22.5720 C   0  0  0  0  0  0  0  0  0  0  0  0
  -22.3560   -4.3160   21.4060 F   0  0  0  0  0  0  0  0  0  0  0  0
  -21.2180   -3.8060   26.0160 F   0  0  0  0  0  0  0  0  0  0  0  0
  -22.7300  -13.5990   21.2300 C   0  0  0  0  0  0  0  0  0  0  0  0
  -22.0130  -12.8920   22.0960 N   0  0  0  0  0  0  0  0  0  0  0  0
  -22.2860  -14.6300   20.7270 O   0  0  0  0  0  0  0  0  0  0  0  0
  -22.3860  -12.0570   22.5240 H   0  0  0  0  0  0  0  0  0  0  0  0
  -21.0790  -13.1940   22.3380 H   0  0  0  0  0  0  0  0  0  0  0  0
  -25.3380  -15.2780   20.3920 N   0  0  0  0  0  0  0  0  0  0  0  0
  -24.5610  -15.9190   20.5110 H   0  0  0  0  0  0  0  0  0  0  0  0
  -26.1470  -15.7140   19.9730 H   0  0  0  0  0  0  0  0  0  0  0  0
  -27.9240  -23.4000   19.5830 C   0  0  0  0  0  2  0  0  0  0  0  0
  -29.2850  -23.6540   21.1110 C   0  0  0  0  0  2  0  0  0  0  0  0
  -28.0950  -24.6300   20.6160 C   0  0  0  0  0  3  0  0  0  0  0  0
  -28.5970  -22.4530   20.5380 N   0  0  0  0  0  0  0  0  0  0  0  0
  -28.2830  -26.1780   20.3500 O   0  0  0  0  0  0  0  0  0  0  0  0
  -24.6100  -31.9440   23.2400 C   0  0  0  0  0  0  0  0  0  0  0  0
  -27.2120  -27.1560   20.3090 C   0  0  0  0  0  0  0  0  0  0  0  0
  -23.4240  -30.5260   21.6080 C   0  0  0  0  0  3  0  0  0  0  0  0
  -24.8840  -28.9190   20.2250 C   0  0  0  0  0  0  0  0  0  0  0  0
  -25.9810  -30.7800   21.4630 C   0  0  0  0  0  2  0  0  0  0  0  0
  -26.0610  -29.3740   20.8340 C   0  0  0  0  0  0  0  0  0  0  0  0
  -27.2250  -28.5120   20.8490 C   0  0  0  0  0  3  0  0  0  0  0  0
  -26.0050  -26.8020   19.6720 C   0  0  0  0  0  3  0  0  0  0  0  0
  -24.8710  -27.6480   19.6270 C   0  0  0  0  0  3  0  0  0  0  0  0
  -23.6580  -29.8230   20.2440 C   0  0  0  0  0  2  0  0  0  0  0  0
  -24.6920  -31.1080   22.1590 N   0  0  0  0  0  0  0  0  0  0  0  0
  -23.5200  -32.2370   23.7540 O   0  0  0  0  0  0  0  0  0  0  0  0
  -22.7330  -29.5390   22.5810 C   0  0  0  0  0  0  0  0  0  0  0  0
  -21.4040  -29.3710   22.4460 N   0  0  0  0  0  0  0  0  0  0  0  0
  -23.3940  -28.9220   23.4200 O   0  0  0  0  0  0  0  0  0  0  0  0
  -20.9240  -29.9210   21.7470 H   0  0  0  0  0  0  0  0  0  0  0  0
  -18.0120  -28.2040   22.9580 C   0  0  0  0  0  0  0  0  0  0  0  0
  -20.5740  -28.4470   23.2240 C   0  0  0  0  0  3  0  0  0  0  0  0
  -20.6620  -27.0100   22.6590 C   0  0  0  0  0  2  0  0  0  0  0  0
  -19.5570  -26.6900   21.6460 C   0  0  0  0  0  2  0  0  0  0  0  0
  -18.1770  -26.8500   22.2890 C   0  0  0  0  0  2  0  0  0  0  0  0
  -19.1370  -28.9610   23.3830 C   0  0  0  0  0  0  0  0  0  0  0  0
  -18.9270  -30.2260   23.9720 C   0  0  0  0  0  3  0  0  0  0  0  0
  -17.6260  -30.7370   24.1380 C   0  0  0  0  0  3  0  0  0  0  0  0
  -16.5160  -29.9790   23.7280 C   0  0  0  0  0  3  0  0  0  0  0  0
  -16.7090  -28.7140   23.1440 C   0  0  0  0  0  3  0  0  0  0  0  0
  -25.8820  -32.5880   23.8720 C   0  0  0  0  0  3  0  0  0  0  0  0
  -26.3800  -31.8350   25.1680 C   0  0  1  0  0  0  0  0  0  0  0  0
  -25.2710  -31.6140   26.2240 C   0  0  0  0  0  1  0  0  0  0  0  0
  -26.9680  -30.4510   24.8100 C   0  0  0  0  0  1  0  0  0  0  0  0
  -27.5190  -32.6410   25.8370 C   0  0  0  0  0  1  0  0  0  0  0  0
  -25.5680  -33.9910   24.1850 N   0  0  0  0  0  0  0  0  0  0  0  0
  -25.8980  -35.0400   23.4200 C   0  0  0  0  0  0  0  0  0  0  0  0
  -26.5650  -34.9270   22.3880 O   0  0  0  0  0  0  0  0  0  0  0  0
  -24.9730  -34.1500   24.9860 H   0  0  0  0  0  0  0  0  0  0  0  0
  -24.1690  -36.8350   23.0590 C   0  0  0  0  0  1  0  0  0  0  0  0
  -25.4130  -36.4330   23.8690 C   0  0  0  0  0  3  0  0  0  0  0  0
  -27.5480  -37.3320   24.6880 C   0  0  0  0  0  1  0  0  0  0  0  0
  -26.4460  -37.4850   23.7430 N   0  0  0  0  0  0  0  0  0  0  0  0
  -26.0380  -38.4070   23.8780 H   0  0  0  0  0  0  0  0  0  0  0  0
  1  4  1  0
  2  1  2  0
  2  5  1  0
  3  6  1  0
  4 49  1  0
  4  6  2  0
  5 16  1  0
  5  3  2  0
  6  7  1  0
  8 16  1  0
  9 14  1  0
 10 11  1  0
 10  9  1  0
 12 11  1  0
 12 21  1  0
 12 13  1  0
 14  8  1  0
 14 13  1  0
 15  8  2  0
 16 17  1  0
 18 19  2  0
 19 38  1  0
 20 19  1  0
 20 23  1  0
 21 22  1  0
 21 18  1  0
 22 20  2  0
 23 24  1  0
 24 25  2  0
 26 29  1  0
 26 25  1  0
 27 26  2  0
 28 27  1  0
 28 23  2  0
 29 30  1  0
 30 31  1  0
 31 32  2  0
 33 32  1  0
 33 37  1  0
 34 33  2  0
 35 30  2  0
 35 34  1  0
 36 35  1  0
 38 39  1  0
 39 42  1  0
 39 41  1  0
 40 38  2  0
 43 44  1  0
 43 18  1  0
 45 43  1  0
 46 49  1  0
 46 48  1  0
 48 50  1  0
 48 47  1  0
 49 47  1  0
 51 62  2  0
 52 50  1  0
 52 57  1  0
 53 61  1  0
 53 63  1  0
 54 60  1  0
 54 56  1  0
 55 61  1  0
 56 57  2  0
 56 55  1  0
 58 52  2  0
 59 58  1  0
 59 54  2  0
 60 53  1  0
 61 51  1  0
 63 65  2  0
 64 63  1  0
 66 64  1  0
 67 76  2  0
 67 72  1  0
 68 64  1  0
 68 72  1  0
 69 68  1  0
 70 71  1  0
 70 69  1  0
 71 67  1  0
 72 73  2  0
 73 74  1  0
 75 74  2  0
 76 75  1  0
 77 51  1  0
 77 82  1  0
 77 78  1  0
 78 81  1  1
 78 79  1  0
 80 78  1  0
 82 85  1  0
 83 87  1  0
 83 82  1  0
 84 83  2  0
 87 86  1  0
 89 87  1  0
 89 90  1  0
 89 88  1  0
M  ISO  4   8 100  16 100  48 101  50 101
M  END
>  <TORSDO>  (29) 
F 17

>  <SCORE>  (29) 
-15.284

>  <name>  (29) 
28

>  <ligand_id>  (29) 
28

>  <original_smiles>  (29) 
[H]c1c([H])c([H])c2c(c1[H])C([H])([H])C([H])([H])C([H])([H])C2([H])N([H])C(=O)C1([H])N(C(=O)C([H])(N([H])C(=O)C([H])(N([H])C([H])([H])[H])C([H])([H])[H])C(C([H])([H])[H])(C([H])([H])[H])C([H])([H])[H])C([H])([H])c2c([H])c(OC3([H])C([H])([H])N(c4c([H])c([H])c(N([H])C(=O)N5C([H])([H])C([H])([H])C([H])([H])C([H])(n6nc(-c7c([H])c([H])c(Oc8c([H])c([H])c(F)c([H])c8F)c([H])c7[H])c(C(=O)N([H])[H])c6N([H])[H])C5([H])[H])c([H])c4Cl)C3([H])[H])c([H])c([H])c2C1([H])[H]

>  <smiles>  (29) 
[H]c1c([H])c([H])c2c(c1[H])C([H])([H])C([H])([H])C([H])([H])C2([H])N([H])C(=O)C1([H])N(C(=O)C([H])(N([H])C(=O)C([H])(N([H])C([H])([H])[H])C([H])([H])[H])C(C([H])([H])[H])(C([H])([H])[H])C([H])([H])[H])C([H])([H])c2c([H])c(OC3([H])C([H])([H])N(c4c([H])c([H])c(N([H])C(=O)N5C([H])([H])C([H])([H])C([H])([H])C([H])(n6nc(-c7c([H])c([H])c(Oc8c([H])c([H])c(F)c([H])c8F)c([H])c7[H])c(C(=O)N([H])[H])c6N([H])[H])C5([H])[H])c([H])c4Cl)C3([H])[H])c([H])c([H])c2C1([H])[H]

$$$$
29:0:0
     RDKit          3D

 91100  0  0  1  0  0  0  0  0999 V2000
  -27.9530  -23.1200   21.6760 C   0  0  0  0  0  2  0  0  0  0  0  0
  -28.7680  -23.3160   19.8020 C   0  0  0  0  0  2  0  0  0  0  0  0
  -27.9600  -24.2990   20.6790 C   0  0  0  0  0  3  0  0  0  0  0  0
  -28.0380  -22.2520   20.4980 N   0  0  0  0  0  0  0  0  0  0  0  0
  -30.2470  -19.2740   21.5160 C   0  0  0  0  0  3  0  0  0  0  0  0
  -29.7050  -20.5830   21.4640 C   0  0  0  0  0  3  0  0  0  0  0  0
  -28.6690  -18.5540   19.8550 C   0  0  0  0  0  3  0  0  0  0  0  0
  -29.7540  -18.2300   20.7000 C   0  0  0  0  0  0  0  0  0  0  0  0
  -28.6440  -20.9420   20.5920 C   0  0  0  0  0  0  0  0  0  0  0  0
  -28.1460  -19.8700   19.7960 C   0  0  0  0  0  0  0  0  0  0  0  0
  -27.1230  -20.1140   18.9380 F   0  0  0  0  0  0  0  0  0  0  0  0
  -30.4270  -16.8800   20.6800 C   0  0  0  0  0  3  0  0  0  0  0  0
  -29.8940  -15.7440   20.3890 N   0  0  0  0  0  0  0  0  0  0  0  0
  -30.7400  -14.6700   20.0550 C   0  0  0  0  0  0  0  0  0  0  0  0
  -30.4570  -12.4830   18.9500 C   0  0  0  0  0  2  0  0  0  0  0  0
  -29.4550  -12.6870   17.7940 C   0  0  0  0  0  2  0  0  0  0  0  0
  -28.0010  -12.5440   18.2880 C   0  0  0  0  0  2  0  0  0  0  0  0
  -27.7220  -13.3520   19.5800 C   0  0  0  0  0  3  0  0  0  0  0  0
  -28.8330  -13.1340   20.6300 C   0  0  0  0  0  2  0  0  0  0  0  0
  -30.1220  -13.4560   20.0040 N   0  0  0  0  0  0  0  0  0  0  0  0
  -31.9020  -14.7940   19.6550 O   0  0  0  0  0  0  0  0  0  0  0  0
  -25.3770  -13.9400   20.4580 C   0  0  0  0  0  0  0  0  0  0  0  0
  -24.3270  -13.1590   20.8610 C   0  0  0  0  0  0  0  0  0  0  0  0
  -24.7770  -11.8080   20.7550 C   0  0  0  0  0  0  0  0  0  0  0  0
  -26.3990  -13.0620   20.1290 N   0  0  0  0  0  0  0  0  0  0  0  0
  -26.0460  -11.7730   20.3650 N   0  0  0  0  0  0  0  0  0  0  0  0
  -24.0570  -10.5430   20.9470 C   0  0  0  0  0  0  0  0  0  0  0  0
  -24.4900   -9.5810   21.8850 C   0  0  0  0  0  3  0  0  0  0  0  0
  -23.7710   -8.3810   22.0650 C   0  0  0  0  0  3  0  0  0  0  0  0
  -22.6050   -8.1320   21.3040 C   0  0  0  0  0  0  0  0  0  0  0  0
  -22.1900   -9.0830   20.3540 C   0  0  0  0  0  3  0  0  0  0  0  0
  -22.9100  -10.2760   20.1740 C   0  0  0  0  0  3  0  0  0  0  0  0
  -21.8600   -6.9820   21.3900 O   0  0  0  0  0  0  0  0  0  0  0  0
  -21.7410   -6.2860   22.5650 C   0  0  0  0  0  0  0  0  0  0  0  0
  -21.2110   -6.8790   23.7320 C   0  0  0  0  0  3  0  0  0  0  0  0
  -21.0420   -6.1090   24.8990 C   0  0  0  0  0  3  0  0  0  0  0  0
  -21.3930   -4.7450   24.9010 C   0  0  0  0  0  0  0  0  0  0  0  0
  -21.9150   -4.1510   23.7380 C   0  0  0  0  0  3  0  0  0  0  0  0
  -22.0860   -4.9190   22.5720 C   0  0  0  0  0  0  0  0  0  0  0  0
  -22.5710   -4.3360   21.4500 F   0  0  0  0  0  0  0  0  0  0  0  0
  -21.2240   -4.0030   26.0200 F   0  0  0  0  0  0  0  0  0  0  0  0
  -22.9520  -13.6350   21.2340 C   0  0  0  0  0  0  0  0  0  0  0  0
  -22.2700  -12.9110   22.1130 N   0  0  0  0  0  0  0  0  0  0  0  0
  -22.4930  -14.6830   20.7810 O   0  0  0  0  0  0  0  0  0  0  0  0
  -22.6560  -12.0640   22.5030 H   0  0  0  0  0  0  0  0  0  0  0  0
  -21.3520  -13.2140   22.4060 H   0  0  0  0  0  0  0  0  0  0  0  0
  -25.5460  -15.3130   20.3320 N   0  0  0  0  0  0  0  0  0  0  0  0
  -24.8190  -15.9760   20.5770 H   0  0  0  0  0  0  0  0  0  0  0  0
  -26.4170  -15.7530   20.0630 H   0  0  0  0  0  0  0  0  0  0  0  0
  -28.4970  -25.6880   21.1180 C   0  0  0  0  0  2  0  0  0  0  0  0
  -28.4220  -26.7460   20.1360 O   0  0  0  0  0  0  0  0  0  0  0  0
  -24.5950  -31.9270   23.2420 C   0  0  0  0  0  0  0  0  0  0  0  0
  -27.2670  -27.5000   20.1580 C   0  0  0  0  0  0  0  0  0  0  0  0
  -23.4010  -30.5220   21.5940 C   0  0  0  0  0  3  0  0  0  0  0  0
  -24.8680  -29.0030   20.1630 C   0  0  0  0  0  0  0  0  0  0  0  0
  -25.9260  -30.9000   21.4000 C   0  0  0  0  0  2  0  0  0  0  0  0
  -26.0230  -29.5290   20.7550 C   0  0  0  0  0  0  0  0  0  0  0  0
  -27.2270  -28.7860   20.7510 C   0  0  0  0  0  3  0  0  0  0  0  0
  -26.1010  -26.9960   19.5480 C   0  0  0  0  0  3  0  0  0  0  0  0
  -24.9030  -27.7370   19.5530 C   0  0  0  0  0  3  0  0  0  0  0  0
  -23.6180  -29.8550   20.2090 C   0  0  0  0  0  2  0  0  0  0  0  0
  -24.6570  -31.1330   22.1370 N   0  0  0  0  0  0  0  0  0  0  0  0
  -23.5110  -32.1870   23.7850 O   0  0  0  0  0  0  0  0  0  0  0  0
  -22.7570  -29.4900   22.5490 C   0  0  0  0  0  0  0  0  0  0  0  0
  -21.4320  -29.3060   22.4270 N   0  0  0  0  0  0  0  0  0  0  0  0
  -23.4460  -28.8610   23.3550 O   0  0  0  0  0  0  0  0  0  0  0  0
  -20.9370  -29.8750   21.7540 H   0  0  0  0  0  0  0  0  0  0  0  0
  -18.0610  -28.1030   22.9380 C   0  0  0  0  0  0  0  0  0  0  0  0
  -20.6220  -28.3590   23.1890 C   0  0  0  0  0  3  0  0  0  0  0  0
  -20.7200  -26.9360   22.5920 C   0  0  0  0  0  2  0  0  0  0  0  0
  -19.6070  -26.6230   21.5880 C   0  0  0  0  0  2  0  0  0  0  0  0
  -18.2330  -26.7580   22.2510 C   0  0  0  0  0  2  0  0  0  0  0  0
  -19.1840  -28.8600   23.3650 C   0  0  0  0  0  0  0  0  0  0  0  0
  -18.9680  -30.1190   23.9670 C   0  0  0  0  0  3  0  0  0  0  0  0
  -17.6650  -30.6200   24.1460 C   0  0  0  0  0  3  0  0  0  0  0  0
  -16.5580  -29.8580   23.7350 C   0  0  0  0  0  3  0  0  0  0  0  0
  -16.7560  -28.6020   23.1350 C   0  0  0  0  0  3  0  0  0  0  0  0
  -25.8750  -32.5670   23.8630 C   0  0  0  0  0  3  0  0  0  0  0  0
  -26.3980  -31.7980   25.1380 C   0  0  1  0  0  0  0  0  0  0  0  0
  -25.3070  -31.5450   26.2050 C   0  0  0  0  0  1  0  0  0  0  0  0
  -26.9930  -30.4270   24.7400 C   0  0  0  0  0  1  0  0  0  0  0  0
  -27.5420  -32.6010   25.8020 C   0  0  0  0  0  1  0  0  0  0  0  0
  -25.5610  -33.9630   24.1920 N   0  0  0  0  0  0  0  0  0  0  0  0
  -25.8880  -35.0150   23.4290 C   0  0  0  0  0  0  0  0  0  0  0  0
  -26.5610  -34.9130   22.4000 O   0  0  0  0  0  0  0  0  0  0  0  0
  -24.9650  -34.1140   24.9920 H   0  0  0  0  0  0  0  0  0  0  0  0
  -24.1530  -36.7980   23.0620 C   0  0  0  0  0  1  0  0  0  0  0  0
  -25.3920  -36.4020   23.8810 C   0  0  0  0  0  3  0  0  0  0  0  0
  -27.5150  -37.3000   24.7280 C   0  0  0  0  0  1  0  0  0  0  0  0
  -26.4200  -37.4600   23.7750 N   0  0  0  0  0  0  0  0  0  0  0  0
  -26.0090  -38.3780   23.9180 H   0  0  0  0  0  0  0  0  0  0  0  0
  2  4  1  0
  2  3  1  0
  3 50  1  0
  3  1  1  0
  4  9  1  0
  4  1  1  0
  6  5  1  0
  7  8  1  0
  8  5  2  0
  9  6  2  0
 10  7  2  0
 10  9  1  0
 11 10  1  0
 12  8  1  0
 13 12  2  0
 14 13  1  0
 15 20  1  0
 16 17  1  0
 16 15  1  0
 18 17  1  0
 18 25  1  0
 18 19  1  0
 20 14  1  0
 20 19  1  0
 21 14  2  0
 22 23  2  0
 23 42  1  0
 24 23  1  0
 24 27  1  0
 25 26  1  0
 25 22  1  0
 26 24  2  0
 27 28  1  0
 28 29  2  0
 30 33  1  0
 30 29  1  0
 31 30  2  0
 32 31  1  0
 32 27  2  0
 33 34  1  0
 34 39  2  0
 34 35  1  0
 35 36  2  0
 36 37  1  0
 37 41  1  0
 38 37  2  0
 39 38  1  0
 40 39  1  0
 42 43  1  0
 43 46  1  0
 43 45  1  0
 44 42  2  0
 47 22  1  0
 47 48  1  0
 49 47  1  0
 51 53  1  0
 51 50  1  0
 52 63  2  0
 53 58  1  0
 54 62  1  0
 54 64  1  0
 55 61  1  0
 55 57  1  0
 56 62  1  0
 57 56  1  0
 58 57  2  0
 59 60  1  0
 59 53  2  0
 60 55  2  0
 61 54  1  0
 62 52  1  0
 64 66  2  0
 65 64  1  0
 67 65  1  0
 68 77  2  0
 68 73  1  0
 69 65  1  0
 69 73  1  0
 70 69  1  0
 71 72  1  0
 71 70  1  0
 72 68  1  0
 73 74  2  0
 74 75  1  0
 76 75  2  0
 77 76  1  0
 78 52  1  0
 78 83  1  0
 78 79  1  0
 79 82  1  1
 79 80  1  0
 81 79  1  0
 83 86  1  0
 84 88  1  0
 84 83  1  0
 85 84  2  0
 88 87  1  0
 90 88  1  0
 90 91  1  0
 90 89  1  0
M  ISO  4  13 100  14 100  50 101  51 101
M  END
>  <TORSDO>  (30) 
F 19

>  <SCORE>  (30) 
-14.266

>  <name>  (30) 
29

>  <ligand_id>  (30) 
29

>  <original_smiles>  (30) 
[H]C(=NC(=O)N1C([H])([H])C([H])([H])C([H])([H])C([H])(n2nc(-c3c([H])c([H])c(Oc4c([H])c([H])c(F)c([H])c4F)c([H])c3[H])c(C(=O)N([H])[H])c2N([H])[H])C1([H])[H])c1c([H])c([H])c(N2C([H])([H])C([H])(C([H])([H])Oc3c([H])c([H])c4c(c3[H])C([H])([H])N(C(=O)C([H])(N([H])C(=O)C([H])(N([H])C([H])([H])[H])C([H])([H])[H])C(C([H])([H])[H])(C([H])([H])[H])C([H])([H])[H])C([H])(C(=O)N([H])C3([H])c5c([H])c([H])c([H])c([H])c5C([H])([H])C([H])([H])C3([H])[H])C4([H])[H])C2([H])[H])c(F)c1[H]

>  <smiles>  (30) 
[H]C(=NC(=O)N1C([H])([H])C([H])([H])C([H])([H])C([H])(n2nc(-c3c([H])c([H])c(Oc4c([H])c([H])c(F)c([H])c4F)c([H])c3[H])c(C(=O)N([H])[H])c2N([H])[H])C1([H])[H])c1c([H])c([H])c(N2C([H])([H])C([H])(C([H])([H])Oc3c([H])c([H])c4c(c3[H])C([H])([H])N(C(=O)C([H])(N([H])C(=O)C([H])(N([H])C([H])([H])[H])C([H])([H])[H])C(C([H])([H])[H])(C([H])([H])[H])C([H])([H])[H])C([H])(C(=O)N([H])C3([H])c5c([H])c([H])c([H])c([H])c5C([H])([H])C([H])([H])C3([H])[H])C4([H])[H])C2([H])[H])c(F)c1[H]

$$$$
30:0:0
     RDKit          3D

 93102  0  0  1  0  0  0  0  0999 V2000
  -27.7670  -22.5800   20.3420 C   0  0  0  0  0  0  0  0  0  0  0  0
  -29.7430  -22.9110   20.8800 C   0  0  0  0  0  2  0  0  0  0  0  0
  -28.4310  -23.7240   21.1880 C   0  0  0  0  0  3  0  0  0  0  0  0
  -28.8480  -21.7450   20.6900 N   0  0  0  0  0  0  0  0  0  0  0  0
  -26.7670  -22.3950   19.6780 O   0  0  0  0  0  0  0  0  0  0  0  0
  -28.2920  -19.3240   20.1840 C   0  0  0  0  0  3  0  0  0  0  0  0
  -28.5440  -17.9210   20.1220 C   0  0  0  0  0  3  0  0  0  0  0  0
  -29.2100  -20.2980   20.6720 C   0  0  0  0  0  0  0  0  0  0  0  0
  -29.7590  -17.3210   20.5530 C   0  0  0  0  0  0  0  0  0  0  0  0
  -30.4170  -19.6770   21.1470 C   0  0  0  0  0  0  0  0  0  0  0  0
  -30.6880  -18.2570   21.0980 C   0  0  0  0  0  0  0  0  0  0  0  0
  -31.3790  -20.4760   21.6680 F   0  0  0  0  0  0  0  0  0  0  0  0
  -31.8920  -17.8150   21.5300 F   0  0  0  0  0  0  0  0  0  0  0  0
  -30.7260  -14.8660   20.7870 C   0  0  0  0  0  0  0  0  0  0  0  0
  -30.6310  -12.5140   19.9450 C   0  0  0  0  0  2  0  0  0  0  0  0
  -29.7860  -12.4260   18.6540 C   0  0  0  0  0  2  0  0  0  0  0  0
  -28.2810  -12.3240   18.9700 C   0  0  0  0  0  2  0  0  0  0  0  0
  -27.8050  -13.2860   20.0930 C   0  0  0  0  0  3  0  0  0  0  0  0
  -28.7790  -13.3070   21.2890 C   0  0  0  0  0  2  0  0  0  0  0  0
  -30.1060  -13.6340   20.7540 N   0  0  0  0  0  0  0  0  0  0  0  0
  -31.9590  -14.9150   20.7860 O   0  0  0  0  0  0  0  0  0  0  0  0
  -30.0770  -15.8120   18.6900 C   0  0  0  0  0  1  0  0  0  0  0  0
  -30.0300  -15.9090   20.1640 N   0  0  0  0  0  0  0  0  0  0  0  0
  -25.3680  -13.8860   20.6260 C   0  0  0  0  0  0  0  0  0  0  0  0
  -24.2780  -13.1160   20.9250 C   0  0  0  0  0  0  0  0  0  0  0  0
  -24.7470  -11.7670   20.9700 C   0  0  0  0  0  0  0  0  0  0  0  0
  -26.4300  -13.0060   20.4990 N   0  0  0  0  0  0  0  0  0  0  0  0
  -26.0590  -11.7290   20.7720 N   0  0  0  0  0  0  0  0  0  0  0  0
  -24.0140  -10.5050   21.1300 C   0  0  0  0  0  0  0  0  0  0  0  0
  -24.3880   -9.5530   22.1030 C   0  0  0  0  0  3  0  0  0  0  0  0
  -23.6550   -8.3550   22.2520 C   0  0  0  0  0  3  0  0  0  0  0  0
  -22.5340   -8.1020   21.4260 C   0  0  0  0  0  0  0  0  0  0  0  0
  -22.1810   -9.0430   20.4420 C   0  0  0  0  0  3  0  0  0  0  0  0
  -22.9150  -10.2320   20.2920 C   0  0  0  0  0  3  0  0  0  0  0  0
  -21.7790   -6.9570   21.4820 O   0  0  0  0  0  0  0  0  0  0  0  0
  -21.6660   -6.2250   22.6360 C   0  0  0  0  0  0  0  0  0  0  0  0
  -21.1720   -6.7910   23.8320 C   0  0  0  0  0  3  0  0  0  0  0  0
  -21.0080   -5.9850   24.9770 C   0  0  0  0  0  3  0  0  0  0  0  0
  -21.3270   -4.6140   24.9260 C   0  0  0  0  0  0  0  0  0  0  0  0
  -21.8130   -4.0480   23.7350 C   0  0  0  0  0  3  0  0  0  0  0  0
  -21.9790   -4.8510   22.5920 C   0  0  0  0  0  0  0  0  0  0  0  0
  -22.4280   -4.2960   21.4410 F   0  0  0  0  0  0  0  0  0  0  0  0
  -21.1610   -3.8390   26.0230 F   0  0  0  0  0  0  0  0  0  0  0  0
  -22.8600  -13.5910   21.0670 C   0  0  0  0  0  0  0  0  0  0  0  0
  -22.0690  -12.9170   21.8940 N   0  0  0  0  0  0  0  0  0  0  0  0
  -22.4610  -14.5940   20.4780 O   0  0  0  0  0  0  0  0  0  0  0  0
  -22.4040  -12.1070   22.3930 H   0  0  0  0  0  0  0  0  0  0  0  0
  -21.1150  -13.2170   22.0310 H   0  0  0  0  0  0  0  0  0  0  0  0
  -25.5430  -15.2520   20.4290 N   0  0  0  0  0  0  0  0  0  0  0  0
  -24.7760  -15.9140   20.4750 H   0  0  0  0  0  0  0  0  0  0  0  0
  -26.4280  -15.6830   20.1950 H   0  0  0  0  0  0  0  0  0  0  0  0
  -27.9930  -25.2890   21.1210 C   0  0  0  0  0  2  0  0  0  0  0  0
  -28.1640  -26.3790   20.1160 O   0  0  0  0  0  0  0  0  0  0  0  0
  -24.5220  -31.8780   23.1490 C   0  0  0  0  0  0  0  0  0  0  0  0
  -27.1000  -27.3020   20.0760 C   0  0  0  0  0  0  0  0  0  0  0  0
  -23.3010  -30.4720   21.5260 C   0  0  0  0  0  3  0  0  0  0  0  0
  -24.7390  -28.9220   20.0800 C   0  0  0  0  0  0  0  0  0  0  0  0
  -25.8370  -30.7930   21.3100 C   0  0  0  0  0  2  0  0  0  0  0  0
  -25.9160  -29.4120   20.6660 C   0  0  0  0  0  0  0  0  0  0  0  0
  -27.1020  -28.6120   20.6560 C   0  0  0  0  0  3  0  0  0  0  0  0
  -25.9080  -26.8760   19.4580 C   0  0  0  0  0  3  0  0  0  0  0  0
  -24.7390  -27.6610   19.4630 C   0  0  0  0  0  3  0  0  0  0  0  0
  -23.5000  -29.7940   20.1440 C   0  0  0  0  0  2  0  0  0  0  0  0
  -24.5730  -31.0660   22.0510 N   0  0  0  0  0  0  0  0  0  0  0  0
  -23.4450  -32.1530   23.6970 O   0  0  0  0  0  0  0  0  0  0  0  0
  -22.6520  -29.4570   22.4990 C   0  0  0  0  0  0  0  0  0  0  0  0
  -21.3250  -29.2770   22.3920 N   0  0  0  0  0  0  0  0  0  0  0  0
  -23.3430  -28.8340   23.3100 O   0  0  0  0  0  0  0  0  0  0  0  0
  -20.8250  -29.8310   21.7090 H   0  0  0  0  0  0  0  0  0  0  0  0
  -17.9550  -28.0810   22.9500 C   0  0  0  0  0  0  0  0  0  0  0  0
  -20.5190  -28.3400   23.1760 C   0  0  0  0  0  3  0  0  0  0  0  0
  -20.6100  -26.9090   22.5990 C   0  0  0  0  0  2  0  0  0  0  0  0
  -19.4910  -26.5870   21.6030 C   0  0  0  0  0  2  0  0  0  0  0  0
  -18.1200  -26.7320   22.2710 C   0  0  0  0  0  2  0  0  0  0  0  0
  -19.0820  -28.8440   23.3600 C   0  0  0  0  0  0  0  0  0  0  0  0
  -18.8720  -30.1060   23.9570 C   0  0  0  0  0  3  0  0  0  0  0  0
  -17.5700  -30.6060   24.1460 C   0  0  0  0  0  3  0  0  0  0  0  0
  -16.4590  -29.8410   23.7510 C   0  0  0  0  0  3  0  0  0  0  0  0
  -16.6530  -28.5800   23.1570 C   0  0  0  0  0  3  0  0  0  0  0  0
  -25.8120  -32.5160   23.7510 C   0  0  0  0  0  3  0  0  0  0  0  0
  -25.4940  -33.9050   24.1120 N   0  0  0  0  0  0  0  0  0  0  0  0
  -25.8120  -34.9760   23.3710 C   0  0  0  0  0  0  0  0  0  0  0  0
  -26.4740  -34.8980   22.3320 O   0  0  0  0  0  0  0  0  0  0  0  0
  -24.9070  -34.0390   24.9210 H   0  0  0  0  0  0  0  0  0  0  0  0
  -24.0810  -36.7730   23.0560 C   0  0  0  0  0  1  0  0  0  0  0  0
  -25.3200  -36.3520   23.8610 C   0  0  0  0  0  3  0  0  0  0  0  0
  -27.4510  -37.2210   24.7190 C   0  0  0  0  0  1  0  0  0  0  0  0
  -26.3510  -37.4100   23.7770 N   0  0  0  0  0  0  0  0  0  0  0  0
  -25.9420  -38.3250   23.9470 H   0  0  0  0  0  0  0  0  0  0  0  0
  -26.3650  -31.7310   25.0030 C   0  0  1  0  0  0  0  0  0  0  0  0
  -25.2990  -31.4690   26.0940 C   0  0  0  0  0  1  0  0  0  0  0  0
  -26.9500  -30.3640   24.5800 C   0  0  0  0  0  1  0  0  0  0  0  0
  -27.5230  -32.5260   25.6500 C   0  0  0  0  0  1  0  0  0  0  0  0
  1  4  1  0
  1  3  1  0
  2  3  1  0
  3 52  1  0
  4  2  1  0
  5  1  2  0
  6  8  1  0
  7  6  2  0
  7  9  1  0
  8  4  1  0
  8 10  2  0
  9 11  2  0
 10 12  1  0
 11 10  1  0
 11 13  1  0
 15 20  1  0
 16 17  1  0
 16 15  1  0
 18 17  1  0
 18 27  1  0
 18 19  1  0
 20 14  1  0
 20 19  1  0
 21 14  2  0
 22 23  1  0
 23  9  1  0
 23 14  1  0
 24 25  2  0
 25 26  1  0
 25 44  1  0
 26 29  1  0
 27 24  1  0
 27 28  1  0
 28 26  2  0
 29 30  1  0
 30 31  2  0
 32 35  1  0
 32 31  1  0
 33 32  2  0
 34 33  1  0
 34 29  2  0
 35 36  1  0
 36 37  1  0
 37 38  2  0
 39 38  1  0
 39 43  1  0
 40 39  2  0
 41 36  2  0
 41 40  1  0
 42 41  1  0
 44 45  1  0
 45 48  1  0
 45 47  1  0
 46 44  2  0
 49 50  1  0
 49 24  1  0
 51 49  1  0
 53 52  1  0
 54 65  2  0
 55 53  1  0
 55 60  1  0
 56 64  1  0
 56 66  1  0
 57 63  1  0
 57 59  1  0
 58 64  1  0
 59 58  1  0
 60 59  2  0
 61 62  1  0
 61 55  2  0
 62 57  2  0
 63 56  1  0
 64 54  1  0
 66 68  2  0
 67 66  1  0
 69 67  1  0
 70 79  2  0
 70 75  1  0
 71 67  1  0
 71 75  1  0
 72 71  1  0
 73 74  1  0
 73 72  1  0
 74 70  1  0
 75 76  2  0
 76 77  1  0
 78 77  2  0
 79 78  1  0
 80 54  1  0
 80 81  1  0
 80 90  1  0
 81 84  1  0
 82 86  1  0
 82 81  1  0
 83 82  2  0
 86 85  1  0
 88 86  1  0
 88 89  1  0
 88 87  1  0
 90 93  1  1
 90 91  1  0
 92 90  1  0
M  ISO  4  14 100  23 100  52 101  53 101
M  END
>  <TORSDO>  (31) 
F 18

>  <SCORE>  (31) 
-14.788

>  <name>  (31) 
30

>  <ligand_id>  (31) 
30

>  <original_smiles>  (31) 
[H]c1c([H])c([H])c2c(c1[H])C([H])([H])C([H])([H])C([H])([H])C2([H])N([H])C(=O)C1([H])N(C(=O)C([H])(N([H])C(=O)C([H])(N([H])C([H])([H])[H])C([H])([H])[H])C(C([H])([H])[H])(C([H])([H])[H])C([H])([H])[H])C([H])([H])c2c([H])c(OC([H])([H])C3([H])C(=O)N(c4c([H])c([H])c(N(C(=O)N5C([H])([H])C([H])([H])C([H])([H])C([H])(n6nc(-c7c([H])c([H])c(Oc8c([H])c([H])c(F)c([H])c8F)c([H])c7[H])c(C(=O)N([H])[H])c6N([H])[H])C5([H])[H])C([H])([H])[H])c(F)c4F)C3([H])[H])c([H])c([H])c2C1([H])[H]

>  <smiles>  (31) 
[H]c1c([H])c([H])c2c(c1[H])C([H])([H])C([H])([H])C([H])([H])C2([H])N([H])C(=O)C1([H])N(C(=O)C([H])(N([H])C(=O)C([H])(N([H])C([H])([H])[H])C([H])([H])[H])C(C([H])([H])[H])(C([H])([H])[H])C([H])([H])[H])C([H])([H])c2c([H])c(OC([H])([H])C3([H])C(=O)N(c4c([H])c([H])c(N(C(=O)N5C([H])([H])C([H])([H])C([H])([H])C([H])(n6nc(-c7c([H])c([H])c(Oc8c([H])c([H])c(F)c([H])c8F)c([H])c7[H])c(C(=O)N([H])[H])c6N([H])[H])C5([H])[H])C([H])([H])[H])c(F)c4F)C3([H])[H])c([H])c([H])c2C1([H])[H]

$$$$
31:0:0
     RDKit          3D

 91100  0  0  1  0  0  0  0  0999 V2000
  -28.5150  -22.5460   20.6340 C   0  0  0  0  0  0  0  0  0  0  0  0
  -29.4980  -23.5900   18.8360 C   0  0  0  0  0  2  0  0  0  0  0  0
  -29.6750  -21.9870   18.8150 C   0  0  0  0  0  2  0  0  0  0  0  0
  -28.3440  -24.0450   19.7790 C   0  0  0  0  0  3  0  0  0  0  0  0
  -29.1470  -21.3440   20.0390 N   0  0  0  0  0  0  0  0  0  0  0  0
  -28.0700  -22.4980   21.7850 O   0  0  0  0  0  0  0  0  0  0  0  0
  -27.3420  -18.6110   19.1660 C   0  0  0  0  0  3  0  0  0  0  0  0
  -28.2950  -18.1440   18.2280 C   0  0  0  0  0  3  0  0  0  0  0  0
  -27.7720  -19.3420   20.2980 C   0  0  0  0  0  3  0  0  0  0  0  0
  -29.6740  -18.1560   18.5520 C   0  0  0  0  0  3  0  0  0  0  0  0
  -29.1360  -19.6910   20.3160 C   0  0  0  0  0  3  0  0  0  0  0  0
  -29.9660  -18.3800   19.9100 C   0  0  0  0  0  3  0  0  0  0  0  0
  -30.7500  -15.4880   20.1620 C   0  0  0  0  0  0  0  0  0  0  0  0
  -30.7240  -12.9930   19.3320 C   0  0  0  0  0  2  0  0  0  0  0  0
  -29.8150  -12.7530   18.0960 C   0  0  0  0  0  2  0  0  0  0  0  0
  -28.3700  -12.4710   18.5370 C   0  0  0  0  0  2  0  0  0  0  0  0
  -27.9170  -13.4490   19.6460 C   0  0  0  0  0  3  0  0  0  0  0  0
  -28.9580  -13.6350   20.7750 C   0  0  0  0  0  2  0  0  0  0  0  0
  -30.1880  -14.1600   20.1510 N   0  0  0  0  0  0  0  0  0  0  0  0
  -31.9510  -15.4450   19.8470 O   0  0  0  0  0  0  0  0  0  0  0  0
  -30.0440  -16.8050   20.4430 N   0  0  0  0  0  0  0  0  0  0  0  0
  -29.2080  -16.5880   20.9650 H   0  0  0  0  0  0  0  0  0  0  0  0
  -25.5620  -14.0310   20.4110 C   0  0  0  0  0  0  0  0  0  0  0  0
  -24.4880  -13.2680   20.7750 C   0  0  0  0  0  0  0  0  0  0  0  0
  -24.9330  -11.9110   20.7390 C   0  0  0  0  0  0  0  0  0  0  0  0
  -26.5890  -13.1400   20.1590 N   0  0  0  0  0  0  0  0  0  0  0  0
  -26.2250  -11.8580   20.4240 N   0  0  0  0  0  0  0  0  0  0  0  0
  -24.1840  -10.6600   20.9280 C   0  0  0  0  0  0  0  0  0  0  0  0
  -24.5670   -9.7080   21.8970 C   0  0  0  0  0  3  0  0  0  0  0  0
  -23.8150   -8.5250   22.0750 C   0  0  0  0  0  3  0  0  0  0  0  0
  -22.6660   -8.2880   21.2820 C   0  0  0  0  0  0  0  0  0  0  0  0
  -22.3050   -9.2290   20.3020 C   0  0  0  0  0  3  0  0  0  0  0  0
  -23.0560  -10.4020   20.1230 C   0  0  0  0  0  3  0  0  0  0  0  0
  -21.8920   -7.1560   21.3680 O   0  0  0  0  0  0  0  0  0  0  0  0
  -21.7400   -6.4740   22.5480 C   0  0  0  0  0  0  0  0  0  0  0  0
  -21.1920   -7.0860   23.6970 C   0  0  0  0  0  3  0  0  0  0  0  0
  -20.9880   -6.3290   24.8680 C   0  0  0  0  0  3  0  0  0  0  0  0
  -21.3230   -4.9630   24.8910 C   0  0  0  0  0  0  0  0  0  0  0  0
  -21.8620   -4.3500   23.7470 C   0  0  0  0  0  3  0  0  0  0  0  0
  -22.0670   -5.1020   22.5770 C   0  0  0  0  0  0  0  0  0  0  0  0
  -22.5680   -4.5030   21.4710 F   0  0  0  0  0  0  0  0  0  0  0  0
  -21.1200   -4.2320   26.0140 F   0  0  0  0  0  0  0  0  0  0  0  0
  -23.0990  -13.7680   21.0470 C   0  0  0  0  0  0  0  0  0  0  0  0
  -22.3730  -13.1030   21.9390 N   0  0  0  0  0  0  0  0  0  0  0  0
  -22.6700  -14.7850   20.5030 O   0  0  0  0  0  0  0  0  0  0  0  0
  -22.7350  -12.2790   22.3970 H   0  0  0  0  0  0  0  0  0  0  0  0
  -21.4420  -13.4230   22.1670 H   0  0  0  0  0  0  0  0  0  0  0  0
  -25.7480  -15.4000   20.2460 N   0  0  0  0  0  0  0  0  0  0  0  0
  -24.9990  -16.0660   20.3910 H   0  0  0  0  0  0  0  0  0  0  0  0
  -26.6160  -15.8350   19.9630 H   0  0  0  0  0  0  0  0  0  0  0  0
  -28.3120  -25.6800   20.2740 O   0  0  0  0  0  0  0  0  0  0  0  0
  -24.6100  -31.7570   23.0410 C   0  0  0  0  0  0  0  0  0  0  0  0
  -27.3000  -26.8070   20.1280 C   0  0  0  0  0  0  0  0  0  0  0  0
  -23.4690  -30.3160   21.4020 C   0  0  0  0  0  3  0  0  0  0  0  0
  -24.9710  -28.7070   20.0190 C   0  0  0  0  0  0  0  0  0  0  0  0
  -26.0390  -30.5470   21.3010 C   0  0  0  0  0  2  0  0  0  0  0  0
  -26.1430  -29.1210   20.6620 C   0  0  0  0  0  0  0  0  0  0  0  0
  -27.2920  -28.1930   20.6930 C   0  0  0  0  0  3  0  0  0  0  0  0
  -26.0980  -26.5750   19.4180 C   0  0  0  0  0  3  0  0  0  0  0  0
  -24.9800  -27.4580   19.3750 C   0  0  0  0  0  3  0  0  0  0  0  0
  -23.7370  -29.6170   20.0390 C   0  0  0  0  0  2  0  0  0  0  0  0
  -24.7270  -30.9050   21.9670 N   0  0  0  0  0  0  0  0  0  0  0  0
  -23.5070  -32.0320   23.5410 O   0  0  0  0  0  0  0  0  0  0  0  0
  -22.7750  -29.3240   22.3730 C   0  0  0  0  0  0  0  0  0  0  0  0
  -21.4460  -29.1490   22.2470 N   0  0  0  0  0  0  0  0  0  0  0  0
  -23.4400  -28.7130   23.2120 O   0  0  0  0  0  0  0  0  0  0  0  0
  -20.9600  -29.6910   21.5470 H   0  0  0  0  0  0  0  0  0  0  0  0
  -18.0710  -27.9200   22.7740 C   0  0  0  0  0  0  0  0  0  0  0  0
  -20.6310  -28.2070   23.0220 C   0  0  0  0  0  3  0  0  0  0  0  0
  -20.7390  -26.7750   22.4470 C   0  0  0  0  0  2  0  0  0  0  0  0
  -19.6340  -26.4440   21.4390 C   0  0  0  0  0  2  0  0  0  0  0  0
  -18.2550  -26.5750   22.0900 C   0  0  0  0  0  2  0  0  0  0  0  0
  -19.1850  -28.6920   23.1980 C   0  0  0  0  0  0  0  0  0  0  0  0
  -18.9560  -29.9470   23.8020 C   0  0  0  0  0  3  0  0  0  0  0  0
  -17.6460  -30.4320   23.9840 C   0  0  0  0  0  3  0  0  0  0  0  0
  -16.5470  -29.6570   23.5730 C   0  0  0  0  0  3  0  0  0  0  0  0
  -16.7600  -28.4020   22.9750 C   0  0  0  0  0  3  0  0  0  0  0  0
  -25.8570  -32.4380   23.6840 C   0  0  0  0  0  3  0  0  0  0  0  0
  -25.4860  -33.8170   24.0480 N   0  0  0  0  0  0  0  0  0  0  0  0
  -25.7820  -34.9100   23.3310 C   0  0  0  0  0  0  0  0  0  0  0  0
  -26.4590  -34.8630   22.3000 O   0  0  0  0  0  0  0  0  0  0  0  0
  -24.8900  -33.9240   24.8560 H   0  0  0  0  0  0  0  0  0  0  0  0
  -24.0010  -36.6630   23.0260 C   0  0  0  0  0  1  0  0  0  0  0  0
  -25.2490  -36.2680   23.8340 C   0  0  0  0  0  3  0  0  0  0  0  0
  -27.3400  -37.2020   24.7230 C   0  0  0  0  0  1  0  0  0  0  0  0
  -26.2470  -37.3580   23.7650 N   0  0  0  0  0  0  0  0  0  0  0  0
  -25.8080  -38.2600   23.9290 H   0  0  0  0  0  0  0  0  0  0  0  0
  -26.3900  -31.6710   24.9580 C   0  0  1  0  0  0  0  0  0  0  0  0
  -25.2980  -31.3740   26.0120 C   0  0  0  0  0  1  0  0  0  0  0  0
  -27.0370  -30.3250   24.5640 C   0  0  0  0  0  1  0  0  0  0  0  0
  -27.4990  -32.5030   25.6440 C   0  0  0  0  0  1  0  0  0  0  0  0
  1  6  2  0
  2  4  1  0
  3  2  1  0
  3  5  1  0
  4 51  1  0
  4  1  1  0
  5  1  1  0
  7  9  2  0
  8 10  2  0
  8  7  1  0
  9 11  1  0
 10 12  1  0
 11  5  1  0
 12 11  1  0
 12 21  1  0
 13 21  1  0
 14 19  1  0
 15 16  1  0
 15 14  1  0
 17 16  1  0
 17 26  1  0
 17 18  1  0
 19 13  1  0
 19 18  1  0
 20 13  2  0
 21 22  1  0
 23 24  2  0
 24 43  1  0
 25 24  1  0
 25 28  1  0
 26 23  1  0
 26 27  1  0
 27 25  2  0
 28 29  1  0
 29 30  2  0
 31 34  1  0
 31 30  1  0
 32 31  2  0
 33 32  1  0
 33 28  2  0
 34 35  1  0
 35 40  2  0
 35 36  1  0
 36 37  2  0
 37 38  1  0
 38 42  1  0
 39 38  2  0
 40 39  1  0
 41 40  1  0
 43 44  1  0
 44 47  1  0
 44 46  1  0
 45 43  2  0
 48 49  1  0
 48 23  1  0
 50 48  1  0
 52 63  2  0
 53 51  1  0
 53 58  1  0
 54 62  1  0
 54 64  1  0
 55 61  1  0
 55 57  1  0
 56 62  1  0
 57 58  2  0
 57 56  1  0
 59 53  2  0
 60 59  1  0
 60 55  2  0
 61 54  1  0
 62 52  1  0
 64 66  2  0
 65 64  1  0
 67 65  1  0
 68 77  2  0
 68 73  1  0
 69 65  1  0
 69 73  1  0
 70 69  1  0
 71 72  1  0
 71 70  1  0
 72 68  1  0
 73 74  2  0
 74 75  1  0
 76 75  2  0
 77 76  1  0
 78 52  1  0
 78 79  1  0
 78 88  1  0
 79 82  1  0
 80 84  1  0
 80 79  1  0
 81 80  2  0
 84 83  1  0
 86 84  1  0
 86 87  1  0
 86 85  1  0
 88 91  1  1
 88 89  1  0
 90 88  1  0
M  ISO  4   4 101  13 100  21 100  51 101
M  END
>  <TORSDO>  (32) 
F 17

>  <SCORE>  (32) 
-16.230

>  <name>  (32) 
31

>  <ligand_id>  (32) 
31

>  <original_smiles>  (32) 
[H]c1c([H])c([H])c(N2C(=O)C([H])(Oc3c([H])c([H])c4c(c3[H])C([H])([H])N(C(=O)C([H])(N([H])C(=O)C([H])(N([H])C([H])([H])[H])C([H])([H])[H])C(C([H])([H])[H])(C([H])([H])[H])C([H])([H])[H])C([H])(C(=O)N([H])C3([H])c5c([H])c([H])c([H])c([H])c5C([H])([H])C([H])([H])C3([H])[H])C4([H])[H])C([H])([H])C2([H])[H])c(N([H])C(=O)N2C([H])([H])C([H])([H])C([H])([H])C([H])(n3nc(-c4c([H])c([H])c(Oc5c([H])c([H])c(F)c([H])c5F)c([H])c4[H])c(C(=O)N([H])[H])c3N([H])[H])C2([H])[H])c1[H]

>  <smiles>  (32) 
[H]c1c([H])c([H])c(N2C(=O)C([H])(Oc3c([H])c([H])c4c(c3[H])C([H])([H])N(C(=O)C([H])(N([H])C(=O)C([H])(N([H])C([H])([H])[H])C([H])([H])[H])C(C([H])([H])[H])(C([H])([H])[H])C([H])([H])[H])C([H])(C(=O)N([H])C3([H])c5c([H])c([H])c([H])c([H])c5C([H])([H])C([H])([H])C3([H])[H])C4([H])[H])C([H])([H])C2([H])[H])c(N([H])C(=O)N2C([H])([H])C([H])([H])C([H])([H])C([H])(n3nc(-c4c([H])c([H])c(Oc5c([H])c([H])c(F)c([H])c5F)c([H])c4[H])c(C(=O)N([H])[H])c3N([H])[H])C2([H])[H])c1[H]

$$$$
32:0:0
     RDKit          3D

 95104  0  0  1  0  0  0  0  0999 V2000
  -27.1470  -22.8410   21.8050 C   0  0  0  0  0  2  0  0  0  0  0  0
  -28.2610  -23.8650   22.0790 C   0  0  0  0  0  2  0  0  0  0  0  0
  -27.5550  -22.0980   20.5190 C   0  0  0  0  0  2  0  0  0  0  0  0
  -29.0630  -23.9350   20.7720 C   0  0  0  0  0  3  0  0  0  0  0  0
  -28.9550  -22.4860   20.2390 N   0  0  1  0  0  4  0  0  0  0  0  0
  -29.1020  -22.5020   19.2400 H   0  0  0  0  0  0  0  0  0  0  0  0
  -29.9130  -21.4090   20.7930 C   0  0  0  0  0  2  0  0  0  0  0  0
  -30.2520  -19.9470   18.7070 C   0  0  0  0  0  3  0  0  0  0  0  0
  -30.4660  -18.7330   18.0270 C   0  0  0  0  0  3  0  0  0  0  0  0
  -30.0280  -19.9770   20.1000 C   0  0  0  0  0  0  0  0  0  0  0  0
  -30.3060  -17.4260   20.1070 C   0  0  0  0  0  0  0  0  0  0  0  0
  -30.4890  -17.4970   18.7050 C   0  0  0  0  0  0  0  0  0  0  0  0
  -30.0490  -18.6890   20.7860 C   0  0  0  0  0  0  0  0  0  0  0  0
  -30.6500  -16.3690   17.9700 F   0  0  0  0  0  0  0  0  0  0  0  0
  -29.8450  -18.6670   22.1250 F   0  0  0  0  0  0  0  0  0  0  0  0
  -31.0060  -14.9580   20.4110 C   0  0  0  0  0  0  0  0  0  0  0  0
  -30.7840  -12.6880   19.4070 C   0  0  0  0  0  2  0  0  0  0  0  0
  -29.8690  -12.7940   18.1660 C   0  0  0  0  0  2  0  0  0  0  0  0
  -28.3890  -12.6490   18.5680 C   0  0  0  0  0  2  0  0  0  0  0  0
  -28.0130  -13.5360   19.7850 C   0  0  0  0  0  3  0  0  0  0  0  0
  -29.0490  -13.4160   20.9250 C   0  0  0  0  0  2  0  0  0  0  0  0
  -30.3670  -13.7400   20.3650 N   0  0  0  0  0  0  0  0  0  0  0  0
  -32.1830  -15.0520   20.0470 O   0  0  0  0  0  0  0  0  0  0  0  0
  -30.2770  -16.0860   20.7440 N   0  0  0  0  0  0  0  0  0  0  0  0
  -29.4480  -15.9070   21.2870 H   0  0  0  0  0  0  0  0  0  0  0  0
  -25.6240  -14.1620   20.4820 C   0  0  0  0  0  0  0  0  0  0  0  0
  -24.5390  -13.4030   20.8280 C   0  0  0  0  0  0  0  0  0  0  0  0
  -24.9780  -12.0440   20.7890 C   0  0  0  0  0  0  0  0  0  0  0  0
  -26.6550  -13.2670   20.2500 N   0  0  0  0  0  0  0  0  0  0  0  0
  -26.2720  -11.9870   20.4970 N   0  0  0  0  0  0  0  0  0  0  0  0
  -24.2260  -10.7930   20.9550 C   0  0  0  0  0  0  0  0  0  0  0  0
  -24.6100   -9.8200   21.9040 C   0  0  0  0  0  3  0  0  0  0  0  0
  -23.8600   -8.6350   22.0590 C   0  0  0  0  0  3  0  0  0  0  0  0
  -22.7110   -8.4130   21.2630 C   0  0  0  0  0  0  0  0  0  0  0  0
  -22.3450   -9.3750   20.3040 C   0  0  0  0  0  3  0  0  0  0  0  0
  -23.0970  -10.5520   20.1480 C   0  0  0  0  0  3  0  0  0  0  0  0
  -21.9360   -7.2800   21.3250 O   0  0  0  0  0  0  0  0  0  0  0  0
  -21.7920   -6.5700   22.4900 C   0  0  0  0  0  0  0  0  0  0  0  0
  -21.2670   -7.1570   23.6620 C   0  0  0  0  0  3  0  0  0  0  0  0
  -21.0730   -6.3720   24.8170 C   0  0  0  0  0  3  0  0  0  0  0  0
  -21.3920   -5.0020   24.7990 C   0  0  0  0  0  0  0  0  0  0  0  0
  -21.9100   -4.4140   23.6320 C   0  0  0  0  0  3  0  0  0  0  0  0
  -22.1060   -5.1950   22.4790 C   0  0  0  0  0  0  0  0  0  0  0  0
  -22.5850   -4.6190   21.3510 F   0  0  0  0  0  0  0  0  0  0  0  0
  -21.1980   -4.2460   25.9050 F   0  0  0  0  0  0  0  0  0  0  0  0
  -23.1460  -13.9020   21.0850 C   0  0  0  0  0  0  0  0  0  0  0  0
  -22.4020  -13.2240   21.9500 N   0  0  0  0  0  0  0  0  0  0  0  0
  -22.7280  -14.9300   20.5530 O   0  0  0  0  0  0  0  0  0  0  0  0
  -22.7520  -12.3930   22.4010 H   0  0  0  0  0  0  0  0  0  0  0  0
  -21.4670  -13.5420   22.1660 H   0  0  0  0  0  0  0  0  0  0  0  0
  -25.8150  -15.5310   20.3200 N   0  0  0  0  0  0  0  0  0  0  0  0
  -25.0560  -16.1960   20.4230 H   0  0  0  0  0  0  0  0  0  0  0  0
  -26.6720  -15.9550   19.9900 H   0  0  0  0  0  0  0  0  0  0  0  0
  -28.4450  -25.1240   19.8520 C   0  0  0  0  0  2  0  0  0  0  0  0
  -28.5130  -26.5800   20.2460 O   0  0  0  0  0  0  0  0  0  0  0  0
  -24.6690  -31.9320   23.2760 C   0  0  0  0  0  0  0  0  0  0  0  0
  -27.3840  -27.4360   20.1640 C   0  0  0  0  0  0  0  0  0  0  0  0
  -23.5020  -30.5290   21.6170 C   0  0  0  0  0  3  0  0  0  0  0  0
  -24.9910  -29.0350   20.1670 C   0  0  0  0  0  0  0  0  0  0  0  0
  -26.0380  -30.8950   21.4490 C   0  0  0  0  0  2  0  0  0  0  0  0
  -26.1490  -29.5250   20.7830 C   0  0  0  0  0  0  0  0  0  0  0  0
  -27.3430  -28.7350   20.7770 C   0  0  0  0  0  3  0  0  0  0  0  0
  -26.2060  -27.0340   19.4910 C   0  0  0  0  0  3  0  0  0  0  0  0
  -25.0240  -27.7980   19.5110 C   0  0  0  0  0  3  0  0  0  0  0  0
  -23.7350  -29.8820   20.2260 C   0  0  0  0  0  2  0  0  0  0  0  0
  -24.7560  -31.1370   22.1700 N   0  0  0  0  0  0  0  0  0  0  0  0
  -23.5780  -32.1780   23.8120 O   0  0  0  0  0  0  0  0  0  0  0  0
  -22.8620  -29.4830   22.5610 C   0  0  0  0  0  0  0  0  0  0  0  0
  -21.5400  -29.2730   22.4280 N   0  0  0  0  0  0  0  0  0  0  0  0
  -23.5520  -28.8640   23.3740 O   0  0  0  0  0  0  0  0  0  0  0  0
  -21.0390  -29.8250   21.7450 H   0  0  0  0  0  0  0  0  0  0  0  0
  -18.1910  -27.9920   22.9120 C   0  0  0  0  0  0  0  0  0  0  0  0
  -20.7440  -28.3050   23.1840 C   0  0  0  0  0  3  0  0  0  0  0  0
  -20.8770  -26.8850   22.5880 C   0  0  0  0  0  2  0  0  0  0  0  0
  -19.7820  -26.5530   21.5690 C   0  0  0  0  0  2  0  0  0  0  0  0
  -18.3970  -26.6570   22.2160 C   0  0  0  0  0  2  0  0  0  0  0  0
  -19.2920  -28.7730   23.3530 C   0  0  0  0  0  0  0  0  0  0  0  0
  -19.0450  -30.0220   23.9630 C   0  0  0  0  0  3  0  0  0  0  0  0
  -17.7290  -30.4900   24.1370 C   0  0  0  0  0  3  0  0  0  0  0  0
  -16.6420  -29.7070   23.7120 C   0  0  0  0  0  3  0  0  0  0  0  0
  -16.8740  -28.4590   23.1040 C   0  0  0  0  0  3  0  0  0  0  0  0
  -25.9340  -32.5880   23.9090 C   0  0  0  0  0  3  0  0  0  0  0  0
  -26.4390  -31.8410   25.2060 C   0  0  1  0  0  0  0  0  0  0  0  0
  -25.3260  -31.5910   26.2500 C   0  0  0  0  0  1  0  0  0  0  0  0
  -27.0590  -30.4710   24.8440 C   0  0  0  0  0  1  0  0  0  0  0  0
  -27.5570  -32.6660   25.8840 C   0  0  0  0  0  1  0  0  0  0  0  0
  -25.6050  -33.9870   24.2150 N   0  0  0  0  0  0  0  0  0  0  0  0
  -25.9420  -35.0350   23.4520 C   0  0  0  0  0  0  0  0  0  0  0  0
  -26.6330  -34.9260   22.4360 O   0  0  0  0  0  0  0  0  0  0  0  0
  -24.9920  -34.1450   25.0020 H   0  0  0  0  0  0  0  0  0  0  0  0
  -24.2080  -36.8100   23.0400 C   0  0  0  0  0  1  0  0  0  0  0  0
  -25.4330  -36.4240   23.8840 C   0  0  0  0  0  3  0  0  0  0  0  0
  -27.5380  -37.3380   24.7580 C   0  0  0  0  0  1  0  0  0  0  0  0
  -26.4600  -37.4840   23.7840 N   0  0  0  0  0  0  0  0  0  0  0  0
  -26.0430  -38.4020   23.9080 H   0  0  0  0  0  0  0  0  0  0  0  0
  1  2  1  0
  3  1  1  0
  4 54  1  0
  4  2  1  0
  5  3  1  0
  5  4  1  0
  5  7  1  0
  5  6  1  6
  8 10  1  0
  9 12  1  0
  9  8  2  0
 10 13  2  0
 10  7  1  0
 11 24  1  0
 11 13  1  0
 12 11  2  0
 13 15  1  0
 14 12  1  0
 16 24  1  0
 17 22  1  0
 18 19  1  0
 18 17  1  0
 20 19  1  0
 20 29  1  0
 20 21  1  0
 22 16  1  0
 22 21  1  0
 23 16  2  0
 24 25  1  0
 26 27  2  0
 27 46  1  0
 28 27  1  0
 28 31  1  0
 29 26  1  0
 29 30  1  0
 30 28  2  0
 31 32  1  0
 32 33  2  0
 34 37  1  0
 34 33  1  0
 35 34  2  0
 36 35  1  0
 36 31  2  0
 37 38  1  0
 38 39  1  0
 39 40  2  0
 41 40  1  0
 41 45  1  0
 42 41  2  0
 43 38  2  0
 43 42  1  0
 44 43  1  0
 46 47  1  0
 47 50  1  0
 47 49  1  0
 48 46  2  0
 51 52  1  0
 51 26  1  0
 53 51  1  0
 54 55  1  0
 56 67  2  0
 57 55  1  0
 57 62  1  0
 58 66  1  0
 58 68  1  0
 59 65  1  0
 59 61  1  0
 60 66  1  0
 61 60  1  0
 62 61  2  0
 63 64  1  0
 63 57  2  0
 64 59  2  0
 65 58  1  0
 66 56  1  0
 68 70  2  0
 69 68  1  0
 71 69  1  0
 72 81  2  0
 72 77  1  0
 73 69  1  0
 73 77  1  0
 74 73  1  0
 75 76  1  0
 75 74  1  0
 76 72  1  0
 77 78  2  0
 78 79  1  0
 80 79  2  0
 81 80  1  0
 82 56  1  0
 82 87  1  0
 82 83  1  0
 83 86  1  1
 83 84  1  0
 85 83  1  0
 87 90  1  0
 88 92  1  0
 88 87  1  0
 89 88  2  0
 92 91  1  0
 94 92  1  0
 94 95  1  0
 94 93  1  0
M  ISO  4  16 100  24 100  54 101  55 101
M  END
>  <TORSDO>  (33) 
F 19

>  <SCORE>  (33) 
-13.508

>  <name>  (33) 
32

>  <ligand_id>  (33) 
32

>  <original_smiles>  (33) 
[H]c1c([H])c([H])c2c(c1[H])C([H])([H])C([H])([H])C([H])([H])C2([H])N([H])C(=O)C1([H])N(C(=O)C([H])(N([H])C(=O)C([H])(N([H])C([H])([H])[H])C([H])([H])[H])C(C([H])([H])[H])(C([H])([H])[H])C([H])([H])[H])C([H])([H])c2c([H])c(OC([H])([H])C3([H])C([H])([H])C([H])([H])C([H])([H])[N+]3([H])C([H])([H])c3c([H])c([H])c(F)c(N([H])C(=O)N4C([H])([H])C([H])([H])C([H])([H])C([H])(n5nc(-c6c([H])c([H])c(Oc7c([H])c([H])c(F)c([H])c7F)c([H])c6[H])c(C(=O)N([H])[H])c5N([H])[H])C4([H])[H])c3F)c([H])c([H])c2C1([H])[H]

>  <smiles>  (33) 
[H]c1c([H])c([H])c2c(c1[H])C([H])([H])C([H])([H])C([H])([H])C2([H])N([H])C(=O)C1([H])N(C(=O)C([H])(N([H])C(=O)C([H])(N([H])C([H])([H])[H])C([H])([H])[H])C(C([H])([H])[H])(C([H])([H])[H])C([H])([H])[H])C([H])([H])c2c([H])c(OC([H])([H])C3([H])C([H])([H])C([H])([H])C([H])([H])[N+]3([H])C([H])([H])c3c([H])c([H])c(F)c(N([H])C(=O)N4C([H])([H])C([H])([H])C([H])([H])C([H])(n5nc(-c6c([H])c([H])c(Oc7c([H])c([H])c(F)c([H])c7F)c([H])c6[H])c(C(=O)N([H])[H])c5N([H])[H])C4([H])[H])c3F)c([H])c([H])c2C1([H])[H]

$$$$
33:0:0
     RDKit          3D

 91 99  0  0  1  0  0  0  0  0999 V2000
  -29.0950  -18.3030   19.1800 C   0  0  0  0  0  3  0  0  0  0  0  0
  -30.2970  -18.7530   21.1560 C   0  0  0  0  0  3  0  0  0  0  0  0
  -28.7830  -19.7150   19.0410 C   0  0  0  0  0  0  0  0  0  0  0  0
  -29.8510  -17.7280   20.2480 C   0  0  0  0  0  0  0  0  0  0  0  0
  -29.1800  -20.7390   19.9820 C   0  0  0  0  0  0  0  0  0  0  0  0
  -29.9890  -20.1750   21.0330 C   0  0  0  0  0  0  0  0  0  0  0  0
  -27.9360  -20.1060   17.8400 C   0  0  0  0  0  1  0  0  0  0  0  0
  -30.4290  -21.0020   22.0140 F   0  0  0  0  0  0  0  0  0  0  0  0
  -30.7160  -15.1210   20.3000 C   0  0  0  0  0  0  0  0  0  0  0  0
  -30.6550  -12.7480   19.4260 C   0  0  0  0  0  2  0  0  0  0  0  0
  -29.7340  -12.6850   18.1830 C   0  0  0  0  0  2  0  0  0  0  0  0
  -28.2620  -12.4830   18.5970 C   0  0  0  0  0  2  0  0  0  0  0  0
  -27.8380  -13.4300   19.7490 C   0  0  0  0  0  3  0  0  0  0  0  0
  -28.8780  -13.4470   20.8920 C   0  0  0  0  0  2  0  0  0  0  0  0
  -30.1640  -13.8450   20.3030 N   0  0  0  0  0  0  0  0  0  0  0  0
  -31.9030  -15.2440   19.9750 O   0  0  0  0  0  0  0  0  0  0  0  0
  -29.8640  -16.2250   20.5220 N   0  0  0  0  0  0  0  0  0  0  0  0
  -28.9550  -15.8860   20.7970 H   0  0  0  0  0  0  0  0  0  0  0  0
  -25.4470  -14.0210   20.4540 C   0  0  0  0  0  0  0  0  0  0  0  0
  -24.3770  -13.2500   20.8200 C   0  0  0  0  0  0  0  0  0  0  0  0
  -24.8400  -11.8990   20.8020 C   0  0  0  0  0  0  0  0  0  0  0  0
  -26.4920  -13.1400   20.2320 N   0  0  0  0  0  0  0  0  0  0  0  0
  -26.1350  -11.8580   20.5050 N   0  0  0  0  0  0  0  0  0  0  0  0
  -24.1110  -10.6380   20.9920 C   0  0  0  0  0  0  0  0  0  0  0  0
  -24.5200   -9.6850   21.9500 C   0  0  0  0  0  3  0  0  0  0  0  0
  -23.7890   -8.4890   22.1280 C   0  0  0  0  0  3  0  0  0  0  0  0
  -22.6350   -8.2400   21.3480 C   0  0  0  0  0  0  0  0  0  0  0  0
  -22.2450   -9.1830   20.3810 C   0  0  0  0  0  3  0  0  0  0  0  0
  -22.9770  -10.3680   20.2000 C   0  0  0  0  0  3  0  0  0  0  0  0
  -21.8780   -7.0960   21.4340 O   0  0  0  0  0  0  0  0  0  0  0  0
  -21.7870   -6.3800   22.6010 C   0  0  0  0  0  0  0  0  0  0  0  0
  -21.2470   -6.9400   23.7790 C   0  0  0  0  0  3  0  0  0  0  0  0
  -21.1070   -6.1470   24.9350 C   0  0  0  0  0  3  0  0  0  0  0  0
  -21.4980   -4.7960   24.9140 C   0  0  0  0  0  0  0  0  0  0  0  0
  -22.0300   -4.2350   23.7410 C   0  0  0  0  0  3  0  0  0  0  0  0
  -22.1720   -5.0240   22.5860 C   0  0  0  0  0  0  0  0  0  0  0  0
  -22.6670   -4.4730   21.4520 F   0  0  0  0  0  0  0  0  0  0  0  0
  -21.3560   -4.0310   26.0230 F   0  0  0  0  0  0  0  0  0  0  0  0
  -22.9780  -13.7300   21.0720 C   0  0  0  0  0  0  0  0  0  0  0  0
  -22.2440  -13.0480   21.9430 N   0  0  0  0  0  0  0  0  0  0  0  0
  -22.5450  -14.7470   20.5310 O   0  0  0  0  0  0  0  0  0  0  0  0
  -22.6070  -12.2250   22.4020 H   0  0  0  0  0  0  0  0  0  0  0  0
  -21.3050  -13.3520   22.1560 H   0  0  0  0  0  0  0  0  0  0  0  0
  -25.6120  -15.3910   20.2680 N   0  0  0  0  0  0  0  0  0  0  0  0
  -24.8370  -16.0390   20.3610 H   0  0  0  0  0  0  0  0  0  0  0  0
  -26.4490  -15.8280   19.9060 H   0  0  0  0  0  0  0  0  0  0  0  0
  -27.1740  -22.0180   20.2910 C   0  0  0  0  0  1  0  0  0  0  0  0
  -28.5910  -22.1120   19.9370 N   0  0  0  0  0  0  0  0  0  0  0  0
  -29.1490  -23.5520   20.1340 C   0  0  0  0  0  3  0  0  0  0  0  0
  -28.1740  -24.8970   19.8420 C   0  0  0  0  0  3  0  0  0  0  0  0
  -28.4280  -26.3960   20.1450 O   0  0  0  0  0  0  0  0  0  0  0  0
  -24.6900  -31.8840   23.3040 C   0  0  0  0  0  0  0  0  0  0  0  0
  -27.3560  -27.3570   20.0980 C   0  0  0  0  0  0  0  0  0  0  0  0
  -23.5210  -30.5470   21.5940 C   0  0  0  0  0  3  0  0  0  0  0  0
  -25.0020  -29.0570   20.1160 C   0  0  0  0  0  0  0  0  0  0  0  0
  -26.0720  -30.8550   21.4660 C   0  0  0  0  0  2  0  0  0  0  0  0
  -26.1690  -29.4950   20.7560 C   0  0  0  0  0  0  0  0  0  0  0  0
  -27.3460  -28.6610   20.7310 C   0  0  0  0  0  3  0  0  0  0  0  0
  -26.1630  -27.0180   19.4210 C   0  0  0  0  0  3  0  0  0  0  0  0
  -25.0100  -27.8320   19.4350 C   0  0  0  0  0  3  0  0  0  0  0  0
  -23.7620  -29.9340   20.1890 C   0  0  0  0  0  2  0  0  0  0  0  0
  -24.7800  -31.1150   22.1770 N   0  0  0  0  0  0  0  0  0  0  0  0
  -23.5950  -32.1320   23.8330 O   0  0  0  0  0  0  0  0  0  0  0  0
  -22.8460  -29.4910   22.5030 C   0  0  0  0  0  0  0  0  0  0  0  0
  -21.5200  -29.3140   22.3580 N   0  0  0  0  0  0  0  0  0  0  0  0
  -23.5170  -28.8340   23.3040 O   0  0  0  0  0  0  0  0  0  0  0  0
  -21.0360  -29.8960   21.6900 H   0  0  0  0  0  0  0  0  0  0  0  0
  -18.1420  -28.0820   22.7950 C   0  0  0  0  0  0  0  0  0  0  0  0
  -20.7000  -28.3380   23.0800 C   0  0  0  0  0  3  0  0  0  0  0  0
  -20.8080  -26.9350   22.4360 C   0  0  0  0  0  2  0  0  0  0  0  0
  -19.7080  -26.6590   21.4050 C   0  0  0  0  0  2  0  0  0  0  0  0
  -18.3250  -26.7680   22.0520 C   0  0  0  0  0  2  0  0  0  0  0  0
  -19.2580  -28.8250   23.2630 C   0  0  0  0  0  0  0  0  0  0  0  0
  -19.0330  -30.0550   23.9190 C   0  0  0  0  0  3  0  0  0  0  0  0
  -17.7250  -30.5410   24.1090 C   0  0  0  0  0  3  0  0  0  0  0  0
  -16.6240  -29.7940   23.6550 C   0  0  0  0  0  3  0  0  0  0  0  0
  -16.8340  -28.5650   23.0040 C   0  0  0  0  0  3  0  0  0  0  0  0
  -25.9550  -32.5040   23.9700 C   0  0  0  0  0  3  0  0  0  0  0  0
  -26.4130  -31.7330   25.2690 C   0  0  1  0  0  0  0  0  0  0  0  0
  -25.2790  -31.5100   26.2960 C   0  0  0  0  0  1  0  0  0  0  0  0
  -26.9970  -30.3470   24.9070 C   0  0  0  0  0  1  0  0  0  0  0  0
  -27.5460  -32.5170   25.9710 C   0  0  0  0  0  1  0  0  0  0  0  0
  -25.6480  -33.9080   24.2910 N   0  0  0  0  0  0  0  0  0  0  0  0
  -25.9590  -34.9540   23.5140 C   0  0  0  0  0  0  0  0  0  0  0  0
  -26.6010  -34.8390   22.4660 O   0  0  0  0  0  0  0  0  0  0  0  0
  -25.0740  -34.0700   25.1060 H   0  0  0  0  0  0  0  0  0  0  0  0
  -24.1950  -36.7260   23.2230 C   0  0  0  0  0  1  0  0  0  0  0  0
  -25.4840  -36.3490   23.9710 C   0  0  0  0  0  3  0  0  0  0  0  0
  -27.6450  -37.2840   24.6730 C   0  0  0  0  0  1  0  0  0  0  0  0
  -26.4980  -37.4090   23.7770 N   0  0  0  0  0  0  0  0  0  0  0  0
  -26.0870  -38.3290   23.9130 H   0  0  0  0  0  0  0  0  0  0  0  0
  1  4  1  0
  3  1  2  0
  3  5  1  0
  4 17  1  0
  4  2  2  0
  5  6  2  0
  6  2  1  0
  6  8  1  0
  7  3  1  0
  9 15  1  0
  9 17  1  0
 10 15  1  0
 11 12  1  0
 11 10  1  0
 13 12  1  0
 13 22  1  0
 13 14  1  0
 15 14  1  0
 16  9  2  0
 17 18  1  0
 19 20  2  0
 20 39  1  0
 21 20  1  0
 21 24  1  0
 22 19  1  0
 22 23  1  0
 23 21  2  0
 24 25  1  0
 25 26  2  0
 27 30  1  0
 27 26  1  0
 28 27  2  0
 29 28  1  0
 29 24  2  0
 30 31  1  0
 31 32  1  0
 32 33  2  0
 34 33  1  0
 34 38  1  0
 35 34  2  0
 36 31  2  0
 36 35  1  0
 37 36  1  0
 39 40  1  0
 40 43  1  0
 40 42  1  0
 41 39  2  0
 44 45  1  0
 44 19  1  0
 46 44  1  0
 48  5  1  0
 48 49  1  0
 48 47  1  0
 50 49  2  0
 50 51  1  0
 52 63  2  0
 53 51  1  0
 53 58  1  0
 54 62  1  0
 54 64  1  0
 55 61  1  0
 55 57  1  0
 56 62  1  0
 57 56  1  0
 58 57  2  0
 59 60  1  0
 59 53  2  0
 60 55  2  0
 61 54  1  0
 62 52  1  0
 64 66  2  0
 65 64  1  0
 67 65  1  0
 68 77  2  0
 68 73  1  0
 69 65  1  0
 69 73  1  0
 70 69  1  0
 71 72  1  0
 71 70  1  0
 72 68  1  0
 73 74  2  0
 74 75  1  0
 76 75  2  0
 77 76  1  0
 78 52  1  0
 78 83  1  0
 78 79  1  0
 79 82  1  1
 79 80  1  0
 81 79  1  0
 83 86  1  0
 84 88  1  0
 84 83  1  0
 85 84  2  0
 88 87  1  0
 90 91  1  0
 90 88  1  0
 90 89  1  0
M  ISO  4   9 100  17 100  50 101  51 101
M  END
>  <TORSDO>  (34) 
F 19

>  <SCORE>  (34) 
-14.204

>  <name>  (34) 
33

>  <ligand_id>  (34) 
33

>  <original_smiles>  (34) 
[H]c1c([H])c([H])c2c(c1[H])C([H])([H])C([H])([H])C([H])([H])C2([H])N([H])C(=O)C1([H])N(C(=O)C([H])(N([H])C(=O)C([H])(N([H])C([H])([H])[H])C([H])([H])[H])C(C([H])([H])[H])(C([H])([H])[H])C([H])([H])[H])C([H])([H])c2c([H])c(OC([H])([H])C([H])([H])N(c3c(F)c([H])c(N([H])C(=O)N4C([H])([H])C([H])([H])C([H])([H])C([H])(n5nc(-c6c([H])c([H])c(Oc7c([H])c([H])c(F)c([H])c7F)c([H])c6[H])c(C(=O)N([H])[H])c5N([H])[H])C4([H])[H])c([H])c3C([H])([H])[H])C([H])([H])[H])c([H])c([H])c2C1([H])[H]

>  <smiles>  (34) 
[H]c1c([H])c([H])c2c(c1[H])C([H])([H])C([H])([H])C([H])([H])C2([H])N([H])C(=O)C1([H])N(C(=O)C([H])(N([H])C(=O)C([H])(N([H])C([H])([H])[H])C([H])([H])[H])C(C([H])([H])[H])(C([H])([H])[H])C([H])([H])[H])C([H])([H])c2c([H])c(OC([H])([H])C([H])([H])N(c3c(F)c([H])c(N([H])C(=O)N4C([H])([H])C([H])([H])C([H])([H])C([H])(n5nc(-c6c([H])c([H])c(Oc7c([H])c([H])c(F)c([H])c7F)c([H])c6[H])c(C(=O)N([H])[H])c5N([H])[H])C4([H])[H])c([H])c3C([H])([H])[H])C([H])([H])[H])c([H])c([H])c2C1([H])[H]

$$$$
34:0:0
     RDKit          3D

 95103  0  0  1  0  0  0  0  0999 V2000
  -28.9630  -21.7900   19.7900 C   0  0  0  0  0  0  0  0  0  0  0  0
  -29.5050  -20.5460   20.3250 N   0  0  0  0  0  0  0  0  0  0  0  0
  -28.4310  -21.7570   18.6760 O   0  0  0  0  0  0  0  0  0  0  0  0
  -32.3020  -19.6690   18.5650 C   0  0  0  0  0  3  0  0  0  0  0  0
  -30.9050  -19.8320   18.5230 C   0  0  0  0  0  3  0  0  0  0  0  0
  -32.0550  -18.0030   20.3020 C   0  0  0  0  0  3  0  0  0  0  0  0
  -32.8830  -18.8490   19.5450 C   0  0  0  0  0  0  0  0  0  0  0  0
  -30.0990  -19.3080   19.5670 C   0  0  0  0  0  0  0  0  0  0  0  0
  -30.6560  -17.9790   20.0730 C   0  0  0  0  0  0  0  0  0  0  0  0
  -30.8710  -15.2460   19.8610 C   0  0  0  0  0  0  0  0  0  0  0  0
  -30.6840  -12.8600   18.9810 C   0  0  0  0  0  2  0  0  0  0  0  0
  -29.7040  -12.7430   17.7920 C   0  0  0  0  0  2  0  0  0  0  0  0
  -28.2610  -12.5520   18.2940 C   0  0  0  0  0  2  0  0  0  0  0  0
  -27.8990  -13.5210   19.4500 C   0  0  0  0  0  3  0  0  0  0  0  0
  -29.0010  -13.5970   20.5270 C   0  0  0  0  0  2  0  0  0  0  0  0
  -30.2330  -14.0010   19.8390 N   0  0  0  0  0  0  0  0  0  0  0  0
  -32.0700  -15.2190   19.5600 O   0  0  0  0  0  0  0  0  0  0  0  0
  -30.1630  -16.5040   19.9710 N   0  0  0  0  0  0  0  0  0  0  0  0
  -29.1590  -16.3980   19.9730 H   0  0  0  0  0  0  0  0  0  0  0  0
  -25.5800  -14.1270   20.3350 C   0  0  0  0  0  0  0  0  0  0  0  0
  -24.5230  -13.3660   20.7500 C   0  0  0  0  0  0  0  0  0  0  0  0
  -24.9570  -12.0080   20.6700 C   0  0  0  0  0  0  0  0  0  0  0  0
  -26.5890  -13.2340   20.0200 N   0  0  0  0  0  0  0  0  0  0  0  0
  -26.2290  -11.9520   20.2890 N   0  0  0  0  0  0  0  0  0  0  0  0
  -24.2130  -10.7570   20.8770 C   0  0  0  0  0  0  0  0  0  0  0  0
  -24.6370   -9.7880   21.8120 C   0  0  0  0  0  3  0  0  0  0  0  0
  -23.8910   -8.6050   22.0050 C   0  0  0  0  0  3  0  0  0  0  0  0
  -22.7060   -8.3830   21.2630 C   0  0  0  0  0  0  0  0  0  0  0  0
  -22.3020   -9.3390   20.3150 C   0  0  0  0  0  3  0  0  0  0  0  0
  -23.0490  -10.5140   20.1200 C   0  0  0  0  0  3  0  0  0  0  0  0
  -21.9330   -7.2510   21.3670 O   0  0  0  0  0  0  0  0  0  0  0  0
  -21.8320   -6.5540   22.5440 C   0  0  0  0  0  0  0  0  0  0  0  0
  -21.3560   -7.1570   23.7280 C   0  0  0  0  0  3  0  0  0  0  0  0
  -21.2010   -6.3850   24.8970 C   0  0  0  0  0  3  0  0  0  0  0  0
  -21.5130   -5.0120   24.8830 C   0  0  0  0  0  0  0  0  0  0  0  0
  -21.9820   -4.4090   23.7030 C   0  0  0  0  0  3  0  0  0  0  0  0
  -22.1390   -5.1780   22.5360 C   0  0  0  0  0  0  0  0  0  0  0  0
  -22.5720   -4.5880   21.3960 F   0  0  0  0  0  0  0  0  0  0  0  0
  -21.3580   -4.2680   26.0030 F   0  0  0  0  0  0  0  0  0  0  0  0
  -23.1520  -13.8670   21.1000 C   0  0  0  0  0  0  0  0  0  0  0  0
  -22.4550  -13.1760   21.9940 N   0  0  0  0  0  0  0  0  0  0  0  0
  -22.7100  -14.9080   20.6130 O   0  0  0  0  0  0  0  0  0  0  0  0
  -22.8280  -12.3370   22.4150 H   0  0  0  0  0  0  0  0  0  0  0  0
  -21.5330  -13.4890   22.2640 H   0  0  0  0  0  0  0  0  0  0  0  0
  -25.7610  -15.4970   20.1730 N   0  0  0  0  0  0  0  0  0  0  0  0
  -25.0040  -16.1530   20.3290 H   0  0  0  0  0  0  0  0  0  0  0  0
  -26.5810  -15.9290   19.7700 H   0  0  0  0  0  0  0  0  0  0  0  0
  -34.2690  -18.7820   19.6720 N   0  0  0  0  0  0  0  0  0  0  0  0
  -34.8470  -19.5440   19.3290 H   0  0  0  0  0  0  0  0  0  0  0  0
  -34.6800  -18.2830   20.4560 H   0  0  0  0  0  0  0  0  0  0  0  0
  -30.8360  -20.8750   22.4150 C   0  0  0  0  0  1  0  0  0  0  0  0
  -29.5050  -20.4350   21.7870 C   0  0  0  0  0  2  0  0  0  0  0  0
  -28.9190  -23.3190   20.4850 C   0  0  0  0  0  3  0  0  0  0  0  0
  -28.1330  -24.7100   19.8580 C   0  0  0  0  0  3  0  0  0  0  0  0
  -28.3020  -26.2490   20.1920 O   0  0  0  0  0  0  0  0  0  0  0  0
  -24.6840  -31.9400   23.2190 C   0  0  0  0  0  0  0  0  0  0  0  0
  -27.2540  -27.2540   20.1020 C   0  0  0  0  0  0  0  0  0  0  0  0
  -23.4750  -30.5510   21.5820 C   0  0  0  0  0  3  0  0  0  0  0  0
  -24.9190  -29.0110   20.1090 C   0  0  0  0  0  0  0  0  0  0  0  0
  -26.0270  -30.8330   21.3900 C   0  0  0  0  0  2  0  0  0  0  0  0
  -26.1010  -29.4490   20.7180 C   0  0  0  0  0  0  0  0  0  0  0  0
  -27.2650  -28.5850   20.7000 C   0  0  0  0  0  3  0  0  0  0  0  0
  -26.0520  -26.9430   19.4280 C   0  0  0  0  0  3  0  0  0  0  0  0
  -24.9110  -27.7750   19.4440 C   0  0  0  0  0  3  0  0  0  0  0  0
  -23.6830  -29.8950   20.1890 C   0  0  0  0  0  2  0  0  0  0  0  0
  -24.7500  -31.1310   22.1160 N   0  0  0  0  0  0  0  0  0  0  0  0
  -23.6020  -32.2070   23.7650 O   0  0  0  0  0  0  0  0  0  0  0  0
  -22.8220  -29.5250   22.5430 C   0  0  0  0  0  0  0  0  0  0  0  0
  -21.5010  -29.3110   22.4070 N   0  0  0  0  0  0  0  0  0  0  0  0
  -23.5060  -28.9230   23.3750 O   0  0  0  0  0  0  0  0  0  0  0  0
  -21.0020  -29.8470   21.7110 H   0  0  0  0  0  0  0  0  0  0  0  0
  -18.1700  -27.9530   22.8410 C   0  0  0  0  0  0  0  0  0  0  0  0
  -20.7040  -28.3500   23.1760 C   0  0  0  0  0  3  0  0  0  0  0  0
  -20.8950  -26.9140   22.6350 C   0  0  0  0  0  2  0  0  0  0  0  0
  -19.8420  -26.5160   21.5970 C   0  0  0  0  0  2  0  0  0  0  0  0
  -18.4350  -26.6020   22.1980 C   0  0  0  0  0  2  0  0  0  0  0  0
  -19.2370  -28.7810   23.2870 C   0  0  0  0  0  0  0  0  0  0  0  0
  -18.9340  -30.0400   23.8480 C   0  0  0  0  0  3  0  0  0  0  0  0
  -17.6010  -30.4750   23.9700 C   0  0  0  0  0  3  0  0  0  0  0  0
  -16.5500  -29.6460   23.5410 C   0  0  0  0  0  3  0  0  0  0  0  0
  -16.8350  -28.3880   22.9810 C   0  0  0  0  0  3  0  0  0  0  0  0
  -25.9630  -32.5820   23.8320 C   0  0  0  0  0  3  0  0  0  0  0  0
  -25.6410  -33.9750   24.1840 N   0  0  0  0  0  0  0  0  0  0  0  0
  -25.9580  -35.0450   23.4420 C   0  0  0  0  0  0  0  0  0  0  0  0
  -26.6180  -34.9620   22.4030 O   0  0  0  0  0  0  0  0  0  0  0  0
  -25.0430  -34.1100   24.9870 H   0  0  0  0  0  0  0  0  0  0  0  0
  -24.2140  -36.8370   23.1360 C   0  0  0  0  0  1  0  0  0  0  0  0
  -25.4660  -36.4240   23.9260 C   0  0  0  0  0  3  0  0  0  0  0  0
  -27.6000  -37.3120   24.7540 C   0  0  0  0  0  1  0  0  0  0  0  0
  -26.4910  -37.4840   23.8210 N   0  0  0  0  0  0  0  0  0  0  0  0
  -26.0800  -38.4000   23.9820 H   0  0  0  0  0  0  0  0  0  0  0  0
  -26.4970  -31.8070   25.1000 C   0  0  1  0  0  0  0  0  0  0  0  0
  -25.4160  -31.5530   26.1760 C   0  0  0  0  0  1  0  0  0  0  0  0
  -27.0910  -30.4370   24.7030 C   0  0  0  0  0  1  0  0  0  0  0  0
  -27.6490  -32.6060   25.7560 C   0  0  0  0  0  1  0  0  0  0  0  0
  1  2  1  0
  1 53  1  0
  2 52  1  0
  3  1  2  0
  4  7  1  0
  5  4  2  0
  5  8  1  0
  7 48  1  0
  7  6  2  0
  8  9  2  3
  8  2  1  0
  9  6  1  0
 10 18  1  0
 11 16  1  0
 12 13  1  0
 12 11  1  0
 14 13  1  0
 14 23  1  0
 14 15  1  0
 16 10  1  0
 16 15  1  0
 17 10  2  0
 18 19  1  0
 18  9  1  0
 20 21  2  0
 21 40  1  0
 22 21  1  0
 22 25  1  0
 23 24  1  0
 23 20  1  0
 24 22  2  0
 25 26  1  0
 26 27  2  0
 28 31  1  0
 28 27  1  0
 29 28  2  0
 30 29  1  0
 30 25  2  0
 31 32  1  0
 32 33  1  0
 33 34  2  0
 35 34  1  0
 35 39  1  0
 36 35  2  0
 37 32  2  0
 37 36  1  0
 38 37  1  0
 40 41  1  0
 41 44  1  0
 41 43  1  0
 42 40  2  0
 45 46  1  0
 45 20  1  0
 47 45  1  0
 48 50  1  0
 49 48  1  0
 52 51  1  0
 54 55  1  0
 54 53  2  0
 56 67  2  0
 57 55  1  0
 57 62  1  0
 58 66  1  0
 58 68  1  0
 59 65  1  0
 59 61  1  0
 60 66  1  0
 61 60  1  0
 62 61  2  0
 63 64  1  0
 63 57  2  0
 64 59  2  0
 65 58  1  0
 66 56  1  0
 68 70  2  0
 69 68  1  0
 71 69  1  0
 72 81  2  0
 72 77  1  0
 73 69  1  0
 73 77  1  0
 74 73  1  0
 75 76  1  0
 75 74  1  0
 76 72  1  0
 77 78  2  0
 78 79  1  0
 80 79  2  0
 81 80  1  0
 82 56  1  0
 82 83  1  0
 82 92  1  0
 83 86  1  0
 84 88  1  0
 84 83  1  0
 85 84  2  0
 88 87  1  0
 90 88  1  0
 90 91  1  0
 90 89  1  0
 92 95  1  1
 92 93  1  0
 94 92  1  0
M  ISO  4  10 100  18 100  54 101  55 101
M  END
>  <TORSDO>  (35) 
F 21

>  <SCORE>  (35) 
-14.118

>  <name>  (35) 
34

>  <ligand_id>  (35) 
34

>  <original_smiles>  (35) 
[H]c1c([H])c([H])c2c(c1[H])C([H])([H])C([H])([H])C([H])([H])C2([H])N([H])C(=O)C1([H])N(C(=O)C([H])(N([H])C(=O)C([H])(N([H])C([H])([H])[H])C([H])([H])[H])C(C([H])([H])[H])(C([H])([H])[H])C([H])([H])[H])C([H])([H])c2c([H])c(OC([H])([H])C([H])([H])C(=O)N(c3c([H])c([H])c(N([H])[H])c([H])c3N([H])C(=O)N3C([H])([H])C([H])([H])C([H])([H])C([H])(n4nc(-c5c([H])c([H])c(Oc6c([H])c([H])c(F)c([H])c6F)c([H])c5[H])c(C(=O)N([H])[H])c4N([H])[H])C3([H])[H])C([H])([H])C([H])([H])[H])c([H])c([H])c2C1([H])[H]

>  <smiles>  (35) 
[H]c1c([H])c([H])c2c(c1[H])C([H])([H])C([H])([H])C([H])([H])C2([H])N([H])C(=O)C1([H])N(C(=O)C([H])(N([H])C(=O)C([H])(N([H])C([H])([H])[H])C([H])([H])[H])C(C([H])([H])[H])(C([H])([H])[H])C([H])([H])[H])C([H])([H])c2c([H])c(OC([H])([H])C([H])([H])C(=O)N(c3c([H])c([H])c(N([H])[H])c([H])c3N([H])C(=O)N3C([H])([H])C([H])([H])C([H])([H])C([H])(n4nc(-c5c([H])c([H])c(Oc6c([H])c([H])c(F)c([H])c6F)c([H])c5[H])c(C(=O)N([H])[H])c4N([H])[H])C3([H])[H])C([H])([H])C([H])([H])[H])c([H])c([H])c2C1([H])[H]

$$$$
35:0:0
     RDKit          3D

 92101  0  0  1  0  0  0  0  0999 V2000
  -29.0950  -22.7810   22.6970 C   0  0  0  0  0  2  0  0  0  0  0  0
  -29.9400  -23.5860   21.6970 C   0  0  0  0  0  2  0  0  0  0  0  0
  -28.2900  -21.7740   21.8510 C   0  0  0  0  0  2  0  0  0  0  0  0
  -29.2310  -23.3560   20.3580 C   0  0  0  0  0  3  0  0  0  0  0  0
  -28.8600  -21.8170   20.5080 N   0  0  0  0  0  0  0  0  0  0  0  0
  -31.6510  -19.6190   19.0870 C   0  0  0  0  0  3  0  0  0  0  0  0
  -30.8370  -20.7100   19.4680 C   0  0  0  0  0  3  0  0  0  0  0  0
  -31.3340  -18.2720   19.3790 C   0  0  0  0  0  3  0  0  0  0  0  0
  -29.6290  -20.5490   20.1810 C   0  0  0  0  0  0  0  0  0  0  0  0
  -30.1710  -17.8980   20.0870 C   0  0  0  0  0  0  0  0  0  0  0  0
  -29.3350  -19.0880   20.4800 C   0  0  0  0  0  0  0  0  0  0  0  0
  -28.1930  -18.8030   21.1570 F   0  0  0  0  0  0  0  0  0  0  0  0
  -30.6060  -15.1580   19.9620 C   0  0  0  0  0  0  0  0  0  0  0  0
  -30.4030  -12.8290   18.9450 C   0  0  0  0  0  2  0  0  0  0  0  0
  -29.3960  -12.8010   17.7720 C   0  0  0  0  0  2  0  0  0  0  0  0
  -27.9650  -12.5630   18.2890 C   0  0  0  0  0  2  0  0  0  0  0  0
  -27.6320  -13.4480   19.5170 C   0  0  0  0  0  3  0  0  0  0  0  0
  -28.7580  -13.4560   20.5760 C   0  0  0  0  0  2  0  0  0  0  0  0
  -29.9860  -13.9020   19.9030 N   0  0  0  0  0  0  0  0  0  0  0  0
  -31.7760  -15.1800   19.5640 O   0  0  0  0  0  0  0  0  0  0  0  0
  -29.9110  -16.3720   20.3060 N   0  0  0  0  0  0  0  0  0  0  0  0
  -29.0170  -16.1850   20.7340 H   0  0  0  0  0  0  0  0  0  0  0  0
  -25.3060  -13.9920   20.4260 C   0  0  0  0  0  0  0  0  0  0  0  0
  -24.2700  -13.2050   20.8470 C   0  0  0  0  0  0  0  0  0  0  0  0
  -24.7320  -11.8570   20.7460 C   0  0  0  0  0  0  0  0  0  0  0  0
  -26.3340  -13.1240   20.0930 N   0  0  0  0  0  0  0  0  0  0  0  0
  -26.0020  -11.8320   20.3530 N   0  0  0  0  0  0  0  0  0  0  0  0
  -24.0160  -10.5900   20.9460 C   0  0  0  0  0  0  0  0  0  0  0  0
  -24.4720   -9.6210   21.8640 C   0  0  0  0  0  3  0  0  0  0  0  0
  -23.7610   -8.4170   22.0550 C   0  0  0  0  0  3  0  0  0  0  0  0
  -22.5720   -8.1740   21.3260 C   0  0  0  0  0  0  0  0  0  0  0  0
  -22.1320   -9.1310   20.3950 C   0  0  0  0  0  3  0  0  0  0  0  0
  -22.8470  -10.3250   20.2040 C   0  0  0  0  0  3  0  0  0  0  0  0
  -21.8270   -7.0230   21.4250 O   0  0  0  0  0  0  0  0  0  0  0  0
  -21.7590   -6.3070   22.5940 C   0  0  0  0  0  0  0  0  0  0  0  0
  -21.3050   -6.8860   23.7980 C   0  0  0  0  0  3  0  0  0  0  0  0
  -21.1830   -6.0950   24.9580 C   0  0  0  0  0  3  0  0  0  0  0  0
  -21.5090   -4.7270   24.9150 C   0  0  0  0  0  0  0  0  0  0  0  0
  -21.9540   -4.1460   23.7140 C   0  0  0  0  0  3  0  0  0  0  0  0
  -22.0750   -4.9340   22.5570 C   0  0  0  0  0  0  0  0  0  0  0  0
  -22.4830   -4.3650   21.3980 F   0  0  0  0  0  0  0  0  0  0  0  0
  -21.3880   -3.9640   26.0260 F   0  0  0  0  0  0  0  0  0  0  0  0
  -22.8920  -13.6690   21.2210 C   0  0  0  0  0  0  0  0  0  0  0  0
  -22.2190  -12.9540   22.1170 N   0  0  0  0  0  0  0  0  0  0  0  0
  -22.4200  -14.7040   20.7530 O   0  0  0  0  0  0  0  0  0  0  0  0
  -22.6080  -12.1180   22.5240 H   0  0  0  0  0  0  0  0  0  0  0  0
  -21.2950  -13.2510   22.3970 H   0  0  0  0  0  0  0  0  0  0  0  0
  -25.4590  -15.3680   20.2740 N   0  0  0  0  0  0  0  0  0  0  0  0
  -24.7050  -16.0230   20.4610 H   0  0  0  0  0  0  0  0  0  0  0  0
  -26.2830  -15.8150   19.8900 H   0  0  0  0  0  0  0  0  0  0  0  0
  -28.0940  -24.6380   20.1740 C   0  0  0  0  0  2  0  0  0  0  0  0
  -28.3230  -26.2050   20.2060 O   0  0  0  0  0  0  0  0  0  0  0  0
  -24.6840  -31.8980   23.2370 C   0  0  0  0  0  0  0  0  0  0  0  0
  -27.2530  -27.1900   20.1570 C   0  0  0  0  0  0  0  0  0  0  0  0
  -23.4700  -30.5110   21.6000 C   0  0  0  0  0  3  0  0  0  0  0  0
  -24.9100  -28.9460   20.1470 C   0  0  0  0  0  0  0  0  0  0  0  0
  -26.0210  -30.7830   21.4050 C   0  0  0  0  0  2  0  0  0  0  0  0
  -26.0970  -29.3920   20.7450 C   0  0  0  0  0  0  0  0  0  0  0  0
  -27.2650  -28.5330   20.7270 C   0  0  0  0  0  3  0  0  0  0  0  0
  -26.0370  -26.8520   19.5200 C   0  0  0  0  0  3  0  0  0  0  0  0
  -24.8960  -27.6900   19.5170 C   0  0  0  0  0  3  0  0  0  0  0  0
  -23.6780  -29.8410   20.2150 C   0  0  0  0  0  2  0  0  0  0  0  0
  -24.7460  -31.0870   22.1370 N   0  0  0  0  0  0  0  0  0  0  0  0
  -23.6030  -32.1770   23.7800 O   0  0  0  0  0  0  0  0  0  0  0  0
  -22.8030  -29.4990   22.5630 C   0  0  0  0  0  0  0  0  0  0  0  0
  -21.4770  -29.3140   22.4410 N   0  0  0  0  0  0  0  0  0  0  0  0
  -23.4840  -28.8760   23.3830 O   0  0  0  0  0  0  0  0  0  0  0  0
  -20.9850  -29.8670   21.7540 H   0  0  0  0  0  0  0  0  0  0  0  0
  -18.1110  -28.0720   22.9390 C   0  0  0  0  0  0  0  0  0  0  0  0
  -20.6660  -28.3660   23.2100 C   0  0  0  0  0  3  0  0  0  0  0  0
  -20.7850  -26.9380   22.6300 C   0  0  0  0  0  2  0  0  0  0  0  0
  -19.6880  -26.6030   21.6130 C   0  0  0  0  0  2  0  0  0  0  0  0
  -18.3050  -26.7280   22.2580 C   0  0  0  0  0  2  0  0  0  0  0  0
  -19.2190  -28.8490   23.3710 C   0  0  0  0  0  0  0  0  0  0  0  0
  -18.9810  -30.1050   23.9680 C   0  0  0  0  0  3  0  0  0  0  0  0
  -17.6680  -30.5870   24.1350 C   0  0  0  0  0  3  0  0  0  0  0  0
  -16.5760  -29.8050   23.7210 C   0  0  0  0  0  3  0  0  0  0  0  0
  -16.7980  -28.5510   23.1290 C   0  0  0  0  0  3  0  0  0  0  0  0
  -25.9650  -32.5340   23.8600 C   0  0  0  0  0  3  0  0  0  0  0  0
  -25.6530  -33.9300   24.2060 N   0  0  0  0  0  0  0  0  0  0  0  0
  -25.9550  -34.9900   23.4460 C   0  0  0  0  0  0  0  0  0  0  0  0
  -26.5910  -34.8960   22.3920 O   0  0  0  0  0  0  0  0  0  0  0  0
  -25.0710  -34.0760   25.0180 H   0  0  0  0  0  0  0  0  0  0  0  0
  -24.1930  -36.7710   23.1780 C   0  0  0  0  0  1  0  0  0  0  0  0
  -25.4780  -36.3760   23.9260 C   0  0  0  0  0  3  0  0  0  0  0  0
  -27.6420  -37.2880   24.6510 C   0  0  0  0  0  1  0  0  0  0  0  0
  -26.4930  -37.4390   23.7610 N   0  0  0  0  0  0  0  0  0  0  0  0
  -26.0850  -38.3550   23.9210 H   0  0  0  0  0  0  0  0  0  0  0  0
  -26.4860  -31.7580   25.1330 C   0  0  1  0  0  0  0  0  0  0  0  0
  -25.3970  -31.5160   26.2050 C   0  0  0  0  0  1  0  0  0  0  0  0
  -27.0670  -30.3810   24.7380 C   0  0  0  0  0  1  0  0  0  0  0  0
  -27.6430  -32.5460   25.7930 C   0  0  0  0  0  1  0  0  0  0  0  0
  2  1  1  0
  3  1  1  0
  4 51  1  0
  4  5  1  0
  4  2  1  0
  5  3  1  0
  6  8  2  0
  6  7  1  0
  7  9  2  0
  8 10  1  0
  9 11  1  0
  9  5  1  0
 10 21  1  0
 10 11  2  0
 11 12  1  0
 13 21  1  0
 14 19  1  0
 15 16  1  0
 15 14  1  0
 17 16  1  0
 17 26  1  0
 17 18  1  0
 19 13  1  0
 19 18  1  0
 20 13  2  0
 21 22  1  0
 23 24  2  0
 24 43  1  0
 25 24  1  0
 25 28  1  0
 26 27  1  0
 26 23  1  0
 27 25  2  0
 28 29  1  0
 29 30  2  0
 31 34  1  0
 31 30  1  0
 32 31  2  0
 33 32  1  0
 33 28  2  0
 34 35  1  0
 35 36  1  0
 36 37  2  0
 38 37  1  0
 38 42  1  0
 39 38  2  0
 40 35  2  0
 40 39  1  0
 41 40  1  0
 43 44  1  0
 44 47  1  0
 44 46  1  0
 45 43  2  0
 48 23  1  0
 48 49  1  0
 50 48  1  0
 51 52  1  0
 53 64  2  0
 54 52  1  0
 54 59  1  0
 55 63  1  0
 55 65  1  0
 56 62  1  0
 56 58  1  0
 57 63  1  0
 58 57  1  0
 59 58  2  0
 60 54  2  0
 61 60  1  0
 61 56  2  0
 62 55  1  0
 63 53  1  0
 65 67  2  0
 66 65  1  0
 68 66  1  0
 69 78  2  0
 69 74  1  0
 70 66  1  0
 70 74  1  0
 71 70  1  0
 72 73  1  0
 72 71  1  0
 73 69  1  0
 74 75  2  0
 75 76  1  0
 77 76  2  0
 78 77  1  0
 79 53  1  0
 79 80  1  0
 79 89  1  0
 80 83  1  0
 81 85  1  0
 81 80  1  0
 82 81  2  0
 85 84  1  0
 87 88  1  0
 87 85  1  0
 87 86  1  0
 89 92  1  1
 89 90  1  0
 91 89  1  0
M  ISO  4  13 100  21 100  51 101  52 101
M  END
>  <TORSDO>  (36) 
F 18

>  <SCORE>  (36) 
-14.982

>  <name>  (36) 
35

>  <ligand_id>  (36) 
35

>  <original_smiles>  (36) 
[H]c1c([H])c(N([H])C(=O)N2C([H])([H])C([H])([H])C([H])([H])C([H])(n3nc(-c4c([H])c([H])c(Oc5c([H])c([H])c(F)c([H])c5F)c([H])c4[H])c(C(=O)N([H])[H])c3N([H])[H])C2([H])[H])c(F)c(N2C([H])([H])C([H])([H])C([H])([H])C2([H])C([H])([H])Oc2c([H])c([H])c3c(c2[H])C([H])([H])N(C(=O)C([H])(N([H])C(=O)C([H])(N([H])C([H])([H])[H])C([H])([H])[H])C(C([H])([H])[H])(C([H])([H])[H])C([H])([H])[H])C([H])(C(=O)N([H])C2([H])c4c([H])c([H])c([H])c([H])c4C([H])([H])C([H])([H])C2([H])[H])C3([H])[H])c1[H]

>  <smiles>  (36) 
[H]c1c([H])c(N([H])C(=O)N2C([H])([H])C([H])([H])C([H])([H])C([H])(n3nc(-c4c([H])c([H])c(Oc5c([H])c([H])c(F)c([H])c5F)c([H])c4[H])c(C(=O)N([H])[H])c3N([H])[H])C2([H])[H])c(F)c(N2C([H])([H])C([H])([H])C([H])([H])C2([H])C([H])([H])Oc2c([H])c([H])c3c(c2[H])C([H])([H])N(C(=O)C([H])(N([H])C(=O)C([H])(N([H])C([H])([H])[H])C([H])([H])[H])C(C([H])([H])[H])(C([H])([H])[H])C([H])([H])[H])C([H])(C(=O)N([H])C2([H])c4c([H])c([H])c([H])c([H])c4C([H])([H])C([H])([H])C2([H])[H])C3([H])[H])c1[H]

$$$$
36:0:0
     RDKit          3D

 93102  0  0  1  0  0  0  0  0999 V2000
  -29.3550  -23.1930   17.2240 C   0  0  0  0  0  2  0  0  0  0  0  0
  -27.9790  -23.1420   17.9350 C   0  0  0  0  0  2  0  0  0  0  0  0
  -30.3330  -22.6470   18.2900 C   0  0  0  0  0  2  0  0  0  0  0  0
  -28.3920  -23.3330   19.4040 C   0  0  0  0  0  3  0  0  0  0  0  0
  -29.4940  -22.2110   19.4090 N   0  0  0  0  0  0  0  0  0  0  0  0
  -29.4520  -20.0480   20.8180 C   0  0  0  0  0  3  0  0  0  0  0  0
  -29.6030  -18.6150   21.0510 C   0  0  0  0  0  3  0  0  0  0  0  0
  -29.5650  -19.6680   18.4860 C   0  0  0  0  0  0  0  0  0  0  0  0
  -29.4450  -20.6980   19.5340 C   0  0  0  0  0  0  0  0  0  0  0  0
  -29.8080  -17.6260   20.0290 C   0  0  0  0  0  0  0  0  0  0  0  0
  -29.7750  -18.2370   18.7380 C   0  0  0  0  0  0  0  0  0  0  0  0
  -29.4470  -19.9860   16.9880 C   0  0  0  0  0  1  0  0  0  0  0  0
  -29.9060  -17.4040   17.6750 F   0  0  0  0  0  0  0  0  0  0  0  0
  -30.5910  -14.9880   19.9780 C   0  0  0  0  0  0  0  0  0  0  0  0
  -30.4270  -12.6480   19.0250 C   0  0  0  0  0  2  0  0  0  0  0  0
  -29.4200  -12.6520   17.8510 C   0  0  0  0  0  2  0  0  0  0  0  0
  -27.9760  -12.4700   18.3550 C   0  0  0  0  0  2  0  0  0  0  0  0
  -27.6530  -13.3510   19.5930 C   0  0  0  0  0  3  0  0  0  0  0  0
  -28.7760  -13.2980   20.6550 C   0  0  0  0  0  2  0  0  0  0  0  0
  -30.0180  -13.7140   19.9820 N   0  0  0  0  0  0  0  0  0  0  0  0
  -31.7620  -15.0890   19.5960 O   0  0  0  0  0  0  0  0  0  0  0  0
  -29.7950  -16.1130   20.2970 N   0  0  0  0  0  0  0  0  0  0  0  0
  -28.9390  -15.8130   20.7370 H   0  0  0  0  0  0  0  0  0  0  0  0
  -25.3080  -13.9290   20.4580 C   0  0  0  0  0  0  0  0  0  0  0  0
  -24.2570  -13.1510   20.8560 C   0  0  0  0  0  0  0  0  0  0  0  0
  -24.7090  -11.7980   20.7710 C   0  0  0  0  0  0  0  0  0  0  0  0
  -26.3360  -13.0520   20.1460 N   0  0  0  0  0  0  0  0  0  0  0  0
  -25.9850  -11.7640   20.3990 N   0  0  0  0  0  0  0  0  0  0  0  0
  -23.9850  -10.5350   20.9650 C   0  0  0  0  0  0  0  0  0  0  0  0
  -24.4270   -9.5610   21.8860 C   0  0  0  0  0  3  0  0  0  0  0  0
  -23.6970   -8.3670   22.0750 C   0  0  0  0  0  3  0  0  0  0  0  0
  -22.5110   -8.1360   21.3360 C   0  0  0  0  0  0  0  0  0  0  0  0
  -22.0880   -9.1000   20.4040 C   0  0  0  0  0  3  0  0  0  0  0  0
  -22.8170  -10.2870   20.2140 C   0  0  0  0  0  3  0  0  0  0  0  0
  -21.7560   -6.9920   21.4320 O   0  0  0  0  0  0  0  0  0  0  0  0
  -21.6880   -6.2690   22.5990 C   0  0  0  0  0  0  0  0  0  0  0  0
  -21.1860   -6.8280   23.7920 C   0  0  0  0  0  3  0  0  0  0  0  0
  -21.0620   -6.0310   24.9470 C   0  0  0  0  0  3  0  0  0  0  0  0
  -21.4390   -4.6730   24.9090 C   0  0  0  0  0  0  0  0  0  0  0  0
  -21.9380   -4.1130   23.7190 C   0  0  0  0  0  3  0  0  0  0  0  0
  -22.0600   -4.9100   22.5680 C   0  0  0  0  0  0  0  0  0  0  0  0
  -22.5180   -4.3580   21.4160 F   0  0  0  0  0  0  0  0  0  0  0  0
  -21.3180   -3.9050   26.0160 F   0  0  0  0  0  0  0  0  0  0  0  0
  -22.8760  -13.6320   21.2020 C   0  0  0  0  0  0  0  0  0  0  0  0
  -22.1750  -12.9280   22.0810 N   0  0  0  0  0  0  0  0  0  0  0  0
  -22.4250  -14.6720   20.7240 O   0  0  0  0  0  0  0  0  0  0  0  0
  -22.5480  -12.0920   22.5060 H   0  0  0  0  0  0  0  0  0  0  0  0
  -21.2500  -13.2430   22.3420 H   0  0  0  0  0  0  0  0  0  0  0  0
  -25.4520  -15.3070   20.3100 N   0  0  0  0  0  0  0  0  0  0  0  0
  -24.6830  -15.9310   20.5260 H   0  0  0  0  0  0  0  0  0  0  0  0
  -26.2350  -15.7870   19.8870 H   0  0  0  0  0  0  0  0  0  0  0  0
  -28.7260  -25.0290   19.4450 C   0  0  0  0  0  2  0  0  0  0  0  0
  -28.3870  -26.2670   20.3020 O   0  0  0  0  0  0  0  0  0  0  0  0
  -24.6730  -31.8730   23.2360 C   0  0  0  0  0  0  0  0  0  0  0  0
  -27.3220  -27.2210   20.1570 C   0  0  0  0  0  0  0  0  0  0  0  0
  -23.5020  -30.4830   21.5700 C   0  0  0  0  0  3  0  0  0  0  0  0
  -24.9700  -28.9310   20.1370 C   0  0  0  0  0  0  0  0  0  0  0  0
  -26.0500  -30.7660   21.4380 C   0  0  0  0  0  2  0  0  0  0  0  0
  -26.1380  -29.3820   20.7700 C   0  0  0  0  0  0  0  0  0  0  0  0
  -27.2980  -28.5280   20.7860 C   0  0  0  0  0  3  0  0  0  0  0  0
  -26.1300  -26.8590   19.4940 C   0  0  0  0  0  3  0  0  0  0  0  0
  -24.9750  -27.6760   19.5040 C   0  0  0  0  0  3  0  0  0  0  0  0
  -23.7400  -29.8250   20.1840 C   0  0  0  0  0  2  0  0  0  0  0  0
  -24.7600  -31.0620   22.1360 N   0  0  0  0  0  0  0  0  0  0  0  0
  -23.5810  -32.1460   23.7540 O   0  0  0  0  0  0  0  0  0  0  0  0
  -22.8210  -29.4590   22.5140 C   0  0  0  0  0  0  0  0  0  0  0  0
  -21.4950  -29.2900   22.3800 N   0  0  0  0  0  0  0  0  0  0  0  0
  -23.4910  -28.8230   23.3310 O   0  0  0  0  0  0  0  0  0  0  0  0
  -21.0080  -29.8460   21.6900 H   0  0  0  0  0  0  0  0  0  0  0  0
  -18.1100  -28.1120   22.8820 C   0  0  0  0  0  0  0  0  0  0  0  0
  -20.6730  -28.3430   23.1370 C   0  0  0  0  0  3  0  0  0  0  0  0
  -20.7590  -26.9250   22.5280 C   0  0  0  0  0  2  0  0  0  0  0  0
  -19.6470  -26.6380   21.5150 C   0  0  0  0  0  2  0  0  0  0  0  0
  -18.2700  -26.7810   22.1690 C   0  0  0  0  0  2  0  0  0  0  0  0
  -19.2390  -28.8550   23.3220 C   0  0  0  0  0  0  0  0  0  0  0  0
  -19.0320  -30.1030   23.9500 C   0  0  0  0  0  3  0  0  0  0  0  0
  -17.7320  -30.6110   24.1340 C   0  0  0  0  0  3  0  0  0  0  0  0
  -16.6180  -29.8650   23.7090 C   0  0  0  0  0  3  0  0  0  0  0  0
  -16.8090  -28.6160   23.0910 C   0  0  0  0  0  3  0  0  0  0  0  0
  -25.9420  -32.5100   23.8810 C   0  0  0  0  0  3  0  0  0  0  0  0
  -25.6230  -33.9080   24.2070 N   0  0  0  0  0  0  0  0  0  0  0  0
  -25.9450  -34.9630   23.4450 C   0  0  0  0  0  0  0  0  0  0  0  0
  -26.6100  -34.8590   22.4100 O   0  0  0  0  0  0  0  0  0  0  0  0
  -25.0340  -34.0610   25.0120 H   0  0  0  0  0  0  0  0  0  0  0  0
  -24.2040  -36.7450   23.1090 C   0  0  0  0  0  1  0  0  0  0  0  0
  -25.4580  -36.3490   23.9070 C   0  0  0  0  0  3  0  0  0  0  0  0
  -27.5900  -37.2580   24.7200 C   0  0  0  0  0  1  0  0  0  0  0  0
  -26.4820  -37.4090   23.7790 N   0  0  0  0  0  0  0  0  0  0  0  0
  -26.0700  -38.3260   23.9220 H   0  0  0  0  0  0  0  0  0  0  0  0
  -26.4320  -31.7460   25.1730 C   0  0  1  0  0  0  0  0  0  0  0  0
  -25.3110  -31.5130   26.2140 C   0  0  0  0  0  1  0  0  0  0  0  0
  -27.0280  -30.3680   24.8040 C   0  0  0  0  0  1  0  0  0  0  0  0
  -27.5680  -32.5440   25.8570 C   0  0  0  0  0  1  0  0  0  0  0  0
  1  2  1  0
  1  3  1  0
  2  4  1  0
  3  5  1  0
  4  5  1  0
  4 52  1  0
  5  9  1  0
  6  7  1  0
  8 11  2  0
  8  9  1  0
  9  6  2  0
 10 22  1  0
 10  7  2  0
 11 10  1  0
 12  8  1  0
 13 11  1  0
 14 20  1  0
 14 22  1  0
 15 20  1  0
 16 17  1  0
 16 15  1  0
 18 17  1  0
 18 27  1  0
 18 19  1  0
 20 19  1  0
 21 14  2  0
 22 23  1  0
 24 25  2  0
 25 44  1  0
 26 25  1  0
 26 29  1  0
 27 28  1  0
 27 24  1  0
 28 26  2  0
 29 30  1  0
 30 31  2  0
 32 35  1  0
 32 31  1  0
 33 32  2  0
 34 33  1  0
 34 29  2  0
 35 36  1  0
 36 37  1  0
 37 38  2  0
 39 38  1  0
 39 43  1  0
 40 39  2  0
 41 36  2  0
 41 40  1  0
 42 41  1  0
 44 45  1  0
 45 48  1  0
 45 47  1  0
 46 44  2  0
 49 24  1  0
 49 50  1  0
 51 49  1  0
 52 53  1  0
 54 65  2  0
 55 53  1  0
 55 60  1  0
 56 64  1  0
 56 66  1  0
 57 63  1  0
 57 59  1  0
 58 64  1  0
 59 60  2  0
 59 58  1  0
 61 62  1  0
 61 55  2  0
 62 57  2  0
 63 56  1  0
 64 54  1  0
 66 68  2  0
 67 66  1  0
 69 67  1  0
 70 79  2  0
 70 75  1  0
 71 67  1  0
 71 75  1  0
 72 71  1  0
 73 74  1  0
 73 72  1  0
 74 70  1  0
 75 76  2  0
 76 77  1  0
 78 77  2  0
 79 78  1  0
 80 54  1  0
 80 81  1  0
 80 90  1  0
 81 84  1  0
 82 86  1  0
 82 81  1  0
 83 82  2  0
 86 85  1  0
 88 86  1  0
 88 89  1  0
 88 87  1  0
 90 93  1  1
 90 91  1  0
 92 90  1  0
M  ISO  4  14 100  22 100  52 101  53 101
M  END
>  <TORSDO>  (37) 
F 18

>  <SCORE>  (37) 
-15.157

>  <name>  (37) 
36

>  <ligand_id>  (37) 
36

>  <original_smiles>  (37) 
[H]c1c([H])c([H])c2c(c1[H])C([H])([H])C([H])([H])C([H])([H])C2([H])N([H])C(=O)C1([H])N(C(=O)C([H])(N([H])C(=O)C([H])(N([H])C([H])([H])[H])C([H])([H])[H])C(C([H])([H])[H])(C([H])([H])[H])C([H])([H])[H])C([H])([H])c2c([H])c(OC([H])([H])C3([H])N(c4c([H])c([H])c(N([H])C(=O)N5C([H])([H])C([H])([H])C([H])([H])C([H])(n6nc(-c7c([H])c([H])c(Oc8c([H])c([H])c(F)c([H])c8F)c([H])c7[H])c(C(=O)N([H])[H])c6N([H])[H])C5([H])[H])c(F)c4C([H])([H])[H])C([H])([H])C([H])([H])C3([H])[H])c([H])c([H])c2C1([H])[H]

>  <smiles>  (37) 
[H]c1c([H])c([H])c2c(c1[H])C([H])([H])C([H])([H])C([H])([H])C2([H])N([H])C(=O)C1([H])N(C(=O)C([H])(N([H])C(=O)C([H])(N([H])C([H])([H])[H])C([H])([H])[H])C(C([H])([H])[H])(C([H])([H])[H])C([H])([H])[H])C([H])([H])c2c([H])c(OC([H])([H])C3([H])N(c4c([H])c([H])c(N([H])C(=O)N5C([H])([H])C([H])([H])C([H])([H])C([H])(n6nc(-c7c([H])c([H])c(Oc8c([H])c([H])c(F)c([H])c8F)c([H])c7[H])c(C(=O)N([H])[H])c6N([H])[H])C5([H])[H])c(F)c4C([H])([H])[H])C([H])([H])C([H])([H])C3([H])[H])c([H])c([H])c2C1([H])[H]

$$$$
37:0:0
     RDKit          3D

 95104  0  0  1  0  0  0  0  0999 V2000
  -29.3380  -23.2130   20.8980 C   0  0  0  0  0  0  0  0  0  0  0  0
  -31.7570  -23.6930   19.3180 C   0  0  0  0  0  2  0  0  0  0  0  0
  -30.7400  -24.8310   19.4730 C   0  0  0  0  0  2  0  0  0  0  0  0
  -31.7440  -22.7320   20.5230 C   0  0  0  0  0  2  0  0  0  0  0  0
  -29.3500  -24.2430   19.7300 C   0  0  0  0  0  3  0  0  0  0  0  0
  -30.4070  -22.3750   21.0330 N   0  0  0  0  0  0  0  0  0  0  0  0
  -28.3390  -23.1250   21.6180 O   0  0  0  0  0  0  0  0  0  0  0  0
  -30.4330  -21.2440   21.9980 C   0  0  0  0  0  2  0  0  0  0  0  0
  -31.4580  -18.9100   21.6450 C   0  0  0  0  0  3  0  0  0  0  0  0
  -31.3410  -17.5280   21.3430 C   0  0  0  0  0  3  0  0  0  0  0  0
  -29.0660  -17.9050   20.5970 C   0  0  0  0  0  3  0  0  0  0  0  0
  -30.3730  -19.8020   21.4520 C   0  0  0  0  0  0  0  0  0  0  0  0
  -30.1270  -17.0000   20.8440 C   0  0  0  0  0  0  0  0  0  0  0  0
  -29.1840  -19.2850   20.8910 C   0  0  0  0  0  0  0  0  0  0  0  0
  -28.1260  -20.1030   20.6810 F   0  0  0  0  0  0  0  0  0  0  0  0
  -30.6490  -14.5870   20.2070 C   0  0  0  0  0  0  0  0  0  0  0  0
  -30.3360  -12.4370   19.0190 C   0  0  0  0  0  2  0  0  0  0  0  0
  -29.3480  -12.6590   17.8530 C   0  0  0  0  0  2  0  0  0  0  0  0
  -27.8900  -12.5090   18.3330 C   0  0  0  0  0  2  0  0  0  0  0  0
  -27.5960  -13.3190   19.6240 C   0  0  0  0  0  3  0  0  0  0  0  0
  -28.6910  -13.0710   20.6880 C   0  0  0  0  0  2  0  0  0  0  0  0
  -29.9920  -13.3980   20.0800 N   0  0  0  0  0  0  0  0  0  0  0  0
  -31.7810  -14.7740   19.7540 O   0  0  0  0  0  0  0  0  0  0  0  0
  -29.8760  -15.5930   20.6850 N   0  0  0  0  0  0  0  0  0  0  0  0
  -28.9310  -15.3020   20.8740 H   0  0  0  0  0  0  0  0  0  0  0  0
  -25.2190  -13.9190   20.4080 C   0  0  0  0  0  0  0  0  0  0  0  0
  -24.1640  -13.1450   20.8130 C   0  0  0  0  0  0  0  0  0  0  0  0
  -24.6260  -11.7940   20.7670 C   0  0  0  0  0  0  0  0  0  0  0  0
  -26.2580  -13.0400   20.1450 N   0  0  0  0  0  0  0  0  0  0  0  0
  -25.9070  -11.7570   20.4170 N   0  0  0  0  0  0  0  0  0  0  0  0
  -23.9080  -10.5310   20.9740 C   0  0  0  0  0  0  0  0  0  0  0  0
  -24.3670   -9.5630   21.8930 C   0  0  0  0  0  3  0  0  0  0  0  0
  -23.6490   -8.3640   22.0880 C   0  0  0  0  0  3  0  0  0  0  0  0
  -22.4560   -8.1250   21.3660 C   0  0  0  0  0  0  0  0  0  0  0  0
  -22.0160   -9.0820   20.4350 C   0  0  0  0  0  3  0  0  0  0  0  0
  -22.7350  -10.2720   20.2360 C   0  0  0  0  0  3  0  0  0  0  0  0
  -21.7060   -6.9790   21.4750 O   0  0  0  0  0  0  0  0  0  0  0  0
  -21.6880   -6.2360   22.6290 C   0  0  0  0  0  0  0  0  0  0  0  0
  -21.2970   -6.7920   23.8660 C   0  0  0  0  0  3  0  0  0  0  0  0
  -21.2260   -5.9740   25.0130 C   0  0  0  0  0  3  0  0  0  0  0  0
  -21.5360   -4.6040   24.9220 C   0  0  0  0  0  0  0  0  0  0  0  0
  -21.9220   -4.0490   23.6880 C   0  0  0  0  0  3  0  0  0  0  0  0
  -21.9940   -4.8630   22.5450 C   0  0  0  0  0  0  0  0  0  0  0  0
  -22.3440   -4.3180   21.3540 F   0  0  0  0  0  0  0  0  0  0  0  0
  -21.4620   -3.8170   26.0200 F   0  0  0  0  0  0  0  0  0  0  0  0
  -22.7750  -13.6210   21.1290 C   0  0  0  0  0  0  0  0  0  0  0  0
  -22.0740  -12.9200   22.0150 N   0  0  0  0  0  0  0  0  0  0  0  0
  -22.3230  -14.6480   20.6260 O   0  0  0  0  0  0  0  0  0  0  0  0
  -22.4510  -12.0860   22.4380 H   0  0  0  0  0  0  0  0  0  0  0  0
  -21.1440  -13.2230   22.2700 H   0  0  0  0  0  0  0  0  0  0  0  0
  -25.3780  -15.2890   20.2240 N   0  0  0  0  0  0  0  0  0  0  0  0
  -24.6030  -15.9350   20.3330 H   0  0  0  0  0  0  0  0  0  0  0  0
  -26.1940  -15.7170   19.8060 H   0  0  0  0  0  0  0  0  0  0  0  0
  -28.1740  -25.2730   19.6400 C   0  0  0  0  0  2  0  0  0  0  0  0
  -28.3150  -26.6260   20.1490 O   0  0  0  0  0  0  0  0  0  0  0  0
  -24.5810  -31.9090   23.2300 C   0  0  0  0  0  0  0  0  0  0  0  0
  -27.1660  -27.4180   20.1170 C   0  0  0  0  0  0  0  0  0  0  0  0
  -23.3570  -30.5240   21.5910 C   0  0  0  0  0  3  0  0  0  0  0  0
  -24.7910  -28.9890   20.1480 C   0  0  0  0  0  0  0  0  0  0  0  0
  -25.8930  -30.8500   21.3920 C   0  0  0  0  0  2  0  0  0  0  0  0
  -25.9620  -29.4820   20.7360 C   0  0  0  0  0  0  0  0  0  0  0  0
  -27.1510  -28.7040   20.7200 C   0  0  0  0  0  3  0  0  0  0  0  0
  -25.9660  -26.9660   19.5110 C   0  0  0  0  0  3  0  0  0  0  0  0
  -24.7910  -27.7320   19.5310 C   0  0  0  0  0  3  0  0  0  0  0  0
  -23.5520  -29.8510   20.2090 C   0  0  0  0  0  2  0  0  0  0  0  0
  -24.6290  -31.1100   22.1260 N   0  0  0  0  0  0  0  0  0  0  0  0
  -23.5040  -32.1870   23.7760 O   0  0  0  0  0  0  0  0  0  0  0  0
  -22.7050  -29.5020   22.5510 C   0  0  0  0  0  0  0  0  0  0  0  0
  -21.3800  -29.3150   22.4180 N   0  0  0  0  0  0  0  0  0  0  0  0
  -23.3870  -28.8820   23.3710 O   0  0  0  0  0  0  0  0  0  0  0  0
  -20.8950  -29.8680   21.7250 H   0  0  0  0  0  0  0  0  0  0  0  0
  -18.0100  -28.0970   22.8920 C   0  0  0  0  0  0  0  0  0  0  0  0
  -20.5630  -28.3790   23.1870 C   0  0  0  0  0  3  0  0  0  0  0  0
  -20.6830  -26.9440   22.6240 C   0  0  0  0  0  2  0  0  0  0  0  0
  -19.5940  -26.6020   21.6020 C   0  0  0  0  0  2  0  0  0  0  0  0
  -18.2050  -26.7440   22.2290 C   0  0  0  0  0  2  0  0  0  0  0  0
  -19.1190  -28.8710   23.3260 C   0  0  0  0  0  0  0  0  0  0  0  0
  -18.8840  -30.1390   23.9020 C   0  0  0  0  0  3  0  0  0  0  0  0
  -17.5740  -30.6330   24.0480 C   0  0  0  0  0  3  0  0  0  0  0  0
  -16.4800  -29.8550   23.6320 C   0  0  0  0  0  3  0  0  0  0  0  0
  -16.6990  -28.5880   23.0620 C   0  0  0  0  0  3  0  0  0  0  0  0
  -25.8750  -32.5300   23.8420 C   0  0  0  0  0  3  0  0  0  0  0  0
  -26.3960  -31.7540   25.1140 C   0  0  1  0  0  0  0  0  0  0  0  0
  -25.3090  -31.5150   26.1870 C   0  0  0  0  0  1  0  0  0  0  0  0
  -26.9690  -30.3750   24.7140 C   0  0  0  0  0  1  0  0  0  0  0  0
  -27.5520  -32.5450   25.7680 C   0  0  0  0  0  1  0  0  0  0  0  0
  -25.5770  -33.9280   24.1770 N   0  0  0  0  0  0  0  0  0  0  0  0
  -25.9090  -34.9810   23.4160 C   0  0  0  0  0  0  0  0  0  0  0  0
  -26.5680  -34.8760   22.3780 O   0  0  0  0  0  0  0  0  0  0  0  0
  -24.9980  -34.0840   24.9890 H   0  0  0  0  0  0  0  0  0  0  0  0
  -24.1840  -36.7790   23.0800 C   0  0  0  0  0  1  0  0  0  0  0  0
  -25.4300  -36.3690   23.8800 C   0  0  0  0  0  3  0  0  0  0  0  0
  -27.5730  -37.2460   24.6970 C   0  0  0  0  0  1  0  0  0  0  0  0
  -26.4640  -37.4190   23.7610 N   0  0  0  0  0  0  0  0  0  0  0  0
  -26.0600  -38.3390   23.9120 H   0  0  0  0  0  0  0  0  0  0  0  0
  1  6  1  0
  1  7  2  0
  2  3  1  0
  2  4  1  0
  3  5  1  0
  4  6  1  0
  5 54  1  0
  5  1  1  0
  6  8  1  0
 10  9  2  0
 11 13  2  0
 11 14  1  0
 12  9  1  0
 12  8  1  0
 13 10  1  0
 14 12  2  0
 15 14  1  0
 16 24  1  0
 17 22  1  0
 18 19  1  0
 18 17  1  0
 20 19  1  0
 20 29  1  0
 20 21  1  0
 22 16  1  0
 22 21  1  0
 23 16  2  0
 24 13  1  0
 24 25  1  0
 26 27  2  0
 27 46  1  0
 28 27  1  0
 28 31  1  0
 29 26  1  0
 29 30  1  0
 30 28  2  0
 31 32  1  0
 32 33  2  0
 34 37  1  0
 34 33  1  0
 35 34  2  0
 36 35  1  0
 36 31  2  0
 37 38  1  0
 38 39  1  0
 39 40  2  0
 41 40  1  0
 41 45  1  0
 42 41  2  0
 43 38  2  0
 43 42  1  0
 44 43  1  0
 46 47  1  0
 47 50  1  0
 47 49  1  0
 48 46  2  0
 51 52  1  0
 51 26  1  0
 53 51  1  0
 54 55  1  0
 56 67  2  0
 57 55  1  0
 57 62  1  0
 58 66  1  0
 58 68  1  0
 59 65  1  0
 59 61  1  0
 60 66  1  0
 61 60  1  0
 62 61  2  0
 63 64  1  0
 63 57  2  0
 64 59  2  0
 65 58  1  0
 66 56  1  0
 68 70  2  0
 69 68  1  0
 71 69  1  0
 72 81  2  0
 72 77  1  0
 73 69  1  0
 73 77  1  0
 74 73  1  0
 75 76  1  0
 75 74  1  0
 76 72  1  0
 77 78  2  0
 78 79  1  0
 80 79  2  0
 81 80  1  0
 82 56  1  0
 82 87  1  0
 82 83  1  0
 83 86  1  1
 83 84  1  0
 85 83  1  0
 87 90  1  0
 88 92  1  0
 88 87  1  0
 89 88  2  0
 92 91  1  0
 94 92  1  0
 94 95  1  0
 94 93  1  0
M  ISO  4  16 100  24 100  54 101  55 101
M  END
>  <TORSDO>  (38) 
F 19

>  <SCORE>  (38) 
-14.606

>  <name>  (38) 
37

>  <ligand_id>  (38) 
37

>  <original_smiles>  (38) 
[H]c1c([H])c([H])c2c(c1[H])C([H])([H])C([H])([H])C([H])([H])C2([H])N([H])C(=O)C1([H])N(C(=O)C([H])(N([H])C(=O)C([H])(N([H])C([H])([H])[H])C([H])([H])[H])C(C([H])([H])[H])(C([H])([H])[H])C([H])([H])[H])C([H])([H])c2c([H])c(OC([H])([H])C3([H])C(=O)N(C([H])([H])c4c([H])c([H])c(N([H])C(=O)N5C([H])([H])C([H])([H])C([H])([H])C([H])(n6nc(-c7c([H])c([H])c(Oc8c([H])c([H])c(F)c([H])c8F)c([H])c7[H])c(C(=O)N([H])[H])c6N([H])[H])C5([H])[H])c([H])c4F)C([H])([H])C([H])([H])C3([H])[H])c([H])c([H])c2C1([H])[H]

>  <smiles>  (38) 
[H]c1c([H])c([H])c2c(c1[H])C([H])([H])C([H])([H])C([H])([H])C2([H])N([H])C(=O)C1([H])N(C(=O)C([H])(N([H])C(=O)C([H])(N([H])C([H])([H])[H])C([H])([H])[H])C(C([H])([H])[H])(C([H])([H])[H])C([H])([H])[H])C([H])([H])c2c([H])c(OC([H])([H])C3([H])C(=O)N(C([H])([H])c4c([H])c([H])c(N([H])C(=O)N5C([H])([H])C([H])([H])C([H])([H])C([H])(n6nc(-c7c([H])c([H])c(Oc8c([H])c([H])c(F)c([H])c8F)c([H])c7[H])c(C(=O)N([H])[H])c6N([H])[H])C5([H])[H])c([H])c4F)C([H])([H])C([H])([H])C3([H])[H])c([H])c([H])c2C1([H])[H]

$$$$
38:0:0
     RDKit          3D

 93102  0  0  1  0  0  0  0  0999 V2000
  -27.6080  -22.9300   19.6870 C   0  0  0  0  0  0  0  0  0  0  0  0
  -29.0160  -23.4270   21.1010 C   0  0  0  0  0  2  0  0  0  0  0  0
  -28.0080  -24.2860   20.3050 C   0  0  0  0  0  3  0  0  0  0  0  0
  -28.3140  -22.2150   20.6270 N   0  0  0  0  0  0  0  0  0  0  0  0
  -26.8400  -22.5670   18.8120 O   0  0  0  0  0  0  0  0  0  0  0  0
  -28.0730  -20.8780   21.2390 C   0  0  0  0  0  2  0  0  0  0  0  0
  -29.8370  -18.9600   21.2850 C   0  0  0  0  0  3  0  0  0  0  0  0
  -30.3140  -17.6870   20.8620 C   0  0  0  0  0  3  0  0  0  0  0  0
  -28.5570  -17.6070   19.1950 C   0  0  0  0  0  3  0  0  0  0  0  0
  -28.7160  -19.5820   20.6720 C   0  0  0  0  0  0  0  0  0  0  0  0
  -29.6800  -16.9840   19.8100 C   0  0  0  0  0  0  0  0  0  0  0  0
  -28.0790  -18.8810   19.6240 C   0  0  0  0  0  0  0  0  0  0  0  0
  -26.9670  -19.3940   19.0530 F   0  0  0  0  0  0  0  0  0  0  0  0
  -30.8880  -14.7070   19.8540 C   0  0  0  0  0  0  0  0  0  0  0  0
  -30.6100  -12.4460   18.9060 C   0  0  0  0  0  2  0  0  0  0  0  0
  -29.6110  -12.5930   17.7410 C   0  0  0  0  0  2  0  0  0  0  0  0
  -28.1600  -12.4700   18.2540 C   0  0  0  0  0  2  0  0  0  0  0  0
  -27.8740  -13.3470   19.5060 C   0  0  0  0  0  3  0  0  0  0  0  0
  -29.0000  -13.2030   20.5560 C   0  0  0  0  0  2  0  0  0  0  0  0
  -30.2670  -13.4990   19.8720 N   0  0  0  0  0  0  0  0  0  0  0  0
  -32.0970  -14.8100   19.6450 O   0  0  0  0  0  0  0  0  0  0  0  0
  -30.0970  -15.6850   19.3290 N   0  0  0  0  0  0  0  0  0  0  0  0
  -30.0690  -15.6100   18.3140 H   0  0  0  0  0  0  0  0  0  0  0  0
  -25.5500  -13.9740   20.4140 C   0  0  0  0  0  0  0  0  0  0  0  0
  -24.4910  -13.2120   20.8280 C   0  0  0  0  0  0  0  0  0  0  0  0
  -24.9210  -11.8550   20.7190 C   0  0  0  0  0  0  0  0  0  0  0  0
  -26.5540  -13.0770   20.0740 N   0  0  0  0  0  0  0  0  0  0  0  0
  -26.1870  -11.7940   20.3220 N   0  0  0  0  0  0  0  0  0  0  0  0
  -24.1820  -10.6010   20.9150 C   0  0  0  0  0  0  0  0  0  0  0  0
  -24.5990   -9.6360   21.8600 C   0  0  0  0  0  3  0  0  0  0  0  0
  -23.8630   -8.4440   22.0390 C   0  0  0  0  0  3  0  0  0  0  0  0
  -22.6950   -8.2100   21.2730 C   0  0  0  0  0  0  0  0  0  0  0  0
  -22.3050   -9.1570   20.3110 C   0  0  0  0  0  3  0  0  0  0  0  0
  -23.0400  -10.3390   20.1300 C   0  0  0  0  0  3  0  0  0  0  0  0
  -21.9340   -7.0690   21.3590 O   0  0  0  0  0  0  0  0  0  0  0  0
  -21.7860   -6.3910   22.5430 C   0  0  0  0  0  0  0  0  0  0  0  0
  -21.2580   -7.0120   23.6960 C   0  0  0  0  0  3  0  0  0  0  0  0
  -21.0580   -6.2620   24.8710 C   0  0  0  0  0  3  0  0  0  0  0  0
  -21.3760   -4.8910   24.8960 C   0  0  0  0  0  0  0  0  0  0  0  0
  -21.8950   -4.2680   23.7470 C   0  0  0  0  0  3  0  0  0  0  0  0
  -22.1000   -5.0180   22.5750 C   0  0  0  0  0  0  0  0  0  0  0  0
  -22.5810   -4.4100   21.4640 F   0  0  0  0  0  0  0  0  0  0  0  0
  -21.1770   -4.1660   26.0220 F   0  0  0  0  0  0  0  0  0  0  0  0
  -23.1260  -13.7030   21.2130 C   0  0  0  0  0  0  0  0  0  0  0  0
  -22.4470  -12.9900   22.1090 N   0  0  0  0  0  0  0  0  0  0  0  0
  -22.6740  -14.7520   20.7590 O   0  0  0  0  0  0  0  0  0  0  0  0
  -22.8330  -12.1430   22.4970 H   0  0  0  0  0  0  0  0  0  0  0  0
  -21.5340  -13.3000   22.4120 H   0  0  0  0  0  0  0  0  0  0  0  0
  -25.7310  -15.3450   20.2720 N   0  0  0  0  0  0  0  0  0  0  0  0
  -24.9950  -16.0140   20.4630 H   0  0  0  0  0  0  0  0  0  0  0  0
  -26.5690  -15.7770   19.9040 H   0  0  0  0  0  0  0  0  0  0  0  0
  -28.4500  -25.3630   19.2830 C   0  0  0  0  0  2  0  0  0  0  0  0
  -28.4240  -26.7330   19.7540 O   0  0  0  0  0  0  0  0  0  0  0  0
  -24.6190  -31.8140   23.0380 C   0  0  0  0  0  0  0  0  0  0  0  0
  -27.2400  -27.4550   19.7710 C   0  0  0  0  0  0  0  0  0  0  0  0
  -23.3920  -30.4510   21.3780 C   0  0  0  0  0  3  0  0  0  0  0  0
  -24.8320  -28.9640   19.8820 C   0  0  0  0  0  0  0  0  0  0  0  0
  -25.9150  -30.8320   21.1370 C   0  0  0  0  0  2  0  0  0  0  0  0
  -25.9990  -29.4750   20.4610 C   0  0  0  0  0  0  0  0  0  0  0  0
  -27.2000  -28.7230   20.4100 C   0  0  0  0  0  3  0  0  0  0  0  0
  -26.0520  -26.9820   19.1610 C   0  0  0  0  0  3  0  0  0  0  0  0
  -24.8550  -27.7170   19.2330 C   0  0  0  0  0  3  0  0  0  0  0  0
  -23.5840  -29.8080   19.9770 C   0  0  0  0  0  2  0  0  0  0  0  0
  -24.6640  -31.0470   21.9110 N   0  0  0  0  0  0  0  0  0  0  0  0
  -23.5440  -32.0520   23.6040 O   0  0  0  0  0  0  0  0  0  0  0  0
  -22.7770  -29.3860   22.3190 C   0  0  0  0  0  0  0  0  0  0  0  0
  -21.4540  -29.1870   22.2100 N   0  0  0  0  0  0  0  0  0  0  0  0
  -23.4900  -28.7480   23.1000 O   0  0  0  0  0  0  0  0  0  0  0  0
  -20.9320  -29.7720   21.5690 H   0  0  0  0  0  0  0  0  0  0  0  0
  -18.1180  -27.9050   22.7110 C   0  0  0  0  0  0  0  0  0  0  0  0
  -20.6730  -28.2100   22.9650 C   0  0  0  0  0  3  0  0  0  0  0  0
  -20.7980  -26.7930   22.3610 C   0  0  0  0  0  2  0  0  0  0  0  0
  -19.7010  -26.5030   21.3390 C   0  0  0  0  0  2  0  0  0  0  0  0
  -18.3160  -26.5860   21.9900 C   0  0  0  0  0  2  0  0  0  0  0  0
  -19.2250  -28.6740   23.1590 C   0  0  0  0  0  0  0  0  0  0  0  0
  -18.9850  -29.9190   23.7750 C   0  0  0  0  0  3  0  0  0  0  0  0
  -17.6740  -30.3890   23.9610 C   0  0  0  0  0  3  0  0  0  0  0  0
  -16.5810  -29.6160   23.5410 C   0  0  0  0  0  3  0  0  0  0  0  0
  -16.8030  -28.3790   22.9150 C   0  0  0  0  0  3  0  0  0  0  0  0
  -25.9020  -32.4450   23.6540 C   0  0  0  0  0  3  0  0  0  0  0  0
  -26.4700  -31.6340   24.8830 C   0  0  1  0  0  0  0  0  0  0  0  0
  -25.4150  -31.3280   25.9720 C   0  0  0  0  0  1  0  0  0  0  0  0
  -27.0600  -30.2860   24.4110 C   0  0  0  0  0  1  0  0  0  0  0  0
  -27.6260  -32.4180   25.5480 C   0  0  0  0  0  1  0  0  0  0  0  0
  -25.5780  -33.8260   24.0450 N   0  0  0  0  0  0  0  0  0  0  0  0
  -25.8870  -34.9130   23.3260 C   0  0  0  0  0  0  0  0  0  0  0  0
  -26.5380  -34.8590   22.2800 O   0  0  0  0  0  0  0  0  0  0  0  0
  -24.9930  -33.9400   24.8610 H   0  0  0  0  0  0  0  0  0  0  0  0
  -24.1340  -36.6960   23.0510 C   0  0  0  0  0  1  0  0  0  0  0  0
  -25.3830  -36.2720   23.8410 C   0  0  0  0  0  3  0  0  0  0  0  0
  -27.5100  -37.1490   24.6970 C   0  0  0  0  0  1  0  0  0  0  0  0
  -26.4010  -37.3400   23.7670 N   0  0  0  0  0  0  0  0  0  0  0  0
  -25.9860  -38.2500   23.9460 H   0  0  0  0  0  0  0  0  0  0  0  0
  1  3  1  0
  1  4  1  0
  3 52  1  0
  3  2  1  0
  4  2  1  0
  4  6  1  0
  5  1  2  0
  8  7  1  0
  9 12  2  0
  9 11  1  0
 10  6  1  0
 10  7  2  0
 11  8  2  0
 12 10  1  0
 13 12  1  0
 14 20  1  0
 15 20  1  0
 16 17  1  0
 16 15  1  0
 18 17  1  0
 18 27  1  0
 18 19  1  0
 20 19  1  0
 21 14  2  0
 22 11  1  0
 22 14  1  0
 23 22  1  0
 24 25  2  0
 25 44  1  0
 26 25  1  0
 26 29  1  0
 27 28  1  0
 27 24  1  0
 28 26  2  0
 29 30  1  0
 30 31  2  0
 32 35  1  0
 32 31  1  0
 33 32  2  0
 34 33  1  0
 34 29  2  0
 35 36  1  0
 36 41  2  0
 36 37  1  0
 37 38  2  0
 38 39  1  0
 39 43  1  0
 40 39  2  0
 41 40  1  0
 42 41  1  0
 44 45  1  0
 45 48  1  0
 45 47  1  0
 46 44  2  0
 49 24  1  0
 49 50  1  0
 51 49  1  0
 52 53  1  0
 53 55  1  0
 54 65  2  0
 55 60  1  0
 56 64  1  0
 56 66  1  0
 57 63  1  0
 57 59  1  0
 58 64  1  0
 59 58  1  0
 60 59  2  0
 61 62  1  0
 61 55  2  0
 62 57  2  0
 63 56  1  0
 64 54  1  0
 66 68  2  0
 67 66  1  0
 69 67  1  0
 70 79  2  0
 70 75  1  0
 71 67  1  0
 71 75  1  0
 72 71  1  0
 73 74  1  0
 73 72  1  0
 74 70  1  0
 75 76  2  0
 76 77  1  0
 78 77  2  0
 79 78  1  0
 80 54  1  0
 80 85  1  0
 80 81  1  0
 81 84  1  1
 81 82  1  0
 83 81  1  0
 85 88  1  0
 86 90  1  0
 86 85  1  0
 87 86  2  0
 90 89  1  0
 92 90  1  0
 92 93  1  0
 92 91  1  0
M  ISO  4  14 100  22 100  52 101  53 101
M  END
>  <TORSDO>  (39) 
F 19

>  <SCORE>  (39) 
-13.641

>  <name>  (39) 
38

>  <ligand_id>  (39) 
38

>  <original_smiles>  (39) 
[H]c1c([H])c([H])c2c(c1[H])C([H])([H])C([H])([H])C([H])([H])C2([H])N([H])C(=O)C1([H])N(C(=O)C([H])(N([H])C(=O)C([H])(N([H])C([H])([H])[H])C([H])([H])[H])C(C([H])([H])[H])(C([H])([H])[H])C([H])([H])[H])C([H])([H])c2c([H])c(OC([H])([H])C3([H])C(=O)N(C([H])([H])c4c([H])c([H])c(N([H])C(=O)N5C([H])([H])C([H])([H])C([H])([H])C([H])(n6nc(-c7c([H])c([H])c(Oc8c([H])c([H])c(F)c([H])c8F)c([H])c7[H])c(C(=O)N([H])[H])c6N([H])[H])C5([H])[H])c([H])c4F)C3([H])[H])c([H])c([H])c2C1([H])[H]

>  <smiles>  (39) 
[H]c1c([H])c([H])c2c(c1[H])C([H])([H])C([H])([H])C([H])([H])C2([H])N([H])C(=O)C1([H])N(C(=O)C([H])(N([H])C(=O)C([H])(N([H])C([H])([H])[H])C([H])([H])[H])C(C([H])([H])[H])(C([H])([H])[H])C([H])([H])[H])C([H])([H])c2c([H])c(OC([H])([H])C3([H])C(=O)N(C([H])([H])c4c([H])c([H])c(N([H])C(=O)N5C([H])([H])C([H])([H])C([H])([H])C([H])(n6nc(-c7c([H])c([H])c(Oc8c([H])c([H])c(F)c([H])c8F)c([H])c7[H])c(C(=O)N([H])[H])c6N([H])[H])C5([H])[H])c([H])c4F)C3([H])[H])c([H])c([H])c2C1([H])[H]

$$$$
39:0:0
     RDKit          3D

 98107  0  0  1  0  0  0  0  0999 V2000
  -28.8160  -18.0050   17.8990 C   0  0  0  0  0  3  0  0  0  0  0  0
  -29.3070  -16.9040   18.6200 C   0  0  0  0  0  3  0  0  0  0  0  0
  -28.7560  -19.3140   18.4340 C   0  0  0  0  0  0  0  0  0  0  0  0
  -29.7570  -17.0380   19.9480 C   0  0  0  0  0  0  0  0  0  0  0  0
  -29.2580  -19.5830   19.7460 C   0  0  0  0  0  0  0  0  0  0  0  0
  -29.7310  -18.4060   20.4820 C   0  0  0  0  0  0  0  0  0  0  0  0
  -30.1590  -18.6250   21.7490 F   0  0  0  0  0  0  0  0  0  0  0  0
  -30.7620  -14.6600   20.1250 C   0  0  0  0  0  0  0  0  0  0  0  0
  -30.4280  -12.4620   18.9710 C   0  0  0  0  0  2  0  0  0  0  0  0
  -29.4350  -12.6270   17.7990 C   0  0  0  0  0  2  0  0  0  0  0  0
  -27.9820  -12.4780   18.2900 C   0  0  0  0  0  2  0  0  0  0  0  0
  -27.7000  -13.3050   19.5720 C   0  0  0  0  0  3  0  0  0  0  0  0
  -28.8010  -13.1110   20.6320 C   0  0  0  0  0  2  0  0  0  0  0  0
  -30.0780  -13.4690   20.0020 N   0  0  0  0  0  0  0  0  0  0  0  0
  -31.8950  -14.7600   19.6420 O   0  0  0  0  0  0  0  0  0  0  0  0
  -30.1610  -15.8370   22.1400 C   0  0  0  0  0  1  0  0  0  0  0  0
  -30.1300  -15.7800   20.6740 N   0  0  0  0  0  0  0  0  0  0  0  0
  -25.3580  -13.9290   20.4070 C   0  0  0  0  0  0  0  0  0  0  0  0
  -24.2960  -13.1670   20.8110 C   0  0  0  0  0  0  0  0  0  0  0  0
  -24.7340  -11.8090   20.7460 C   0  0  0  0  0  0  0  0  0  0  0  0
  -26.3740  -13.0340   20.1150 N   0  0  0  0  0  0  0  0  0  0  0  0
  -26.0090  -11.7530   20.3800 N   0  0  0  0  0  0  0  0  0  0  0  0
  -23.9940  -10.5570   20.9510 C   0  0  0  0  0  0  0  0  0  0  0  0
  -24.4240   -9.5880   21.8820 C   0  0  0  0  0  3  0  0  0  0  0  0
  -23.6850   -8.4000   22.0740 C   0  0  0  0  0  3  0  0  0  0  0  0
  -22.5000   -8.1750   21.3330 C   0  0  0  0  0  0  0  0  0  0  0  0
  -22.0890   -9.1340   20.3900 C   0  0  0  0  0  3  0  0  0  0  0  0
  -22.8290  -10.3120   20.1960 C   0  0  0  0  0  3  0  0  0  0  0  0
  -21.7310   -7.0400   21.4350 O   0  0  0  0  0  0  0  0  0  0  0  0
  -21.6500   -6.3280   22.6040 C   0  0  0  0  0  0  0  0  0  0  0  0
  -21.2060   -6.9180   23.8080 C   0  0  0  0  0  3  0  0  0  0  0  0
  -21.0710   -6.1320   24.9700 C   0  0  0  0  0  3  0  0  0  0  0  0
  -21.3720   -4.7570   24.9290 C   0  0  0  0  0  0  0  0  0  0  0  0
  -21.8110   -4.1670   23.7300 C   0  0  0  0  0  3  0  0  0  0  0  0
  -21.9460   -4.9500   22.5710 C   0  0  0  0  0  0  0  0  0  0  0  0
  -22.3490   -4.3720   21.4140 F   0  0  0  0  0  0  0  0  0  0  0  0
  -21.2370   -4.0000   26.0430 F   0  0  0  0  0  0  0  0  0  0  0  0
  -22.9210  -13.6650   21.1490 C   0  0  0  0  0  0  0  0  0  0  0  0
  -22.2220  -12.9750   22.0430 N   0  0  0  0  0  0  0  0  0  0  0  0
  -22.4780  -14.7000   20.6540 O   0  0  0  0  0  0  0  0  0  0  0  0
  -22.5940  -12.1350   22.4620 H   0  0  0  0  0  0  0  0  0  0  0  0
  -21.3020  -13.2920   22.3150 H   0  0  0  0  0  0  0  0  0  0  0  0
  -25.5410  -15.2980   20.2430 N   0  0  0  0  0  0  0  0  0  0  0  0
  -24.7960  -15.9670   20.4060 H   0  0  0  0  0  0  0  0  0  0  0  0
  -26.3980  -15.7270   19.9180 H   0  0  0  0  0  0  0  0  0  0  0  0
  -29.2110  -20.9140   20.3620 N   0  0  0  0  0  0  0  0  0  0  0  0
  -29.5190  -20.8680   21.3320 H   0  0  0  0  0  0  0  0  0  0  0  0
  -29.3950  -22.2970   19.7390 C   0  0  0  0  0  2  0  0  0  0  0  0
  -28.9190  -23.6390   20.5260 C   0  0  0  0  0  3  0  0  0  0  0  0
  -28.8880  -25.0540   19.7240 C   0  0  0  0  0  3  0  0  0  0  0  0
  -28.6840  -26.4030   20.3640 O   0  0  0  0  0  0  0  0  0  0  0  0
  -24.5770  -31.6870   23.1640 C   0  0  0  0  0  0  0  0  0  0  0  0
  -27.5220  -27.2000   20.2390 C   0  0  0  0  0  0  0  0  0  0  0  0
  -23.5110  -30.2260   21.4850 C   0  0  0  0  0  3  0  0  0  0  0  0
  -25.0900  -28.7330   20.1270 C   0  0  0  0  0  0  0  0  0  0  0  0
  -26.0430  -30.6480   21.4100 C   0  0  0  0  0  2  0  0  0  0  0  0
  -26.2110  -29.2690   20.7700 C   0  0  0  0  0  0  0  0  0  0  0  0
  -27.4260  -28.5140   20.8160 C   0  0  0  0  0  3  0  0  0  0  0  0
  -26.3660  -26.7210   19.5820 C   0  0  0  0  0  3  0  0  0  0  0  0
  -25.1720  -27.4670   19.5260 C   0  0  0  0  0  3  0  0  0  0  0  0
  -23.8140  -29.5540   20.1210 C   0  0  0  0  0  2  0  0  0  0  0  0
  -24.7260  -30.8740   22.0770 N   0  0  0  0  0  0  0  0  0  0  0  0
  -23.4590  -31.9180   23.6490 O   0  0  0  0  0  0  0  0  0  0  0  0
  -22.8520  -29.1860   22.4230 C   0  0  0  0  0  0  0  0  0  0  0  0
  -21.5340  -28.9760   22.2670 N   0  0  0  0  0  0  0  0  0  0  0  0
  -23.5280  -28.5680   23.2510 O   0  0  0  0  0  0  0  0  0  0  0  0
  -21.0460  -29.5270   21.5740 H   0  0  0  0  0  0  0  0  0  0  0  0
  -18.1710  -27.7160   22.7140 C   0  0  0  0  0  0  0  0  0  0  0  0
  -20.7230  -28.0120   23.0130 C   0  0  0  0  0  3  0  0  0  0  0  0
  -20.8540  -26.5930   22.4110 C   0  0  0  0  0  2  0  0  0  0  0  0
  -19.7670  -26.2730   21.3790 C   0  0  0  0  0  2  0  0  0  0  0  0
  -18.3770  -26.3820   22.0150 C   0  0  0  0  0  2  0  0  0  0  0  0
  -19.2740  -28.4880   23.1680 C   0  0  0  0  0  0  0  0  0  0  0  0
  -19.0290  -29.7350   23.7830 C   0  0  0  0  0  3  0  0  0  0  0  0
  -17.7150  -30.2130   23.9480 C   0  0  0  0  0  3  0  0  0  0  0  0
  -16.6270  -29.4370   23.5110 C   0  0  0  0  0  3  0  0  0  0  0  0
  -16.8560  -28.1900   22.9010 C   0  0  0  0  0  3  0  0  0  0  0  0
  -25.8000  -32.3830   23.8360 C   0  0  0  0  0  3  0  0  0  0  0  0
  -25.4100  -33.7670   24.1460 N   0  0  0  0  0  0  0  0  0  0  0  0
  -25.7080  -34.8320   23.3880 C   0  0  0  0  0  0  0  0  0  0  0  0
  -26.4080  -34.7560   22.3770 O   0  0  0  0  0  0  0  0  0  0  0  0
  -24.7840  -33.8950   24.9280 H   0  0  0  0  0  0  0  0  0  0  0  0
  -23.8900  -36.5260   22.9890 C   0  0  0  0  0  1  0  0  0  0  0  0
  -25.1380  -36.1960   23.8240 C   0  0  0  0  0  3  0  0  0  0  0  0
  -27.2090  -37.2050   24.6780 C   0  0  0  0  0  1  0  0  0  0  0  0
  -26.1140  -37.3030   23.7150 N   0  0  0  0  0  0  0  0  0  0  0  0
  -25.6570  -38.2020   23.8480 H   0  0  0  0  0  0  0  0  0  0  0  0
  -26.2950  -31.6460   25.1410 C   0  0  1  0  0  0  0  0  0  0  0  0
  -25.1690  -31.3610   26.1620 C   0  0  0  0  0  1  0  0  0  0  0  0
  -26.9580  -30.2940   24.7870 C   0  0  0  0  0  1  0  0  0  0  0  0
  -27.3790  -32.4960   25.8460 C   0  0  0  0  0  1  0  0  0  0  0  0
  -28.0700  -20.3510   17.5470 C   0  0  0  0  0  2  0  0  0  0  0  0
  -24.5980  -21.0480   18.7460 C   0  0  0  0  0  2  0  0  0  0  0  0
  -24.7980  -22.0140   17.5810 C   0  0  0  0  0  2  0  0  0  0  0  0
  -25.8150  -20.1310   18.6380 C   0  0  0  0  0  2  0  0  0  0  0  0
  -26.3240  -22.1290   17.4330 C   0  0  0  0  0  2  0  0  0  0  0  0
  -26.9200  -21.0160   18.2110 N   0  0  2  0  0  4  0  0  0  0  0  0
  -27.2990  -21.4120   19.0620 H   0  0  0  0  0  0  0  0  0  0  0  0
  1  3  2  0
  1  2  1  0
  2  4  2  0
  3  5  1  0
  4  6  1  0
  4 17  1  0
  5 46  1  0
  5  6  2  0
  6  7  1  0
  8 17  1  0
  9 14  1  0
 10 11  1  0
 10  9  1  0
 12 11  1  0
 12 21  1  0
 12 13  1  0
 14  8  1  0
 14 13  1  0
 15  8  2  0
 17 16  1  0
 18 19  2  0
 19 38  1  0
 20 19  1  0
 20 23  1  0
 21 22  1  0
 21 18  1  0
 22 20  2  0
 23 24  1  0
 24 25  2  0
 26 29  1  0
 26 25  1  0
 27 26  2  0
 28 27  1  0
 28 23  2  0
 29 30  1  0
 30 31  1  0
 31 32  2  0
 33 32  1  0
 33 37  1  0
 34 33  2  0
 35 30  2  0
 35 34  1  0
 36 35  1  0
 38 39  1  0
 39 42  1  0
 39 41  1  0
 40 38  2  0
 43 44  1  0
 43 18  1  0
 45 43  1  0
 46 47  1  0
 48 46  1  0
 48 49  1  0
 50 51  1  0
 50 49  2  0
 52 63  2  0
 53 51  1  0
 53 58  1  0
 54 62  1  0
 54 64  1  0
 55 57  1  0
 56 62  1  0
 57 58  2  0
 57 56  1  0
 59 53  2  0
 60 59  1  0
 60 55  2  0
 61 55  1  0
 61 54  1  0
 62 52  1  0
 64 66  2  0
 65 64  1  0
 67 65  1  0
 68 77  2  0
 68 73  1  0
 69 65  1  0
 69 73  1  0
 70 69  1  0
 71 72  1  0
 71 70  1  0
 72 68  1  0
 73 74  2  0
 74 75  1  0
 76 75  2  0
 77 76  1  0
 78 52  1  0
 78 79  1  0
 78 88  1  0
 79 82  1  0
 80 84  1  0
 80 79  1  0
 81 80  2  0
 84 83  1  0
 86 84  1  0
 86 87  1  0
 86 85  1  0
 88 91  1  1
 88 89  1  0
 90 88  1  0
 92 97  1  0
 92  3  1  0
 94 93  1  0
 95 93  1  0
 96 94  1  0
 96 97  1  0
 97 95  1  0
 97 98  1  1
M  ISO  4   8 100  17 100  50 101  51 101
M  END
>  <TORSDO>  (40) 
F 22

>  <SCORE>  (40) 
-11.921

>  <name>  (40) 
39

>  <ligand_id>  (40) 
39

>  <original_smiles>  (40) 
[H]c1c([H])c([H])c2c(c1[H])C([H])([H])C([H])([H])C([H])([H])C2([H])N([H])C(=O)C1([H])N(C(=O)C([H])(N([H])C(=O)C([H])(N([H])C([H])([H])[H])C([H])([H])[H])C(C([H])([H])[H])(C([H])([H])[H])C([H])([H])[H])C([H])([H])c2c([H])c(OC([H])([H])C([H])([H])C([H])([H])N([H])c3c(F)c(N(C(=O)N4C([H])([H])C([H])([H])C([H])([H])C([H])(n5nc(-c6c([H])c([H])c(Oc7c([H])c([H])c(F)c([H])c7F)c([H])c6[H])c(C(=O)N([H])[H])c5N([H])[H])C4([H])[H])C([H])([H])[H])c([H])c([H])c3C([H])([H])[N+]3([H])C([H])([H])C([H])([H])C([H])([H])C3([H])[H])c([H])c([H])c2C1([H])[H]

>  <smiles>  (40) 
[H]c1c([H])c([H])c2c(c1[H])C([H])([H])C([H])([H])C([H])([H])C2([H])N([H])C(=O)C1([H])N(C(=O)C([H])(N([H])C(=O)C([H])(N([H])C([H])([H])[H])C([H])([H])[H])C(C([H])([H])[H])(C([H])([H])[H])C([H])([H])[H])C([H])([H])c2c([H])c(OC([H])([H])C([H])([H])C([H])([H])N([H])c3c(F)c(N(C(=O)N4C([H])([H])C([H])([H])C([H])([H])C([H])(n5nc(-c6c([H])c([H])c(Oc7c([H])c([H])c(F)c([H])c7F)c([H])c6[H])c(C(=O)N([H])[H])c5N([H])[H])C4([H])[H])C([H])([H])[H])c([H])c([H])c3C([H])([H])[N+]3([H])C([H])([H])C([H])([H])C([H])([H])C3([H])[H])c([H])c([H])c2C1([H])[H]

$$$$
40:0:0
     RDKit          3D

 94103  0  0  1  0  0  0  0  0999 V2000
  -29.3120  -22.9300   20.8670 C   0  0  0  0  0  0  0  0  0  0  0  0
  -30.3890  -24.2700   19.1980 C   0  0  0  0  0  2  0  0  0  0  0  0
  -30.8530  -22.8060   19.1560 C   0  0  0  0  0  2  0  0  0  0  0  0
  -29.5320  -24.3960   20.4600 C   0  0  0  0  0  3  0  0  0  0  0  0
  -30.0870  -22.0690   20.1620 N   0  0  0  0  0  0  0  0  0  0  0  0
  -28.5000  -22.6320   21.7470 O   0  0  0  0  0  0  0  0  0  0  0  0
  -31.4050  -18.5450   19.6870 C   0  0  0  0  0  3  0  0  0  0  0  0
  -31.0840  -19.9010   19.4590 C   0  0  0  0  0  3  0  0  0  0  0  0
  -29.7780  -19.9370   21.4960 C   0  0  0  0  0  3  0  0  0  0  0  0
  -30.9500  -17.8830   20.8460 C   0  0  0  0  0  0  0  0  0  0  0  0
  -30.2930  -20.6450   20.3750 C   0  0  0  0  0  0  0  0  0  0  0  0
  -30.1050  -18.5840   21.7310 C   0  0  0  0  0  0  0  0  0  0  0  0
  -29.6350  -17.9730   22.8460 F   0  0  0  0  0  0  0  0  0  0  0  0
  -31.4780  -16.4890   21.1960 C   0  0  0  0  0  2  0  0  0  0  0  0
  -31.1790  -14.3950   19.8630 C   0  0  0  0  0  0  0  0  0  0  0  0
  -30.6650  -12.2590   18.7300 C   0  0  0  0  0  2  0  0  0  0  0  0
  -29.6640  -12.4840   17.5810 C   0  0  0  0  0  2  0  0  0  0  0  0
  -28.2140  -12.4380   18.1010 C   0  0  0  0  0  2  0  0  0  0  0  0
  -28.0000  -13.3200   19.3610 C   0  0  0  0  0  3  0  0  0  0  0  0
  -29.1040  -13.0570   20.4080 C   0  0  0  0  0  2  0  0  0  0  0  0
  -30.4080  -13.2790   19.7570 N   0  0  0  0  0  0  0  0  0  0  0  0
  -32.2310  -14.5460   19.2370 O   0  0  0  0  0  0  0  0  0  0  0  0
  -30.7150  -15.3430   20.6920 N   0  0  0  0  0  0  0  0  0  0  0  0
  -29.8290  -15.1570   21.1340 H   0  0  0  0  0  0  0  0  0  0  0  0
  -25.6990  -14.0800   20.2310 C   0  0  0  0  0  0  0  0  0  0  0  0
  -24.6060  -13.3770   20.6610 C   0  0  0  0  0  0  0  0  0  0  0  0
  -24.9690  -11.9960   20.5810 C   0  0  0  0  0  0  0  0  0  0  0  0
  -26.6640  -13.1330   19.9230 N   0  0  0  0  0  0  0  0  0  0  0  0
  -26.2300  -11.8730   20.1880 N   0  0  0  0  0  0  0  0  0  0  0  0
  -24.1700  -10.7840   20.8020 C   0  0  0  0  0  0  0  0  0  0  0  0
  -24.5720   -9.7920   21.7240 C   0  0  0  0  0  3  0  0  0  0  0  0
  -23.7760   -8.6440   21.9320 C   0  0  0  0  0  3  0  0  0  0  0  0
  -22.5640   -8.4810   21.2190 C   0  0  0  0  0  0  0  0  0  0  0  0
  -22.1810   -9.4610   20.2860 C   0  0  0  0  0  3  0  0  0  0  0  0
  -22.9770  -10.6000   20.0750 C   0  0  0  0  0  3  0  0  0  0  0  0
  -21.7410   -7.3870   21.3370 O   0  0  0  0  0  0  0  0  0  0  0  0
  -21.6510   -6.6780   22.5070 C   0  0  0  0  0  0  0  0  0  0  0  0
  -21.2800   -7.2920   23.7250 C   0  0  0  0  0  3  0  0  0  0  0  0
  -21.1320   -6.5130   24.8890 C   0  0  0  0  0  3  0  0  0  0  0  0
  -21.3430   -5.1220   24.8390 C   0  0  0  0  0  0  0  0  0  0  0  0
  -21.7070   -4.5080   23.6270 C   0  0  0  0  0  3  0  0  0  0  0  0
  -21.8570   -5.2850   22.4640 C   0  0  0  0  0  0  0  0  0  0  0  0
  -22.1870   -4.6850   21.2940 F   0  0  0  0  0  0  0  0  0  0  0  0
  -21.1930   -4.3720   25.9550 F   0  0  0  0  0  0  0  0  0  0  0  0
  -23.2670  -13.9440   21.0330 C   0  0  0  0  0  0  0  0  0  0  0  0
  -22.5540  -13.2890   21.9420 N   0  0  0  0  0  0  0  0  0  0  0  0
  -22.8640  -15.0030   20.5520 O   0  0  0  0  0  0  0  0  0  0  0  0
  -22.8930  -12.4300   22.3520 H   0  0  0  0  0  0  0  0  0  0  0  0
  -21.6580  -13.6500   22.2350 H   0  0  0  0  0  0  0  0  0  0  0  0
  -25.9490  -15.4380   20.0610 N   0  0  0  0  0  0  0  0  0  0  0  0
  -25.2420  -16.1460   20.2320 H   0  0  0  0  0  0  0  0  0  0  0  0
  -26.8120  -15.8210   19.6950 H   0  0  0  0  0  0  0  0  0  0  0  0
  -28.2140  -25.1930   20.2690 C   0  0  0  0  0  2  0  0  0  0  0  0
  -28.3690  -26.6260   20.1910 O   0  0  0  0  0  0  0  0  0  0  0  0
  -24.3960  -31.7890   23.1120 C   0  0  0  0  0  0  0  0  0  0  0  0
  -27.1850  -27.3440   20.1460 C   0  0  0  0  0  0  0  0  0  0  0  0
  -23.2380  -30.3040   21.5120 C   0  0  0  0  0  3  0  0  0  0  0  0
  -24.7420  -28.7850   20.1260 C   0  0  0  0  0  0  0  0  0  0  0  0
  -25.7530  -30.7420   21.3000 C   0  0  0  0  0  2  0  0  0  0  0  0
  -25.8880  -29.3580   20.6940 C   0  0  0  0  0  0  0  0  0  0  0  0
  -27.1130  -28.6490   20.6960 C   0  0  0  0  0  3  0  0  0  0  0  0
  -26.0130  -26.7950   19.5710 C   0  0  0  0  0  3  0  0  0  0  0  0
  -24.8020  -27.5030   19.5620 C   0  0  0  0  0  3  0  0  0  0  0  0
  -23.4700  -29.6010   20.1500 C   0  0  0  0  0  2  0  0  0  0  0  0
  -24.4810  -30.9610   22.0330 N   0  0  0  0  0  0  0  0  0  0  0  0
  -23.3050  -32.0360   23.6460 O   0  0  0  0  0  0  0  0  0  0  0  0
  -22.6250  -29.2830   22.5000 C   0  0  0  0  0  0  0  0  0  0  0  0
  -21.3130  -29.0340   22.3660 N   0  0  0  0  0  0  0  0  0  0  0  0
  -23.3280  -28.7180   23.3410 O   0  0  0  0  0  0  0  0  0  0  0  0
  -20.8050  -29.5420   21.6550 H   0  0  0  0  0  0  0  0  0  0  0  0
  -18.0030  -27.6590   22.8360 C   0  0  0  0  0  0  0  0  0  0  0  0
  -20.5320  -28.0870   23.1620 C   0  0  0  0  0  3  0  0  0  0  0  0
  -20.7370  -26.6380   22.6630 C   0  0  0  0  0  2  0  0  0  0  0  0
  -19.6870  -26.1980   21.6390 C   0  0  0  0  0  2  0  0  0  0  0  0
  -18.2810  -26.2900   22.2360 C   0  0  0  0  0  2  0  0  0  0  0  0
  -19.0610  -28.5080   23.2560 C   0  0  0  0  0  0  0  0  0  0  0  0
  -18.7490  -29.7840   23.7760 C   0  0  0  0  0  3  0  0  0  0  0  0
  -17.4130  -30.2130   23.8780 C   0  0  0  0  0  3  0  0  0  0  0  0
  -16.3690  -29.3620   23.4740 C   0  0  0  0  0  3  0  0  0  0  0  0
  -16.6650  -28.0880   22.9600 C   0  0  0  0  0  3  0  0  0  0  0  0
  -25.6570  -32.4840   23.7100 C   0  0  0  0  0  3  0  0  0  0  0  0
  -26.2270  -31.7460   24.9830 C   0  0  1  0  0  0  0  0  0  0  0  0
  -25.1600  -31.4520   26.0640 C   0  0  0  0  0  1  0  0  0  0  0  0
  -26.8780  -30.4010   24.5860 C   0  0  0  0  0  1  0  0  0  0  0  0
  -27.3410  -32.6020   25.6310 C   0  0  0  0  0  1  0  0  0  0  0  0
  -25.2890  -33.8690   24.0330 N   0  0  0  0  0  0  0  0  0  0  0  0
  -25.5770  -34.9290   23.2660 C   0  0  0  0  0  0  0  0  0  0  0  0
  -26.2530  -34.8490   22.2370 O   0  0  0  0  0  0  0  0  0  0  0  0
  -24.6910  -34.0030   24.8340 H   0  0  0  0  0  0  0  0  0  0  0  0
  -23.7730  -36.6430   22.8960 C   0  0  0  0  0  1  0  0  0  0  0  0
  -25.0270  -36.2970   23.7150 C   0  0  0  0  0  3  0  0  0  0  0  0
  -27.1230  -37.2720   24.5450 C   0  0  0  0  0  1  0  0  0  0  0  0
  -26.0130  -37.3930   23.6020 N   0  0  0  0  0  0  0  0  0  0  0  0
  -25.5690  -38.2950   23.7480 H   0  0  0  0  0  0  0  0  0  0  0  0
  1  6  2  0
  2  4  1  0
  3  2  1  0
  3  5  1  0
  4 53  1  0
  4  1  1  0
  5 11  1  0
  5  1  1  0
  7 10  1  0
  8  7  2  0
  8 11  1  0
  9 12  1  0
 10 14  1  0
 10 12  2  0
 11  9  2  0
 12 13  1  0
 15 23  1  0
 16 21  1  0
 17 18  1  0
 17 16  1  0
 19 18  1  0
 19 28  1  0
 19 20  1  0
 21 15  1  0
 21 20  1  0
 22 15  2  0
 23 24  1  0
 23 14  1  0
 25 26  2  0
 26 45  1  0
 27 26  1  0
 27 30  1  0
 28 29  1  0
 28 25  1  0
 29 27  2  0
 30 31  1  0
 31 32  2  0
 33 36  1  0
 33 32  1  0
 34 33  2  0
 35 34  1  0
 35 30  2  0
 36 37  1  0
 37 38  1  0
 38 39  2  0
 40 39  1  0
 40 44  1  0
 41 40  2  0
 42 37  2  0
 42 41  1  0
 43 42  1  0
 45 46  1  0
 46 49  1  0
 46 48  1  0
 47 45  2  0
 50 25  1  0
 50 51  1  0
 52 50  1  0
 54 53  1  0
 55 66  2  0
 56 54  1  0
 56 61  1  0
 57 65  1  0
 57 67  1  0
 58 64  1  0
 58 60  1  0
 59 65  1  0
 60 61  2  0
 60 59  1  0
 62 56  2  0
 63 62  1  0
 63 58  2  0
 64 57  1  0
 65 55  1  0
 67 69  2  0
 68 67  1  0
 70 68  1  0
 71 80  2  0
 71 76  1  0
 72 68  1  0
 72 76  1  0
 73 72  1  0
 74 75  1  0
 74 73  1  0
 75 71  1  0
 76 77  2  0
 77 78  1  0
 79 78  2  0
 80 79  1  0
 81 55  1  0
 81 86  1  0
 81 82  1  0
 82 85  1  1
 82 83  1  0
 84 82  1  0
 86 89  1  0
 87 91  1  0
 87 86  1  0
 88 87  2  0
 91 90  1  0
 93 91  1  0
 93 94  1  0
 93 92  1  0
M  ISO  4  15 100  23 100  53 101  54 101
M  END
>  <TORSDO>  (41) 
F 19

>  <SCORE>  (41) 
-12.546

>  <name>  (41) 
40

>  <ligand_id>  (41) 
40

>  <original_smiles>  (41) 
[H]c1c([H])c([H])c2c(c1[H])C([H])([H])C([H])([H])C([H])([H])C2([H])N([H])C(=O)C1([H])N(C(=O)C([H])(N([H])C(=O)C([H])(N([H])C([H])([H])[H])C([H])([H])[H])C(C([H])([H])[H])(C([H])([H])[H])C([H])([H])[H])C([H])([H])c2c([H])c(OC([H])([H])C3([H])C(=O)N(c4c([H])c([H])c(C([H])([H])N([H])C(=O)N5C([H])([H])C([H])([H])C([H])([H])C([H])(n6nc(-c7c([H])c([H])c(Oc8c([H])c([H])c(F)c([H])c8F)c([H])c7[H])c(C(=O)N([H])[H])c6N([H])[H])C5([H])[H])c(F)c4[H])C([H])([H])C3([H])[H])c([H])c([H])c2C1([H])[H]

>  <smiles>  (41) 
[H]c1c([H])c([H])c2c(c1[H])C([H])([H])C([H])([H])C([H])([H])C2([H])N([H])C(=O)C1([H])N(C(=O)C([H])(N([H])C(=O)C([H])(N([H])C([H])([H])[H])C([H])([H])[H])C(C([H])([H])[H])(C([H])([H])[H])C([H])([H])[H])C([H])([H])c2c([H])c(OC([H])([H])C3([H])C(=O)N(c4c([H])c([H])c(C([H])([H])N([H])C(=O)N5C([H])([H])C([H])([H])C([H])([H])C([H])(n6nc(-c7c([H])c([H])c(Oc8c([H])c([H])c(F)c([H])c8F)c([H])c7[H])c(C(=O)N([H])[H])c6N([H])[H])C5([H])[H])c(F)c4[H])C([H])([H])C3([H])[H])c([H])c([H])c2C1([H])[H]

$$$$
41:0:0
     RDKit          3D

 96105  0  0  1  0  0  0  0  0999 V2000
  -29.5410  -21.9710   21.3270 C   0  0  0  0  0  2  0  0  0  0  0  0
  -28.6300  -19.5020   21.1590 C   0  0  0  0  0  3  0  0  0  0  0  0
  -28.8150  -18.0970   20.9530 C   0  0  0  0  0  3  0  0  0  0  0  0
  -29.6980  -20.4280   21.0360 C   0  0  0  0  0  0  0  0  0  0  0  0
  -31.1670  -18.4630   20.5800 C   0  0  0  0  0  0  0  0  0  0  0  0
  -30.0740  -17.5220   20.6030 C   0  0  0  0  0  0  0  0  0  0  0  0
  -30.9680  -19.8680   20.7750 C   0  0  0  0  0  0  0  0  0  0  0  0
  -32.6010  -18.0370   20.3090 C   0  0  0  0  0  1  0  0  0  0  0  0
  -32.0220  -20.7150   20.6910 F   0  0  0  0  0  0  0  0  0  0  0  0
  -30.8390  -15.0470   20.2820 C   0  0  0  0  0  0  0  0  0  0  0  0
  -30.6560  -12.7520   19.3200 C   0  0  0  0  0  2  0  0  0  0  0  0
  -29.6950  -12.7110   18.1100 C   0  0  0  0  0  2  0  0  0  0  0  0
  -28.2270  -12.5720   18.5530 C   0  0  0  0  0  2  0  0  0  0  0  0
  -27.8510  -13.4810   19.7540 C   0  0  0  0  0  3  0  0  0  0  0  0
  -28.9270  -13.4490   20.8560 C   0  0  0  0  0  2  0  0  0  0  0  0
  -30.1950  -13.8280   20.2250 N   0  0  0  0  0  0  0  0  0  0  0  0
  -32.0580  -15.0660   20.1100 O   0  0  0  0  0  0  0  0  0  0  0  0
  -30.1090  -16.1930   19.9310 N   0  0  0  0  0  0  0  0  0  0  0  0
  -25.4600  -14.0340   20.5180 C   0  0  0  0  0  0  0  0  0  0  0  0
  -24.4050  -13.2460   20.8820 C   0  0  0  0  0  0  0  0  0  0  0  0
  -24.8860  -11.9000   20.8320 C   0  0  0  0  0  0  0  0  0  0  0  0
  -26.5160  -13.1750   20.2630 N   0  0  0  0  0  0  0  0  0  0  0  0
  -26.1760  -11.8860   20.5200 N   0  0  0  0  0  0  0  0  0  0  0  0
  -24.1830  -10.6240   20.9990 C   0  0  0  0  0  0  0  0  0  0  0  0
  -24.6070   -9.6680   21.9460 C   0  0  0  0  0  3  0  0  0  0  0  0
  -23.9030   -8.4550   22.1010 C   0  0  0  0  0  3  0  0  0  0  0  0
  -22.7600   -8.1900   21.3090 C   0  0  0  0  0  0  0  0  0  0  0  0
  -22.3570   -9.1370   20.3520 C   0  0  0  0  0  3  0  0  0  0  0  0
  -23.0610  -10.3420   20.1940 C   0  0  0  0  0  3  0  0  0  0  0  0
  -22.0260   -7.0290   21.3780 O   0  0  0  0  0  0  0  0  0  0  0  0
  -21.9070   -6.3180   22.5450 C   0  0  0  0  0  0  0  0  0  0  0  0
  -21.3170   -6.8760   23.7010 C   0  0  0  0  0  3  0  0  0  0  0  0
  -21.1530   -6.0880   24.8580 C   0  0  0  0  0  3  0  0  0  0  0  0
  -21.5620   -4.7410   24.8560 C   0  0  0  0  0  0  0  0  0  0  0  0
  -22.1380   -4.1810   23.7020 C   0  0  0  0  0  3  0  0  0  0  0  0
  -22.3070   -4.9660   22.5500 C   0  0  0  0  0  0  0  0  0  0  0  0
  -22.8450   -4.4160   21.4340 F   0  0  0  0  0  0  0  0  0  0  0  0
  -21.3980   -3.9810   25.9650 F   0  0  0  0  0  0  0  0  0  0  0  0
  -23.0000  -13.7000   21.1620 C   0  0  0  0  0  0  0  0  0  0  0  0
  -22.2730  -12.9900   22.0160 N   0  0  0  0  0  0  0  0  0  0  0  0
  -22.5480  -14.7270   20.6520 O   0  0  0  0  0  0  0  0  0  0  0  0
  -22.6410  -12.1680   22.4690 H   0  0  0  0  0  0  0  0  0  0  0  0
  -21.3310  -13.2830   22.2310 H   0  0  0  0  0  0  0  0  0  0  0  0
  -25.5960  -15.4100   20.3550 N   0  0  0  0  0  0  0  0  0  0  0  0
  -24.8090  -16.0380   20.4590 H   0  0  0  0  0  0  0  0  0  0  0  0
  -26.4290  -15.8660   20.0110 H   0  0  0  0  0  0  0  0  0  0  0  0
  -28.7990  -17.1150   17.9280 C   0  0  0  0  0  1  0  0  0  0  0  0
  -30.0760  -16.4260   18.4580 C   0  0  0  0  0  2  0  0  0  0  0  0
  -26.8730  -22.8890   19.7710 C   0  0  0  0  0  2  0  0  0  0  0  0
  -27.1490  -23.9260   20.8800 C   0  0  0  0  0  2  0  0  0  0  0  0
  -28.2530  -22.4810   19.2290 C   0  0  0  0  0  2  0  0  0  0  0  0
  -28.6340  -24.2850   20.7100 C   0  0  0  0  0  3  0  0  0  0  0  0
  -29.2290  -22.9730   20.2220 N   0  0  1  0  0  4  0  0  0  0  0  0
  -30.1070  -23.1550   19.7520 H   0  0  0  0  0  0  0  0  0  0  0  0
  -28.7830  -25.5140   19.7060 C   0  0  0  0  0  2  0  0  0  0  0  0
  -28.6280  -26.8830   20.2260 O   0  0  0  0  0  0  0  0  0  0  0  0
  -24.6370  -31.9700   23.3160 C   0  0  0  0  0  0  0  0  0  0  0  0
  -27.4360  -27.6170   20.1650 C   0  0  0  0  0  0  0  0  0  0  0  0
  -23.4950  -30.5980   21.6120 C   0  0  0  0  0  3  0  0  0  0  0  0
  -25.0140  -29.1310   20.1720 C   0  0  0  0  0  0  0  0  0  0  0  0
  -26.0260  -31.0020   21.4830 C   0  0  0  0  0  2  0  0  0  0  0  0
  -26.1560  -29.6500   20.7930 C   0  0  0  0  0  0  0  0  0  0  0  0
  -27.3610  -28.8950   20.7900 C   0  0  0  0  0  3  0  0  0  0  0  0
  -26.2690  -27.1400   19.5190 C   0  0  0  0  0  3  0  0  0  0  0  0
  -25.0640  -27.8740   19.5470 C   0  0  0  0  0  3  0  0  0  0  0  0
  -23.7550  -29.9680   20.2210 C   0  0  0  0  0  2  0  0  0  0  0  0
  -24.7360  -31.2020   22.1970 N   0  0  0  0  0  0  0  0  0  0  0  0
  -23.5380  -32.2020   23.8420 O   0  0  0  0  0  0  0  0  0  0  0  0
  -22.8430  -29.5310   22.5270 C   0  0  0  0  0  0  0  0  0  0  0  0
  -21.5350  -29.2790   22.3430 N   0  0  0  0  0  0  0  0  0  0  0  0
  -23.5180  -28.9260   23.3650 O   0  0  0  0  0  0  0  0  0  0  0  0
  -21.0330  -29.8280   21.6590 H   0  0  0  0  0  0  0  0  0  0  0  0
  -18.2200  -27.8780   22.6790 C   0  0  0  0  0  0  0  0  0  0  0  0
  -20.7440  -28.2870   23.0730 C   0  0  0  0  0  3  0  0  0  0  0  0
  -20.9550  -26.8640   22.5060 C   0  0  0  0  0  2  0  0  0  0  0  0
  -19.9250  -26.4820   21.4380 C   0  0  0  0  0  2  0  0  0  0  0  0
  -18.5060  -26.5420   22.0110 C   0  0  0  0  0  2  0  0  0  0  0  0
  -19.2700  -28.6990   23.1670 C   0  0  0  0  0  0  0  0  0  0  0  0
  -18.9530  -29.9460   23.7490 C   0  0  0  0  0  3  0  0  0  0  0  0
  -17.6160  -30.3700   23.8520 C   0  0  0  0  0  3  0  0  0  0  0  0
  -16.5780  -29.5470   23.3800 C   0  0  0  0  0  3  0  0  0  0  0  0
  -16.8800  -28.3040   22.7950 C   0  0  0  0  0  3  0  0  0  0  0  0
  -25.8920  -32.6140   23.9770 C   0  0  0  0  0  3  0  0  0  0  0  0
  -26.3680  -31.8560   25.2750 C   0  0  1  0  0  0  0  0  0  0  0  0
  -25.2390  -31.6290   26.3030 C   0  0  0  0  0  1  0  0  0  0  0  0
  -26.9830  -30.4770   24.9320 C   0  0  0  0  0  1  0  0  0  0  0  0
  -27.4820  -32.6730   25.9650 C   0  0  0  0  0  1  0  0  0  0  0  0
  -25.5710  -34.0170   24.2720 N   0  0  0  0  0  0  0  0  0  0  0  0
  -25.9230  -35.0550   23.4990 C   0  0  0  0  0  0  0  0  0  0  0  0
  -26.6250  -34.9340   22.4920 O   0  0  0  0  0  0  0  0  0  0  0  0
  -24.9580  -34.1870   25.0560 H   0  0  0  0  0  0  0  0  0  0  0  0
  -24.2180  -36.8390   23.0390 C   0  0  0  0  0  1  0  0  0  0  0  0
  -25.4170  -36.4500   23.9140 C   0  0  0  0  0  3  0  0  0  0  0  0
  -27.5040  -37.3540   24.8310 C   0  0  0  0  0  1  0  0  0  0  0  0
  -26.4530  -37.5030   23.8290 N   0  0  0  0  0  0  0  0  0  0  0  0
  -26.0390  -38.4250   23.9380 H   0  0  0  0  0  0  0  0  0  0  0  0
  3  2  2  0
  4  2  1  0
  4  1  1  0
  5  6  2  0
  5  7  1  0
  6  3  1  0
  7  4  2  0
  8  5  1  0
  9  7  1  0
 11 16  1  0
 12 13  1  0
 12 11  1  0
 14 13  1  0
 14 22  1  0
 14 15  1  0
 16 10  1  0
 16 15  1  0
 17 10  2  0
 18 10  1  0
 18  6  1  0
 19 20  2  0
 20 39  1  0
 21 20  1  0
 21 24  1  0
 22 19  1  0
 22 23  1  0
 23 21  2  0
 24 25  1  0
 25 26  2  0
 27 30  1  0
 27 26  1  0
 28 27  2  0
 29 28  1  0
 29 24  2  0
 30 31  1  0
 31 36  2  0
 31 32  1  0
 32 33  2  0
 34 33  1  0
 34 38  1  0
 35 34  2  0
 36 35  1  0
 37 36  1  0
 39 40  1  0
 40 43  1  0
 40 42  1  0
 41 39  2  0
 44 45  1  0
 44 19  1  0
 46 44  1  0
 47 48  1  0
 48 18  1  0
 49 50  1  0
 51 49  1  0
 51 53  1  0
 52 55  1  0
 52 50  1  0
 53 52  1  0
 53  1  1  0
 53 54  1  6
 55 56  1  0
 57 68  2  0
 58 56  1  0
 58 63  1  0
 59 67  1  0
 59 69  1  0
 60 66  1  0
 60 62  1  0
 61 67  1  0
 62 61  1  0
 63 62  2  0
 64 65  1  0
 64 58  2  0
 65 60  2  0
 66 59  1  0
 67 57  1  0
 69 71  2  0
 70 69  1  0
 72 70  1  0
 73 82  2  0
 73 78  1  0
 74 70  1  0
 74 78  1  0
 75 74  1  0
 76 77  1  0
 76 75  1  0
 77 73  1  0
 78 79  2  0
 79 80  1  0
 81 80  2  0
 82 81  1  0
 83 57  1  0
 83 88  1  0
 83 84  1  0
 84 87  1  1
 84 85  1  0
 86 84  1  0
 88 91  1  0
 89 93  1  0
 89 88  1  0
 90 89  2  0
 93 92  1  0
 95 93  1  0
 95 96  1  0
 95 94  1  0
M  ISO  4  10 100  18 100  55 101  56 101
M  END
>  <TORSDO>  (42) 
F 20

>  <SCORE>  (42) 
-12.685

>  <name>  (42) 
41

>  <ligand_id>  (42) 
41

>  <original_smiles>  (42) 
[H]c1c([H])c([H])c2c(c1[H])C([H])([H])C([H])([H])C([H])([H])C2([H])N([H])C(=O)C1([H])N(C(=O)C([H])(N([H])C(=O)C([H])(N([H])C([H])([H])[H])C([H])([H])[H])C(C([H])([H])[H])(C([H])([H])[H])C([H])([H])[H])C([H])([H])c2c([H])c(OC([H])([H])C3([H])C([H])([H])C([H])([H])C([H])([H])[N+]3([H])C([H])([H])c3c([H])c([H])c(N(C(=O)N4C([H])([H])C([H])([H])C([H])([H])C([H])(n5nc(-c6c([H])c([H])c(Oc7c([H])c([H])c(F)c([H])c7F)c([H])c6[H])c(C(=O)N([H])[H])c5N([H])[H])C4([H])[H])C([H])([H])C([H])([H])[H])c(C([H])([H])[H])c3F)c([H])c([H])c2C1([H])[H]

>  <smiles>  (42) 
[H]c1c([H])c([H])c2c(c1[H])C([H])([H])C([H])([H])C([H])([H])C2([H])N([H])C(=O)C1([H])N(C(=O)C([H])(N([H])C(=O)C([H])(N([H])C([H])([H])[H])C([H])([H])[H])C(C([H])([H])[H])(C([H])([H])[H])C([H])([H])[H])C([H])([H])c2c([H])c(OC([H])([H])C3([H])C([H])([H])C([H])([H])C([H])([H])[N+]3([H])C([H])([H])c3c([H])c([H])c(N(C(=O)N4C([H])([H])C([H])([H])C([H])([H])C([H])(n5nc(-c6c([H])c([H])c(Oc7c([H])c([H])c(F)c([H])c7F)c([H])c6[H])c(C(=O)N([H])[H])c5N([H])[H])C4([H])[H])C([H])([H])C([H])([H])[H])c(C([H])([H])[H])c3F)c([H])c([H])c2C1([H])[H]

$$$$
42:0:0
     RDKit          3D

 92101  0  0  1  0  0  0  0  0999 V2000
  -27.1210  -23.4570   20.6500 C   0  0  0  0  0  2  0  0  0  0  0  0
  -27.3220  -22.0040   21.1290 C   0  0  0  0  0  2  0  0  0  0  0  0
  -29.4020  -22.7940   20.2630 C   0  0  0  0  0  2  0  0  0  0  0  0
  -28.5240  -24.0700   20.5900 C   0  0  0  0  0  3  0  0  0  0  0  0
  -28.6620  -21.5850   20.7070 N   0  0  0  0  0  0  0  0  0  0  0  0
  -28.1120  -19.1450   20.7460 C   0  0  0  0  0  3  0  0  0  0  0  0
  -28.4600  -17.7670   20.6640 C   0  0  0  0  0  3  0  0  0  0  0  0
  -30.4270  -19.7380   20.6440 C   0  0  0  0  0  3  0  0  0  0  0  0
  -29.0750  -20.1920   20.7010 C   0  0  0  0  0  0  0  0  0  0  0  0
  -29.7990  -17.3110   20.5600 C   0  0  0  0  0  0  0  0  0  0  0  0
  -30.7840  -18.3450   20.5820 C   0  0  0  0  0  0  0  0  0  0  0  0
  -32.0930  -18.0170   20.4660 F   0  0  0  0  0  0  0  0  0  0  0  0
  -30.8020  -14.9040   20.6410 C   0  0  0  0  0  0  0  0  0  0  0  0
  -30.7190  -12.5630   19.7870 C   0  0  0  0  0  2  0  0  0  0  0  0
  -29.8550  -12.4940   18.5080 C   0  0  0  0  0  2  0  0  0  0  0  0
  -28.3540  -12.3820   18.8490 C   0  0  0  0  0  2  0  0  0  0  0  0
  -27.8880  -13.3230   19.9940 C   0  0  0  0  0  3  0  0  0  0  0  0
  -28.8850  -13.3290   21.1720 C   0  0  0  0  0  2  0  0  0  0  0  0
  -30.2010  -13.6650   20.6220 N   0  0  0  0  0  0  0  0  0  0  0  0
  -32.0320  -14.9850   20.6050 O   0  0  0  0  0  0  0  0  0  0  0  0
  -29.9710  -15.8970   18.6140 C   0  0  0  0  0  1  0  0  0  0  0  0
  -30.0430  -15.9350   20.0890 N   0  0  0  0  0  0  0  0  0  0  0  0
  -25.4580  -13.9130   20.5550 C   0  0  0  0  0  0  0  0  0  0  0  0
  -24.3740  -13.1380   20.8690 C   0  0  0  0  0  0  0  0  0  0  0  0
  -24.8520  -11.7940   20.9010 C   0  0  0  0  0  0  0  0  0  0  0  0
  -26.5230  -13.0370   20.4140 N   0  0  0  0  0  0  0  0  0  0  0  0
  -26.1620  -11.7600   20.6860 N   0  0  0  0  0  0  0  0  0  0  0  0
  -24.1290  -10.5280   21.0650 C   0  0  0  0  0  0  0  0  0  0  0  0
  -24.5090   -9.5860   22.0440 C   0  0  0  0  0  3  0  0  0  0  0  0
  -23.7860   -8.3840   22.1970 C   0  0  0  0  0  3  0  0  0  0  0  0
  -22.6720   -8.1170   21.3680 C   0  0  0  0  0  0  0  0  0  0  0  0
  -22.3110   -9.0500   20.3800 C   0  0  0  0  0  3  0  0  0  0  0  0
  -23.0340  -10.2430   20.2250 C   0  0  0  0  0  3  0  0  0  0  0  0
  -21.9240   -6.9650   21.4280 O   0  0  0  0  0  0  0  0  0  0  0  0
  -21.7950   -6.2540   22.5950 C   0  0  0  0  0  0  0  0  0  0  0  0
  -21.2610   -6.8340   23.7650 C   0  0  0  0  0  3  0  0  0  0  0  0
  -21.0770   -6.0490   24.9200 C   0  0  0  0  0  3  0  0  0  0  0  0
  -21.4240   -4.6850   24.9070 C   0  0  0  0  0  0  0  0  0  0  0  0
  -21.9540   -4.1040   23.7420 C   0  0  0  0  0  3  0  0  0  0  0  0
  -22.1370   -4.8870   22.5880 C   0  0  0  0  0  0  0  0  0  0  0  0
  -22.6280   -4.3190   21.4600 F   0  0  0  0  0  0  0  0  0  0  0  0
  -21.2440   -3.9270   26.0150 F   0  0  0  0  0  0  0  0  0  0  0  0
  -22.9600  -13.6090   21.0290 C   0  0  0  0  0  0  0  0  0  0  0  0
  -22.1830  -12.9320   21.8660 N   0  0  0  0  0  0  0  0  0  0  0  0
  -22.5480  -14.6130   20.4490 O   0  0  0  0  0  0  0  0  0  0  0  0
  -22.5260  -12.1180   22.3560 H   0  0  0  0  0  0  0  0  0  0  0  0
  -21.2320  -13.2330   22.0250 H   0  0  0  0  0  0  0  0  0  0  0  0
  -25.6180  -15.2780   20.3520 N   0  0  0  0  0  0  0  0  0  0  0  0
  -24.8430  -15.9310   20.3940 H   0  0  0  0  0  0  0  0  0  0  0  0
  -26.4780  -15.6950   20.0210 H   0  0  0  0  0  0  0  0  0  0  0  0
  -28.6470  -25.3380   19.6330 C   0  0  0  0  0  2  0  0  0  0  0  0
  -28.4740  -26.6940   20.1670 O   0  0  0  0  0  0  0  0  0  0  0  0
  -24.6540  -31.9210   23.2060 C   0  0  0  0  0  0  0  0  0  0  0  0
  -27.2920  -27.4370   20.0990 C   0  0  0  0  0  0  0  0  0  0  0  0
  -23.4410  -30.5120   21.5730 C   0  0  0  0  0  3  0  0  0  0  0  0
  -24.8920  -28.9800   20.1220 C   0  0  0  0  0  0  0  0  0  0  0  0
  -25.9670  -30.8770   21.3500 C   0  0  0  0  0  2  0  0  0  0  0  0
  -26.0550  -29.5030   20.6990 C   0  0  0  0  0  0  0  0  0  0  0  0
  -27.2540  -28.7390   20.6770 C   0  0  0  0  0  3  0  0  0  0  0  0
  -26.1070  -26.9480   19.5080 C   0  0  0  0  0  3  0  0  0  0  0  0
  -24.9160  -27.7090   19.5180 C   0  0  0  0  0  3  0  0  0  0  0  0
  -23.6410  -29.8270   20.1930 C   0  0  0  0  0  2  0  0  0  0  0  0
  -24.7060  -31.1220   22.1000 N   0  0  0  0  0  0  0  0  0  0  0  0
  -23.5740  -32.1860   23.7560 O   0  0  0  0  0  0  0  0  0  0  0  0
  -22.8010  -29.4890   22.5420 C   0  0  0  0  0  0  0  0  0  0  0  0
  -21.4760  -29.3020   22.4300 N   0  0  0  0  0  0  0  0  0  0  0  0
  -23.4970  -28.8620   23.3460 O   0  0  0  0  0  0  0  0  0  0  0  0
  -20.9740  -29.8630   21.7560 H   0  0  0  0  0  0  0  0  0  0  0  0
  -18.1140  -28.0790   22.9520 C   0  0  0  0  0  0  0  0  0  0  0  0
  -20.6720  -28.3510   23.1990 C   0  0  0  0  0  3  0  0  0  0  0  0
  -20.7770  -26.9260   22.6080 C   0  0  0  0  0  2  0  0  0  0  0  0
  -19.6680  -26.6040   21.6030 C   0  0  0  0  0  2  0  0  0  0  0  0
  -18.2900  -26.7360   22.2620 C   0  0  0  0  0  2  0  0  0  0  0  0
  -19.2310  -28.8460   23.3740 C   0  0  0  0  0  0  0  0  0  0  0  0
  -19.0100  -30.1040   23.9740 C   0  0  0  0  0  3  0  0  0  0  0  0
  -17.7040  -30.5950   24.1580 C   0  0  0  0  0  3  0  0  0  0  0  0
  -16.6010  -29.8220   23.7560 C   0  0  0  0  0  3  0  0  0  0  0  0
  -16.8070  -28.5660   23.1580 C   0  0  0  0  0  3  0  0  0  0  0  0
  -25.9380  -32.5610   23.8220 C   0  0  0  0  0  3  0  0  0  0  0  0
  -25.6190  -33.9540   24.1680 N   0  0  0  0  0  0  0  0  0  0  0  0
  -25.9400  -35.0170   23.4150 C   0  0  0  0  0  0  0  0  0  0  0  0
  -26.6040  -34.9270   22.3790 O   0  0  0  0  0  0  0  0  0  0  0  0
  -25.0420  -34.0950   24.9850 H   0  0  0  0  0  0  0  0  0  0  0  0
  -24.2110  -36.8090   23.0730 C   0  0  0  0  0  1  0  0  0  0  0  0
  -25.4480  -36.3970   23.8870 C   0  0  0  0  0  3  0  0  0  0  0  0
  -27.5780  -37.2740   24.7430 C   0  0  0  0  0  1  0  0  0  0  0  0
  -26.4820  -37.4530   23.7960 N   0  0  0  0  0  0  0  0  0  0  0  0
  -26.0710  -38.3690   23.9560 H   0  0  0  0  0  0  0  0  0  0  0  0
  -26.4750  -31.7880   25.0910 C   0  0  1  0  0  0  0  0  0  0  0  0
  -25.3960  -31.5350   26.1730 C   0  0  0  0  0  1  0  0  0  0  0  0
  -27.0650  -30.4190   24.6830 C   0  0  0  0  0  1  0  0  0  0  0  0
  -27.6240  -32.5920   25.7450 C   0  0  0  0  0  1  0  0  0  0  0  0
  1  2  1  0
  3  4  1  0
  3  5  1  0
  4 51  1  0
  4  1  1  0
  5  2  1  0
  7  6  2  0
  8  9  2  0
  9  5  1  0
  9  6  1  0
 10 11  2  0
 10  7  1  0
 11  8  1  0
 12 11  1  0
 14 19  1  0
 15 16  1  0
 15 14  1  0
 17 16  1  0
 17 26  1  0
 17 18  1  0
 19 13  1  0
 19 18  1  0
 20 13  2  0
 21 22  1  0
 22 10  1  0
 22 13  1  0
 23 24  2  0
 24 25  1  0
 24 43  1  0
 25 28  1  0
 26 23  1  0
 26 27  1  0
 27 25  2  0
 28 29  1  0
 29 30  2  0
 31 34  1  0
 31 30  1  0
 32 31  2  0
 33 32  1  0
 33 28  2  0
 34 35  1  0
 35 36  1  0
 36 37  2  0
 38 37  1  0
 38 42  1  0
 39 38  2  0
 40 35  2  0
 40 39  1  0
 41 40  1  0
 43 44  1  0
 44 47  1  0
 44 46  1  0
 45 43  2  0
 48 49  1  0
 48 23  1  0
 50 48  1  0
 51 52  1  0
 53 64  2  0
 54 52  1  0
 54 59  1  0
 55 63  1  0
 55 65  1  0
 56 62  1  0
 56 58  1  0
 57 63  1  0
 58 57  1  0
 59 58  2  0
 60 61  1  0
 60 54  2  0
 61 56  2  0
 62 55  1  0
 63 53  1  0
 65 67  2  0
 66 65  1  0
 68 66  1  0
 69 78  2  0
 69 74  1  0
 70 66  1  0
 70 74  1  0
 71 70  1  0
 72 73  1  0
 72 71  1  0
 73 69  1  0
 74 75  2  0
 75 76  1  0
 77 76  2  0
 78 77  1  0
 79 53  1  0
 79 80  1  0
 79 89  1  0
 80 83  1  0
 81 85  1  0
 81 80  1  0
 82 81  2  0
 85 84  1  0
 87 85  1  0
 87 88  1  0
 87 86  1  0
 89 92  1  1
 89 90  1  0
 91 89  1  0
M  ISO  4  13 100  22 100  51 101  52 101
M  END
>  <TORSDO>  (43) 
F 18

>  <SCORE>  (43) 
-13.886

>  <name>  (43) 
42

>  <ligand_id>  (43) 
42

>  <original_smiles>  (43) 
[H]c1c([H])c([H])c2c(c1[H])C([H])([H])C([H])([H])C([H])([H])C2([H])N([H])C(=O)C1([H])N(C(=O)C([H])(N([H])C(=O)C([H])(N([H])C([H])([H])[H])C([H])([H])[H])C(C([H])([H])[H])(C([H])([H])[H])C([H])([H])[H])C([H])([H])c2c([H])c(OC([H])([H])C3([H])C([H])([H])N(c4c([H])c([H])c(N(C(=O)N5C([H])([H])C([H])([H])C([H])([H])C([H])(n6nc(-c7c([H])c([H])c(Oc8c([H])c([H])c(F)c([H])c8F)c([H])c7[H])c(C(=O)N([H])[H])c6N([H])[H])C5([H])[H])C([H])([H])[H])c(F)c4[H])C([H])([H])C3([H])[H])c([H])c([H])c2C1([H])[H]

>  <smiles>  (43) 
[H]c1c([H])c([H])c2c(c1[H])C([H])([H])C([H])([H])C([H])([H])C2([H])N([H])C(=O)C1([H])N(C(=O)C([H])(N([H])C(=O)C([H])(N([H])C([H])([H])[H])C([H])([H])[H])C(C([H])([H])[H])(C([H])([H])[H])C([H])([H])[H])C([H])([H])c2c([H])c(OC([H])([H])C3([H])C([H])([H])N(c4c([H])c([H])c(N(C(=O)N5C([H])([H])C([H])([H])C([H])([H])C([H])(n6nc(-c7c([H])c([H])c(Oc8c([H])c([H])c(F)c([H])c8F)c([H])c7[H])c(C(=O)N([H])[H])c6N([H])[H])C5([H])[H])C([H])([H])[H])c(F)c4[H])C([H])([H])C3([H])[H])c([H])c([H])c2C1([H])[H]

$$$$
43:0:0
     RDKit          3D

 93102  0  0  1  0  0  0  0  0999 V2000
  -28.8310  -22.5240   20.6040 C   0  0  0  0  0  0  0  0  0  0  0  0
  -30.4040  -23.8590   19.4380 C   0  0  0  0  0  2  0  0  0  0  0  0
  -30.8770  -22.3960   19.5930 C   0  0  0  0  0  2  0  0  0  0  0  0
  -29.2510  -24.0240   20.4280 C   0  0  0  0  0  3  0  0  0  0  0  0
  -29.7780  -21.6240   20.1850 N   0  0  0  0  0  0  0  0  0  0  0  0
  -27.7370  -22.2350   21.0960 O   0  0  0  0  0  0  0  0  0  0  0  0
  -28.6960  -19.3560   20.6970 C   0  0  0  0  0  3  0  0  0  0  0  0
  -28.7400  -17.9340   20.7860 C   0  0  0  0  0  3  0  0  0  0  0  0
  -31.0290  -17.9450   20.0850 C   0  0  0  0  0  3  0  0  0  0  0  0
  -29.8160  -20.1390   20.2940 C   0  0  0  0  0  0  0  0  0  0  0  0
  -29.9000  -17.1790   20.4750 C   0  0  0  0  0  0  0  0  0  0  0  0
  -30.9930  -19.3710   20.0010 C   0  0  0  0  0  0  0  0  0  0  0  0
  -32.1420  -19.9870   19.6360 F   0  0  0  0  0  0  0  0  0  0  0  0
  -30.6140  -14.6980   20.0950 C   0  0  0  0  0  0  0  0  0  0  0  0
  -30.3500  -12.4960   18.9680 C   0  0  0  0  0  2  0  0  0  0  0  0
  -29.3350  -12.6600   17.8150 C   0  0  0  0  0  2  0  0  0  0  0  0
  -27.8900  -12.4800   18.3240 C   0  0  0  0  0  2  0  0  0  0  0  0
  -27.6030  -13.3080   19.6040 C   0  0  0  0  0  3  0  0  0  0  0  0
  -28.7210  -13.1120   20.6530 C   0  0  0  0  0  2  0  0  0  0  0  0
  -29.9990  -13.4750   20.0170 N   0  0  0  0  0  0  0  0  0  0  0  0
  -31.7420  -14.8800   19.6260 O   0  0  0  0  0  0  0  0  0  0  0  0
  -29.8350  -15.7170   20.5770 N   0  0  0  0  0  0  0  0  0  0  0  0
  -28.9700  -15.3710   20.9620 H   0  0  0  0  0  0  0  0  0  0  0  0
  -25.2520  -13.8880   20.4700 C   0  0  0  0  0  0  0  0  0  0  0  0
  -24.2050  -13.1050   20.8750 C   0  0  0  0  0  0  0  0  0  0  0  0
  -24.6640  -11.7550   20.7780 C   0  0  0  0  0  0  0  0  0  0  0  0
  -26.2810  -13.0150   20.1530 N   0  0  0  0  0  0  0  0  0  0  0  0
  -25.9340  -11.7240   20.3980 N   0  0  0  0  0  0  0  0  0  0  0  0
  -23.9460  -10.4870   20.9690 C   0  0  0  0  0  0  0  0  0  0  0  0
  -24.3930   -9.5190   21.8970 C   0  0  0  0  0  3  0  0  0  0  0  0
  -23.6760   -8.3160   22.0760 C   0  0  0  0  0  3  0  0  0  0  0  0
  -22.4990   -8.0720   21.3280 C   0  0  0  0  0  0  0  0  0  0  0  0
  -22.0740   -9.0280   20.3890 C   0  0  0  0  0  3  0  0  0  0  0  0
  -22.7910  -10.2230   20.2080 C   0  0  0  0  0  3  0  0  0  0  0  0
  -21.7540   -6.9210   21.4170 O   0  0  0  0  0  0  0  0  0  0  0  0
  -21.6650   -6.2100   22.5860 C   0  0  0  0  0  0  0  0  0  0  0  0
  -21.1640   -6.7870   23.7730 C   0  0  0  0  0  3  0  0  0  0  0  0
  -21.0270   -6.0010   24.9350 C   0  0  0  0  0  3  0  0  0  0  0  0
  -21.3780   -4.6370   24.9090 C   0  0  0  0  0  0  0  0  0  0  0  0
  -21.8710   -4.0590   23.7260 C   0  0  0  0  0  3  0  0  0  0  0  0
  -22.0110   -4.8430   22.5670 C   0  0  0  0  0  0  0  0  0  0  0  0
  -22.4670   -4.2770   21.4230 F   0  0  0  0  0  0  0  0  0  0  0  0
  -21.2380   -3.8800   26.0210 F   0  0  0  0  0  0  0  0  0  0  0  0
  -22.8270  -13.5730   21.2390 C   0  0  0  0  0  0  0  0  0  0  0  0
  -22.1470  -12.8520   22.1240 N   0  0  0  0  0  0  0  0  0  0  0  0
  -22.3620  -14.6150   20.7760 O   0  0  0  0  0  0  0  0  0  0  0  0
  -22.5340  -12.0080   22.5170 H   0  0  0  0  0  0  0  0  0  0  0  0
  -21.2250  -13.1470   22.4110 H   0  0  0  0  0  0  0  0  0  0  0  0
  -25.4090  -15.2640   20.3240 N   0  0  0  0  0  0  0  0  0  0  0  0
  -24.6440  -15.9100   20.4830 H   0  0  0  0  0  0  0  0  0  0  0  0
  -26.2270  -15.7100   19.9290 H   0  0  0  0  0  0  0  0  0  0  0  0
  -28.1330  -25.0870   20.0260 C   0  0  0  0  0  2  0  0  0  0  0  0
  -28.3470  -26.5390   20.2410 O   0  0  0  0  0  0  0  0  0  0  0  0
  -24.6150  -31.9090   23.2900 C   0  0  0  0  0  0  0  0  0  0  0  0
  -27.2220  -27.3800   20.1950 C   0  0  0  0  0  0  0  0  0  0  0  0
  -23.4040  -30.5230   21.6440 C   0  0  0  0  0  3  0  0  0  0  0  0
  -24.8490  -28.9830   20.2040 C   0  0  0  0  0  0  0  0  0  0  0  0
  -25.9410  -30.8440   21.4540 C   0  0  0  0  0  2  0  0  0  0  0  0
  -26.0190  -29.4700   20.7990 C   0  0  0  0  0  0  0  0  0  0  0  0
  -27.2080  -28.6820   20.7830 C   0  0  0  0  0  3  0  0  0  0  0  0
  -26.0250  -26.9460   19.5750 C   0  0  0  0  0  3  0  0  0  0  0  0
  -24.8530  -27.7260   19.5840 C   0  0  0  0  0  3  0  0  0  0  0  0
  -23.6120  -29.8560   20.2600 C   0  0  0  0  0  2  0  0  0  0  0  0
  -24.6720  -31.1080   22.1870 N   0  0  0  0  0  0  0  0  0  0  0  0
  -23.5330  -32.1840   23.8300 O   0  0  0  0  0  0  0  0  0  0  0  0
  -22.7420  -29.5010   22.6000 C   0  0  0  0  0  0  0  0  0  0  0  0
  -21.4180  -29.3210   22.4680 N   0  0  0  0  0  0  0  0  0  0  0  0
  -23.4200  -28.8750   23.4180 O   0  0  0  0  0  0  0  0  0  0  0  0
  -20.9290  -29.8800   21.7820 H   0  0  0  0  0  0  0  0  0  0  0  0
  -18.0410  -28.1180   22.9540 C   0  0  0  0  0  0  0  0  0  0  0  0
  -20.5990  -28.3790   23.2320 C   0  0  0  0  0  3  0  0  0  0  0  0
  -20.7040  -26.9500   22.6510 C   0  0  0  0  0  2  0  0  0  0  0  0
  -19.6040  -26.6300   21.6320 C   0  0  0  0  0  2  0  0  0  0  0  0
  -18.2210  -26.7710   22.2730 C   0  0  0  0  0  2  0  0  0  0  0  0
  -19.1580  -28.8800   23.3890 C   0  0  0  0  0  0  0  0  0  0  0  0
  -18.9370  -30.1420   23.9840 C   0  0  0  0  0  3  0  0  0  0  0  0
  -17.6310  -30.6400   24.1510 C   0  0  0  0  0  3  0  0  0  0  0  0
  -16.5290  -29.8760   23.7300 C   0  0  0  0  0  3  0  0  0  0  0  0
  -16.7340  -28.6170   23.1370 C   0  0  0  0  0  3  0  0  0  0  0  0
  -25.9010  -32.5340   23.9140 C   0  0  0  0  0  3  0  0  0  0  0  0
  -25.6010  -33.9350   24.2390 N   0  0  0  0  0  0  0  0  0  0  0  0
  -25.9140  -34.9820   23.4640 C   0  0  0  0  0  0  0  0  0  0  0  0
  -26.5580  -34.8710   22.4170 O   0  0  0  0  0  0  0  0  0  0  0  0
  -25.0310  -34.0980   25.0560 H   0  0  0  0  0  0  0  0  0  0  0  0
  -24.1620  -36.7600   23.1610 C   0  0  0  0  0  1  0  0  0  0  0  0
  -25.4390  -36.3740   23.9250 C   0  0  0  0  0  3  0  0  0  0  0  0
  -27.5990  -37.2830   24.6590 C   0  0  0  0  0  1  0  0  0  0  0  0
  -26.4600  -37.4300   23.7560 N   0  0  0  0  0  0  0  0  0  0  0  0
  -26.0530  -38.3490   23.9070 H   0  0  0  0  0  0  0  0  0  0  0  0
  -26.4080  -31.7630   25.1930 C   0  0  1  0  0  0  0  0  0  0  0  0
  -25.3100  -31.5330   26.2570 C   0  0  0  0  0  1  0  0  0  0  0  0
  -26.9880  -30.3830   24.8040 C   0  0  0  0  0  1  0  0  0  0  0  0
  -27.5590  -32.5550   25.8590 C   0  0  0  0  0  1  0  0  0  0  0  0
  1  6  2  0
  2  3  1  0
  2  4  1  0
  3  5  1  0
  4 52  1  0
  4  1  1  0
  5 10  1  0
  5  1  1  0
  7  8  1  0
  9 11  1  0
 10  7  2  0
 11 22  1  0
 11  8  2  0
 12  9  2  0
 12 10  1  0
 13 12  1  0
 14 22  1  0
 15 20  1  0
 16 17  1  0
 16 15  1  0
 18 17  1  0
 18 27  1  0
 18 19  1  0
 20 14  1  0
 20 19  1  0
 21 14  2  0
 22 23  1  0
 24 25  2  0
 25 44  1  0
 26 25  1  0
 26 29  1  0
 27 28  1  0
 27 24  1  0
 28 26  2  0
 29 30  1  0
 30 31  2  0
 32 35  1  0
 32 31  1  0
 33 32  2  0
 34 33  1  0
 34 29  2  0
 35 36  1  0
 36 37  1  0
 37 38  2  0
 39 38  1  0
 39 43  1  0
 40 39  2  0
 41 36  2  0
 41 40  1  0
 42 41  1  0
 44 45  1  0
 45 48  1  0
 45 47  1  0
 46 44  2  0
 49 24  1  0
 49 50  1  0
 51 49  1  0
 52 53  1  0
 54 65  2  0
 55 53  1  0
 55 60  1  0
 56 64  1  0
 56 66  1  0
 57 63  1  0
 57 59  1  0
 58 64  1  0
 59 58  1  0
 60 59  2  0
 61 62  1  0
 61 55  2  0
 62 57  2  0
 63 56  1  0
 64 54  1  0
 66 68  2  0
 67 66  1  0
 69 67  1  0
 70 79  2  0
 70 75  1  0
 71 67  1  0
 71 75  1  0
 72 71  1  0
 73 74  1  0
 73 72  1  0
 74 70  1  0
 75 76  2  0
 76 77  1  0
 78 77  2  0
 79 78  1  0
 80 54  1  0
 80 81  1  0
 80 90  1  0
 81 84  1  0
 82 86  1  0
 82 81  1  0
 83 82  2  0
 86 85  1  0
 88 89  1  0
 88 86  1  0
 88 87  1  0
 90 93  1  1
 90 91  1  0
 92 90  1  0
M  ISO  4  14 100  22 100  52 101  53 101
M  END
>  <TORSDO>  (44) 
F 18

>  <SCORE>  (44) 
-14.643

>  <name>  (44) 
43

>  <ligand_id>  (44) 
43

>  <original_smiles>  (44) 
[H]c1c([H])c([H])c2c(c1[H])C([H])([H])C([H])([H])C([H])([H])C2([H])N([H])C(=O)C1([H])N(C(=O)C([H])(N([H])C(=O)C([H])(N([H])C([H])([H])[H])C([H])([H])[H])C(C([H])([H])[H])(C([H])([H])[H])C([H])([H])[H])C([H])([H])c2c([H])c(OC([H])([H])C3([H])C(=O)N(c4c([H])c([H])c(N([H])C(=O)N5C([H])([H])C([H])([H])C([H])([H])C([H])(n6nc(-c7c([H])c([H])c(Oc8c([H])c([H])c(F)c([H])c8F)c([H])c7[H])c(C(=O)N([H])[H])c6N([H])[H])C5([H])[H])c([H])c4F)C([H])([H])C3([H])[H])c([H])c([H])c2C1([H])[H]

>  <smiles>  (44) 
[H]c1c([H])c([H])c2c(c1[H])C([H])([H])C([H])([H])C([H])([H])C2([H])N([H])C(=O)C1([H])N(C(=O)C([H])(N([H])C(=O)C([H])(N([H])C([H])([H])[H])C([H])([H])[H])C(C([H])([H])[H])(C([H])([H])[H])C([H])([H])[H])C([H])([H])c2c([H])c(OC([H])([H])C3([H])C(=O)N(c4c([H])c([H])c(N([H])C(=O)N5C([H])([H])C([H])([H])C([H])([H])C([H])(n6nc(-c7c([H])c([H])c(Oc8c([H])c([H])c(F)c([H])c8F)c([H])c7[H])c(C(=O)N([H])[H])c6N([H])[H])C5([H])[H])c([H])c4F)C([H])([H])C3([H])[H])c([H])c([H])c2C1([H])[H]

$$$$
44:0:0
     RDKit          3D

 97107  0  0  1  0  0  0  0  0999 V2000
  -29.3740  -18.9230   19.7510 C   0  0  0  0  0  3  0  0  0  0  0  0
  -31.0060  -19.2830   21.9000 C   0  0  0  0  0  3  0  0  0  0  0  0
  -29.5050  -20.3490   20.2380 C   0  0  0  0  0  0  0  0  0  0  0  0
  -30.3330  -20.4330   21.3930 C   0  0  0  0  0  0  0  0  0  0  0  0
  -30.0570  -17.6890   20.2670 C   0  0  0  0  0  0  0  0  0  0  0  0
  -30.8970  -17.9760   21.3610 C   0  0  0  0  0  0  0  0  0  0  0  0
  -31.5550  -16.9660   21.9790 F   0  0  0  0  0  0  0  0  0  0  0  0
  -30.6440  -14.9830   19.9270 C   0  0  0  0  0  0  0  0  0  0  0  0
  -30.4700  -12.6240   18.9630 C   0  0  0  0  0  2  0  0  0  0  0  0
  -29.4750  -12.5570   17.7810 C   0  0  0  0  0  2  0  0  0  0  0  0
  -28.0320  -12.3610   18.2850 C   0  0  0  0  0  2  0  0  0  0  0  0
  -27.6880  -13.2880   19.4770 C   0  0  0  0  0  3  0  0  0  0  0  0
  -28.7980  -13.3070   20.5450 C   0  0  0  0  0  2  0  0  0  0  0  0
  -30.0250  -13.7290   19.8590 N   0  0  0  0  0  0  0  0  0  0  0  0
  -31.8600  -15.0000   19.7050 O   0  0  0  0  0  0  0  0  0  0  0  0
  -29.8610  -16.1920   19.8880 N   0  0  0  0  0  0  0  0  0  0  0  0
  -28.9040  -15.9840   19.6540 H   0  0  0  0  0  0  0  0  0  0  0  0
  -25.3520  -13.8990   20.3170 C   0  0  0  0  0  0  0  0  0  0  0  0
  -24.2930  -13.1380   20.7310 C   0  0  0  0  0  0  0  0  0  0  0  0
  -24.7420  -11.7810   20.6900 C   0  0  0  0  0  0  0  0  0  0  0  0
  -26.3720  -13.0070   20.0390 N   0  0  0  0  0  0  0  0  0  0  0  0
  -26.0190  -11.7280   20.3320 N   0  0  0  0  0  0  0  0  0  0  0  0
  -24.0060  -10.5300   20.9120 C   0  0  0  0  0  0  0  0  0  0  0  0
  -24.4500   -9.5670   21.8430 C   0  0  0  0  0  3  0  0  0  0  0  0
  -23.7140   -8.3810   22.0540 C   0  0  0  0  0  3  0  0  0  0  0  0
  -22.5190   -8.1510   21.3320 C   0  0  0  0  0  0  0  0  0  0  0  0
  -22.0930   -9.1010   20.3880 C   0  0  0  0  0  3  0  0  0  0  0  0
  -22.8300  -10.2790   20.1760 C   0  0  0  0  0  3  0  0  0  0  0  0
  -21.7510   -7.0170   21.4520 O   0  0  0  0  0  0  0  0  0  0  0  0
  -21.7270   -6.2840   22.6110 C   0  0  0  0  0  0  0  0  0  0  0  0
  -21.3310   -6.8510   23.8420 C   0  0  0  0  0  3  0  0  0  0  0  0
  -21.2530   -6.0460   24.9970 C   0  0  0  0  0  3  0  0  0  0  0  0
  -21.5580   -4.6730   24.9200 C   0  0  0  0  0  0  0  0  0  0  0  0
  -21.9470   -4.1060   23.6930 C   0  0  0  0  0  3  0  0  0  0  0  0
  -22.0270   -4.9080   22.5420 C   0  0  0  0  0  0  0  0  0  0  0  0
  -22.3810   -4.3520   21.3590 F   0  0  0  0  0  0  0  0  0  0  0  0
  -21.4760   -3.8970   26.0250 F   0  0  0  0  0  0  0  0  0  0  0  0
  -22.9130  -13.6350   21.0470 C   0  0  0  0  0  0  0  0  0  0  0  0
  -22.2090  -12.9550   21.9450 N   0  0  0  0  0  0  0  0  0  0  0  0
  -22.4690  -14.6610   20.5350 O   0  0  0  0  0  0  0  0  0  0  0  0
  -22.5800  -12.1230   22.3800 H   0  0  0  0  0  0  0  0  0  0  0  0
  -21.2840  -13.2730   22.2030 H   0  0  0  0  0  0  0  0  0  0  0  0
  -25.5210  -15.2670   20.1260 N   0  0  0  0  0  0  0  0  0  0  0  0
  -24.7600  -15.9250   20.2560 H   0  0  0  0  0  0  0  0  0  0  0  0
  -26.3560  -15.6990   19.7540 H   0  0  0  0  0  0  0  0  0  0  0  0
  -30.7340  -22.3560   18.2220 C   0  0  0  0  0  2  0  0  0  0  0  0
  -30.4830  -23.4840   19.2330 C   0  0  0  0  0  2  0  0  0  0  0  0
  -29.4520  -21.4970   18.2380 C   0  0  0  0  0  2  0  0  0  0  0  0
  -29.0570  -23.2020   19.6890 C   0  0  0  0  0  3  0  0  0  0  0  0
  -28.9120  -21.6000   19.6070 N   0  0  0  0  0  0  0  0  0  0  0  0
  -28.3180  -24.4650   20.5850 C   0  0  0  0  0  2  0  0  0  0  0  0
  -28.5010  -26.0320   20.3750 O   0  0  0  0  0  0  0  0  0  0  0  0
  -24.7150  -31.7680   23.2450 C   0  0  0  0  0  0  0  0  0  0  0  0
  -27.4290  -27.0170   20.3300 C   0  0  0  0  0  0  0  0  0  0  0  0
  -23.5850  -30.3570   21.5720 C   0  0  0  0  0  3  0  0  0  0  0  0
  -25.0930  -28.7730   20.2070 C   0  0  0  0  0  0  0  0  0  0  0  0
  -26.1450  -30.6280   21.4950 C   0  0  0  0  0  2  0  0  0  0  0  0
  -26.2510  -29.2270   20.8530 C   0  0  0  0  0  0  0  0  0  0  0  0
  -27.4220  -28.3690   20.8860 C   0  0  0  0  0  3  0  0  0  0  0  0
  -26.2460  -26.6750   19.6440 C   0  0  0  0  0  3  0  0  0  0  0  0
  -25.1080  -27.5150   19.5840 C   0  0  0  0  0  3  0  0  0  0  0  0
  -23.8580  -29.6690   20.2070 C   0  0  0  0  0  2  0  0  0  0  0  0
  -24.8340  -30.9420   22.1590 N   0  0  0  0  0  0  0  0  0  0  0  0
  -23.6080  -32.0460   23.7320 O   0  0  0  0  0  0  0  0  0  0  0  0
  -22.8800  -29.3500   22.5150 C   0  0  0  0  0  0  0  0  0  0  0  0
  -21.5510  -29.1930   22.3670 N   0  0  0  0  0  0  0  0  0  0  0  0
  -23.5320  -28.7120   23.3440 O   0  0  0  0  0  0  0  0  0  0  0  0
  -21.0810  -29.7590   21.6750 H   0  0  0  0  0  0  0  0  0  0  0  0
  -18.1520  -28.0240   22.8190 C   0  0  0  0  0  0  0  0  0  0  0  0
  -20.7100  -28.2560   23.1180 C   0  0  0  0  0  3  0  0  0  0  0  0
  -20.8020  -26.8290   22.5300 C   0  0  0  0  0  2  0  0  0  0  0  0
  -19.7080  -26.5310   21.4990 C   0  0  0  0  0  2  0  0  0  0  0  0
  -18.3210  -26.6820   22.1280 C   0  0  0  0  0  2  0  0  0  0  0  0
  -19.2740  -28.7710   23.2700 C   0  0  0  0  0  0  0  0  0  0  0  0
  -19.0590  -30.0260   23.8780 C   0  0  0  0  0  3  0  0  0  0  0  0
  -17.7570  -30.5360   24.0370 C   0  0  0  0  0  3  0  0  0  0  0  0
  -16.6500  -29.7880   23.6020 C   0  0  0  0  0  3  0  0  0  0  0  0
  -16.8490  -28.5330   22.9980 C   0  0  0  0  0  3  0  0  0  0  0  0
  -25.9610  -32.4210   23.9150 C   0  0  0  0  0  3  0  0  0  0  0  0
  -26.4250  -31.6690   25.2220 C   0  0  1  0  0  0  0  0  0  0  0  0
  -25.2890  -31.4390   26.2470 C   0  0  0  0  0  1  0  0  0  0  0  0
  -27.0320  -30.2900   24.8780 C   0  0  0  0  0  1  0  0  0  0  0  0
  -27.5440  -32.4800   25.9190 C   0  0  0  0  0  1  0  0  0  0  0  0
  -25.6250  -33.8200   24.2230 N   0  0  0  0  0  0  0  0  0  0  0  0
  -25.9660  -34.8740   23.4680 C   0  0  0  0  0  0  0  0  0  0  0  0
  -26.6600  -34.7710   22.4540 O   0  0  0  0  0  0  0  0  0  0  0  0
  -25.0080  -33.9740   25.0070 H   0  0  0  0  0  0  0  0  0  0  0  0
  -24.2210  -36.6440   23.0800 C   0  0  0  0  0  1  0  0  0  0  0  0
  -25.4570  -36.2610   23.9080 C   0  0  0  0  0  3  0  0  0  0  0  0
  -27.5690  -37.1820   24.7580 C   0  0  0  0  0  1  0  0  0  0  0  0
  -26.4780  -37.3250   23.7970 N   0  0  0  0  0  0  0  0  0  0  0  0
  -26.0600  -38.2430   23.9260 H   0  0  0  0  0  0  0  0  0  0  0  0
  -30.1140  -22.3150   24.3900 C   0  0  0  0  0  2  0  0  0  0  0  0
  -31.5860  -21.9990   24.1540 C   0  0  0  0  0  2  0  0  0  0  0  0
  -29.4160  -21.7010   23.1750 C   0  0  0  0  0  2  0  0  0  0  0  0
  -31.7090  -22.0600   22.6320 C   0  0  0  0  0  2  0  0  0  0  0  0
  -30.4090  -21.6490   22.1030 N   0  0  0  0  0  0  0  0  0  0  0  0
  1  3  2  0
  1  5  1  0
  3  4  1  0
  4  2  2  0
  4 97  1  0
  5  6  2  0
  6  2  1  0
  6  7  1  0
  9 14  1  0
 10 11  1  0
 10  9  1  0
 12 11  1  0
 12 21  1  0
 12 13  1  0
 14  8  1  0
 14 13  1  0
 15  8  2  0
 16  8  1  0
 16  5  1  0
 17 16  1  0
 18 19  2  0
 19 38  1  0
 20 19  1  0
 20 23  1  0
 21 18  1  0
 21 22  1  0
 22 20  2  0
 23 24  1  0
 24 25  2  0
 26 29  1  0
 26 25  1  0
 27 26  2  0
 28 27  1  0
 28 23  2  0
 29 30  1  0
 30 31  1  0
 31 32  2  0
 33 32  1  0
 33 37  1  0
 34 33  2  0
 35 30  2  0
 35 34  1  0
 36 35  1  0
 38 39  1  0
 39 42  1  0
 39 41  1  0
 40 38  2  0
 43 44  1  0
 43 18  1  0
 45 43  1  0
 46 48  1  0
 46 47  1  0
 47 49  1  0
 48 50  1  0
 49 51  1  0
 50 49  1  0
 50  3  1  0
 52 51  1  0
 53 64  2  0
 54 52  1  0
 54 59  1  0
 55 63  1  0
 55 65  1  0
 56 58  1  0
 57 63  1  0
 58 59  2  0
 58 57  1  0
 60 54  2  0
 61 60  1  0
 61 56  2  0
 62 56  1  0
 62 55  1  0
 63 53  1  0
 65 67  2  0
 66 65  1  0
 68 66  1  0
 69 78  2  0
 69 74  1  0
 70 66  1  0
 70 74  1  0
 71 70  1  0
 72 73  1  0
 72 71  1  0
 73 69  1  0
 74 75  2  0
 75 76  1  0
 77 76  2  0
 78 77  1  0
 79 53  1  0
 79 84  1  0
 79 80  1  0
 80 83  1  1
 80 81  1  0
 82 80  1  0
 84 87  1  0
 85 89  1  0
 85 84  1  0
 86 85  2  0
 89 88  1  0
 91 89  1  0
 91 92  1  0
 91 90  1  0
 94 93  1  0
 95 93  1  0
 96 94  1  0
 97 96  1  0
 97 95  1  0
M  ISO  4   8 100  16 100  51 101  52 101
M  END
>  <TORSDO>  (45) 
F 19

>  <SCORE>  (45) 
-14.498

>  <name>  (45) 
44

>  <ligand_id>  (45) 
44

>  <original_smiles>  (45) 
[H]c1c([H])c([H])c2c(c1[H])C([H])([H])C([H])([H])C([H])([H])C2([H])N([H])C(=O)C1([H])N(C(=O)C([H])(N([H])C(=O)C([H])(N([H])C([H])([H])[H])C([H])([H])[H])C(C([H])([H])[H])(C([H])([H])[H])C([H])([H])[H])C([H])([H])c2c([H])c(OC([H])([H])C3([H])N(c4c([H])c(N([H])C(=O)N5C([H])([H])C([H])([H])C([H])([H])C([H])(n6nc(-c7c([H])c([H])c(Oc8c([H])c([H])c(F)c([H])c8F)c([H])c7[H])c(C(=O)N([H])[H])c6N([H])[H])C5([H])[H])c(F)c([H])c4N4C([H])([H])C([H])([H])C([H])([H])C4([H])[H])C([H])([H])C([H])([H])C3([H])[H])c([H])c([H])c2C1([H])[H]

>  <smiles>  (45) 
[H]c1c([H])c([H])c2c(c1[H])C([H])([H])C([H])([H])C([H])([H])C2([H])N([H])C(=O)C1([H])N(C(=O)C([H])(N([H])C(=O)C([H])(N([H])C([H])([H])[H])C([H])([H])[H])C(C([H])([H])[H])(C([H])([H])[H])C([H])([H])[H])C([H])([H])c2c([H])c(OC([H])([H])C3([H])N(c4c([H])c(N([H])C(=O)N5C([H])([H])C([H])([H])C([H])([H])C([H])(n6nc(-c7c([H])c([H])c(Oc8c([H])c([H])c(F)c([H])c8F)c([H])c7[H])c(C(=O)N([H])[H])c6N([H])[H])C5([H])[H])c(F)c([H])c4N4C([H])([H])C([H])([H])C([H])([H])C4([H])[H])C([H])([H])C([H])([H])C3([H])[H])c([H])c([H])c2C1([H])[H]

$$$$
45:0:0
     RDKit          3D

 89 97  0  0  1  0  0  0  0  0999 V2000
  -30.2870  -19.9300   19.4380 C   0  0  0  0  0  3  0  0  0  0  0  0
  -30.5880  -18.4950   19.4690 C   0  0  0  0  0  3  0  0  0  0  0  0
  -28.2110  -19.5030   20.4490 C   0  0  0  0  0  3  0  0  0  0  0  0
  -29.0560  -20.5200   19.9030 C   0  0  0  0  0  0  0  0  0  0  0  0
  -28.4960  -18.0880   20.4980 C   0  0  0  0  0  0  0  0  0  0  0  0
  -29.6940  -17.4870   19.9850 C   0  0  0  0  0  0  0  0  0  0  0  0
  -27.4430  -17.1930   21.1320 C   0  0  0  0  0  1  0  0  0  0  0  0
  -30.6150  -14.9180   19.4880 C   0  0  0  0  0  0  0  0  0  0  0  0
  -30.4390  -12.6080   18.4660 C   0  0  0  0  0  2  0  0  0  0  0  0
  -29.3360  -12.6120   17.3810 C   0  0  0  0  0  2  0  0  0  0  0  0
  -27.9470  -12.3590   18.0000 C   0  0  0  0  0  2  0  0  0  0  0  0
  -27.7010  -13.2220   19.2650 C   0  0  0  0  0  3  0  0  0  0  0  0
  -28.9040  -13.1730   20.2330 C   0  0  0  0  0  2  0  0  0  0  0  0
  -30.0850  -13.6330   19.4870 N   0  0  0  0  0  0  0  0  0  0  0  0
  -31.7210  -15.1010   18.9670 O   0  0  0  0  0  0  0  0  0  0  0  0
  -29.8010  -15.9630   19.9720 N   0  0  0  0  0  0  0  0  0  0  0  0
  -29.0110  -15.5440   20.4410 H   0  0  0  0  0  0  0  0  0  0  0  0
  -25.4470  -13.7300   20.3750 C   0  0  0  0  0  0  0  0  0  0  0  0
  -24.4480  -12.9220   20.8460 C   0  0  0  0  0  0  0  0  0  0  0  0
  -24.8980  -11.5820   20.6450 C   0  0  0  0  0  0  0  0  0  0  0  0
  -26.4440  -12.8810   19.9250 N   0  0  0  0  0  0  0  0  0  0  0  0
  -26.1300  -11.5780   20.1470 N   0  0  0  0  0  0  0  0  0  0  0  0
  -24.2030  -10.3030   20.8430 C   0  0  0  0  0  0  0  0  0  0  0  0
  -24.6680   -9.3450   21.7700 C   0  0  0  0  0  3  0  0  0  0  0  0
  -23.9700   -8.1320   21.9570 C   0  0  0  0  0  3  0  0  0  0  0  0
  -22.7930   -7.8690   21.2150 C   0  0  0  0  0  0  0  0  0  0  0  0
  -22.3480   -8.8160   20.2760 C   0  0  0  0  0  3  0  0  0  0  0  0
  -23.0460  -10.0210   20.0880 C   0  0  0  0  0  3  0  0  0  0  0  0
  -22.0650   -6.7080   21.3110 O   0  0  0  0  0  0  0  0  0  0  0  0
  -21.8960   -6.0610   22.5090 C   0  0  0  0  0  0  0  0  0  0  0  0
  -21.2780   -6.6870   23.6130 C   0  0  0  0  0  3  0  0  0  0  0  0
  -21.0630   -5.9630   24.8030 C   0  0  0  0  0  3  0  0  0  0  0  0
  -21.4560   -4.6140   24.8880 C   0  0  0  0  0  0  0  0  0  0  0  0
  -22.0670   -3.9880   23.7870 C   0  0  0  0  0  3  0  0  0  0  0  0
  -22.2840   -4.7090   22.6010 C   0  0  0  0  0  0  0  0  0  0  0  0
  -22.8530   -4.0950   21.5360 F   0  0  0  0  0  0  0  0  0  0  0  0
  -21.2430   -3.9160   26.0280 F   0  0  0  0  0  0  0  0  0  0  0  0
  -23.1090  -13.3670   21.3550 C   0  0  0  0  0  0  0  0  0  0  0  0
  -22.5270  -12.6190   22.2860 N   0  0  0  0  0  0  0  0  0  0  0  0
  -22.5910  -14.4140   20.9650 O   0  0  0  0  0  0  0  0  0  0  0  0
  -22.9610  -11.7710   22.6210 H   0  0  0  0  0  0  0  0  0  0  0  0
  -21.6360  -12.8970   22.6700 H   0  0  0  0  0  0  0  0  0  0  0  0
  -25.5750  -15.1100   20.2640 N   0  0  0  0  0  0  0  0  0  0  0  0
  -24.8120  -15.7330   20.5040 H   0  0  0  0  0  0  0  0  0  0  0  0
  -26.3240  -15.5760   19.7680 H   0  0  0  0  0  0  0  0  0  0  0  0
  -28.5020  -22.0200   19.8850 C   0  0  0  0  0  3  0  0  0  0  0  0
  -28.8500  -23.3440   19.5390 C   0  0  0  0  0  3  0  0  0  0  0  0
  -27.8570  -24.6450   19.6070 C   0  0  0  0  0  2  0  0  0  0  0  0
  -28.2200  -26.1370   19.3980 O   0  0  0  0  0  0  0  0  0  0  0  0
  -24.6700  -31.5610   22.9050 C   0  0  0  0  0  0  0  0  0  0  0  0
  -27.1730  -27.1250   19.4470 C   0  0  0  0  0  0  0  0  0  0  0  0
  -23.4330  -30.3070   21.1810 C   0  0  0  0  0  3  0  0  0  0  0  0
  -24.8480  -28.8600   19.6030 C   0  0  0  0  0  0  0  0  0  0  0  0
  -25.9830  -30.5850   20.9890 C   0  0  0  0  0  2  0  0  0  0  0  0
  -26.0400  -29.2520   20.2260 C   0  0  0  0  0  0  0  0  0  0  0  0
  -27.2040  -28.4020   20.1340 C   0  0  0  0  0  3  0  0  0  0  0  0
  -25.9580  -26.8480   18.7770 C   0  0  0  0  0  3  0  0  0  0  0  0
  -24.8180  -27.6710   18.8640 C   0  0  0  0  0  3  0  0  0  0  0  0
  -23.6240  -29.7500   19.7470 C   0  0  0  0  0  2  0  0  0  0  0  0
  -24.7160  -30.8340   21.7480 N   0  0  0  0  0  0  0  0  0  0  0  0
  -23.5960  -31.8020   23.4750 O   0  0  0  0  0  0  0  0  0  0  0  0
  -22.7720  -29.2230   22.0680 C   0  0  0  0  0  0  0  0  0  0  0  0
  -21.4360  -29.0920   21.9810 N   0  0  0  0  0  0  0  0  0  0  0  0
  -23.4600  -28.5060   22.7990 O   0  0  0  0  0  0  0  0  0  0  0  0
  -20.9350  -29.7230   21.3710 H   0  0  0  0  0  0  0  0  0  0  0  0
  -18.0400  -27.9950   22.6030 C   0  0  0  0  0  0  0  0  0  0  0  0
  -20.6220  -28.1030   22.6940 C   0  0  0  0  0  3  0  0  0  0  0  0
  -20.6010  -26.7520   21.9420 C   0  0  0  0  0  2  0  0  0  0  0  0
  -19.4100  -26.6100   20.9870 C   0  0  0  0  0  2  0  0  0  0  0  0
  -18.0900  -26.7360   21.7520 C   0  0  0  0  0  2  0  0  0  0  0  0
  -19.2270  -28.6450   23.0310 C   0  0  0  0  0  0  0  0  0  0  0  0
  -19.1210  -29.8300   23.7920 C   0  0  0  0  0  3  0  0  0  0  0  0
  -17.8620  -30.3630   24.1250 C   0  0  0  0  0  3  0  0  0  0  0  0
  -16.6900  -29.7070   23.7090 C   0  0  0  0  0  3  0  0  0  0  0  0
  -16.7800  -28.5240   22.9540 C   0  0  0  0  0  3  0  0  0  0  0  0
  -25.9630  -32.1390   23.5550 C   0  0  0  0  0  3  0  0  0  0  0  0
  -25.6570  -33.4990   24.0250 N   0  0  0  0  0  0  0  0  0  0  0  0
  -25.9470  -34.6220   23.3560 C   0  0  0  0  0  0  0  0  0  0  0  0
  -26.5680  -34.6230   22.2900 O   0  0  0  0  0  0  0  0  0  0  0  0
  -25.1010  -33.5720   24.8650 H   0  0  0  0  0  0  0  0  0  0  0  0
  -24.1870  -36.4180   23.2630 C   0  0  0  0  0  1  0  0  0  0  0  0
  -25.4750  -35.9580   23.9650 C   0  0  0  0  0  3  0  0  0  0  0  0
  -27.6390  -36.7990   24.7650 C   0  0  0  0  0  1  0  0  0  0  0  0
  -26.4910  -37.0310   23.8920 N   0  0  0  0  0  0  0  0  0  0  0  0
  -26.0830  -37.9290   24.1350 H   0  0  0  0  0  0  0  0  0  0  0  0
  -26.5080  -31.2550   24.7440 C   0  0  1  0  0  0  0  0  0  0  0  0
  -25.4380  -30.9150   25.8080 C   0  0  0  0  0  1  0  0  0  0  0  0
  -27.0850  -29.9210   24.2170 C   0  0  0  0  0  1  0  0  0  0  0  0
  -27.6710  -31.9880   25.4510 C   0  0  0  0  0  1  0  0  0  0  0  0
  1  2  2  0
  1  4  1  0
  2  6  1  0
  3  5  1  0
  4  3  2  0
  5  7  1  0
  6  5  2  0
  8 16  1  0
  9 14  1  0
 10 11  1  0
 10  9  1  0
 12 11  1  0
 12 21  1  0
 12 13  1  0
 14  8  1  0
 14 13  1  0
 15  8  2  0
 16  6  1  0
 16 17  1  0
 18 19  2  0
 19 38  1  0
 20 23  1  0
 20 19  1  0
 21 22  1  0
 21 18  1  0
 22 20  2  0
 23 24  1  0
 24 25  2  0
 26 29  1  0
 26 25  1  0
 27 26  2  0
 28 27  1  0
 28 23  2  0
 29 30  1  0
 30 35  2  0
 30 31  1  0
 31 32  2  0
 32 33  1  0
 33 37  1  0
 34 33  2  0
 35 34  1  0
 36 35  1  0
 38 39  1  0
 39 41  1  0
 39 42  1  0
 40 38  2  0
 43 18  1  0
 43 44  1  0
 45 43  1  0
 46  4  1  0
 47 48  1  0
 47 46  2  0
 49 51  1  0
 49 48  1  0
 50 61  2  0
 51 56  1  0
 52 60  1  0
 52 62  1  0
 53 59  1  0
 53 55  1  0
 54 60  1  0
 55 54  1  0
 56 55  2  0
 57 58  1  0
 57 51  2  0
 58 53  2  0
 59 52  1  0
 60 50  1  0
 62 64  2  0
 63 62  1  0
 65 63  1  0
 66 75  2  0
 66 71  1  0
 67 63  1  0
 67 71  1  0
 68 67  1  0
 69 70  1  0
 69 68  1  0
 70 66  1  0
 71 72  2  0
 72 73  1  0
 74 73  2  0
 75 74  1  0
 76 50  1  0
 76 77  1  0
 76 86  1  0
 77 80  1  0
 78 82  1  0
 78 77  1  0
 79 78  2  0
 82 81  1  0
 84 82  1  0
 84 85  1  0
 84 83  1  0
 86 89  1  1
 86 87  1  0
 88 86  1  0
M  ISO  4   8 100  16 100  48 101  49 101
M  END
>  <TORSDO>  (46) 
F 18

>  <SCORE>  (46) 
-11.487

>  <name>  (46) 
45

>  <ligand_id>  (46) 
45

>  <original_smiles>  (46) 
[H]C(=C([H])C([H])([H])Oc1c([H])c([H])c2c(c1[H])C([H])([H])N(C(=O)C([H])(N([H])C(=O)C([H])(N([H])C([H])([H])[H])C([H])([H])[H])C(C([H])([H])[H])(C([H])([H])[H])C([H])([H])[H])C([H])(C(=O)N([H])C1([H])c3c([H])c([H])c([H])c([H])c3C([H])([H])C([H])([H])C1([H])[H])C2([H])[H])c1c([H])c([H])c(N([H])C(=O)N2C([H])([H])C([H])([H])C([H])([H])C([H])(n3nc(-c4c([H])c([H])c(Oc5c([H])c([H])c(F)c([H])c5F)c([H])c4[H])c(C(=O)N([H])[H])c3N([H])[H])C2([H])[H])c(C([H])([H])[H])c1[H]

>  <smiles>  (46) 
[H]C(=C([H])C([H])([H])Oc1c([H])c([H])c2c(c1[H])C([H])([H])N(C(=O)C([H])(N([H])C(=O)C([H])(N([H])C([H])([H])[H])C([H])([H])[H])C(C([H])([H])[H])(C([H])([H])[H])C([H])([H])[H])C([H])(C(=O)N([H])C1([H])c3c([H])c([H])c([H])c([H])c3C([H])([H])C([H])([H])C1([H])[H])C2([H])[H])c1c([H])c([H])c(N([H])C(=O)N2C([H])([H])C([H])([H])C([H])([H])C([H])(n3nc(-c4c([H])c([H])c(Oc5c([H])c([H])c(F)c([H])c5F)c([H])c4[H])c(C(=O)N([H])[H])c3N([H])[H])C2([H])[H])c(C([H])([H])[H])c1[H]

$$$$
46:0:0
     RDKit          3D

 93102  0  0  1  0  0  0  0  0999 V2000
  -29.6320  -23.7630   20.8600 C   0  0  0  0  0  0  0  0  0  0  0  0
  -28.6520  -23.0610   19.1770 C   0  0  0  0  0  2  0  0  0  0  0  0
  -28.4850  -24.3520   20.0110 C   0  0  0  0  0  3  0  0  0  0  0  0
  -29.6960  -22.6030   20.1130 N   0  0  0  0  0  0  0  0  0  0  0  0
  -30.3090  -24.1330   21.7970 O   0  0  0  0  0  0  0  0  0  0  0  0
  -30.7660  -21.5840   20.0730 C   0  0  0  0  0  2  0  0  0  0  0  0
  -31.2560  -19.2060   19.3280 C   0  0  0  0  0  3  0  0  0  0  0  0
  -31.1810  -17.7990   19.4410 C   0  0  0  0  0  3  0  0  0  0  0  0
  -29.4540  -18.0460   21.1150 C   0  0  0  0  0  3  0  0  0  0  0  0
  -30.4540  -20.0670   20.1170 C   0  0  0  0  0  0  0  0  0  0  0  0
  -29.5310  -19.4640   21.0120 C   0  0  0  0  0  0  0  0  0  0  0  0
  -30.2930  -17.1890   20.3600 C   0  0  0  0  0  0  0  0  0  0  0  0
  -28.6440  -20.3130   21.9060 C   0  0  0  0  0  1  0  0  0  0  0  0
  -30.9080  -14.7410   20.0270 C   0  0  0  0  0  0  0  0  0  0  0  0
  -30.6320  -12.5360   18.9490 C   0  0  0  0  0  2  0  0  0  0  0  0
  -29.6590  -12.7060   17.7600 C   0  0  0  0  0  2  0  0  0  0  0  0
  -28.1960  -12.5670   18.2260 C   0  0  0  0  0  2  0  0  0  0  0  0
  -27.8830  -13.4240   19.4810 C   0  0  0  0  0  3  0  0  0  0  0  0
  -28.9630  -13.2270   20.5670 C   0  0  0  0  0  2  0  0  0  0  0  0
  -30.2710  -13.5380   19.9650 N   0  0  0  0  0  0  0  0  0  0  0  0
  -32.0360  -14.9080   19.5510 O   0  0  0  0  0  0  0  0  0  0  0  0
  -30.1700  -15.7600   20.5330 N   0  0  0  0  0  0  0  0  0  0  0  0
  -29.3350  -15.4560   21.0100 H   0  0  0  0  0  0  0  0  0  0  0  0
  -25.5040  -14.0420   20.2450 C   0  0  0  0  0  0  0  0  0  0  0  0
  -24.4440  -13.2750   20.6480 C   0  0  0  0  0  0  0  0  0  0  0  0
  -24.9030  -11.9210   20.6160 C   0  0  0  0  0  0  0  0  0  0  0  0
  -26.5420  -13.1570   19.9950 N   0  0  0  0  0  0  0  0  0  0  0  0
  -26.1840  -11.8770   20.2760 N   0  0  0  0  0  0  0  0  0  0  0  0
  -24.1790  -10.6620   20.8350 C   0  0  0  0  0  0  0  0  0  0  0  0
  -24.5760   -9.7480   21.8350 C   0  0  0  0  0  3  0  0  0  0  0  0
  -23.8540   -8.5510   22.0380 C   0  0  0  0  0  3  0  0  0  0  0  0
  -22.7210   -8.2630   21.2400 C   0  0  0  0  0  0  0  0  0  0  0  0
  -22.3440   -9.1660   20.2320 C   0  0  0  0  0  3  0  0  0  0  0  0
  -23.0680  -10.3530   20.0260 C   0  0  0  0  0  3  0  0  0  0  0  0
  -21.9750   -7.1150   21.3490 O   0  0  0  0  0  0  0  0  0  0  0  0
  -21.7920   -6.4870   22.5550 C   0  0  0  0  0  0  0  0  0  0  0  0
  -21.2080   -7.1460   23.6580 C   0  0  0  0  0  3  0  0  0  0  0  0
  -20.9750   -6.4420   24.8580 C   0  0  0  0  0  3  0  0  0  0  0  0
  -21.3160   -5.0790   24.9520 C   0  0  0  0  0  0  0  0  0  0  0  0
  -21.8920   -4.4200   23.8510 C   0  0  0  0  0  3  0  0  0  0  0  0
  -22.1260   -5.1200   22.6560 C   0  0  0  0  0  0  0  0  0  0  0  0
  -22.6620   -4.4750   21.5930 F   0  0  0  0  0  0  0  0  0  0  0  0
  -21.0850   -4.4010   26.1000 F   0  0  0  0  0  0  0  0  0  0  0  0
  -23.0560  -13.7570   20.9520 C   0  0  0  0  0  0  0  0  0  0  0  0
  -22.3530  -13.0750   21.8510 N   0  0  0  0  0  0  0  0  0  0  0  0
  -22.6030  -14.7740   20.4280 O   0  0  0  0  0  0  0  0  0  0  0  0
  -22.7330  -12.2530   22.2960 H   0  0  0  0  0  0  0  0  0  0  0  0
  -21.4220  -13.3800   22.0960 H   0  0  0  0  0  0  0  0  0  0  0  0
  -25.6670  -15.4110   20.0520 N   0  0  0  0  0  0  0  0  0  0  0  0
  -24.9040  -16.0670   20.1720 H   0  0  0  0  0  0  0  0  0  0  0  0
  -26.5100  -15.8450   19.6940 H   0  0  0  0  0  0  0  0  0  0  0  0
  -28.7960  -25.7410   19.3800 C   0  0  0  0  0  2  0  0  0  0  0  0
  -28.5610  -26.9100   20.2050 O   0  0  0  0  0  0  0  0  0  0  0  0
  -24.5810  -31.9600   23.2960 C   0  0  0  0  0  0  0  0  0  0  0  0
  -27.3560  -27.5970   20.1740 C   0  0  0  0  0  0  0  0  0  0  0  0
  -23.4250  -30.5590   21.6180 C   0  0  0  0  0  3  0  0  0  0  0  0
  -24.9260  -29.0730   20.1840 C   0  0  0  0  0  0  0  0  0  0  0  0
  -25.9460  -30.9680   21.4560 C   0  0  0  0  0  2  0  0  0  0  0  0
  -26.0660  -29.6070   20.7940 C   0  0  0  0  0  0  0  0  0  0  0  0
  -27.2790  -28.8750   20.7860 C   0  0  0  0  0  3  0  0  0  0  0  0
  -26.1870  -27.0790   19.5690 C   0  0  0  0  0  3  0  0  0  0  0  0
  -24.9820  -27.8090   19.5710 C   0  0  0  0  0  3  0  0  0  0  0  0
  -23.6640  -29.9060   20.2300 C   0  0  0  0  0  2  0  0  0  0  0  0
  -24.6680  -31.1780   22.1820 N   0  0  0  0  0  0  0  0  0  0  0  0
  -23.4870  -32.2000   23.8280 O   0  0  0  0  0  0  0  0  0  0  0  0
  -22.7840  -29.5090   22.5550 C   0  0  0  0  0  0  0  0  0  0  0  0
  -21.4740  -29.2730   22.3850 N   0  0  0  0  0  0  0  0  0  0  0  0
  -23.4670  -28.9090   23.3910 O   0  0  0  0  0  0  0  0  0  0  0  0
  -20.9830  -29.8120   21.6860 H   0  0  0  0  0  0  0  0  0  0  0  0
  -18.1450  -27.9140   22.7470 C   0  0  0  0  0  0  0  0  0  0  0  0
  -20.6720  -28.3000   23.1270 C   0  0  0  0  0  3  0  0  0  0  0  0
  -20.8700  -26.8740   22.5640 C   0  0  0  0  0  2  0  0  0  0  0  0
  -19.8290  -26.4930   21.5050 C   0  0  0  0  0  2  0  0  0  0  0  0
  -18.4160  -26.5720   22.0890 C   0  0  0  0  0  2  0  0  0  0  0  0
  -19.2050  -28.7320   23.2200 C   0  0  0  0  0  0  0  0  0  0  0  0
  -18.8980  -29.9860   23.7920 C   0  0  0  0  0  3  0  0  0  0  0  0
  -17.5660  -30.4240   23.8980 C   0  0  0  0  0  3  0  0  0  0  0  0
  -16.5190  -29.6030   23.4430 C   0  0  0  0  0  3  0  0  0  0  0  0
  -16.8090  -28.3510   22.8730 C   0  0  0  0  0  3  0  0  0  0  0  0
  -25.8450  -32.6090   23.9400 C   0  0  0  0  0  3  0  0  0  0  0  0
  -26.3250  -31.8720   25.2490 C   0  0  1  0  0  0  0  0  0  0  0  0
  -25.1990  -31.6500   26.2860 C   0  0  0  0  0  1  0  0  0  0  0  0
  -26.9290  -30.4900   24.9070 C   0  0  0  0  0  1  0  0  0  0  0  0
  -27.4470  -32.6890   25.9320 C   0  0  0  0  0  1  0  0  0  0  0  0
  -25.5250  -34.0140   24.2260 N   0  0  0  0  0  0  0  0  0  0  0  0
  -25.8720  -35.0480   23.4460 C   0  0  0  0  0  0  0  0  0  0  0  0
  -26.5660  -34.9190   22.4340 O   0  0  0  0  0  0  0  0  0  0  0  0
  -24.9120  -34.1890   25.0090 H   0  0  0  0  0  0  0  0  0  0  0  0
  -24.1400  -36.8170   23.0080 C   0  0  0  0  0  1  0  0  0  0  0  0
  -25.3680  -36.4460   23.8530 C   0  0  0  0  0  3  0  0  0  0  0  0
  -27.4800  -37.3700   24.6970 C   0  0  0  0  0  1  0  0  0  0  0  0
  -26.3960  -37.5010   23.7270 N   0  0  0  0  0  0  0  0  0  0  0  0
  -25.9820  -38.4230   23.8360 H   0  0  0  0  0  0  0  0  0  0  0  0
  1  5  2  0
  2  3  1  0
  2  4  1  0
  3 52  1  0
  3  1  1  0
  4  1  1  0
  6  4  1  0
  6 10  1  0
  7  8  2  0
  7 10  1  0
  8 12  1  0
 10 11  2  0
 11  9  1  0
 11 13  1  0
 12 22  1  0
 12  9  2  0
 14 22  1  0
 15 20  1  0
 16 17  1  0
 16 15  1  0
 18 17  1  0
 18 27  1  0
 18 19  1  0
 20 14  1  0
 20 19  1  0
 21 14  2  0
 22 23  1  0
 24 25  2  0
 25 44  1  0
 26 25  1  0
 26 29  1  0
 27 24  1  0
 27 28  1  0
 28 26  2  0
 29 30  1  0
 30 31  2  0
 32 35  1  0
 32 31  1  0
 33 32  2  0
 34 33  1  0
 34 29  2  0
 35 36  1  0
 36 41  2  0
 36 37  1  0
 37 38  2  0
 38 39  1  0
 39 43  1  0
 40 39  2  0
 41 40  1  0
 42 41  1  0
 44 45  1  0
 45 48  1  0
 45 47  1  0
 46 44  2  0
 49 50  1  0
 49 24  1  0
 51 49  1  0
 52 53  1  0
 54 65  2  0
 55 53  1  0
 55 60  1  0
 56 64  1  0
 56 66  1  0
 57 63  1  0
 57 59  1  0
 58 64  1  0
 59 58  1  0
 60 59  2  0
 61 62  1  0
 61 55  2  0
 62 57  2  0
 63 56  1  0
 64 54  1  0
 66 68  2  0
 67 66  1  0
 69 67  1  0
 70 79  2  0
 70 75  1  0
 71 67  1  0
 71 75  1  0
 72 71  1  0
 73 74  1  0
 73 72  1  0
 74 70  1  0
 75 76  2  0
 76 77  1  0
 78 77  2  0
 79 78  1  0
 80 54  1  0
 80 85  1  0
 80 81  1  0
 81 84  1  1
 81 82  1  0
 83 81  1  0
 85 88  1  0
 86 90  1  0
 86 85  1  0
 87 86  2  0
 90 89  1  0
 92 93  1  0
 92 90  1  0
 92 91  1  0
M  ISO  4  14 100  22 100  52 101  53 101
M  END
>  <TORSDO>  (47) 
F 19

>  <SCORE>  (47) 
-12.573

>  <name>  (47) 
46

>  <ligand_id>  (47) 
46

>  <original_smiles>  (47) 
[H]c1c([H])c([H])c2c(c1[H])C([H])([H])C([H])([H])C([H])([H])C2([H])N([H])C(=O)C1([H])N(C(=O)C([H])(N([H])C(=O)C([H])(N([H])C([H])([H])[H])C([H])([H])[H])C(C([H])([H])[H])(C([H])([H])[H])C([H])([H])[H])C([H])([H])c2c([H])c(OC([H])([H])C3([H])C(=O)N(C([H])([H])c4c([H])c([H])c(N([H])C(=O)N5C([H])([H])C([H])([H])C([H])([H])C([H])(n6nc(-c7c([H])c([H])c(Oc8c([H])c([H])c(F)c([H])c8F)c([H])c7[H])c(C(=O)N([H])[H])c6N([H])[H])C5([H])[H])c([H])c4C([H])([H])[H])C3([H])[H])c([H])c([H])c2C1([H])[H]

>  <smiles>  (47) 
[H]c1c([H])c([H])c2c(c1[H])C([H])([H])C([H])([H])C([H])([H])C2([H])N([H])C(=O)C1([H])N(C(=O)C([H])(N([H])C(=O)C([H])(N([H])C([H])([H])[H])C([H])([H])[H])C(C([H])([H])[H])(C([H])([H])[H])C([H])([H])[H])C([H])([H])c2c([H])c(OC([H])([H])C3([H])C(=O)N(C([H])([H])c4c([H])c([H])c(N([H])C(=O)N5C([H])([H])C([H])([H])C([H])([H])C([H])(n6nc(-c7c([H])c([H])c(Oc8c([H])c([H])c(F)c([H])c8F)c([H])c7[H])c(C(=O)N([H])[H])c6N([H])[H])C5([H])[H])c([H])c4C([H])([H])[H])C3([H])[H])c([H])c([H])c2C1([H])[H]

$$$$
47:0:0
     RDKit          3D

 95104  0  0  1  0  0  0  0  0999 V2000
  -30.3640  -23.7750   20.7520 C   0  0  0  0  0  0  0  0  0  0  0  0
  -28.1950  -22.9600   22.5760 C   0  0  0  0  0  2  0  0  0  0  0  0
  -27.9040  -23.8910   21.3810 C   0  0  0  0  0  2  0  0  0  0  0  0
  -29.6930  -22.8430   22.9210 C   0  0  0  0  0  2  0  0  0  0  0  0
  -29.1300  -24.6990   20.8970 C   0  0  0  0  0  3  0  0  0  0  0  0
  -30.5450  -22.8500   21.7250 N   0  0  0  0  0  0  0  0  0  0  0  0
  -31.1230  -23.8750   19.7830 O   0  0  0  0  0  0  0  0  0  0  0  0
  -31.5990  -21.8230   21.6810 C   0  0  0  0  0  2  0  0  0  0  0  0
  -31.6250  -19.2710   21.7850 C   0  0  0  0  0  3  0  0  0  0  0  0
  -30.1460  -20.3560   20.1840 C   0  0  0  0  0  3  0  0  0  0  0  0
  -31.1690  -18.0070   21.3520 C   0  0  0  0  0  3  0  0  0  0  0  0
  -29.6960  -19.0990   19.7530 C   0  0  0  0  0  3  0  0  0  0  0  0
  -31.1070  -20.4550   21.2110 C   0  0  0  0  0  0  0  0  0  0  0  0
  -30.1940  -17.9190   20.3360 C   0  0  0  0  0  0  0  0  0  0  0  0
  -29.6740  -16.5990   19.7960 C   0  0  0  0  0  2  0  0  0  0  0  0
  -30.6410  -14.4010   20.1780 C   0  0  0  0  0  0  0  0  0  0  0  0
  -30.2980  -12.2820   19.0020 C   0  0  0  0  0  2  0  0  0  0  0  0
  -29.3160  -12.5690   17.8460 C   0  0  0  0  0  2  0  0  0  0  0  0
  -27.8550  -12.4340   18.3200 C   0  0  0  0  0  2  0  0  0  0  0  0
  -27.5790  -13.2160   19.6340 C   0  0  0  0  0  3  0  0  0  0  0  0
  -28.6720  -12.9200   20.6900 C   0  0  0  0  0  2  0  0  0  0  0  0
  -29.9860  -13.2160   20.0920 N   0  0  0  0  0  0  0  0  0  0  0  0
  -31.7370  -14.6210   19.6570 O   0  0  0  0  0  0  0  0  0  0  0  0
  -29.8750  -15.4050   20.6150 N   0  0  0  0  0  0  0  0  0  0  0  0
  -29.0600  -15.1120   21.1320 H   0  0  0  0  0  0  0  0  0  0  0  0
  -25.1970  -13.8170   20.4190 C   0  0  0  0  0  0  0  0  0  0  0  0
  -24.1450  -13.0400   20.8230 C   0  0  0  0  0  0  0  0  0  0  0  0
  -24.6090  -11.6890   20.7680 C   0  0  0  0  0  0  0  0  0  0  0  0
  -26.2400  -12.9400   20.1520 N   0  0  0  0  0  0  0  0  0  0  0  0
  -25.8880  -11.6560   20.4140 N   0  0  0  0  0  0  0  0  0  0  0  0
  -23.8960  -10.4240   20.9790 C   0  0  0  0  0  0  0  0  0  0  0  0
  -24.3540   -9.4650   21.9090 C   0  0  0  0  0  3  0  0  0  0  0  0
  -23.6410   -8.2620   22.1050 C   0  0  0  0  0  3  0  0  0  0  0  0
  -22.4580   -8.0110   21.3720 C   0  0  0  0  0  0  0  0  0  0  0  0
  -22.0190   -8.9600   20.4310 C   0  0  0  0  0  3  0  0  0  0  0  0
  -22.7320  -10.1540   20.2330 C   0  0  0  0  0  3  0  0  0  0  0  0
  -21.7140   -6.8610   21.4780 O   0  0  0  0  0  0  0  0  0  0  0  0
  -21.6850   -6.1280   22.6370 C   0  0  0  0  0  0  0  0  0  0  0  0
  -21.2500   -6.6830   23.8600 C   0  0  0  0  0  3  0  0  0  0  0  0
  -21.1690   -5.8760   25.0110 C   0  0  0  0  0  3  0  0  0  0  0  0
  -21.5130   -4.5120   24.9410 C   0  0  0  0  0  0  0  0  0  0  0  0
  -21.9400   -3.9550   23.7230 C   0  0  0  0  0  3  0  0  0  0  0  0
  -22.0230   -4.7610   22.5730 C   0  0  0  0  0  0  0  0  0  0  0  0
  -22.4150   -4.2140   21.3980 F   0  0  0  0  0  0  0  0  0  0  0  0
  -21.4280   -3.7340   26.0450 F   0  0  0  0  0  0  0  0  0  0  0  0
  -22.7570  -13.5100   21.1490 C   0  0  0  0  0  0  0  0  0  0  0  0
  -22.0630  -12.8040   22.0350 N   0  0  0  0  0  0  0  0  0  0  0  0
  -22.2980  -14.5400   20.6550 O   0  0  0  0  0  0  0  0  0  0  0  0
  -22.4500  -11.9730   22.4580 H   0  0  0  0  0  0  0  0  0  0  0  0
  -21.1310  -13.0970   22.2940 H   0  0  0  0  0  0  0  0  0  0  0  0
  -25.3480  -15.1890   20.2440 N   0  0  0  0  0  0  0  0  0  0  0  0
  -24.5740  -15.8310   20.3700 H   0  0  0  0  0  0  0  0  0  0  0  0
  -26.1820  -15.6410   19.8950 H   0  0  0  0  0  0  0  0  0  0  0  0
  -28.7880  -25.5470   19.6400 C   0  0  0  0  0  2  0  0  0  0  0  0
  -28.5860  -26.9040   20.0350 O   0  0  0  0  0  0  0  0  0  0  0  0
  -24.6200  -31.8390   23.2080 C   0  0  0  0  0  0  0  0  0  0  0  0
  -27.3440  -27.5030   20.0510 C   0  0  0  0  0  0  0  0  0  0  0  0
  -23.4340  -30.4510   21.5340 C   0  0  0  0  0  3  0  0  0  0  0  0
  -24.9120  -28.9520   20.0950 C   0  0  0  0  0  0  0  0  0  0  0  0
  -25.9550  -30.8460   21.3570 C   0  0  0  0  0  2  0  0  0  0  0  0
  -26.0560  -29.4880   20.6940 C   0  0  0  0  0  0  0  0  0  0  0  0
  -27.2670  -28.7680   20.6720 C   0  0  0  0  0  3  0  0  0  0  0  0
  -26.1760  -26.9680   19.4560 C   0  0  0  0  0  3  0  0  0  0  0  0
  -24.9660  -27.6890   19.4770 C   0  0  0  0  0  3  0  0  0  0  0  0
  -23.6560  -29.7910   20.1470 C   0  0  0  0  0  2  0  0  0  0  0  0
  -24.6870  -31.0600   22.0900 N   0  0  0  0  0  0  0  0  0  0  0  0
  -23.5340  -32.0900   23.7470 O   0  0  0  0  0  0  0  0  0  0  0  0
  -22.7920  -29.4080   22.4760 C   0  0  0  0  0  0  0  0  0  0  0  0
  -21.4720  -29.2100   22.3350 N   0  0  0  0  0  0  0  0  0  0  0  0
  -23.4790  -28.7780   23.2850 O   0  0  0  0  0  0  0  0  0  0  0  0
  -20.9820  -29.7700   21.6510 H   0  0  0  0  0  0  0  0  0  0  0  0
  -18.1080  -27.9770   22.7900 C   0  0  0  0  0  0  0  0  0  0  0  0
  -20.6610  -28.2500   23.0820 C   0  0  0  0  0  3  0  0  0  0  0  0
  -20.7790  -26.8330   22.4770 C   0  0  0  0  0  2  0  0  0  0  0  0
  -19.6850  -26.5200   21.4510 C   0  0  0  0  0  2  0  0  0  0  0  0
  -18.2990  -26.6420   22.0900 C   0  0  0  0  0  2  0  0  0  0  0  0
  -19.2180  -28.7410   23.2400 C   0  0  0  0  0  0  0  0  0  0  0  0
  -18.9850  -29.9920   23.8520 C   0  0  0  0  0  3  0  0  0  0  0  0
  -17.6750  -30.4800   24.0190 C   0  0  0  0  0  3  0  0  0  0  0  0
  -16.5800  -29.7130   23.5840 C   0  0  0  0  0  3  0  0  0  0  0  0
  -16.7970  -28.4640   22.9760 C   0  0  0  0  0  3  0  0  0  0  0  0
  -25.8970  -32.4710   23.8440 C   0  0  0  0  0  3  0  0  0  0  0  0
  -26.4060  -31.6950   25.1220 C   0  0  1  0  0  0  0  0  0  0  0  0
  -25.3040  -31.4490   26.1790 C   0  0  0  0  0  1  0  0  0  0  0  0
  -26.9990  -30.3220   24.7280 C   0  0  0  0  0  1  0  0  0  0  0  0
  -27.5460  -32.4920   25.7970 C   0  0  0  0  0  1  0  0  0  0  0  0
  -25.5790  -33.8660   24.1740 N   0  0  0  0  0  0  0  0  0  0  0  0
  -25.9150  -34.9210   23.4200 C   0  0  0  0  0  0  0  0  0  0  0  0
  -26.5960  -34.8230   22.3950 O   0  0  0  0  0  0  0  0  0  0  0  0
  -24.9730  -34.0160   24.9670 H   0  0  0  0  0  0  0  0  0  0  0  0
  -24.1820  -36.7080   23.0540 C   0  0  0  0  0  1  0  0  0  0  0  0
  -25.4180  -36.3060   23.8760 C   0  0  0  0  0  3  0  0  0  0  0  0
  -27.5390  -37.2010   24.7300 C   0  0  0  0  0  1  0  0  0  0  0  0
  -26.4470  -37.3630   23.7740 N   0  0  0  0  0  0  0  0  0  0  0  0
  -26.0340  -38.2820   23.9150 H   0  0  0  0  0  0  0  0  0  0  0  0
  1  5  1  0
  1  6  1  0
  2  4  1  0
  3  2  1  0
  5 54  1  0
  5  3  1  0
  6  4  1  0
  7  1  2  0
  8  6  1  0
 10 13  1  0
 11  9  1  0
 12 10  2  0
 12 14  1  0
 13  8  1  0
 13  9  2  0
 14 11  2  0
 15 14  1  0
 15 24  1  0
 16 24  1  0
 17 22  1  0
 18 19  1  0
 18 17  1  0
 20 19  1  0
 20 29  1  0
 20 21  1  0
 22 16  1  0
 22 21  1  0
 23 16  2  0
 24 25  1  0
 26 27  2  0
 27 46  1  0
 28 27  1  0
 28 31  1  0
 29 30  1  0
 29 26  1  0
 30 28  2  0
 31 32  1  0
 32 33  2  0
 34 37  1  0
 34 33  1  0
 35 34  2  0
 36 35  1  0
 36 31  2  0
 37 38  1  0
 38 39  1  0
 39 40  2  0
 41 40  1  0
 41 45  1  0
 42 41  2  0
 43 38  2  0
 43 42  1  0
 44 43  1  0
 46 47  1  0
 47 50  1  0
 47 49  1  0
 48 46  2  0
 51 52  1  0
 51 26  1  0
 53 51  1  0
 54 55  1  0
 55 57  1  0
 56 67  2  0
 57 62  1  0
 58 66  1  0
 58 68  1  0
 59 65  1  0
 59 61  1  0
 60 66  1  0
 61 60  1  0
 62 61  2  0
 63 64  1  0
 63 57  2  0
 64 59  2  0
 65 58  1  0
 66 56  1  0
 68 70  2  0
 69 68  1  0
 71 69  1  0
 72 81  2  0
 72 77  1  0
 73 69  1  0
 73 77  1  0
 74 73  1  0
 75 76  1  0
 75 74  1  0
 76 72  1  0
 77 78  2  0
 78 79  1  0
 80 79  2  0
 81 80  1  0
 82 56  1  0
 82 87  1  0
 82 83  1  0
 83 86  1  1
 83 84  1  0
 85 83  1  0
 87 90  1  0
 88 92  1  0
 88 87  1  0
 89 88  2  0
 92 91  1  0
 94 92  1  0
 94 95  1  0
 94 93  1  0
M  ISO  4  16 100  24 100  54 101  55 101
M  END
>  <TORSDO>  (48) 
F 20

>  <SCORE>  (48) 
-13.775

>  <name>  (48) 
47

>  <ligand_id>  (48) 
47

>  <original_smiles>  (48) 
[H]c1c([H])c([H])c2c(c1[H])C([H])([H])C([H])([H])C([H])([H])C2([H])N([H])C(=O)C1([H])N(C(=O)C([H])(N([H])C(=O)C([H])(N([H])C([H])([H])[H])C([H])([H])[H])C(C([H])([H])[H])(C([H])([H])[H])C([H])([H])[H])C([H])([H])c2c([H])c(OC([H])([H])C3([H])C(=O)N(C([H])([H])c4c([H])c([H])c(C([H])([H])N([H])C(=O)N5C([H])([H])C([H])([H])C([H])([H])C([H])(n6nc(-c7c([H])c([H])c(Oc8c([H])c([H])c(F)c([H])c8F)c([H])c7[H])c(C(=O)N([H])[H])c6N([H])[H])C5([H])[H])c([H])c4[H])C([H])([H])C([H])([H])C3([H])[H])c([H])c([H])c2C1([H])[H]

>  <smiles>  (48) 
[H]c1c([H])c([H])c2c(c1[H])C([H])([H])C([H])([H])C([H])([H])C2([H])N([H])C(=O)C1([H])N(C(=O)C([H])(N([H])C(=O)C([H])(N([H])C([H])([H])[H])C([H])([H])[H])C(C([H])([H])[H])(C([H])([H])[H])C([H])([H])[H])C([H])([H])c2c([H])c(OC([H])([H])C3([H])C(=O)N(C([H])([H])c4c([H])c([H])c(C([H])([H])N([H])C(=O)N5C([H])([H])C([H])([H])C([H])([H])C([H])(n6nc(-c7c([H])c([H])c(Oc8c([H])c([H])c(F)c([H])c8F)c([H])c7[H])c(C(=O)N([H])[H])c6N([H])[H])C5([H])[H])c([H])c4[H])C([H])([H])C([H])([H])C3([H])[H])c([H])c([H])c2C1([H])[H]

$$$$
48:0:0
     RDKit          3D

 92101  0  0  1  0  0  0  0  0999 V2000
  -28.6750  -22.6900   21.1180 C   0  0  0  0  0  0  0  0  0  0  0  0
  -29.7330  -22.7030   19.3480 C   0  0  0  0  0  2  0  0  0  0  0  0
  -29.2530  -23.8940   20.2750 C   0  0  0  0  0  3  0  0  0  0  0  0
  -29.5420  -21.7860   20.4830 N   0  0  0  0  0  0  0  0  0  0  0  0
  -27.7850  -22.5130   21.9270 O   0  0  0  0  0  0  0  0  0  0  0  0
  -28.7800  -19.4380   21.0840 C   0  0  0  0  0  3  0  0  0  0  0  0
  -28.8620  -18.0130   21.0910 C   0  0  0  0  0  3  0  0  0  0  0  0
  -30.8190  -18.1200   19.7500 C   0  0  0  0  0  3  0  0  0  0  0  0
  -29.6830  -20.3060   20.4030 C   0  0  0  0  0  0  0  0  0  0  0  0
  -29.8850  -17.2910   20.4300 C   0  0  0  0  0  0  0  0  0  0  0  0
  -30.7150  -19.5590   19.7350 C   0  0  0  0  0  0  0  0  0  0  0  0
  -31.6690  -20.2490   19.0620 F   0  0  0  0  0  0  0  0  0  0  0  0
  -30.6260  -14.7840   20.0100 C   0  0  0  0  0  0  0  0  0  0  0  0
  -30.3920  -12.5450   18.9280 C   0  0  0  0  0  2  0  0  0  0  0  0
  -29.3710  -12.6580   17.7720 C   0  0  0  0  0  2  0  0  0  0  0  0
  -27.9280  -12.4790   18.2850 C   0  0  0  0  0  2  0  0  0  0  0  0
  -27.6340  -13.3260   19.5520 C   0  0  0  0  0  3  0  0  0  0  0  0
  -28.7600  -13.1690   20.6000 C   0  0  0  0  0  2  0  0  0  0  0  0
  -30.0280  -13.5460   19.9510 N   0  0  0  0  0  0  0  0  0  0  0  0
  -31.7580  -14.9630   19.5460 O   0  0  0  0  0  0  0  0  0  0  0  0
  -29.8360  -15.8120   20.4730 N   0  0  0  0  0  0  0  0  0  0  0  0
  -28.9860  -15.4490   20.8780 H   0  0  0  0  0  0  0  0  0  0  0  0
  -25.2960  -13.8980   20.4460 C   0  0  0  0  0  0  0  0  0  0  0  0
  -24.2530  -13.1130   20.8610 C   0  0  0  0  0  0  0  0  0  0  0  0
  -24.7100  -11.7640   20.7580 C   0  0  0  0  0  0  0  0  0  0  0  0
  -26.3210  -13.0260   20.1150 N   0  0  0  0  0  0  0  0  0  0  0  0
  -25.9780  -11.7360   20.3650 N   0  0  0  0  0  0  0  0  0  0  0  0
  -23.9970  -10.4950   20.9550 C   0  0  0  0  0  0  0  0  0  0  0  0
  -24.4530   -9.5260   21.8760 C   0  0  0  0  0  3  0  0  0  0  0  0
  -23.7380   -8.3220   22.0610 C   0  0  0  0  0  3  0  0  0  0  0  0
  -22.5550   -8.0790   21.3250 C   0  0  0  0  0  0  0  0  0  0  0  0
  -22.1180   -9.0370   20.3940 C   0  0  0  0  0  3  0  0  0  0  0  0
  -22.8330  -10.2310   20.2060 C   0  0  0  0  0  3  0  0  0  0  0  0
  -21.8120   -6.9280   21.4200 O   0  0  0  0  0  0  0  0  0  0  0  0
  -21.7360   -6.2140   22.5880 C   0  0  0  0  0  0  0  0  0  0  0  0
  -21.2630   -6.7940   23.7850 C   0  0  0  0  0  3  0  0  0  0  0  0
  -21.1340   -6.0080   24.9470 C   0  0  0  0  0  3  0  0  0  0  0  0
  -21.4680   -4.6410   24.9130 C   0  0  0  0  0  0  0  0  0  0  0  0
  -21.9340   -4.0590   23.7200 C   0  0  0  0  0  3  0  0  0  0  0  0
  -22.0640   -4.8430   22.5620 C   0  0  0  0  0  0  0  0  0  0  0  0
  -22.4930   -4.2730   21.4100 F   0  0  0  0  0  0  0  0  0  0  0  0
  -21.3370   -3.8820   26.0260 F   0  0  0  0  0  0  0  0  0  0  0  0
  -22.8760  -13.5790   21.2360 C   0  0  0  0  0  0  0  0  0  0  0  0
  -22.2060  -12.8600   22.1280 N   0  0  0  0  0  0  0  0  0  0  0  0
  -22.4050  -14.6180   20.7720 O   0  0  0  0  0  0  0  0  0  0  0  0
  -22.6000  -12.0180   22.5240 H   0  0  0  0  0  0  0  0  0  0  0  0
  -21.2850  -13.1520   22.4210 H   0  0  0  0  0  0  0  0  0  0  0  0
  -25.4470  -15.2740   20.3010 N   0  0  0  0  0  0  0  0  0  0  0  0
  -24.6820  -15.9180   20.4690 H   0  0  0  0  0  0  0  0  0  0  0  0
  -26.2570  -15.7220   19.8900 H   0  0  0  0  0  0  0  0  0  0  0  0
  -28.1940  -25.0270   19.8390 C   0  0  0  0  0  2  0  0  0  0  0  0
  -28.3570  -26.4820   20.1740 O   0  0  0  0  0  0  0  0  0  0  0  0
  -24.6470  -31.8940   23.2560 C   0  0  0  0  0  0  0  0  0  0  0  0
  -27.2350  -27.3460   20.1270 C   0  0  0  0  0  0  0  0  0  0  0  0
  -23.4260  -30.5180   21.6120 C   0  0  0  0  0  3  0  0  0  0  0  0
  -24.8630  -28.9760   20.1550 C   0  0  0  0  0  0  0  0  0  0  0  0
  -25.9670  -30.8270   21.4110 C   0  0  0  0  0  2  0  0  0  0  0  0
  -26.0380  -29.4530   20.7480 C   0  0  0  0  0  0  0  0  0  0  0  0
  -27.2230  -28.6490   20.7240 C   0  0  0  0  0  3  0  0  0  0  0  0
  -26.0320  -26.9340   19.5050 C   0  0  0  0  0  3  0  0  0  0  0  0
  -24.8630  -27.7220   19.5250 C   0  0  0  0  0  3  0  0  0  0  0  0
  -23.6260  -29.8530   20.2250 C   0  0  0  0  0  2  0  0  0  0  0  0
  -24.7000  -31.0960   22.1500 N   0  0  0  0  0  0  0  0  0  0  0  0
  -23.5700  -32.1640   23.8080 O   0  0  0  0  0  0  0  0  0  0  0  0
  -22.7710  -29.4930   22.5680 C   0  0  0  0  0  0  0  0  0  0  0  0
  -21.4470  -29.3030   22.4400 N   0  0  0  0  0  0  0  0  0  0  0  0
  -23.4530  -28.8660   23.3810 O   0  0  0  0  0  0  0  0  0  0  0  0
  -20.9510  -29.8560   21.7540 H   0  0  0  0  0  0  0  0  0  0  0  0
  -18.0830  -28.0680   22.9430 C   0  0  0  0  0  0  0  0  0  0  0  0
  -20.6390  -28.3570   23.2120 C   0  0  0  0  0  3  0  0  0  0  0  0
  -20.7560  -26.9270   22.6370 C   0  0  0  0  0  2  0  0  0  0  0  0
  -19.6580  -26.5950   21.6210 C   0  0  0  0  0  2  0  0  0  0  0  0
  -18.2740  -26.7230   22.2640 C   0  0  0  0  0  2  0  0  0  0  0  0
  -19.1930  -28.8420   23.3740 C   0  0  0  0  0  0  0  0  0  0  0  0
  -18.9600  -30.1010   23.9700 C   0  0  0  0  0  3  0  0  0  0  0  0
  -17.6490  -30.5870   24.1350 C   0  0  0  0  0  3  0  0  0  0  0  0
  -16.5540  -29.8130   23.7160 C   0  0  0  0  0  3  0  0  0  0  0  0
  -16.7710  -28.5540   23.1270 C   0  0  0  0  0  3  0  0  0  0  0  0
  -25.9360  -32.5220   23.8710 C   0  0  0  0  0  3  0  0  0  0  0  0
  -25.6300  -33.9190   24.2120 N   0  0  0  0  0  0  0  0  0  0  0  0
  -25.9350  -34.9740   23.4430 C   0  0  0  0  0  0  0  0  0  0  0  0
  -26.5720  -34.8730   22.3910 O   0  0  0  0  0  0  0  0  0  0  0  0
  -25.0640  -34.0680   25.0340 H   0  0  0  0  0  0  0  0  0  0  0  0
  -24.1780  -36.7500   23.1560 C   0  0  0  0  0  1  0  0  0  0  0  0
  -25.4580  -36.3620   23.9140 C   0  0  0  0  0  3  0  0  0  0  0  0
  -27.6190  -37.2690   24.6460 C   0  0  0  0  0  1  0  0  0  0  0  0
  -26.4770  -37.4220   23.7490 N   0  0  0  0  0  0  0  0  0  0  0  0
  -26.0710  -38.3420   23.9050 H   0  0  0  0  0  0  0  0  0  0  0  0
  -26.4560  -31.7430   25.1410 C   0  0  1  0  0  0  0  0  0  0  0  0
  -25.3690  -31.5020   26.2170 C   0  0  0  0  0  1  0  0  0  0  0  0
  -27.0340  -30.3650   24.7440 C   0  0  0  0  0  1  0  0  0  0  0  0
  -27.6130  -32.5300   25.7980 C   0  0  0  0  0  1  0  0  0  0  0  0
  1  5  2  0
  2  3  1  0
  2  4  1  0
  3 51  1  0
  3  1  1  0
  4  1  1  0
  6  7  1  0
  8 10  1  0
  9  4  1  0
  9  6  2  0
 10 21  1  0
 10  7  2  0
 11  8  2  0
 11  9  1  0
 12 11  1  0
 13 21  1  0
 14 19  1  0
 15 16  1  0
 15 14  1  0
 17 16  1  0
 17 26  1  0
 17 18  1  0
 19 13  1  0
 19 18  1  0
 20 13  2  0
 21 22  1  0
 23 24  2  0
 24 43  1  0
 25 24  1  0
 25 28  1  0
 26 27  1  0
 26 23  1  0
 27 25  2  0
 28 29  1  0
 29 30  2  0
 31 34  1  0
 31 30  1  0
 32 31  2  0
 33 32  1  0
 33 28  2  0
 34 35  1  0
 35 36  1  0
 36 37  2  0
 38 37  1  0
 38 42  1  0
 39 38  2  0
 40 35  2  0
 40 39  1  0
 41 40  1  0
 43 44  1  0
 44 47  1  0
 44 46  1  0
 45 43  2  0
 48 23  1  0
 48 49  1  0
 50 48  1  0
 51 52  1  0
 53 64  2  0
 54 52  1  0
 54 59  1  0
 55 63  1  0
 55 65  1  0
 56 62  1  0
 56 58  1  0
 57 63  1  0
 58 57  1  0
 59 58  2  0
 60 61  1  0
 60 54  2  0
 61 56  2  0
 62 55  1  0
 63 53  1  0
 65 67  2  0
 66 65  1  0
 68 66  1  0
 69 78  2  0
 69 74  1  0
 70 66  1  0
 70 74  1  0
 71 70  1  0
 72 73  1  0
 72 71  1  0
 73 69  1  0
 74 75  2  0
 75 76  1  0
 77 76  2  0
 78 77  1  0
 79 53  1  0
 79 80  1  0
 79 89  1  0
 80 83  1  0
 81 85  1  0
 81 80  1  0
 82 81  2  0
 85 84  1  0
 87 88  1  0
 87 85  1  0
 87 86  1  0
 89 92  1  1
 89 90  1  0
 91 89  1  0
M  ISO  4  13 100  21 100  51 101  52 101
M  END
>  <TORSDO>  (49) 
F 18

>  <SCORE>  (49) 
-13.993

>  <name>  (49) 
48

>  <ligand_id>  (49) 
48

>  <original_smiles>  (49) 
[H]c1c([H])c([H])c2c(c1[H])C([H])([H])C([H])([H])C([H])([H])C2([H])N([H])C(=O)C1([H])N(C(=O)C([H])(N([H])C(=O)C([H])(N([H])C([H])([H])[H])C([H])([H])[H])C(C([H])([H])[H])(C([H])([H])[H])C([H])([H])[H])C([H])([H])c2c([H])c(OC([H])([H])C3([H])C(=O)N(c4c([H])c([H])c(N([H])C(=O)N5C([H])([H])C([H])([H])C([H])([H])C([H])(n6nc(-c7c([H])c([H])c(Oc8c([H])c([H])c(F)c([H])c8F)c([H])c7[H])c(C(=O)N([H])[H])c6N([H])[H])C5([H])[H])c([H])c4F)C3([H])[H])c([H])c([H])c2C1([H])[H]

>  <smiles>  (49) 
[H]c1c([H])c([H])c2c(c1[H])C([H])([H])C([H])([H])C([H])([H])C2([H])N([H])C(=O)C1([H])N(C(=O)C([H])(N([H])C(=O)C([H])(N([H])C([H])([H])[H])C([H])([H])[H])C(C([H])([H])[H])(C([H])([H])[H])C([H])([H])[H])C([H])([H])c2c([H])c(OC([H])([H])C3([H])C(=O)N(c4c([H])c([H])c(N([H])C(=O)N5C([H])([H])C([H])([H])C([H])([H])C([H])(n6nc(-c7c([H])c([H])c(Oc8c([H])c([H])c(F)c([H])c8F)c([H])c7[H])c(C(=O)N([H])[H])c6N([H])[H])C5([H])[H])c([H])c4F)C3([H])[H])c([H])c([H])c2C1([H])[H]

$$$$
49:0:0
     RDKit          3D

 95104  0  0  1  0  0  0  0  0999 V2000
  -30.4540  -20.1770   20.6510 C   0  0  0  0  0  3  0  0  0  0  0  0
  -30.8500  -18.7790   20.7290 C   0  0  0  0  0  3  0  0  0  0  0  0
  -28.6070  -18.1160   20.4710 C   0  0  0  0  0  3  0  0  0  0  0  0
  -28.2030  -19.5090   20.3780 C   0  0  0  0  0  0  0  0  0  0  0  0
  -29.1110  -20.6320   20.4350 C   0  0  0  0  0  0  0  0  0  0  0  0
  -29.9570  -17.6540   20.5900 C   0  0  0  0  0  0  0  0  0  0  0  0
  -26.7200  -19.7600   20.1550 C   0  0  0  0  0  1  0  0  0  0  0  0
  -30.9310  -15.1230   20.8260 C   0  0  0  0  0  0  0  0  0  0  0  0
  -30.9460  -12.6380   20.2670 C   0  0  0  0  0  2  0  0  0  0  0  0
  -30.1700  -12.1440   19.0180 C   0  0  0  0  0  2  0  0  0  0  0  0
  -28.6430  -12.1410   19.2150 C   0  0  0  0  0  2  0  0  0  0  0  0
  -28.0850  -13.2410   20.1590 C   0  0  0  0  0  3  0  0  0  0  0  0
  -28.9980  -13.5050   21.3690 C   0  0  0  0  0  2  0  0  0  0  0  0
  -30.3070  -13.8720   20.8120 N   0  0  0  0  0  0  0  0  0  0  0  0
  -32.1540  -15.0970   21.0050 O   0  0  0  0  0  0  0  0  0  0  0  0
  -30.3730  -16.2560   20.1120 N   0  0  0  0  0  0  0  0  0  0  0  0
  -25.6340  -13.8380   20.6120 C   0  0  0  0  0  0  0  0  0  0  0  0
  -24.5350  -13.0710   20.8860 C   0  0  0  0  0  0  0  0  0  0  0  0
  -25.0060  -11.7250   20.9810 C   0  0  0  0  0  0  0  0  0  0  0  0
  -26.7030  -12.9620   20.5410 N   0  0  0  0  0  0  0  0  0  0  0  0
  -26.3250  -11.6910   20.8420 N   0  0  0  0  0  0  0  0  0  0  0  0
  -24.2710  -10.4630   21.1360 C   0  0  0  0  0  0  0  0  0  0  0  0
  -24.6220   -9.5180   22.1270 C   0  0  0  0  0  3  0  0  0  0  0  0
  -23.8850   -8.3230   22.2710 C   0  0  0  0  0  3  0  0  0  0  0  0
  -22.7830   -8.0610   21.4230 C   0  0  0  0  0  0  0  0  0  0  0  0
  -22.4530   -8.9920   20.4220 C   0  0  0  0  0  3  0  0  0  0  0  0
  -23.1910  -10.1800   20.2760 C   0  0  0  0  0  3  0  0  0  0  0  0
  -22.0240   -6.9160   21.4740 O   0  0  0  0  0  0  0  0  0  0  0  0
  -21.8960   -6.1900   22.6310 C   0  0  0  0  0  0  0  0  0  0  0  0
  -21.3890   -6.7640   23.8170 C   0  0  0  0  0  3  0  0  0  0  0  0
  -21.2050   -5.9650   24.9640 C   0  0  0  0  0  3  0  0  0  0  0  0
  -21.5180   -4.5920   24.9230 C   0  0  0  0  0  0  0  0  0  0  0  0
  -22.0190   -4.0170   23.7420 C   0  0  0  0  0  3  0  0  0  0  0  0
  -22.2030   -4.8150   22.5970 C   0  0  0  0  0  0  0  0  0  0  0  0
  -22.6640   -4.2520   21.4540 F   0  0  0  0  0  0  0  0  0  0  0  0
  -21.3360   -3.8220   26.0220 F   0  0  0  0  0  0  0  0  0  0  0  0
  -23.1130  -13.5420   20.9530 C   0  0  0  0  0  0  0  0  0  0  0  0
  -22.2930  -12.8970   21.7740 N   0  0  0  0  0  0  0  0  0  0  0  0
  -22.7340  -14.5210   20.3110 O   0  0  0  0  0  0  0  0  0  0  0  0
  -22.6120  -12.1070   22.3180 H   0  0  0  0  0  0  0  0  0  0  0  0
  -21.3340  -13.1970   21.8670 H   0  0  0  0  0  0  0  0  0  0  0  0
  -25.8150  -15.1990   20.3840 N   0  0  0  0  0  0  0  0  0  0  0  0
  -25.0400  -15.8510   20.3500 H   0  0  0  0  0  0  0  0  0  0  0  0
  -26.6950  -15.6080   20.1050 H   0  0  0  0  0  0  0  0  0  0  0  0
  -29.7380  -17.2230   17.8110 C   0  0  0  0  0  1  0  0  0  0  0  0
  -32.1590  -17.0620   18.4400 C   0  0  0  0  0  1  0  0  0  0  0  0
  -30.8260  -15.0700   17.8830 C   0  0  0  0  0  1  0  0  0  0  0  0
  -30.7690  -16.3960   18.6390 C   0  0  1  0  0  0  0  0  0  0  0  0
  -29.3190  -23.2890   22.3220 C   0  0  0  0  0  2  0  0  0  0  0  0
  -30.0420  -23.8490   21.0910 C   0  0  0  0  0  2  0  0  0  0  0  0
  -28.2120  -22.3840   21.7650 C   0  0  0  0  0  2  0  0  0  0  0  0
  -29.1970  -23.3900   19.9030 C   0  0  0  0  0  3  0  0  0  0  0  0
  -28.6220  -22.0390   20.4050 N   0  0  0  0  0  0  0  0  0  0  0  0
  -28.1620  -24.6470   19.4790 C   0  0  0  0  0  2  0  0  0  0  0  0
  -28.4570  -26.1700   19.4260 O   0  0  0  0  0  0  0  0  0  0  0  0
  -24.7980  -31.5350   22.8690 C   0  0  0  0  0  0  0  0  0  0  0  0
  -27.3820  -27.1230   19.4530 C   0  0  0  0  0  0  0  0  0  0  0  0
  -23.5800  -30.2260   21.1740 C   0  0  0  0  0  3  0  0  0  0  0  0
  -25.0170  -28.7960   19.6000 C   0  0  0  0  0  0  0  0  0  0  0  0
  -26.1180  -30.5740   20.9510 C   0  0  0  0  0  2  0  0  0  0  0  0
  -26.2030  -29.2340   20.2030 C   0  0  0  0  0  0  0  0  0  0  0  0
  -27.3880  -28.4140   20.1140 C   0  0  0  0  0  3  0  0  0  0  0  0
  -26.1680  -26.7890   18.8130 C   0  0  0  0  0  3  0  0  0  0  0  0
  -25.0110  -27.5890   18.8900 C   0  0  0  0  0  3  0  0  0  0  0  0
  -23.7720  -29.6550   19.7450 C   0  0  0  0  0  2  0  0  0  0  0  0
  -24.8530  -30.7950   21.7200 N   0  0  0  0  0  0  0  0  0  0  0  0
  -23.7230  -31.7540   23.4480 O   0  0  0  0  0  0  0  0  0  0  0  0
  -22.9590  -29.1340   22.0810 C   0  0  0  0  0  0  0  0  0  0  0  0
  -21.6260  -28.9690   22.0140 N   0  0  0  0  0  0  0  0  0  0  0  0
  -23.6760  -28.4440   22.8100 O   0  0  0  0  0  0  0  0  0  0  0  0
  -21.1040  -29.5790   21.4000 H   0  0  0  0  0  0  0  0  0  0  0  0
  -18.2720  -27.7440   22.6270 C   0  0  0  0  0  0  0  0  0  0  0  0
  -20.8470  -27.9670   22.7470 C   0  0  0  0  0  3  0  0  0  0  0  0
  -20.8940  -26.5960   22.0350 C   0  0  0  0  0  2  0  0  0  0  0  0
  -19.7230  -26.3760   21.0710 C   0  0  0  0  0  2  0  0  0  0  0  0
  -18.3880  -26.4650   21.8160 C   0  0  0  0  0  2  0  0  0  0  0  0
  -19.4240  -28.4590   23.0500 C   0  0  0  0  0  0  0  0  0  0  0  0
  -19.2570  -29.6600   23.7720 C   0  0  0  0  0  3  0  0  0  0  0  0
  -17.9720  -30.1470   24.0730 C   0  0  0  0  0  3  0  0  0  0  0  0
  -16.8350  -29.4280   23.6630 C   0  0  0  0  0  3  0  0  0  0  0  0
  -16.9860  -28.2280   22.9470 C   0  0  0  0  0  3  0  0  0  0  0  0
  -26.0810  -32.1560   23.5000 C   0  0  0  0  0  3  0  0  0  0  0  0
  -26.6760  -31.2860   24.6740 C   0  0  1  0  0  0  0  0  0  0  0  0
  -25.6400  -30.9150   25.7620 C   0  0  0  0  0  1  0  0  0  0  0  0
  -27.2770  -29.9680   24.1330 C   0  0  0  0  0  1  0  0  0  0  0  0
  -27.8330  -32.0520   25.3570 C   0  0  0  0  0  1  0  0  0  0  0  0
  -25.7330  -33.5020   23.9820 N   0  0  0  0  0  0  0  0  0  0  0  0
  -26.0270  -34.6420   23.3440 C   0  0  0  0  0  0  0  0  0  0  0  0
  -26.6880  -34.6730   22.3030 O   0  0  0  0  0  0  0  0  0  0  0  0
  -25.1410  -33.5480   24.7990 H   0  0  0  0  0  0  0  0  0  0  0  0
  -24.2540  -36.4220   23.2010 C   0  0  0  0  0  1  0  0  0  0  0  0
  -25.5100  -35.9590   23.9570 C   0  0  0  0  0  3  0  0  0  0  0  0
  -27.6280  -36.7990   24.8760 C   0  0  0  0  0  1  0  0  0  0  0  0
  -26.5160  -37.0440   23.9600 N   0  0  0  0  0  0  0  0  0  0  0  0
  -26.0880  -37.9320   24.2080 H   0  0  0  0  0  0  0  0  0  0  0  0
  1  2  1  0
  3  6  1  0
  4  5  1  0
  4  3  2  0
  5  1  2  0
  6  2  2  0
  7  4  1  0
  8 15  2  0
  9 14  1  0
 10 11  1  0
 10  9  1  0
 12 11  1  0
 12 20  1  0
 12 13  1  0
 14  8  1  0
 14 13  1  0
 16  6  1  0
 16  8  1  0
 17 18  2  0
 18 37  1  0
 18 19  1  0
 19 22  1  0
 20 17  1  0
 20 21  1  0
 21 19  2  0
 22 23  1  0
 23 24  2  0
 25 28  1  0
 25 24  1  0
 26 25  2  0
 27 26  1  0
 27 22  2  0
 28 29  1  0
 29 30  1  0
 30 31  2  0
 32 31  1  0
 32 36  1  0
 33 32  2  0
 34 29  2  0
 34 33  1  0
 35 34  1  0
 37 38  1  0
 38 41  1  0
 38 40  1  0
 39 37  2  0
 42 17  1  0
 43 42  1  0
 44 42  1  0
 48 45  1  6
 46 48  1  0
 47 48  1  0
 48 16  1  0
 50 49  1  0
 51 49  1  0
 52 54  1  0
 52 53  1  0
 52 50  1  0
 53  5  1  0
 53 51  1  0
 55 57  1  0
 55 54  1  0
 56 67  2  0
 57 62  1  0
 58 66  1  0
 58 68  1  0
 59 65  1  0
 59 61  1  0
 60 66  1  0
 61 60  1  0
 62 61  2  0
 63 64  1  0
 63 57  2  0
 64 59  2  0
 65 58  1  0
 66 56  1  0
 68 70  2  0
 69 68  1  0
 71 69  1  0
 72 81  2  0
 72 77  1  0
 73 69  1  0
 73 77  1  0
 74 73  1  0
 75 76  1  0
 75 74  1  0
 76 72  1  0
 77 78  2  0
 78 79  1  0
 80 79  2  0
 81 80  1  0
 82 56  1  0
 82 87  1  0
 82 83  1  0
 83 86  1  1
 83 84  1  0
 85 83  1  0
 87 90  1  0
 88 92  1  0
 88 87  1  0
 89 88  2  0
 92 91  1  0
 92 94  1  0
 94 95  1  0
 94 93  1  0
M  ISO  4   8 100  16 100  54 101  55 101
M  END
>  <TORSDO>  (50) 
F 19

>  <SCORE>  (50) 
-11.183

>  <name>  (50) 
49

>  <ligand_id>  (50) 
49

>  <original_smiles>  (50) 
[H]c1c([H])c([H])c2c(c1[H])C([H])([H])C([H])([H])C([H])([H])C2([H])N([H])C(=O)C1([H])N(C(=O)C([H])(N([H])C(=O)C([H])(N([H])C([H])([H])[H])C([H])([H])[H])C(C([H])([H])[H])(C([H])([H])[H])C([H])([H])[H])C([H])([H])c2c([H])c(OC([H])([H])C3([H])N(c4c([H])c([H])c(N(C(=O)N5C([H])([H])C([H])([H])C([H])([H])C([H])(n6nc(-c7c([H])c([H])c(Oc8c([H])c([H])c(F)c([H])c8F)c([H])c7[H])c(C(=O)N([H])[H])c6N([H])[H])C5([H])[H])C(C([H])([H])[H])(C([H])([H])[H])C([H])([H])[H])c([H])c4C([H])([H])[H])C([H])([H])C([H])([H])C3([H])[H])c([H])c([H])c2C1([H])[H]

>  <smiles>  (50) 
[H]c1c([H])c([H])c2c(c1[H])C([H])([H])C([H])([H])C([H])([H])C2([H])N([H])C(=O)C1([H])N(C(=O)C([H])(N([H])C(=O)C([H])(N([H])C([H])([H])[H])C([H])([H])[H])C(C([H])([H])[H])(C([H])([H])[H])C([H])([H])[H])C([H])([H])c2c([H])c(OC([H])([H])C3([H])N(c4c([H])c([H])c(N(C(=O)N5C([H])([H])C([H])([H])C([H])([H])C([H])(n6nc(-c7c([H])c([H])c(Oc8c([H])c([H])c(F)c([H])c8F)c([H])c7[H])c(C(=O)N([H])[H])c6N([H])[H])C5([H])[H])C(C([H])([H])[H])(C([H])([H])[H])C([H])([H])[H])c([H])c4C([H])([H])[H])C([H])([H])C([H])([H])C3([H])[H])c([H])c([H])c2C1([H])[H]

$$$$
50:0:0
     RDKit          3D

 98107  0  0  1  0  0  0  0  0999 V2000
  -27.8810  -18.6190   19.5530 C   0  0  0  0  0  3  0  0  0  0  0  0
  -28.7210  -17.5430   19.8820 C   0  0  0  0  0  3  0  0  0  0  0  0
  -28.3360  -19.9520   19.5720 C   0  0  0  0  0  0  0  0  0  0  0  0
  -30.0540  -17.7210   20.2570 C   0  0  0  0  0  0  0  0  0  0  0  0
  -29.6770  -20.2630   19.9440 C   0  0  0  0  0  0  0  0  0  0  0  0
  -30.5180  -19.1100   20.2990 C   0  0  0  0  0  0  0  0  0  0  0  0
  -31.7970  -19.3500   20.6640 F   0  0  0  0  0  0  0  0  0  0  0  0
  -31.2450  -15.5410   21.2110 C   0  0  0  0  0  0  0  0  0  0  0  0
  -31.1640  -13.0730   20.8890 C   0  0  0  0  0  2  0  0  0  0  0  0
  -30.5450  -12.7350   19.5220 C   0  0  0  0  0  2  0  0  0  0  0  0
  -29.0290  -12.5400   19.6900 C   0  0  0  0  0  2  0  0  0  0  0  0
  -28.3610  -13.7280   20.4320 C   0  0  0  0  0  3  0  0  0  0  0  0
  -29.1490  -14.1470   21.6970 C   0  0  0  0  0  2  0  0  0  0  0  0
  -30.5490  -14.3510   21.3010 N   0  0  0  0  0  0  0  0  0  0  0  0
  -32.4470  -15.5190   21.4940 O   0  0  0  0  0  0  0  0  0  0  0  0
  -31.7190  -16.4380   19.0220 C   0  0  0  0  0  1  0  0  0  0  0  0
  -30.8750  -16.4760   20.2280 N   0  0  0  0  0  0  0  0  0  0  0  0
  -25.9060  -14.4180   20.7710 C   0  0  0  0  0  0  0  0  0  0  0  0
  -24.7640  -13.6970   20.9500 C   0  0  0  0  0  0  0  0  0  0  0  0
  -25.1700  -12.3320   21.0160 C   0  0  0  0  0  0  0  0  0  0  0  0
  -26.9430  -13.5000   20.7150 N   0  0  0  0  0  0  0  0  0  0  0  0
  -26.4940  -12.2360   20.9340 N   0  0  0  0  0  0  0  0  0  0  0  0
  -24.3640  -11.1110   21.0830 C   0  0  0  0  0  0  0  0  0  0  0  0
  -24.7170  -10.0440   21.9370 C   0  0  0  0  0  3  0  0  0  0  0  0
  -23.9130   -8.8860   22.0040 C   0  0  0  0  0  3  0  0  0  0  0  0
  -22.7430   -8.7920   21.2120 C   0  0  0  0  0  0  0  0  0  0  0  0
  -22.4070   -9.8510   20.3470 C   0  0  0  0  0  3  0  0  0  0  0  0
  -23.2110  -11.0000   20.2790 C   0  0  0  0  0  3  0  0  0  0  0  0
  -21.9180   -7.6940   21.1820 O   0  0  0  0  0  0  0  0  0  0  0  0
  -22.0000   -6.7110   22.1330 C   0  0  0  0  0  0  0  0  0  0  0  0
  -21.8900   -6.9950   23.5110 C   0  0  0  0  0  3  0  0  0  0  0  0
  -21.9100   -5.9470   24.4530 C   0  0  0  0  0  3  0  0  0  0  0  0
  -22.0310   -4.6140   24.0160 C   0  0  0  0  0  0  0  0  0  0  0  0
  -22.1340   -4.3270   22.6420 C   0  0  0  0  0  3  0  0  0  0  0  0
  -22.1150   -5.3720   21.7040 C   0  0  0  0  0  0  0  0  0  0  0  0
  -22.1920   -5.0890   20.3810 F   0  0  0  0  0  0  0  0  0  0  0  0
  -22.0470   -3.6060   24.9170 F   0  0  0  0  0  0  0  0  0  0  0  0
  -23.3660  -14.2420   20.9630 C   0  0  0  0  0  0  0  0  0  0  0  0
  -22.4640  -13.6190   21.7110 N   0  0  0  0  0  0  0  0  0  0  0  0
  -23.0810  -15.2730   20.3540 O   0  0  0  0  0  0  0  0  0  0  0  0
  -22.7020  -12.7940   22.2370 H   0  0  0  0  0  0  0  0  0  0  0  0
  -21.5260  -13.9890   21.7620 H   0  0  0  0  0  0  0  0  0  0  0  0
  -26.1170  -15.7820   20.6330 N   0  0  0  0  0  0  0  0  0  0  0  0
  -25.3350  -16.4250   20.6730 H   0  0  0  0  0  0  0  0  0  0  0  0
  -27.0100  -16.2410   20.6930 H   0  0  0  0  0  0  0  0  0  0  0  0
  -25.3550  -21.9180   20.0920 C   0  0  0  0  0  2  0  0  0  0  0  0
  -25.4220  -21.9630   18.5630 C   0  0  0  0  0  2  0  0  0  0  0  0
  -26.7630  -21.4920   20.5200 C   0  0  0  0  0  2  0  0  0  0  0  0
  -26.4100  -20.8420   18.2520 C   0  0  0  0  0  2  0  0  0  0  0  0
  -27.3920  -20.9590   19.3240 N   0  0  0  0  0  0  0  0  0  0  0  0
  -30.1230  -21.6540   20.0140 N   0  0  0  0  0  0  0  0  0  0  0  0
  -31.1300  -21.7460   20.0640 H   0  0  0  0  0  0  0  0  0  0  0  0
  -29.4060  -22.8980   19.4820 C   0  0  0  0  0  2  0  0  0  0  0  0
  -29.0120  -24.3040   21.6250 C   0  0  0  0  0  1  0  0  0  0  0  0
  -31.0470  -24.7560   20.2620 C   0  0  0  0  0  1  0  0  0  0  0  0
  -29.5590  -24.3570   20.1850 C   0  0  1  0  0  0  0  0  0  0  0  0
  -28.7210  -25.5160   19.4330 C   0  0  0  0  0  2  0  0  0  0  0  0
  -28.8280  -26.9600   19.8090 O   0  0  0  0  0  0  0  0  0  0  0  0
  -25.0930  -31.8440   23.6150 C   0  0  0  0  0  0  0  0  0  0  0  0
  -27.7010  -27.8120   19.8590 C   0  0  0  0  0  0  0  0  0  0  0  0
  -23.9010  -30.7220   21.7870 C   0  0  0  0  0  3  0  0  0  0  0  0
  -25.3300  -29.4170   20.1210 C   0  0  0  0  0  0  0  0  0  0  0  0
  -26.4260  -31.0690   21.6330 C   0  0  0  0  0  2  0  0  0  0  0  0
  -26.5000  -29.8050   20.7800 C   0  0  0  0  0  0  0  0  0  0  0  0
  -27.6800  -29.0110   20.6420 C   0  0  0  0  0  3  0  0  0  0  0  0
  -26.5080  -27.5140   19.1560 C   0  0  0  0  0  3  0  0  0  0  0  0
  -25.3360  -28.2760   19.3040 C   0  0  0  0  0  3  0  0  0  0  0  0
  -24.0980  -30.2770   20.3130 C   0  0  0  0  0  2  0  0  0  0  0  0
  -25.1610  -31.2190   22.4040 N   0  0  0  0  0  0  0  0  0  0  0  0
  -24.0040  -32.0290   24.1890 O   0  0  0  0  0  0  0  0  0  0  0  0
  -23.2420  -29.5720   22.5840 C   0  0  0  0  0  0  0  0  0  0  0  0
  -21.9240  -29.5090   22.4210 N   0  0  0  0  0  0  0  0  0  0  0  0
  -23.8940  -28.7800   23.2620 O   0  0  0  0  0  0  0  0  0  0  0  0
  -21.5290  -30.2860   21.9120 H   0  0  0  0  0  0  0  0  0  0  0  0
  -18.5120  -27.9780   22.5030 C   0  0  0  0  0  0  0  0  0  0  0  0
  -20.9750  -28.4450   22.6360 C   0  0  0  0  0  3  0  0  0  0  0  0
  -21.2830  -26.9830   22.2860 C   0  0  0  0  0  2  0  0  0  0  0  0
  -20.2500  -26.5030   21.2450 C   0  0  0  0  0  2  0  0  0  0  0  0
  -18.7970  -26.6800   21.7440 C   0  0  0  0  0  2  0  0  0  0  0  0
  -19.5560  -28.7750   23.0370 C   0  0  0  0  0  0  0  0  0  0  0  0
  -19.2630  -29.9540   23.7480 C   0  0  0  0  0  3  0  0  0  0  0  0
  -17.9280  -30.3750   23.8880 C   0  0  0  0  0  3  0  0  0  0  0  0
  -16.8890  -29.6070   23.3320 C   0  0  0  0  0  3  0  0  0  0  0  0
  -17.1790  -28.4070   22.6570 C   0  0  0  0  0  3  0  0  0  0  0  0
  -26.3720  -32.3700   24.3280 C   0  0  0  0  0  3  0  0  0  0  0  0
  -26.0590  -33.7000   24.8700 N   0  0  0  0  0  0  0  0  0  0  0  0
  -26.4770  -34.8570   24.3350 C   0  0  0  0  0  0  0  0  0  0  0  0
  -27.2290  -34.9080   23.3600 O   0  0  0  0  0  0  0  0  0  0  0  0
  -25.4030  -33.7350   25.6340 H   0  0  0  0  0  0  0  0  0  0  0  0
  -24.8280  -36.7470   24.1500 C   0  0  0  0  0  1  0  0  0  0  0  0
  -25.9780  -36.1590   24.9840 C   0  0  0  0  0  3  0  0  0  0  0  0
  -28.0490  -36.7990   26.1380 C   0  0  0  0  0  1  0  0  0  0  0  0
  -27.0400  -37.1740   25.1510 N   0  0  0  0  0  0  0  0  0  0  0  0
  -26.6430  -38.0670   25.4300 H   0  0  0  0  0  0  0  0  0  0  0  0
  -26.8760  -31.4080   25.4690 C   0  0  1  0  0  0  0  0  0  0  0  0
  -25.7840  -31.0330   26.4970 C   0  0  0  0  0  1  0  0  0  0  0  0
  -27.4370  -30.0960   24.8720 C   0  0  0  0  0  1  0  0  0  0  0  0
  -28.0380  -32.0780   26.2400 C   0  0  0  0  0  1  0  0  0  0  0  0
  1  3  2  0
  1  2  1  0
  2  4  2  0
  3  5  1  0
  4  6  1  0
  5 51  1  0
  5  6  2  0
  6  7  1  0
  8 14  1  0
  8 15  2  0
  9 14  1  0
 10 11  1  0
 10  9  1  0
 12 11  1  0
 12 21  1  0
 12 13  1  0
 14 13  1  0
 16 17  1  0
 17  4  1  0
 17  8  1  0
 18 19  2  0
 19 38  1  0
 19 20  1  0
 20 23  1  0
 21 18  1  0
 21 22  1  0
 22 20  2  0
 23 24  1  0
 24 25  2  0
 26 25  1  0
 27 26  2  0
 28 27  1  0
 28 23  2  0
 29 26  1  0
 29 30  1  0
 30 31  1  0
 31 32  2  0
 33 32  1  0
 33 37  1  0
 34 33  2  0
 35 30  2  0
 35 34  1  0
 36 35  1  0
 38 39  1  0
 39 42  1  0
 39 41  1  0
 40 38  2  0
 43 44  1  0
 43 45  1  0
 43 18  1  0
 46 48  1  0
 47 46  1  0
 49 47  1  0
 49 50  1  0
 50  3  1  0
 50 48  1  0
 51 52  1  0
 53 51  1  0
 53 56  1  0
 56 55  1  1
 56 54  1  0
 57 58  1  0
 57 56  1  0
 58 60  1  0
 59 70  2  0
 60 65  1  0
 61 69  1  0
 61 71  1  0
 62 68  1  0
 62 64  1  0
 63 69  1  0
 64 63  1  0
 65 64  2  0
 66 67  1  0
 66 60  2  0
 67 62  2  0
 68 61  1  0
 69 59  1  0
 71 73  2  0
 72 71  1  0
 74 72  1  0
 75 84  2  0
 75 80  1  0
 76 72  1  0
 76 80  1  0
 77 76  1  0
 78 79  1  0
 78 77  1  0
 79 75  1  0
 80 81  2  0
 81 82  1  0
 83 82  2  0
 84 83  1  0
 85 59  1  0
 85 86  1  0
 85 95  1  0
 86 89  1  0
 87 86  1  0
 87 91  1  0
 88 87  2  0
 91 90  1  0
 91 93  1  0
 93 94  1  0
 93 92  1  0
 95 98  1  1
 95 96  1  0
 97 95  1  0
M  ISO  4   8 100  17 100  57 101  58 101
M  END
>  <TORSDO>  (51) 
F 21

>  <SCORE>  (51) 
-8.598

>  <name>  (51) 
50

>  <ligand_id>  (51) 
50

>  <original_smiles>  (51) 
[H]c1c([H])c([H])c2c(c1[H])C([H])([H])C([H])([H])C([H])([H])C2([H])N([H])C(=O)C1([H])N(C(=O)C([H])(N([H])C(=O)C([H])(N([H])C([H])([H])[H])C([H])([H])[H])C(C([H])([H])[H])(C([H])([H])[H])C([H])([H])[H])C([H])([H])c2c([H])c(OC([H])([H])C(C([H])([H])[H])(C([H])([H])[H])C([H])([H])N([H])c3c(F)c(N(C(=O)N4C([H])([H])C([H])([H])C([H])([H])C([H])(n5nc(-c6c([H])c([H])c(Oc7c([H])c([H])c(F)c([H])c7F)c([H])c6[H])c(C(=O)N([H])[H])c5N([H])[H])C4([H])[H])C([H])([H])[H])c([H])c([H])c3N3C([H])([H])C([H])([H])C([H])([H])C3([H])[H])c([H])c([H])c2C1([H])[H]

>  <smiles>  (51) 
[H]c1c([H])c([H])c2c(c1[H])C([H])([H])C([H])([H])C([H])([H])C2([H])N([H])C(=O)C1([H])N(C(=O)C([H])(N([H])C(=O)C([H])(N([H])C([H])([H])[H])C([H])([H])[H])C(C([H])([H])[H])(C([H])([H])[H])C([H])([H])[H])C([H])([H])c2c([H])c(OC([H])([H])C(C([H])([H])[H])(C([H])([H])[H])C([H])([H])N([H])c3c(F)c(N(C(=O)N4C([H])([H])C([H])([H])C([H])([H])C([H])(n5nc(-c6c([H])c([H])c(Oc7c([H])c([H])c(F)c([H])c7F)c([H])c6[H])c(C(=O)N([H])[H])c5N([H])[H])C4([H])[H])C([H])([H])[H])c([H])c([H])c3N3C([H])([H])C([H])([H])C([H])([H])C3([H])[H])c([H])c([H])c2C1([H])[H]

$$$$
51:0:0
     RDKit          3D

 94103  0  0  1  0  0  0  0  0999 V2000
  -29.5770  -22.7570   20.4730 C   0  0  0  0  0  0  0  0  0  0  0  0
  -28.9630  -23.8090   19.8100 C   0  0  0  0  0  0  0  0  0  0  0  0
  -29.8600  -22.8140   21.9650 C   0  0  0  0  0  2  0  0  0  0  0  0
  -31.2240  -22.1390   22.1150 C   0  0  0  0  0  2  0  0  0  0  0  0
  -31.6640  -21.9840   20.6600 C   0  0  0  0  0  2  0  0  0  0  0  0
  -28.9290  -23.8720   18.2950 C   0  0  0  0  0  1  0  0  0  0  0  0
  -30.4180  -21.7190   19.9410 N   0  0  0  0  0  0  0  0  0  0  0  0
  -31.3730  -19.4020   19.6520 C   0  0  0  0  0  3  0  0  0  0  0  0
  -31.3180  -17.9730   19.7500 C   0  0  0  0  0  3  0  0  0  0  0  0
  -29.0700  -19.5710   20.2470 C   0  0  0  0  0  3  0  0  0  0  0  0
  -30.2650  -20.2690   19.9220 C   0  0  0  0  0  0  0  0  0  0  0  0
  -30.1300  -17.2850   20.1150 C   0  0  0  0  0  0  0  0  0  0  0  0
  -29.0040  -18.1380   20.3320 C   0  0  0  0  0  0  0  0  0  0  0  0
  -27.4830  -17.4200   20.7270 Cl  0  0  0  0  0  0  0  0  0  0  0  0
  -30.7350  -14.7250   19.8230 C   0  0  0  0  0  0  0  0  0  0  0  0
  -30.4190  -12.4910   18.7510 C   0  0  0  0  0  2  0  0  0  0  0  0
  -29.3870  -12.6500   17.6120 C   0  0  0  0  0  2  0  0  0  0  0  0
  -27.9530  -12.4840   18.1540 C   0  0  0  0  0  2  0  0  0  0  0  0
  -27.6990  -13.3130   19.4420 C   0  0  0  0  0  3  0  0  0  0  0  0
  -28.8450  -13.1500   20.4660 C   0  0  0  0  0  2  0  0  0  0  0  0
  -30.1010  -13.5030   19.7840 N   0  0  0  0  0  0  0  0  0  0  0  0
  -31.8750  -14.8470   19.3700 O   0  0  0  0  0  0  0  0  0  0  0  0
  -29.9790  -15.8110   20.2200 N   0  0  0  0  0  0  0  0  0  0  0  0
  -29.1000  -15.5390   20.6350 H   0  0  0  0  0  0  0  0  0  0  0  0
  -25.3800  -13.9010   20.3750 C   0  0  0  0  0  0  0  0  0  0  0  0
  -24.3400  -13.1240   20.8080 C   0  0  0  0  0  0  0  0  0  0  0  0
  -24.7850  -11.7720   20.6960 C   0  0  0  0  0  0  0  0  0  0  0  0
  -26.3940  -13.0230   20.0270 N   0  0  0  0  0  0  0  0  0  0  0  0
  -26.0450  -11.7340   20.2780 N   0  0  0  0  0  0  0  0  0  0  0  0
  -24.0630  -10.5100   20.9010 C   0  0  0  0  0  0  0  0  0  0  0  0
  -24.4990   -9.5560   21.8490 C   0  0  0  0  0  3  0  0  0  0  0  0
  -23.7780   -8.3580   22.0410 C   0  0  0  0  0  3  0  0  0  0  0  0
  -22.6090   -8.1030   21.2870 C   0  0  0  0  0  0  0  0  0  0  0  0
  -22.1930   -9.0460   20.3330 C   0  0  0  0  0  3  0  0  0  0  0  0
  -22.9130  -10.2360   20.1370 C   0  0  0  0  0  3  0  0  0  0  0  0
  -21.8630   -6.9520   21.3860 O   0  0  0  0  0  0  0  0  0  0  0  0
  -21.7380   -6.2750   22.5720 C   0  0  0  0  0  0  0  0  0  0  0  0
  -21.2030   -6.8870   23.7270 C   0  0  0  0  0  3  0  0  0  0  0  0
  -21.0270   -6.1360   24.9050 C   0  0  0  0  0  3  0  0  0  0  0  0
  -21.3760   -4.7710   24.9290 C   0  0  0  0  0  0  0  0  0  0  0  0
  -21.9020   -4.1590   23.7790 C   0  0  0  0  0  3  0  0  0  0  0  0
  -22.0820   -4.9090   22.6030 C   0  0  0  0  0  0  0  0  0  0  0  0
  -22.5700   -4.3090   21.4920 F   0  0  0  0  0  0  0  0  0  0  0  0
  -21.2010   -4.0460   26.0590 F   0  0  0  0  0  0  0  0  0  0  0  0
  -22.9740  -13.6070   21.2070 C   0  0  0  0  0  0  0  0  0  0  0  0
  -22.3090  -12.8990   22.1120 N   0  0  0  0  0  0  0  0  0  0  0  0
  -22.5090  -14.6520   20.7510 O   0  0  0  0  0  0  0  0  0  0  0  0
  -22.6960  -12.0550   22.5070 H   0  0  0  0  0  0  0  0  0  0  0  0
  -21.3970  -13.2100   22.4170 H   0  0  0  0  0  0  0  0  0  0  0  0
  -25.5380  -15.2750   20.2240 N   0  0  0  0  0  0  0  0  0  0  0  0
  -24.7870  -15.9250   20.4300 H   0  0  0  0  0  0  0  0  0  0  0  0
  -26.3590  -15.7310   19.8480 H   0  0  0  0  0  0  0  0  0  0  0  0
  -28.1860  -25.0220   20.4740 C   0  0  0  0  0  2  0  0  0  0  0  0
  -28.4110  -26.4100   19.9830 O   0  0  0  0  0  0  0  0  0  0  0  0
  -24.7020  -31.7920   23.1020 C   0  0  0  0  0  0  0  0  0  0  0  0
  -27.2980  -27.2680   19.9860 C   0  0  0  0  0  0  0  0  0  0  0  0
  -23.4870  -30.4080   21.4570 C   0  0  0  0  0  3  0  0  0  0  0  0
  -24.9310  -28.8740   20.0020 C   0  0  0  0  0  0  0  0  0  0  0  0
  -26.0240  -30.7300   21.2580 C   0  0  0  0  0  2  0  0  0  0  0  0
  -26.1010  -29.3590   20.5990 C   0  0  0  0  0  0  0  0  0  0  0  0
  -27.2900  -28.5690   20.5790 C   0  0  0  0  0  3  0  0  0  0  0  0
  -26.1080  -26.8370   19.3630 C   0  0  0  0  0  3  0  0  0  0  0  0
  -24.9380  -27.6200   19.3680 C   0  0  0  0  0  3  0  0  0  0  0  0
  -23.6930  -29.7440   20.0690 C   0  0  0  0  0  2  0  0  0  0  0  0
  -24.7570  -30.9950   21.9950 N   0  0  0  0  0  0  0  0  0  0  0  0
  -23.6230  -32.0630   23.6480 O   0  0  0  0  0  0  0  0  0  0  0  0
  -22.8330  -29.3830   22.4140 C   0  0  0  0  0  0  0  0  0  0  0  0
  -21.5040  -29.2160   22.3040 N   0  0  0  0  0  0  0  0  0  0  0  0
  -23.5190  -28.7400   23.2130 O   0  0  0  0  0  0  0  0  0  0  0  0
  -21.0100  -29.7850   21.6310 H   0  0  0  0  0  0  0  0  0  0  0  0
  -18.1200  -28.0670   22.8650 C   0  0  0  0  0  0  0  0  0  0  0  0
  -20.6880  -28.2750   23.0740 C   0  0  0  0  0  3  0  0  0  0  0  0
  -20.7500  -26.8570   22.4590 C   0  0  0  0  0  2  0  0  0  0  0  0
  -19.6160  -26.5820   21.4670 C   0  0  0  0  0  2  0  0  0  0  0  0
  -18.2540  -26.7340   22.1490 C   0  0  0  0  0  2  0  0  0  0  0  0
  -19.2630  -28.7990   23.2840 C   0  0  0  0  0  0  0  0  0  0  0  0
  -19.0800  -30.0500   23.9130 C   0  0  0  0  0  3  0  0  0  0  0  0
  -17.7890  -30.5660   24.1300 C   0  0  0  0  0  3  0  0  0  0  0  0
  -16.6610  -29.8290   23.7280 C   0  0  0  0  0  3  0  0  0  0  0  0
  -16.8290  -28.5830   23.0990 C   0  0  0  0  0  3  0  0  0  0  0  0
  -25.9890  -32.4170   23.7210 C   0  0  0  0  0  3  0  0  0  0  0  0
  -25.6760  -33.8070   24.0840 N   0  0  0  0  0  0  0  0  0  0  0  0
  -26.0000  -34.8790   23.3490 C   0  0  0  0  0  0  0  0  0  0  0  0
  -26.6680  -34.8020   22.3120 O   0  0  0  0  0  0  0  0  0  0  0  0
  -25.0860  -33.9400   24.8900 H   0  0  0  0  0  0  0  0  0  0  0  0
  -24.2750  -36.6850   23.0360 C   0  0  0  0  0  1  0  0  0  0  0  0
  -25.5110  -36.2540   23.8430 C   0  0  0  0  0  3  0  0  0  0  0  0
  -27.6400  -37.1190   24.7110 C   0  0  0  0  0  1  0  0  0  0  0  0
  -26.5420  -37.3120   23.7670 N   0  0  0  0  0  0  0  0  0  0  0  0
  -26.1320  -38.2270   23.9360 H   0  0  0  0  0  0  0  0  0  0  0  0
  -26.5230  -31.6250   24.9780 C   0  0  1  0  0  0  0  0  0  0  0  0
  -25.4440  -31.3610   26.0540 C   0  0  0  0  0  1  0  0  0  0  0  0
  -27.1100  -30.2580   24.5560 C   0  0  0  0  0  1  0  0  0  0  0  0
  -27.6750  -32.4160   25.6440 C   0  0  0  0  0  1  0  0  0  0  0  0
  1  3  1  0
  2  1  2  0
  2 53  1  0
  3  4  1  0
  5  4  1  0
  6  2  1  0
  7  1  1  0
  7  5  1  0
  8  9  2  0
  8 11  1  0
  9 12  1  0
 10 13  1  0
 11  7  1  0
 11 10  2  0
 12 23  1  0
 12 13  2  0
 13 14  1  0
 15 23  1  0
 16 21  1  0
 17 18  1  0
 17 16  1  0
 19 18  1  0
 19 28  1  0
 19 20  1  0
 21 15  1  0
 21 20  1  0
 22 15  2  0
 23 24  1  0
 25 26  2  0
 26 45  1  0
 27 26  1  0
 27 30  1  0
 28 29  1  0
 28 25  1  0
 29 27  2  0
 30 31  1  0
 31 32  2  0
 33 36  1  0
 33 32  1  0
 34 33  2  0
 35 34  1  0
 35 30  2  0
 36 37  1  0
 37 42  2  0
 37 38  1  0
 38 39  2  0
 39 40  1  0
 40 44  1  0
 41 40  2  0
 42 41  1  0
 43 42  1  0
 45 46  1  0
 46 49  1  0
 46 48  1  0
 47 45  2  0
 50 25  1  0
 50 51  1  0
 52 50  1  0
 54 56  1  0
 54 53  1  0
 55 66  2  0
 56 61  1  0
 57 65  1  0
 57 67  1  0
 58 64  1  0
 58 60  1  0
 59 65  1  0
 60 59  1  0
 61 60  2  0
 62 63  1  0
 62 56  2  0
 63 58  2  0
 64 57  1  0
 65 55  1  0
 67 69  2  0
 68 67  1  0
 70 68  1  0
 71 80  2  0
 71 76  1  0
 72 68  1  0
 72 76  1  0
 73 72  1  0
 74 75  1  0
 74 73  1  0
 75 71  1  0
 76 77  2  0
 77 78  1  0
 79 78  2  0
 80 79  1  0
 81 55  1  0
 81 82  1  0
 81 91  1  0
 82 85  1  0
 83 87  1  0
 83 82  1  0
 84 83  2  0
 87 86  1  0
 89 87  1  0
 89 90  1  0
 89 88  1  0
 91 94  1  1
 91 92  1  0
 93 91  1  0
M  ISO  4  15 100  23 100  53 101  54 101
M  END
>  <TORSDO>  (52) 
F 18

>  <SCORE>  (52) 
-14.137

>  <name>  (52) 
51

>  <ligand_id>  (52) 
51

>  <original_smiles>  (52) 
[H]c1c([H])c([H])c2c(c1[H])C([H])([H])C([H])([H])C([H])([H])C2([H])N([H])C(=O)C1([H])N(C(=O)C([H])(N([H])C(=O)C([H])(N([H])C([H])([H])[H])C([H])([H])[H])C(C([H])([H])[H])(C([H])([H])[H])C([H])([H])[H])C([H])([H])c2c([H])c(OC([H])([H])C(=C3N(c4c([H])c([H])c(N([H])C(=O)N5C([H])([H])C([H])([H])C([H])([H])C([H])(n6nc(-c7c([H])c([H])c(Oc8c([H])c([H])c(F)c([H])c8F)c([H])c7[H])c(C(=O)N([H])[H])c6N([H])[H])C5([H])[H])c(Cl)c4[H])C([H])([H])C([H])([H])C3([H])[H])C([H])([H])[H])c([H])c([H])c2C1([H])[H]

>  <smiles>  (52) 
[H]c1c([H])c([H])c2c(c1[H])C([H])([H])C([H])([H])C([H])([H])C2([H])N([H])C(=O)C1([H])N(C(=O)C([H])(N([H])C(=O)C([H])(N([H])C([H])([H])[H])C([H])([H])[H])C(C([H])([H])[H])(C([H])([H])[H])C([H])([H])[H])C([H])([H])c2c([H])c(OC([H])([H])C(=C3N(c4c([H])c([H])c(N([H])C(=O)N5C([H])([H])C([H])([H])C([H])([H])C([H])(n6nc(-c7c([H])c([H])c(Oc8c([H])c([H])c(F)c([H])c8F)c([H])c7[H])c(C(=O)N([H])[H])c6N([H])[H])C5([H])[H])c(Cl)c4[H])C([H])([H])C([H])([H])C3([H])[H])C([H])([H])[H])c([H])c([H])c2C1([H])[H]

$$$$
52:0:0
     RDKit          3D

 96105  0  0  1  0  0  0  0  0999 V2000
  -31.0970  -22.9060   19.4600 C   0  0  0  0  0  0  0  0  0  0  0  0
  -32.3280  -22.5210   19.0680 C   0  0  0  0  0  3  0  0  0  0  0  0
  -30.5590  -24.3240   19.4480 C   0  0  0  0  0  2  0  0  0  0  0  0
  -28.9890  -22.9000   20.6360 C   0  0  0  0  0  2  0  0  0  0  0  0
  -29.4120  -24.3710   20.4610 C   0  0  0  0  0  3  0  0  0  0  0  0
  -32.9220  -21.1250   19.1250 C   0  0  0  0  0  1  0  0  0  0  0  0
  -30.0490  -22.0280   20.0650 N   0  0  1  0  0  4  0  0  0  0  0  0
  -30.4400  -21.5340   20.8580 H   0  0  0  0  0  0  0  0  0  0  0  0
  -29.5110  -20.9550   19.1730 C   0  0  0  0  0  2  0  0  0  0  0  0
  -29.6460  -18.4740   18.6850 C   0  0  0  0  0  3  0  0  0  0  0  0
  -29.7870  -17.1250   19.0630 C   0  0  0  0  0  3  0  0  0  0  0  0
  -30.1360  -17.8120   21.3700 C   0  0  0  0  0  3  0  0  0  0  0  0
  -29.7410  -19.5110   19.6390 C   0  0  0  0  0  0  0  0  0  0  0  0
  -30.0370  -16.7770   20.4110 C   0  0  0  0  0  0  0  0  0  0  0  0
  -29.9910  -19.1670   20.9900 C   0  0  0  0  0  0  0  0  0  0  0  0
  -30.0890  -20.1390   21.9270 F   0  0  0  0  0  0  0  0  0  0  0  0
  -30.7310  -14.4270   20.1540 C   0  0  0  0  0  0  0  0  0  0  0  0
  -30.3570  -12.3010   18.9740 C   0  0  0  0  0  2  0  0  0  0  0  0
  -29.3660  -12.5700   17.8230 C   0  0  0  0  0  2  0  0  0  0  0  0
  -27.9090  -12.4430   18.3110 C   0  0  0  0  0  2  0  0  0  0  0  0
  -27.6450  -13.2340   19.6200 C   0  0  0  0  0  3  0  0  0  0  0  0
  -28.7470  -12.9570   20.6700 C   0  0  0  0  0  2  0  0  0  0  0  0
  -30.0540  -13.2510   20.0540 N   0  0  0  0  0  0  0  0  0  0  0  0
  -31.8140  -14.6320   19.5990 O   0  0  0  0  0  0  0  0  0  0  0  0
  -30.0940  -15.4100   20.8180 N   0  0  0  0  0  0  0  0  0  0  0  0
  -29.3530  -15.1030   21.4320 H   0  0  0  0  0  0  0  0  0  0  0  0
  -25.2780  -13.8450   20.4210 C   0  0  0  0  0  0  0  0  0  0  0  0
  -24.2200  -13.0760   20.8260 C   0  0  0  0  0  0  0  0  0  0  0  0
  -24.6720  -11.7220   20.7650 C   0  0  0  0  0  0  0  0  0  0  0  0
  -26.3100  -12.9630   20.1460 N   0  0  0  0  0  0  0  0  0  0  0  0
  -25.9490  -11.6790   20.4060 N   0  0  0  0  0  0  0  0  0  0  0  0
  -23.9440  -10.4630   20.9710 C   0  0  0  0  0  0  0  0  0  0  0  0
  -24.4010   -9.4910   21.8900 C   0  0  0  0  0  3  0  0  0  0  0  0
  -23.6780   -8.2950   22.0850 C   0  0  0  0  0  3  0  0  0  0  0  0
  -22.4830   -8.0620   21.3620 C   0  0  0  0  0  0  0  0  0  0  0  0
  -22.0450   -9.0210   20.4320 C   0  0  0  0  0  3  0  0  0  0  0  0
  -22.7690  -10.2090   20.2330 C   0  0  0  0  0  3  0  0  0  0  0  0
  -21.7270   -6.9190   21.4720 O   0  0  0  0  0  0  0  0  0  0  0  0
  -21.6930   -6.1850   22.6310 C   0  0  0  0  0  0  0  0  0  0  0  0
  -21.2820   -6.7470   23.8590 C   0  0  0  0  0  3  0  0  0  0  0  0
  -21.1950   -5.9380   25.0090 C   0  0  0  0  0  3  0  0  0  0  0  0
  -21.5110   -4.5680   24.9320 C   0  0  0  0  0  0  0  0  0  0  0  0
  -21.9150   -4.0040   23.7090 C   0  0  0  0  0  3  0  0  0  0  0  0
  -22.0030   -4.8110   22.5620 C   0  0  0  0  0  0  0  0  0  0  0  0
  -22.3720   -4.2580   21.3800 F   0  0  0  0  0  0  0  0  0  0  0  0
  -21.4200   -3.7890   26.0360 F   0  0  0  0  0  0  0  0  0  0  0  0
  -22.8400  -13.5570   21.1670 C   0  0  0  0  0  0  0  0  0  0  0  0
  -22.1460  -12.8560   22.0560 N   0  0  0  0  0  0  0  0  0  0  0  0
  -22.3840  -14.5910   20.6760 O   0  0  0  0  0  0  0  0  0  0  0  0
  -22.5270  -12.0190   22.4720 H   0  0  0  0  0  0  0  0  0  0  0  0
  -21.2210  -13.1600   22.3270 H   0  0  0  0  0  0  0  0  0  0  0  0
  -25.4450  -15.2170   20.2510 N   0  0  0  0  0  0  0  0  0  0  0  0
  -24.6900  -15.8780   20.3940 H   0  0  0  0  0  0  0  0  0  0  0  0
  -26.2920  -15.6510   19.9080 H   0  0  0  0  0  0  0  0  0  0  0  0
  -28.2100  -25.2460   20.0420 C   0  0  0  0  0  2  0  0  0  0  0  0
  -28.3890  -26.6620   20.1790 O   0  0  0  0  0  0  0  0  0  0  0  0
  -24.5910  -31.8590   23.2390 C   0  0  0  0  0  0  0  0  0  0  0  0
  -27.2220  -27.4080   20.1510 C   0  0  0  0  0  0  0  0  0  0  0  0
  -23.3820  -30.4660   21.5940 C   0  0  0  0  0  3  0  0  0  0  0  0
  -24.8310  -28.9290   20.1700 C   0  0  0  0  0  0  0  0  0  0  0  0
  -25.9130  -30.8110   21.4040 C   0  0  0  0  0  2  0  0  0  0  0  0
  -25.9930  -29.4440   20.7560 C   0  0  0  0  0  0  0  0  0  0  0  0
  -27.1920  -28.6920   20.7440 C   0  0  0  0  0  3  0  0  0  0  0  0
  -26.0320  -26.9150   19.5550 C   0  0  0  0  0  3  0  0  0  0  0  0
  -24.8440  -27.6630   19.5710 C   0  0  0  0  0  3  0  0  0  0  0  0
  -23.5910  -29.7920   20.2140 C   0  0  0  0  0  2  0  0  0  0  0  0
  -24.6470  -31.0590   22.1370 N   0  0  0  0  0  0  0  0  0  0  0  0
  -23.5100  -32.1350   23.7780 O   0  0  0  0  0  0  0  0  0  0  0  0
  -22.7240  -29.4450   22.5490 C   0  0  0  0  0  0  0  0  0  0  0  0
  -21.3980  -29.2750   22.4240 N   0  0  0  0  0  0  0  0  0  0  0  0
  -23.4040  -28.8090   23.3590 O   0  0  0  0  0  0  0  0  0  0  0  0
  -20.9110  -29.8380   21.7410 H   0  0  0  0  0  0  0  0  0  0  0  0
  -18.0110  -28.1270   22.9370 C   0  0  0  0  0  0  0  0  0  0  0  0
  -20.5740  -28.3440   23.1940 C   0  0  0  0  0  3  0  0  0  0  0  0
  -20.6520  -26.9170   22.6040 C   0  0  0  0  0  2  0  0  0  0  0  0
  -19.5380  -26.6180   21.5960 C   0  0  0  0  0  2  0  0  0  0  0  0
  -18.1630  -26.7800   22.2500 C   0  0  0  0  0  2  0  0  0  0  0  0
  -19.1440  -28.8680   23.3660 C   0  0  0  0  0  0  0  0  0  0  0  0
  -18.9480  -30.1310   23.9660 C   0  0  0  0  0  3  0  0  0  0  0  0
  -17.6540  -30.6520   24.1440 C   0  0  0  0  0  3  0  0  0  0  0  0
  -16.5350  -29.9070   23.7330 C   0  0  0  0  0  3  0  0  0  0  0  0
  -16.7150  -28.6470   23.1340 C   0  0  0  0  0  3  0  0  0  0  0  0
  -25.8800  -32.4830   23.8600 C   0  0  0  0  0  3  0  0  0  0  0  0
  -26.3990  -31.7040   25.1300 C   0  0  1  0  0  0  0  0  0  0  0  0
  -25.3100  -31.4590   26.2010 C   0  0  0  0  0  1  0  0  0  0  0  0
  -26.9790  -30.3280   24.7270 C   0  0  0  0  0  1  0  0  0  0  0  0
  -27.5520  -32.4930   25.7940 C   0  0  0  0  0  1  0  0  0  0  0  0
  -25.5750  -33.8800   24.1960 N   0  0  0  0  0  0  0  0  0  0  0  0
  -25.9000  -34.9340   23.4350 C   0  0  0  0  0  0  0  0  0  0  0  0
  -26.5600  -34.8320   22.3960 O   0  0  0  0  0  0  0  0  0  0  0  0
  -24.9910  -34.0330   25.0040 H   0  0  0  0  0  0  0  0  0  0  0  0
  -24.1650  -36.7240   23.1020 C   0  0  0  0  0  1  0  0  0  0  0  0
  -25.4160  -36.3210   23.8990 C   0  0  0  0  0  3  0  0  0  0  0  0
  -27.5580  -37.2070   24.7070 C   0  0  0  0  0  1  0  0  0  0  0  0
  -26.4450  -37.3760   23.7760 N   0  0  0  0  0  0  0  0  0  0  0  0
  -26.0390  -38.2940   23.9320 H   0  0  0  0  0  0  0  0  0  0  0  0
  1  7  1  0
  2  6  1  0
  2  1  2  0
  3  1  1  0
  3  5  1  0
  5 55  1  0
  5  4  1  0
  7  4  1  0
  7  8  1  1
  9 13  1  0
  9  7  1  0
 10 11  2  0
 10 13  1  0
 11 14  1  0
 13 15  2  0
 14 25  1  0
 14 12  2  0
 15 12  1  0
 15 16  1  0
 17 25  1  0
 18 23  1  0
 19 20  1  0
 19 18  1  0
 21 20  1  0
 21 30  1  0
 21 22  1  0
 23 17  1  0
 23 22  1  0
 24 17  2  0
 25 26  1  0
 27 28  2  0
 28 47  1  0
 29 28  1  0
 29 32  1  0
 30 31  1  0
 30 27  1  0
 31 29  2  0
 32 33  1  0
 33 34  2  0
 35 38  1  0
 35 34  1  0
 36 35  2  0
 37 36  1  0
 37 32  2  0
 38 39  1  0
 39 40  1  0
 40 41  2  0
 42 41  1  0
 42 46  1  0
 43 42  2  0
 44 39  2  0
 44 43  1  0
 45 44  1  0
 47 48  1  0
 48 51  1  0
 48 50  1  0
 49 47  2  0
 52 53  1  0
 52 27  1  0
 54 52  1  0
 55 56  1  0
 57 68  2  0
 58 56  1  0
 58 63  1  0
 59 67  1  0
 59 69  1  0
 60 66  1  0
 60 62  1  0
 61 67  1  0
 62 61  1  0
 63 62  2  0
 64 65  1  0
 64 58  2  0
 65 60  2  0
 66 59  1  0
 67 57  1  0
 69 71  2  0
 70 69  1  0
 72 70  1  0
 73 82  2  0
 73 78  1  0
 74 70  1  0
 74 78  1  0
 75 74  1  0
 76 77  1  0
 76 75  1  0
 77 73  1  0
 78 79  2  0
 79 80  1  0
 81 80  2  0
 82 81  1  0
 83 57  1  0
 83 88  1  0
 83 84  1  0
 84 87  1  1
 84 85  1  0
 86 84  1  0
 88 91  1  0
 89 93  1  0
 89 88  1  0
 90 89  2  0
 93 92  1  0
 95 93  1  0
 95 96  1  0
 95 94  1  0
M  ISO  4  17 100  25 100  55 101  56 101
M  END
>  <TORSDO>  (53) 
F 19

>  <SCORE>  (53) 
-14.319

>  <name>  (53) 
52

>  <ligand_id>  (53) 
52

>  <original_smiles>  (53) 
[H]C(=C1C([H])([H])C([H])(C([H])([H])Oc2c([H])c([H])c3c(c2[H])C([H])([H])N(C(=O)C([H])(N([H])C(=O)C([H])(N([H])C([H])([H])[H])C([H])([H])[H])C(C([H])([H])[H])(C([H])([H])[H])C([H])([H])[H])C([H])(C(=O)N([H])C2([H])c4c([H])c([H])c([H])c([H])c4C([H])([H])C([H])([H])C2([H])[H])C3([H])[H])C([H])([H])[N+]1([H])C([H])([H])c1c([H])c([H])c(N([H])C(=O)N2C([H])([H])C([H])([H])C([H])([H])C([H])(n3nc(-c4c([H])c([H])c(Oc5c([H])c([H])c(F)c([H])c5F)c([H])c4[H])c(C(=O)N([H])[H])c3N([H])[H])C2([H])[H])c([H])c1F)C([H])([H])[H]

>  <smiles>  (53) 
[H]C(=C1C([H])([H])C([H])(C([H])([H])Oc2c([H])c([H])c3c(c2[H])C([H])([H])N(C(=O)C([H])(N([H])C(=O)C([H])(N([H])C([H])([H])[H])C([H])([H])[H])C(C([H])([H])[H])(C([H])([H])[H])C([H])([H])[H])C([H])(C(=O)N([H])C2([H])c4c([H])c([H])c([H])c([H])c4C([H])([H])C([H])([H])C2([H])[H])C3([H])[H])C([H])([H])[N+]1([H])C([H])([H])c1c([H])c([H])c(N([H])C(=O)N2C([H])([H])C([H])([H])C([H])([H])C([H])(n3nc(-c4c([H])c([H])c(Oc5c([H])c([H])c(F)c([H])c5F)c([H])c4[H])c(C(=O)N([H])[H])c3N([H])[H])C2([H])[H])c([H])c1F)C([H])([H])[H]

$$$$
53:0:0
     RDKit          3D

 93102  0  0  1  0  0  0  0  0999 V2000
  -28.7870  -22.4840   20.5680 C   0  0  0  0  0  0  0  0  0  0  0  0
  -30.4000  -23.7990   19.4330 C   0  0  0  0  0  2  0  0  0  0  0  0
  -30.8560  -22.3300   19.5930 C   0  0  0  0  0  2  0  0  0  0  0  0
  -29.2320  -23.9780   20.4050 C   0  0  0  0  0  3  0  0  0  0  0  0
  -29.7330  -21.5780   20.1610 N   0  0  0  0  0  0  0  0  0  0  0  0
  -27.6820  -22.1980   21.0390 O   0  0  0  0  0  0  0  0  0  0  0  0
  -30.9820  -19.3700   20.0460 C   0  0  0  0  0  3  0  0  0  0  0  0
  -31.0670  -17.9460   20.1330 C   0  0  0  0  0  3  0  0  0  0  0  0
  -28.6470  -19.2880   20.5880 C   0  0  0  0  0  3  0  0  0  0  0  0
  -29.7730  -20.0990   20.2670 C   0  0  0  0  0  0  0  0  0  0  0  0
  -29.9330  -17.1540   20.4500 C   0  0  0  0  0  0  0  0  0  0  0  0
  -28.7270  -17.8680   20.6760 C   0  0  0  0  0  0  0  0  0  0  0  0
  -27.6100  -17.1630   20.9780 F   0  0  0  0  0  0  0  0  0  0  0  0
  -30.6560  -14.6830   20.0650 C   0  0  0  0  0  0  0  0  0  0  0  0
  -30.3860  -12.4880   18.9260 C   0  0  0  0  0  2  0  0  0  0  0  0
  -29.3720  -12.6650   17.7730 C   0  0  0  0  0  2  0  0  0  0  0  0
  -27.9250  -12.4950   18.2770 C   0  0  0  0  0  2  0  0  0  0  0  0
  -27.6410  -13.3090   19.5680 C   0  0  0  0  0  3  0  0  0  0  0  0
  -28.7600  -13.0970   20.6140 C   0  0  0  0  0  2  0  0  0  0  0  0
  -30.0380  -13.4610   19.9800 N   0  0  0  0  0  0  0  0  0  0  0  0
  -31.7830  -14.8660   19.5950 O   0  0  0  0  0  0  0  0  0  0  0  0
  -29.8850  -15.6980   20.5600 N   0  0  0  0  0  0  0  0  0  0  0  0
  -29.0190  -15.3670   20.9590 H   0  0  0  0  0  0  0  0  0  0  0  0
  -25.2870  -13.8880   20.4230 C   0  0  0  0  0  0  0  0  0  0  0  0
  -24.2390  -13.1040   20.8240 C   0  0  0  0  0  0  0  0  0  0  0  0
  -24.6990  -11.7550   20.7340 C   0  0  0  0  0  0  0  0  0  0  0  0
  -26.3190  -13.0150   20.1140 N   0  0  0  0  0  0  0  0  0  0  0  0
  -25.9710  -11.7250   20.3590 N   0  0  0  0  0  0  0  0  0  0  0  0
  -23.9820  -10.4870   20.9280 C   0  0  0  0  0  0  0  0  0  0  0  0
  -24.4170   -9.5300   21.8710 C   0  0  0  0  0  3  0  0  0  0  0  0
  -23.6990   -8.3280   22.0520 C   0  0  0  0  0  3  0  0  0  0  0  0
  -22.5340   -8.0750   21.2890 C   0  0  0  0  0  0  0  0  0  0  0  0
  -22.1200   -9.0210   20.3360 C   0  0  0  0  0  3  0  0  0  0  0  0
  -22.8370  -10.2150   20.1540 C   0  0  0  0  0  3  0  0  0  0  0  0
  -21.7900   -6.9240   21.3800 O   0  0  0  0  0  0  0  0  0  0  0  0
  -21.6690   -6.2350   22.5600 C   0  0  0  0  0  0  0  0  0  0  0  0
  -21.1450   -6.8370   23.7240 C   0  0  0  0  0  3  0  0  0  0  0  0
  -20.9740   -6.0730   24.8960 C   0  0  0  0  0  3  0  0  0  0  0  0
  -21.3160   -4.7080   24.9030 C   0  0  0  0  0  0  0  0  0  0  0  0
  -21.8320   -4.1050   23.7420 C   0  0  0  0  0  3  0  0  0  0  0  0
  -22.0050   -4.8650   22.5740 C   0  0  0  0  0  0  0  0  0  0  0  0
  -22.4830   -4.2750   21.4520 F   0  0  0  0  0  0  0  0  0  0  0  0
  -21.1440   -3.9710   26.0260 F   0  0  0  0  0  0  0  0  0  0  0  0
  -22.8590  -13.5740   21.1840 C   0  0  0  0  0  0  0  0  0  0  0  0
  -22.1800  -12.8550   22.0710 N   0  0  0  0  0  0  0  0  0  0  0  0
  -22.3930  -14.6110   20.7150 O   0  0  0  0  0  0  0  0  0  0  0  0
  -22.5700  -12.0160   22.4720 H   0  0  0  0  0  0  0  0  0  0  0  0
  -21.2560  -13.1510   22.3550 H   0  0  0  0  0  0  0  0  0  0  0  0
  -25.4410  -15.2630   20.2780 N   0  0  0  0  0  0  0  0  0  0  0  0
  -24.6910  -15.9120   20.4890 H   0  0  0  0  0  0  0  0  0  0  0  0
  -26.3010  -15.7290   20.0220 H   0  0  0  0  0  0  0  0  0  0  0  0
  -28.1380  -25.0570   19.9860 C   0  0  0  0  0  2  0  0  0  0  0  0
  -28.3790  -26.5090   20.1810 O   0  0  0  0  0  0  0  0  0  0  0  0
  -24.6410  -31.8690   23.2490 C   0  0  0  0  0  0  0  0  0  0  0  0
  -27.2620  -27.3610   20.1300 C   0  0  0  0  0  0  0  0  0  0  0  0
  -23.4400  -30.4940   21.5870 C   0  0  0  0  0  3  0  0  0  0  0  0
  -24.8940  -28.9700   20.1400 C   0  0  0  0  0  0  0  0  0  0  0  0
  -25.9810  -30.8170   21.4140 C   0  0  0  0  0  2  0  0  0  0  0  0
  -26.0620  -29.4500   20.7450 C   0  0  0  0  0  0  0  0  0  0  0  0
  -27.2490  -28.6580   20.7310 C   0  0  0  0  0  3  0  0  0  0  0  0
  -26.0670  -26.9380   19.4980 C   0  0  0  0  0  3  0  0  0  0  0  0
  -24.8990  -27.7190   19.5080 C   0  0  0  0  0  3  0  0  0  0  0  0
  -23.6580  -29.8410   20.1970 C   0  0  0  0  0  2  0  0  0  0  0  0
  -24.7070  -31.0760   22.1400 N   0  0  0  0  0  0  0  0  0  0  0  0
  -23.5570  -32.1390   23.7850 O   0  0  0  0  0  0  0  0  0  0  0  0
  -22.7770  -29.4620   22.5290 C   0  0  0  0  0  0  0  0  0  0  0  0
  -21.4520  -29.2850   22.3950 N   0  0  0  0  0  0  0  0  0  0  0  0
  -23.4540  -28.8250   23.3410 O   0  0  0  0  0  0  0  0  0  0  0  0
  -20.9650  -29.8510   21.7140 H   0  0  0  0  0  0  0  0  0  0  0  0
  -18.0700  -28.0970   22.8790 C   0  0  0  0  0  0  0  0  0  0  0  0
  -20.6300  -28.3370   23.1480 C   0  0  0  0  0  3  0  0  0  0  0  0
  -20.7230  -26.9160   22.5470 C   0  0  0  0  0  2  0  0  0  0  0  0
  -19.6170  -26.6170   21.5290 C   0  0  0  0  0  2  0  0  0  0  0  0
  -18.2370  -26.7580   22.1780 C   0  0  0  0  0  2  0  0  0  0  0  0
  -19.1930  -28.8450   23.3200 C   0  0  0  0  0  0  0  0  0  0  0  0
  -18.9820  -30.0980   23.9340 C   0  0  0  0  0  3  0  0  0  0  0  0
  -17.6800  -30.6040   24.1120 C   0  0  0  0  0  3  0  0  0  0  0  0
  -16.5710  -29.8520   23.6870 C   0  0  0  0  0  3  0  0  0  0  0  0
  -16.7660  -28.6000   23.0750 C   0  0  0  0  0  3  0  0  0  0  0  0
  -25.9240  -32.4900   23.8820 C   0  0  0  0  0  3  0  0  0  0  0  0
  -25.6190  -33.8890   24.2150 N   0  0  0  0  0  0  0  0  0  0  0  0
  -25.9440  -34.9410   23.4520 C   0  0  0  0  0  0  0  0  0  0  0  0
  -26.6020  -34.8370   22.4130 O   0  0  0  0  0  0  0  0  0  0  0  0
  -25.0360  -34.0460   25.0240 H   0  0  0  0  0  0  0  0  0  0  0  0
  -24.2030  -36.7280   23.1310 C   0  0  0  0  0  1  0  0  0  0  0  0
  -25.4640  -36.3300   23.9150 C   0  0  0  0  0  3  0  0  0  0  0  0
  -27.6120  -37.2270   24.6960 C   0  0  0  0  0  1  0  0  0  0  0  0
  -26.4910  -37.3860   23.7740 N   0  0  0  0  0  0  0  0  0  0  0  0
  -26.0850  -38.3060   23.9250 H   0  0  0  0  0  0  0  0  0  0  0  0
  -26.4250  -31.7120   25.1600 C   0  0  1  0  0  0  0  0  0  0  0  0
  -25.3220  -31.4760   26.2170 C   0  0  0  0  0  1  0  0  0  0  0  0
  -27.0070  -30.3350   24.7690 C   0  0  0  0  0  1  0  0  0  0  0  0
  -27.5720  -32.5000   25.8360 C   0  0  0  0  0  1  0  0  0  0  0  0
  1  6  2  0
  2  3  1  0
  2  4  1  0
  3  5  1  0
  4 52  1  0
  4  1  1  0
  5 10  1  0
  5  1  1  0
  7  8  2  0
  7 10  1  0
  8 11  1  0
  9 12  1  0
 10  9  2  0
 11 22  1  0
 11 12  2  0
 12 13  1  0
 14 22  1  0
 15 20  1  0
 16 17  1  0
 16 15  1  0
 18 17  1  0
 18 27  1  0
 18 19  1  0
 20 14  1  0
 20 19  1  0
 21 14  2  0
 22 23  1  0
 24 25  2  0
 25 44  1  0
 26 25  1  0
 26 29  1  0
 27 28  1  0
 27 24  1  0
 28 26  2  0
 29 30  1  0
 30 31  2  0
 32 35  1  0
 32 31  1  0
 33 32  2  0
 34 33  1  0
 34 29  2  0
 35 36  1  0
 36 41  2  0
 36 37  1  0
 37 38  2  0
 38 39  1  0
 39 43  1  0
 40 39  2  0
 41 40  1  0
 42 41  1  0
 44 45  1  0
 45 48  1  0
 45 47  1  0
 46 44  2  0
 49 24  1  0
 49 50  1  0
 51 49  1  0
 52 53  1  0
 54 65  2  0
 55 53  1  0
 55 60  1  0
 56 64  1  0
 56 66  1  0
 57 63  1  0
 57 59  1  0
 58 64  1  0
 59 58  1  0
 60 59  2  0
 61 62  1  0
 61 55  2  0
 62 57  2  0
 63 56  1  0
 64 54  1  0
 66 68  2  0
 67 66  1  0
 69 67  1  0
 70 79  2  0
 70 75  1  0
 71 67  1  0
 71 75  1  0
 72 71  1  0
 73 74  1  0
 73 72  1  0
 74 70  1  0
 75 76  2  0
 76 77  1  0
 78 77  2  0
 79 78  1  0
 80 54  1  0
 80 81  1  0
 80 90  1  0
 81 84  1  0
 82 86  1  0
 82 81  1  0
 83 82  2  0
 86 85  1  0
 88 86  1  0
 88 89  1  0
 88 87  1  0
 90 93  1  1
 90 91  1  0
 92 90  1  0
M  ISO  4  14 100  22 100  52 101  53 101
M  END
>  <TORSDO>  (54) 
F 18

>  <SCORE>  (54) 
-14.550

>  <name>  (54) 
53

>  <ligand_id>  (54) 
53

>  <original_smiles>  (54) 
[H]c1c([H])c([H])c2c(c1[H])C([H])([H])C([H])([H])C([H])([H])C2([H])N([H])C(=O)C1([H])N(C(=O)C([H])(N([H])C(=O)C([H])(N([H])C([H])([H])[H])C([H])([H])[H])C(C([H])([H])[H])(C([H])([H])[H])C([H])([H])[H])C([H])([H])c2c([H])c(OC([H])([H])C3([H])C(=O)N(c4c([H])c([H])c(N([H])C(=O)N5C([H])([H])C([H])([H])C([H])([H])C([H])(n6nc(-c7c([H])c([H])c(Oc8c([H])c([H])c(F)c([H])c8F)c([H])c7[H])c(C(=O)N([H])[H])c6N([H])[H])C5([H])[H])c(F)c4[H])C([H])([H])C3([H])[H])c([H])c([H])c2C1([H])[H]

>  <smiles>  (54) 
[H]c1c([H])c([H])c2c(c1[H])C([H])([H])C([H])([H])C([H])([H])C2([H])N([H])C(=O)C1([H])N(C(=O)C([H])(N([H])C(=O)C([H])(N([H])C([H])([H])[H])C([H])([H])[H])C(C([H])([H])[H])(C([H])([H])[H])C([H])([H])[H])C([H])([H])c2c([H])c(OC([H])([H])C3([H])C(=O)N(c4c([H])c([H])c(N([H])C(=O)N5C([H])([H])C([H])([H])C([H])([H])C([H])(n6nc(-c7c([H])c([H])c(Oc8c([H])c([H])c(F)c([H])c8F)c([H])c7[H])c(C(=O)N([H])[H])c6N([H])[H])C5([H])[H])c(F)c4[H])C([H])([H])C3([H])[H])c([H])c([H])c2C1([H])[H]

$$$$
54:0:0
     RDKit          3D

 93102  0  0  1  0  0  0  0  0999 V2000
  -28.1020  -23.0540   20.0140 C   0  0  0  0  0  2  0  0  0  0  0  0
  -30.0440  -23.3160   19.4380 C   0  0  0  0  0  2  0  0  0  0  0  0
  -29.0290  -24.2830   20.0670 C   0  0  0  0  0  3  0  0  0  0  0  0
  -29.2900  -22.1780   19.9860 N   0  0  2  0  0  4  0  0  0  0  0  0
  -29.6040  -21.9570   20.9170 H   0  0  0  0  0  0  0  0  0  0  0  0
  -29.2180  -20.9620   19.1180 C   0  0  0  0  0  2  0  0  0  0  0  0
  -30.8380  -19.0510   19.7350 C   0  0  0  0  0  3  0  0  0  0  0  0
  -31.0820  -17.7080   20.1210 C   0  0  0  0  0  3  0  0  0  0  0  0
  -28.4850  -18.7820   20.2650 C   0  0  0  0  0  3  0  0  0  0  0  0
  -29.5300  -19.5970   19.7680 C   0  0  0  0  0  0  0  0  0  0  0  0
  -30.0170  -16.8760   20.5420 C   0  0  0  0  0  0  0  0  0  0  0  0
  -28.7280  -17.4440   20.6500 C   0  0  0  0  0  0  0  0  0  0  0  0
  -27.7040  -16.6750   21.0840 F   0  0  0  0  0  0  0  0  0  0  0  0
  -30.8080  -14.5300   20.1780 C   0  0  0  0  0  0  0  0  0  0  0  0
  -30.4790  -12.3950   18.9810 C   0  0  0  0  0  2  0  0  0  0  0  0
  -29.4790  -12.6340   17.8310 C   0  0  0  0  0  2  0  0  0  0  0  0
  -28.0270  -12.4820   18.3260 C   0  0  0  0  0  2  0  0  0  0  0  0
  -27.7500  -13.2790   19.6270 C   0  0  0  0  0  3  0  0  0  0  0  0
  -28.8540  -13.0120   20.6770 C   0  0  0  0  0  2  0  0  0  0  0  0
  -30.1550  -13.3390   20.0640 N   0  0  0  0  0  0  0  0  0  0  0  0
  -31.8940  -14.7440   19.6320 O   0  0  0  0  0  0  0  0  0  0  0  0
  -30.1380  -15.4820   20.8600 N   0  0  0  0  0  0  0  0  0  0  0  0
  -29.3340  -15.1240   21.3510 H   0  0  0  0  0  0  0  0  0  0  0  0
  -25.3850  -13.8730   20.4530 C   0  0  0  0  0  0  0  0  0  0  0  0
  -24.3310  -13.0950   20.8490 C   0  0  0  0  0  0  0  0  0  0  0  0
  -24.7880  -11.7430   20.7670 C   0  0  0  0  0  0  0  0  0  0  0  0
  -26.4180  -12.9970   20.1580 N   0  0  0  0  0  0  0  0  0  0  0  0
  -26.0630  -11.7100   20.4000 N   0  0  0  0  0  0  0  0  0  0  0  0
  -24.0670  -10.4810   20.9640 C   0  0  0  0  0  0  0  0  0  0  0  0
  -24.5090   -9.5150   21.8960 C   0  0  0  0  0  3  0  0  0  0  0  0
  -23.7890   -8.3150   22.0780 C   0  0  0  0  0  3  0  0  0  0  0  0
  -22.6130   -8.0720   21.3280 C   0  0  0  0  0  0  0  0  0  0  0  0
  -22.1910   -9.0260   20.3870 C   0  0  0  0  0  3  0  0  0  0  0  0
  -22.9120  -10.2180   20.2020 C   0  0  0  0  0  3  0  0  0  0  0  0
  -21.8650   -6.9220   21.4180 O   0  0  0  0  0  0  0  0  0  0  0  0
  -21.7800   -6.2090   22.5870 C   0  0  0  0  0  0  0  0  0  0  0  0
  -21.2890   -6.7850   23.7780 C   0  0  0  0  0  3  0  0  0  0  0  0
  -21.1530   -5.9980   24.9380 C   0  0  0  0  0  3  0  0  0  0  0  0
  -21.4970   -4.6340   24.9080 C   0  0  0  0  0  0  0  0  0  0  0  0
  -21.9820   -4.0550   23.7210 C   0  0  0  0  0  3  0  0  0  0  0  0
  -22.1190   -4.8410   22.5640 C   0  0  0  0  0  0  0  0  0  0  0  0
  -22.5670   -4.2750   21.4160 F   0  0  0  0  0  0  0  0  0  0  0  0
  -21.3590   -3.8740   26.0200 F   0  0  0  0  0  0  0  0  0  0  0  0
  -22.9520  -13.5710   21.2020 C   0  0  0  0  0  0  0  0  0  0  0  0
  -22.2650  -12.8560   22.0860 N   0  0  0  0  0  0  0  0  0  0  0  0
  -22.4940  -14.6120   20.7330 O   0  0  0  0  0  0  0  0  0  0  0  0
  -22.6480  -12.0150   22.4910 H   0  0  0  0  0  0  0  0  0  0  0  0
  -21.3410  -13.1570   22.3640 H   0  0  0  0  0  0  0  0  0  0  0  0
  -25.5410  -15.2460   20.3070 N   0  0  0  0  0  0  0  0  0  0  0  0
  -24.7970  -15.8930   20.5410 H   0  0  0  0  0  0  0  0  0  0  0  0
  -26.4350  -15.7050   20.1870 H   0  0  0  0  0  0  0  0  0  0  0  0
  -28.6950  -25.6090   19.3330 C   0  0  0  0  0  2  0  0  0  0  0  0
  -28.4160  -26.7200   20.2100 O   0  0  0  0  0  0  0  0  0  0  0  0
  -24.5590  -31.8940   23.2180 C   0  0  0  0  0  0  0  0  0  0  0  0
  -27.2170  -27.4170   20.1650 C   0  0  0  0  0  0  0  0  0  0  0  0
  -23.3540  -30.4730   21.5910 C   0  0  0  0  0  3  0  0  0  0  0  0
  -24.8090  -28.9250   20.1770 C   0  0  0  0  0  0  0  0  0  0  0  0
  -25.8800  -30.8350   21.3840 C   0  0  0  0  0  2  0  0  0  0  0  0
  -25.9670  -29.4570   20.7550 C   0  0  0  0  0  0  0  0  0  0  0  0
  -27.1680  -28.7080   20.7480 C   0  0  0  0  0  3  0  0  0  0  0  0
  -26.0290  -26.8940   19.6030 C   0  0  0  0  0  3  0  0  0  0  0  0
  -24.8350  -27.6430   19.6030 C   0  0  0  0  0  3  0  0  0  0  0  0
  -23.5610  -29.7790   20.2190 C   0  0  0  0  0  2  0  0  0  0  0  0
  -24.6160  -31.0830   22.1220 N   0  0  0  0  0  0  0  0  0  0  0  0
  -23.4780  -32.1690   23.7570 O   0  0  0  0  0  0  0  0  0  0  0  0
  -22.7050  -29.4620   22.5630 C   0  0  0  0  0  0  0  0  0  0  0  0
  -21.3820  -29.2690   22.4350 N   0  0  0  0  0  0  0  0  0  0  0  0
  -23.3910  -28.8500   23.3860 O   0  0  0  0  0  0  0  0  0  0  0  0
  -20.8890  -29.8140   21.7410 H   0  0  0  0  0  0  0  0  0  0  0  0
  -18.0170  -28.0530   22.9330 C   0  0  0  0  0  0  0  0  0  0  0  0
  -20.5700  -28.3340   23.2130 C   0  0  0  0  0  3  0  0  0  0  0  0
  -20.6880  -26.8970   22.6540 C   0  0  0  0  0  2  0  0  0  0  0  0
  -19.5930  -26.5540   21.6380 C   0  0  0  0  0  2  0  0  0  0  0  0
  -18.2070  -26.6970   22.2750 C   0  0  0  0  0  2  0  0  0  0  0  0
  -19.1280  -28.8280   23.3590 C   0  0  0  0  0  0  0  0  0  0  0  0
  -18.8970  -30.0980   23.9330 C   0  0  0  0  0  3  0  0  0  0  0  0
  -17.5890  -30.5920   24.0850 C   0  0  0  0  0  3  0  0  0  0  0  0
  -16.4920  -29.8130   23.6770 C   0  0  0  0  0  3  0  0  0  0  0  0
  -16.7070  -28.5460   23.1060 C   0  0  0  0  0  3  0  0  0  0  0  0
  -25.8440  -32.5350   23.8310 C   0  0  0  0  0  3  0  0  0  0  0  0
  -26.3800  -31.7650   25.0990 C   0  0  1  0  0  0  0  0  0  0  0  0
  -25.2980  -31.5130   26.1760 C   0  0  0  0  0  1  0  0  0  0  0  0
  -26.9730  -30.3950   24.6970 C   0  0  0  0  0  1  0  0  0  0  0  0
  -27.5260  -32.5690   25.7570 C   0  0  0  0  0  1  0  0  0  0  0  0
  -25.5260  -33.9300   24.1670 N   0  0  0  0  0  0  0  0  0  0  0  0
  -25.8520  -34.9870   23.4130 C   0  0  0  0  0  0  0  0  0  0  0  0
  -26.5250  -34.8920   22.3810 O   0  0  0  0  0  0  0  0  0  0  0  0
  -24.9310  -34.0780   24.9690 H   0  0  0  0  0  0  0  0  0  0  0  0
  -24.1220  -36.7770   23.0530 C   0  0  0  0  0  1  0  0  0  0  0  0
  -25.3560  -36.3700   23.8750 C   0  0  0  0  0  3  0  0  0  0  0  0
  -27.4790  -37.2560   24.7360 C   0  0  0  0  0  1  0  0  0  0  0  0
  -26.3860  -37.4280   23.7810 N   0  0  0  0  0  0  0  0  0  0  0  0
  -25.9750  -38.3450   23.9330 H   0  0  0  0  0  0  0  0  0  0  0  0
  1  3  1  0
  2  4  1  0
  2  3  1  0
  3 52  1  0
  4  1  1  0
  4  5  1  1
  6 10  1  0
  6  4  1  0
  7 10  2  0
  7  8  1  0
  8 11  2  0
  9 12  2  0
 10  9  1  0
 11 12  1  0
 11 22  1  0
 12 13  1  0
 14 22  1  0
 15 20  1  0
 16 17  1  0
 16 15  1  0
 18 17  1  0
 18 27  1  0
 18 19  1  0
 20 14  1  0
 20 19  1  0
 21 14  2  0
 22 23  1  0
 24 25  2  0
 25 44  1  0
 26 25  1  0
 26 29  1  0
 27 28  1  0
 27 24  1  0
 28 26  2  0
 29 30  1  0
 30 31  2  0
 32 35  1  0
 32 31  1  0
 33 32  2  0
 34 33  1  0
 34 29  2  0
 35 36  1  0
 36 37  1  0
 37 38  2  0
 39 38  1  0
 39 43  1  0
 40 39  2  0
 41 36  2  0
 41 40  1  0
 42 41  1  0
 44 45  1  0
 45 48  1  0
 45 47  1  0
 46 44  2  0
 49 24  1  0
 49 50  1  0
 51 49  1  0
 52 53  1  0
 54 65  2  0
 55 53  1  0
 55 60  1  0
 56 64  1  0
 56 66  1  0
 57 63  1  0
 57 59  1  0
 58 64  1  0
 59 58  1  0
 60 59  2  0
 61 62  1  0
 61 55  2  0
 62 57  2  0
 63 56  1  0
 64 54  1  0
 66 68  2  0
 67 66  1  0
 69 67  1  0
 70 79  2  0
 70 75  1  0
 71 67  1  0
 71 75  1  0
 72 71  1  0
 73 74  1  0
 73 72  1  0
 74 70  1  0
 75 76  2  0
 76 77  1  0
 78 77  2  0
 79 78  1  0
 80 54  1  0
 80 85  1  0
 80 81  1  0
 81 84  1  1
 81 82  1  0
 83 81  1  0
 85 88  1  0
 86 90  1  0
 86 85  1  0
 87 86  2  0
 90 89  1  0
 92 90  1  0
 92 93  1  0
 92 91  1  0
M  ISO  4  14 100  22 100  52 101  53 101
M  END
>  <TORSDO>  (55) 
F 19

>  <SCORE>  (55) 
-14.089

>  <name>  (55) 
54

>  <ligand_id>  (55) 
54

>  <original_smiles>  (55) 
[H]c1c([H])c([H])c2c(c1[H])C([H])([H])C([H])([H])C([H])([H])C2([H])N([H])C(=O)C1([H])N(C(=O)C([H])(N([H])C(=O)C([H])(N([H])C([H])([H])[H])C([H])([H])[H])C(C([H])([H])[H])(C([H])([H])[H])C([H])([H])[H])C([H])([H])c2c([H])c(OC([H])([H])C3([H])C([H])([H])[N+]([H])(C([H])([H])c4c([H])c([H])c(N([H])C(=O)N5C([H])([H])C([H])([H])C([H])([H])C([H])(n6nc(-c7c([H])c([H])c(Oc8c([H])c([H])c(F)c([H])c8F)c([H])c7[H])c(C(=O)N([H])[H])c6N([H])[H])C5([H])[H])c(F)c4[H])C3([H])[H])c([H])c([H])c2C1([H])[H]

>  <smiles>  (55) 
[H]c1c([H])c([H])c2c(c1[H])C([H])([H])C([H])([H])C([H])([H])C2([H])N([H])C(=O)C1([H])N(C(=O)C([H])(N([H])C(=O)C([H])(N([H])C([H])([H])[H])C([H])([H])[H])C(C([H])([H])[H])(C([H])([H])[H])C([H])([H])[H])C([H])([H])c2c([H])c(OC([H])([H])C3([H])C([H])([H])[N+]([H])(C([H])([H])c4c([H])c([H])c(N([H])C(=O)N5C([H])([H])C([H])([H])C([H])([H])C([H])(n6nc(-c7c([H])c([H])c(Oc8c([H])c([H])c(F)c([H])c8F)c([H])c7[H])c(C(=O)N([H])[H])c6N([H])[H])C5([H])[H])c(F)c4[H])C3([H])[H])c([H])c([H])c2C1([H])[H]

$$$$
55:0:0
     RDKit          3D

 91100  0  0  1  0  0  0  0  0999 V2000
  -28.0750  -19.8620   19.9350 C   0  0  0  0  0  3  0  0  0  0  0  0
  -30.4230  -18.7580   20.8220 C   0  0  0  0  0  3  0  0  0  0  0  0
  -28.9570  -20.9040   20.4090 C   0  0  0  0  0  0  0  0  0  0  0  0
  -29.4920  -17.7480   20.3830 C   0  0  0  0  0  0  0  0  0  0  0  0
  -28.2990  -18.4170   19.9350 C   0  0  0  0  0  0  0  0  0  0  0  0
  -30.1660  -20.2110   20.8420 C   0  0  0  0  0  0  0  0  0  0  0  0
  -27.2890  -17.6260   19.4990 F   0  0  0  0  0  0  0  0  0  0  0  0
  -31.1560  -20.9880   21.3420 F   0  0  0  0  0  0  0  0  0  0  0  0
  -30.4130  -15.0640   20.3250 C   0  0  0  0  0  0  0  0  0  0  0  0
  -30.3610  -12.6950   19.3720 C   0  0  0  0  0  2  0  0  0  0  0  0
  -29.4170  -12.6280   18.1460 C   0  0  0  0  0  2  0  0  0  0  0  0
  -27.9570  -12.4000   18.5830 C   0  0  0  0  0  2  0  0  0  0  0  0
  -27.5450  -13.3170   19.7640 C   0  0  0  0  0  3  0  0  0  0  0  0
  -28.6070  -13.3270   20.8850 C   0  0  0  0  0  2  0  0  0  0  0  0
  -29.8660  -13.7760   20.2750 N   0  0  0  0  0  0  0  0  0  0  0  0
  -31.6190  -15.1660   20.0670 O   0  0  0  0  0  0  0  0  0  0  0  0
  -29.5340  -16.1890   20.4480 N   0  0  0  0  0  0  0  0  0  0  0  0
  -28.5930  -15.8310   20.5070 H   0  0  0  0  0  0  0  0  0  0  0  0
  -25.1670  -13.8860   20.5120 C   0  0  0  0  0  0  0  0  0  0  0  0
  -24.1060  -13.1060   20.8820 C   0  0  0  0  0  0  0  0  0  0  0  0
  -24.5740  -11.7570   20.8450 C   0  0  0  0  0  0  0  0  0  0  0  0
  -26.2110  -13.0110   20.2650 N   0  0  0  0  0  0  0  0  0  0  0  0
  -25.8640  -11.7250   20.5330 N   0  0  0  0  0  0  0  0  0  0  0  0
  -23.8490  -10.4920   21.0310 C   0  0  0  0  0  0  0  0  0  0  0  0
  -24.2760   -9.5270   21.9680 C   0  0  0  0  0  3  0  0  0  0  0  0
  -23.5500   -8.3280   22.1420 C   0  0  0  0  0  3  0  0  0  0  0  0
  -22.3840   -8.0870   21.3780 C   0  0  0  0  0  0  0  0  0  0  0  0
  -21.9770   -9.0420   20.4290 C   0  0  0  0  0  3  0  0  0  0  0  0
  -22.7030  -10.2310   20.2540 C   0  0  0  0  0  3  0  0  0  0  0  0
  -21.6310   -6.9410   21.4600 O   0  0  0  0  0  0  0  0  0  0  0  0
  -21.5600   -6.2090   22.6190 C   0  0  0  0  0  0  0  0  0  0  0  0
  -21.0930   -6.7690   23.8270 C   0  0  0  0  0  3  0  0  0  0  0  0
  -20.9690   -5.9630   24.9760 C   0  0  0  0  0  3  0  0  0  0  0  0
  -21.3030   -4.5970   24.9180 C   0  0  0  0  0  0  0  0  0  0  0  0
  -21.7640   -4.0360   23.7140 C   0  0  0  0  0  3  0  0  0  0  0  0
  -21.8880   -4.8380   22.5660 C   0  0  0  0  0  0  0  0  0  0  0  0
  -22.3120   -4.2880   21.4030 F   0  0  0  0  0  0  0  0  0  0  0  0
  -21.1790   -3.8200   26.0190 F   0  0  0  0  0  0  0  0  0  0  0  0
  -22.7070  -13.5790   21.1550 C   0  0  0  0  0  0  0  0  0  0  0  0
  -21.9820  -12.8810   22.0190 N   0  0  0  0  0  0  0  0  0  0  0  0
  -22.2680  -14.6040   20.6350 O   0  0  0  0  0  0  0  0  0  0  0  0
  -22.3520  -12.0520   22.4610 H   0  0  0  0  0  0  0  0  0  0  0  0
  -21.0430  -13.1800   22.2450 H   0  0  0  0  0  0  0  0  0  0  0  0
  -25.3200  -15.2580   20.3390 N   0  0  0  0  0  0  0  0  0  0  0  0
  -24.5350  -15.8920   20.4510 H   0  0  0  0  0  0  0  0  0  0  0  0
  -26.1340  -15.7200   19.9530 H   0  0  0  0  0  0  0  0  0  0  0  0
  -29.2850  -23.6200   21.0590 C   0  0  0  0  0  2  0  0  0  0  0  0
  -27.8600  -23.3660   19.5840 C   0  0  0  0  0  2  0  0  0  0  0  0
  -28.0860  -24.6030   20.5990 C   0  0  0  0  0  3  0  0  0  0  0  0
  -28.5690  -22.4220   20.5170 N   0  0  0  0  0  0  0  0  0  0  0  0
  -28.2740  -26.1520   20.3160 O   0  0  0  0  0  0  0  0  0  0  0  0
  -24.6230  -31.9170   23.2410 C   0  0  0  0  0  0  0  0  0  0  0  0
  -27.2060  -27.1340   20.2830 C   0  0  0  0  0  0  0  0  0  0  0  0
  -23.4310  -30.5080   21.6070 C   0  0  0  0  0  3  0  0  0  0  0  0
  -24.8830  -28.9040   20.2130 C   0  0  0  0  0  0  0  0  0  0  0  0
  -25.9880  -30.7570   21.4570 C   0  0  0  0  0  2  0  0  0  0  0  0
  -26.0620  -29.3530   20.8210 C   0  0  0  0  0  0  0  0  0  0  0  0
  -27.2260  -28.4870   20.8290 C   0  0  0  0  0  3  0  0  0  0  0  0
  -25.9970  -26.7860   19.6470 C   0  0  0  0  0  3  0  0  0  0  0  0
  -24.8660  -27.6350   19.6080 C   0  0  0  0  0  3  0  0  0  0  0  0
  -23.6600  -29.8110   20.2390 C   0  0  0  0  0  2  0  0  0  0  0  0
  -24.7000  -31.0840   22.1570 N   0  0  0  0  0  0  0  0  0  0  0  0
  -23.5340  -32.2100   23.7590 O   0  0  0  0  0  0  0  0  0  0  0  0
  -22.7390  -29.5160   22.5780 C   0  0  0  0  0  0  0  0  0  0  0  0
  -21.4100  -29.3530   22.4460 N   0  0  0  0  0  0  0  0  0  0  0  0
  -23.4020  -28.8950   23.4110 O   0  0  0  0  0  0  0  0  0  0  0  0
  -20.9310  -29.9060   21.7490 H   0  0  0  0  0  0  0  0  0  0  0  0
  -18.0180  -28.1850   22.9570 C   0  0  0  0  0  0  0  0  0  0  0  0
  -20.5790  -28.4270   23.2220 C   0  0  0  0  0  3  0  0  0  0  0  0
  -20.6690  -26.9920   22.6530 C   0  0  0  0  0  2  0  0  0  0  0  0
  -19.5630  -26.6740   21.6400 C   0  0  0  0  0  2  0  0  0  0  0  0
  -18.1840  -26.8330   22.2840 C   0  0  0  0  0  2  0  0  0  0  0  0
  -19.1430  -28.9400   23.3820 C   0  0  0  0  0  0  0  0  0  0  0  0
  -18.9330  -30.2050   23.9730 C   0  0  0  0  0  3  0  0  0  0  0  0
  -17.6320  -30.7140   24.1410 C   0  0  0  0  0  3  0  0  0  0  0  0
  -16.5220  -29.9570   23.7300 C   0  0  0  0  0  3  0  0  0  0  0  0
  -16.7150  -28.6930   23.1430 C   0  0  0  0  0  3  0  0  0  0  0  0
  -25.8980  -32.5560   23.8730 C   0  0  0  0  0  3  0  0  0  0  0  0
  -26.3990  -31.7940   25.1620 C   0  0  1  0  0  0  0  0  0  0  0  0
  -25.2950  -31.5680   26.2210 C   0  0  0  0  0  1  0  0  0  0  0  0
  -26.9840  -30.4130   24.7910 C   0  0  0  0  0  1  0  0  0  0  0  0
  -27.5450  -32.5930   25.8280 C   0  0  0  0  0  1  0  0  0  0  0  0
  -25.5830  -33.9570   24.1990 N   0  0  0  0  0  0  0  0  0  0  0  0
  -25.9090  -35.0110   23.4380 C   0  0  0  0  0  0  0  0  0  0  0  0
  -26.5720  -34.9070   22.4030 O   0  0  0  0  0  0  0  0  0  0  0  0
  -24.9930  -34.1110   25.0030 H   0  0  0  0  0  0  0  0  0  0  0  0
  -24.1730  -36.8040   23.1060 C   0  0  0  0  0  1  0  0  0  0  0  0
  -25.4270  -36.4020   23.9000 C   0  0  0  0  0  3  0  0  0  0  0  0
  -27.5690  -37.2990   24.6990 C   0  0  0  0  0  1  0  0  0  0  0  0
  -26.4560  -37.4560   23.7680 N   0  0  0  0  0  0  0  0  0  0  0  0
  -26.0500  -38.3770   23.9120 H   0  0  0  0  0  0  0  0  0  0  0  0
  1  5  2  0
  1  3  1  0
  2  6  1  0
  3 50  1  0
  3  6  2  0
  4 17  1  0
  4  2  2  0
  5  4  1  0
  6  8  1  0
  7  5  1  0
  9 17  1  0
 10 15  1  0
 11 12  1  0
 11 10  1  0
 13 12  1  0
 13 22  1  0
 13 14  1  0
 15  9  1  0
 15 14  1  0
 16  9  2  0
 17 18  1  0
 19 20  2  0
 20 39  1  0
 21 20  1  0
 21 24  1  0
 22 19  1  0
 22 23  1  0
 23 21  2  0
 24 25  1  0
 25 26  2  0
 27 30  1  0
 27 26  1  0
 28 27  2  0
 29 28  1  0
 29 24  2  0
 30 31  1  0
 31 32  1  0
 32 33  2  0
 34 33  1  0
 34 38  1  0
 35 34  2  0
 36 31  2  0
 36 35  1  0
 37 36  1  0
 39 40  1  0
 40 43  1  0
 40 42  1  0
 41 39  2  0
 44 45  1  0
 44 19  1  0
 46 44  1  0
 48 50  1  0
 48 49  1  0
 49 51  1  0
 49 47  1  0
 50 47  1  0
 52 63  2  0
 53 51  1  0
 53 58  1  0
 54 62  1  0
 54 64  1  0
 55 61  1  0
 55 57  1  0
 56 62  1  0
 57 58  2  0
 57 56  1  0
 59 53  2  0
 60 59  1  0
 60 55  2  0
 61 54  1  0
 62 52  1  0
 64 66  2  0
 65 64  1  0
 67 65  1  0
 68 77  2  0
 68 73  1  0
 69 65  1  0
 69 73  1  0
 70 69  1  0
 71 72  1  0
 71 70  1  0
 72 68  1  0
 73 74  2  0
 74 75  1  0
 76 75  2  0
 77 76  1  0
 78 52  1  0
 78 83  1  0
 78 79  1  0
 79 82  1  1
 79 80  1  0
 81 79  1  0
 83 86  1  0
 84 88  1  0
 84 83  1  0
 85 84  2  0
 88 87  1  0
 90 88  1  0
 90 91  1  0
 90 89  1  0
M  ISO  4   9 100  17 100  49 101  51 101
M  END
>  <TORSDO>  (56) 
F 17

>  <SCORE>  (56) 
-15.425

>  <name>  (56) 
55

>  <ligand_id>  (56) 
55

>  <original_smiles>  (56) 
[H]c1c([H])c([H])c2c(c1[H])C([H])([H])C([H])([H])C([H])([H])C2([H])N([H])C(=O)C1([H])N(C(=O)C([H])(N([H])C(=O)C([H])(N([H])C([H])([H])[H])C([H])([H])[H])C(C([H])([H])[H])(C([H])([H])[H])C([H])([H])[H])C([H])([H])c2c([H])c(OC3([H])C([H])([H])N(c4c([H])c(F)c(N([H])C(=O)N5C([H])([H])C([H])([H])C([H])([H])C([H])(n6nc(-c7c([H])c([H])c(Oc8c([H])c([H])c(F)c([H])c8F)c([H])c7[H])c(C(=O)N([H])[H])c6N([H])[H])C5([H])[H])c([H])c4F)C3([H])[H])c([H])c([H])c2C1([H])[H]

>  <smiles>  (56) 
[H]c1c([H])c([H])c2c(c1[H])C([H])([H])C([H])([H])C([H])([H])C2([H])N([H])C(=O)C1([H])N(C(=O)C([H])(N([H])C(=O)C([H])(N([H])C([H])([H])[H])C([H])([H])[H])C(C([H])([H])[H])(C([H])([H])[H])C([H])([H])[H])C([H])([H])c2c([H])c(OC3([H])C([H])([H])N(c4c([H])c(F)c(N([H])C(=O)N5C([H])([H])C([H])([H])C([H])([H])C([H])(n6nc(-c7c([H])c([H])c(Oc8c([H])c([H])c(F)c([H])c8F)c([H])c7[H])c(C(=O)N([H])[H])c6N([H])[H])C5([H])[H])c([H])c4F)C3([H])[H])c([H])c([H])c2C1([H])[H]

$$$$
56:0:0
     RDKit          3D

 94103  0  0  1  0  0  0  0  0999 V2000
  -29.3320  -22.7800   19.9010 C   0  0  0  0  0  0  0  0  0  0  0  0
  -27.3140  -22.8720   21.9770 C   0  0  0  0  0  2  0  0  0  0  0  0
  -27.3950  -24.0820   21.0500 C   0  0  0  0  0  2  0  0  0  0  0  0
  -27.5850  -21.5860   21.1860 C   0  0  0  0  0  2  0  0  0  0  0  0
  -28.7890  -24.1970   20.4150 C   0  0  0  0  0  3  0  0  0  0  0  0
  -28.8390  -21.5900   20.4130 N   0  0  0  0  0  0  0  0  0  0  0  0
  -30.2420  -22.7770   19.0650 O   0  0  0  0  0  0  0  0  0  0  0  0
  -28.8490  -19.3400   19.2580 C   0  0  0  0  0  3  0  0  0  0  0  0
  -29.1470  -17.9410   19.2750 C   0  0  0  0  0  3  0  0  0  0  0  0
  -30.6050  -18.2750   21.1590 C   0  0  0  0  0  3  0  0  0  0  0  0
  -29.3950  -20.2420   20.2130 C   0  0  0  0  0  0  0  0  0  0  0  0
  -30.0120  -17.3650   20.2440 C   0  0  0  0  0  0  0  0  0  0  0  0
  -30.3080  -19.6740   21.1480 C   0  0  0  0  0  0  0  0  0  0  0  0
  -30.9980  -20.6680   22.3830 Cl  0  0  0  0  0  0  0  0  0  0  0  0
  -30.8390  -14.9110   19.9950 C   0  0  0  0  0  0  0  0  0  0  0  0
  -30.6350  -12.6440   18.9850 C   0  0  0  0  0  2  0  0  0  0  0  0
  -29.6290  -12.7350   17.8140 C   0  0  0  0  0  2  0  0  0  0  0  0
  -28.1790  -12.5700   18.3130 C   0  0  0  0  0  2  0  0  0  0  0  0
  -27.8710  -13.4520   19.5510 C   0  0  0  0  0  3  0  0  0  0  0  0
  -28.9800  -13.3140   20.6180 C   0  0  0  0  0  2  0  0  0  0  0  0
  -30.2590  -13.6670   19.9800 N   0  0  0  0  0  0  0  0  0  0  0  0
  -31.9560  -15.1090   19.5090 O   0  0  0  0  0  0  0  0  0  0  0  0
  -30.0460  -15.9200   20.4770 N   0  0  0  0  0  0  0  0  0  0  0  0
  -29.2070  -15.5590   20.9060 H   0  0  0  0  0  0  0  0  0  0  0  0
  -25.5280  -14.0590   20.4180 C   0  0  0  0  0  0  0  0  0  0  0  0
  -24.4730  -13.2890   20.8250 C   0  0  0  0  0  0  0  0  0  0  0  0
  -24.9140  -11.9340   20.7270 C   0  0  0  0  0  0  0  0  0  0  0  0
  -26.5460  -13.1740   20.0990 N   0  0  0  0  0  0  0  0  0  0  0  0
  -26.1840  -11.8890   20.3430 N   0  0  0  0  0  0  0  0  0  0  0  0
  -24.1830  -10.6750   20.9210 C   0  0  0  0  0  0  0  0  0  0  0  0
  -24.6010   -9.7160   21.8710 C   0  0  0  0  0  3  0  0  0  0  0  0
  -23.8700   -8.5230   22.0520 C   0  0  0  0  0  3  0  0  0  0  0  0
  -22.7080   -8.2780   21.2830 C   0  0  0  0  0  0  0  0  0  0  0  0
  -22.3090   -9.2250   20.3240 C   0  0  0  0  0  3  0  0  0  0  0  0
  -23.0400  -10.4110   20.1410 C   0  0  0  0  0  3  0  0  0  0  0  0
  -21.9510   -7.1340   21.3720 O   0  0  0  0  0  0  0  0  0  0  0  0
  -21.8150   -6.4520   22.5530 C   0  0  0  0  0  0  0  0  0  0  0  0
  -21.2430   -7.0510   23.6980 C   0  0  0  0  0  3  0  0  0  0  0  0
  -21.0570   -6.2930   24.8700 C   0  0  0  0  0  3  0  0  0  0  0  0
  -21.4320   -4.9360   24.9000 C   0  0  0  0  0  0  0  0  0  0  0  0
  -21.9950   -4.3360   23.7600 C   0  0  0  0  0  3  0  0  0  0  0  0
  -22.1830   -5.0930   22.5890 C   0  0  0  0  0  0  0  0  0  0  0  0
  -22.7070   -4.5040   21.4870 F   0  0  0  0  0  0  0  0  0  0  0  0
  -21.2470   -4.2050   26.0240 F   0  0  0  0  0  0  0  0  0  0  0  0
  -23.1010  -13.7750   21.1910 C   0  0  0  0  0  0  0  0  0  0  0  0
  -22.4160  -13.0660   22.0810 N   0  0  0  0  0  0  0  0  0  0  0  0
  -22.6460  -14.8190   20.7250 O   0  0  0  0  0  0  0  0  0  0  0  0
  -22.7980  -12.2210   22.4810 H   0  0  0  0  0  0  0  0  0  0  0  0
  -21.4990  -13.3730   22.3700 H   0  0  0  0  0  0  0  0  0  0  0  0
  -25.7020  -15.4330   20.2730 N   0  0  0  0  0  0  0  0  0  0  0  0
  -24.9520  -16.0920   20.4520 H   0  0  0  0  0  0  0  0  0  0  0  0
  -26.5340  -15.8740   19.9040 H   0  0  0  0  0  0  0  0  0  0  0  0
  -28.8530  -25.4560   19.4340 C   0  0  0  0  0  2  0  0  0  0  0  0
  -28.6790  -26.8230   19.9870 O   0  0  0  0  0  0  0  0  0  0  0  0
  -24.5860  -31.8250   23.1570 C   0  0  0  0  0  0  0  0  0  0  0  0
  -27.4780  -27.5460   19.9500 C   0  0  0  0  0  0  0  0  0  0  0  0
  -23.4740  -30.4280   21.4510 C   0  0  0  0  0  3  0  0  0  0  0  0
  -25.0180  -29.0110   19.9850 C   0  0  0  0  0  0  0  0  0  0  0  0
  -25.9920  -30.8930   21.3070 C   0  0  0  0  0  2  0  0  0  0  0  0
  -26.1510  -29.5470   20.6090 C   0  0  0  0  0  0  0  0  0  0  0  0
  -27.3790  -28.8250   20.5830 C   0  0  0  0  0  3  0  0  0  0  0  0
  -26.3130  -27.0500   19.3220 C   0  0  0  0  0  3  0  0  0  0  0  0
  -25.1000  -27.7690   19.3370 C   0  0  0  0  0  3  0  0  0  0  0  0
  -23.7370  -29.8180   20.0490 C   0  0  0  0  0  2  0  0  0  0  0  0
  -24.7010  -31.0650   22.0300 N   0  0  0  0  0  0  0  0  0  0  0  0
  -23.4830  -32.0220   23.6920 O   0  0  0  0  0  0  0  0  0  0  0  0
  -22.8600  -29.3400   22.3650 C   0  0  0  0  0  0  0  0  0  0  0  0
  -21.5460  -29.0990   22.2180 N   0  0  0  0  0  0  0  0  0  0  0  0
  -23.5660  -28.7170   23.1620 O   0  0  0  0  0  0  0  0  0  0  0  0
  -21.0340  -29.6560   21.5480 H   0  0  0  0  0  0  0  0  0  0  0  0
  -18.2290  -27.7270   22.6550 C   0  0  0  0  0  0  0  0  0  0  0  0
  -20.7730  -28.0910   22.9440 C   0  0  0  0  0  3  0  0  0  0  0  0
  -20.9400  -26.6940   22.3050 C   0  0  0  0  0  2  0  0  0  0  0  0
  -19.8560  -26.3670   21.2730 C   0  0  0  0  0  2  0  0  0  0  0  0
  -18.4690  -26.4190   21.9190 C   0  0  0  0  0  2  0  0  0  0  0  0
  -19.3110  -28.5200   23.1210 C   0  0  0  0  0  0  0  0  0  0  0  0
  -19.0340  -29.7430   23.7690 C   0  0  0  0  0  3  0  0  0  0  0  0
  -17.7070  -30.1750   23.9550 C   0  0  0  0  0  3  0  0  0  0  0  0
  -16.6400  -29.3790   23.5040 C   0  0  0  0  0  3  0  0  0  0  0  0
  -16.9020  -28.1570   22.8600 C   0  0  0  0  0  3  0  0  0  0  0  0
  -25.8270  -32.5010   23.8180 C   0  0  0  0  0  3  0  0  0  0  0  0
  -25.4560  -33.8840   24.1500 N   0  0  0  0  0  0  0  0  0  0  0  0
  -25.7550  -34.9540   23.4000 C   0  0  0  0  0  0  0  0  0  0  0  0
  -26.4410  -34.8840   22.3780 O   0  0  0  0  0  0  0  0  0  0  0  0
  -24.8480  -34.0100   24.9470 H   0  0  0  0  0  0  0  0  0  0  0  0
  -23.9570  -36.6750   23.0310 C   0  0  0  0  0  1  0  0  0  0  0  0
  -25.2030  -36.3190   23.8570 C   0  0  0  0  0  3  0  0  0  0  0  0
  -27.2830  -37.2940   24.7240 C   0  0  0  0  0  1  0  0  0  0  0  0
  -26.1920  -37.4150   23.7600 N   0  0  0  0  0  0  0  0  0  0  0  0
  -25.7450  -38.3170   23.8990 H   0  0  0  0  0  0  0  0  0  0  0  0
  -26.3390  -31.7410   25.1020 C   0  0  1  0  0  0  0  0  0  0  0  0
  -25.2280  -31.4460   26.1370 C   0  0  0  0  0  1  0  0  0  0  0  0
  -26.9910  -30.3920   24.7170 C   0  0  0  0  0  1  0  0  0  0  0  0
  -27.4350  -32.5750   25.8040 C   0  0  0  0  0  1  0  0  0  0  0  0
  1  6  1  0
  1  5  1  0
  3  2  1  0
  4  2  1  0
  5 53  1  0
  5  3  1  0
  6  4  1  0
  7  1  2  0
  8  9  2  0
  8 11  1  0
  9 12  1  0
 11  6  1  0
 11 13  2  0
 12 23  1  0
 12 10  2  0
 13 10  1  0
 13 14  1  0
 15 23  1  0
 16 21  1  0
 17 18  1  0
 17 16  1  0
 19 18  1  0
 19 28  1  0
 19 20  1  0
 21 15  1  0
 21 20  1  0
 22 15  2  0
 23 24  1  0
 25 26  2  0
 26 45  1  0
 27 26  1  0
 27 30  1  0
 28 29  1  0
 28 25  1  0
 29 27  2  0
 30 31  1  0
 31 32  2  0
 33 36  1  0
 33 32  1  0
 34 33  2  0
 35 34  1  0
 35 30  2  0
 36 37  1  0
 37 42  2  0
 37 38  1  0
 38 39  2  0
 39 40  1  0
 40 44  1  0
 41 40  2  0
 42 41  1  0
 43 42  1  0
 45 46  1  0
 46 49  1  0
 46 48  1  0
 47 45  2  0
 50 25  1  0
 50 51  1  0
 52 50  1  0
 53 54  1  0
 55 66  2  0
 56 54  1  0
 56 61  1  0
 57 65  1  0
 57 67  1  0
 58 64  1  0
 58 60  1  0
 59 65  1  0
 60 59  1  0
 61 60  2  0
 62 63  1  0
 62 56  2  0
 63 58  2  0
 64 57  1  0
 65 55  1  0
 67 69  2  0
 68 67  1  0
 70 68  1  0
 71 80  2  0
 71 76  1  0
 72 68  1  0
 72 76  1  0
 73 72  1  0
 74 75  1  0
 74 73  1  0
 75 71  1  0
 76 77  2  0
 77 78  1  0
 79 78  2  0
 80 79  1  0
 81 55  1  0
 81 82  1  0
 81 91  1  0
 82 85  1  0
 83 87  1  0
 83 82  1  0
 84 83  2  0
 87 86  1  0
 89 87  1  0
 89 90  1  0
 89 88  1  0
 91 94  1  1
 91 92  1  0
 93 91  1  0
M  ISO  4  15 100  23 100  53 101  54 101
M  END
>  <TORSDO>  (57) 
F 18

>  <SCORE>  (57) 
-14.085

>  <name>  (57) 
56

>  <ligand_id>  (57) 
56

>  <original_smiles>  (57) 
[H]c1c([H])c([H])c2c(c1[H])C([H])([H])C([H])([H])C([H])([H])C2([H])N([H])C(=O)C1([H])N(C(=O)C([H])(N([H])C(=O)C([H])(N([H])C([H])([H])[H])C([H])([H])[H])C(C([H])([H])[H])(C([H])([H])[H])C([H])([H])[H])C([H])([H])c2c([H])c(OC([H])([H])C3([H])C(=O)N(c4c([H])c([H])c(N([H])C(=O)N5C([H])([H])C([H])([H])C([H])([H])C([H])(n6nc(-c7c([H])c([H])c(Oc8c([H])c([H])c(F)c([H])c8F)c([H])c7[H])c(C(=O)N([H])[H])c6N([H])[H])C5([H])[H])c([H])c4Cl)C([H])([H])C([H])([H])C3([H])[H])c([H])c([H])c2C1([H])[H]

>  <smiles>  (57) 
[H]c1c([H])c([H])c2c(c1[H])C([H])([H])C([H])([H])C([H])([H])C2([H])N([H])C(=O)C1([H])N(C(=O)C([H])(N([H])C(=O)C([H])(N([H])C([H])([H])[H])C([H])([H])[H])C(C([H])([H])[H])(C([H])([H])[H])C([H])([H])[H])C([H])([H])c2c([H])c(OC([H])([H])C3([H])C(=O)N(c4c([H])c([H])c(N([H])C(=O)N5C([H])([H])C([H])([H])C([H])([H])C([H])(n6nc(-c7c([H])c([H])c(Oc8c([H])c([H])c(F)c([H])c8F)c([H])c7[H])c(C(=O)N([H])[H])c6N([H])[H])C5([H])[H])c([H])c4Cl)C([H])([H])C([H])([H])C3([H])[H])c([H])c([H])c2C1([H])[H]

$$$$
57:0:0
     RDKit          3D

 92100  0  0  1  0  0  0  0  0999 V2000
  -30.8070  -21.9950   19.5030 C   0  0  0  0  0  1  0  0  0  0  0  0
  -30.1750  -22.1690   20.8340 N   0  0  1  0  0  4  0  0  0  0  0  0
  -29.1860  -22.0150   20.7030 H   0  0  0  0  0  0  0  0  0  0  0  0
  -30.6310  -21.1460   21.8250 C   0  0  0  0  0  2  0  0  0  0  0  0
  -29.3120  -19.0150   21.2910 C   0  0  0  0  0  3  0  0  0  0  0  0
  -31.7390  -18.8970   21.2870 C   0  0  0  0  0  3  0  0  0  0  0  0
  -29.2520  -17.6200   21.0820 C   0  0  0  0  0  3  0  0  0  0  0  0
  -31.6790  -17.5000   21.0720 C   0  0  0  0  0  3  0  0  0  0  0  0
  -30.5580  -19.6670   21.4180 C   0  0  0  0  0  0  0  0  0  0  0  0
  -30.4290  -16.8430   20.9810 C   0  0  0  0  0  0  0  0  0  0  0  0
  -30.9880  -14.5010   20.1870 C   0  0  0  0  0  0  0  0  0  0  0  0
  -30.6590  -12.3930   18.9330 C   0  0  0  0  0  2  0  0  0  0  0  0
  -29.6760  -12.6540   17.7700 C   0  0  0  0  0  2  0  0  0  0  0  0
  -28.2100  -12.5330   18.2380 C   0  0  0  0  0  2  0  0  0  0  0  0
  -27.9320  -13.3180   19.5470 C   0  0  0  0  0  3  0  0  0  0  0  0
  -29.0100  -12.9970   20.6050 C   0  0  0  0  0  2  0  0  0  0  0  0
  -30.3250  -13.3230   20.0220 N   0  0  0  0  0  0  0  0  0  0  0  0
  -32.0890  -14.7250   19.6720 O   0  0  0  0  0  0  0  0  0  0  0  0
  -30.2740  -15.4280   20.8600 N   0  0  0  0  0  0  0  0  0  0  0  0
  -29.3920  -15.0690   21.1930 H   0  0  0  0  0  0  0  0  0  0  0  0
  -25.5580  -13.9600   20.3110 C   0  0  0  0  0  0  0  0  0  0  0  0
  -24.4890  -13.2010   20.7060 C   0  0  0  0  0  0  0  0  0  0  0  0
  -24.9300  -11.8430   20.6590 C   0  0  0  0  0  0  0  0  0  0  0  0
  -26.5840  -13.0650   20.0530 N   0  0  0  0  0  0  0  0  0  0  0  0
  -26.2110  -11.7860   20.3170 N   0  0  0  0  0  0  0  0  0  0  0  0
  -24.1930  -10.5900   20.8620 C   0  0  0  0  0  0  0  0  0  0  0  0
  -24.5930   -9.6500   21.8390 C   0  0  0  0  0  3  0  0  0  0  0  0
  -23.8580   -8.4590   22.0270 C   0  0  0  0  0  3  0  0  0  0  0  0
  -22.7120   -8.2010   21.2390 C   0  0  0  0  0  0  0  0  0  0  0  0
  -22.3320   -9.1300   20.2550 C   0  0  0  0  0  3  0  0  0  0  0  0
  -23.0660  -10.3110   20.0640 C   0  0  0  0  0  3  0  0  0  0  0  0
  -21.9520   -7.0600   21.3360 O   0  0  0  0  0  0  0  0  0  0  0  0
  -21.7950   -6.3980   22.5270 C   0  0  0  0  0  0  0  0  0  0  0  0
  -21.2320   -7.0260   23.6590 C   0  0  0  0  0  3  0  0  0  0  0  0
  -21.0250   -6.2890   24.8420 C   0  0  0  0  0  3  0  0  0  0  0  0
  -21.3680   -4.9240   24.8930 C   0  0  0  0  0  0  0  0  0  0  0  0
  -21.9230   -4.2970   23.7640 C   0  0  0  0  0  3  0  0  0  0  0  0
  -22.1330   -5.0310   22.5830 C   0  0  0  0  0  0  0  0  0  0  0  0
  -22.6480   -4.4150   21.4920 F   0  0  0  0  0  0  0  0  0  0  0  0
  -21.1620   -4.2140   26.0260 F   0  0  0  0  0  0  0  0  0  0  0  0
  -23.1050  -13.6940   21.0150 C   0  0  0  0  0  0  0  0  0  0  0  0
  -22.3910  -13.0050   21.8990 N   0  0  0  0  0  0  0  0  0  0  0  0
  -22.6660  -14.7270   20.5090 O   0  0  0  0  0  0  0  0  0  0  0  0
  -22.7600  -12.1710   22.3300 H   0  0  0  0  0  0  0  0  0  0  0  0
  -21.4630  -13.3180   22.1470 H   0  0  0  0  0  0  0  0  0  0  0  0
  -25.7380  -15.3280   20.1310 N   0  0  0  0  0  0  0  0  0  0  0  0
  -24.9790  -15.9920   20.2420 H   0  0  0  0  0  0  0  0  0  0  0  0
  -26.5710  -15.7450   19.7340 H   0  0  0  0  0  0  0  0  0  0  0  0
  -30.3470  -23.5430   21.4160 C   0  0  0  0  0  2  0  0  0  0  0  0
  -30.1170  -24.7950   20.5120 C   0  0  0  0  0  2  0  0  0  0  0  0
  -28.6670  -25.3050   20.3550 C   0  0  0  0  0  2  0  0  0  0  0  0
  -28.6980  -26.7210   20.1100 O   0  0  0  0  0  0  0  0  0  0  0  0
  -24.6970  -31.7540   23.1720 C   0  0  0  0  0  0  0  0  0  0  0  0
  -27.4940  -27.3950   20.1090 C   0  0  0  0  0  0  0  0  0  0  0  0
  -23.5470  -30.3310   21.5080 C   0  0  0  0  0  3  0  0  0  0  0  0
  -25.0570  -28.8340   20.0990 C   0  0  0  0  0  0  0  0  0  0  0  0
  -26.0640  -30.7570   21.3400 C   0  0  0  0  0  2  0  0  0  0  0  0
  -26.1940  -29.3920   20.6960 C   0  0  0  0  0  0  0  0  0  0  0  0
  -27.4170  -28.6810   20.6920 C   0  0  0  0  0  3  0  0  0  0  0  0
  -26.3350  -26.8460   19.5120 C   0  0  0  0  0  3  0  0  0  0  0  0
  -25.1220  -27.5600   19.5060 C   0  0  0  0  0  3  0  0  0  0  0  0
  -23.7920  -29.6620   20.1300 C   0  0  0  0  0  2  0  0  0  0  0  0
  -24.7870  -30.9610   22.0660 N   0  0  0  0  0  0  0  0  0  0  0  0
  -23.6040  -31.9970   23.7010 O   0  0  0  0  0  0  0  0  0  0  0  0
  -22.9090  -29.2890   22.4560 C   0  0  0  0  0  0  0  0  0  0  0  0
  -21.5940  -29.0690   22.3040 N   0  0  0  0  0  0  0  0  0  0  0  0
  -23.5960  -28.6830   23.2820 O   0  0  0  0  0  0  0  0  0  0  0  0
  -21.1010  -29.6120   21.6090 H   0  0  0  0  0  0  0  0  0  0  0  0
  -18.2490  -27.7720   22.7270 C   0  0  0  0  0  0  0  0  0  0  0  0
  -20.7910  -28.1060   23.0560 C   0  0  0  0  0  3  0  0  0  0  0  0
  -20.9490  -26.6790   22.4820 C   0  0  0  0  0  2  0  0  0  0  0  0
  -19.8800  -26.3250   21.4440 C   0  0  0  0  0  2  0  0  0  0  0  0
  -18.4810  -26.4280   22.0570 C   0  0  0  0  0  2  0  0  0  0  0  0
  -19.3340  -28.5660   23.1830 C   0  0  0  0  0  0  0  0  0  0  0  0
  -19.0650  -29.8220   23.7670 C   0  0  0  0  0  3  0  0  0  0  0  0
  -17.7440  -30.2870   23.9020 C   0  0  0  0  0  3  0  0  0  0  0  0
  -16.6720  -29.4890   23.4650 C   0  0  0  0  0  3  0  0  0  0  0  0
  -16.9250  -28.2330   22.8840 C   0  0  0  0  0  3  0  0  0  0  0  0
  -25.9600  -32.4130   23.8100 C   0  0  0  0  0  3  0  0  0  0  0  0
  -25.6100  -33.7970   24.1540 N   0  0  0  0  0  0  0  0  0  0  0  0
  -25.9140  -34.8670   23.4060 C   0  0  0  0  0  0  0  0  0  0  0  0
  -26.5890  -34.7940   22.3770 O   0  0  0  0  0  0  0  0  0  0  0  0
  -25.0050  -33.9250   24.9530 H   0  0  0  0  0  0  0  0  0  0  0  0
  -24.1280  -36.6050   23.0730 C   0  0  0  0  0  1  0  0  0  0  0  0
  -25.3840  -36.2360   23.8760 C   0  0  0  0  0  3  0  0  0  0  0  0
  -27.4910  -37.1840   24.7100 C   0  0  0  0  0  1  0  0  0  0  0  0
  -26.3840  -37.3210   23.7680 N   0  0  0  0  0  0  0  0  0  0  0  0
  -25.9490  -38.2260   23.9230 H   0  0  0  0  0  0  0  0  0  0  0  0
  -26.4900  -31.6390   25.0800 C   0  0  1  0  0  0  0  0  0  0  0  0
  -25.3960  -31.3520   26.1330 C   0  0  0  0  0  1  0  0  0  0  0  0
  -27.1160  -30.2860   24.6670 C   0  0  0  0  0  1  0  0  0  0  0  0
  -27.6090  -32.4580   25.7650 C   0  0  0  0  0  1  0  0  0  0  0  0
  1  2  1  0
  2 49  1  0
  2  4  1  0
  2  3  1  6
  5  9  1  0
  6  9  2  0
  7  5  2  0
  8  6  1  0
  9  4  1  0
 10  8  2  0
 10  7  1  0
 11 19  1  0
 12 17  1  0
 13 14  1  0
 13 12  1  0
 15 14  1  0
 15 24  1  0
 15 16  1  0
 17 11  1  0
 17 16  1  0
 18 11  2  0
 19 10  1  0
 19 20  1  0
 21 22  2  0
 22 41  1  0
 23 22  1  0
 23 26  1  0
 24 21  1  0
 24 25  1  0
 25 23  2  0
 26 27  1  0
 27 28  2  0
 29 32  1  0
 29 28  1  0
 30 29  2  0
 31 30  1  0
 31 26  2  0
 32 33  1  0
 33 38  2  0
 33 34  1  0
 34 35  2  0
 35 36  1  0
 36 40  1  0
 37 36  2  0
 38 37  1  0
 39 38  1  0
 41 42  1  0
 42 45  1  0
 42 44  1  0
 43 41  2  0
 46 47  1  0
 46 21  1  0
 48 46  1  0
 50 49  1  0
 51 50  1  0
 52 51  1  0
 53 64  2  0
 54 52  1  0
 54 59  1  0
 55 63  1  0
 55 65  1  0
 56 62  1  0
 56 58  1  0
 57 63  1  0
 58 57  1  0
 59 58  2  0
 60 54  2  0
 61 60  1  0
 61 56  2  0
 62 55  1  0
 63 53  1  0
 65 67  2  0
 66 65  1  0
 68 66  1  0
 69 78  2  0
 69 74  1  0
 70 66  1  0
 70 74  1  0
 71 70  1  0
 72 73  1  0
 72 71  1  0
 73 69  1  0
 74 75  2  0
 75 76  1  0
 77 76  2  0
 78 77  1  0
 79 53  1  0
 79 80  1  0
 79 89  1  0
 80 83  1  0
 81 85  1  0
 81 80  1  0
 82 81  2  0
 85 84  1  0
 87 85  1  0
 87 88  1  0
 87 86  1  0
 89 92  1  1
 89 90  1  0
 91 89  1  0
M  ISO  4  11 100  19 100  51 101  52 101
M  END
>  <TORSDO>  (58) 
F 21

>  <SCORE>  (58) 
-12.816

>  <name>  (58) 
57

>  <ligand_id>  (58) 
57

>  <original_smiles>  (58) 
[H]c1c([H])c([H])c2c(c1[H])C([H])([H])C([H])([H])C([H])([H])C2([H])N([H])C(=O)C1([H])N(C(=O)C([H])(N([H])C(=O)C([H])(N([H])C([H])([H])[H])C([H])([H])[H])C(C([H])([H])[H])(C([H])([H])[H])C([H])([H])[H])C([H])([H])c2c([H])c(OC([H])([H])C([H])([H])C([H])([H])[N+]([H])(C([H])([H])[H])C([H])([H])c3c([H])c([H])c(N([H])C(=O)N4C([H])([H])C([H])([H])C([H])([H])C([H])(n5nc(-c6c([H])c([H])c(Oc7c([H])c([H])c(F)c([H])c7F)c([H])c6[H])c(C(=O)N([H])[H])c5N([H])[H])C4([H])[H])c([H])c3[H])c([H])c([H])c2C1([H])[H]

>  <smiles>  (58) 
[H]c1c([H])c([H])c2c(c1[H])C([H])([H])C([H])([H])C([H])([H])C2([H])N([H])C(=O)C1([H])N(C(=O)C([H])(N([H])C(=O)C([H])(N([H])C([H])([H])[H])C([H])([H])[H])C(C([H])([H])[H])(C([H])([H])[H])C([H])([H])[H])C([H])([H])c2c([H])c(OC([H])([H])C([H])([H])C([H])([H])[N+]([H])(C([H])([H])[H])C([H])([H])c3c([H])c([H])c(N([H])C(=O)N4C([H])([H])C([H])([H])C([H])([H])C([H])(n5nc(-c6c([H])c([H])c(Oc7c([H])c([H])c(F)c([H])c7F)c([H])c6[H])c(C(=O)N([H])[H])c5N([H])[H])C4([H])[H])c([H])c3[H])c([H])c([H])c2C1([H])[H]

$$$$
58:0:0
     RDKit          3D

 91100  0  0  1  0  0  0  0  0999 V2000
  -30.4280  -23.7960   20.2820 C   0  0  0  0  0  2  0  0  0  0  0  0
  -30.8330  -22.3350   19.9730 C   0  0  0  0  0  2  0  0  0  0  0  0
  -28.4760  -22.4210   20.3650 C   0  0  0  0  0  2  0  0  0  0  0  0
  -28.9270  -23.8850   19.9630 C   0  0  0  0  0  3  0  0  0  0  0  0
  -29.6440  -21.5180   20.2010 N   0  0  0  0  0  0  0  0  0  0  0  0
  -30.8870  -19.3440   19.9990 C   0  0  0  0  0  3  0  0  0  0  0  0
  -28.5890  -19.2900   20.6910 C   0  0  0  0  0  3  0  0  0  0  0  0
  -30.9640  -17.9200   20.0750 C   0  0  0  0  0  3  0  0  0  0  0  0
  -28.6660  -17.8650   20.7740 C   0  0  0  0  0  3  0  0  0  0  0  0
  -29.6990  -20.0790   20.2950 C   0  0  0  0  0  0  0  0  0  0  0  0
  -29.8460  -17.1340   20.4610 C   0  0  0  0  0  0  0  0  0  0  0  0
  -30.6090  -14.6650   20.0700 C   0  0  0  0  0  0  0  0  0  0  0  0
  -30.3600  -12.4660   18.9330 C   0  0  0  0  0  2  0  0  0  0  0  0
  -29.3530  -12.6430   17.7740 C   0  0  0  0  0  2  0  0  0  0  0  0
  -27.9020  -12.4700   18.2690 C   0  0  0  0  0  2  0  0  0  0  0  0
  -27.6120  -13.2830   19.5590 C   0  0  0  0  0  3  0  0  0  0  0  0
  -28.7240  -13.0700   20.6130 C   0  0  0  0  0  2  0  0  0  0  0  0
  -30.0050  -13.4360   19.9870 N   0  0  0  0  0  0  0  0  0  0  0  0
  -31.7360  -14.8590   19.6030 O   0  0  0  0  0  0  0  0  0  0  0  0
  -29.8180  -15.6730   20.5650 N   0  0  0  0  0  0  0  0  0  0  0  0
  -28.9630  -15.3070   20.9520 H   0  0  0  0  0  0  0  0  0  0  0  0
  -25.2510  -13.8670   20.3850 C   0  0  0  0  0  0  0  0  0  0  0  0
  -24.2030  -13.0880   20.7970 C   0  0  0  0  0  0  0  0  0  0  0  0
  -24.6670  -11.7390   20.7330 C   0  0  0  0  0  0  0  0  0  0  0  0
  -26.2860  -12.9910   20.0970 N   0  0  0  0  0  0  0  0  0  0  0  0
  -25.9410  -11.7060   20.3630 N   0  0  0  0  0  0  0  0  0  0  0  0
  -23.9540  -10.4730   20.9450 C   0  0  0  0  0  0  0  0  0  0  0  0
  -24.4160   -9.5120   21.8720 C   0  0  0  0  0  3  0  0  0  0  0  0
  -23.7050   -8.3090   22.0720 C   0  0  0  0  0  3  0  0  0  0  0  0
  -22.5180   -8.0580   21.3440 C   0  0  0  0  0  0  0  0  0  0  0  0
  -22.0740   -9.0070   20.4070 C   0  0  0  0  0  3  0  0  0  0  0  0
  -22.7850  -10.2010   20.2060 C   0  0  0  0  0  3  0  0  0  0  0  0
  -21.7750   -6.9070   21.4550 O   0  0  0  0  0  0  0  0  0  0  0  0
  -21.7350   -6.1850   22.6210 C   0  0  0  0  0  0  0  0  0  0  0  0
  -21.3060   -6.7580   23.8380 C   0  0  0  0  0  3  0  0  0  0  0  0
  -21.2150   -5.9610   24.9970 C   0  0  0  0  0  3  0  0  0  0  0  0
  -21.5420   -4.5930   24.9400 C   0  0  0  0  0  0  0  0  0  0  0  0
  -21.9630   -4.0200   23.7270 C   0  0  0  0  0  3  0  0  0  0  0  0
  -22.0580   -4.8140   22.5710 C   0  0  0  0  0  0  0  0  0  0  0  0
  -22.4440   -4.2520   21.4010 F   0  0  0  0  0  0  0  0  0  0  0  0
  -21.4470   -3.8250   26.0510 F   0  0  0  0  0  0  0  0  0  0  0  0
  -22.8190  -13.5590   21.1400 C   0  0  0  0  0  0  0  0  0  0  0  0
  -22.1340  -12.8530   22.0320 N   0  0  0  0  0  0  0  0  0  0  0  0
  -22.3540  -14.5860   20.6500 O   0  0  0  0  0  0  0  0  0  0  0  0
  -22.5230  -12.0220   22.4520 H   0  0  0  0  0  0  0  0  0  0  0  0
  -21.2080  -13.1510   22.3040 H   0  0  0  0  0  0  0  0  0  0  0  0
  -25.4040  -15.2400   20.2130 N   0  0  0  0  0  0  0  0  0  0  0  0
  -24.6370  -15.8890   20.3500 H   0  0  0  0  0  0  0  0  0  0  0  0
  -26.2240  -15.6750   19.8110 H   0  0  0  0  0  0  0  0  0  0  0  0
  -28.1480  -25.1170   20.6120 C   0  0  0  0  0  2  0  0  0  0  0  0
  -28.3620  -26.5010   20.1260 O   0  0  0  0  0  0  0  0  0  0  0  0
  -24.6250  -31.8720   23.1810 C   0  0  0  0  0  0  0  0  0  0  0  0
  -27.2460  -27.3490   20.1020 C   0  0  0  0  0  0  0  0  0  0  0  0
  -23.4200  -30.4840   21.5310 C   0  0  0  0  0  3  0  0  0  0  0  0
  -24.8770  -28.9430   20.0960 C   0  0  0  0  0  0  0  0  0  0  0  0
  -25.9580  -30.8100   21.3480 C   0  0  0  0  0  2  0  0  0  0  0  0
  -26.0430  -29.4350   20.6950 C   0  0  0  0  0  0  0  0  0  0  0  0
  -27.2330  -28.6500   20.6890 C   0  0  0  0  0  3  0  0  0  0  0  0
  -26.0640  -26.9090   19.4700 C   0  0  0  0  0  3  0  0  0  0  0  0
  -24.8880  -27.6830   19.4720 C   0  0  0  0  0  3  0  0  0  0  0  0
  -23.6360  -29.8120   20.1480 C   0  0  0  0  0  2  0  0  0  0  0  0
  -24.6860  -31.0730   22.0770 N   0  0  0  0  0  0  0  0  0  0  0  0
  -23.5430  -32.1460   23.7190 O   0  0  0  0  0  0  0  0  0  0  0  0
  -22.7600  -29.4610   22.4850 C   0  0  0  0  0  0  0  0  0  0  0  0
  -21.4320  -29.2980   22.3710 N   0  0  0  0  0  0  0  0  0  0  0  0
  -23.4430  -28.8150   23.2860 O   0  0  0  0  0  0  0  0  0  0  0  0
  -20.9430  -29.8640   21.6920 H   0  0  0  0  0  0  0  0  0  0  0  0
  -18.0460  -28.1420   22.9090 C   0  0  0  0  0  0  0  0  0  0  0  0
  -20.6120  -28.3600   23.1390 C   0  0  0  0  0  3  0  0  0  0  0  0
  -20.6830  -26.9380   22.5370 C   0  0  0  0  0  2  0  0  0  0  0  0
  -19.5610  -26.6480   21.5360 C   0  0  0  0  0  2  0  0  0  0  0  0
  -18.1910  -26.8030   22.2050 C   0  0  0  0  0  2  0  0  0  0  0  0
  -19.1830  -28.8800   23.3320 C   0  0  0  0  0  0  0  0  0  0  0  0
  -18.9940  -30.1350   23.9500 C   0  0  0  0  0  3  0  0  0  0  0  0
  -17.7010  -30.6530   24.1450 C   0  0  0  0  0  3  0  0  0  0  0  0
  -16.5780  -29.9140   23.7360 C   0  0  0  0  0  3  0  0  0  0  0  0
  -16.7510  -28.6590   23.1270 C   0  0  0  0  0  3  0  0  0  0  0  0
  -25.9090  -32.5000   23.8050 C   0  0  0  0  0  3  0  0  0  0  0  0
  -25.5970  -33.8940   24.1530 N   0  0  0  0  0  0  0  0  0  0  0  0
  -25.9220  -34.9560   23.4030 C   0  0  0  0  0  0  0  0  0  0  0  0
  -26.5870  -34.8670   22.3680 O   0  0  0  0  0  0  0  0  0  0  0  0
  -25.0070  -34.0360   24.9600 H   0  0  0  0  0  0  0  0  0  0  0  0
  -24.1860  -36.7480   23.0730 C   0  0  0  0  0  1  0  0  0  0  0  0
  -25.4300  -36.3370   23.8770 C   0  0  0  0  0  3  0  0  0  0  0  0
  -27.5670  -37.2190   24.7100 C   0  0  0  0  0  1  0  0  0  0  0  0
  -26.4600  -37.3960   23.7740 N   0  0  0  0  0  0  0  0  0  0  0  0
  -26.0510  -38.3130   23.9350 H   0  0  0  0  0  0  0  0  0  0  0  0
  -26.4320  -31.7150   25.0710 C   0  0  1  0  0  0  0  0  0  0  0  0
  -25.3430  -31.4620   26.1390 C   0  0  0  0  0  1  0  0  0  0  0  0
  -27.0170  -30.3430   24.6640 C   0  0  0  0  0  1  0  0  0  0  0  0
  -27.5860  -32.5030   25.7350 C   0  0  0  0  0  1  0  0  0  0  0  0
  2  5  1  0
  2  1  1  0
  4  1  1  0
  4  3  1  0
  4 50  1  0
  5 10  1  0
  5  3  1  0
  6  8  2  0
  6 10  1  0
  7  9  1  0
  8 11  1  0
 10  7  2  0
 11 20  1  0
 11  9  2  0
 12 20  1  0
 13 18  1  0
 14 15  1  0
 14 13  1  0
 16 15  1  0
 16 25  1  0
 16 17  1  0
 18 12  1  0
 18 17  1  0
 19 12  2  0
 20 21  1  0
 22 23  2  0
 23 42  1  0
 24 23  1  0
 24 27  1  0
 25 26  1  0
 25 22  1  0
 26 24  2  0
 27 28  1  0
 28 29  2  0
 30 33  1  0
 30 29  1  0
 31 30  2  0
 32 31  1  0
 32 27  2  0
 33 34  1  0
 34 35  1  0
 35 36  2  0
 37 36  1  0
 37 41  1  0
 38 37  2  0
 39 34  2  0
 39 38  1  0
 40 39  1  0
 42 43  1  0
 43 46  1  0
 43 45  1  0
 44 42  2  0
 47 48  1  0
 47 22  1  0
 49 47  1  0
 51 50  1  0
 52 63  2  0
 53 51  1  0
 53 58  1  0
 54 62  1  0
 54 64  1  0
 55 61  1  0
 55 57  1  0
 56 62  1  0
 57 56  1  0
 58 57  2  0
 59 60  1  0
 59 53  2  0
 60 55  2  0
 61 54  1  0
 62 52  1  0
 64 66  2  0
 65 64  1  0
 67 65  1  0
 68 77  2  0
 68 73  1  0
 69 65  1  0
 69 73  1  0
 70 69  1  0
 71 72  1  0
 71 70  1  0
 72 68  1  0
 73 74  2  0
 74 75  1  0
 76 75  2  0
 77 76  1  0
 78 52  1  0
 78 79  1  0
 78 88  1  0
 79 82  1  0
 80 84  1  0
 80 79  1  0
 81 80  2  0
 84 83  1  0
 86 84  1  0
 86 87  1  0
 86 85  1  0
 88 91  1  1
 88 89  1  0
 90 88  1  0
M  ISO  4  12 100  20 100  50 101  51 101
M  END
>  <TORSDO>  (59) 
F 18

>  <SCORE>  (59) 
-14.432

>  <name>  (59) 
58

>  <ligand_id>  (59) 
58

>  <original_smiles>  (59) 
[H]c1c([H])c([H])c2c(c1[H])C([H])([H])C([H])([H])C([H])([H])C2([H])N([H])C(=O)C1([H])N(C(=O)C([H])(N([H])C(=O)C([H])(N([H])C([H])([H])[H])C([H])([H])[H])C(C([H])([H])[H])(C([H])([H])[H])C([H])([H])[H])C([H])([H])c2c([H])c(OC([H])([H])C3([H])C([H])([H])N(c4c([H])c([H])c(N([H])C(=O)N5C([H])([H])C([H])([H])C([H])([H])C([H])(n6nc(-c7c([H])c([H])c(Oc8c([H])c([H])c(F)c([H])c8F)c([H])c7[H])c(C(=O)N([H])[H])c6N([H])[H])C5([H])[H])c([H])c4[H])C([H])([H])C3([H])[H])c([H])c([H])c2C1([H])[H]

>  <smiles>  (59) 
[H]c1c([H])c([H])c2c(c1[H])C([H])([H])C([H])([H])C([H])([H])C2([H])N([H])C(=O)C1([H])N(C(=O)C([H])(N([H])C(=O)C([H])(N([H])C([H])([H])[H])C([H])([H])[H])C(C([H])([H])[H])(C([H])([H])[H])C([H])([H])[H])C([H])([H])c2c([H])c(OC([H])([H])C3([H])C([H])([H])N(c4c([H])c([H])c(N([H])C(=O)N5C([H])([H])C([H])([H])C([H])([H])C([H])(n6nc(-c7c([H])c([H])c(Oc8c([H])c([H])c(F)c([H])c8F)c([H])c7[H])c(C(=O)N([H])[H])c6N([H])[H])C5([H])[H])c([H])c4[H])C([H])([H])C3([H])[H])c([H])c([H])c2C1([H])[H]

$$$$
59:0:0
     RDKit          3D

 99105  0  0  1  0  0  0  0  0999 V2000
  -29.6590  -11.9670   18.6620 C   0  0  0  0  0  3  0  0  0  0  0  0
  -30.3610  -10.7480   19.6780 C   0  0  0  0  0  3  0  0  0  0  0  0
  -30.7670  -12.4740   22.2270 C   0  0  0  0  0  2  0  0  0  0  0  0
  -30.2320  -13.8710   21.4200 C   0  0  0  0  0  2  0  0  0  0  0  0
  -29.4380  -13.5850   19.2410 C   0  0  0  0  0  3  0  0  0  0  0  0
  -30.9990  -11.0740   21.2720 C   0  0  0  0  0  3  0  0  0  0  0  0
  -28.9490  -16.6920   18.6230 C   0  0  0  0  0  3  0  0  0  0  0  0
  -30.5050  -15.1830   22.3880 C   0  0  0  0  0  2  0  0  0  0  0  0
  -30.1250  -16.8020   22.2130 C   0  0  0  0  0  2  0  0  0  0  0  0
  -30.1730  -17.8630   20.9450 C   0  0  0  0  0  2  0  0  0  0  0  0
  -28.1420  -14.5430   17.1020 C   0  0  0  0  0  1  0  0  0  0  0  0
  -28.9330  -15.0660   18.2260 N   0  0  1  0  0  4  0  0  0  0  0  0
  -29.3410  -17.9620   19.6120 N   0  0  0  0  0  0  0  0  0  0  0  0
  -28.2920  -17.3060   17.6290 N   0  0  0  0  0  0  0  0  0  0  0  0
  -27.8840  -16.7810   16.8720 H   0  0  0  0  0  0  0  0  0  0  0  0
  -28.1320  -18.2970   17.6470 H   0  0  0  0  0  0  0  0  0  0  0  0
  -32.5780  -12.4840   20.3890 C   0  0  0  0  0  0  0  0  0  0  0  0
  -31.7430  -13.7680   18.7810 C   0  0  0  0  0  2  0  0  0  0  0  0
  -30.6560  -15.1500   19.0240 C   0  0  0  0  0  1  0  0  0  0  0  0
  -28.5180  -15.0240   19.7770 C   0  0  0  0  0  3  0  0  0  0  0  0
  -27.8720  -13.4710   20.5700 C   0  0  0  0  0  3  0  0  0  0  0  0
  -28.9040  -12.0320   20.6410 C   0  0  0  0  0  1  0  0  0  0  0  0
  -31.4600  -12.5460   19.6760 N   0  0  0  0  0  2  0  0  0  0  0  0
  -33.3590  -13.4280   20.5880 O   0  0  0  0  0  0  0  0  0  0  0  0
  -32.3960  -11.3460   21.1030 N   0  0  0  0  0  0  0  0  0  0  0  0
  -33.0280  -11.1660   21.8660 H   0  0  0  0  0  0  0  0  0  0  0  0
  -25.6030  -14.0190   20.7700 C   0  0  0  0  0  0  0  0  0  0  0  0
  -24.5770  -13.2380   21.1250 C   0  0  0  0  0  0  0  0  0  0  0  0
  -24.9910  -11.8820   20.9940 C   0  0  0  0  0  0  0  0  0  0  0  0
  -26.5720  -13.1360   20.4760 N   0  0  0  0  0  0  0  0  0  0  0  0
  -26.2350  -11.8370   20.6280 N   0  0  0  0  0  0  0  0  0  0  0  0
  -24.2670  -10.6410   21.1560 C   0  0  0  0  0  0  0  0  0  0  0  0
  -24.6810   -9.6240   22.0420 C   0  0  0  0  0  3  0  0  0  0  0  0
  -23.8920   -8.4660   22.1800 C   0  0  0  0  0  3  0  0  0  0  0  0
  -22.6940   -8.3340   21.4380 C   0  0  0  0  0  0  0  0  0  0  0  0
  -22.3160   -9.3390   20.5350 C   0  0  0  0  0  3  0  0  0  0  0  0
  -23.1030  -10.4820   20.3860 C   0  0  0  0  0  3  0  0  0  0  0  0
  -21.8570   -7.2510   21.4960 O   0  0  0  0  0  0  0  0  0  0  0  0
  -21.7280   -6.5100   22.6390 C   0  0  0  0  0  0  0  0  0  0  0  0
  -21.2920   -7.0770   23.8560 C   0  0  0  0  0  3  0  0  0  0  0  0
  -21.0950   -6.2510   24.9790 C   0  0  0  0  0  3  0  0  0  0  0  0
  -21.3310   -4.8670   24.8880 C   0  0  0  0  0  0  0  0  0  0  0  0
  -21.7670   -4.3020   23.6750 C   0  0  0  0  0  3  0  0  0  0  0  0
  -21.9590   -5.1250   22.5520 C   0  0  0  0  0  0  0  0  0  0  0  0
  -22.3550   -4.5790   21.3770 F   0  0  0  0  0  0  0  0  0  0  0  0
  -21.1350   -4.0730   25.9660 F   0  0  0  0  0  0  0  0  0  0  0  0
  -23.2770  -13.7930   21.5440 C   0  0  0  0  0  0  0  0  0  0  0  0
  -22.6210  -13.1240   22.4720 N   0  0  0  0  0  0  0  0  0  0  0  0
  -22.9010  -14.8750   21.0990 O   0  0  0  0  0  0  0  0  0  0  0  0
  -22.9910  -12.2620   22.8470 H   0  0  0  0  0  0  0  0  0  0  0  0
  -21.7330  -13.4630   22.8110 H   0  0  0  0  0  0  0  0  0  0  0  0
  -25.7860  -15.3920   20.7950 N   0  0  0  0  0  0  0  0  0  0  0  0
  -25.0340  -16.0250   21.0420 H   0  0  0  0  0  0  0  0  0  0  0  0
  -26.6730  -15.8470   20.6490 H   0  0  0  0  0  0  0  0  0  0  0  0
  -29.3220  -19.7960   19.3950 C   0  0  0  0  0  1  0  0  0  0  0  0
  -27.8640  -21.1640   21.2730 C   0  0  0  0  0  1  0  0  0  0  0  0
  -29.1080  -21.5090   20.4300 C   0  0  0  0  0  1  0  0  0  0  0  0
  -28.9120  -23.5110   20.2180 C   0  0  0  0  0  1  0  0  0  0  0  0
  -28.7480  -25.1570   21.0000 O   0  0  0  0  0  0  0  0  0  0  0  0
  -24.7720  -31.6450   23.3210 C   0  0  0  0  0  0  0  0  0  0  0  0
  -27.8580  -26.4490   20.8440 C   0  0  0  0  0  0  0  0  0  0  0  0
  -23.9070  -30.1010   21.6380 C   0  0  0  0  0  3  0  0  0  0  0  0
  -25.5890  -28.4700   20.4970 C   0  0  0  0  0  0  0  0  0  0  0  0
  -26.4750  -30.3210   21.8820 C   0  0  0  0  0  2  0  0  0  0  0  0
  -26.6810  -28.8620   21.2800 C   0  0  0  0  0  0  0  0  0  0  0  0
  -27.8080  -27.8700   21.4290 C   0  0  0  0  0  3  0  0  0  0  0  0
  -26.7310  -26.3080   20.0160 C   0  0  0  0  0  3  0  0  0  0  0  0
  -25.6590  -27.2270   19.8530 C   0  0  0  0  0  3  0  0  0  0  0  0
  -24.3590  -29.3750   20.3440 C   0  0  0  0  0  2  0  0  0  0  0  0
  -25.0740  -30.7320   22.3300 N   0  0  0  0  0  0  0  0  0  0  0  0
  -23.5990  -31.9090   23.6430 O   0  0  0  0  0  0  0  0  0  0  0  0
  -23.1180  -29.1220   22.5500 C   0  0  0  0  0  0  0  0  0  0  0  0
  -21.8030  -28.9490   22.3050 N   0  0  0  0  0  0  0  0  0  0  0  0
  -23.7020  -28.5300   23.4640 O   0  0  0  0  0  0  0  0  0  0  0  0
  -21.3850  -29.4820   21.5550 H   0  0  0  0  0  0  0  0  0  0  0  0
  -18.3650  -27.8210   22.6480 C   0  0  0  0  0  0  0  0  0  0  0  0
  -20.9190  -28.0150   23.0180 C   0  0  0  0  0  3  0  0  0  0  0  0
  -21.0040  -26.5980   22.4080 C   0  0  0  0  0  2  0  0  0  0  0  0
  -19.9370  -26.3320   21.3420 C   0  0  0  0  0  2  0  0  0  0  0  0
  -18.5360  -26.4900   21.9340 C   0  0  0  0  0  2  0  0  0  0  0  0
  -19.4840  -28.5450   23.1400 C   0  0  0  0  0  0  0  0  0  0  0  0
  -19.2640  -29.7920   23.7690 C   0  0  0  0  0  3  0  0  0  0  0  0
  -17.9620  -30.3110   23.9080 C   0  0  0  0  0  3  0  0  0  0  0  0
  -16.8600  -29.5840   23.4250 C   0  0  0  0  0  3  0  0  0  0  0  0
  -17.0620  -28.3390   22.8030 C   0  0  0  0  0  3  0  0  0  0  0  0
  -25.8790  -32.4180   24.0970 C   0  0  0  0  0  3  0  0  0  0  0  0
  -26.1820  -31.8050   25.5230 C   0  0  1  0  0  0  0  0  0  0  0  0
  -24.9200  -31.5690   26.3900 C   0  0  0  0  0  1  0  0  0  0  0  0
  -26.9170  -30.4550   25.3890 C   0  0  0  0  0  1  0  0  0  0  0  0
  -27.1330  -32.7450   26.2990 C   0  0  0  0  0  1  0  0  0  0  0  0
  -25.4400  -33.8220   24.2550 N   0  0  0  0  0  0  0  0  0  0  0  0
  -25.8040  -34.8440   23.4670 C   0  0  0  0  0  0  0  0  0  0  0  0
  -26.5940  -34.7050   22.5310 O   0  0  0  0  0  0  0  0  0  0  0  0
  -24.7400  -33.9940   24.9620 H   0  0  0  0  0  0  0  0  0  0  0  0
  -24.0210  -36.4970   22.8000 C   0  0  0  0  0  1  0  0  0  0  0  0
  -25.1960  -36.2330   23.7550 C   0  0  0  0  0  3  0  0  0  0  0  0
  -27.1770  -37.3310   24.7080 C   0  0  0  0  0  1  0  0  0  0  0  0
  -26.1760  -37.3370   23.6470 N   0  0  0  0  0  0  0  0  0  0  0  0
  -25.7060  -38.2380   23.6590 H   0  0  0  0  0  0  0  0  0  0  0  0
  1  2  2  0
  2  6  1  0
  4  3  1  0
  4  8  1  0
  5  1  1  0
  5 20  1  0
  6 25  1  0
  6  3  1  0
  7 14  1  0
  7 13  1  0
  9  8  1  0
 10  9  1  0
 12 11  1  1
 12  7  1  0
 12  5  1  0
 12 20  1  0
 13 10  1  0
 14 16  1  0
 15 14  1  0
 17 24  2  0
 17 25  1  0
 18 19  1  0
 18 23  1  0
 20 21  1  0
 21 22  1  0
 23 17  1  0
 25 26  1  0
 27 52  1  0
 27 28  2  0
 28 47  1  0
 29 28  1  0
 29 32  1  0
 30 21  1  0
 30 31  1  0
 30 27  1  0
 31 29  2  0
 32 33  1  0
 33 34  2  0
 35 38  1  0
 35 34  1  0
 36 35  2  0
 37 36  1  0
 37 32  2  0
 38 39  1  0
 39 40  1  0
 40 41  2  0
 42 41  1  0
 42 46  1  0
 43 42  2  0
 44 39  2  0
 44 43  1  0
 45 44  1  0
 47 48  1  0
 48 51  1  0
 48 50  1  0
 49 47  2  0
 52 53  1  0
 54 52  1  0
 55 13  1  0
 57 56  1  0
 58 59  1  0
 60 71  2  0
 61 59  1  0
 61 66  1  0
 62 70  1  0
 62 72  1  0
 63 65  1  0
 64 70  1  0
 65 66  2  0
 65 64  1  0
 67 61  2  0
 68 67  1  0
 68 63  2  0
 69 63  1  0
 69 62  1  0
 70 60  1  0
 72 74  2  0
 73 72  1  0
 75 73  1  0
 76 85  2  0
 76 81  1  0
 77 73  1  0
 77 81  1  0
 78 77  1  0
 79 80  1  0
 79 78  1  0
 80 76  1  0
 81 82  2  0
 82 83  1  0
 84 83  2  0
 85 84  1  0
 86 60  1  0
 86 91  1  0
 86 87  1  0
 87 90  1  1
 87 88  1  0
 89 87  1  0
 91 94  1  0
 92 96  1  0
 92 91  1  0
 93 92  2  0
 96 95  1  0
 98 99  1  0
 98 96  1  0
 98 97  1  0
M  ISO  4  17 100  25 100  58 101  59 101
M  END
>  <TORSDO>  (60) 
F 19

>  <SCORE>  (60) 
-6.031

>  <name>  (60) 
59

>  <ligand_id>  (60) 
59

>  <original_smiles>  (60) 
[H]c1c([H])c([H])c2c(c1[H])C([H])([H])C([H])([H])C([H])([H])C2([H])N([H])C(=O)C1([H])N(C(=O)C([H])(N([H])C(=O)C([H])(N([H])C([H])([H])[H])C([H])([H])[H])C(C([H])([H])[H])(C([H])([H])[H])C([H])([H])[H])C([H])([H])c2c([H])c(OC([H])([H])C([H])(C([H])([H])[H])C([H])([H])N3C(=[N+]([H])[H])N(C([H])([H])[H])c4c([H])c([H])c(N([H])C(=O)N5C([H])([H])C([H])([H])C([H])([H])C([H])(n6nc(-c7c([H])c([H])c(Oc8c([H])c([H])c(F)c([H])c8F)c([H])c7[H])c(C(=O)N([H])[H])c6N([H])[H])C5([H])[H])c([H])c4C([H])([H])C([H])([H])C3([H])[H])c([H])c([H])c2C1([H])[H]

>  <smiles>  (60) 
[H]c1c([H])c([H])c2c(c1[H])C([H])([H])C([H])([H])C([H])([H])C2([H])N([H])C(=O)C1([H])N(C(=O)C([H])(N([H])C(=O)C([H])(N([H])C([H])([H])[H])C([H])([H])[H])C(C([H])([H])[H])(C([H])([H])[H])C([H])([H])[H])C([H])([H])c2c([H])c(OC([H])([H])C([H])(C([H])([H])[H])C([H])([H])N3C(=[N+]([H])[H])N(C([H])([H])[H])c4c([H])c([H])c(N([H])C(=O)N5C([H])([H])C([H])([H])C([H])([H])C([H])(n6nc(-c7c([H])c([H])c(Oc8c([H])c([H])c(F)c([H])c8F)c([H])c7[H])c(C(=O)N([H])[H])c6N([H])[H])C5([H])[H])c([H])c4C([H])([H])C([H])([H])C3([H])[H])c([H])c([H])c2C1([H])[H]

$$$$
60:0:0
     RDKit          3D

 93102  0  0  1  0  0  0  0  0999 V2000
  -30.1630  -23.2570   22.3950 C   0  0  0  0  0  2  0  0  0  0  0  0
  -30.3590  -23.8090   20.9790 C   0  0  0  0  0  2  0  0  0  0  0  0
  -28.9470  -22.3200   22.2930 C   0  0  0  0  0  2  0  0  0  0  0  0
  -29.0680  -23.4360   20.2500 C   0  0  0  0  0  3  0  0  0  0  0  0
  -28.7550  -22.0440   20.8700 N   0  0  0  0  0  0  0  0  0  0  0  0
  -28.3790  -19.7540   19.7740 C   0  0  0  0  0  3  0  0  0  0  0  0
  -30.2670  -19.9180   21.1630 C   0  0  0  0  0  3  0  0  0  0  0  0
  -28.5740  -18.3160   19.6830 C   0  0  0  0  0  0  0  0  0  0  0  0
  -29.1800  -20.6480   20.5510 C   0  0  0  0  0  0  0  0  0  0  0  0
  -29.6160  -17.5840   20.3640 C   0  0  0  0  0  0  0  0  0  0  0  0
  -30.4770  -18.4770   21.0850 C   0  0  0  0  0  0  0  0  0  0  0  0
  -27.5690  -17.5560   18.8370 C   0  0  0  0  0  1  0  0  0  0  0  0
  -31.4970  -17.9430   21.7990 F   0  0  0  0  0  0  0  0  0  0  0  0
  -30.4790  -14.9580   20.3180 C   0  0  0  0  0  0  0  0  0  0  0  0
  -30.3820  -12.6180   19.3550 C   0  0  0  0  0  2  0  0  0  0  0  0
  -29.4220  -12.5990   18.1420 C   0  0  0  0  0  2  0  0  0  0  0  0
  -27.9630  -12.3840   18.5950 C   0  0  0  0  0  2  0  0  0  0  0  0
  -27.5750  -13.2890   19.7920 C   0  0  0  0  0  3  0  0  0  0  0  0
  -28.6530  -13.2680   20.8990 C   0  0  0  0  0  2  0  0  0  0  0  0
  -29.9200  -13.6870   20.2790 N   0  0  0  0  0  0  0  0  0  0  0  0
  -31.6750  -15.0790   20.0280 O   0  0  0  0  0  0  0  0  0  0  0  0
  -29.5990  -16.0560   20.4430 N   0  0  0  0  0  0  0  0  0  0  0  0
  -28.6600  -15.7040   20.5250 H   0  0  0  0  0  0  0  0  0  0  0  0
  -25.2020  -13.8580   20.5770 C   0  0  0  0  0  0  0  0  0  0  0  0
  -24.1460  -13.0780   20.9540 C   0  0  0  0  0  0  0  0  0  0  0  0
  -24.6120  -11.7290   20.9010 C   0  0  0  0  0  0  0  0  0  0  0  0
  -26.2440  -12.9850   20.3090 N   0  0  0  0  0  0  0  0  0  0  0  0
  -25.8990  -11.6990   20.5690 N   0  0  0  0  0  0  0  0  0  0  0  0
  -23.8910  -10.4650   21.0870 C   0  0  0  0  0  0  0  0  0  0  0  0
  -24.3410   -9.4870   22.0000 C   0  0  0  0  0  3  0  0  0  0  0  0
  -23.6200   -8.2870   22.1760 C   0  0  0  0  0  3  0  0  0  0  0  0
  -22.4320   -8.0580   21.4410 C   0  0  0  0  0  0  0  0  0  0  0  0
  -22.0010   -9.0250   20.5170 C   0  0  0  0  0  3  0  0  0  0  0  0
  -22.7230  -10.2170   20.3380 C   0  0  0  0  0  3  0  0  0  0  0  0
  -21.6790   -6.9130   21.5290 O   0  0  0  0  0  0  0  0  0  0  0  0
  -21.6600   -6.1500   22.6700 C   0  0  0  0  0  0  0  0  0  0  0  0
  -21.2670   -6.6830   23.9170 C   0  0  0  0  0  3  0  0  0  0  0  0
  -21.1950   -5.8470   25.0490 C   0  0  0  0  0  3  0  0  0  0  0  0
  -21.5070   -4.4790   24.9360 C   0  0  0  0  0  0  0  0  0  0  0  0
  -21.8930   -3.9450   23.6950 C   0  0  0  0  0  3  0  0  0  0  0  0
  -21.9680   -4.7790   22.5640 C   0  0  0  0  0  0  0  0  0  0  0  0
  -22.3210   -4.2550   21.3660 F   0  0  0  0  0  0  0  0  0  0  0  0
  -21.4310   -3.6730   26.0220 F   0  0  0  0  0  0  0  0  0  0  0  0
  -22.7510  -13.5500   21.2490 C   0  0  0  0  0  0  0  0  0  0  0  0
  -22.0350  -12.8500   22.1210 N   0  0  0  0  0  0  0  0  0  0  0  0
  -22.3050  -14.5790   20.7410 O   0  0  0  0  0  0  0  0  0  0  0  0
  -22.4070  -12.0190   22.5560 H   0  0  0  0  0  0  0  0  0  0  0  0
  -21.0990  -13.1470   22.3550 H   0  0  0  0  0  0  0  0  0  0  0  0
  -25.3520  -15.2300   20.4160 N   0  0  0  0  0  0  0  0  0  0  0  0
  -24.5750  -15.8690   20.5460 H   0  0  0  0  0  0  0  0  0  0  0  0
  -26.1790  -15.6800   20.0530 H   0  0  0  0  0  0  0  0  0  0  0  0
  -27.9860  -24.7210   20.4150 C   0  0  0  0  0  2  0  0  0  0  0  0
  -28.2550  -26.2420   20.2500 O   0  0  0  0  0  0  0  0  0  0  0  0
  -24.6120  -31.9080   23.2440 C   0  0  0  0  0  0  0  0  0  0  0  0
  -27.1810  -27.2010   20.2170 C   0  0  0  0  0  0  0  0  0  0  0  0
  -23.4050  -30.5100   21.6120 C   0  0  0  0  0  3  0  0  0  0  0  0
  -24.8460  -28.9310   20.1910 C   0  0  0  0  0  0  0  0  0  0  0  0
  -25.9570  -30.7760   21.4380 C   0  0  0  0  0  2  0  0  0  0  0  0
  -26.0280  -29.3830   20.7920 C   0  0  0  0  0  0  0  0  0  0  0  0
  -27.1960  -28.5350   20.7870 C   0  0  0  0  0  3  0  0  0  0  0  0
  -25.9720  -26.8480   19.5750 C   0  0  0  0  0  3  0  0  0  0  0  0
  -24.8300  -27.6760   19.5670 C   0  0  0  0  0  3  0  0  0  0  0  0
  -23.6200  -29.8290   20.2350 C   0  0  0  0  0  2  0  0  0  0  0  0
  -24.6780  -31.0860   22.1540 N   0  0  0  0  0  0  0  0  0  0  0  0
  -23.5270  -32.1950   23.7740 O   0  0  0  0  0  0  0  0  0  0  0  0
  -22.7260  -29.5070   22.5780 C   0  0  0  0  0  0  0  0  0  0  0  0
  -21.3980  -29.3360   22.4510 N   0  0  0  0  0  0  0  0  0  0  0  0
  -23.3970  -28.8830   23.4040 O   0  0  0  0  0  0  0  0  0  0  0  0
  -20.9140  -29.8910   21.7590 H   0  0  0  0  0  0  0  0  0  0  0  0
  -18.0170  -28.1330   22.9480 C   0  0  0  0  0  0  0  0  0  0  0  0
  -20.5740  -28.4030   23.2240 C   0  0  0  0  0  3  0  0  0  0  0  0
  -20.6820  -26.9660   22.6620 C   0  0  0  0  0  2  0  0  0  0  0  0
  -19.5860  -26.6330   21.6450 C   0  0  0  0  0  2  0  0  0  0  0  0
  -18.2010  -26.7790   22.2820 C   0  0  0  0  0  2  0  0  0  0  0  0
  -19.1330  -28.9030   23.3750 C   0  0  0  0  0  0  0  0  0  0  0  0
  -18.9070  -30.1680   23.9580 C   0  0  0  0  0  3  0  0  0  0  0  0
  -17.5990  -30.6650   24.1180 C   0  0  0  0  0  3  0  0  0  0  0  0
  -16.4990  -29.8940   23.7050 C   0  0  0  0  0  3  0  0  0  0  0  0
  -16.7090  -28.6300   23.1260 C   0  0  0  0  0  3  0  0  0  0  0  0
  -25.8930  -32.5410   23.8670 C   0  0  0  0  0  3  0  0  0  0  0  0
  -25.5850  -33.9400   24.2020 N   0  0  0  0  0  0  0  0  0  0  0  0
  -25.9030  -34.9960   23.4410 C   0  0  0  0  0  0  0  0  0  0  0  0
  -26.5560  -34.8950   22.3990 O   0  0  0  0  0  0  0  0  0  0  0  0
  -25.0050  -34.0920   25.0140 H   0  0  0  0  0  0  0  0  0  0  0  0
  -24.1630  -36.7870   23.1310 C   0  0  0  0  0  1  0  0  0  0  0  0
  -25.4240  -36.3850   23.9110 C   0  0  0  0  0  3  0  0  0  0  0  0
  -27.5770  -37.2770   24.6880 C   0  0  0  0  0  1  0  0  0  0  0  0
  -26.4510  -37.4400   23.7720 N   0  0  0  0  0  0  0  0  0  0  0  0
  -26.0460  -38.3600   23.9280 H   0  0  0  0  0  0  0  0  0  0  0  0
  -26.4080  -31.7690   25.1450 C   0  0  1  0  0  0  0  0  0  0  0  0
  -25.3150  -31.5380   26.2140 C   0  0  0  0  0  1  0  0  0  0  0  0
  -26.9850  -30.3880   24.7580 C   0  0  0  0  0  1  0  0  0  0  0  0
  -27.5620  -32.5600   25.8050 C   0  0  0  0  0  1  0  0  0  0  0  0
  2  1  1  0
  3  1  1  0
  4 52  1  0
  4  5  1  0
  4  2  1  0
  5  3  1  0
  6  9  1  0
  8  6  2  0
  8 10  1  0
  9  5  1  0
  9  7  2  0
 10 22  1  0
 10 11  2  0
 11  7  1  0
 11 13  1  0
 12  8  1  0
 14 22  1  0
 15 20  1  0
 16 17  1  0
 16 15  1  0
 18 17  1  0
 18 27  1  0
 18 19  1  0
 20 14  1  0
 20 19  1  0
 21 14  2  0
 22 23  1  0
 24 25  2  0
 25 44  1  0
 26 25  1  0
 26 29  1  0
 27 28  1  0
 27 24  1  0
 28 26  2  0
 29 30  1  0
 30 31  2  0
 32 35  1  0
 32 31  1  0
 33 32  2  0
 34 33  1  0
 34 29  2  0
 35 36  1  0
 36 37  1  0
 37 38  2  0
 39 38  1  0
 39 43  1  0
 40 39  2  0
 41 36  2  0
 41 40  1  0
 42 41  1  0
 44 45  1  0
 45 48  1  0
 45 47  1  0
 46 44  2  0
 49 50  1  0
 49 24  1  0
 51 49  1  0
 53 52  1  0
 54 65  2  0
 55 53  1  0
 55 60  1  0
 56 64  1  0
 56 66  1  0
 57 63  1  0
 57 59  1  0
 58 64  1  0
 59 58  1  0
 60 59  2  0
 61 55  2  0
 62 61  1  0
 62 57  2  0
 63 56  1  0
 64 54  1  0
 66 68  2  0
 67 66  1  0
 69 67  1  0
 70 79  2  0
 70 75  1  0
 71 67  1  0
 71 75  1  0
 72 71  1  0
 73 74  1  0
 73 72  1  0
 74 70  1  0
 75 76  2  0
 76 77  1  0
 78 77  2  0
 79 78  1  0
 80 54  1  0
 80 81  1  0
 80 90  1  0
 81 84  1  0
 82 86  1  0
 82 81  1  0
 83 82  2  0
 86 85  1  0
 88 86  1  0
 88 89  1  0
 88 87  1  0
 90 93  1  1
 90 91  1  0
 92 90  1  0
M  ISO  4  14 100  22 100  52 101  53 101
M  END
>  <TORSDO>  (61) 
F 18

>  <SCORE>  (61) 
-15.246

>  <name>  (61) 
60

>  <ligand_id>  (61) 
60

>  <original_smiles>  (61) 
[H]c1c([H])c([H])c2c(c1[H])C([H])([H])C([H])([H])C([H])([H])C2([H])N([H])C(=O)C1([H])N(C(=O)C([H])(N([H])C(=O)C([H])(N([H])C([H])([H])[H])C([H])([H])[H])C(C([H])([H])[H])(C([H])([H])[H])C([H])([H])[H])C([H])([H])c2c([H])c(OC([H])([H])C3([H])N(c4c([H])c(F)c(N([H])C(=O)N5C([H])([H])C([H])([H])C([H])([H])C([H])(n6nc(-c7c([H])c([H])c(Oc8c([H])c([H])c(F)c([H])c8F)c([H])c7[H])c(C(=O)N([H])[H])c6N([H])[H])C5([H])[H])c(C([H])([H])[H])c4[H])C([H])([H])C([H])([H])C3([H])[H])c([H])c([H])c2C1([H])[H]

>  <smiles>  (61) 
[H]c1c([H])c([H])c2c(c1[H])C([H])([H])C([H])([H])C([H])([H])C2([H])N([H])C(=O)C1([H])N(C(=O)C([H])(N([H])C(=O)C([H])(N([H])C([H])([H])[H])C([H])([H])[H])C(C([H])([H])[H])(C([H])([H])[H])C([H])([H])[H])C([H])([H])c2c([H])c(OC([H])([H])C3([H])N(c4c([H])c(F)c(N([H])C(=O)N5C([H])([H])C([H])([H])C([H])([H])C([H])(n6nc(-c7c([H])c([H])c(Oc8c([H])c([H])c(F)c([H])c8F)c([H])c7[H])c(C(=O)N([H])[H])c6N([H])[H])C5([H])[H])c(C([H])([H])[H])c4[H])C([H])([H])C([H])([H])C3([H])[H])c([H])c([H])c2C1([H])[H]

$$$$
61:0:0
     RDKit          3D

 96105  0  0  1  0  0  0  0  0999 V2000
  -29.7450  -23.0290   22.0920 C   0  0  0  0  0  0  0  0  0  0  0  0
  -30.0580  -22.6030   23.3260 C   0  0  0  0  0  2  0  0  0  0  0  0
  -29.4390  -24.4550   21.6840 C   0  0  0  0  0  2  0  0  0  0  0  0
  -29.1470  -23.0510   19.7680 C   0  0  0  0  0  2  0  0  0  0  0  0
  -28.6280  -24.3670   20.3910 C   0  0  0  0  0  3  0  0  0  0  0  0
  -29.5480  -22.1530   20.8900 N   0  0  1  0  0  4  0  0  0  0  0  0
  -28.7580  -21.5520   21.0620 H   0  0  0  0  0  0  0  0  0  0  0  0
  -30.6920  -21.2400   20.5640 C   0  0  0  0  0  2  0  0  0  0  0  0
  -30.5740  -19.0400   21.9020 C   0  0  0  0  0  3  0  0  0  0  0  0
  -30.1140  -18.9670   19.5200 C   0  0  0  0  0  3  0  0  0  0  0  0
  -30.4170  -19.7280   20.6750 C   0  0  0  0  0  0  0  0  0  0  0  0
  -30.2100  -16.8760   20.8060 C   0  0  0  0  0  0  0  0  0  0  0  0
  -30.4580  -17.6340   21.9700 C   0  0  0  0  0  0  0  0  0  0  0  0
  -30.0110  -17.5570   19.5800 C   0  0  0  0  0  0  0  0  0  0  0  0
  -30.6040  -17.0070   23.1630 F   0  0  0  0  0  0  0  0  0  0  0  0
  -29.6990  -16.8680   18.4560 F   0  0  0  0  0  0  0  0  0  0  0  0
  -30.7230  -14.5360   20.1810 C   0  0  0  0  0  0  0  0  0  0  0  0
  -30.3780  -12.4240   18.9580 C   0  0  0  0  0  2  0  0  0  0  0  0
  -29.3660  -12.6830   17.8210 C   0  0  0  0  0  2  0  0  0  0  0  0
  -27.9180  -12.5290   18.3270 C   0  0  0  0  0  2  0  0  0  0  0  0
  -27.6580  -13.3100   19.6420 C   0  0  0  0  0  3  0  0  0  0  0  0
  -28.7710  -13.0190   20.6760 C   0  0  0  0  0  2  0  0  0  0  0  0
  -30.0670  -13.3510   20.0560 N   0  0  0  0  0  0  0  0  0  0  0  0
  -31.7950  -14.7770   19.6170 O   0  0  0  0  0  0  0  0  0  0  0  0
  -30.0850  -15.4600   20.9190 N   0  0  0  0  0  0  0  0  0  0  0  0
  -29.3450  -15.1270   21.5140 H   0  0  0  0  0  0  0  0  0  0  0  0
  -25.2990  -13.9000   20.4890 C   0  0  0  0  0  0  0  0  0  0  0  0
  -24.2500  -13.1180   20.8910 C   0  0  0  0  0  0  0  0  0  0  0  0
  -24.7060  -11.7680   20.7950 C   0  0  0  0  0  0  0  0  0  0  0  0
  -26.3300  -13.0260   20.1800 N   0  0  0  0  0  0  0  0  0  0  0  0
  -25.9770  -11.7360   20.4170 N   0  0  0  0  0  0  0  0  0  0  0  0
  -23.9890  -10.5010   20.9830 C   0  0  0  0  0  0  0  0  0  0  0  0
  -24.4310   -9.5320   21.9090 C   0  0  0  0  0  3  0  0  0  0  0  0
  -23.7130   -8.3280   22.0860 C   0  0  0  0  0  3  0  0  0  0  0  0
  -22.5380   -8.0870   21.3350 C   0  0  0  0  0  0  0  0  0  0  0  0
  -22.1150   -9.0460   20.3980 C   0  0  0  0  0  3  0  0  0  0  0  0
  -22.8330  -10.2400   20.2200 C   0  0  0  0  0  3  0  0  0  0  0  0
  -21.7910   -6.9370   21.4210 O   0  0  0  0  0  0  0  0  0  0  0  0
  -21.7000   -6.2250   22.5900 C   0  0  0  0  0  0  0  0  0  0  0  0
  -21.2070   -6.8040   23.7790 C   0  0  0  0  0  3  0  0  0  0  0  0
  -21.0640   -6.0170   24.9400 C   0  0  0  0  0  3  0  0  0  0  0  0
  -21.4040   -4.6500   24.9110 C   0  0  0  0  0  0  0  0  0  0  0  0
  -21.8900   -4.0700   23.7260 C   0  0  0  0  0  3  0  0  0  0  0  0
  -22.0340   -4.8550   22.5670 C   0  0  0  0  0  0  0  0  0  0  0  0
  -22.4830   -4.2860   21.4230 F   0  0  0  0  0  0  0  0  0  0  0  0
  -21.2600   -3.8920   26.0220 F   0  0  0  0  0  0  0  0  0  0  0  0
  -22.8710  -13.5880   21.2530 C   0  0  0  0  0  0  0  0  0  0  0  0
  -22.1900  -12.8660   22.1360 N   0  0  0  0  0  0  0  0  0  0  0  0
  -22.4070  -14.6290   20.7900 O   0  0  0  0  0  0  0  0  0  0  0  0
  -22.5790  -12.0220   22.5320 H   0  0  0  0  0  0  0  0  0  0  0  0
  -21.2690  -13.1620   22.4230 H   0  0  0  0  0  0  0  0  0  0  0  0
  -25.4590  -15.2760   20.3450 N   0  0  0  0  0  0  0  0  0  0  0  0
  -24.6980  -15.9270   20.5070 H   0  0  0  0  0  0  0  0  0  0  0  0
  -26.2910  -15.7230   19.9820 H   0  0  0  0  0  0  0  0  0  0  0  0
  -28.7610  -25.6240   19.4890 C   0  0  0  0  0  2  0  0  0  0  0  0
  -28.5380  -26.8520   20.2000 O   0  0  0  0  0  0  0  0  0  0  0  0
  -24.6180  -31.9290   23.2610 C   0  0  0  0  0  0  0  0  0  0  0  0
  -27.3200  -27.5060   20.1840 C   0  0  0  0  0  0  0  0  0  0  0  0
  -23.4280  -30.5160   21.6140 C   0  0  0  0  0  3  0  0  0  0  0  0
  -24.9000  -28.9860   20.1980 C   0  0  0  0  0  0  0  0  0  0  0  0
  -25.9500  -30.8950   21.4240 C   0  0  0  0  0  2  0  0  0  0  0  0
  -26.0490  -29.5220   20.7890 C   0  0  0  0  0  0  0  0  0  0  0  0
  -27.2550  -28.7870   20.7810 C   0  0  0  0  0  3  0  0  0  0  0  0
  -26.1440  -26.9730   19.6050 C   0  0  0  0  0  3  0  0  0  0  0  0
  -24.9410  -27.7100   19.6080 C   0  0  0  0  0  3  0  0  0  0  0  0
  -23.6480  -29.8330   20.2380 C   0  0  0  0  0  2  0  0  0  0  0  0
  -24.6830  -31.1300   22.1580 N   0  0  0  0  0  0  0  0  0  0  0  0
  -23.5320  -32.1940   23.7970 O   0  0  0  0  0  0  0  0  0  0  0  0
  -22.7830  -29.4910   22.5740 C   0  0  0  0  0  0  0  0  0  0  0  0
  -21.4620  -29.2900   22.4340 N   0  0  0  0  0  0  0  0  0  0  0  0
  -23.4680  -28.8770   23.3970 O   0  0  0  0  0  0  0  0  0  0  0  0
  -20.9720  -29.8390   21.7420 H   0  0  0  0  0  0  0  0  0  0  0  0
  -18.1030  -28.0450   22.8920 C   0  0  0  0  0  0  0  0  0  0  0  0
  -20.6520  -28.3440   23.1980 C   0  0  0  0  0  3  0  0  0  0  0  0
  -20.7840  -26.9110   22.6310 C   0  0  0  0  0  2  0  0  0  0  0  0
  -19.7020  -26.5660   21.6040 C   0  0  0  0  0  2  0  0  0  0  0  0
  -18.3080  -26.6940   22.2280 C   0  0  0  0  0  2  0  0  0  0  0  0
  -19.2030  -28.8270   23.3330 C   0  0  0  0  0  0  0  0  0  0  0  0
  -18.9580  -30.0910   23.9120 C   0  0  0  0  0  3  0  0  0  0  0  0
  -17.6450  -30.5750   24.0540 C   0  0  0  0  0  3  0  0  0  0  0  0
  -16.5580  -29.7910   23.6300 C   0  0  0  0  0  3  0  0  0  0  0  0
  -16.7870  -28.5280   23.0550 C   0  0  0  0  0  3  0  0  0  0  0  0
  -25.8960  -32.5700   23.8850 C   0  0  0  0  0  3  0  0  0  0  0  0
  -26.4120  -31.8100   25.1680 C   0  0  1  0  0  0  0  0  0  0  0  0
  -25.3140  -31.5680   26.2300 C   0  0  0  0  0  1  0  0  0  0  0  0
  -27.0090  -30.4360   24.7840 C   0  0  0  0  0  1  0  0  0  0  0  0
  -27.5500  -32.6180   25.8360 C   0  0  0  0  0  1  0  0  0  0  0  0
  -25.5800  -33.9690   24.2030 N   0  0  0  0  0  0  0  0  0  0  0  0
  -25.9150  -35.0170   23.4370 C   0  0  0  0  0  0  0  0  0  0  0  0
  -26.5930  -34.9090   22.4120 O   0  0  0  0  0  0  0  0  0  0  0  0
  -24.9770  -34.1270   24.9960 H   0  0  0  0  0  0  0  0  0  0  0  0
  -24.1820  -36.7980   23.0560 C   0  0  0  0  0  1  0  0  0  0  0  0
  -25.4180  -36.4060   23.8800 C   0  0  0  0  0  3  0  0  0  0  0  0
  -27.5410  -37.3070   24.7220 C   0  0  0  0  0  1  0  0  0  0  0  0
  -26.4470  -37.4620   23.7670 N   0  0  0  0  0  0  0  0  0  0  0  0
  -26.0360  -38.3810   23.9040 H   0  0  0  0  0  0  0  0  0  0  0  0
  1  2  2  0
  3  1  1  0
  4  5  1  0
  4  6  1  0
  5 55  1  0
  5  3  1  0
  6  7  1  1
  6  1  1  0
  8 11  1  0
  8  6  1  0
  9 13  1  0
 10 14  2  0
 10 11  1  0
 11  9  2  0
 12 25  1  0
 12 13  2  0
 13 15  1  0
 14 12  1  0
 16 14  1  0
 17 25  1  0
 18 23  1  0
 19 20  1  0
 19 18  1  0
 21 20  1  0
 21 30  1  0
 21 22  1  0
 23 17  1  0
 23 22  1  0
 24 17  2  0
 25 26  1  0
 27 28  2  0
 28 47  1  0
 29 28  1  0
 29 32  1  0
 30 31  1  0
 30 27  1  0
 31 29  2  0
 32 33  1  0
 33 34  2  0
 35 38  1  0
 35 34  1  0
 36 35  2  0
 37 36  1  0
 37 32  2  0
 38 39  1  0
 39 40  1  0
 40 41  2  0
 42 41  1  0
 42 46  1  0
 43 42  2  0
 44 39  2  0
 44 43  1  0
 45 44  1  0
 47 48  1  0
 48 51  1  0
 48 50  1  0
 49 47  2  0
 52 27  1  0
 52 53  1  0
 54 52  1  0
 55 56  1  0
 57 68  2  0
 58 56  1  0
 58 63  1  0
 59 67  1  0
 59 69  1  0
 60 66  1  0
 60 62  1  0
 61 67  1  0
 62 61  1  0
 63 62  2  0
 64 65  1  0
 64 58  2  0
 65 60  2  0
 66 59  1  0
 67 57  1  0
 69 71  2  0
 70 69  1  0
 72 70  1  0
 73 82  2  0
 73 78  1  0
 74 70  1  0
 74 78  1  0
 75 74  1  0
 76 77  1  0
 76 75  1  0
 77 73  1  0
 78 79  2  0
 79 80  1  0
 81 80  2  0
 82 81  1  0
 83 57  1  0
 83 88  1  0
 83 84  1  0
 84 87  1  1
 84 85  1  0
 86 84  1  0
 88 91  1  0
 89 93  1  0
 89 88  1  0
 90 89  2  0
 93 92  1  0
 95 93  1  0
 95 96  1  0
 95 94  1  0
M  ISO  4  17 100  25 100  55 101  56 101
M  END
>  <TORSDO>  (62) 
F 19

>  <SCORE>  (62) 
-14.568

>  <name>  (62) 
61

>  <ligand_id>  (62) 
61

>  <original_smiles>  (62) 
[H]C([H])=C1C([H])([H])C([H])(C([H])([H])Oc2c([H])c([H])c3c(c2[H])C([H])([H])N(C(=O)C([H])(N([H])C(=O)C([H])(N([H])C([H])([H])[H])C([H])([H])[H])C(C([H])([H])[H])(C([H])([H])[H])C([H])([H])[H])C([H])(C(=O)N([H])C2([H])c4c([H])c([H])c([H])c([H])c4C([H])([H])C([H])([H])C2([H])[H])C3([H])[H])C([H])([H])[N+]1([H])C([H])([H])c1c([H])c(F)c(N([H])C(=O)N2C([H])([H])C([H])([H])C([H])([H])C([H])(n3nc(-c4c([H])c([H])c(Oc5c([H])c([H])c(F)c([H])c5F)c([H])c4[H])c(C(=O)N([H])[H])c3N([H])[H])C2([H])[H])c(F)c1[H]

>  <smiles>  (62) 
[H]C([H])=C1C([H])([H])C([H])(C([H])([H])Oc2c([H])c([H])c3c(c2[H])C([H])([H])N(C(=O)C([H])(N([H])C(=O)C([H])(N([H])C([H])([H])[H])C([H])([H])[H])C(C([H])([H])[H])(C([H])([H])[H])C([H])([H])[H])C([H])(C(=O)N([H])C2([H])c4c([H])c([H])c([H])c([H])c4C([H])([H])C([H])([H])C2([H])[H])C3([H])[H])C([H])([H])[N+]1([H])C([H])([H])c1c([H])c(F)c(N([H])C(=O)N2C([H])([H])C([H])([H])C([H])([H])C([H])(n3nc(-c4c([H])c([H])c(Oc5c([H])c([H])c(F)c([H])c5F)c([H])c4[H])c(C(=O)N([H])[H])c3N([H])[H])C2([H])[H])c(F)c1[H]

$$$$
62:0:0
     RDKit          3D

 94103  0  0  1  0  0  0  0  0999 V2000
  -30.5460  -21.5260   20.7710 C   0  0  0  0  0  2  0  0  0  0  0  0
  -31.5520  -19.2030   20.4970 C   0  0  0  0  0  3  0  0  0  0  0  0
  -31.5180  -17.7870   20.4840 C   0  0  0  0  0  3  0  0  0  0  0  0
  -30.3720  -19.9920   20.5710 C   0  0  0  0  0  0  0  0  0  0  0  0
  -29.1180  -19.3030   20.6100 C   0  0  0  0  0  0  0  0  0  0  0  0
  -30.2850  -17.0960   20.5430 C   0  0  0  0  0  0  0  0  0  0  0  0
  -29.0990  -17.8770   20.5800 C   0  0  0  0  0  0  0  0  0  0  0  0
  -27.7710  -20.0250   20.7300 C   0  0  0  0  0  1  0  0  0  0  0  0
  -27.8990  -17.2410   20.6130 F   0  0  0  0  0  0  0  0  0  0  0  0
  -30.9440  -14.6460   20.0860 C   0  0  0  0  0  0  0  0  0  0  0  0
  -30.6700  -12.4670   18.9370 C   0  0  0  0  0  2  0  0  0  0  0  0
  -29.6930  -12.6960   17.7660 C   0  0  0  0  0  2  0  0  0  0  0  0
  -28.2270  -12.5590   18.2370 C   0  0  0  0  0  2  0  0  0  0  0  0
  -27.9370  -13.3720   19.5320 C   0  0  0  0  0  3  0  0  0  0  0  0
  -29.0200  -13.0980   20.5960 C   0  0  0  0  0  2  0  0  0  0  0  0
  -30.3230  -13.4380   19.9940 N   0  0  0  0  0  0  0  0  0  0  0  0
  -32.0860  -14.8270   19.6470 O   0  0  0  0  0  0  0  0  0  0  0  0
  -30.1500  -15.6530   20.5400 N   0  0  0  0  0  0  0  0  0  0  0  0
  -29.2550  -15.3410   20.8840 H   0  0  0  0  0  0  0  0  0  0  0  0
  -25.5600  -14.0050   20.2750 C   0  0  0  0  0  0  0  0  0  0  0  0
  -24.4930  -13.2470   20.6630 C   0  0  0  0  0  0  0  0  0  0  0  0
  -24.9440  -11.8900   20.6420 C   0  0  0  0  0  0  0  0  0  0  0  0
  -26.5940  -13.1130   20.0380 N   0  0  0  0  0  0  0  0  0  0  0  0
  -26.2260  -11.8350   20.3110 N   0  0  0  0  0  0  0  0  0  0  0  0
  -24.2100  -10.6410   20.8650 C   0  0  0  0  0  0  0  0  0  0  0  0
  -24.6210   -9.7120   21.8450 C   0  0  0  0  0  3  0  0  0  0  0  0
  -23.8880   -8.5250   22.0560 C   0  0  0  0  0  3  0  0  0  0  0  0
  -22.7290   -8.2600   21.2870 C   0  0  0  0  0  0  0  0  0  0  0  0
  -22.3400   -9.1760   20.2920 C   0  0  0  0  0  3  0  0  0  0  0  0
  -23.0750  -10.3570   20.0820 C   0  0  0  0  0  3  0  0  0  0  0  0
  -21.9740   -7.1190   21.4000 O   0  0  0  0  0  0  0  0  0  0  0  0
  -21.8340   -6.4620   22.5950 C   0  0  0  0  0  0  0  0  0  0  0  0
  -21.3280   -7.1050   23.7470 C   0  0  0  0  0  3  0  0  0  0  0  0
  -21.1460   -6.3750   24.9390 C   0  0  0  0  0  3  0  0  0  0  0  0
  -21.4520   -5.0020   24.9760 C   0  0  0  0  0  0  0  0  0  0  0  0
  -21.9410   -4.3570   23.8240 C   0  0  0  0  0  3  0  0  0  0  0  0
  -22.1300   -5.0840   22.6370 C   0  0  0  0  0  0  0  0  0  0  0  0
  -22.5880   -4.4550   21.5280 F   0  0  0  0  0  0  0  0  0  0  0  0
  -21.2670   -4.2940   26.1150 F   0  0  0  0  0  0  0  0  0  0  0  0
  -23.1060  -13.7390   20.9610 C   0  0  0  0  0  0  0  0  0  0  0  0
  -22.4050  -13.0810   21.8740 N   0  0  0  0  0  0  0  0  0  0  0  0
  -22.6580  -14.7490   20.4180 O   0  0  0  0  0  0  0  0  0  0  0  0
  -22.7770  -12.2620   22.3350 H   0  0  0  0  0  0  0  0  0  0  0  0
  -21.4760  -13.3950   22.1190 H   0  0  0  0  0  0  0  0  0  0  0  0
  -25.7320  -15.3750   20.1010 N   0  0  0  0  0  0  0  0  0  0  0  0
  -24.9880  -16.0270   20.3230 H   0  0  0  0  0  0  0  0  0  0  0  0
  -26.6240  -15.8290   19.9560 H   0  0  0  0  0  0  0  0  0  0  0  0
  -29.4970  -23.0140   18.9450 C   0  0  0  0  0  2  0  0  0  0  0  0
  -29.6090  -23.8520   20.7990 C   0  0  0  0  0  2  0  0  0  0  0  0
  -28.8950  -24.3200   19.5220 C   0  0  0  0  0  3  0  0  0  0  0  0
  -29.4760  -22.4700   20.3120 N   0  0  2  0  0  4  0  0  0  0  0  0
  -28.5550  -22.1250   20.5440 H   0  0  0  0  0  0  0  0  0  0  0  0
  -29.1960  -25.7010   18.8780 C   0  0  0  0  0  2  0  0  0  0  0  0
  -28.8970  -26.8280   19.7280 O   0  0  0  0  0  0  0  0  0  0  0  0
  -24.6830  -31.5600   23.0080 C   0  0  0  0  0  0  0  0  0  0  0  0
  -27.6530  -27.4450   19.7320 C   0  0  0  0  0  0  0  0  0  0  0  0
  -23.5820  -30.1840   21.2680 C   0  0  0  0  0  3  0  0  0  0  0  0
  -25.1540  -28.8010   19.7990 C   0  0  0  0  0  0  0  0  0  0  0  0
  -26.0840  -30.6940   21.1380 C   0  0  0  0  0  2  0  0  0  0  0  0
  -26.2650  -29.3570   20.4440 C   0  0  0  0  0  0  0  0  0  0  0  0
  -27.5080  -28.6790   20.4190 C   0  0  0  0  0  3  0  0  0  0  0  0
  -26.5170  -26.9060   19.0900 C   0  0  0  0  0  3  0  0  0  0  0  0
  -25.2770  -27.5720   19.1290 C   0  0  0  0  0  3  0  0  0  0  0  0
  -23.8560  -29.5760   19.8620 C   0  0  0  0  0  2  0  0  0  0  0  0
  -24.7990  -30.8270   21.8630 N   0  0  0  0  0  0  0  0  0  0  0  0
  -23.5820  -31.7440   23.5440 O   0  0  0  0  0  0  0  0  0  0  0  0
  -22.9730  -29.0820   22.1630 C   0  0  0  0  0  0  0  0  0  0  0  0
  -21.6570  -28.8510   22.0170 N   0  0  0  0  0  0  0  0  0  0  0  0
  -23.6770  -28.4370   22.9430 O   0  0  0  0  0  0  0  0  0  0  0  0
  -21.1420  -29.4310   21.3680 H   0  0  0  0  0  0  0  0  0  0  0  0
  -18.3350  -27.4990   22.4420 C   0  0  0  0  0  0  0  0  0  0  0  0
  -20.8830  -27.8320   22.7230 C   0  0  0  0  0  3  0  0  0  0  0  0
  -21.0340  -26.4520   22.0430 C   0  0  0  0  0  2  0  0  0  0  0  0
  -19.9420  -26.1620   21.0080 C   0  0  0  0  0  2  0  0  0  0  0  0
  -18.5590  -26.2110   21.6680 C   0  0  0  0  0  2  0  0  0  0  0  0
  -19.4280  -28.2670   22.9240 C   0  0  0  0  0  0  0  0  0  0  0  0
  -19.1700  -29.4770   23.6050 C   0  0  0  0  0  3  0  0  0  0  0  0
  -17.8490  -29.9220   23.8060 C   0  0  0  0  0  3  0  0  0  0  0  0
  -16.7700  -29.1490   23.3410 C   0  0  0  0  0  3  0  0  0  0  0  0
  -17.0130  -27.9380   22.6700 C   0  0  0  0  0  3  0  0  0  0  0  0
  -25.9240  -32.2210   23.6890 C   0  0  0  0  0  3  0  0  0  0  0  0
  -26.4570  -31.4150   24.9380 C   0  0  1  0  0  0  0  0  0  0  0  0
  -25.3510  -31.0640   25.9620 C   0  0  0  0  0  1  0  0  0  0  0  0
  -27.1130  -30.0890   24.4900 C   0  0  0  0  0  1  0  0  0  0  0  0
  -27.5600  -32.2240   25.6560 C   0  0  0  0  0  1  0  0  0  0  0  0
  -25.5410  -33.5890   24.0690 N   0  0  0  0  0  0  0  0  0  0  0  0
  -25.8570  -34.6900   23.3740 C   0  0  0  0  0  0  0  0  0  0  0  0
  -26.5680  -34.6630   22.3660 O   0  0  0  0  0  0  0  0  0  0  0  0
  -24.9040  -33.6860   24.8440 H   0  0  0  0  0  0  0  0  0  0  0  0
  -24.0560  -36.4130   23.0440 C   0  0  0  0  0  1  0  0  0  0  0  0
  -25.2910  -36.0320   23.8730 C   0  0  0  0  0  3  0  0  0  0  0  0
  -27.3510  -36.9800   24.8090 C   0  0  0  0  0  1  0  0  0  0  0  0
  -26.2730  -37.1370   23.8360 N   0  0  0  0  0  0  0  0  0  0  0  0
  -25.8190  -38.0290   24.0130 H   0  0  0  0  0  0  0  0  0  0  0  0
  2  4  1  0
  3  2  2  0
  3  6  1  0
  4  5  2  0
  4  1  1  0
  5  8  1  0
  6  7  2  0
  7  5  1  0
  7  9  1  0
 10 18  1  0
 11 16  1  0
 12 13  1  0
 12 11  1  0
 14 13  1  0
 14 23  1  0
 14 15  1  0
 16 10  1  0
 16 15  1  0
 17 10  2  0
 18  6  1  0
 18 19  1  0
 20 21  2  0
 21 40  1  0
 22 21  1  0
 22 25  1  0
 23 20  1  0
 23 24  1  0
 24 22  2  0
 25 26  1  0
 26 27  2  0
 28 31  1  0
 28 27  1  0
 29 28  2  0
 30 29  1  0
 30 25  2  0
 31 32  1  0
 32 37  2  0
 32 33  1  0
 33 34  2  0
 34 35  1  0
 35 39  1  0
 36 35  2  0
 37 36  1  0
 38 37  1  0
 40 41  1  0
 41 44  1  0
 41 43  1  0
 42 40  2  0
 45 20  1  0
 45 46  1  0
 47 45  1  0
 48 50  1  0
 48 51  1  0
 50 53  1  0
 50 49  1  0
 51 52  1  1
 51  1  1  0
 51 49  1  0
 53 54  1  0
 54 56  1  0
 55 66  2  0
 56 61  1  0
 57 65  1  0
 57 67  1  0
 58 64  1  0
 58 60  1  0
 59 65  1  0
 60 59  1  0
 61 60  2  0
 62 63  1  0
 62 56  2  0
 63 58  2  0
 64 57  1  0
 65 55  1  0
 67 69  2  0
 68 67  1  0
 70 68  1  0
 71 80  2  0
 71 76  1  0
 72 68  1  0
 72 76  1  0
 73 72  1  0
 74 75  1  0
 74 73  1  0
 75 71  1  0
 76 77  2  0
 77 78  1  0
 79 78  2  0
 80 79  1  0
 81 55  1  0
 81 86  1  0
 81 82  1  0
 82 85  1  1
 82 83  1  0
 84 82  1  0
 86 89  1  0
 87 91  1  0
 87 86  1  0
 88 87  2  0
 91 90  1  0
 93 91  1  0
 93 94  1  0
 93 92  1  0
M  ISO  4  10 100  18 100  53 101  54 101
M  END
>  <TORSDO>  (63) 
F 19

>  <SCORE>  (63) 
-12.959

>  <name>  (63) 
62

>  <ligand_id>  (63) 
62

>  <original_smiles>  (63) 
[H]c1c([H])c([H])c2c(c1[H])C([H])([H])C([H])([H])C([H])([H])C2([H])N([H])C(=O)C1([H])N(C(=O)C([H])(N([H])C(=O)C([H])(N([H])C([H])([H])[H])C([H])([H])[H])C(C([H])([H])[H])(C([H])([H])[H])C([H])([H])[H])C([H])([H])c2c([H])c(OC([H])([H])C3([H])C([H])([H])[N+]([H])(C([H])([H])c4c([H])c([H])c(N([H])C(=O)N5C([H])([H])C([H])([H])C([H])([H])C([H])(n6nc(-c7c([H])c([H])c(Oc8c([H])c([H])c(F)c([H])c8F)c([H])c7[H])c(C(=O)N([H])[H])c6N([H])[H])C5([H])[H])c(F)c4C([H])([H])[H])C3([H])[H])c([H])c([H])c2C1([H])[H]

>  <smiles>  (63) 
[H]c1c([H])c([H])c2c(c1[H])C([H])([H])C([H])([H])C([H])([H])C2([H])N([H])C(=O)C1([H])N(C(=O)C([H])(N([H])C(=O)C([H])(N([H])C([H])([H])[H])C([H])([H])[H])C(C([H])([H])[H])(C([H])([H])[H])C([H])([H])[H])C([H])([H])c2c([H])c(OC([H])([H])C3([H])C([H])([H])[N+]([H])(C([H])([H])c4c([H])c([H])c(N([H])C(=O)N5C([H])([H])C([H])([H])C([H])([H])C([H])(n6nc(-c7c([H])c([H])c(Oc8c([H])c([H])c(F)c([H])c8F)c([H])c7[H])c(C(=O)N([H])[H])c6N([H])[H])C5([H])[H])c(F)c4C([H])([H])[H])C3([H])[H])c([H])c([H])c2C1([H])[H]

$$$$
63:0:0
     RDKit          3D

 94103  0  0  1  0  0  0  0  0999 V2000
  -29.2650  -22.5500   19.4420 C   0  0  0  0  0  0  0  0  0  0  0  0
  -28.4200  -22.1750   18.4680 C   0  0  0  0  0  2  0  0  0  0  0  0
  -30.2210  -23.8670   21.1980 C   0  0  0  0  0  2  0  0  0  0  0  0
  -30.7440  -22.4130   21.2520 C   0  0  0  0  0  2  0  0  0  0  0  0
  -29.5910  -24.0350   19.8070 C   0  0  0  0  0  3  0  0  0  0  0  0
  -29.9340  -21.6510   20.3040 N   0  0  0  0  0  0  0  0  0  0  0  0
  -30.3010  -19.4470   19.1070 C   0  0  0  0  0  3  0  0  0  0  0  0
  -30.4910  -18.0240   19.1190 C   0  0  0  0  0  3  0  0  0  0  0  0
  -30.0750  -20.2080   20.2920 C   0  0  0  0  0  0  0  0  0  0  0  0
  -30.4420  -17.2710   20.3260 C   0  0  0  0  0  0  0  0  0  0  0  0
  -30.0420  -19.4430   21.4950 C   0  0  0  0  0  0  0  0  0  0  0  0
  -30.2050  -18.0260   21.5040 C   0  0  0  0  0  0  0  0  0  0  0  0
  -29.8020  -20.0620   22.6760 F   0  0  0  0  0  0  0  0  0  0  0  0
  -30.1190  -17.3680   22.6880 F   0  0  0  0  0  0  0  0  0  0  0  0
  -31.2500  -14.8210   19.8740 C   0  0  0  0  0  0  0  0  0  0  0  0
  -31.0620  -12.5490   18.8690 C   0  0  0  0  0  2  0  0  0  0  0  0
  -30.0090  -12.6060   17.7370 C   0  0  0  0  0  2  0  0  0  0  0  0
  -28.5830  -12.4070   18.2930 C   0  0  0  0  0  2  0  0  0  0  0  0
  -28.3020  -13.2810   19.5440 C   0  0  0  0  0  3  0  0  0  0  0  0
  -29.4560  -13.1730   20.5660 C   0  0  0  0  0  2  0  0  0  0  0  0
  -30.6980  -13.5640   19.8790 N   0  0  0  0  0  0  0  0  0  0  0  0
  -32.3260  -15.0460   19.3090 O   0  0  0  0  0  0  0  0  0  0  0  0
  -30.4940  -15.8090   20.4470 N   0  0  0  0  0  0  0  0  0  0  0  0
  -29.7670  -15.4350   21.0390 H   0  0  0  0  0  0  0  0  0  0  0  0
  -26.0290  -13.8360   20.6130 C   0  0  0  0  0  0  0  0  0  0  0  0
  -24.9850  -13.0450   21.0080 C   0  0  0  0  0  0  0  0  0  0  0  0
  -25.3910  -11.6990   20.7520 C   0  0  0  0  0  0  0  0  0  0  0  0
  -27.0070  -12.9700   20.1450 N   0  0  0  0  0  0  0  0  0  0  0  0
  -26.6330  -11.6720   20.2850 N   0  0  0  0  0  0  0  0  0  0  0  0
  -24.6470  -10.4380   20.8700 C   0  0  0  0  0  0  0  0  0  0  0  0
  -25.0670   -9.4110   21.7430 C   0  0  0  0  0  3  0  0  0  0  0  0
  -24.3250   -8.2150   21.8520 C   0  0  0  0  0  3  0  0  0  0  0  0
  -23.1460   -8.0390   21.0890 C   0  0  0  0  0  0  0  0  0  0  0  0
  -22.7450   -9.0550   20.2050 C   0  0  0  0  0  3  0  0  0  0  0  0
  -23.4880  -10.2420   20.0930 C   0  0  0  0  0  3  0  0  0  0  0  0
  -22.3760   -6.9010   21.1100 O   0  0  0  0  0  0  0  0  0  0  0  0
  -22.1900   -6.1810   22.2620 C   0  0  0  0  0  0  0  0  0  0  0  0
  -21.6380   -6.7610   23.4250 C   0  0  0  0  0  3  0  0  0  0  0  0
  -21.4000   -5.9660   24.5640 C   0  0  0  0  0  3  0  0  0  0  0  0
  -21.7030   -4.5920   24.5400 C   0  0  0  0  0  0  0  0  0  0  0  0
  -22.2470   -4.0110   23.3810 C   0  0  0  0  0  3  0  0  0  0  0  0
  -22.4870   -4.8030   22.2450 C   0  0  0  0  0  0  0  0  0  0  0  0
  -22.9920   -4.2340   21.1230 F   0  0  0  0  0  0  0  0  0  0  0  0
  -21.4680   -3.8260   25.6310 F   0  0  0  0  0  0  0  0  0  0  0  0
  -23.6480  -13.5130   21.5070 C   0  0  0  0  0  0  0  0  0  0  0  0
  -23.0190  -12.7460   22.3890 N   0  0  0  0  0  0  0  0  0  0  0  0
  -23.1740  -14.5910   21.1490 O   0  0  0  0  0  0  0  0  0  0  0  0
  -23.4170  -11.8730   22.7030 H   0  0  0  0  0  0  0  0  0  0  0  0
  -22.1260  -13.0390   22.7610 H   0  0  0  0  0  0  0  0  0  0  0  0
  -26.2240  -15.2130   20.5900 N   0  0  0  0  0  0  0  0  0  0  0  0
  -25.5030  -15.8650   20.8810 H   0  0  0  0  0  0  0  0  0  0  0  0
  -27.0430  -15.6710   20.2120 H   0  0  0  0  0  0  0  0  0  0  0  0
  -28.4150  -25.1200   19.7250 C   0  0  0  0  0  2  0  0  0  0  0  0
  -28.6450  -26.5570   20.0320 O   0  0  0  0  0  0  0  0  0  0  0  0
  -25.0310  -31.8140   23.4240 C   0  0  0  0  0  0  0  0  0  0  0  0
  -27.5380  -27.4270   20.0390 C   0  0  0  0  0  0  0  0  0  0  0  0
  -23.7850  -30.5450   21.7110 C   0  0  0  0  0  3  0  0  0  0  0  0
  -25.1950  -29.0730   20.1680 C   0  0  0  0  0  0  0  0  0  0  0  0
  -26.3270  -30.8390   21.5160 C   0  0  0  0  0  2  0  0  0  0  0  0
  -26.3780  -29.5030   20.7800 C   0  0  0  0  0  0  0  0  0  0  0  0
  -27.5510  -28.6910   20.7090 C   0  0  0  0  0  3  0  0  0  0  0  0
  -26.3280  -27.0600   19.4010 C   0  0  0  0  0  3  0  0  0  0  0  0
  -25.1720  -27.8570   19.4720 C   0  0  0  0  0  3  0  0  0  0  0  0
  -23.9720  -29.9610   20.2880 C   0  0  0  0  0  2  0  0  0  0  0  0
  -25.0680  -31.0790   22.2750 N   0  0  0  0  0  0  0  0  0  0  0  0
  -23.9590  -32.0730   23.9900 O   0  0  0  0  0  0  0  0  0  0  0  0
  -23.1170  -29.4790   22.6110 C   0  0  0  0  0  0  0  0  0  0  0  0
  -21.7990  -29.2790   22.4390 N   0  0  0  0  0  0  0  0  0  0  0  0
  -23.7840  -28.8340   23.4230 O   0  0  0  0  0  0  0  0  0  0  0  0
  -21.3180  -29.8560   21.7630 H   0  0  0  0  0  0  0  0  0  0  0  0
  -18.4440  -27.9600   22.7540 C   0  0  0  0  0  0  0  0  0  0  0  0
  -20.9780  -28.2960   23.1480 C   0  0  0  0  0  3  0  0  0  0  0  0
  -21.1530  -26.8820   22.5440 C   0  0  0  0  0  2  0  0  0  0  0  0
  -20.1110  -26.5490   21.4730 C   0  0  0  0  0  2  0  0  0  0  0  0
  -18.6970  -26.6340   22.0560 C   0  0  0  0  0  2  0  0  0  0  0  0
  -19.5170  -28.7480   23.2530 C   0  0  0  0  0  0  0  0  0  0  0  0
  -19.2290  -29.9860   23.8650 C   0  0  0  0  0  3  0  0  0  0  0  0
  -17.9020  -30.4420   23.9810 C   0  0  0  0  0  3  0  0  0  0  0  0
  -16.8430  -29.6530   23.4990 C   0  0  0  0  0  3  0  0  0  0  0  0
  -17.1150  -28.4130   22.8920 C   0  0  0  0  0  3  0  0  0  0  0  0
  -26.3300  -32.3860   24.0700 C   0  0  0  0  0  3  0  0  0  0  0  0
  -26.0570  -33.7740   24.4660 N   0  0  0  0  0  0  0  0  0  0  0  0
  -26.3650  -34.8510   23.7310 C   0  0  0  0  0  0  0  0  0  0  0  0
  -26.9790  -34.7780   22.6630 O   0  0  0  0  0  0  0  0  0  0  0  0
  -25.5050  -33.9050   25.3020 H   0  0  0  0  0  0  0  0  0  0  0  0
  -24.6270  -36.6620   23.5590 C   0  0  0  0  0  1  0  0  0  0  0  0
  -25.9220  -36.2280   24.2640 C   0  0  0  0  0  3  0  0  0  0  0  0
  -28.1160  -37.0810   24.9630 C   0  0  0  0  0  1  0  0  0  0  0  0
  -26.9510  -37.2790   24.1060 N   0  0  0  0  0  0  0  0  0  0  0  0
  -26.5620  -38.1970   24.3060 H   0  0  0  0  0  0  0  0  0  0  0  0
  -26.8300  -31.5440   25.3080 C   0  0  1  0  0  0  0  0  0  0  0  0
  -25.7340  -31.2790   26.3660 C   0  0  0  0  0  1  0  0  0  0  0  0
  -27.3820  -30.1740   24.8480 C   0  0  0  0  0  1  0  0  0  0  0  0
  -28.0010  -32.2780   26.0020 C   0  0  0  0  0  1  0  0  0  0  0  0
  1  5  1  0
  1  6  1  0
  2  1  2  0
  3  4  1  0
  5 53  1  0
  5  3  1  0
  6  4  1  0
  7  8  2  0
  7  9  1  0
  8 10  1  0
  9  6  1  0
  9 11  2  0
 10 23  1  0
 10 12  2  0
 11 12  1  0
 11 13  1  0
 12 14  1  0
 15 21  1  0
 15 23  1  0
 16 21  1  0
 17 18  1  0
 17 16  1  0
 19 18  1  0
 19 28  1  0
 19 20  1  0
 21 20  1  0
 22 15  2  0
 23 24  1  0
 25 26  2  0
 26 45  1  0
 27 30  1  0
 27 26  1  0
 28 29  1  0
 28 25  1  0
 29 27  2  0
 30 31  1  0
 31 32  2  0
 33 36  1  0
 33 32  1  0
 34 33  2  0
 35 34  1  0
 35 30  2  0
 36 37  1  0
 37 38  1  0
 38 39  2  0
 40 39  1  0
 40 44  1  0
 41 40  2  0
 42 37  2  0
 42 41  1  0
 43 42  1  0
 45 46  1  0
 46 48  1  0
 46 49  1  0
 47 45  2  0
 50 25  1  0
 50 51  1  0
 52 50  1  0
 53 54  1  0
 54 56  1  0
 55 66  2  0
 56 61  1  0
 57 65  1  0
 57 67  1  0
 58 64  1  0
 58 60  1  0
 59 65  1  0
 60 59  1  0
 61 60  2  0
 62 63  1  0
 62 56  2  0
 63 58  2  0
 64 57  1  0
 65 55  1  0
 67 69  2  0
 68 67  1  0
 70 68  1  0
 71 80  2  0
 71 76  1  0
 72 68  1  0
 72 76  1  0
 73 72  1  0
 74 75  1  0
 74 73  1  0
 75 71  1  0
 76 77  2  0
 77 78  1  0
 79 78  2  0
 80 79  1  0
 81 55  1  0
 81 82  1  0
 81 91  1  0
 82 85  1  0
 83 87  1  0
 83 82  1  0
 84 83  2  0
 87 86  1  0
 89 87  1  0
 89 90  1  0
 89 88  1  0
 91 94  1  1
 91 92  1  0
 93 91  1  0
M  ISO  4  15 100  23 100  53 101  54 101
M  END
>  <TORSDO>  (64) 
F 18

>  <SCORE>  (64) 
-12.047

>  <name>  (64) 
63

>  <ligand_id>  (64) 
63

>  <original_smiles>  (64) 
[H]C([H])=C1N(c2c([H])c([H])c(N([H])C(=O)N3C([H])([H])C([H])([H])C([H])([H])C([H])(n4nc(-c5c([H])c([H])c(Oc6c([H])c([H])c(F)c([H])c6F)c([H])c5[H])c(C(=O)N([H])[H])c4N([H])[H])C3([H])[H])c(F)c2F)C([H])([H])C([H])([H])C1([H])C([H])([H])Oc1c([H])c([H])c2c(c1[H])C([H])([H])N(C(=O)C([H])(N([H])C(=O)C([H])(N([H])C([H])([H])[H])C([H])([H])[H])C(C([H])([H])[H])(C([H])([H])[H])C([H])([H])[H])C([H])(C(=O)N([H])C1([H])c3c([H])c([H])c([H])c([H])c3C([H])([H])C([H])([H])C1([H])[H])C2([H])[H]

>  <smiles>  (64) 
[H]C([H])=C1N(c2c([H])c([H])c(N([H])C(=O)N3C([H])([H])C([H])([H])C([H])([H])C([H])(n4nc(-c5c([H])c([H])c(Oc6c([H])c([H])c(F)c([H])c6F)c([H])c5[H])c(C(=O)N([H])[H])c4N([H])[H])C3([H])[H])c(F)c2F)C([H])([H])C([H])([H])C1([H])C([H])([H])Oc1c([H])c([H])c2c(c1[H])C([H])([H])N(C(=O)C([H])(N([H])C(=O)C([H])(N([H])C([H])([H])[H])C([H])([H])[H])C(C([H])([H])[H])(C([H])([H])[H])C([H])([H])[H])C([H])(C(=O)N([H])C1([H])c3c([H])c([H])c([H])c([H])c3C([H])([H])C([H])([H])C1([H])[H])C2([H])[H]

$$$$
64:0:0
     RDKit          3D

 94103  0  0  1  0  0  0  0  0999 V2000
  -28.9480  -22.4470   20.2640 C   0  0  0  0  0  0  0  0  0  0  0  0
  -26.8490  -22.2840   18.2620 C   0  0  0  0  0  2  0  0  0  0  0  0
  -27.1240  -23.6820   18.8170 C   0  0  0  0  0  2  0  0  0  0  0  0
  -28.1310  -21.4560   18.1740 C   0  0  0  0  0  2  0  0  0  0  0  0
  -27.9330  -23.6780   20.1300 C   0  0  0  0  0  3  0  0  0  0  0  0
  -28.8200  -21.3080   19.4750 N   0  0  0  0  0  0  0  0  0  0  0  0
  -29.8170  -22.5180   21.1370 O   0  0  0  0  0  0  0  0  0  0  0  0
  -29.4650  -19.4570   21.1190 C   0  0  0  0  0  3  0  0  0  0  0  0
  -29.7700  -18.0900   21.3930 C   0  0  0  0  0  3  0  0  0  0  0  0
  -29.6130  -18.9860   18.7670 C   0  0  0  0  0  3  0  0  0  0  0  0
  -29.3380  -19.9510   19.7900 C   0  0  0  0  0  0  0  0  0  0  0  0
  -29.9790  -17.1300   20.3680 C   0  0  0  0  0  0  0  0  0  0  0  0
  -29.9130  -17.6160   19.0350 C   0  0  0  0  0  0  0  0  0  0  0  0
  -30.0630  -16.7600   17.9940 F   0  0  0  0  0  0  0  0  0  0  0  0
  -30.7760  -14.6950   20.1280 C   0  0  0  0  0  0  0  0  0  0  0  0
  -30.5200  -12.4740   19.0520 C   0  0  0  0  0  2  0  0  0  0  0  0
  -29.5190  -12.6210   17.8830 C   0  0  0  0  0  2  0  0  0  0  0  0
  -28.0700  -12.4500   18.3740 C   0  0  0  0  0  2  0  0  0  0  0  0
  -27.7650  -13.2970   19.6350 C   0  0  0  0  0  3  0  0  0  0  0  0
  -28.8700  -13.1270   20.7010 C   0  0  0  0  0  2  0  0  0  0  0  0
  -30.1640  -13.4710   20.0830 N   0  0  0  0  0  0  0  0  0  0  0  0
  -31.8920  -14.8780   19.6280 O   0  0  0  0  0  0  0  0  0  0  0  0
  -30.0660  -15.7100   20.7000 N   0  0  0  0  0  0  0  0  0  0  0  0
  -29.3210  -15.3840   21.2950 H   0  0  0  0  0  0  0  0  0  0  0  0
  -25.4050  -13.8800   20.4760 C   0  0  0  0  0  0  0  0  0  0  0  0
  -24.3510  -13.1010   20.8710 C   0  0  0  0  0  0  0  0  0  0  0  0
  -24.8070  -11.7520   20.7790 C   0  0  0  0  0  0  0  0  0  0  0  0
  -26.4360  -13.0060   20.1700 N   0  0  0  0  0  0  0  0  0  0  0  0
  -26.0820  -11.7190   20.4110 N   0  0  0  0  0  0  0  0  0  0  0  0
  -24.0870  -10.4840   20.9660 C   0  0  0  0  0  0  0  0  0  0  0  0
  -24.5210   -9.5170   21.9010 C   0  0  0  0  0  3  0  0  0  0  0  0
  -23.7980   -8.3160   22.0740 C   0  0  0  0  0  3  0  0  0  0  0  0
  -22.6250   -8.0750   21.3200 C   0  0  0  0  0  0  0  0  0  0  0  0
  -22.2100   -9.0330   20.3780 C   0  0  0  0  0  3  0  0  0  0  0  0
  -22.9330  -10.2240   20.2020 C   0  0  0  0  0  3  0  0  0  0  0  0
  -21.8790   -6.9250   21.4030 O   0  0  0  0  0  0  0  0  0  0  0  0
  -21.7840   -6.2110   22.5720 C   0  0  0  0  0  0  0  0  0  0  0  0
  -21.2580   -6.7800   23.7520 C   0  0  0  0  0  3  0  0  0  0  0  0
  -21.1160   -5.9920   24.9130 C   0  0  0  0  0  3  0  0  0  0  0  0
  -21.4840   -4.6330   24.8890 C   0  0  0  0  0  0  0  0  0  0  0  0
  -21.9990   -4.0630   23.7130 C   0  0  0  0  0  3  0  0  0  0  0  0
  -22.1450   -4.8500   22.5560 C   0  0  0  0  0  0  0  0  0  0  0  0
  -22.6240   -4.2900   21.4190 F   0  0  0  0  0  0  0  0  0  0  0  0
  -21.3410   -3.8730   26.0000 F   0  0  0  0  0  0  0  0  0  0  0  0
  -22.9690  -13.5780   21.2150 C   0  0  0  0  0  0  0  0  0  0  0  0
  -22.2720  -12.8610   22.0900 N   0  0  0  0  0  0  0  0  0  0  0  0
  -22.5150  -14.6200   20.7470 O   0  0  0  0  0  0  0  0  0  0  0  0
  -22.6500  -12.0190   22.4990 H   0  0  0  0  0  0  0  0  0  0  0  0
  -21.3500  -13.1710   22.3630 H   0  0  0  0  0  0  0  0  0  0  0  0
  -25.5670  -15.2520   20.3310 N   0  0  0  0  0  0  0  0  0  0  0  0
  -24.8140  -15.9080   20.4930 H   0  0  0  0  0  0  0  0  0  0  0  0
  -26.4080  -15.6890   19.9730 H   0  0  0  0  0  0  0  0  0  0  0  0
  -28.2630  -25.1250   20.7990 C   0  0  0  0  0  2  0  0  0  0  0  0
  -28.3640  -26.4620   20.1350 O   0  0  0  0  0  0  0  0  0  0  0  0
  -24.6070  -31.8870   23.2150 C   0  0  0  0  0  0  0  0  0  0  0  0
  -27.2620  -27.3320   20.1700 C   0  0  0  0  0  0  0  0  0  0  0  0
  -23.4260  -30.4800   21.5660 C   0  0  0  0  0  3  0  0  0  0  0  0
  -24.9000  -28.9410   20.1550 C   0  0  0  0  0  0  0  0  0  0  0  0
  -25.9690  -30.8050   21.4130 C   0  0  0  0  0  2  0  0  0  0  0  0
  -26.0610  -29.4250   20.7720 C   0  0  0  0  0  0  0  0  0  0  0  0
  -27.2490  -28.6280   20.7790 C   0  0  0  0  0  3  0  0  0  0  0  0
  -26.0910  -26.9250   19.5080 C   0  0  0  0  0  3  0  0  0  0  0  0
  -24.9170  -27.6930   19.5150 C   0  0  0  0  0  3  0  0  0  0  0  0
  -23.6580  -29.8080   20.1880 C   0  0  0  0  0  2  0  0  0  0  0  0
  -24.6860  -31.0760   22.1190 N   0  0  0  0  0  0  0  0  0  0  0  0
  -23.5160  -32.1580   23.7390 O   0  0  0  0  0  0  0  0  0  0  0  0
  -22.7650  -29.4550   22.5180 C   0  0  0  0  0  0  0  0  0  0  0  0
  -21.4390  -29.2760   22.3910 N   0  0  0  0  0  0  0  0  0  0  0  0
  -23.4450  -28.8270   23.3330 O   0  0  0  0  0  0  0  0  0  0  0  0
  -20.9440  -29.8360   21.7110 H   0  0  0  0  0  0  0  0  0  0  0  0
  -18.0580  -28.1050   22.9150 C   0  0  0  0  0  0  0  0  0  0  0  0
  -20.6230  -28.3320   23.1560 C   0  0  0  0  0  3  0  0  0  0  0  0
  -20.7030  -26.9070   22.5580 C   0  0  0  0  0  2  0  0  0  0  0  0
  -19.5840  -26.6100   21.5520 C   0  0  0  0  0  2  0  0  0  0  0  0
  -18.2120  -26.7630   22.2150 C   0  0  0  0  0  2  0  0  0  0  0  0
  -19.1910  -28.8480   23.3430 C   0  0  0  0  0  0  0  0  0  0  0  0
  -18.9920  -30.1040   23.9560 C   0  0  0  0  0  3  0  0  0  0  0  0
  -17.6940  -30.6150   24.1500 C   0  0  0  0  0  3  0  0  0  0  0  0
  -16.5770  -29.8690   23.7360 C   0  0  0  0  0  3  0  0  0  0  0  0
  -16.7610  -28.6160   23.1250 C   0  0  0  0  0  3  0  0  0  0  0  0
  -25.8840  -32.5280   23.8440 C   0  0  0  0  0  3  0  0  0  0  0  0
  -25.5600  -33.9250   24.1710 N   0  0  0  0  0  0  0  0  0  0  0  0
  -25.8970  -34.9810   23.4210 C   0  0  0  0  0  0  0  0  0  0  0  0
  -26.5830  -34.8840   22.4000 O   0  0  0  0  0  0  0  0  0  0  0  0
  -24.9590  -34.0750   24.9670 H   0  0  0  0  0  0  0  0  0  0  0  0
  -24.1800  -36.7750   23.0240 C   0  0  0  0  0  1  0  0  0  0  0  0
  -25.3950  -36.3660   23.8720 C   0  0  0  0  0  3  0  0  0  0  0  0
  -27.4990  -37.2500   24.7810 C   0  0  0  0  0  1  0  0  0  0  0  0
  -26.4310  -37.4200   23.8000 N   0  0  0  0  0  0  0  0  0  0  0  0
  -26.0190  -38.3400   23.9310 H   0  0  0  0  0  0  0  0  0  0  0  0
  -26.3930  -31.7620   25.1260 C   0  0  1  0  0  0  0  0  0  0  0  0
  -25.2910  -31.5170   26.1820 C   0  0  0  0  0  1  0  0  0  0  0  0
  -26.9900  -30.3860   24.7450 C   0  0  0  0  0  1  0  0  0  0  0  0
  -27.5280  -32.5640   25.8000 C   0  0  0  0  0  1  0  0  0  0  0  0
  1  7  2  0
  2  3  1  0
  3  5  1  0
  4  2  1  0
  4  6  1  0
  5  1  1  0
  5 53  1  0
  6 11  1  0
  6  1  1  0
  8  9  1  0
 10 13  2  0
 10 11  1  0
 11  8  2  0
 12 23  1  0
 12  9  2  0
 13 12  1  0
 14 13  1  0
 15 23  1  0
 16 21  1  0
 17 18  1  0
 17 16  1  0
 19 18  1  0
 19 28  1  0
 19 20  1  0
 21 15  1  0
 21 20  1  0
 22 15  2  0
 23 24  1  0
 25 26  2  0
 26 45  1  0
 27 26  1  0
 27 30  1  0
 28 29  1  0
 28 25  1  0
 29 27  2  0
 30 31  1  0
 31 32  2  0
 33 36  1  0
 33 32  1  0
 34 33  2  0
 35 34  1  0
 35 30  2  0
 36 37  1  0
 37 38  1  0
 38 39  2  0
 40 39  1  0
 40 44  1  0
 41 40  2  0
 42 37  2  0
 42 41  1  0
 43 42  1  0
 45 46  1  0
 46 49  1  0
 46 48  1  0
 47 45  2  0
 50 25  1  0
 50 51  1  0
 52 50  1  0
 54 56  1  0
 54 53  1  0
 55 66  2  0
 56 61  1  0
 57 65  1  0
 57 67  1  0
 58 64  1  0
 58 60  1  0
 59 65  1  0
 60 61  2  0
 60 59  1  0
 62 63  1  0
 62 56  2  0
 63 58  2  0
 64 57  1  0
 65 55  1  0
 67 69  2  0
 68 67  1  0
 70 68  1  0
 71 80  2  0
 71 76  1  0
 72 68  1  0
 72 76  1  0
 73 72  1  0
 74 75  1  0
 74 73  1  0
 75 71  1  0
 76 77  2  0
 77 78  1  0
 79 78  2  0
 80 79  1  0
 81 55  1  0
 81 82  1  0
 81 91  1  0
 82 85  1  0
 83 87  1  0
 83 82  1  0
 84 83  2  0
 87 86  1  0
 89 87  1  0
 89 90  1  0
 89 88  1  0
 91 94  1  1
 91 92  1  0
 93 91  1  0
M  ISO  4  15 100  23 100  53 101  54 101
M  END
>  <TORSDO>  (65) 
F 18

>  <SCORE>  (65) 
-14.316

>  <name>  (65) 
64

>  <ligand_id>  (65) 
64

>  <original_smiles>  (65) 
[H]c1c([H])c([H])c2c(c1[H])C([H])([H])C([H])([H])C([H])([H])C2([H])N([H])C(=O)C1([H])N(C(=O)C([H])(N([H])C(=O)C([H])(N([H])C([H])([H])[H])C([H])([H])[H])C(C([H])([H])[H])(C([H])([H])[H])C([H])([H])[H])C([H])([H])c2c([H])c(OC([H])([H])C3([H])C(=O)N(c4c([H])c([H])c(N([H])C(=O)N5C([H])([H])C([H])([H])C([H])([H])C([H])(n6nc(-c7c([H])c([H])c(Oc8c([H])c([H])c(F)c([H])c8F)c([H])c7[H])c(C(=O)N([H])[H])c6N([H])[H])C5([H])[H])c(F)c4[H])C([H])([H])C([H])([H])C3([H])[H])c([H])c([H])c2C1([H])[H]

>  <smiles>  (65) 
[H]c1c([H])c([H])c2c(c1[H])C([H])([H])C([H])([H])C([H])([H])C2([H])N([H])C(=O)C1([H])N(C(=O)C([H])(N([H])C(=O)C([H])(N([H])C([H])([H])[H])C([H])([H])[H])C(C([H])([H])[H])(C([H])([H])[H])C([H])([H])[H])C([H])([H])c2c([H])c(OC([H])([H])C3([H])C(=O)N(c4c([H])c([H])c(N([H])C(=O)N5C([H])([H])C([H])([H])C([H])([H])C([H])(n6nc(-c7c([H])c([H])c(Oc8c([H])c([H])c(F)c([H])c8F)c([H])c7[H])c(C(=O)N([H])[H])c6N([H])[H])C5([H])[H])c(F)c4[H])C([H])([H])C([H])([H])C3([H])[H])c([H])c([H])c2C1([H])[H]

$$$$
65:0:0
     RDKit          3D

105115  0  0  1  0  0  0  0  0999 V2000
  -30.6130  -14.6340   19.8720 C   0  0  0  0  0  0  0  0  0  0  0  0
  -30.3310  -12.2040   19.0900 C   0  0  0  0  0  2  0  0  0  0  0  0
  -29.3090  -12.0290   17.9450 C   0  0  0  0  0  2  0  0  0  0  0  0
  -27.8920  -11.8470   18.5120 C   0  0  0  0  0  2  0  0  0  0  0  0
  -27.5890  -12.8510   19.6570 C   0  0  0  0  0  3  0  0  0  0  0  0
  -28.7390  -12.9520   20.6810 C   0  0  0  0  0  2  0  0  0  0  0  0
  -29.9130  -13.4000   19.9120 N   0  0  0  0  0  0  0  0  0  0  0  0
  -31.8220  -14.4420   19.6790 O   0  0  0  0  0  0  0  0  0  0  0  0
  -31.5200  -16.6190   17.8750 C   0  0  0  0  0  3  0  0  0  0  0  0
  -32.3860  -17.4120   17.1360 C   0  0  0  0  0  3  0  0  0  0  0  0
  -31.7200  -19.3670   18.4410 C   0  0  0  0  0  0  0  0  0  0  0  0
  -30.7550  -17.1150   18.9580 C   0  0  0  0  0  0  0  0  0  0  0  0
  -30.6580  -18.6190   19.0820 C   0  0  0  0  0  0  0  0  0  0  0  0
  -32.5580  -18.7570   17.4640 C   0  0  0  0  0  0  0  0  0  0  0  0
  -29.0600  -16.6450   20.4520 C   0  0  0  0  0  0  0  0  0  0  0  0
  -28.7170  -18.2430   20.3190 C   0  0  0  0  0  2  0  0  0  0  0  0
  -30.1020  -16.0360   19.7840 N   0  0  0  0  0  0  0  0  0  0  0  0
  -29.6200  -19.3640   19.8170 N   0  0  0  0  0  0  0  0  0  0  0  0
  -28.3090  -16.0070   21.1870 O   0  0  0  0  0  0  0  0  0  0  0  0
  -25.3440  -13.5230   20.6560 C   0  0  0  0  0  0  0  0  0  0  0  0
  -24.2680  -12.7990   21.0790 C   0  0  0  0  0  0  0  0  0  0  0  0
  -24.6340  -11.4250   20.9370 C   0  0  0  0  0  0  0  0  0  0  0  0
  -26.2990  -12.5970   20.2800 N   0  0  0  0  0  0  0  0  0  0  0  0
  -25.8880  -11.3230   20.5120 N   0  0  0  0  0  0  0  0  0  0  0  0
  -23.8390  -10.2060   21.1280 C   0  0  0  0  0  0  0  0  0  0  0  0
  -24.3060   -9.1330   21.9200 C   0  0  0  0  0  3  0  0  0  0  0  0
  -23.5130   -7.9810   22.1040 C   0  0  0  0  0  3  0  0  0  0  0  0
  -22.2360   -7.8940   21.5000 C   0  0  0  0  0  0  0  0  0  0  0  0
  -21.7850   -8.9530   20.6920 C   0  0  0  0  0  3  0  0  0  0  0  0
  -22.5790  -10.0970   20.5050 C   0  0  0  0  0  3  0  0  0  0  0  0
  -21.4050   -6.8040   21.6080 O   0  0  0  0  0  0  0  0  0  0  0  0
  -21.5140   -5.9170   22.6480 C   0  0  0  0  0  0  0  0  0  0  0  0
  -21.3740   -6.3220   23.9930 C   0  0  0  0  0  3  0  0  0  0  0  0
  -21.4210   -5.3650   25.0270 C   0  0  0  0  0  3  0  0  0  0  0  0
  -21.6000   -4.0020   24.7180 C   0  0  0  0  0  0  0  0  0  0  0  0
  -21.7330   -3.5960   23.3790 C   0  0  0  0  0  3  0  0  0  0  0  0
  -21.6860   -4.5500   22.3470 C   0  0  0  0  0  0  0  0  0  0  0  0
  -21.7930   -4.1500   21.0570 F   0  0  0  0  0  0  0  0  0  0  0  0
  -21.6380   -3.0810   25.7080 F   0  0  0  0  0  0  0  0  0  0  0  0
  -22.9410  -13.3500   21.5050 C   0  0  0  0  0  0  0  0  0  0  0  0
  -22.2560  -12.6640   22.4120 N   0  0  0  0  0  0  0  0  0  0  0  0
  -22.5280  -14.4240   21.0680 O   0  0  0  0  0  0  0  0  0  0  0  0
  -22.6110  -11.7920   22.7790 H   0  0  0  0  0  0  0  0  0  0  0  0
  -21.3650  -13.0070   22.7420 H   0  0  0  0  0  0  0  0  0  0  0  0
  -25.5880  -14.8880   20.5370 N   0  0  0  0  0  0  0  0  0  0  0  0
  -24.9010  -15.5770   20.8210 H   0  0  0  0  0  0  0  0  0  0  0  0
  -26.5290  -15.2610   20.4770 H   0  0  0  0  0  0  0  0  0  0  0  0
  -33.5710  -19.4470   16.7790 N   0  0  0  0  0  0  0  0  0  0  0  0
  -33.5470  -20.4600   16.7500 H   0  0  0  0  0  0  0  0  0  0  0  0
  -34.9160  -18.9090   16.9360 C   0  0  0  0  0  2  0  0  0  0  0  0
  -35.9680  -19.9310   16.5040 C   0  0  0  0  0  3  0  0  0  0  0  0
  -37.1860  -19.4270   16.6920 F   0  0  0  0  0  0  0  0  0  0  0  0
  -35.8420  -21.0540   17.2160 F   0  0  0  0  0  0  0  0  0  0  0  0
  -32.0600  -20.8220   18.8160 C   0  0  0  0  0  2  0  0  0  0  0  0
  -35.0170  -21.9770   21.8240 C   0  0  0  0  0  2  0  0  0  0  0  0
  -35.0450  -22.6320   20.4390 C   0  0  0  0  0  2  0  0  0  0  0  0
  -34.6510  -20.4980   21.6820 C   0  0  0  0  0  2  0  0  0  0  0  0
  -33.7120  -22.4270   19.6950 C   0  0  0  0  0  2  0  0  0  0  0  0
  -33.3170  -20.3240   20.9330 C   0  0  0  0  0  2  0  0  0  0  0  0
  -33.3210  -20.9900   19.5980 N   0  0  1  0  0  4  0  0  0  0  0  0
  -34.0420  -20.5390   19.0550 H   0  0  0  0  0  0  0  0  0  0  0  0
  -28.9670  -20.7950   19.3770 C   0  0  0  0  0  2  0  0  0  0  0  0
  -29.0580  -22.4260   20.0590 C   0  0  0  0  0  3  0  0  0  0  0  0
  -28.3000  -23.9150   19.5140 C   0  0  0  0  0  3  0  0  0  0  0  0
  -28.4840  -25.4700   19.9040 O   0  0  0  0  0  0  0  0  0  0  0  0
  -24.7850  -31.2110   22.9050 C   0  0  0  0  0  0  0  0  0  0  0  0
  -27.4680  -26.5270   19.8030 C   0  0  0  0  0  0  0  0  0  0  0  0
  -23.6550  -29.8770   21.1720 C   0  0  0  0  0  3  0  0  0  0  0  0
  -25.1580  -28.3470   19.7370 C   0  0  0  0  0  0  0  0  0  0  0  0
  -26.2190  -30.1190   21.1230 C   0  0  0  0  0  2  0  0  0  0  0  0
  -26.3140  -28.7440   20.4200 C   0  0  0  0  0  0  0  0  0  0  0  0
  -27.4640  -27.8500   20.4390 C   0  0  0  0  0  3  0  0  0  0  0  0
  -26.2950  -26.2700   19.0620 C   0  0  0  0  0  3  0  0  0  0  0  0
  -25.1690  -27.1260   19.0430 C   0  0  0  0  0  3  0  0  0  0  0  0
  -23.9310  -29.2520   19.7760 C   0  0  0  0  0  2  0  0  0  0  0  0
  -24.9050  -30.4280   21.7880 N   0  0  0  0  0  0  0  0  0  0  0  0
  -23.6770  -31.4760   23.3990 O   0  0  0  0  0  0  0  0  0  0  0  0
  -22.9350  -28.8400   22.0710 C   0  0  0  0  0  0  0  0  0  0  0  0
  -21.6070  -28.6940   21.9050 N   0  0  0  0  0  0  0  0  0  0  0  0
  -23.5740  -28.1710   22.8860 O   0  0  0  0  0  0  0  0  0  0  0  0
  -21.1490  -29.2800   21.2220 H   0  0  0  0  0  0  0  0  0  0  0  0
  -18.1980  -27.5110   22.2820 C   0  0  0  0  0  0  0  0  0  0  0  0
  -20.7560  -27.7310   22.6110 C   0  0  0  0  0  3  0  0  0  0  0  0
  -20.8530  -26.3280   21.9690 C   0  0  0  0  0  2  0  0  0  0  0  0
  -19.7690  -26.0690   20.9180 C   0  0  0  0  0  2  0  0  0  0  0  0
  -18.3750  -26.1980   21.5380 C   0  0  0  0  0  2  0  0  0  0  0  0
  -19.3170  -28.2390   22.7710 C   0  0  0  0  0  0  0  0  0  0  0  0
  -19.0990  -29.4690   23.4290 C   0  0  0  0  0  3  0  0  0  0  0  0
  -17.7950  -29.9710   23.6030 C   0  0  0  0  0  3  0  0  0  0  0  0
  -16.6910  -29.2410   23.1280 C   0  0  0  0  0  3  0  0  0  0  0  0
  -16.8930  -28.0140   22.4730 C   0  0  0  0  0  3  0  0  0  0  0  0
  -26.0320  -31.8270   23.6090 C   0  0  0  0  0  3  0  0  0  0  0  0
  -25.6970  -33.2090   23.9920 N   0  0  0  0  0  0  0  0  0  0  0  0
  -26.0780  -34.3050   23.3220 C   0  0  0  0  0  0  0  0  0  0  0  0
  -26.8150  -34.2580   22.3320 O   0  0  0  0  0  0  0  0  0  0  0  0
  -25.0530  -33.3190   24.7620 H   0  0  0  0  0  0  0  0  0  0  0  0
  -24.3790  -36.1270   22.9640 C   0  0  0  0  0  1  0  0  0  0  0  0
  -25.5670  -35.6710   23.8260 C   0  0  0  0  0  3  0  0  0  0  0  0
  -27.6470  -36.4990   24.8350 C   0  0  0  0  0  1  0  0  0  0  0  0
  -26.6070  -36.7230   23.8340 N   0  0  0  0  0  0  0  0  0  0  0  0
  -26.1940  -37.6370   24.0000 H   0  0  0  0  0  0  0  0  0  0  0  0
  -26.4960  -31.0080   24.8770 C   0  0  1  0  0  0  0  0  0  0  0  0
  -25.3630  -30.7390   25.8970 C   0  0  0  0  0  1  0  0  0  0  0  0
  -27.0890  -29.6410   24.4680 C   0  0  0  0  0  1  0  0  0  0  0  0
  -27.6270  -31.7730   25.6040 C   0  0  0  0  0  1  0  0  0  0  0  0
  1  7  1  0
  2  7  1  0
  3  4  1  0
  3  2  1  0
  5  4  1  0
  5 23  1  0
  5  6  1  0
  7  6  1  0
  8  1  2  0
  9 12  1  0
 10 14  1  0
 10  9  2  0
 11 54  1  0
 11 13  1  0
 12 13  2  0
 12 17  1  0
 13 18  1  0
 14 11  2  0
 15 19  2  0
 16 15  1  0
 17  1  1  0
 17 15  1  0
 18 16  1  0
 20 21  2  0
 21 40  1  0
 22 21  1  0
 22 25  1  0
 23 24  1  0
 23 20  1  0
 24 22  2  0
 25 26  1  0
 26 27  2  0
 28 31  1  0
 28 27  1  0
 29 28  2  0
 30 29  1  0
 30 25  2  0
 31 32  1  0
 32 33  1  0
 33 34  2  0
 35 34  1  0
 35 39  1  0
 36 35  2  0
 37 32  2  0
 37 36  1  0
 38 37  1  0
 40 41  1  0
 41 44  1  0
 41 43  1  0
 42 40  2  0
 45 20  1  0
 45 46  1  0
 47 45  1  0
 48 50  1  0
 48 14  1  0
 49 48  1  0
 51 52  1  0
 51 50  1  0
 51 53  1  0
 54 60  1  0
 56 55  1  0
 57 55  1  0
 58 56  1  0
 59 57  1  0
 60 58  1  0
 60 59  1  0
 60 61  1  6
 62 18  1  0
 62 63  1  0
 64 65  1  0
 64 63  2  0
 66 77  2  0
 67 65  1  0
 67 72  1  0
 68 76  1  0
 68 78  1  0
 69 75  1  0
 69 71  1  0
 70 76  1  0
 71 72  2  0
 71 70  1  0
 73 67  2  0
 74 73  1  0
 74 69  2  0
 75 68  1  0
 76 66  1  0
 78 80  2  0
 79 78  1  0
 81 79  1  0
 82 91  2  0
 82 87  1  0
 83 79  1  0
 83 87  1  0
 84 83  1  0
 85 86  1  0
 85 84  1  0
 86 82  1  0
 87 88  2  0
 88 89  1  0
 90 89  2  0
 91 90  1  0
 92 66  1  0
 92 93  1  0
 92102  1  0
 93 96  1  0
 94 98  1  0
 94 93  1  0
 95 94  2  0
 98 97  1  0
 98100  1  0
100101  1  0
100 99  1  0
102105  1  1
102103  1  0
104102  1  0
M  ISO  4   1 100  17 100  64 101  65 101
M  END
>  <TORSDO>  (66) 
F 23

>  <SCORE>  (66) 
-11.421

>  <name>  (66) 
65

>  <ligand_id>  (66) 
65

>  <original_smiles>  (66) 
[H]c1c([H])c([H])c2c(c1[H])C([H])([H])C([H])([H])C([H])([H])C2([H])N([H])C(=O)C1([H])N(C(=O)C([H])(N([H])C(=O)C([H])(N([H])C([H])([H])[H])C([H])([H])[H])C(C([H])([H])[H])(C([H])([H])[H])C([H])([H])[H])C([H])([H])c2c([H])c(OC([H])([H])C([H])([H])C([H])([H])N3c4c(c([H])c([H])c(N([H])C([H])([H])C([H])(F)F)c4C([H])([H])[N+]4([H])C([H])([H])C([H])([H])C([H])([H])C([H])([H])C4([H])[H])N(C(=O)N4C([H])([H])C([H])([H])C([H])([H])C([H])(n5nc(-c6c([H])c([H])c(Oc7c([H])c([H])c(F)c([H])c7F)c([H])c6[H])c(C(=O)N([H])[H])c5N([H])[H])C4([H])[H])C(=O)C3([H])[H])c([H])c([H])c2C1([H])[H]

>  <smiles>  (66) 
[H]c1c([H])c([H])c2c(c1[H])C([H])([H])C([H])([H])C([H])([H])C2([H])N([H])C(=O)C1([H])N(C(=O)C([H])(N([H])C(=O)C([H])(N([H])C([H])([H])[H])C([H])([H])[H])C(C([H])([H])[H])(C([H])([H])[H])C([H])([H])[H])C([H])([H])c2c([H])c(OC([H])([H])C([H])([H])C([H])([H])N3c4c(c([H])c([H])c(N([H])C([H])([H])C([H])(F)F)c4C([H])([H])[N+]4([H])C([H])([H])C([H])([H])C([H])([H])C([H])([H])C4([H])[H])N(C(=O)N4C([H])([H])C([H])([H])C([H])([H])C([H])(n5nc(-c6c([H])c([H])c(Oc7c([H])c([H])c(F)c([H])c7F)c([H])c6[H])c(C(=O)N([H])[H])c5N([H])[H])C4([H])[H])C(=O)C3([H])[H])c([H])c([H])c2C1([H])[H]

$$$$
66:0:0
     RDKit          3D

 95 98  0  0  1  0  0  0  0  0999 V2000
  -24.1640  -24.9630   17.9520 C   0  0  0  0  0  1  0  0  0  0  0  0
  -18.5270  -23.7770   19.8420 C   0  0  0  0  0  3  0  0  0  0  0  0
  -17.9620  -25.2570   20.1960 C   0  0  0  0  0  0  0  0  0  0  0  0
  -20.1650  -23.6810   19.6200 C   0  0  0  0  0  1  0  0  0  0  0  0
  -20.1560  -27.7460   19.5420 C   0  0  0  0  0 15  0  0  0  0  0  0
  -22.1770  -25.6270   18.7220 C   0  0  0  0  0  1  0  0  0  0  0  0
  -22.3550  -27.2150   19.2740 C   0  0  0  0  0  1  0  0  0  0  0  0
  -24.2070  -27.1010   20.0950 O   0  0  0  0  0  1  0  0  0  0  0  0
  -24.4970  -30.0560   24.1930 C   0  0  0  0  0  0  0  0  0  0  0  0
  -25.7220  -26.7800   20.0610 C   0  0  0  0  0  3  0  0  0  0  0  0
  -23.8540  -29.7290   21.8840 C   0  0  0  0  0  3  0  0  0  0  0  0
  -25.7470  -29.2170   20.1340 C   0  0  0  0  0  3  0  0  0  0  0  0
  -26.2890  -29.4270   22.5650 C   0  0  0  0  0  2  0  0  0  0  0  0
  -26.3580  -28.6570   21.2620 C   0  0  0  0  0  3  0  0  0  0  0  0
  -26.5410  -27.2680   21.1600 C   0  0  0  0  0  2  0  0  0  0  0  0
  -26.2990  -27.1940   18.8880 C   0  0  0  0  0  2  0  0  0  0  0  0
  -25.8900  -28.5360   18.8770 C   0  0  0  0  0  2  0  0  0  0  0  0
  -24.5300  -30.0510   20.4710 C   0  0  0  0  0  2  0  0  0  0  0  0
  -24.9030  -29.8180   22.9230 N   0  0  0  0  0  0  0  0  0  0  0  0
  -23.3270  -30.3790   24.4440 O   0  0  0  0  0  0  0  0  0  0  0  0
  -23.1240  -28.3460   22.1900 C   0  0  0  0  0  0  0  0  0  0  0  0
  -21.8350  -28.2060   22.2700 N   0  0  0  0  0  0  0  0  0  0  0  0
  -23.7010  -27.2980   22.3470 O   0  0  0  0  0  0  0  0  0  0  0  0
  -21.3460  -29.0950   22.2540 H   0  0  0  0  0  0  0  0  0  0  0  0
  -18.3250  -29.0430   22.3530 C   0  0  0  0  0  0  0  0  0  0  0  0
  -20.8010  -27.1150   22.2160 C   0  0  0  0  0  2  0  0  0  0  0  0
  -19.8240  -26.0020   20.8190 C   0  0  0  0  0 15  0  0  0  0  0  0
  -17.8290  -26.7510   20.2770 C   0  0  0  0  0  3  0  0  0  0  0  0
  -17.2690  -28.3300   21.2130 C   0  0  0  0  0  2  0  0  0  0  0  0
  -20.0130  -28.2810   22.9750 C   0  0  0  0  0  0  0  0  0  0  0  0
  -20.6940  -29.1090   24.2820 C   0  0  0  0  0  3  0  0  0  0  0  0
  -19.9810  -30.3310   24.9530 C   0  0  0  0  0  3  0  0  0  0  0  0
  -18.6340  -30.9020   24.4590 C   0  0  0  0  0  3  0  0  0  0  0  0
  -17.8240  -30.3370   23.2270 C   0  0  0  0  0  3  0  0  0  0  0  0
  -25.4890  -29.9370   25.3720 C   0  0  0  0  0  3  0  0  0  0  0  0
  -24.7770  -29.8480   26.7770 C   0  0  1  0  0  0  0  0  0  0  0  0
  -23.6530  -30.8910   26.9810 C   0  0  0  0  0  1  0  0  0  0  0  0
  -24.1720  -28.4440   27.0130 C   0  0  0  0  0  1  0  0  0  0  0  0
  -25.8290  -30.0460   27.8920 C   0  0  0  0  0  1  0  0  0  0  0  0
  -26.3460  -31.1210   25.2960 N   0  0  0  0  0  0  0  0  0  0  0  0
  -27.5580  -31.1380   24.7340 C   0  0  0  0  0  0  0  0  0  0  0  0
  -28.1110  -30.1190   24.3100 O   0  0  0  0  0  0  0  0  0  0  0  0
  -25.9310  -31.9980   25.5750 H   0  0  0  0  0  0  0  0  0  0  0  0
  -28.1980  -33.0170   23.1920 C   0  0  0  0  0  1  0  0  0  0  0  0
  -28.2700  -32.4980   24.6370 C   0  0  0  0  0  3  0  0  0  0  0  0
  -29.8160  -32.1710   26.5130 C   0  0  0  0  0  1  0  0  0  0  0  0
  -29.6770  -32.4520   25.0860 N   0  0  0  0  0  0  0  0  0  0  0  0
  -30.1470  -33.3310   24.8880 H   0  0  0  0  0  0  0  0  0  0  0  0
  -25.8380  -24.1080   18.1970 N   0  0  0  0  0  0  0  0  0  0  0  0
  -26.4650  -24.9050   18.2670 H   0  0  0  0  0  0  0  0  0  0  0  0
  -28.2180  -22.4750   19.1250 C   0  0  0  0  0  3  0  0  0  0  0  0
  -29.2670  -21.2940   19.3540 C   0  0  0  0  0  3  0  0  0  0  0  0
  -27.1280  -21.2760   17.7910 C   0  0  0  0  0  3  0  0  0  0  0  0
  -26.9290  -22.7290   18.3050 C   0  0  0  0  0  0  0  0  0  0  0  0
  -29.4750  -19.8520   18.8430 C   0  0  0  0  0  0  0  0  0  0  0  0
  -28.1720  -20.0700   18.0210 C   0  0  0  0  0  0  0  0  0  0  0  0
  -27.7280  -18.6380   17.1620 Cl  0  0  0  0  0  0  0  0  0  0  0  0
  -31.9570  -17.4860   19.6000 C   0  0  0  0  0  0  0  0  0  0  0  0
  -33.2520  -15.0070   19.6000 C   0  0  0  0  0  2  0  0  0  0  0  0
  -32.8020  -13.9510   18.5290 C   0  0  0  0  0  2  0  0  0  0  0  0
  -31.4220  -13.3700   18.8650 C   0  0  0  0  0  2  0  0  0  0  0  0
  -30.5390  -14.4820   19.4590 C   0  0  0  0  0  3  0  0  0  0  0  0
  -31.1820  -15.2090   20.6310 C   0  0  0  0  0  2  0  0  0  0  0  0
  -32.1300  -16.0460   19.9380 N   0  0  0  0  0  0  0  0  0  0  0  0
  -33.1880  -17.8070   19.4990 O   0  0  0  0  0  0  0  0  0  0  0  0
  -30.5540  -18.3700   19.3130 N   0  0  0  0  0  0  0  0  0  0  0  0
  -29.8690  -17.6430   19.4950 H   0  0  0  0  0  0  0  0  0  0  0  0
  -28.0910  -14.8720   19.7120 C   0  0  0  0  0  0  0  0  0  0  0  0
  -27.0830  -14.0790   20.1620 C   0  0  0  0  0  0  0  0  0  0  0  0
  -27.6950  -12.8520   20.5690 C   0  0  0  0  0  0  0  0  0  0  0  0
  -29.2230  -14.0980   19.8300 N   0  0  0  0  0  0  0  0  0  0  0  0
  -29.0080  -12.9110   20.4290 N   0  0  0  0  0  0  0  0  0  0  0  0
  -27.1000  -11.5930   21.0030 C   0  0  0  0  0  0  0  0  0  0  0  0
  -26.8020  -11.3470   22.3600 C   0  0  0  0  0  3  0  0  0  0  0  0
  -26.2120  -10.1260   22.7450 C   0  0  0  0  0  3  0  0  0  0  0  0
  -25.9150   -9.1460   21.7700 C   0  0  0  0  0  0  0  0  0  0  0  0
  -26.2430   -9.3870   20.4240 C   0  0  0  0  0  3  0  0  0  0  0  0
  -26.8360  -10.5990   20.0420 C   0  0  0  0  0  3  0  0  0  0  0  0
  -25.3580   -7.9240   22.0530 O   0  0  0  0  0  0  0  0  0  0  0  0
  -24.0000   -7.7570   22.1270 C   0  0  0  0  0  0  0  0  0  0  0  0
  -23.1290   -8.2850   21.1490 C   0  0  0  0  0  3  0  0  0  0  0  0
  -21.7460   -8.0280   21.2260 C   0  0  0  0  0  3  0  0  0  0  0  0
  -21.2350   -7.2370   22.2730 C   0  0  0  0  0  0  0  0  0  0  0  0
  -22.1010   -6.7090   23.2460 C   0  0  0  0  0  3  0  0  0  0  0  0
  -23.4810   -6.9660   23.1700 C   0  0  0  0  0  0  0  0  0  0  0  0
  -24.3160   -6.4370   24.0970 F   0  0  0  0  0  0  0  0  0  0  0  0
  -19.9070   -6.9810   22.3450 F   0  0  0  0  0  0  0  0  0  0  0  0
  -25.6240  -14.4030   20.0950 C   0  0  0  0  0  0  0  0  0  0  0  0
  -24.8480  -13.9420   21.0660 N   0  0  0  0  0  0  0  0  0  0  0  0
  -25.1780  -15.1130   19.1950 O   0  0  0  0  0  0  0  0  0  0  0  0
  -25.2230  -13.3780   21.8160 H   0  0  0  0  0  0  0  0  0  0  0  0
  -23.8620  -14.1610   21.0650 H   0  0  0  0  0  0  0  0  0  0  0  0
  -28.1390  -16.1560   19.1680 N   0  0  0  0  0  0  0  0  0  0  0  0
  -27.2020  -16.5020   18.9860 H   0  0  0  0  0  0  0  0  0  0  0  0
  -28.6870  -16.2050   18.3180 H   0  0  0  0  0  0  0  0  0  0  0  0
  1 49  1  0
  2  3  2  0
  3 28  2  0
  4  2  1  0
  6  7  1  0
  9 20  2  0
 10  8  1  0
 10 15  1  0
 11 21  1  0
 11 19  1  0
 12 17  1  0
 12 18  1  0
 12 14  1  0
 13 19  1  0
 14 15  1  0
 14 13  1  0
 16 10  1  0
 17 16  1  0
 18 11  1  0
 19  9  1  0
 21 22  1  0
 21 23  2  0
 24 22  1  0
 25 30  2  0
 25 34  1  0
 26 22  1  0
 26 30  1  0
 28 29  1  0
 29 25  1  0
 30 31  1  0
 31 32  2  0
 33 32  1  0
 34 33  2  0
 35  9  1  0
 35 36  1  0
 36 37  1  6
 36 38  1  0
 36 39  1  0
 40 35  1  0
 40 43  1  0
 41 40  1  0
 42 41  2  0
 45 44  1  0
 45 41  1  0
 45 47  1  0
 47 46  1  0
 48 47  1  0
 49 50  1  0
 49 54  1  0
 51 52  1  0
 53 56  2  0
 53 54  1  0
 54 51  2  0
 55 66  1  0
 55 52  2  0
 56 55  1  0
 57 56  1  0
 58 64  1  0
 59 64  1  0
 60 61  1  0
 60 59  1  0
 62 61  1  0
 62 71  1  0
 62 63  1  0
 64 63  1  0
 65 58  2  0
 66 67  1  0
 66 58  1  0
 68 71  1  0
 68 69  2  0
 69 70  1  0
 70 73  1  0
 71 72  1  0
 72 70  2  0
 73 74  1  0
 74 75  2  0
 76 79  1  0
 76 75  1  0
 77 76  2  0
 78 77  1  0
 78 73  2  0
 79 80  1  0
 80 85  1  0
 81 82  1  0
 81 80  2  0
 82 83  2  0
 83 87  1  0
 83 84  1  0
 85 84  2  0
 85 86  1  0
 88 69  1  0
 88 89  1  0
 89 91  1  0
 90 88  2  0
 92 89  1  0
 93 68  1  0
 94 93  1  0
 95 93  1  0
M  ISO  4   7 101   8 101  58 100  66 100
M  END
>  <TORSDO>  (67) 
F 19

>  <SCORE>  (67) 
0.947

>  <name>  (67) 
66

>  <ligand_id>  (67) 
66

>  <original_smiles>  (67) 
[H]c1c([H])c([H])c2c(c1[H])C([H])([H])C([H])([H])C([H])([H])C2([H])N([H])C(=O)C1([H])N(C(=O)C([H])(N([H])C(=O)C([H])(N([H])C([H])([H])[H])C([H])([H])[H])C(C([H])([H])[H])(C([H])([H])[H])C([H])([H])[H])C([H])([H])c2c([H])c(OC3([H])C([H])([H])C([H])([H])C([H])([H])C([H])([H])C3([H])C([H])([H])N([H])c3c([H])c([H])c(N([H])C(=O)N4C([H])([H])C([H])([H])C([H])([H])C([H])(n5nc(-c6c([H])c([H])c(Oc7c([H])c([H])c(F)c([H])c7F)c([H])c6[H])c(C(=O)N([H])[H])c5N([H])[H])C4([H])[H])c(Cl)c3[H])c([H])c([H])c2C1([H])[H]

>  <smiles>  (67) 
[H]c1c([H])c([H])c2c(c1[H])C([H])([H])C([H])([H])C([H])([H])C2([H])N([H])C(=O)C1([H])N(C(=O)C([H])(N([H])C(=O)C([H])(N([H])C([H])([H])[H])C([H])([H])[H])C(C([H])([H])[H])(C([H])([H])[H])C([H])([H])[H])C([H])([H])c2c([H])c(OC3([H])C([H])([H])C([H])([H])C([H])([H])C([H])([H])C3([H])C([H])([H])N([H])c3c([H])c([H])c(N([H])C(=O)N4C([H])([H])C([H])([H])C([H])([H])C([H])(n5nc(-c6c([H])c([H])c(Oc7c([H])c([H])c(F)c([H])c7F)c([H])c6[H])c(C(=O)N([H])[H])c5N([H])[H])C4([H])[H])c(Cl)c3[H])c([H])c([H])c2C1([H])[H]

$$$$
67:0:0
     RDKit          3D

 93102  0  0  1  0  0  0  0  0999 V2000
  -28.9180  -22.5050   20.3270 C   0  0  0  0  0  0  0  0  0  0  0  0
  -30.9980  -23.3660   18.5040 C   0  0  0  0  0  2  0  0  0  0  0  0
  -30.3790  -24.4240   19.4060 C   0  0  0  0  0  2  0  0  0  0  0  0
  -31.0840  -22.0220   19.2390 C   0  0  0  0  0  2  0  0  0  0  0  0
  -28.9550  -24.0070   19.7840 C   0  0  0  0  0  3  0  0  0  0  0  0
  -29.8540  -21.5560   19.9200 N   0  0  0  0  0  0  0  0  0  0  0  0
  -28.0070  -22.2170   21.1100 O   0  0  0  0  0  0  0  0  0  0  0  0
  -28.6300  -19.3290   20.3440 C   0  0  0  0  0  3  0  0  0  0  0  0
  -31.0240  -19.3150   20.2500 C   0  0  0  0  0  3  0  0  0  0  0  0
  -28.6470  -17.9100   20.5080 C   0  0  0  0  0  3  0  0  0  0  0  0
  -31.0430  -17.8960   20.3960 C   0  0  0  0  0  3  0  0  0  0  0  0
  -29.8210  -20.0920   20.1960 C   0  0  0  0  0  0  0  0  0  0  0  0
  -29.8470  -17.1450   20.5160 C   0  0  0  0  0  0  0  0  0  0  0  0
  -30.5870  -14.6590   20.2850 C   0  0  0  0  0  0  0  0  0  0  0  0
  -30.3680  -12.4390   19.1880 C   0  0  0  0  0  2  0  0  0  0  0  0
  -29.3970  -12.5900   17.9950 C   0  0  0  0  0  2  0  0  0  0  0  0
  -27.9320  -12.4270   18.4490 C   0  0  0  0  0  2  0  0  0  0  0  0
  -27.6010  -13.2670   19.7110 C   0  0  0  0  0  3  0  0  0  0  0  0
  -28.6800  -13.0810   20.8020 C   0  0  0  0  0  2  0  0  0  0  0  0
  -29.9800  -13.4340   20.2070 N   0  0  0  0  0  0  0  0  0  0  0  0
  -31.7400  -14.8310   19.8780 O   0  0  0  0  0  0  0  0  0  0  0  0
  -29.7710  -15.6930   20.6720 N   0  0  0  0  0  0  0  0  0  0  0  0
  -28.8700  -15.3580   20.9750 H   0  0  0  0  0  0  0  0  0  0  0  0
  -25.2180  -13.8620   20.4700 C   0  0  0  0  0  0  0  0  0  0  0  0
  -24.1590  -13.0860   20.8570 C   0  0  0  0  0  0  0  0  0  0  0  0
  -24.6220  -11.7350   20.8120 C   0  0  0  0  0  0  0  0  0  0  0  0
  -26.2600  -12.9830   20.2150 N   0  0  0  0  0  0  0  0  0  0  0  0
  -25.9070  -11.6990   20.4790 N   0  0  0  0  0  0  0  0  0  0  0  0
  -23.9010  -10.4720   21.0070 C   0  0  0  0  0  0  0  0  0  0  0  0
  -24.3430   -9.5060   21.9370 C   0  0  0  0  0  3  0  0  0  0  0  0
  -23.6220   -8.3060   22.1200 C   0  0  0  0  0  3  0  0  0  0  0  0
  -22.4450   -8.0640   21.3730 C   0  0  0  0  0  0  0  0  0  0  0  0
  -22.0220   -9.0190   20.4330 C   0  0  0  0  0  3  0  0  0  0  0  0
  -22.7430  -10.2100   20.2480 C   0  0  0  0  0  3  0  0  0  0  0  0
  -21.6950   -6.9170   21.4670 O   0  0  0  0  0  0  0  0  0  0  0  0
  -21.6490   -6.1780   22.6220 C   0  0  0  0  0  0  0  0  0  0  0  0
  -21.2060   -6.7310   23.8430 C   0  0  0  0  0  3  0  0  0  0  0  0
  -21.1100   -5.9180   24.9900 C   0  0  0  0  0  3  0  0  0  0  0  0
  -21.4460   -4.5530   24.9170 C   0  0  0  0  0  0  0  0  0  0  0  0
  -21.8830   -4.0000   23.7000 C   0  0  0  0  0  3  0  0  0  0  0  0
  -21.9810   -4.8100   22.5550 C   0  0  0  0  0  0  0  0  0  0  0  0
  -22.3810   -4.2670   21.3800 F   0  0  0  0  0  0  0  0  0  0  0  0
  -21.3460   -3.7700   26.0160 F   0  0  0  0  0  0  0  0  0  0  0  0
  -22.7660  -13.5600   21.1550 C   0  0  0  0  0  0  0  0  0  0  0  0
  -22.0520  -12.8570   22.0260 N   0  0  0  0  0  0  0  0  0  0  0  0
  -22.3200  -14.5900   20.6490 O   0  0  0  0  0  0  0  0  0  0  0  0
  -22.4260  -12.0250   22.4570 H   0  0  0  0  0  0  0  0  0  0  0  0
  -21.1180  -13.1570   22.2680 H   0  0  0  0  0  0  0  0  0  0  0  0
  -25.3770  -15.2330   20.2920 N   0  0  0  0  0  0  0  0  0  0  0  0
  -24.6020  -15.8780   20.3980 H   0  0  0  0  0  0  0  0  0  0  0  0
  -26.1950  -15.6630   19.8790 H   0  0  0  0  0  0  0  0  0  0  0  0
  -28.2590  -25.1450   20.6530 C   0  0  0  0  0  2  0  0  0  0  0  0
  -28.3820  -26.5480   20.1970 O   0  0  0  0  0  0  0  0  0  0  0  0
  -24.5960  -31.8830   23.2310 C   0  0  0  0  0  0  0  0  0  0  0  0
  -27.2430  -27.3570   20.1900 C   0  0  0  0  0  0  0  0  0  0  0  0
  -23.4030  -30.4810   21.5830 C   0  0  0  0  0  3  0  0  0  0  0  0
  -24.8650  -28.9340   20.1660 C   0  0  0  0  0  0  0  0  0  0  0  0
  -25.9380  -30.8180   21.4060 C   0  0  0  0  0  2  0  0  0  0  0  0
  -26.0260  -29.4400   20.7640 C   0  0  0  0  0  0  0  0  0  0  0  0
  -27.2210  -28.6640   20.7610 C   0  0  0  0  0  3  0  0  0  0  0  0
  -26.0620  -26.8930   19.5740 C   0  0  0  0  0  3  0  0  0  0  0  0
  -24.8820  -27.6640   19.5630 C   0  0  0  0  0  3  0  0  0  0  0  0
  -23.6240  -29.8010   20.2050 C   0  0  0  0  0  2  0  0  0  0  0  0
  -24.6630  -31.0770   22.1310 N   0  0  0  0  0  0  0  0  0  0  0  0
  -23.5100  -32.1560   23.7630 O   0  0  0  0  0  0  0  0  0  0  0  0
  -22.7390  -29.4630   22.5410 C   0  0  0  0  0  0  0  0  0  0  0  0
  -21.4160  -29.2770   22.4020 N   0  0  0  0  0  0  0  0  0  0  0  0
  -23.4150  -28.8430   23.3670 O   0  0  0  0  0  0  0  0  0  0  0  0
  -20.9310  -29.8280   21.7080 H   0  0  0  0  0  0  0  0  0  0  0  0
  -18.0420  -28.0620   22.8700 C   0  0  0  0  0  0  0  0  0  0  0  0
  -20.5960  -28.3360   23.1670 C   0  0  0  0  0  3  0  0  0  0  0  0
  -20.7120  -26.9040   22.5950 C   0  0  0  0  0  2  0  0  0  0  0  0
  -19.6230  -26.5720   21.5710 C   0  0  0  0  0  2  0  0  0  0  0  0
  -18.2340  -26.7120   22.2000 C   0  0  0  0  0  2  0  0  0  0  0  0
  -19.1510  -28.8320   23.3090 C   0  0  0  0  0  0  0  0  0  0  0  0
  -18.9200  -30.0950   23.8960 C   0  0  0  0  0  3  0  0  0  0  0  0
  -17.6100  -30.5900   24.0460 C   0  0  0  0  0  3  0  0  0  0  0  0
  -16.5150  -29.8170   23.6230 C   0  0  0  0  0  3  0  0  0  0  0  0
  -16.7310  -28.5550   23.0410 C   0  0  0  0  0  3  0  0  0  0  0  0
  -25.8750  -32.5170   23.8600 C   0  0  0  0  0  3  0  0  0  0  0  0
  -25.5650  -33.9170   24.1800 N   0  0  0  0  0  0  0  0  0  0  0  0
  -25.9110  -34.9660   23.4220 C   0  0  0  0  0  0  0  0  0  0  0  0
  -26.5930  -34.8570   22.4000 O   0  0  0  0  0  0  0  0  0  0  0  0
  -24.9610  -34.0770   24.9720 H   0  0  0  0  0  0  0  0  0  0  0  0
  -24.2000  -36.7690   23.0300 C   0  0  0  0  0  1  0  0  0  0  0  0
  -25.4220  -36.3580   23.8670 C   0  0  0  0  0  3  0  0  0  0  0  0
  -27.5430  -37.2340   24.7420 C   0  0  0  0  0  1  0  0  0  0  0  0
  -26.4620  -37.4050   23.7740 N   0  0  0  0  0  0  0  0  0  0  0  0
  -26.0590  -38.3280   23.9090 H   0  0  0  0  0  0  0  0  0  0  0  0
  -26.3810  -31.7520   25.1440 C   0  0  1  0  0  0  0  0  0  0  0  0
  -25.2790  -31.5210   26.2050 C   0  0  0  0  0  1  0  0  0  0  0  0
  -26.9660  -30.3720   24.7640 C   0  0  0  0  0  1  0  0  0  0  0  0
  -27.5270  -32.5490   25.8110 C   0  0  0  0  0  1  0  0  0  0  0  0
  1  7  2  0
  2  4  1  0
  2  3  1  0
  3  5  1  0
  4  6  1  0
  5  1  1  0
  5 52  1  0
  6 12  1  0
  6  1  1  0
  8 10  1  0
  9 11  2  0
 10 13  2  0
 11 13  1  0
 12  9  1  0
 12  8  2  0
 13 22  1  0
 14 22  1  0
 15 20  1  0
 16 17  1  0
 16 15  1  0
 18 17  1  0
 18 27  1  0
 18 19  1  0
 20 14  1  0
 20 19  1  0
 21 14  2  0
 22 23  1  0
 24 25  2  0
 25 44  1  0
 26 25  1  0
 26 29  1  0
 27 24  1  0
 27 28  1  0
 28 26  2  0
 29 30  1  0
 30 31  2  0
 32 35  1  0
 32 31  1  0
 33 32  2  0
 34 33  1  0
 34 29  2  0
 35 36  1  0
 36 37  1  0
 37 38  2  0
 39 38  1  0
 39 43  1  0
 40 39  2  0
 41 36  2  0
 41 40  1  0
 42 41  1  0
 44 45  1  0
 45 48  1  0
 45 47  1  0
 46 44  2  0
 49 50  1  0
 49 24  1  0
 51 49  1  0
 53 52  1  0
 54 65  2  0
 55 53  1  0
 55 60  1  0
 56 64  1  0
 56 66  1  0
 57 63  1  0
 57 59  1  0
 58 64  1  0
 59 58  1  0
 60 59  2  0
 61 55  2  0
 62 61  1  0
 62 57  2  0
 63 56  1  0
 64 54  1  0
 66 68  2  0
 67 66  1  0
 69 67  1  0
 70 79  2  0
 70 75  1  0
 71 67  1  0
 71 75  1  0
 72 71  1  0
 73 74  1  0
 73 72  1  0
 74 70  1  0
 75 76  2  0
 76 77  1  0
 78 77  2  0
 79 78  1  0
 80 54  1  0
 80 81  1  0
 80 90  1  0
 81 84  1  0
 82 86  1  0
 82 81  1  0
 83 82  2  0
 86 85  1  0
 88 86  1  0
 88 89  1  0
 88 87  1  0
 90 93  1  1
 90 91  1  0
 92 90  1  0
M  ISO  4  14 100  22 100  52 101  53 101
M  END
>  <TORSDO>  (68) 
F 18

>  <SCORE>  (68) 
-14.972

>  <name>  (68) 
67

>  <ligand_id>  (68) 
67

>  <original_smiles>  (68) 
[H]c1c([H])c([H])c2c(c1[H])C([H])([H])C([H])([H])C([H])([H])C2([H])N([H])C(=O)C1([H])N(C(=O)C([H])(N([H])C(=O)C([H])(N([H])C([H])([H])[H])C([H])([H])[H])C(C([H])([H])[H])(C([H])([H])[H])C([H])([H])[H])C([H])([H])c2c([H])c(OC([H])([H])C3([H])C(=O)N(c4c([H])c([H])c(N([H])C(=O)N5C([H])([H])C([H])([H])C([H])([H])C([H])(n6nc(-c7c([H])c([H])c(Oc8c([H])c([H])c(F)c([H])c8F)c([H])c7[H])c(C(=O)N([H])[H])c6N([H])[H])C5([H])[H])c([H])c4[H])C([H])([H])C([H])([H])C3([H])[H])c([H])c([H])c2C1([H])[H]

>  <smiles>  (68) 
[H]c1c([H])c([H])c2c(c1[H])C([H])([H])C([H])([H])C([H])([H])C2([H])N([H])C(=O)C1([H])N(C(=O)C([H])(N([H])C(=O)C([H])(N([H])C([H])([H])[H])C([H])([H])[H])C(C([H])([H])[H])(C([H])([H])[H])C([H])([H])[H])C([H])([H])c2c([H])c(OC([H])([H])C3([H])C(=O)N(c4c([H])c([H])c(N([H])C(=O)N5C([H])([H])C([H])([H])C([H])([H])C([H])(n6nc(-c7c([H])c([H])c(Oc8c([H])c([H])c(F)c([H])c8F)c([H])c7[H])c(C(=O)N([H])[H])c6N([H])[H])C5([H])[H])c([H])c4[H])C([H])([H])C([H])([H])C3([H])[H])c([H])c([H])c2C1([H])[H]

$$$$
68:0:0
     RDKit          3D

 93102  0  0  1  0  0  0  0  0999 V2000
  -30.7860  -23.4000   22.3610 C   0  0  0  0  0  2  0  0  0  0  0  0
  -29.6620  -24.3450   21.9160 C   0  0  0  0  0  2  0  0  0  0  0  0
  -30.3470  -21.9300   22.2810 C   0  0  0  0  0  2  0  0  0  0  0  0
  -28.9160  -22.4710   20.3390 C   0  0  0  0  0  2  0  0  0  0  0  0
  -29.2300  -24.0400   20.4740 C   0  0  0  0  0  3  0  0  0  0  0  0
  -29.9510  -21.5480   20.9180 N   0  0  0  0  0  0  0  0  0  0  0  0
  -31.0260  -19.2880   21.1550 C   0  0  0  0  0  3  0  0  0  0  0  0
  -31.0050  -17.8630   21.0840 C   0  0  0  0  0  3  0  0  0  0  0  0
  -28.8640  -19.4090   20.1300 C   0  0  0  0  0  3  0  0  0  0  0  0
  -29.9420  -20.1150   20.7230 C   0  0  0  0  0  0  0  0  0  0  0  0
  -29.8910  -17.1680   20.5540 C   0  0  0  0  0  0  0  0  0  0  0  0
  -28.8410  -17.9850   20.0460 C   0  0  0  0  0  0  0  0  0  0  0  0
  -27.4820  -17.2420   19.2890 Cl  0  0  0  0  0  0  0  0  0  0  0  0
  -30.5530  -14.6580   20.3610 C   0  0  0  0  0  0  0  0  0  0  0  0
  -30.3330  -12.4180   19.3030 C   0  0  0  0  0  2  0  0  0  0  0  0
  -29.3630  -12.5390   18.1070 C   0  0  0  0  0  2  0  0  0  0  0  0
  -27.8980  -12.3750   18.5630 C   0  0  0  0  0  2  0  0  0  0  0  0
  -27.5560  -13.2370   19.8080 C   0  0  0  0  0  3  0  0  0  0  0  0
  -28.6400  -13.0930   20.9010 C   0  0  0  0  0  2  0  0  0  0  0  0
  -29.9370  -13.4360   20.2940 N   0  0  0  0  0  0  0  0  0  0  0  0
  -31.7260  -14.8120   20.0080 O   0  0  0  0  0  0  0  0  0  0  0  0
  -29.7200  -15.7150   20.6020 N   0  0  0  0  0  0  0  0  0  0  0  0
  -28.7590  -15.4280   20.7010 H   0  0  0  0  0  0  0  0  0  0  0  0
  -25.1760  -13.8230   20.5860 C   0  0  0  0  0  0  0  0  0  0  0  0
  -24.1180  -13.0470   20.9660 C   0  0  0  0  0  0  0  0  0  0  0  0
  -24.5810  -11.6970   20.9110 C   0  0  0  0  0  0  0  0  0  0  0  0
  -26.2190  -12.9490   20.3190 N   0  0  0  0  0  0  0  0  0  0  0  0
  -25.8670  -11.6640   20.5780 N   0  0  0  0  0  0  0  0  0  0  0  0
  -23.8590  -10.4350   21.1030 C   0  0  0  0  0  0  0  0  0  0  0  0
  -24.3150   -9.4530   22.0080 C   0  0  0  0  0  3  0  0  0  0  0  0
  -23.5920   -8.2540   22.1880 C   0  0  0  0  0  3  0  0  0  0  0  0
  -22.3990   -8.0310   21.4630 C   0  0  0  0  0  0  0  0  0  0  0  0
  -21.9600   -9.0020   20.5450 C   0  0  0  0  0  3  0  0  0  0  0  0
  -22.6850  -10.1910   20.3640 C   0  0  0  0  0  3  0  0  0  0  0  0
  -21.6450   -6.8840   21.5530 O   0  0  0  0  0  0  0  0  0  0  0  0
  -21.6380   -6.1170   22.6900 C   0  0  0  0  0  0  0  0  0  0  0  0
  -21.2530   -6.6430   23.9420 C   0  0  0  0  0  3  0  0  0  0  0  0
  -21.1920   -5.8030   25.0700 C   0  0  0  0  0  3  0  0  0  0  0  0
  -21.5070   -4.4360   24.9490 C   0  0  0  0  0  0  0  0  0  0  0  0
  -21.8850   -3.9090   23.7010 C   0  0  0  0  0  3  0  0  0  0  0  0
  -21.9470   -4.7470   22.5740 C   0  0  0  0  0  0  0  0  0  0  0  0
  -22.2920   -4.2290   21.3700 F   0  0  0  0  0  0  0  0  0  0  0  0
  -21.4410   -3.6260   26.0310 F   0  0  0  0  0  0  0  0  0  0  0  0
  -22.7260  -13.5230   21.2670 C   0  0  0  0  0  0  0  0  0  0  0  0
  -22.0150  -12.8220   22.1440 N   0  0  0  0  0  0  0  0  0  0  0  0
  -22.2770  -14.5510   20.7600 O   0  0  0  0  0  0  0  0  0  0  0  0
  -22.3910  -11.9920   22.5770 H   0  0  0  0  0  0  0  0  0  0  0  0
  -21.0820  -13.1240   22.3890 H   0  0  0  0  0  0  0  0  0  0  0  0
  -25.3210  -15.1940   20.4240 N   0  0  0  0  0  0  0  0  0  0  0  0
  -24.5380  -15.8260   20.5470 H   0  0  0  0  0  0  0  0  0  0  0  0
  -26.1340  -15.6570   20.0340 H   0  0  0  0  0  0  0  0  0  0  0  0
  -28.0710  -25.0390   20.0380 C   0  0  0  0  0  2  0  0  0  0  0  0
  -28.2670  -26.4980   20.1930 O   0  0  0  0  0  0  0  0  0  0  0  0
  -24.5270  -31.8620   23.2280 C   0  0  0  0  0  0  0  0  0  0  0  0
  -27.1350  -27.3270   20.1460 C   0  0  0  0  0  0  0  0  0  0  0  0
  -23.3160  -30.4680   21.5880 C   0  0  0  0  0  3  0  0  0  0  0  0
  -24.7610  -28.9240   20.1530 C   0  0  0  0  0  0  0  0  0  0  0  0
  -25.8540  -30.7920   21.3960 C   0  0  0  0  0  2  0  0  0  0  0  0
  -25.9310  -29.4160   20.7440 C   0  0  0  0  0  0  0  0  0  0  0  0
  -27.1210  -28.6300   20.7300 C   0  0  0  0  0  3  0  0  0  0  0  0
  -25.9400  -26.8850   19.5310 C   0  0  0  0  0  3  0  0  0  0  0  0
  -24.7670  -27.6620   19.5400 C   0  0  0  0  0  3  0  0  0  0  0  0
  -23.5240  -29.7960   20.2060 C   0  0  0  0  0  2  0  0  0  0  0  0
  -24.5840  -31.0580   22.1270 N   0  0  0  0  0  0  0  0  0  0  0  0
  -23.4460  -32.1380   23.7670 O   0  0  0  0  0  0  0  0  0  0  0  0
  -22.6570  -29.4490   22.5480 C   0  0  0  0  0  0  0  0  0  0  0  0
  -21.3310  -29.2760   22.4270 N   0  0  0  0  0  0  0  0  0  0  0  0
  -23.3390  -28.8180   23.3600 O   0  0  0  0  0  0  0  0  0  0  0  0
  -20.8400  -29.8380   21.7450 H   0  0  0  0  0  0  0  0  0  0  0  0
  -17.9510  -28.0960   22.9440 C   0  0  0  0  0  0  0  0  0  0  0  0
  -20.5120  -28.3400   23.1980 C   0  0  0  0  0  3  0  0  0  0  0  0
  -20.6020  -26.9110   22.6150 C   0  0  0  0  0  2  0  0  0  0  0  0
  -19.4920  -26.5990   21.6070 C   0  0  0  0  0  2  0  0  0  0  0  0
  -18.1150  -26.7480   22.2600 C   0  0  0  0  0  2  0  0  0  0  0  0
  -19.0760  -28.8500   23.3690 C   0  0  0  0  0  0  0  0  0  0  0  0
  -18.8680  -30.1110   23.9680 C   0  0  0  0  0  3  0  0  0  0  0  0
  -17.5670  -30.6180   24.1450 C   0  0  0  0  0  3  0  0  0  0  0  0
  -16.4560  -29.8620   23.7350 C   0  0  0  0  0  3  0  0  0  0  0  0
  -16.6480  -28.6020   23.1400 C   0  0  0  0  0  3  0  0  0  0  0  0
  -25.8140  -32.4910   23.8470 C   0  0  0  0  0  3  0  0  0  0  0  0
  -25.5050  -33.8860   24.1890 N   0  0  0  0  0  0  0  0  0  0  0  0
  -25.8230  -34.9450   23.4320 C   0  0  0  0  0  0  0  0  0  0  0  0
  -26.4780  -34.8490   22.3910 O   0  0  0  0  0  0  0  0  0  0  0  0
  -24.9220  -34.0340   25.0010 H   0  0  0  0  0  0  0  0  0  0  0  0
  -24.0830  -36.7340   23.1190 C   0  0  0  0  0  1  0  0  0  0  0  0
  -25.3400  -36.3290   23.9070 C   0  0  0  0  0  3  0  0  0  0  0  0
  -27.4840  -37.2180   24.7070 C   0  0  0  0  0  1  0  0  0  0  0  0
  -26.3670  -37.3860   23.7810 N   0  0  0  0  0  0  0  0  0  0  0  0
  -25.9590  -38.3040   23.9400 H   0  0  0  0  0  0  0  0  0  0  0  0
  -26.3390  -31.7100   25.1140 C   0  0  1  0  0  0  0  0  0  0  0  0
  -25.2530  -31.4650   26.1870 C   0  0  0  0  0  1  0  0  0  0  0  0
  -26.9210  -30.3360   24.7090 C   0  0  0  0  0  1  0  0  0  0  0  0
  -27.4930  -32.5010   25.7740 C   0  0  0  0  0  1  0  0  0  0  0  0
  2  1  1  0
  3  1  1  0
  4  5  1  0
  4  6  1  0
  5 52  1  0
  5  2  1  0
  6  3  1  0
  8  7  1  0
  9 10  1  0
 10  6  1  0
 10  7  2  0
 11 22  1  0
 11  8  2  0
 12  9  2  0
 12 11  1  0
 13 12  1  0
 14 22  1  0
 15 20  1  0
 16 17  1  0
 16 15  1  0
 18 17  1  0
 18 27  1  0
 18 19  1  0
 20 14  1  0
 20 19  1  0
 21 14  2  0
 22 23  1  0
 24 25  2  0
 25 44  1  0
 26 25  1  0
 26 29  1  0
 27 28  1  0
 27 24  1  0
 28 26  2  0
 29 30  1  0
 30 31  2  0
 32 35  1  0
 32 31  1  0
 33 32  2  0
 34 33  1  0
 34 29  2  0
 35 36  1  0
 36 37  1  0
 37 38  2  0
 39 38  1  0
 39 43  1  0
 40 39  2  0
 41 36  2  0
 41 40  1  0
 42 41  1  0
 44 45  1  0
 45 48  1  0
 45 47  1  0
 46 44  2  0
 49 50  1  0
 49 24  1  0
 51 49  1  0
 52 53  1  0
 54 65  2  0
 55 53  1  0
 55 60  1  0
 56 64  1  0
 56 66  1  0
 57 63  1  0
 57 59  1  0
 58 64  1  0
 59 58  1  0
 60 59  2  0
 61 62  1  0
 61 55  2  0
 62 57  2  0
 63 56  1  0
 64 54  1  0
 66 68  2  0
 67 66  1  0
 69 67  1  0
 70 79  2  0
 70 75  1  0
 71 67  1  0
 71 75  1  0
 72 71  1  0
 73 74  1  0
 73 72  1  0
 74 70  1  0
 75 76  2  0
 76 77  1  0
 78 77  2  0
 79 78  1  0
 80 54  1  0
 80 81  1  0
 80 90  1  0
 81 84  1  0
 82 86  1  0
 82 81  1  0
 83 82  2  0
 86 85  1  0
 88 86  1  0
 88 89  1  0
 88 87  1  0
 90 93  1  1
 90 91  1  0
 92 90  1  0
M  ISO  4  14 100  22 100  52 101  53 101
M  END
>  <TORSDO>  (69) 
F 18

>  <SCORE>  (69) 
-14.825

>  <name>  (69) 
68

>  <ligand_id>  (69) 
68

>  <original_smiles>  (69) 
[H]c1c([H])c([H])c2c(c1[H])C([H])([H])C([H])([H])C([H])([H])C2([H])N([H])C(=O)C1([H])N(C(=O)C([H])(N([H])C(=O)C([H])(N([H])C([H])([H])[H])C([H])([H])[H])C(C([H])([H])[H])(C([H])([H])[H])C([H])([H])[H])C([H])([H])c2c([H])c(OC([H])([H])C3([H])C([H])([H])N(c4c([H])c([H])c(N([H])C(=O)N5C([H])([H])C([H])([H])C([H])([H])C([H])(n6nc(-c7c([H])c([H])c(Oc8c([H])c([H])c(F)c([H])c8F)c([H])c7[H])c(C(=O)N([H])[H])c6N([H])[H])C5([H])[H])c(Cl)c4[H])C([H])([H])C([H])([H])C3([H])[H])c([H])c([H])c2C1([H])[H]

>  <smiles>  (69) 
[H]c1c([H])c([H])c2c(c1[H])C([H])([H])C([H])([H])C([H])([H])C2([H])N([H])C(=O)C1([H])N(C(=O)C([H])(N([H])C(=O)C([H])(N([H])C([H])([H])[H])C([H])([H])[H])C(C([H])([H])[H])(C([H])([H])[H])C([H])([H])[H])C([H])([H])c2c([H])c(OC([H])([H])C3([H])C([H])([H])N(c4c([H])c([H])c(N([H])C(=O)N5C([H])([H])C([H])([H])C([H])([H])C([H])(n6nc(-c7c([H])c([H])c(Oc8c([H])c([H])c(F)c([H])c8F)c([H])c7[H])c(C(=O)N([H])[H])c6N([H])[H])C5([H])[H])c(Cl)c4[H])C([H])([H])C([H])([H])C3([H])[H])c([H])c([H])c2C1([H])[H]

$$$$
69:0:0
     RDKit          3D

 96105  0  0  1  0  0  0  0  0999 V2000
  -28.4170  -19.1700   20.2590 C   0  0  0  0  0  3  0  0  0  0  0  0
  -27.8950  -20.4790   20.0700 C   0  0  0  0  0  3  0  0  0  0  0  0
  -30.1220  -21.3650   19.9110 C   0  0  0  0  0  3  0  0  0  0  0  0
  -29.8100  -18.9020   20.2400 C   0  0  0  0  0  0  0  0  0  0  0  0
  -30.6600  -20.0500   20.0930 C   0  0  0  0  0  0  0  0  0  0  0  0
  -28.7260  -21.6120   19.8830 C   0  0  0  0  0  0  0  0  0  0  0  0
  -31.7310  -17.7030   22.6530 C   0  0  0  0  0  3  0  0  0  0  0  0
  -30.6200  -17.3180   22.0030 C   0  0  0  0  0  3  0  0  0  0  0  0
  -32.1860  -19.9290   20.1170 C   0  0  0  0  0  2  0  0  0  0  0  0
  -32.9740  -18.2890   22.0080 C   0  0  0  0  0  2  0  0  0  0  0  0
  -32.8080  -19.7440   21.5210 C   0  0  0  0  0  2  0  0  0  0  0  0
  -30.3970  -17.4560   20.5090 C   0  0  0  0  0  3  0  0  0  0  0  0
  -30.5420  -15.0200   19.8410 C   0  0  0  0  0  0  0  0  0  0  0  0
  -30.3020  -12.7170   18.9450 C   0  0  0  0  0  2  0  0  0  0  0  0
  -29.2750  -12.6940   17.7940 C   0  0  0  0  0  2  0  0  0  0  0  0
  -27.8500  -12.4860   18.3460 C   0  0  0  0  0  2  0  0  0  0  0  0
  -27.5200  -13.4130   19.5450 C   0  0  0  0  0  3  0  0  0  0  0  0
  -28.6680  -13.4610   20.5780 C   0  0  0  0  0  2  0  0  0  0  0  0
  -29.9060  -13.8030   19.8650 N   0  0  0  0  0  0  0  0  0  0  0  0
  -31.7280  -15.0910   19.5110 O   0  0  0  0  0  0  0  0  0  0  0  0
  -28.8950  -16.4520   18.8180 C   0  0  0  0  0  1  0  0  0  0  0  0
  -29.7920  -16.1810   19.9520 N   0  0  0  0  0  0  0  0  0  0  0  0
  -25.2050  -13.9420   20.5130 C   0  0  0  0  0  0  0  0  0  0  0  0
  -24.1900  -13.1340   20.9500 C   0  0  0  0  0  0  0  0  0  0  0  0
  -24.6760  -11.7960   20.8340 C   0  0  0  0  0  0  0  0  0  0  0  0
  -26.2380  -13.0900   20.1560 N   0  0  0  0  0  0  0  0  0  0  0  0
  -25.9330  -11.7940   20.4120 N   0  0  0  0  0  0  0  0  0  0  0  0
  -23.9970  -10.5120   21.0450 C   0  0  0  0  0  0  0  0  0  0  0  0
  -24.4770   -9.5690   21.9780 C   0  0  0  0  0  3  0  0  0  0  0  0
  -23.7960   -8.3480   22.1760 C   0  0  0  0  0  3  0  0  0  0  0  0
  -22.6220   -8.0640   21.4390 C   0  0  0  0  0  0  0  0  0  0  0  0
  -22.1620   -8.9970   20.4930 C   0  0  0  0  0  3  0  0  0  0  0  0
  -22.8440  -10.2080   20.2930 C   0  0  0  0  0  3  0  0  0  0  0  0
  -21.9080   -6.8950   21.5460 O   0  0  0  0  0  0  0  0  0  0  0  0
  -21.8380   -6.2020   22.7280 C   0  0  0  0  0  0  0  0  0  0  0  0
  -21.2850   -6.7750   23.8960 C   0  0  0  0  0  3  0  0  0  0  0  0
  -21.1690   -6.0050   25.0700 C   0  0  0  0  0  3  0  0  0  0  0  0
  -21.5930   -4.6620   25.0770 C   0  0  0  0  0  0  0  0  0  0  0  0
  -22.1370   -4.0890   23.9140 C   0  0  0  0  0  3  0  0  0  0  0  0
  -22.2560   -4.8570   22.7430 C   0  0  0  0  0  0  0  0  0  0  0  0
  -22.7630   -4.2940   21.6180 F   0  0  0  0  0  0  0  0  0  0  0  0
  -21.4740   -3.9190   26.2020 F   0  0  0  0  0  0  0  0  0  0  0  0
  -22.8130  -13.5720   21.3580 C   0  0  0  0  0  0  0  0  0  0  0  0
  -22.1920  -12.8530   22.2860 N   0  0  0  0  0  0  0  0  0  0  0  0
  -22.2990  -14.5850   20.8870 O   0  0  0  0  0  0  0  0  0  0  0  0
  -22.6230  -12.0340   22.6880 H   0  0  0  0  0  0  0  0  0  0  0  0
  -21.2720  -13.1280   22.6010 H   0  0  0  0  0  0  0  0  0  0  0  0
  -25.3270  -15.3200   20.3670 N   0  0  0  0  0  0  0  0  0  0  0  0
  -24.5670  -15.9580   20.5740 H   0  0  0  0  0  0  0  0  0  0  0  0
  -26.1480  -15.7850   20.0030 H   0  0  0  0  0  0  0  0  0  0  0  0
  -28.5310  -24.1890   19.4820 C   0  0  0  0  0  0  0  0  0  0  0  0
  -28.0890  -22.9020   19.6410 N   0  0  0  0  0  0  0  0  0  0  0  0
  -29.7080  -24.5320   19.6260 O   0  0  0  0  0  0  0  0  0  0  0  0
  -27.0840  -22.8400   19.5490 H   0  0  0  0  0  0  0  0  0  0  0  0
  -27.4260  -25.2390   19.0870 C   0  0  0  0  0  2  0  0  0  0  0  0
  -27.7440  -26.6870   19.0950 O   0  0  0  0  0  0  0  0  0  0  0  0
  -24.4630  -31.7260   23.0810 C   0  0  0  0  0  0  0  0  0  0  0  0
  -26.6410  -27.5470   19.2500 C   0  0  0  0  0  0  0  0  0  0  0  0
  -23.0520  -30.4930   21.4760 C   0  0  0  0  0  3  0  0  0  0  0  0
  -24.2990  -29.1270   19.7150 C   0  0  0  0  0  0  0  0  0  0  0  0
  -25.5470  -30.8580   21.0000 C   0  0  0  0  0  2  0  0  0  0  0  0
  -25.5380  -29.5580   20.2060 C   0  0  0  0  0  0  0  0  0  0  0  0
  -26.7110  -28.7810   19.9680 C   0  0  0  0  0  3  0  0  0  0  0  0
  -25.3720  -27.1870   18.7280 C   0  0  0  0  0  3  0  0  0  0  0  0
  -24.2170  -27.9470   18.9680 C   0  0  0  0  0  3  0  0  0  0  0  0
  -23.0810  -29.9740   20.0160 C   0  0  0  0  0  2  0  0  0  0  0  0
  -24.3800  -31.0360   21.9070 N   0  0  0  0  0  0  0  0  0  0  0  0
  -23.4600  -31.9350   23.7780 O   0  0  0  0  0  0  0  0  0  0  0  0
  -22.5190  -29.3720   22.4000 C   0  0  0  0  0  0  0  0  0  0  0  0
  -21.2100  -29.0850   22.3100 N   0  0  0  0  0  0  0  0  0  0  0  0
  -23.2810  -28.7660   23.1570 O   0  0  0  0  0  0  0  0  0  0  0  0
  -20.6490  -29.6320   21.6710 H   0  0  0  0  0  0  0  0  0  0  0  0
  -18.0120  -27.4450   22.7170 C   0  0  0  0  0  0  0  0  0  0  0  0
  -20.5030  -28.0440   23.0580 C   0  0  0  0  0  3  0  0  0  0  0  0
  -20.8120  -26.6400   22.4870 C   0  0  0  0  0  2  0  0  0  0  0  0
  -19.7910  -26.1760   21.4420 C   0  0  0  0  0  2  0  0  0  0  0  0
  -18.3850  -26.1330   22.0480 C   0  0  0  0  0  2  0  0  0  0  0  0
  -19.0060  -28.3490   23.1780 C   0  0  0  0  0  0  0  0  0  0  0  0
  -18.6030  -29.5690   23.7620 C   0  0  0  0  0  3  0  0  0  0  0  0
  -17.2390  -29.8910   23.8920 C   0  0  0  0  0  3  0  0  0  0  0  0
  -16.2590  -28.9850   23.4480 C   0  0  0  0  0  3  0  0  0  0  0  0
  -16.6450  -27.7650   22.8680 C   0  0  0  0  0  3  0  0  0  0  0  0
  -25.8190  -32.3040   23.5900 C   0  0  0  0  0  3  0  0  0  0  0  0
  -25.5700  -33.6780   24.0480 N   0  0  0  0  0  0  0  0  0  0  0  0
  -25.8950  -34.7810   23.3600 C   0  0  0  0  0  0  0  0  0  0  0  0
  -26.5080  -34.7450   22.2900 O   0  0  0  0  0  0  0  0  0  0  0  0
  -25.0220  -33.7820   24.8900 H   0  0  0  0  0  0  0  0  0  0  0  0
  -24.2240  -36.6570   23.2250 C   0  0  0  0  0  1  0  0  0  0  0  0
  -25.4750  -36.1390   23.9540 C   0  0  0  0  0  3  0  0  0  0  0  0
  -27.6640  -36.8750   24.7860 C   0  0  0  0  0  1  0  0  0  0  0  0
  -26.5420  -37.1620   23.8970 N   0  0  0  0  0  0  0  0  0  0  0  0
  -26.1750  -38.0790   24.1360 H   0  0  0  0  0  0  0  0  0  0  0  0
  -26.4670  -31.4420   24.7430 C   0  0  1  0  0  0  0  0  0  0  0  0
  -25.4930  -31.1160   25.8990 C   0  0  0  0  0  1  0  0  0  0  0  0
  -27.0050  -30.1020   24.1900 C   0  0  0  0  0  1  0  0  0  0  0  0
  -27.6810  -32.1930   25.3370 C   0  0  0  0  0  1  0  0  0  0  0  0
  2  1  2  0
  3  5  1  0
  4  1  1  0
  4 12  1  0
  5  9  1  0
  5  4  2  0
  6  3  2  0
  6  2  1  0
  8  7  2  0
  9 11  1  0
 10  7  1  0
 11 10  1  0
 12 22  1  0
 12  8  1  0
 13 19  1  0
 13 22  1  0
 14 19  1  0
 15 16  1  0
 15 14  1  0
 17 16  1  0
 17 26  1  0
 17 18  1  0
 19 18  1  0
 20 13  2  0
 21 22  1  0
 23 24  2  0
 24 43  1  0
 25 24  1  0
 25 28  1  0
 26 27  1  0
 26 23  1  0
 27 25  2  0
 28 29  1  0
 29 30  2  0
 31 34  1  0
 31 30  1  0
 32 31  2  0
 33 32  1  0
 33 28  2  0
 34 35  1  0
 35 40  2  0
 35 36  1  0
 36 37  2  0
 37 38  1  0
 38 42  1  0
 39 38  2  0
 40 39  1  0
 41 40  1  0
 43 44  1  0
 44 47  1  0
 44 46  1  0
 45 43  2  0
 48 23  1  0
 48 49  1  0
 50 48  1  0
 51 53  2  0
 51 52  1  0
 52  6  1  0
 54 52  1  0
 55 56  1  0
 55 51  1  0
 56 58  1  0
 57 68  2  0
 58 63  1  0
 59 67  1  0
 59 69  1  0
 60 66  1  0
 60 62  1  0
 61 67  1  0
 62 61  1  0
 63 62  2  0
 64 65  1  0
 64 58  2  0
 65 60  2  0
 66 59  1  0
 67 57  1  0
 69 71  2  0
 70 69  1  0
 72 70  1  0
 73 82  2  0
 73 78  1  0
 74 70  1  0
 74 78  1  0
 75 74  1  0
 76 77  1  0
 76 75  1  0
 77 73  1  0
 78 79  2  0
 79 80  1  0
 81 80  2  0
 82 81  1  0
 83 57  1  0
 83 84  1  0
 83 93  1  0
 84 87  1  0
 85 89  1  0
 85 84  1  0
 86 85  2  0
 89 88  1  0
 91 89  1  0
 91 92  1  0
 91 90  1  0
 93 96  1  1
 93 94  1  0
 95 93  1  0
M  ISO  4  13 100  22 100  55 101  56 101
M  END
>  <TORSDO>  (70) 
F 18

>  <SCORE>  (70) 
-11.857

>  <name>  (70) 
69

>  <ligand_id>  (70) 
69

>  <original_smiles>  (70) 
[H]C1=C([H])C([H])([H])C([H])([H])C([H])([H])c2c([H])c(N([H])C(=O)C([H])([H])Oc3c([H])c([H])c4c(c3[H])C([H])([H])N(C(=O)C([H])(N([H])C(=O)C([H])(N([H])C([H])([H])[H])C([H])([H])[H])C(C([H])([H])[H])(C([H])([H])[H])C([H])([H])[H])C([H])(C(=O)N([H])C3([H])c5c([H])c([H])c([H])c([H])c5C([H])([H])C([H])([H])C3([H])[H])C4([H])[H])c([H])c([H])c2C1([H])N(C(=O)N1C([H])([H])C([H])([H])C([H])([H])C([H])(n2nc(-c3c([H])c([H])c(Oc4c([H])c([H])c(F)c([H])c4F)c([H])c3[H])c(C(=O)N([H])[H])c2N([H])[H])C1([H])[H])C([H])([H])[H]

>  <smiles>  (70) 
[H]C1=C([H])C([H])([H])C([H])([H])C([H])([H])c2c([H])c(N([H])C(=O)C([H])([H])Oc3c([H])c([H])c4c(c3[H])C([H])([H])N(C(=O)C([H])(N([H])C(=O)C([H])(N([H])C([H])([H])[H])C([H])([H])[H])C(C([H])([H])[H])(C([H])([H])[H])C([H])([H])[H])C([H])(C(=O)N([H])C3([H])c5c([H])c([H])c([H])c([H])c5C([H])([H])C([H])([H])C3([H])[H])C4([H])[H])c([H])c([H])c2C1([H])N(C(=O)N1C([H])([H])C([H])([H])C([H])([H])C([H])(n2nc(-c3c([H])c([H])c(Oc4c([H])c([H])c(F)c([H])c4F)c([H])c3[H])c(C(=O)N([H])[H])c2N([H])[H])C1([H])[H])C([H])([H])[H]

$$$$
70:0:0
     RDKit          3D

 94103  0  0  1  0  0  0  0  0999 V2000
  -29.1770  -18.8290   19.1410 C   0  0  0  0  0  3  0  0  0  0  0  0
  -29.6190  -20.6450   21.2190 C   0  0  0  0  0  3  0  0  0  0  0  0
  -29.5680  -18.2730   20.3820 C   0  0  0  0  0  0  0  0  0  0  0  0
  -29.1020  -21.1880   20.0070 C   0  0  0  0  0  0  0  0  0  0  0  0
  -28.9270  -20.2240   18.9640 C   0  0  0  0  0  0  0  0  0  0  0  0
  -29.8360  -19.2340   21.4040 C   0  0  0  0  0  0  0  0  0  0  0  0
  -28.4010  -20.6150   17.7790 F   0  0  0  0  0  0  0  0  0  0  0  0
  -30.2450  -18.7950   22.6180 F   0  0  0  0  0  0  0  0  0  0  0  0
  -26.8080  -23.3950   21.2680 C   0  0  0  0  0  2  0  0  0  0  0  0
  -28.1470  -24.0210   21.6500 C   0  0  0  0  0  2  0  0  0  0  0  0
  -27.1050  -22.4750   20.0750 C   0  0  0  0  0  2  0  0  0  0  0  0
  -28.9960  -23.8670   20.3920 C   0  0  0  0  0  3  0  0  0  0  0  0
  -28.5530  -22.5330   19.8370 N   0  0  0  0  0  0  0  0  0  0  0  0
  -28.8090  -25.1590   19.4390 C   0  0  0  0  0  2  0  0  0  0  0  0
  -28.6960  -26.5280   20.0410 O   0  0  0  0  0  0  0  0  0  0  0  0
  -24.6810  -31.7320   23.1430 C   0  0  0  0  0  0  0  0  0  0  0  0
  -27.5250  -27.3160   20.0040 C   0  0  0  0  0  0  0  0  0  0  0  0
  -23.5750  -30.3350   21.4400 C   0  0  0  0  0  3  0  0  0  0  0  0
  -25.1180  -28.8910   19.9810 C   0  0  0  0  0  0  0  0  0  0  0  0
  -26.1120  -30.7310   21.3390 C   0  0  0  0  0  2  0  0  0  0  0  0
  -26.2550  -29.3790   20.6340 C   0  0  0  0  0  0  0  0  0  0  0  0
  -27.4590  -28.6030   20.6380 C   0  0  0  0  0  3  0  0  0  0  0  0
  -26.3440  -26.8580   19.3760 C   0  0  0  0  0  3  0  0  0  0  0  0
  -25.1720  -27.6410   19.3430 C   0  0  0  0  0  3  0  0  0  0  0  0
  -23.8430  -29.7270   20.0390 C   0  0  0  0  0  2  0  0  0  0  0  0
  -24.8070  -30.9490   22.0300 N   0  0  0  0  0  0  0  0  0  0  0  0
  -23.5750  -31.9640   23.6500 O   0  0  0  0  0  0  0  0  0  0  0  0
  -22.9340  -29.2600   22.3480 C   0  0  0  0  0  0  0  0  0  0  0  0
  -21.6120  -29.0640   22.2070 N   0  0  0  0  0  0  0  0  0  0  0  0
  -23.6240  -28.6140   23.1410 O   0  0  0  0  0  0  0  0  0  0  0  0
  -21.1150  -29.6290   21.5350 H   0  0  0  0  0  0  0  0  0  0  0  0
  -18.2520  -27.7910   22.6420 C   0  0  0  0  0  0  0  0  0  0  0  0
  -20.8090  -28.0760   22.9290 C   0  0  0  0  0  3  0  0  0  0  0  0
  -20.9390  -26.6840   22.2690 C   0  0  0  0  0  2  0  0  0  0  0  0
  -19.8380  -26.4020   21.2410 C   0  0  0  0  0  2  0  0  0  0  0  0
  -18.4530  -26.4850   21.8890 C   0  0  0  0  0  2  0  0  0  0  0  0
  -19.3600  -28.5470   23.1120 C   0  0  0  0  0  0  0  0  0  0  0  0
  -19.1230  -29.7710   23.7710 C   0  0  0  0  0  3  0  0  0  0  0  0
  -17.8120  -30.2490   23.9500 C   0  0  0  0  0  3  0  0  0  0  0  0
  -16.7190  -29.4920   23.4980 C   0  0  0  0  0  3  0  0  0  0  0  0
  -16.9400  -28.2600   22.8560 C   0  0  0  0  0  3  0  0  0  0  0  0
  -25.9220  -32.3990   23.8160 C   0  0  0  0  0  3  0  0  0  0  0  0
  -26.4190  -31.6280   25.1010 C   0  0  1  0  0  0  0  0  0  0  0  0
  -25.2970  -31.3430   26.1280 C   0  0  0  0  0  1  0  0  0  0  0  0
  -27.0590  -30.2730   24.7180 C   0  0  0  0  0  1  0  0  0  0  0  0
  -27.5290  -32.4420   25.8100 C   0  0  0  0  0  1  0  0  0  0  0  0
  -25.5580  -33.7830   24.1600 N   0  0  0  0  0  0  0  0  0  0  0  0
  -25.8640  -34.8550   23.4210 C   0  0  0  0  0  0  0  0  0  0  0  0
  -26.5550  -34.7900   22.4020 O   0  0  0  0  0  0  0  0  0  0  0  0
  -24.9420  -33.9090   24.9490 H   0  0  0  0  0  0  0  0  0  0  0  0
  -24.0670  -36.5790   23.0640 C   0  0  0  0  0  1  0  0  0  0  0  0
  -25.3130  -36.2170   23.8870 C   0  0  0  0  0  3  0  0  0  0  0  0
  -27.3990  -37.1730   24.7630 C   0  0  0  0  0  1  0  0  0  0  0  0
  -26.3050  -37.3100   23.8030 N   0  0  0  0  0  0  0  0  0  0  0  0
  -25.8610  -38.2130   23.9530 H   0  0  0  0  0  0  0  0  0  0  0  0
  -29.4330  -16.7070   20.6330 C   0  0  0  0  0  2  0  0  0  0  0  0
  -30.9570  -14.6950   20.0800 C   0  0  0  0  0  0  0  0  0  0  0  0
  -30.4530  -12.5300   18.9570 C   0  0  0  0  0  2  0  0  0  0  0  0
  -29.4640  -12.7250   17.7930 C   0  0  0  0  0  2  0  0  0  0  0  0
  -28.0230  -12.5840   18.3110 C   0  0  0  0  0  2  0  0  0  0  0  0
  -27.7560  -13.4350   19.5800 C   0  0  0  0  0  3  0  0  0  0  0  0
  -28.8860  -13.2950   20.6320 C   0  0  0  0  0  2  0  0  0  0  0  0
  -30.1690  -13.5740   19.9740 N   0  0  0  0  0  0  0  0  0  0  0  0
  -32.0650  -14.7130   19.5390 O   0  0  0  0  0  0  0  0  0  0  0  0
  -31.6340  -16.3060   21.7680 C   0  0  0  0  0  1  0  0  0  0  0  0
  -30.5980  -15.7750   20.8650 N   0  0  0  0  0  0  0  0  0  0  0  0
  -25.4000  -14.0410   20.4170 C   0  0  0  0  0  0  0  0  0  0  0  0
  -24.3470  -13.2760   20.8230 C   0  0  0  0  0  0  0  0  0  0  0  0
  -24.7950  -11.9180   20.7630 C   0  0  0  0  0  0  0  0  0  0  0  0
  -26.4300  -13.1580   20.1330 N   0  0  0  0  0  0  0  0  0  0  0  0
  -26.0740  -11.8750   20.4070 N   0  0  0  0  0  0  0  0  0  0  0  0
  -24.0610  -10.6630   20.9730 C   0  0  0  0  0  0  0  0  0  0  0  0
  -24.5110   -9.6910   21.8940 C   0  0  0  0  0  3  0  0  0  0  0  0
  -23.7780   -8.5020   22.1000 C   0  0  0  0  0  3  0  0  0  0  0  0
  -22.5790   -8.2720   21.3830 C   0  0  0  0  0  0  0  0  0  0  0  0
  -22.1500   -9.2300   20.4470 C   0  0  0  0  0  3  0  0  0  0  0  0
  -22.8830  -10.4100   20.2400 C   0  0  0  0  0  3  0  0  0  0  0  0
  -21.8180   -7.1340   21.4950 O   0  0  0  0  0  0  0  0  0  0  0  0
  -21.7800   -6.4030   22.6570 C   0  0  0  0  0  0  0  0  0  0  0  0
  -21.3660   -6.9740   23.8790 C   0  0  0  0  0  3  0  0  0  0  0  0
  -21.2680   -6.1720   25.0350 C   0  0  0  0  0  3  0  0  0  0  0  0
  -21.5820   -4.8000   24.9680 C   0  0  0  0  0  0  0  0  0  0  0  0
  -21.9910   -4.2300   23.7490 C   0  0  0  0  0  3  0  0  0  0  0  0
  -22.0870   -5.0300   22.5980 C   0  0  0  0  0  0  0  0  0  0  0  0
  -22.4600   -4.4690   21.4210 F   0  0  0  0  0  0  0  0  0  0  0  0
  -21.4850   -4.0300   26.0760 F   0  0  0  0  0  0  0  0  0  0  0  0
  -22.9650  -13.7600   21.1570 C   0  0  0  0  0  0  0  0  0  0  0  0
  -22.2730  -13.0720   22.0530 N   0  0  0  0  0  0  0  0  0  0  0  0
  -22.5120  -14.7910   20.6540 O   0  0  0  0  0  0  0  0  0  0  0  0
  -22.6510  -12.2370   22.4780 H   0  0  0  0  0  0  0  0  0  0  0  0
  -21.3520  -13.3890   22.3230 H   0  0  0  0  0  0  0  0  0  0  0  0
  -25.5720  -15.4150   20.2420 N   0  0  0  0  0  0  0  0  0  0  0  0
  -24.8230  -16.0810   20.3970 H   0  0  0  0  0  0  0  0  0  0  0  0
  -26.4130  -15.8410   19.8770 H   0  0  0  0  0  0  0  0  0  0  0  0
  1  3  1  0
  2  6  1  0
  3 56  1  0
  3  6  2  0
  4  2  2  0
  5  1  2  0
  5  4  1  0
  6  8  1  0
  7  5  1  0
  9 10  1  0
 11  9  1  0
 12 14  1  0
 12 10  1  0
 13  4  1  0
 13 11  1  0
 13 12  1  0
 14 15  1  0
 16 27  2  0
 17 15  1  0
 17 22  1  0
 18 26  1  0
 18 28  1  0
 19 25  1  0
 19 21  1  0
 20 26  1  0
 21 22  2  0
 21 20  1  0
 23 17  2  0
 24 23  1  0
 24 19  2  0
 25 18  1  0
 26 16  1  0
 28 30  2  0
 29 28  1  0
 31 29  1  0
 32 41  2  0
 32 37  1  0
 33 29  1  0
 33 37  1  0
 34 33  1  0
 35 36  1  0
 35 34  1  0
 36 32  1  0
 37 38  2  0
 38 39  1  0
 40 39  2  0
 41 40  1  0
 42 16  1  0
 42 47  1  0
 42 43  1  0
 43 46  1  1
 43 44  1  0
 45 43  1  0
 47 50  1  0
 48 52  1  0
 48 47  1  0
 49 48  2  0
 52 51  1  0
 54 52  1  0
 54 55  1  0
 54 53  1  0
 56 66  1  0
 57 66  1  0
 58 63  1  0
 59 60  1  0
 59 58  1  0
 61 60  1  0
 61 70  1  0
 61 62  1  0
 63 57  1  0
 63 62  1  0
 64 57  2  0
 66 65  1  0
 67 68  2  0
 68 87  1  0
 69 68  1  0
 69 72  1  0
 70 71  1  0
 70 67  1  0
 71 69  2  0
 72 73  1  0
 73 74  2  0
 75 78  1  0
 75 74  1  0
 76 75  2  0
 77 76  1  0
 77 72  2  0
 78 79  1  0
 79 80  1  0
 80 81  2  0
 82 81  1  0
 82 86  1  0
 83 82  2  0
 84 79  2  0
 84 83  1  0
 85 84  1  0
 87 88  1  0
 88 91  1  0
 88 90  1  0
 89 87  2  0
 92 93  1  0
 92 67  1  0
 94 92  1  0
M  ISO  4  14 101  15 101  57 100  66 100
M  END
>  <TORSDO>  (71) 
F 19

>  <SCORE>  (71) 
-13.367

>  <name>  (71) 
70

>  <ligand_id>  (71) 
70

>  <original_smiles>  (71) 
[H]c1c([H])c([H])c2c(c1[H])C([H])([H])C([H])([H])C([H])([H])C2([H])N([H])C(=O)C1([H])N(C(=O)C([H])(N([H])C(=O)C([H])(N([H])C([H])([H])[H])C([H])([H])[H])C(C([H])([H])[H])(C([H])([H])[H])C([H])([H])[H])C([H])([H])c2c([H])c(OC([H])([H])C3([H])N(c4c([H])c(F)c(C([H])([H])N(C(=O)N5C([H])([H])C([H])([H])C([H])([H])C([H])(n6nc(-c7c([H])c([H])c(Oc8c([H])c([H])c(F)c([H])c8F)c([H])c7[H])c(C(=O)N([H])[H])c6N([H])[H])C5([H])[H])C([H])([H])[H])c([H])c4F)C([H])([H])C([H])([H])C3([H])[H])c([H])c([H])c2C1([H])[H]

>  <smiles>  (71) 
[H]c1c([H])c([H])c2c(c1[H])C([H])([H])C([H])([H])C([H])([H])C2([H])N([H])C(=O)C1([H])N(C(=O)C([H])(N([H])C(=O)C([H])(N([H])C([H])([H])[H])C([H])([H])[H])C(C([H])([H])[H])(C([H])([H])[H])C([H])([H])[H])C([H])([H])c2c([H])c(OC([H])([H])C3([H])N(c4c([H])c(F)c(C([H])([H])N(C(=O)N5C([H])([H])C([H])([H])C([H])([H])C([H])(n6nc(-c7c([H])c([H])c(Oc8c([H])c([H])c(F)c([H])c8F)c([H])c7[H])c(C(=O)N([H])[H])c6N([H])[H])C5([H])[H])C([H])([H])[H])c([H])c4F)C([H])([H])C([H])([H])C3([H])[H])c([H])c([H])c2C1([H])[H]

$$$$
71:0:0
     RDKit          3D

 93102  0  0  1  0  0  0  0  0999 V2000
  -29.6090  -22.8010   17.8230 C   0  0  0  0  0  2  0  0  0  0  0  0
  -28.2990  -23.1130   18.5670 C   0  0  0  0  0  2  0  0  0  0  0  0
  -30.5350  -22.1380   18.8520 C   0  0  0  0  0  2  0  0  0  0  0  0
  -28.6200  -22.9450   20.0560 C   0  0  0  0  0  3  0  0  0  0  0  0
  -29.6880  -21.7710   19.9740 N   0  0  0  0  0  0  0  0  0  0  0  0
  -30.1540  -20.2320   21.8340 C   0  0  0  0  0  3  0  0  0  0  0  0
  -30.5580  -19.0130   22.4270 C   0  0  0  0  0  3  0  0  0  0  0  0
  -29.9240  -19.0100   19.7460 C   0  0  0  0  0  0  0  0  0  0  0  0
  -29.8510  -20.3470   20.4620 C   0  0  0  0  0  0  0  0  0  0  0  0
  -30.3490  -17.6880   20.3500 C   0  0  0  0  0  0  0  0  0  0  0  0
  -30.6700  -17.7930   21.7210 C   0  0  0  0  0  0  0  0  0  0  0  0
  -29.5080  -18.9700   18.2880 C   0  0  0  0  0  1  0  0  0  0  0  0
  -31.0350  -16.6800   22.4020 F   0  0  0  0  0  0  0  0  0  0  0  0
  -31.0170  -14.9920   19.9360 C   0  0  0  0  0  0  0  0  0  0  0  0
  -30.7860  -12.6350   18.9640 C   0  0  0  0  0  2  0  0  0  0  0  0
  -29.8030  -12.5940   17.7720 C   0  0  0  0  0  2  0  0  0  0  0  0
  -28.3490  -12.4320   18.2650 C   0  0  0  0  0  2  0  0  0  0  0  0
  -28.0190  -13.3800   19.4480 C   0  0  0  0  0  3  0  0  0  0  0  0
  -29.1190  -13.3690   20.5280 C   0  0  0  0  0  2  0  0  0  0  0  0
  -30.3630  -13.7570   19.8510 N   0  0  0  0  0  0  0  0  0  0  0  0
  -32.2410  -14.9640   19.7680 O   0  0  0  0  0  0  0  0  0  0  0  0
  -30.2780  -16.2270   19.8060 N   0  0  0  0  0  0  0  0  0  0  0  0
  -29.3470  -16.0190   19.4830 H   0  0  0  0  0  0  0  0  0  0  0  0
  -25.7150  -14.0800   20.3000 C   0  0  0  0  0  0  0  0  0  0  0  0
  -24.6190  -13.3640   20.6880 C   0  0  0  0  0  0  0  0  0  0  0  0
  -24.9980  -11.9890   20.6120 C   0  0  0  0  0  0  0  0  0  0  0  0
  -26.6910  -13.1470   20.0000 N   0  0  0  0  0  0  0  0  0  0  0  0
  -26.2730  -11.8800   20.2550 N   0  0  0  0  0  0  0  0  0  0  0  0
  -24.2000  -10.7700   20.8010 C   0  0  0  0  0  0  0  0  0  0  0  0
  -24.5900   -9.7650   21.7140 C   0  0  0  0  0  3  0  0  0  0  0  0
  -23.7970   -8.6120   21.8920 C   0  0  0  0  0  3  0  0  0  0  0  0
  -22.5970   -8.4540   21.1580 C   0  0  0  0  0  0  0  0  0  0  0  0
  -22.2240   -9.4460   20.2330 C   0  0  0  0  0  3  0  0  0  0  0  0
  -23.0180  -10.5920   20.0540 C   0  0  0  0  0  3  0  0  0  0  0  0
  -21.7780   -7.3560   21.2460 O   0  0  0  0  0  0  0  0  0  0  0  0
  -21.6820   -6.6190   22.3990 C   0  0  0  0  0  0  0  0  0  0  0  0
  -21.3110   -7.2060   23.6280 C   0  0  0  0  0  3  0  0  0  0  0  0
  -21.1580   -6.4010   24.7740 C   0  0  0  0  0  3  0  0  0  0  0  0
  -21.3640   -5.0100   24.6920 C   0  0  0  0  0  0  0  0  0  0  0  0
  -21.7280   -4.4240   23.4670 C   0  0  0  0  0  3  0  0  0  0  0  0
  -21.8830   -5.2260   22.3230 C   0  0  0  0  0  0  0  0  0  0  0  0
  -22.2140   -4.6530   21.1410 F   0  0  0  0  0  0  0  0  0  0  0  0
  -21.2090   -4.2350   25.7910 F   0  0  0  0  0  0  0  0  0  0  0  0
  -23.2640  -13.9200   21.0150 C   0  0  0  0  0  0  0  0  0  0  0  0
  -22.5280  -13.2610   21.9020 N   0  0  0  0  0  0  0  0  0  0  0  0
  -22.8700  -14.9750   20.5180 O   0  0  0  0  0  0  0  0  0  0  0  0
  -22.8620  -12.4090   22.3270 H   0  0  0  0  0  0  0  0  0  0  0  0
  -21.6190  -13.6170   22.1610 H   0  0  0  0  0  0  0  0  0  0  0  0
  -25.9520  -15.4430   20.1480 N   0  0  0  0  0  0  0  0  0  0  0  0
  -25.2240  -16.1330   20.2980 H   0  0  0  0  0  0  0  0  0  0  0  0
  -26.8120  -15.8480   19.8040 H   0  0  0  0  0  0  0  0  0  0  0  0
  -28.8380  -24.5190   20.7320 C   0  0  0  0  0  2  0  0  0  0  0  0
  -28.7000  -26.0170   20.2160 O   0  0  0  0  0  0  0  0  0  0  0  0
  -24.7350  -31.6180   23.1460 C   0  0  0  0  0  0  0  0  0  0  0  0
  -27.5680  -26.9280   20.2550 C   0  0  0  0  0  0  0  0  0  0  0  0
  -23.6370  -30.1690   21.4810 C   0  0  0  0  0  3  0  0  0  0  0  0
  -25.1810  -28.6150   20.1290 C   0  0  0  0  0  0  0  0  0  0  0  0
  -26.1870  -30.5110   21.3950 C   0  0  0  0  0  2  0  0  0  0  0  0
  -26.3300  -29.1070   20.7630 C   0  0  0  0  0  0  0  0  0  0  0  0
  -27.5240  -28.2850   20.7960 C   0  0  0  0  0  3  0  0  0  0  0  0
  -26.3870  -26.5360   19.5940 C   0  0  0  0  0  3  0  0  0  0  0  0
  -25.2260  -27.3450   19.5300 C   0  0  0  0  0  3  0  0  0  0  0  0
  -23.9270  -29.4800   20.1210 C   0  0  0  0  0  2  0  0  0  0  0  0
  -24.8720  -30.7910   22.0630 N   0  0  0  0  0  0  0  0  0  0  0  0
  -23.6220  -31.8690   23.6370 O   0  0  0  0  0  0  0  0  0  0  0  0
  -22.9590  -29.1520   22.4330 C   0  0  0  0  0  0  0  0  0  0  0  0
  -21.6380  -28.9480   22.2760 N   0  0  0  0  0  0  0  0  0  0  0  0
  -23.6260  -28.5440   23.2740 O   0  0  0  0  0  0  0  0  0  0  0  0
  -21.1550  -29.4910   21.5740 H   0  0  0  0  0  0  0  0  0  0  0  0
  -18.2780  -27.6550   22.7010 C   0  0  0  0  0  0  0  0  0  0  0  0
  -20.8230  -27.9900   23.0290 C   0  0  0  0  0  3  0  0  0  0  0  0
  -20.9770  -26.5590   22.4610 C   0  0  0  0  0  2  0  0  0  0  0  0
  -19.9090  -26.2040   21.4220 C   0  0  0  0  0  2  0  0  0  0  0  0
  -18.5080  -26.3110   22.0310 C   0  0  0  0  0  2  0  0  0  0  0  0
  -19.3650  -28.4500   23.1560 C   0  0  0  0  0  0  0  0  0  0  0  0
  -19.0940  -29.7050   23.7410 C   0  0  0  0  0  3  0  0  0  0  0  0
  -17.7710  -30.1670   23.8790 C   0  0  0  0  0  3  0  0  0  0  0  0
  -16.7000  -29.3710   23.4390 C   0  0  0  0  0  3  0  0  0  0  0  0
  -16.9550  -28.1170   22.8560 C   0  0  0  0  0  3  0  0  0  0  0  0
  -25.9670  -32.3040   23.8110 C   0  0  0  0  0  3  0  0  0  0  0  0
  -25.5890  -33.6880   24.1370 N   0  0  0  0  0  0  0  0  0  0  0  0
  -25.8980  -34.7600   23.3960 C   0  0  0  0  0  0  0  0  0  0  0  0
  -26.5940  -34.6910   22.3790 O   0  0  0  0  0  0  0  0  0  0  0  0
  -24.9700  -33.8120   24.9250 H   0  0  0  0  0  0  0  0  0  0  0  0
  -24.1040  -36.4870   23.0230 C   0  0  0  0  0  1  0  0  0  0  0  0
  -25.3490  -36.1270   23.8510 C   0  0  0  0  0  3  0  0  0  0  0  0
  -27.4340  -37.0940   24.7140 C   0  0  0  0  0  1  0  0  0  0  0  0
  -26.3380  -37.2220   23.7570 N   0  0  0  0  0  0  0  0  0  0  0  0
  -25.8920  -38.1240   23.9020 H   0  0  0  0  0  0  0  0  0  0  0  0
  -26.4670  -31.5540   25.1090 C   0  0  1  0  0  0  0  0  0  0  0  0
  -25.3490  -31.2860   26.1450 C   0  0  0  0  0  1  0  0  0  0  0  0
  -27.1050  -30.1950   24.7470 C   0  0  0  0  0  1  0  0  0  0  0  0
  -27.5690  -32.3880   25.8010 C   0  0  0  0  0  1  0  0  0  0  0  0
  1  2  1  0
  1  3  1  0
  2  4  1  0
  3  5  1  0
  4 52  1  0
  5  4  1  0
  5  9  1  0
  6  7  1  0
  8 10  2  0
  8  9  1  0
  9  6  2  0
 10 11  1  0
 11 13  1  0
 11  7  2  0
 12  8  1  0
 15 20  1  0
 16 17  1  0
 16 15  1  0
 18 17  1  0
 18 27  1  0
 18 19  1  0
 20 14  1  0
 20 19  1  0
 21 14  2  0
 22 14  1  0
 22 10  1  0
 23 22  1  0
 24 25  2  0
 25 44  1  0
 26 25  1  0
 26 29  1  0
 27 28  1  0
 27 24  1  0
 28 26  2  0
 29 30  1  0
 30 31  2  0
 32 35  1  0
 32 31  1  0
 33 32  2  0
 34 33  1  0
 34 29  2  0
 35 36  1  0
 36 37  1  0
 37 38  2  0
 39 38  1  0
 39 43  1  0
 40 39  2  0
 41 36  2  0
 41 40  1  0
 42 41  1  0
 44 45  1  0
 45 48  1  0
 45 47  1  0
 46 44  2  0
 49 50  1  0
 49 24  1  0
 51 49  1  0
 53 55  1  0
 53 52  1  0
 54 65  2  0
 55 60  1  0
 56 64  1  0
 56 66  1  0
 57 59  1  0
 58 64  1  0
 59 60  2  0
 59 58  1  0
 61 55  2  0
 62 61  1  0
 62 57  2  0
 63 57  1  0
 63 56  1  0
 64 54  1  0
 66 68  2  0
 67 66  1  0
 69 67  1  0
 70 79  2  0
 70 75  1  0
 71 67  1  0
 71 75  1  0
 72 71  1  0
 73 74  1  0
 73 72  1  0
 74 70  1  0
 75 76  2  0
 76 77  1  0
 78 77  2  0
 79 78  1  0
 80 54  1  0
 80 81  1  0
 80 90  1  0
 81 84  1  0
 82 86  1  0
 82 81  1  0
 83 82  2  0
 86 85  1  0
 88 86  1  0
 88 89  1  0
 88 87  1  0
 90 93  1  1
 90 91  1  0
 92 90  1  0
M  ISO  4  14 100  22 100  52 101  53 101
M  END
>  <TORSDO>  (72) 
F 18

>  <SCORE>  (72) 
-14.434

>  <name>  (72) 
71

>  <ligand_id>  (72) 
71

>  <original_smiles>  (72) 
[H]c1c([H])c([H])c2c(c1[H])C([H])([H])C([H])([H])C([H])([H])C2([H])N([H])C(=O)C1([H])N(C(=O)C([H])(N([H])C(=O)C([H])(N([H])C([H])([H])[H])C([H])([H])[H])C(C([H])([H])[H])(C([H])([H])[H])C([H])([H])[H])C([H])([H])c2c([H])c(OC([H])([H])C3([H])N(c4c([H])c([H])c(F)c(N([H])C(=O)N5C([H])([H])C([H])([H])C([H])([H])C([H])(n6nc(-c7c([H])c([H])c(Oc8c([H])c([H])c(F)c([H])c8F)c([H])c7[H])c(C(=O)N([H])[H])c6N([H])[H])C5([H])[H])c4C([H])([H])[H])C([H])([H])C([H])([H])C3([H])[H])c([H])c([H])c2C1([H])[H]

>  <smiles>  (72) 
[H]c1c([H])c([H])c2c(c1[H])C([H])([H])C([H])([H])C([H])([H])C2([H])N([H])C(=O)C1([H])N(C(=O)C([H])(N([H])C(=O)C([H])(N([H])C([H])([H])[H])C([H])([H])[H])C(C([H])([H])[H])(C([H])([H])[H])C([H])([H])[H])C([H])([H])c2c([H])c(OC([H])([H])C3([H])N(c4c([H])c([H])c(F)c(N([H])C(=O)N5C([H])([H])C([H])([H])C([H])([H])C([H])(n6nc(-c7c([H])c([H])c(Oc8c([H])c([H])c(F)c([H])c8F)c([H])c7[H])c(C(=O)N([H])[H])c6N([H])[H])C5([H])[H])c4C([H])([H])[H])C([H])([H])C([H])([H])C3([H])[H])c([H])c([H])c2C1([H])[H]

$$$$
72:0:0
     RDKit          3D

 92100  0  0  1  0  0  0  0  0999 V2000
  -30.2410  -21.7150   20.3590 C   0  0  0  0  0  0  0  0  0  0  0  0
  -29.2240  -22.6170   20.1910 N   0  0  0  0  0  0  0  0  0  0  0  0
  -31.3830  -22.1440   20.5470 O   0  0  0  0  0  0  0  0  0  0  0  0
  -28.2910  -22.2540   20.0450 H   0  0  0  0  0  0  0  0  0  0  0  0
  -31.2160  -19.3490   20.0870 C   0  0  0  0  0  3  0  0  0  0  0  0
  -31.1800  -17.9240   20.1470 C   0  0  0  0  0  3  0  0  0  0  0  0
  -28.8260  -18.0460   20.6030 C   0  0  0  0  0  3  0  0  0  0  0  0
  -30.0710  -20.1760   20.2900 C   0  0  0  0  0  0  0  0  0  0  0  0
  -29.9780  -17.2230   20.4200 C   0  0  0  0  0  0  0  0  0  0  0  0
  -28.8620  -19.4770   20.5450 C   0  0  0  0  0  0  0  0  0  0  0  0
  -27.7160  -20.1670   20.7630 F   0  0  0  0  0  0  0  0  0  0  0  0
  -30.6240  -14.7110   20.0850 C   0  0  0  0  0  0  0  0  0  0  0  0
  -30.3360  -12.5040   18.9760 C   0  0  0  0  0  2  0  0  0  0  0  0
  -29.3290  -12.6760   17.8170 C   0  0  0  0  0  2  0  0  0  0  0  0
  -27.8800  -12.5190   18.3180 C   0  0  0  0  0  2  0  0  0  0  0  0
  -27.5980  -13.3510   19.5970 C   0  0  0  0  0  3  0  0  0  0  0  0
  -28.7110  -13.1510   20.6510 C   0  0  0  0  0  2  0  0  0  0  0  0
  -29.9920  -13.4960   20.0150 N   0  0  0  0  0  0  0  0  0  0  0  0
  -31.7650  -14.8620   19.6380 O   0  0  0  0  0  0  0  0  0  0  0  0
  -29.8530  -15.7620   20.5210 N   0  0  0  0  0  0  0  0  0  0  0  0
  -28.9700  -15.4460   20.8940 H   0  0  0  0  0  0  0  0  0  0  0  0
  -25.2520  -13.9580   20.4530 C   0  0  0  0  0  0  0  0  0  0  0  0
  -24.1970  -13.1880   20.8600 C   0  0  0  0  0  0  0  0  0  0  0  0
  -24.6400  -11.8330   20.7710 C   0  0  0  0  0  0  0  0  0  0  0  0
  -26.2720  -13.0720   20.1430 N   0  0  0  0  0  0  0  0  0  0  0  0
  -25.9120  -11.7880   20.3950 N   0  0  0  0  0  0  0  0  0  0  0  0
  -23.9100  -10.5740   20.9680 C   0  0  0  0  0  0  0  0  0  0  0  0
  -24.3480   -9.6020   21.8940 C   0  0  0  0  0  3  0  0  0  0  0  0
  -23.6170   -8.4070   22.0770 C   0  0  0  0  0  3  0  0  0  0  0  0
  -22.4340   -8.1780   21.3360 C   0  0  0  0  0  0  0  0  0  0  0  0
  -22.0150   -9.1390   20.3990 C   0  0  0  0  0  3  0  0  0  0  0  0
  -22.7460  -10.3240   20.2130 C   0  0  0  0  0  3  0  0  0  0  0  0
  -21.6750   -7.0370   21.4290 O   0  0  0  0  0  0  0  0  0  0  0  0
  -21.5970   -6.3180   22.5950 C   0  0  0  0  0  0  0  0  0  0  0  0
  -21.1190   -6.8900   23.7930 C   0  0  0  0  0  3  0  0  0  0  0  0
  -20.9900   -6.0960   24.9510 C   0  0  0  0  0  3  0  0  0  0  0  0
  -21.3300   -4.7300   24.9100 C   0  0  0  0  0  0  0  0  0  0  0  0
  -21.8020   -4.1580   23.7160 C   0  0  0  0  0  3  0  0  0  0  0  0
  -21.9320   -4.9480   22.5610 C   0  0  0  0  0  0  0  0  0  0  0  0
  -22.3670   -4.3870   21.4080 F   0  0  0  0  0  0  0  0  0  0  0  0
  -21.1990   -3.9660   26.0190 F   0  0  0  0  0  0  0  0  0  0  0  0
  -22.8210  -13.6730   21.2160 C   0  0  0  0  0  0  0  0  0  0  0  0
  -22.1260  -12.9580   22.0920 N   0  0  0  0  0  0  0  0  0  0  0  0
  -22.3730  -14.7210   20.7520 O   0  0  0  0  0  0  0  0  0  0  0  0
  -22.5010  -12.1090   22.4900 H   0  0  0  0  0  0  0  0  0  0  0  0
  -21.2040  -13.2640   22.3720 H   0  0  0  0  0  0  0  0  0  0  0  0
  -25.4230  -15.3310   20.2990 N   0  0  0  0  0  0  0  0  0  0  0  0
  -24.6610  -15.9850   20.4480 H   0  0  0  0  0  0  0  0  0  0  0  0
  -26.2400  -15.7650   19.8880 H   0  0  0  0  0  0  0  0  0  0  0  0
  -29.4030  -24.1180   20.3100 C   0  0  0  0  0  3  0  0  0  0  0  0
  -28.2050  -25.0790   19.9140 C   0  0  0  0  0  3  0  0  0  0  0  0
  -28.3850  -26.5370   20.1240 O   0  0  0  0  0  0  0  0  0  0  0  0
  -24.5960  -31.8440   23.2130 C   0  0  0  0  0  0  0  0  0  0  0  0
  -27.2520  -27.3660   20.0830 C   0  0  0  0  0  0  0  0  0  0  0  0
  -23.4060  -30.4670   21.5430 C   0  0  0  0  0  3  0  0  0  0  0  0
  -24.8720  -28.9550   20.0940 C   0  0  0  0  0  0  0  0  0  0  0  0
  -25.9430  -30.8100   21.3720 C   0  0  0  0  0  2  0  0  0  0  0  0
  -26.0360  -29.4450   20.7010 C   0  0  0  0  0  0  0  0  0  0  0  0
  -27.2280  -28.6640   20.6840 C   0  0  0  0  0  3  0  0  0  0  0  0
  -26.0630  -26.9290   19.4540 C   0  0  0  0  0  3  0  0  0  0  0  0
  -24.8870  -27.7030   19.4620 C   0  0  0  0  0  3  0  0  0  0  0  0
  -23.6290  -29.8190   20.1520 C   0  0  0  0  0  2  0  0  0  0  0  0
  -24.6680  -31.0570   22.1000 N   0  0  0  0  0  0  0  0  0  0  0  0
  -23.5100  -32.1040   23.7490 O   0  0  0  0  0  0  0  0  0  0  0  0
  -22.7490  -29.4280   22.4830 C   0  0  0  0  0  0  0  0  0  0  0  0
  -21.4240  -29.2500   22.3530 N   0  0  0  0  0  0  0  0  0  0  0  0
  -23.4290  -28.7870   23.2880 O   0  0  0  0  0  0  0  0  0  0  0  0
  -20.9330  -29.8190   21.6770 H   0  0  0  0  0  0  0  0  0  0  0  0
  -18.0460  -28.0540   22.8470 C   0  0  0  0  0  0  0  0  0  0  0  0
  -20.6070  -28.2950   23.1040 C   0  0  0  0  0  3  0  0  0  0  0  0
  -20.6990  -26.8790   22.4900 C   0  0  0  0  0  2  0  0  0  0  0  0
  -19.5870  -26.5880   21.4760 C   0  0  0  0  0  2  0  0  0  0  0  0
  -18.2110  -26.7220   22.1330 C   0  0  0  0  0  2  0  0  0  0  0  0
  -19.1710  -28.8000   23.2880 C   0  0  0  0  0  0  0  0  0  0  0  0
  -18.9620  -30.0480   23.9150 C   0  0  0  0  0  3  0  0  0  0  0  0
  -17.6600  -30.5490   24.1050 C   0  0  0  0  0  3  0  0  0  0  0  0
  -16.5500  -29.8010   23.6780 C   0  0  0  0  0  3  0  0  0  0  0  0
  -16.7430  -28.5550   23.0550 C   0  0  0  0  0  3  0  0  0  0  0  0
  -25.8730  -32.4730   23.8500 C   0  0  0  0  0  3  0  0  0  0  0  0
  -26.3780  -31.6930   25.1260 C   0  0  1  0  0  0  0  0  0  0  0  0
  -25.2750  -31.4430   26.1800 C   0  0  0  0  0  1  0  0  0  0  0  0
  -26.9710  -30.3220   24.7300 C   0  0  0  0  0  1  0  0  0  0  0  0
  -27.5180  -32.4870   25.8070 C   0  0  0  0  0  1  0  0  0  0  0  0
  -25.5590  -33.8680   24.1880 N   0  0  0  0  0  0  0  0  0  0  0  0
  -25.8760  -34.9260   23.4290 C   0  0  0  0  0  0  0  0  0  0  0  0
  -26.5340  -34.8290   22.3890 O   0  0  0  0  0  0  0  0  0  0  0  0
  -24.9720  -34.0160   24.9970 H   0  0  0  0  0  0  0  0  0  0  0  0
  -24.1250  -36.7040   23.1110 C   0  0  0  0  0  1  0  0  0  0  0  0
  -25.3860  -36.3100   23.8960 C   0  0  0  0  0  3  0  0  0  0  0  0
  -27.5240  -37.2210   24.6900 C   0  0  0  0  0  1  0  0  0  0  0  0
  -26.4060  -37.3720   23.7610 N   0  0  0  0  0  0  0  0  0  0  0  0
  -25.9950  -38.2900   23.9080 H   0  0  0  0  0  0  0  0  0  0  0  0
  1  3  2  0
  2 50  1  0
  2  1  1  0
  4  2  1  0
  5  6  2  0
  5  8  1  0
  6  9  1  0
  8  1  1  0
  8 10  2  0
  9 20  1  0
  9  7  2  0
 10  7  1  0
 10 11  1  0
 12 20  1  0
 13 18  1  0
 14 15  1  0
 14 13  1  0
 16 15  1  0
 16 25  1  0
 16 17  1  0
 18 12  1  0
 18 17  1  0
 19 12  2  0
 20 21  1  0
 22 23  2  0
 23 42  1  0
 24 23  1  0
 24 27  1  0
 25 26  1  0
 25 22  1  0
 26 24  2  0
 27 28  1  0
 28 29  2  0
 30 33  1  0
 30 29  1  0
 31 30  2  0
 32 31  1  0
 32 27  2  0
 33 34  1  0
 34 35  1  0
 35 36  2  0
 37 36  1  0
 37 41  1  0
 38 37  2  0
 39 34  2  0
 39 38  1  0
 40 39  1  0
 42 43  1  0
 43 46  1  0
 43 45  1  0
 44 42  2  0
 47 48  1  0
 47 22  1  0
 49 47  1  0
 51 52  1  0
 51 50  2  0
 53 64  2  0
 54 52  1  0
 54 59  1  0
 55 63  1  0
 55 65  1  0
 56 62  1  0
 56 58  1  0
 57 63  1  0
 58 57  1  0
 59 58  2  0
 60 61  1  0
 60 54  2  0
 61 56  2  0
 62 55  1  0
 63 53  1  0
 65 67  2  0
 66 65  1  0
 68 66  1  0
 69 78  2  0
 69 74  1  0
 70 66  1  0
 70 74  1  0
 71 70  1  0
 72 73  1  0
 72 71  1  0
 73 69  1  0
 74 75  2  0
 75 76  1  0
 77 76  2  0
 78 77  1  0
 79 53  1  0
 79 84  1  0
 79 80  1  0
 80 83  1  1
 80 81  1  0
 82 80  1  0
 84 87  1  0
 85 89  1  0
 85 84  1  0
 86 85  2  0
 89 88  1  0
 91 89  1  0
 91 92  1  0
 91 90  1  0
M  ISO  4  12 100  20 100  51 101  52 101
M  END
>  <TORSDO>  (73) 
F 19

>  <SCORE>  (73) 
-14.260

>  <name>  (73) 
72

>  <ligand_id>  (73) 
72

>  <original_smiles>  (73) 
[H]c1c([H])c([H])c2c(c1[H])C([H])([H])C([H])([H])C([H])([H])C2([H])N([H])C(=O)C1([H])N(C(=O)C([H])(N([H])C(=O)C([H])(N([H])C([H])([H])[H])C([H])([H])[H])C(C([H])([H])[H])(C([H])([H])[H])C([H])([H])[H])C([H])([H])c2c([H])c(OC([H])([H])C([H])([H])N([H])C(=O)c3c([H])c([H])c(N([H])C(=O)N4C([H])([H])C([H])([H])C([H])([H])C([H])(n5nc(-c6c([H])c([H])c(Oc7c([H])c([H])c(F)c([H])c7F)c([H])c6[H])c(C(=O)N([H])[H])c5N([H])[H])C4([H])[H])c([H])c3F)c([H])c([H])c2C1([H])[H]

>  <smiles>  (73) 
[H]c1c([H])c([H])c2c(c1[H])C([H])([H])C([H])([H])C([H])([H])C2([H])N([H])C(=O)C1([H])N(C(=O)C([H])(N([H])C(=O)C([H])(N([H])C([H])([H])[H])C([H])([H])[H])C(C([H])([H])[H])(C([H])([H])[H])C([H])([H])[H])C([H])([H])c2c([H])c(OC([H])([H])C([H])([H])N([H])C(=O)c3c([H])c([H])c(N([H])C(=O)N4C([H])([H])C([H])([H])C([H])([H])C([H])(n5nc(-c6c([H])c([H])c(Oc7c([H])c([H])c(F)c([H])c7F)c([H])c6[H])c(C(=O)N([H])[H])c5N([H])[H])C4([H])[H])c([H])c3F)c([H])c([H])c2C1([H])[H]

$$$$
73:0:0
     RDKit          3D

 98108  0  0  1  0  0  0  0  0999 V2000
  -29.6660  -18.5720   20.4350 C   0  0  0  0  0  3  0  0  0  0  0  0
  -31.6900  -18.8060   18.5720 C   0  0  0  0  0  3  0  0  0  0  0  0
  -30.1200  -19.9240   20.0980 C   0  0  0  0  0  0  0  0  0  0  0  0
  -31.2800  -19.9640   19.2710 C   0  0  0  0  0  0  0  0  0  0  0  0
  -30.2410  -17.3380   19.8960 C   0  0  0  0  0  0  0  0  0  0  0  0
  -31.1440  -17.5340   18.8160 C   0  0  0  0  0  0  0  0  0  0  0  0
  -31.6120  -16.2840   17.7100 Cl  0  0  0  0  0  0  0  0  0  0  0  0
  -30.6400  -14.7870   20.3490 C   0  0  0  0  0  0  0  0  0  0  0  0
  -30.4110  -12.5100   19.3750 C   0  0  0  0  0  2  0  0  0  0  0  0
  -29.4880  -12.6010   18.1400 C   0  0  0  0  0  2  0  0  0  0  0  0
  -28.0130  -12.4430   18.5580 C   0  0  0  0  0  2  0  0  0  0  0  0
  -27.6350  -13.3280   19.7750 C   0  0  0  0  0  3  0  0  0  0  0  0
  -28.6870  -13.2470   20.9020 C   0  0  0  0  0  2  0  0  0  0  0  0
  -29.9880  -13.5760   20.3090 N   0  0  0  0  0  0  0  0  0  0  0  0
  -31.8610  -14.8170   20.1860 O   0  0  0  0  0  0  0  0  0  0  0  0
  -29.8820  -15.9590   20.3520 N   0  0  0  0  0  0  0  0  0  0  0  0
  -28.9220  -15.8340   20.6310 H   0  0  0  0  0  0  0  0  0  0  0  0
  -25.2430  -13.9220   20.4830 C   0  0  0  0  0  0  0  0  0  0  0  0
  -24.1730  -13.1510   20.8450 C   0  0  0  0  0  0  0  0  0  0  0  0
  -24.6360  -11.8010   20.8250 C   0  0  0  0  0  0  0  0  0  0  0  0
  -26.2880  -13.0420   20.2580 N   0  0  0  0  0  0  0  0  0  0  0  0
  -25.9300  -11.7610   20.5320 N   0  0  0  0  0  0  0  0  0  0  0  0
  -23.9060  -10.5390   21.0110 C   0  0  0  0  0  0  0  0  0  0  0  0
  -24.3210   -9.5780   21.9610 C   0  0  0  0  0  3  0  0  0  0  0  0
  -23.5910   -8.3820   22.1350 C   0  0  0  0  0  3  0  0  0  0  0  0
  -22.4340   -8.1370   21.3580 C   0  0  0  0  0  0  0  0  0  0  0  0
  -22.0390   -9.0850   20.3990 C   0  0  0  0  0  3  0  0  0  0  0  0
  -22.7690  -10.2720   20.2230 C   0  0  0  0  0  3  0  0  0  0  0  0
  -21.6770   -6.9920   21.4400 O   0  0  0  0  0  0  0  0  0  0  0  0
  -21.5960   -6.2650   22.6000 C   0  0  0  0  0  0  0  0  0  0  0  0
  -21.1200   -6.8310   23.8030 C   0  0  0  0  0  3  0  0  0  0  0  0
  -20.9900   -6.0280   24.9550 C   0  0  0  0  0  3  0  0  0  0  0  0
  -21.3220   -4.6620   24.9040 C   0  0  0  0  0  0  0  0  0  0  0  0
  -21.7890   -4.0960   23.7050 C   0  0  0  0  0  3  0  0  0  0  0  0
  -21.9240   -4.8950   22.5560 C   0  0  0  0  0  0  0  0  0  0  0  0
  -22.3550   -4.3410   21.3980 F   0  0  0  0  0  0  0  0  0  0  0  0
  -21.1890   -3.8900   26.0070 F   0  0  0  0  0  0  0  0  0  0  0  0
  -22.7720  -13.6310   21.0950 C   0  0  0  0  0  0  0  0  0  0  0  0
  -22.0280  -12.9360   21.9490 N   0  0  0  0  0  0  0  0  0  0  0  0
  -22.3450  -14.6580   20.5700 O   0  0  0  0  0  0  0  0  0  0  0  0
  -22.3870  -12.1060   22.3970 H   0  0  0  0  0  0  0  0  0  0  0  0
  -21.0890  -13.2410   22.1600 H   0  0  0  0  0  0  0  0  0  0  0  0
  -25.4100  -15.2920   20.2960 N   0  0  0  0  0  0  0  0  0  0  0  0
  -24.6420  -15.9470   20.3910 H   0  0  0  0  0  0  0  0  0  0  0  0
  -26.2510  -15.7200   19.9330 H   0  0  0  0  0  0  0  0  0  0  0  0
  -34.2190  -22.0090   18.5390 C   0  0  0  0  0  2  0  0  0  0  0  0
  -34.0510  -22.1940   20.0440 C   0  0  0  0  0  2  0  0  0  0  0  0
  -32.8490  -21.5120   18.0550 C   0  0  0  0  0  2  0  0  0  0  0  0
  -33.0190  -21.1280   20.3910 C   0  0  0  0  0  2  0  0  0  0  0  0
  -32.1060  -21.1030   19.2550 N   0  0  0  0  0  0  0  0  0  0  0  0
  -29.5230  -21.2760   20.7620 C   0  0  0  0  0  2  0  0  0  0  0  0
  -29.5580  -24.7260   18.9050 C   0  0  0  0  0  2  0  0  0  0  0  0
  -30.0510  -23.2750   19.1670 C   0  0  0  0  0  2  0  0  0  0  0  0
  -28.3970  -23.6990   20.7340 C   0  0  0  0  0  2  0  0  0  0  0  0
  -28.3310  -24.9870   19.7900 C   0  0  0  0  0  3  0  0  0  0  0  0
  -29.0520  -22.5420   19.9790 N   0  0  2  0  0  4  0  0  0  0  0  0
  -28.3670  -22.2020   19.3190 H   0  0  0  0  0  0  0  0  0  0  0  0
  -28.3120  -26.4160   20.2940 O   0  0  0  0  0  0  0  0  0  0  0  0
  -24.5770  -31.9100   23.2620 C   0  0  0  0  0  0  0  0  0  0  0  0
  -27.1870  -27.2790   20.2300 C   0  0  0  0  0  0  0  0  0  0  0  0
  -23.3810  -30.5070   21.6250 C   0  0  0  0  0  3  0  0  0  0  0  0
  -24.8330  -28.9440   20.2120 C   0  0  0  0  0  0  0  0  0  0  0  0
  -25.9290  -30.8010   21.4600 C   0  0  0  0  0  2  0  0  0  0  0  0
  -26.0060  -29.4170   20.8120 C   0  0  0  0  0  0  0  0  0  0  0  0
  -27.1830  -28.5990   20.8070 C   0  0  0  0  0  3  0  0  0  0  0  0
  -25.9790  -26.8730   19.6180 C   0  0  0  0  0  3  0  0  0  0  0  0
  -24.8260  -27.6810   19.6070 C   0  0  0  0  0  3  0  0  0  0  0  0
  -23.6030  -29.8300   20.2470 C   0  0  0  0  0  2  0  0  0  0  0  0
  -24.6480  -31.0920   22.1710 N   0  0  0  0  0  0  0  0  0  0  0  0
  -23.4900  -32.1950   23.7860 O   0  0  0  0  0  0  0  0  0  0  0  0
  -22.7080  -29.4970   22.5850 C   0  0  0  0  0  0  0  0  0  0  0  0
  -21.3810  -29.3240   22.4520 N   0  0  0  0  0  0  0  0  0  0  0  0
  -23.3790  -28.8730   23.4100 O   0  0  0  0  0  0  0  0  0  0  0  0
  -20.8970  -29.8800   21.7600 H   0  0  0  0  0  0  0  0  0  0  0  0
  -17.9930  -28.1540   22.9610 C   0  0  0  0  0  0  0  0  0  0  0  0
  -20.5550  -28.3930   23.2240 C   0  0  0  0  0  3  0  0  0  0  0  0
  -20.6430  -26.9600   22.6480 C   0  0  0  0  0  2  0  0  0  0  0  0
  -19.5360  -26.6470   21.6370 C   0  0  0  0  0  2  0  0  0  0  0  0
  -18.1560  -26.8040   22.2830 C   0  0  0  0  0  2  0  0  0  0  0  0
  -19.1200  -28.9060   23.3890 C   0  0  0  0  0  0  0  0  0  0  0  0
  -18.9130  -30.1690   23.9850 C   0  0  0  0  0  3  0  0  0  0  0  0
  -17.6120  -30.6820   24.1550 C   0  0  0  0  0  3  0  0  0  0  0  0
  -16.5010  -29.9270   23.7420 C   0  0  0  0  0  3  0  0  0  0  0  0
  -16.6910  -28.6650   23.1510 C   0  0  0  0  0  3  0  0  0  0  0  0
  -25.8560  -32.5440   23.8900 C   0  0  0  0  0  3  0  0  0  0  0  0
  -26.3510  -31.7890   25.1850 C   0  0  1  0  0  0  0  0  0  0  0  0
  -25.2420  -31.5750   26.2420 C   0  0  0  0  0  1  0  0  0  0  0  0
  -26.9320  -30.4020   24.8240 C   0  0  0  0  0  1  0  0  0  0  0  0
  -27.4960  -32.5880   25.8500 C   0  0  0  0  0  1  0  0  0  0  0  0
  -25.5490  -33.9490   24.2000 N   0  0  0  0  0  0  0  0  0  0  0  0
  -25.8960  -34.9930   23.4360 C   0  0  0  0  0  0  0  0  0  0  0  0
  -26.5780  -34.8730   22.4140 O   0  0  0  0  0  0  0  0  0  0  0  0
  -24.9430  -34.1150   24.9920 H   0  0  0  0  0  0  0  0  0  0  0  0
  -24.1950  -36.8020   23.0300 C   0  0  0  0  0  1  0  0  0  0  0  0
  -25.4120  -36.3890   23.8730 C   0  0  0  0  0  3  0  0  0  0  0  0
  -27.5310  -37.2620   24.7550 C   0  0  0  0  0  1  0  0  0  0  0  0
  -26.4570  -37.4300   23.7790 N   0  0  0  0  0  0  0  0  0  0  0  0
  -26.0560  -38.3560   23.9040 H   0  0  0  0  0  0  0  0  0  0  0  0
  2  6  2  0
  2  4  1  0
  3  1  1  0
  3 51  1  0
  4  3  2  0
  5 16  1  0
  5  1  2  0
  6  5  1  0
  7  6  1  0
  8 16  1  0
  9 14  1  0
 10 11  1  0
 10  9  1  0
 12 11  1  0
 12 21  1  0
 12 13  1  0
 14  8  1  0
 14 13  1  0
 15  8  2  0
 16 17  1  0
 18 19  2  0
 19 38  1  0
 20 19  1  0
 20 23  1  0
 21 18  1  0
 21 22  1  0
 22 20  2  0
 23 24  1  0
 24 25  2  0
 26 29  1  0
 26 25  1  0
 27 26  2  0
 28 27  1  0
 28 23  2  0
 29 30  1  0
 30 31  1  0
 31 32  2  0
 33 32  1  0
 33 37  1  0
 34 33  2  0
 35 30  2  0
 35 34  1  0
 36 35  1  0
 38 39  1  0
 39 42  1  0
 39 41  1  0
 40 38  2  0
 43 44  1  0
 43 18  1  0
 45 43  1  0
 46 47  1  0
 47 49  1  0
 48 46  1  0
 48 50  1  0
 50  4  1  0
 50 49  1  0
 52 53  1  0
 52 55  1  0
 53 56  1  0
 55 58  1  0
 55 54  1  0
 56 54  1  0
 56 51  1  0
 56 57  1  6
 59 70  2  0
 60 58  1  0
 60 65  1  0
 61 69  1  0
 61 71  1  0
 62 68  1  0
 62 64  1  0
 63 69  1  0
 64 63  1  0
 65 64  2  0
 66 60  2  0
 67 66  1  0
 67 62  2  0
 68 61  1  0
 69 59  1  0
 71 73  2  0
 72 71  1  0
 74 72  1  0
 75 84  2  0
 75 80  1  0
 76 72  1  0
 76 80  1  0
 77 76  1  0
 78 79  1  0
 78 77  1  0
 79 75  1  0
 80 81  2  0
 81 82  1  0
 83 82  2  0
 84 83  1  0
 85 59  1  0
 85 90  1  0
 85 86  1  0
 86 89  1  1
 86 87  1  0
 88 86  1  0
 90 93  1  0
 91 95  1  0
 91 90  1  0
 92 91  2  0
 95 94  1  0
 97 95  1  0
 97 98  1  0
 97 96  1  0
M  ISO  4   8 100  16 100  55 101  58 101
M  END
>  <TORSDO>  (74) 
F 19

>  <SCORE>  (74) 
-14.383

>  <name>  (74) 
73

>  <ligand_id>  (74) 
73

>  <original_smiles>  (74) 
[H]c1c([H])c([H])c2c(c1[H])C([H])([H])C([H])([H])C([H])([H])C2([H])N([H])C(=O)C1([H])N(C(=O)C([H])(N([H])C(=O)C([H])(N([H])C([H])([H])[H])C([H])([H])[H])C(C([H])([H])[H])(C([H])([H])[H])C([H])([H])[H])C([H])([H])c2c([H])c(OC3([H])C([H])([H])C([H])([H])[N+]([H])(C([H])([H])c4c([H])c(N([H])C(=O)N5C([H])([H])C([H])([H])C([H])([H])C([H])(n6nc(-c7c([H])c([H])c(Oc8c([H])c([H])c(F)c([H])c8F)c([H])c7[H])c(C(=O)N([H])[H])c6N([H])[H])C5([H])[H])c(Cl)c([H])c4N4C([H])([H])C([H])([H])C([H])([H])C4([H])[H])C3([H])[H])c([H])c([H])c2C1([H])[H]

>  <smiles>  (74) 
[H]c1c([H])c([H])c2c(c1[H])C([H])([H])C([H])([H])C([H])([H])C2([H])N([H])C(=O)C1([H])N(C(=O)C([H])(N([H])C(=O)C([H])(N([H])C([H])([H])[H])C([H])([H])[H])C(C([H])([H])[H])(C([H])([H])[H])C([H])([H])[H])C([H])([H])c2c([H])c(OC3([H])C([H])([H])C([H])([H])[N+]([H])(C([H])([H])c4c([H])c(N([H])C(=O)N5C([H])([H])C([H])([H])C([H])([H])C([H])(n6nc(-c7c([H])c([H])c(Oc8c([H])c([H])c(F)c([H])c8F)c([H])c7[H])c(C(=O)N([H])[H])c6N([H])[H])C5([H])[H])c(Cl)c([H])c4N4C([H])([H])C([H])([H])C([H])([H])C4([H])[H])C3([H])[H])c([H])c([H])c2C1([H])[H]

$$$$
74:0:0
     RDKit          3D

 97106  0  0  1  0  0  0  0  0999 V2000
  -29.3620  -21.6960   19.6970 C   0  0  0  0  0  2  0  0  0  0  0  0
  -28.4660  -23.6810   22.8280 C   0  0  0  0  0  2  0  0  0  0  0  0
  -29.4990  -24.6100   22.1560 C   0  0  0  0  0  2  0  0  0  0  0  0
  -28.2570  -22.5180   21.8420 C   0  0  0  0  0  2  0  0  0  0  0  0
  -29.4800  -24.2190   20.6680 C   0  0  0  0  0  3  0  0  0  0  0  0
  -29.3050  -22.7060   20.8250 N   0  0  2  0  0  4  0  0  0  0  0  0
  -30.1480  -22.4600   21.3260 H   0  0  0  0  0  0  0  0  0  0  0  0
  -28.3650  -25.1100   19.9400 C   0  0  0  0  0  2  0  0  0  0  0  0
  -28.5110  -26.5870   20.0610 O   0  0  0  0  0  0  0  0  0  0  0  0
  -24.7120  -31.8330   23.2290 C   0  0  0  0  0  0  0  0  0  0  0  0
  -27.3690  -27.4080   20.0240 C   0  0  0  0  0  0  0  0  0  0  0  0
  -23.5200  -30.4720   21.5490 C   0  0  0  0  0  3  0  0  0  0  0  0
  -24.9820  -28.9840   20.0680 C   0  0  0  0  0  0  0  0  0  0  0  0
  -26.0500  -30.8290   21.3630 C   0  0  0  0  0  2  0  0  0  0  0  0
  -26.1440  -29.4710   20.6770 C   0  0  0  0  0  0  0  0  0  0  0  0
  -27.3390  -28.6930   20.6470 C   0  0  0  0  0  3  0  0  0  0  0  0
  -26.1850  -26.9780   19.3810 C   0  0  0  0  0  3  0  0  0  0  0  0
  -25.0020  -27.7440   19.4110 C   0  0  0  0  0  3  0  0  0  0  0  0
  -23.7340  -29.8410   20.1480 C   0  0  0  0  0  2  0  0  0  0  0  0
  -24.7800  -31.0610   22.1040 N   0  0  0  0  0  0  0  0  0  0  0  0
  -23.6300  -32.0810   23.7780 O   0  0  0  0  0  0  0  0  0  0  0  0
  -22.8720  -29.4180   22.4780 C   0  0  0  0  0  0  0  0  0  0  0  0
  -21.5460  -29.2350   22.3570 N   0  0  0  0  0  0  0  0  0  0  0  0
  -23.5620  -28.7700   23.2710 O   0  0  0  0  0  0  0  0  0  0  0  0
  -21.0460  -29.8090   21.6910 H   0  0  0  0  0  0  0  0  0  0  0  0
  -18.1810  -27.9910   22.8390 C   0  0  0  0  0  0  0  0  0  0  0  0
  -20.7420  -28.2630   23.1000 C   0  0  0  0  0  3  0  0  0  0  0  0
  -20.8510  -26.8520   22.4780 C   0  0  0  0  0  2  0  0  0  0  0  0
  -19.7440  -26.5530   21.4600 C   0  0  0  0  0  2  0  0  0  0  0  0
  -18.3640  -26.6640   22.1180 C   0  0  0  0  0  2  0  0  0  0  0  0
  -19.2980  -28.7470   23.2870 C   0  0  0  0  0  0  0  0  0  0  0  0
  -19.0750  -29.9880   23.9220 C   0  0  0  0  0  3  0  0  0  0  0  0
  -17.7680  -30.4730   24.1140 C   0  0  0  0  0  3  0  0  0  0  0  0
  -16.6660  -29.7150   23.6820 C   0  0  0  0  0  3  0  0  0  0  0  0
  -16.8740  -28.4760   23.0500 C   0  0  0  0  0  3  0  0  0  0  0  0
  -25.9910  -32.4590   23.8670 C   0  0  0  0  0  3  0  0  0  0  0  0
  -26.5120  -31.6620   25.1240 C   0  0  1  0  0  0  0  0  0  0  0  0
  -25.4210  -31.3930   26.1870 C   0  0  0  0  0  1  0  0  0  0  0  0
  -27.1060  -30.2980   24.7000 C   0  0  0  0  0  1  0  0  0  0  0  0
  -27.6570  -32.4490   25.8020 C   0  0  0  0  0  1  0  0  0  0  0  0
  -25.6700  -33.8470   24.2310 N   0  0  0  0  0  0  0  0  0  0  0  0
  -25.9940  -34.9200   23.5000 C   0  0  0  0  0  0  0  0  0  0  0  0
  -26.6610  -34.8450   22.4640 O   0  0  0  0  0  0  0  0  0  0  0  0
  -25.0740  -33.9770   25.0350 H   0  0  0  0  0  0  0  0  0  0  0  0
  -24.2580  -36.7110   23.1890 C   0  0  0  0  0  1  0  0  0  0  0  0
  -25.4990  -36.2930   23.9920 C   0  0  0  0  0  3  0  0  0  0  0  0
  -27.6220  -37.1700   24.8580 C   0  0  0  0  0  1  0  0  0  0  0  0
  -26.5260  -37.3540   23.9110 N   0  0  0  0  0  0  0  0  0  0  0  0
  -26.1150  -38.2690   24.0750 H   0  0  0  0  0  0  0  0  0  0  0  0
  -28.4940  -19.2720   20.0660 C   0  0  0  0  0  3  0  0  0  0  0  0
  -28.6430  -17.8780   20.3050 C   0  0  0  0  0  3  0  0  0  0  0  0
  -31.0130  -18.1500   20.5430 C   0  0  0  0  0  3  0  0  0  0  0  0
  -29.5940  -20.1690   20.0740 C   0  0  0  0  0  0  0  0  0  0  0  0
  -30.8740  -19.5700   20.3310 C   0  0  0  0  0  0  0  0  0  0  0  0
  -29.9000  -17.2630   20.5370 C   0  0  0  0  0  0  0  0  0  0  0  0
  -30.7740  -14.7900   20.5490 C   0  0  0  0  0  0  0  0  0  0  0  0
  -30.6590  -12.4960   19.5840 C   0  0  0  0  0  2  0  0  0  0  0  0
  -29.7480  -12.5460   18.3360 C   0  0  0  0  0  2  0  0  0  0  0  0
  -28.2710  -12.3550   18.7330 C   0  0  0  0  0  2  0  0  0  0  0  0
  -27.8490  -13.2770   19.9070 C   0  0  0  0  0  3  0  0  0  0  0  0
  -28.8750  -13.1980   21.0620 C   0  0  0  0  0  2  0  0  0  0  0  0
  -30.1970  -13.5460   20.5130 N   0  0  0  0  0  0  0  0  0  0  0  0
  -31.9470  -14.9670   20.2030 O   0  0  0  0  0  0  0  0  0  0  0  0
  -29.9100  -15.8210   20.8190 N   0  0  0  0  0  0  0  0  0  0  0  0
  -29.0030  -15.4560   21.0720 H   0  0  0  0  0  0  0  0  0  0  0  0
  -25.4370  -13.8690   20.5670 C   0  0  0  0  0  0  0  0  0  0  0  0
  -24.3670  -13.0940   20.9170 C   0  0  0  0  0  0  0  0  0  0  0  0
  -24.8360  -11.7450   20.9030 C   0  0  0  0  0  0  0  0  0  0  0  0
  -26.4910  -12.9940   20.3610 N   0  0  0  0  0  0  0  0  0  0  0  0
  -26.1340  -11.7110   20.6250 N   0  0  0  0  0  0  0  0  0  0  0  0
  -24.1120  -10.4800   21.0750 C   0  0  0  0  0  0  0  0  0  0  0  0
  -24.5230   -9.5190   22.0260 C   0  0  0  0  0  3  0  0  0  0  0  0
  -23.7970   -8.3200   22.1910 C   0  0  0  0  0  3  0  0  0  0  0  0
  -22.6480   -8.0720   21.4020 C   0  0  0  0  0  0  0  0  0  0  0  0
  -22.2550   -9.0220   20.4440 C   0  0  0  0  0  3  0  0  0  0  0  0
  -22.9820  -10.2130   20.2790 C   0  0  0  0  0  3  0  0  0  0  0  0
  -21.8970   -6.9230   21.4740 O   0  0  0  0  0  0  0  0  0  0  0  0
  -21.8180   -6.1870   22.6280 C   0  0  0  0  0  0  0  0  0  0  0  0
  -21.3260   -6.7370   23.8310 C   0  0  0  0  0  3  0  0  0  0  0  0
  -21.1980   -5.9250   24.9750 C   0  0  0  0  0  3  0  0  0  0  0  0
  -21.5460   -4.5640   24.9160 C   0  0  0  0  0  0  0  0  0  0  0  0
  -22.0340   -4.0120   23.7180 C   0  0  0  0  0  3  0  0  0  0  0  0
  -22.1640   -4.8200   22.5760 C   0  0  0  0  0  0  0  0  0  0  0  0
  -22.6120   -4.2800   21.4160 F   0  0  0  0  0  0  0  0  0  0  0  0
  -21.4160   -3.7810   26.0130 F   0  0  0  0  0  0  0  0  0  0  0  0
  -22.9600  -13.5660   21.1490 C   0  0  0  0  0  0  0  0  0  0  0  0
  -22.2130  -12.8680   21.9950 N   0  0  0  0  0  0  0  0  0  0  0  0
  -22.5330  -14.5890   20.6140 O   0  0  0  0  0  0  0  0  0  0  0  0
  -22.5700  -12.0400   22.4490 H   0  0  0  0  0  0  0  0  0  0  0  0
  -21.2690  -13.1690   22.1930 H   0  0  0  0  0  0  0  0  0  0  0  0
  -25.5950  -15.2400   20.3850 N   0  0  0  0  0  0  0  0  0  0  0  0
  -24.8070  -15.8760   20.4500 H   0  0  0  0  0  0  0  0  0  0  0  0
  -26.4160  -15.6680   19.9810 H   0  0  0  0  0  0  0  0  0  0  0  0
  -32.1190  -20.4510   20.3790 C   0  0  1  0  0  0  0  0  0  0  0  0
  -33.2110  -19.7760   20.7380 F   0  0  0  0  0  0  0  0  0  0  0  0
  -32.3400  -20.9880   19.1800 F   0  0  0  0  0  0  0  0  0  0  0  0
  -31.9260  -21.4390   21.2580 F   0  0  0  0  0  0  0  0  0  0  0  0
  1 53  1  0
  1  6  1  0
  3  2  1  0
  4  2  1  0
  5  8  1  0
  5  6  1  0
  5  3  1  0
  6  7  1  1
  6  4  1  0
  8  9  1  0
 10 21  2  0
 11  9  1  0
 11 16  1  0
 12 20  1  0
 12 22  1  0
 13 19  1  0
 13 15  1  0
 14 20  1  0
 15 14  1  0
 16 15  2  0
 17 18  1  0
 17 11  2  0
 18 13  2  0
 19 12  1  0
 20 10  1  0
 22 24  2  0
 23 22  1  0
 25 23  1  0
 26 35  2  0
 26 31  1  0
 27 23  1  0
 27 31  1  0
 28 27  1  0
 29 30  1  0
 29 28  1  0
 30 26  1  0
 31 32  2  0
 32 33  1  0
 34 33  2  0
 35 34  1  0
 36 10  1  0
 36 41  1  0
 36 37  1  0
 37 40  1  1
 37 38  1  0
 39 37  1  0
 41 44  1  0
 42 46  1  0
 42 41  1  0
 43 42  2  0
 46 45  1  0
 48 46  1  0
 48 49  1  0
 48 47  1  0
 50 53  2  0
 50 51  1  0
 51 55  2  0
 53 54  1  0
 54 94  1  0
 54 52  2  0
 55 52  1  0
 55 64  1  0
 56 64  1  0
 57 62  1  0
 58 59  1  0
 58 57  1  0
 60 59  1  0
 60 69  1  0
 60 61  1  0
 62 56  1  0
 62 61  1  0
 63 56  2  0
 64 65  1  0
 66 67  2  0
 67 86  1  0
 68 67  1  0
 68 71  1  0
 69 66  1  0
 69 70  1  0
 70 68  2  0
 71 72  1  0
 72 73  2  0
 74 77  1  0
 74 73  1  0
 75 74  2  0
 76 75  1  0
 76 71  2  0
 77 78  1  0
 78 79  1  0
 79 80  2  0
 81 80  1  0
 81 85  1  0
 82 81  2  0
 83 78  2  0
 83 82  1  0
 84 83  1  0
 86 87  1  0
 87 90  1  0
 87 89  1  0
 88 86  2  0
 91 92  1  0
 91 66  1  0
 93 91  1  0
 94 95  1  1
 94 97  1  0
 96 94  1  0
M  ISO  4   8 101   9 101  56 100  64 100
M  END
>  <TORSDO>  (75) 
F 20

>  <SCORE>  (75) 
-13.774

>  <name>  (75) 
74

>  <ligand_id>  (75) 
74

>  <original_smiles>  (75) 
[H]c1c([H])c([H])c2c(c1[H])C([H])([H])C([H])([H])C([H])([H])C2([H])N([H])C(=O)C1([H])N(C(=O)C([H])(N([H])C(=O)C([H])(N([H])C([H])([H])[H])C([H])([H])[H])C(C([H])([H])[H])(C([H])([H])[H])C([H])([H])[H])C([H])([H])c2c([H])c(OC([H])([H])C3([H])C([H])([H])C([H])([H])C([H])([H])[N+]3([H])C([H])([H])c3c([H])c([H])c(N([H])C(=O)N4C([H])([H])C([H])([H])C([H])([H])C([H])(n5nc(-c6c([H])c([H])c(Oc7c([H])c([H])c(F)c([H])c7F)c([H])c6[H])c(C(=O)N([H])[H])c5N([H])[H])C4([H])[H])c([H])c3C(F)(F)F)c([H])c([H])c2C1([H])[H]

>  <smiles>  (75) 
[H]c1c([H])c([H])c2c(c1[H])C([H])([H])C([H])([H])C([H])([H])C2([H])N([H])C(=O)C1([H])N(C(=O)C([H])(N([H])C(=O)C([H])(N([H])C([H])([H])[H])C([H])([H])[H])C(C([H])([H])[H])(C([H])([H])[H])C([H])([H])[H])C([H])([H])c2c([H])c(OC([H])([H])C3([H])C([H])([H])C([H])([H])C([H])([H])[N+]3([H])C([H])([H])c3c([H])c([H])c(N([H])C(=O)N4C([H])([H])C([H])([H])C([H])([H])C([H])(n5nc(-c6c([H])c([H])c(Oc7c([H])c([H])c(F)c([H])c7F)c([H])c6[H])c(C(=O)N([H])[H])c5N([H])[H])C4([H])[H])c([H])c3C(F)(F)F)c([H])c([H])c2C1([H])[H]

$$$$
75:0:0
     RDKit          3D

 94103  0  0  1  0  0  0  0  0999 V2000
  -28.8530  -22.5120   20.5550 C   0  0  0  0  0  0  0  0  0  0  0  0
  -30.4730  -23.8610   19.4770 C   0  0  0  0  0  2  0  0  0  0  0  0
  -30.9480  -22.4000   19.6480 C   0  0  0  0  0  2  0  0  0  0  0  0
  -29.2770  -24.0150   20.4140 C   0  0  0  0  0  3  0  0  0  0  0  0
  -29.8240  -21.6180   20.1770 N   0  0  0  0  0  0  0  0  0  0  0  0
  -27.7360  -22.2130   20.9860 O   0  0  0  0  0  0  0  0  0  0  0  0
  -28.7080  -19.3360   20.5320 C   0  0  0  0  0  3  0  0  0  0  0  0
  -31.1150  -17.9520   20.2020 C   0  0  0  0  0  3  0  0  0  0  0  0
  -29.8630  -20.1340   20.2780 C   0  0  0  0  0  0  0  0  0  0  0  0
  -29.9520  -17.1770   20.4440 C   0  0  0  0  0  0  0  0  0  0  0  0
  -28.7530  -17.9130   20.6110 C   0  0  0  0  0  0  0  0  0  0  0  0
  -31.0740  -19.3790   20.1240 C   0  0  0  0  0  0  0  0  0  0  0  0
  -27.6070  -17.2320   20.8490 F   0  0  0  0  0  0  0  0  0  0  0  0
  -32.2530  -20.0090   19.9060 F   0  0  0  0  0  0  0  0  0  0  0  0
  -30.6420  -14.6960   20.0580 C   0  0  0  0  0  0  0  0  0  0  0  0
  -30.3600  -12.5040   18.9190 C   0  0  0  0  0  2  0  0  0  0  0  0
  -29.3380  -12.6780   17.7740 C   0  0  0  0  0  2  0  0  0  0  0  0
  -27.8970  -12.4990   18.2920 C   0  0  0  0  0  2  0  0  0  0  0  0
  -27.6180  -13.3200   19.5780 C   0  0  0  0  0  3  0  0  0  0  0  0
  -28.7450  -13.1160   20.6190 C   0  0  0  0  0  2  0  0  0  0  0  0
  -30.0200  -13.4780   19.9750 N   0  0  0  0  0  0  0  0  0  0  0  0
  -31.7690  -14.8750   19.5870 O   0  0  0  0  0  0  0  0  0  0  0  0
  -29.8730  -15.7190   20.5400 N   0  0  0  0  0  0  0  0  0  0  0  0
  -28.9940  -15.3980   20.9170 H   0  0  0  0  0  0  0  0  0  0  0  0
  -25.2720  -13.8960   20.4570 C   0  0  0  0  0  0  0  0  0  0  0  0
  -24.2270  -13.1120   20.8600 C   0  0  0  0  0  0  0  0  0  0  0  0
  -24.6830  -11.7620   20.7590 C   0  0  0  0  0  0  0  0  0  0  0  0
  -26.3000  -13.0240   20.1340 N   0  0  0  0  0  0  0  0  0  0  0  0
  -25.9540  -11.7330   20.3740 N   0  0  0  0  0  0  0  0  0  0  0  0
  -23.9670  -10.4930   20.9490 C   0  0  0  0  0  0  0  0  0  0  0  0
  -24.4120   -9.5270   21.8800 C   0  0  0  0  0  3  0  0  0  0  0  0
  -23.6950   -8.3250   22.0580 C   0  0  0  0  0  3  0  0  0  0  0  0
  -22.5200   -8.0800   21.3080 C   0  0  0  0  0  0  0  0  0  0  0  0
  -22.0960   -9.0350   20.3670 C   0  0  0  0  0  3  0  0  0  0  0  0
  -22.8140  -10.2300   20.1860 C   0  0  0  0  0  3  0  0  0  0  0  0
  -21.7750   -6.9290   21.3960 O   0  0  0  0  0  0  0  0  0  0  0  0
  -21.6740   -6.2250   22.5690 C   0  0  0  0  0  0  0  0  0  0  0  0
  -21.1670   -6.8120   23.7480 C   0  0  0  0  0  3  0  0  0  0  0  0
  -21.0170   -6.0330   24.9140 C   0  0  0  0  0  3  0  0  0  0  0  0
  -21.3620   -4.6680   24.8990 C   0  0  0  0  0  0  0  0  0  0  0  0
  -21.8610   -4.0800   23.7230 C   0  0  0  0  0  3  0  0  0  0  0  0
  -22.0140   -4.8570   22.5600 C   0  0  0  0  0  0  0  0  0  0  0  0
  -22.4750   -4.2810   21.4240 F   0  0  0  0  0  0  0  0  0  0  0  0
  -21.2100   -3.9180   26.0140 F   0  0  0  0  0  0  0  0  0  0  0  0
  -22.8490  -13.5800   21.2340 C   0  0  0  0  0  0  0  0  0  0  0  0
  -22.1750  -12.8570   22.1210 N   0  0  0  0  0  0  0  0  0  0  0  0
  -22.3820  -14.6220   20.7760 O   0  0  0  0  0  0  0  0  0  0  0  0
  -22.5660  -12.0130   22.5110 H   0  0  0  0  0  0  0  0  0  0  0  0
  -21.2550  -13.1540   22.4150 H   0  0  0  0  0  0  0  0  0  0  0  0
  -25.4260  -15.2730   20.3200 N   0  0  0  0  0  0  0  0  0  0  0  0
  -24.6750  -15.9190   20.5350 H   0  0  0  0  0  0  0  0  0  0  0  0
  -26.2880  -15.7430   20.0740 H   0  0  0  0  0  0  0  0  0  0  0  0
  -28.1770  -25.0830   19.9740 C   0  0  0  0  0  2  0  0  0  0  0  0
  -28.3830  -26.5330   20.2040 O   0  0  0  0  0  0  0  0  0  0  0  0
  -24.6370  -31.8860   23.2690 C   0  0  0  0  0  0  0  0  0  0  0  0
  -27.2550  -27.3710   20.1600 C   0  0  0  0  0  0  0  0  0  0  0  0
  -23.4290  -30.5000   21.6210 C   0  0  0  0  0  3  0  0  0  0  0  0
  -24.8770  -28.9670   20.1760 C   0  0  0  0  0  0  0  0  0  0  0  0
  -25.9640  -30.8290   21.4270 C   0  0  0  0  0  2  0  0  0  0  0  0
  -26.0470  -29.4570   20.7700 C   0  0  0  0  0  0  0  0  0  0  0  0
  -27.2370  -28.6720   20.7520 C   0  0  0  0  0  3  0  0  0  0  0  0
  -26.0580  -26.9360   19.5400 C   0  0  0  0  0  3  0  0  0  0  0  0
  -24.8840  -27.7120   19.5520 C   0  0  0  0  0  3  0  0  0  0  0  0
  -23.6370  -29.8360   20.2360 C   0  0  0  0  0  2  0  0  0  0  0  0
  -24.6960  -31.0880   22.1630 N   0  0  0  0  0  0  0  0  0  0  0  0
  -23.5560  -32.1570   23.8110 O   0  0  0  0  0  0  0  0  0  0  0  0
  -22.7720  -29.4750   22.5760 C   0  0  0  0  0  0  0  0  0  0  0  0
  -21.4480  -29.2890   22.4440 N   0  0  0  0  0  0  0  0  0  0  0  0
  -23.4530  -28.8500   23.3930 O   0  0  0  0  0  0  0  0  0  0  0  0
  -20.9570  -29.8470   21.7600 H   0  0  0  0  0  0  0  0  0  0  0  0
  -18.0770  -28.0710   22.9300 C   0  0  0  0  0  0  0  0  0  0  0  0
  -20.6340  -28.3430   23.2080 C   0  0  0  0  0  3  0  0  0  0  0  0
  -20.7450  -26.9150   22.6250 C   0  0  0  0  0  2  0  0  0  0  0  0
  -19.6480  -26.5910   21.6070 C   0  0  0  0  0  2  0  0  0  0  0  0
  -18.2630  -26.7260   22.2480 C   0  0  0  0  0  2  0  0  0  0  0  0
  -19.1910  -28.8380   23.3660 C   0  0  0  0  0  0  0  0  0  0  0  0
  -18.9640  -30.0970   23.9630 C   0  0  0  0  0  3  0  0  0  0  0  0
  -17.6560  -30.5890   24.1300 C   0  0  0  0  0  3  0  0  0  0  0  0
  -16.5570  -29.8210   23.7090 C   0  0  0  0  0  3  0  0  0  0  0  0
  -16.7680  -28.5640   23.1150 C   0  0  0  0  0  3  0  0  0  0  0  0
  -25.9230  -32.5150   23.8910 C   0  0  0  0  0  3  0  0  0  0  0  0
  -25.6190  -33.9150   24.2180 N   0  0  0  0  0  0  0  0  0  0  0  0
  -25.9350  -34.9640   23.4480 C   0  0  0  0  0  0  0  0  0  0  0  0
  -26.5840  -34.8560   22.4040 O   0  0  0  0  0  0  0  0  0  0  0  0
  -25.0460  -34.0740   25.0330 H   0  0  0  0  0  0  0  0  0  0  0  0
  -24.1860  -36.7430   23.1350 C   0  0  0  0  0  1  0  0  0  0  0  0
  -25.4550  -36.3530   23.9090 C   0  0  0  0  0  3  0  0  0  0  0  0
  -27.6080  -37.2620   24.6680 C   0  0  0  0  0  1  0  0  0  0  0  0
  -26.4780  -37.4110   23.7540 N   0  0  0  0  0  0  0  0  0  0  0  0
  -26.0700  -38.3300   23.9020 H   0  0  0  0  0  0  0  0  0  0  0  0
  -26.4340  -31.7440   25.1690 C   0  0  1  0  0  0  0  0  0  0  0  0
  -25.3370  -31.5100   26.2330 C   0  0  0  0  0  1  0  0  0  0  0  0
  -27.0170  -30.3660   24.7770 C   0  0  0  0  0  1  0  0  0  0  0  0
  -27.5830  -32.5390   25.8340 C   0  0  0  0  0  1  0  0  0  0  0  0
  1  6  2  0
  2  3  1  0
  2  4  1  0
  3  5  1  0
  4 53  1  0
  4  1  1  0
  5  9  1  0
  5  1  1  0
  7 11  1  0
  8 10  1  0
  9  7  2  0
 10 23  1  0
 10 11  2  0
 11 13  1  0
 12  8  2  0
 12  9  1  0
 14 12  1  0
 15 23  1  0
 16 21  1  0
 17 18  1  0
 17 16  1  0
 19 18  1  0
 19 28  1  0
 19 20  1  0
 21 15  1  0
 21 20  1  0
 22 15  2  0
 23 24  1  0
 25 26  2  0
 26 45  1  0
 27 26  1  0
 27 30  1  0
 28 29  1  0
 28 25  1  0
 29 27  2  0
 30 31  1  0
 31 32  2  0
 33 36  1  0
 33 32  1  0
 34 33  2  0
 35 34  1  0
 35 30  2  0
 36 37  1  0
 37 38  1  0
 38 39  2  0
 40 39  1  0
 40 44  1  0
 41 40  2  0
 42 37  2  0
 42 41  1  0
 43 42  1  0
 45 46  1  0
 46 49  1  0
 46 48  1  0
 47 45  2  0
 50 25  1  0
 50 51  1  0
 52 50  1  0
 53 54  1  0
 55 66  2  0
 56 54  1  0
 56 61  1  0
 57 65  1  0
 57 67  1  0
 58 64  1  0
 58 60  1  0
 59 65  1  0
 60 59  1  0
 61 60  2  0
 62 63  1  0
 62 56  2  0
 63 58  2  0
 64 57  1  0
 65 55  1  0
 67 69  2  0
 68 67  1  0
 70 68  1  0
 71 80  2  0
 71 76  1  0
 72 68  1  0
 72 76  1  0
 73 72  1  0
 74 75  1  0
 74 73  1  0
 75 71  1  0
 76 77  2  0
 77 78  1  0
 79 78  2  0
 80 79  1  0
 81 55  1  0
 81 82  1  0
 81 91  1  0
 82 85  1  0
 83 87  1  0
 83 82  1  0
 84 83  2  0
 87 86  1  0
 89 90  1  0
 89 87  1  0
 89 88  1  0
 91 94  1  1
 91 92  1  0
 93 91  1  0
M  ISO  4  15 100  23 100  53 101  54 101
M  END
>  <TORSDO>  (76) 
F 18

>  <SCORE>  (76) 
-14.771

>  <name>  (76) 
75

>  <ligand_id>  (76) 
75

>  <original_smiles>  (76) 
[H]c1c([H])c([H])c2c(c1[H])C([H])([H])C([H])([H])C([H])([H])C2([H])N([H])C(=O)C1([H])N(C(=O)C([H])(N([H])C(=O)C([H])(N([H])C([H])([H])[H])C([H])([H])[H])C(C([H])([H])[H])(C([H])([H])[H])C([H])([H])[H])C([H])([H])c2c([H])c(OC([H])([H])C3([H])C(=O)N(c4c([H])c(F)c(N([H])C(=O)N5C([H])([H])C([H])([H])C([H])([H])C([H])(n6nc(-c7c([H])c([H])c(Oc8c([H])c([H])c(F)c([H])c8F)c([H])c7[H])c(C(=O)N([H])[H])c6N([H])[H])C5([H])[H])c([H])c4F)C([H])([H])C3([H])[H])c([H])c([H])c2C1([H])[H]

>  <smiles>  (76) 
[H]c1c([H])c([H])c2c(c1[H])C([H])([H])C([H])([H])C([H])([H])C2([H])N([H])C(=O)C1([H])N(C(=O)C([H])(N([H])C(=O)C([H])(N([H])C([H])([H])[H])C([H])([H])[H])C(C([H])([H])[H])(C([H])([H])[H])C([H])([H])[H])C([H])([H])c2c([H])c(OC([H])([H])C3([H])C(=O)N(c4c([H])c(F)c(N([H])C(=O)N5C([H])([H])C([H])([H])C([H])([H])C([H])(n6nc(-c7c([H])c([H])c(Oc8c([H])c([H])c(F)c([H])c8F)c([H])c7[H])c(C(=O)N([H])[H])c6N([H])[H])C5([H])[H])c([H])c4F)C([H])([H])C3([H])[H])c([H])c([H])c2C1([H])[H]

$$$$
76:0:0
     RDKit          3D

 94103  0  0  1  0  0  0  0  0999 V2000
  -29.1850  -23.1080   21.0670 C   0  0  0  0  0  0  0  0  0  0  0  0
  -30.5020  -24.4410   19.5620 C   0  0  0  0  0  3  0  0  0  0  0  0
  -30.7040  -22.9380   19.3350 C   0  0  0  0  0  3  0  0  0  0  0  0
  -29.4730  -24.5650   20.6860 C   0  0  0  0  0  3  0  0  0  0  0  0
  -29.8640  -22.2230   20.3000 N   0  0  0  0  0  0  0  0  0  0  0  0
  -28.4180  -22.8470   21.9990 O   0  0  0  0  0  0  0  0  0  0  0  0
  -28.8890  -18.6240   21.1230 C   0  0  0  0  0  3  0  0  0  0  0  0
  -28.9670  -20.0310   21.1950 C   0  0  0  0  0  3  0  0  0  0  0  0
  -30.5450  -20.0280   19.3610 C   0  0  0  0  0  3  0  0  0  0  0  0
  -29.6240  -17.9010   20.1610 C   0  0  0  0  0  0  0  0  0  0  0  0
  -29.7880  -20.7730   20.3030 C   0  0  0  0  0  0  0  0  0  0  0  0
  -30.4640  -18.6220   19.2800 C   0  0  0  0  0  0  0  0  0  0  0  0
  -31.3810  -17.8130   18.0610 Cl  0  0  0  0  0  0  0  0  0  0  0  0
  -29.4350  -16.3820   20.0470 C   0  0  0  0  0  2  0  0  0  0  0  0
  -30.9800  -14.4800   19.8890 C   0  0  0  0  0  0  0  0  0  0  0  0
  -30.5100  -12.3010   18.8240 C   0  0  0  0  0  2  0  0  0  0  0  0
  -29.5180  -12.4740   17.6580 C   0  0  0  0  0  2  0  0  0  0  0  0
  -28.0650  -12.3900   18.1660 C   0  0  0  0  0  2  0  0  0  0  0  0
  -27.8110  -13.3040   19.3930 C   0  0  0  0  0  3  0  0  0  0  0  0
  -28.9160  -13.1260   20.4600 C   0  0  0  0  0  2  0  0  0  0  0  0
  -30.2200  -13.3510   19.8140 N   0  0  0  0  0  0  0  0  0  0  0  0
  -32.0850  -14.5690   19.3460 O   0  0  0  0  0  0  0  0  0  0  0  0
  -31.3580  -16.1500   21.6090 C   0  0  0  0  0  1  0  0  0  0  0  0
  -30.4880  -15.5120   20.6180 N   0  0  0  0  0  0  0  0  0  0  0  0
  -25.5000  -14.0430   20.2470 C   0  0  0  0  0  0  0  0  0  0  0  0
  -24.4140  -13.3300   20.6730 C   0  0  0  0  0  0  0  0  0  0  0  0
  -24.7940  -11.9550   20.6070 C   0  0  0  0  0  0  0  0  0  0  0  0
  -26.4770  -13.1040   19.9510 N   0  0  0  0  0  0  0  0  0  0  0  0
  -26.0590  -11.8440   20.2250 N   0  0  0  0  0  0  0  0  0  0  0  0
  -24.0090  -10.7340   20.8270 C   0  0  0  0  0  0  0  0  0  0  0  0
  -24.4240   -9.7470   21.7490 C   0  0  0  0  0  3  0  0  0  0  0  0
  -23.6440   -8.5900   21.9570 C   0  0  0  0  0  3  0  0  0  0  0  0
  -22.4340   -8.4120   21.2450 C   0  0  0  0  0  0  0  0  0  0  0  0
  -22.0380   -9.3870   20.3120 C   0  0  0  0  0  3  0  0  0  0  0  0
  -22.8180  -10.5360   20.1010 C   0  0  0  0  0  3  0  0  0  0  0  0
  -21.6240   -7.3090   21.3640 O   0  0  0  0  0  0  0  0  0  0  0  0
  -21.5590   -6.5870   22.5290 C   0  0  0  0  0  0  0  0  0  0  0  0
  -21.1940   -7.1840   23.7570 C   0  0  0  0  0  3  0  0  0  0  0  0
  -21.0720   -6.3920   24.9150 C   0  0  0  0  0  3  0  0  0  0  0  0
  -21.3020   -5.0040   24.8480 C   0  0  0  0  0  0  0  0  0  0  0  0
  -21.6590   -4.4080   23.6260 C   0  0  0  0  0  3  0  0  0  0  0  0
  -21.7840   -5.1970   22.4700 C   0  0  0  0  0  0  0  0  0  0  0  0
  -22.1070   -4.6150   21.2900 F   0  0  0  0  0  0  0  0  0  0  0  0
  -21.1770   -4.2410   25.9590 F   0  0  0  0  0  0  0  0  0  0  0  0
  -23.0620  -13.8840   21.0260 C   0  0  0  0  0  0  0  0  0  0  0  0
  -22.3490  -13.2270   21.9350 N   0  0  0  0  0  0  0  0  0  0  0  0
  -22.6510  -14.9320   20.5300 O   0  0  0  0  0  0  0  0  0  0  0  0
  -22.6940  -12.3780   22.3560 H   0  0  0  0  0  0  0  0  0  0  0  0
  -21.4440  -13.5800   22.2120 H   0  0  0  0  0  0  0  0  0  0  0  0
  -25.7330  -15.4030   20.0640 N   0  0  0  0  0  0  0  0  0  0  0  0
  -25.0050  -16.0940   20.2120 H   0  0  0  0  0  0  0  0  0  0  0  0
  -26.5690  -15.7930   19.6520 H   0  0  0  0  0  0  0  0  0  0  0  0
  -28.1900  -25.3230   20.2790 C   0  0  0  0  0  2  0  0  0  0  0  0
  -28.3700  -26.7470   20.1920 O   0  0  0  0  0  0  0  0  0  0  0  0
  -24.5390  -31.9180   23.2290 C   0  0  0  0  0  0  0  0  0  0  0  0
  -27.2000  -27.4830   20.1570 C   0  0  0  0  0  0  0  0  0  0  0  0
  -23.3350  -30.4970   21.6030 C   0  0  0  0  0  3  0  0  0  0  0  0
  -24.7930  -28.9720   20.1720 C   0  0  0  0  0  0  0  0  0  0  0  0
  -25.8570  -30.8790   21.3860 C   0  0  0  0  0  2  0  0  0  0  0  0
  -25.9520  -29.5080   20.7490 C   0  0  0  0  0  0  0  0  0  0  0  0
  -27.1600  -28.7730   20.7340 C   0  0  0  0  0  3  0  0  0  0  0  0
  -26.0220  -26.9680   19.5650 C   0  0  0  0  0  3  0  0  0  0  0  0
  -24.8240  -27.7020   19.5760 C   0  0  0  0  0  3  0  0  0  0  0  0
  -23.5410  -29.8160   20.2250 C   0  0  0  0  0  2  0  0  0  0  0  0
  -24.5960  -31.1130   22.1300 N   0  0  0  0  0  0  0  0  0  0  0  0
  -23.4590  -32.1820   23.7750 O   0  0  0  0  0  0  0  0  0  0  0  0
  -22.7020  -29.4720   22.5720 C   0  0  0  0  0  0  0  0  0  0  0  0
  -21.3790  -29.2740   22.4520 N   0  0  0  0  0  0  0  0  0  0  0  0
  -23.3980  -28.8580   23.3850 O   0  0  0  0  0  0  0  0  0  0  0  0
  -20.8800  -29.8230   21.7650 H   0  0  0  0  0  0  0  0  0  0  0  0
  -18.0200  -28.0490   22.9680 C   0  0  0  0  0  0  0  0  0  0  0  0
  -20.5750  -28.3330   23.2300 C   0  0  0  0  0  3  0  0  0  0  0  0
  -20.6900  -26.8990   22.6620 C   0  0  0  0  0  2  0  0  0  0  0  0
  -19.5880  -26.5600   21.6540 C   0  0  0  0  0  2  0  0  0  0  0  0
  -18.2070  -26.6970   22.3010 C   0  0  0  0  0  2  0  0  0  0  0  0
  -19.1320  -28.8240   23.3890 C   0  0  0  0  0  0  0  0  0  0  0  0
  -18.9030  -30.0910   23.9700 C   0  0  0  0  0  3  0  0  0  0  0  0
  -17.5950  -30.5810   24.1360 C   0  0  0  0  0  3  0  0  0  0  0  0
  -16.4960  -29.8030   23.7340 C   0  0  0  0  0  3  0  0  0  0  0  0
  -16.7100  -28.5390   23.1540 C   0  0  0  0  0  3  0  0  0  0  0  0
  -25.8240  -32.5630   23.8370 C   0  0  0  0  0  3  0  0  0  0  0  0
  -26.3600  -31.8030   25.1110 C   0  0  1  0  0  0  0  0  0  0  0  0
  -25.2800  -31.5560   26.1880 C   0  0  0  0  0  1  0  0  0  0  0  0
  -26.9560  -30.4320   24.7160 C   0  0  0  0  0  1  0  0  0  0  0  0
  -27.5050  -32.6130   25.7620 C   0  0  0  0  0  1  0  0  0  0  0  0
  -25.5070  -33.9600   24.1600 N   0  0  0  0  0  0  0  0  0  0  0  0
  -25.8240  -35.0110   23.3900 C   0  0  0  0  0  0  0  0  0  0  0  0
  -26.4880  -34.9060   22.3550 O   0  0  0  0  0  0  0  0  0  0  0  0
  -24.9210  -34.1160   24.9670 H   0  0  0  0  0  0  0  0  0  0  0  0
  -24.0770  -36.7830   23.0300 C   0  0  0  0  0  1  0  0  0  0  0  0
  -25.3240  -36.3970   23.8410 C   0  0  0  0  0  3  0  0  0  0  0  0
  -27.4540  -37.3020   24.6580 C   0  0  0  0  0  1  0  0  0  0  0  0
  -26.3450  -37.4590   23.7200 N   0  0  0  0  0  0  0  0  0  0  0  0
  -25.9300  -38.3750   23.8700 H   0  0  0  0  0  0  0  0  0  0  0  0
  1  6  2  0
  2  4  1  0
  3  2  2  0
  3  5  1  0
  4 53  1  0
  4  1  1  0
  5 11  1  0
  5  1  1  0
  7  8  1  0
  9 11  1  0
 10  7  2  0
 11  8  2  0
 12  9  2  0
 12 10  1  0
 13 12  1  0
 14 10  1  0
 14 24  1  0
 15 24  1  0
 16 21  1  0
 17 18  1  0
 17 16  1  0
 19 18  1  0
 19 28  1  0
 19 20  1  0
 21 15  1  0
 21 20  1  0
 22 15  2  0
 24 23  1  0
 25 26  2  0
 26 45  1  0
 27 26  1  0
 27 30  1  0
 28 29  1  0
 28 25  1  0
 29 27  2  0
 30 31  1  0
 31 32  2  0
 33 36  1  0
 33 32  1  0
 34 33  2  0
 35 34  1  0
 35 30  2  0
 36 37  1  0
 37 38  1  0
 38 39  2  0
 40 39  1  0
 40 44  1  0
 41 40  2  0
 42 37  2  0
 42 41  1  0
 43 42  1  0
 45 46  1  0
 46 49  1  0
 46 48  1  0
 47 45  2  0
 50 51  1  0
 50 25  1  0
 52 50  1  0
 54 53  1  0
 55 66  2  0
 56 54  1  0
 56 61  1  0
 57 65  1  0
 57 67  1  0
 58 64  1  0
 58 60  1  0
 59 65  1  0
 60 59  1  0
 61 60  2  0
 62 63  1  0
 62 56  2  0
 63 58  2  0
 64 57  1  0
 65 55  1  0
 67 69  2  0
 68 67  1  0
 70 68  1  0
 71 80  2  0
 71 76  1  0
 72 68  1  0
 72 76  1  0
 73 72  1  0
 74 75  1  0
 74 73  1  0
 75 71  1  0
 76 77  2  0
 77 78  1  0
 79 78  2  0
 80 79  1  0
 81 55  1  0
 81 86  1  0
 81 82  1  0
 82 85  1  1
 82 83  1  0
 84 82  1  0
 86 89  1  0
 87 91  1  0
 87 86  1  0
 88 87  2  0
 91 90  1  0
 93 91  1  0
 93 94  1  0
 93 92  1  0
M  ISO  4  15 100  24 100  53 101  54 101
M  END
>  <TORSDO>  (77) 
F 19

>  <SCORE>  (77) 
-13.499

>  <name>  (77) 
76

>  <ligand_id>  (77) 
76

>  <original_smiles>  (77) 
[H]c1c([H])c([H])c2c(c1[H])C([H])([H])C([H])([H])C([H])([H])C2([H])N([H])C(=O)C1([H])N(C(=O)C([H])(N([H])C(=O)C([H])(N([H])C([H])([H])[H])C([H])([H])[H])C(C([H])([H])[H])(C([H])([H])[H])C([H])([H])[H])C([H])([H])c2c([H])c(OC([H])([H])C3([H])C(=O)N(c4c([H])c([H])c(C([H])([H])N(C(=O)N5C([H])([H])C([H])([H])C([H])([H])C([H])(n6nc(-c7c([H])c([H])c(Oc8c([H])c([H])c(F)c([H])c8F)c([H])c7[H])c(C(=O)N([H])[H])c6N([H])[H])C5([H])[H])C([H])([H])[H])c(Cl)c4[H])C([H])([H])C3([H])[H])c([H])c([H])c2C1([H])[H]

>  <smiles>  (77) 
[H]c1c([H])c([H])c2c(c1[H])C([H])([H])C([H])([H])C([H])([H])C2([H])N([H])C(=O)C1([H])N(C(=O)C([H])(N([H])C(=O)C([H])(N([H])C([H])([H])[H])C([H])([H])[H])C(C([H])([H])[H])(C([H])([H])[H])C([H])([H])[H])C([H])([H])c2c([H])c(OC([H])([H])C3([H])C(=O)N(c4c([H])c([H])c(C([H])([H])N(C(=O)N5C([H])([H])C([H])([H])C([H])([H])C([H])(n6nc(-c7c([H])c([H])c(Oc8c([H])c([H])c(F)c([H])c8F)c([H])c7[H])c(C(=O)N([H])[H])c6N([H])[H])C5([H])[H])C([H])([H])[H])c(Cl)c4[H])C([H])([H])C3([H])[H])c([H])c([H])c2C1([H])[H]

$$$$
77:0:0
     RDKit          3D

 95104  0  0  1  0  0  0  0  0999 V2000
  -28.6070  -23.0460   20.0250 C   0  0  0  0  0  0  0  0  0  0  0  0
  -31.2930  -22.7680   21.2200 C   0  0  0  0  0  2  0  0  0  0  0  0
  -30.3330  -23.9000   21.6350 C   0  0  0  0  0  2  0  0  0  0  0  0
  -30.7650  -21.8690   20.0820 C   0  0  0  0  0  2  0  0  0  0  0  0
  -29.3640  -24.3130   20.5110 C   0  0  0  0  0  3  0  0  0  0  0  0
  -29.2980  -21.8750   19.9360 N   0  0  0  0  0  0  0  0  0  0  0  0
  -27.4100  -23.1220   19.7290 O   0  0  0  0  0  0  0  0  0  0  0  0
  -28.6260  -20.6620   19.4140 C   0  0  0  0  0  2  0  0  0  0  0  0
  -29.6370  -18.4620   18.6020 C   0  0  0  0  0  3  0  0  0  0  0  0
  -30.1640  -17.1760   18.8390 C   0  0  0  0  0  3  0  0  0  0  0  0
  -29.4600  -18.8350   20.9970 C   0  0  0  0  0  3  0  0  0  0  0  0
  -29.2720  -19.2980   19.6780 C   0  0  0  0  0  0  0  0  0  0  0  0
  -29.9890  -17.5460   21.2400 C   0  0  0  0  0  0  0  0  0  0  0  0
  -30.3230  -16.6910   20.1600 C   0  0  0  0  0  0  0  0  0  0  0  0
  -30.1780  -17.0890   22.6760 C   0  0  0  0  0  1  0  0  0  0  0  0
  -31.2440  -14.4410   19.6050 C   0  0  0  0  0  0  0  0  0  0  0  0
  -30.8190  -12.2540   18.5430 C   0  0  0  0  0  2  0  0  0  0  0  0
  -29.7370  -12.4480   17.4600 C   0  0  0  0  0  2  0  0  0  0  0  0
  -28.3270  -12.3210   18.0720 C   0  0  0  0  0  2  0  0  0  0  0  0
  -28.1490  -13.2010   19.3370 C   0  0  0  0  0  3  0  0  0  0  0  0
  -29.3230  -12.9780   20.3160 C   0  0  0  0  0  2  0  0  0  0  0  0
  -30.5830  -13.2520   19.5960 N   0  0  0  0  0  0  0  0  0  0  0  0
  -32.2310  -14.6720   18.8940 O   0  0  0  0  0  0  0  0  0  0  0  0
  -30.7330  -15.3520   20.4490 N   0  0  0  0  0  0  0  0  0  0  0  0
  -30.2040  -14.9290   21.1960 H   0  0  0  0  0  0  0  0  0  0  0  0
  -25.9290  -13.8750   20.4510 C   0  0  0  0  0  0  0  0  0  0  0  0
  -24.8710  -13.1330   20.9050 C   0  0  0  0  0  0  0  0  0  0  0  0
  -25.2220  -11.7670   20.6810 C   0  0  0  0  0  0  0  0  0  0  0  0
  -26.8610  -12.9620   19.9850 N   0  0  0  0  0  0  0  0  0  0  0  0
  -26.4450  -11.6830   20.1750 N   0  0  0  0  0  0  0  0  0  0  0  0
  -24.4430  -10.5360   20.8690 C   0  0  0  0  0  0  0  0  0  0  0  0
  -24.7720   -9.6040   21.8780 C   0  0  0  0  0  3  0  0  0  0  0  0
  -24.0010   -8.4340   22.0490 C   0  0  0  0  0  3  0  0  0  0  0  0
  -22.8860   -8.1900   21.2130 C   0  0  0  0  0  0  0  0  0  0  0  0
  -22.5780   -9.1100   20.1960 C   0  0  0  0  0  3  0  0  0  0  0  0
  -23.3490  -10.2710   20.0220 C   0  0  0  0  0  3  0  0  0  0  0  0
  -22.0970   -7.0670   21.2870 O   0  0  0  0  0  0  0  0  0  0  0  0
  -21.7260   -6.5290   22.4920 C   0  0  0  0  0  0  0  0  0  0  0  0
  -21.0130   -7.2760   23.4550 C   0  0  0  0  0  3  0  0  0  0  0  0
  -20.5910   -6.6630   24.6510 C   0  0  0  0  0  3  0  0  0  0  0  0
  -20.8720   -5.3030   24.8830 C   0  0  0  0  0  0  0  0  0  0  0  0
  -21.5750   -4.5560   23.9220 C   0  0  0  0  0  3  0  0  0  0  0  0
  -21.9990   -5.1670   22.7300 C   0  0  0  0  0  0  0  0  0  0  0  0
  -22.6580   -4.4370   21.7980 F   0  0  0  0  0  0  0  0  0  0  0  0
  -20.4590   -4.7100   26.0280 F   0  0  0  0  0  0  0  0  0  0  0  0
  -23.5680  -13.6600   21.4330 C   0  0  0  0  0  0  0  0  0  0  0  0
  -22.9620  -12.9590   22.3860 N   0  0  0  0  0  0  0  0  0  0  0  0
  -23.0990  -14.7250   21.0340 O   0  0  0  0  0  0  0  0  0  0  0  0
  -23.3520  -12.0960   22.7340 H   0  0  0  0  0  0  0  0  0  0  0  0
  -22.0910  -13.2930   22.7740 H   0  0  0  0  0  0  0  0  0  0  0  0
  -26.1690  -15.2440   20.3770 N   0  0  0  0  0  0  0  0  0  0  0  0
  -25.4920  -15.9380   20.6730 H   0  0  0  0  0  0  0  0  0  0  0  0
  -27.0230  -15.6550   20.0180 H   0  0  0  0  0  0  0  0  0  0  0  0
  -28.4560  -25.5060   20.9590 C   0  0  0  0  0  2  0  0  0  0  0  0
  -28.5900  -26.6820   20.1380 O   0  0  0  0  0  0  0  0  0  0  0  0
  -24.6270  -31.7510   23.1940 C   0  0  0  0  0  0  0  0  0  0  0  0
  -27.4430  -27.4400   20.0970 C   0  0  0  0  0  0  0  0  0  0  0  0
  -23.4980  -30.3660   21.4870 C   0  0  0  0  0  3  0  0  0  0  0  0
  -25.0240  -28.8990   20.0640 C   0  0  0  0  0  0  0  0  0  0  0  0
  -26.0200  -30.7850   21.3680 C   0  0  0  0  0  2  0  0  0  0  0  0
  -26.1560  -29.4330   20.6970 C   0  0  0  0  0  0  0  0  0  0  0  0
  -27.3730  -28.7130   20.7080 C   0  0  0  0  0  3  0  0  0  0  0  0
  -26.3000  -26.9170   19.4630 C   0  0  0  0  0  3  0  0  0  0  0  0
  -25.0900  -27.6390   19.4420 C   0  0  0  0  0  3  0  0  0  0  0  0
  -23.7630  -29.7330   20.0960 C   0  0  0  0  0  2  0  0  0  0  0  0
  -24.7310  -30.9800   22.0750 N   0  0  0  0  0  0  0  0  0  0  0  0
  -23.5260  -31.9860   23.7080 O   0  0  0  0  0  0  0  0  0  0  0  0
  -22.8420  -29.3060   22.4010 C   0  0  0  0  0  0  0  0  0  0  0  0
  -21.5220  -29.1190   22.2470 N   0  0  0  0  0  0  0  0  0  0  0  0
  -23.5180  -28.6590   23.2050 O   0  0  0  0  0  0  0  0  0  0  0  0
  -21.0390  -29.6880   21.5670 H   0  0  0  0  0  0  0  0  0  0  0  0
  -18.1420  -27.9130   22.6680 C   0  0  0  0  0  0  0  0  0  0  0  0
  -20.6990  -28.1510   22.9710 C   0  0  0  0  0  3  0  0  0  0  0  0
  -20.8040  -26.7470   22.3310 C   0  0  0  0  0  2  0  0  0  0  0  0
  -19.7070  -26.4720   21.2980 C   0  0  0  0  0  2  0  0  0  0  0  0
  -18.3200  -26.5940   21.9370 C   0  0  0  0  0  2  0  0  0  0  0  0
  -19.2590  -28.6520   23.1390 C   0  0  0  0  0  0  0  0  0  0  0  0
  -19.0390  -29.8910   23.7800 C   0  0  0  0  0  3  0  0  0  0  0  0
  -17.7350  -30.3890   23.9540 C   0  0  0  0  0  3  0  0  0  0  0  0
  -16.6320  -29.6460   23.5010 C   0  0  0  0  0  3  0  0  0  0  0  0
  -16.8350  -28.4100   22.8620 C   0  0  0  0  0  3  0  0  0  0  0  0
  -25.8810  -32.3880   23.8670 C   0  0  0  0  0  3  0  0  0  0  0  0
  -26.3470  -31.6180   25.1620 C   0  0  1  0  0  0  0  0  0  0  0  0
  -25.2070  -31.3620   26.1740 C   0  0  0  0  0  1  0  0  0  0  0  0
  -26.9670  -30.2490   24.7900 C   0  0  0  0  0  1  0  0  0  0  0  0
  -27.4560  -32.4230   25.8790 C   0  0  0  0  0  1  0  0  0  0  0  0
  -25.5480  -33.7840   24.1820 N   0  0  0  0  0  0  0  0  0  0  0  0
  -25.9150  -34.8380   23.4410 C   0  0  0  0  0  0  0  0  0  0  0  0
  -26.6380  -34.7380   22.4450 O   0  0  0  0  0  0  0  0  0  0  0  0
  -24.8990  -33.9360   24.9390 H   0  0  0  0  0  0  0  0  0  0  0  0
  -24.1940  -36.6180   23.0040 C   0  0  0  0  0  1  0  0  0  0  0  0
  -25.3990  -36.2230   23.8730 C   0  0  0  0  0  3  0  0  0  0  0  0
  -27.4820  -37.1240   24.8080 C   0  0  0  0  0  1  0  0  0  0  0  0
  -26.4290  -37.2820   23.8080 N   0  0  0  0  0  0  0  0  0  0  0  0
  -26.0110  -38.2010   23.9290 H   0  0  0  0  0  0  0  0  0  0  0  0
  1  5  1  0
  2  3  1  0
  4  2  1  0
  5 54  1  0
  5  3  1  0
  6  1  1  0
  6  4  1  0
  7  1  2  0
  8 12  1  0
  8  6  1  0
  9 10  2  0
  9 12  1  0
 10 14  1  0
 11 13  1  0
 12 11  2  0
 13 15  1  0
 14 24  1  0
 14 13  2  0
 16 24  1  0
 17 22  1  0
 18 19  1  0
 18 17  1  0
 20 19  1  0
 20 29  1  0
 20 21  1  0
 22 16  1  0
 22 21  1  0
 23 16  2  0
 24 25  1  0
 26 27  2  0
 27 46  1  0
 28 31  1  0
 28 27  1  0
 29 30  1  0
 29 26  1  0
 30 28  2  0
 31 32  1  0
 32 33  2  0
 34 37  1  0
 34 33  1  0
 35 34  2  0
 36 35  1  0
 36 31  2  0
 37 38  1  0
 38 43  2  0
 38 39  1  0
 39 40  2  0
 40 41  1  0
 41 45  1  0
 42 41  2  0
 43 42  1  0
 44 43  1  0
 46 47  1  0
 47 49  1  0
 47 50  1  0
 48 46  2  0
 51 26  1  0
 51 52  1  0
 53 51  1  0
 55 54  1  0
 56 67  2  0
 57 55  1  0
 57 62  1  0
 58 66  1  0
 58 68  1  0
 59 65  1  0
 59 61  1  0
 60 66  1  0
 61 62  2  0
 61 60  1  0
 63 57  2  0
 64 63  1  0
 64 59  2  0
 65 58  1  0
 66 56  1  0
 68 70  2  0
 69 68  1  0
 71 69  1  0
 72 81  2  0
 72 77  1  0
 73 69  1  0
 73 77  1  0
 74 73  1  0
 75 76  1  0
 75 74  1  0
 76 72  1  0
 77 78  2  0
 78 79  1  0
 80 79  2  0
 81 80  1  0
 82 56  1  0
 82 87  1  0
 82 83  1  0
 83 86  1  1
 83 84  1  0
 85 83  1  0
 87 90  1  0
 88 92  1  0
 88 87  1  0
 89 88  2  0
 92 91  1  0
 94 92  1  0
 94 95  1  0
 94 93  1  0
M  ISO  4  16 100  24 100  54 101  55 101
M  END
>  <TORSDO>  (78) 
F 19

>  <SCORE>  (78) 
-12.332

>  <name>  (78) 
77

>  <ligand_id>  (78) 
77

>  <original_smiles>  (78) 
[H]c1c([H])c([H])c2c(c1[H])C([H])([H])C([H])([H])C([H])([H])C2([H])N([H])C(=O)C1([H])N(C(=O)C([H])(N([H])C(=O)C([H])(N([H])C([H])([H])[H])C([H])([H])[H])C(C([H])([H])[H])(C([H])([H])[H])C([H])([H])[H])C([H])([H])c2c([H])c(OC([H])([H])C3([H])C(=O)N(C([H])([H])c4c([H])c([H])c(N([H])C(=O)N5C([H])([H])C([H])([H])C([H])([H])C([H])(n6nc(-c7c([H])c([H])c(Oc8c([H])c([H])c(F)c([H])c8F)c([H])c7[H])c(C(=O)N([H])[H])c6N([H])[H])C5([H])[H])c(C([H])([H])[H])c4[H])C([H])([H])C([H])([H])C3([H])[H])c([H])c([H])c2C1([H])[H]

>  <smiles>  (78) 
[H]c1c([H])c([H])c2c(c1[H])C([H])([H])C([H])([H])C([H])([H])C2([H])N([H])C(=O)C1([H])N(C(=O)C([H])(N([H])C(=O)C([H])(N([H])C([H])([H])[H])C([H])([H])[H])C(C([H])([H])[H])(C([H])([H])[H])C([H])([H])[H])C([H])([H])c2c([H])c(OC([H])([H])C3([H])C(=O)N(C([H])([H])c4c([H])c([H])c(N([H])C(=O)N5C([H])([H])C([H])([H])C([H])([H])C([H])(n6nc(-c7c([H])c([H])c(Oc8c([H])c([H])c(F)c([H])c8F)c([H])c7[H])c(C(=O)N([H])[H])c6N([H])[H])C5([H])[H])c(C([H])([H])[H])c4[H])C([H])([H])C([H])([H])C3([H])[H])c([H])c([H])c2C1([H])[H]

$$$$
78:0:0
     RDKit          3D

 92101  0  0  1  0  0  0  0  0999 V2000
  -29.2180  -22.7450   21.4610 C   0  0  0  0  0  2  0  0  0  0  0  0
  -28.2330  -22.5320   19.2170 C   0  0  0  0  0  2  0  0  0  0  0  0
  -29.2460  -24.3250   21.3000 C   0  0  0  0  0  2  0  0  0  0  0  0
  -28.2690  -24.1140   19.0390 C   0  0  0  0  0  2  0  0  0  0  0  0
  -29.3550  -21.9360   20.1310 C   0  0  0  0  0  3  0  0  0  0  0  0
  -28.1710  -24.9670   20.3540 C   0  0  0  0  0  3  0  0  0  0  0  0
  -28.3730  -19.4750   20.4690 C   0  0  0  0  0  3  0  0  0  0  0  0
  -28.4840  -18.0470   20.5520 C   0  0  0  0  0  3  0  0  0  0  0  0
  -30.8340  -18.1800   20.1840 C   0  0  0  0  0  3  0  0  0  0  0  0
  -29.4880  -20.3300   20.2430 C   0  0  0  0  0  0  0  0  0  0  0  0
  -30.7340  -19.6200   20.1150 C   0  0  0  0  0  0  0  0  0  0  0  0
  -29.7110  -17.3340   20.4050 C   0  0  0  0  0  0  0  0  0  0  0  0
  -32.0260  -20.3950   19.9030 C   0  0  0  0  0  1  0  0  0  0  0  0
  -30.5540  -14.8090   20.1530 C   0  0  0  0  0  0  0  0  0  0  0  0
  -30.3760  -12.5480   19.0910 C   0  0  0  0  0  2  0  0  0  0  0  0
  -29.3760  -12.6420   17.9140 C   0  0  0  0  0  2  0  0  0  0  0  0
  -27.9260  -12.4520   18.4040 C   0  0  0  0  0  2  0  0  0  0  0  0
  -27.6040  -13.3060   19.6590 C   0  0  0  0  0  3  0  0  0  0  0  0
  -28.7090  -13.1670   20.7290 C   0  0  0  0  0  2  0  0  0  0  0  0
  -29.9810  -13.5570   20.1000 N   0  0  0  0  0  0  0  0  0  0  0  0
  -31.7090  -14.9820   19.7490 O   0  0  0  0  0  0  0  0  0  0  0  0
  -29.7080  -15.8490   20.5110 N   0  0  0  0  0  0  0  0  0  0  0  0
  -28.8230  -15.4820   20.8280 H   0  0  0  0  0  0  0  0  0  0  0  0
  -25.2490  -13.8870   20.4980 C   0  0  0  0  0  0  0  0  0  0  0  0
  -24.1990  -13.1060   20.8980 C   0  0  0  0  0  0  0  0  0  0  0  0
  -24.6560  -11.7550   20.8100 C   0  0  0  0  0  0  0  0  0  0  0  0
  -26.2790  -13.0100   20.1950 N   0  0  0  0  0  0  0  0  0  0  0  0
  -25.9320  -11.7220   20.4440 N   0  0  0  0  0  0  0  0  0  0  0  0
  -23.9350  -10.4880   20.9960 C   0  0  0  0  0  0  0  0  0  0  0  0
  -24.3710   -9.5200   21.9270 C   0  0  0  0  0  3  0  0  0  0  0  0
  -23.6500   -8.3190   22.1010 C   0  0  0  0  0  3  0  0  0  0  0  0
  -22.4790   -8.0780   21.3420 C   0  0  0  0  0  0  0  0  0  0  0  0
  -22.0630   -9.0360   20.4010 C   0  0  0  0  0  3  0  0  0  0  0  0
  -22.7840  -10.2280   20.2260 C   0  0  0  0  0  3  0  0  0  0  0  0
  -21.7290   -6.9290   21.4260 O   0  0  0  0  0  0  0  0  0  0  0  0
  -21.6310   -6.2180   22.5950 C   0  0  0  0  0  0  0  0  0  0  0  0
  -21.1180   -6.7940   23.7770 C   0  0  0  0  0  3  0  0  0  0  0  0
  -20.9690   -6.0070   24.9370 C   0  0  0  0  0  3  0  0  0  0  0  0
  -21.3230   -4.6450   24.9150 C   0  0  0  0  0  0  0  0  0  0  0  0
  -21.8300   -4.0680   23.7370 C   0  0  0  0  0  3  0  0  0  0  0  0
  -21.9810   -4.8520   22.5800 C   0  0  0  0  0  0  0  0  0  0  0  0
  -22.4500   -4.2860   21.4420 F   0  0  0  0  0  0  0  0  0  0  0  0
  -21.1730   -3.8880   26.0260 F   0  0  0  0  0  0  0  0  0  0  0  0
  -22.8160  -13.5770   21.2420 C   0  0  0  0  0  0  0  0  0  0  0  0
  -22.1230  -12.8580   22.1190 N   0  0  0  0  0  0  0  0  0  0  0  0
  -22.3590  -14.6160   20.7690 O   0  0  0  0  0  0  0  0  0  0  0  0
  -22.5070  -12.0180   22.5250 H   0  0  0  0  0  0  0  0  0  0  0  0
  -21.1970  -13.1570   22.3920 H   0  0  0  0  0  0  0  0  0  0  0  0
  -25.4060  -15.2610   20.3410 N   0  0  0  0  0  0  0  0  0  0  0  0
  -24.6240  -15.8960   20.4560 H   0  0  0  0  0  0  0  0  0  0  0  0
  -26.1920  -15.6870   19.8660 H   0  0  0  0  0  0  0  0  0  0  0  0
  -28.3310  -26.4600   20.2260 O   0  0  0  0  0  0  0  0  0  0  0  0
  -24.6180  -31.9130   23.2530 C   0  0  0  0  0  0  0  0  0  0  0  0
  -27.2140  -27.3240   20.1920 C   0  0  0  0  0  0  0  0  0  0  0  0
  -23.4140  -30.5300   21.6020 C   0  0  0  0  0  3  0  0  0  0  0  0
  -24.8620  -28.9730   20.1720 C   0  0  0  0  0  0  0  0  0  0  0  0
  -25.9580  -30.8290   21.4290 C   0  0  0  0  0  2  0  0  0  0  0  0
  -26.0330  -29.4500   20.7730 C   0  0  0  0  0  0  0  0  0  0  0  0
  -27.2130  -28.6400   20.7650 C   0  0  0  0  0  3  0  0  0  0  0  0
  -26.0180  -26.9060   19.5710 C   0  0  0  0  0  3  0  0  0  0  0  0
  -24.8590  -27.7100   19.5600 C   0  0  0  0  0  3  0  0  0  0  0  0
  -23.6310  -29.8590   20.2190 C   0  0  0  0  0  2  0  0  0  0  0  0
  -24.6830  -31.1080   22.1510 N   0  0  0  0  0  0  0  0  0  0  0  0
  -23.5350  -32.1930   23.7860 O   0  0  0  0  0  0  0  0  0  0  0  0
  -22.7420  -29.5130   22.5550 C   0  0  0  0  0  0  0  0  0  0  0  0
  -21.4150  -29.3430   22.4230 N   0  0  0  0  0  0  0  0  0  0  0  0
  -23.4130  -28.8810   23.3750 O   0  0  0  0  0  0  0  0  0  0  0  0
  -20.9310  -29.9030   21.7350 H   0  0  0  0  0  0  0  0  0  0  0  0
  -18.0280  -28.1720   22.9230 C   0  0  0  0  0  0  0  0  0  0  0  0
  -20.5890  -28.4040   23.1860 C   0  0  0  0  0  3  0  0  0  0  0  0
  -20.6750  -26.9790   22.5950 C   0  0  0  0  0  2  0  0  0  0  0  0
  -19.5670  -26.6780   21.5810 C   0  0  0  0  0  2  0  0  0  0  0  0
  -18.1890  -26.8300   22.2310 C   0  0  0  0  0  2  0  0  0  0  0  0
  -19.1550  -28.9190   23.3580 C   0  0  0  0  0  0  0  0  0  0  0  0
  -18.9500  -30.1770   23.9660 C   0  0  0  0  0  3  0  0  0  0  0  0
  -17.6510  -30.6870   24.1430 C   0  0  0  0  0  3  0  0  0  0  0  0
  -16.5380  -29.9380   23.7240 C   0  0  0  0  0  3  0  0  0  0  0  0
  -16.7280  -28.6830   23.1200 C   0  0  0  0  0  3  0  0  0  0  0  0
  -25.9010  -32.5360   23.8840 C   0  0  0  0  0  3  0  0  0  0  0  0
  -25.6030  -33.9390   24.2090 N   0  0  0  0  0  0  0  0  0  0  0  0
  -25.9190  -34.9850   23.4350 C   0  0  0  0  0  0  0  0  0  0  0  0
  -26.5640  -34.8710   22.3890 O   0  0  0  0  0  0  0  0  0  0  0  0
  -25.0270  -34.1010   25.0230 H   0  0  0  0  0  0  0  0  0  0  0  0
  -24.1830  -36.7780   23.1110 C   0  0  0  0  0  1  0  0  0  0  0  0
  -25.4460  -36.3790   23.8920 C   0  0  0  0  0  3  0  0  0  0  0  0
  -27.6030  -37.2720   24.6560 C   0  0  0  0  0  1  0  0  0  0  0  0
  -26.4760  -37.4310   23.7410 N   0  0  0  0  0  0  0  0  0  0  0  0
  -26.0730  -38.3520   23.8940 H   0  0  0  0  0  0  0  0  0  0  0  0
  -26.4000  -31.7650   25.1690 C   0  0  1  0  0  0  0  0  0  0  0  0
  -25.2950  -31.5390   26.2260 C   0  0  0  0  0  1  0  0  0  0  0  0
  -26.9780  -30.3830   24.7870 C   0  0  0  0  0  1  0  0  0  0  0  0
  -27.5490  -32.5540   25.8400 C   0  0  0  0  0  1  0  0  0  0  0  0
  2  5  1  0
  3  1  1  0
  4  2  1  0
  4  6  1  0
  5 10  1  0
  5  1  1  0
  6 52  1  0
  6  3  1  0
  7  8  1  0
  9 12  1  0
 10  7  2  0
 11  9  2  0
 11 10  1  0
 12 22  1  0
 12  8  2  0
 13 11  1  0
 14 22  1  0
 15 20  1  0
 16 17  1  0
 16 15  1  0
 18 17  1  0
 18 27  1  0
 18 19  1  0
 20 14  1  0
 20 19  1  0
 21 14  2  0
 22 23  1  0
 24 25  2  0
 25 44  1  0
 26 25  1  0
 26 29  1  0
 27 28  1  0
 27 24  1  0
 28 26  2  0
 29 30  1  0
 30 31  2  0
 32 35  1  0
 32 31  1  0
 33 32  2  0
 34 33  1  0
 34 29  2  0
 35 36  1  0
 36 37  1  0
 37 38  2  0
 39 38  1  0
 39 43  1  0
 40 39  2  0
 41 36  2  0
 41 40  1  0
 42 41  1  0
 44 45  1  0
 45 48  1  0
 45 47  1  0
 46 44  2  0
 49 50  1  0
 49 24  1  0
 51 49  1  0
 53 64  2  0
 54 52  1  0
 54 59  1  0
 55 63  1  0
 55 65  1  0
 56 62  1  0
 56 58  1  0
 57 63  1  0
 58 57  1  0
 59 58  2  0
 60 54  2  0
 61 60  1  0
 61 56  2  0
 62 55  1  0
 63 53  1  0
 65 67  2  0
 66 65  1  0
 68 66  1  0
 69 78  2  0
 69 74  1  0
 70 66  1  0
 70 74  1  0
 71 70  1  0
 72 73  1  0
 72 71  1  0
 73 69  1  0
 74 75  2  0
 75 76  1  0
 77 76  2  0
 78 77  1  0
 79 53  1  0
 79 80  1  0
 79 89  1  0
 80 83  1  0
 81 85  1  0
 81 80  1  0
 82 81  2  0
 85 84  1  0
 87 85  1  0
 87 88  1  0
 87 86  1  0
 89 92  1  1
 89 90  1  0
 91 89  1  0
M  ISO  4   6 101  14 100  22 100  52 101
M  END
>  <TORSDO>  (79) 
F 17

>  <SCORE>  (79) 
-15.271

>  <name>  (79) 
78

>  <ligand_id>  (79) 
78

>  <original_smiles>  (79) 
[H]c1c([H])c([H])c2c(c1[H])C([H])([H])C([H])([H])C([H])([H])C2([H])N([H])C(=O)C1([H])N(C(=O)C([H])(N([H])C(=O)C([H])(N([H])C([H])([H])[H])C([H])([H])[H])C(C([H])([H])[H])(C([H])([H])[H])C([H])([H])[H])C([H])([H])c2c([H])c(OC3([H])C([H])([H])C([H])([H])C([H])(c4c([H])c([H])c(N([H])C(=O)N5C([H])([H])C([H])([H])C([H])([H])C([H])(n6nc(-c7c([H])c([H])c(Oc8c([H])c([H])c(F)c([H])c8F)c([H])c7[H])c(C(=O)N([H])[H])c6N([H])[H])C5([H])[H])c([H])c4C([H])([H])[H])C([H])([H])C3([H])[H])c([H])c([H])c2C1([H])[H]

>  <smiles>  (79) 
[H]c1c([H])c([H])c2c(c1[H])C([H])([H])C([H])([H])C([H])([H])C2([H])N([H])C(=O)C1([H])N(C(=O)C([H])(N([H])C(=O)C([H])(N([H])C([H])([H])[H])C([H])([H])[H])C(C([H])([H])[H])(C([H])([H])[H])C([H])([H])[H])C([H])([H])c2c([H])c(OC3([H])C([H])([H])C([H])([H])C([H])(c4c([H])c([H])c(N([H])C(=O)N5C([H])([H])C([H])([H])C([H])([H])C([H])(n6nc(-c7c([H])c([H])c(Oc8c([H])c([H])c(F)c([H])c8F)c([H])c7[H])c(C(=O)N([H])[H])c6N([H])[H])C5([H])[H])c([H])c4C([H])([H])[H])C([H])([H])C3([H])[H])c([H])c([H])c2C1([H])[H]

$$$$
79:0:0
     RDKit          3D

 93101  0  0  1  0  0  0  0  0999 V2000
  -29.6430  -21.4100   19.6460 N   0  0  0  0  0  0  0  0  0  0  0  0
  -28.6630  -17.8530   20.5880 C   0  0  0  0  0  3  0  0  0  0  0  0
  -28.5910  -19.2630   20.3910 C   0  0  0  0  0  3  0  0  0  0  0  0
  -31.0390  -17.9000   20.2310 C   0  0  0  0  0  3  0  0  0  0  0  0
  -29.8770  -17.1230   20.4770 C   0  0  0  0  0  0  0  0  0  0  0  0
  -29.7380  -20.0370   20.0800 C   0  0  0  0  0  0  0  0  0  0  0  0
  -30.9750  -19.3150   20.0450 C   0  0  0  0  0  0  0  0  0  0  0  0
  -32.4630  -20.1470   19.7580 Cl  0  0  0  0  0  0  0  0  0  0  0  0
  -30.6170  -14.6540   20.1390 C   0  0  0  0  0  0  0  0  0  0  0  0
  -30.3500  -12.4620   18.9940 C   0  0  0  0  0  2  0  0  0  0  0  0
  -29.3450  -12.6450   17.8350 C   0  0  0  0  0  2  0  0  0  0  0  0
  -27.8930  -12.4790   18.3310 C   0  0  0  0  0  2  0  0  0  0  0  0
  -27.6060  -13.2920   19.6220 C   0  0  0  0  0  3  0  0  0  0  0  0
  -28.7170  -13.0730   20.6740 C   0  0  0  0  0  2  0  0  0  0  0  0
  -30.0000  -13.4340   20.0490 N   0  0  0  0  0  0  0  0  0  0  0  0
  -31.7460  -14.8390   19.6720 O   0  0  0  0  0  0  0  0  0  0  0  0
  -29.8400  -15.6670   20.6320 N   0  0  0  0  0  0  0  0  0  0  0  0
  -28.9760  -15.3180   21.0160 H   0  0  0  0  0  0  0  0  0  0  0  0
  -25.2500  -13.8750   20.4710 C   0  0  0  0  0  0  0  0  0  0  0  0
  -24.2010  -13.0940   20.8730 C   0  0  0  0  0  0  0  0  0  0  0  0
  -24.6580  -11.7430   20.7850 C   0  0  0  0  0  0  0  0  0  0  0  0
  -26.2790  -13.0000   20.1620 N   0  0  0  0  0  0  0  0  0  0  0  0
  -25.9310  -11.7120   20.4100 N   0  0  0  0  0  0  0  0  0  0  0  0
  -23.9390  -10.4770   20.9800 C   0  0  0  0  0  0  0  0  0  0  0  0
  -24.3850   -9.5110   21.9080 C   0  0  0  0  0  3  0  0  0  0  0  0
  -23.6670   -8.3090   22.0900 C   0  0  0  0  0  3  0  0  0  0  0  0
  -22.4890   -8.0670   21.3440 C   0  0  0  0  0  0  0  0  0  0  0  0
  -22.0620   -9.0220   20.4050 C   0  0  0  0  0  3  0  0  0  0  0  0
  -22.7810  -10.2140   20.2200 C   0  0  0  0  0  3  0  0  0  0  0  0
  -21.7420   -6.9170   21.4360 O   0  0  0  0  0  0  0  0  0  0  0  0
  -21.6720   -6.1940   22.5990 C   0  0  0  0  0  0  0  0  0  0  0  0
  -21.1700   -6.7520   23.7960 C   0  0  0  0  0  3  0  0  0  0  0  0
  -21.0530   -5.9540   24.9510 C   0  0  0  0  0  3  0  0  0  0  0  0
  -21.4260   -4.5970   24.9110 C   0  0  0  0  0  0  0  0  0  0  0  0
  -21.9220   -4.0380   23.7200 C   0  0  0  0  0  3  0  0  0  0  0  0
  -22.0420   -4.8330   22.5660 C   0  0  0  0  0  0  0  0  0  0  0  0
  -22.4990   -4.2840   21.4160 F   0  0  0  0  0  0  0  0  0  0  0  0
  -21.3060   -3.8280   26.0170 F   0  0  0  0  0  0  0  0  0  0  0  0
  -22.8190  -13.5650   21.2250 C   0  0  0  0  0  0  0  0  0  0  0  0
  -22.1290  -12.8450   22.1040 N   0  0  0  0  0  0  0  0  0  0  0  0
  -22.3600  -14.6070   20.7580 O   0  0  0  0  0  0  0  0  0  0  0  0
  -22.5130  -12.0030   22.5050 H   0  0  0  0  0  0  0  0  0  0  0  0
  -21.2050  -13.1410   22.3800 H   0  0  0  0  0  0  0  0  0  0  0  0
  -25.4080  -15.2500   20.3230 N   0  0  0  0  0  0  0  0  0  0  0  0
  -24.6480  -15.8990   20.4950 H   0  0  0  0  0  0  0  0  0  0  0  0
  -26.2280  -15.6950   19.9310 H   0  0  0  0  0  0  0  0  0  0  0  0
  -29.4440  -21.4180   18.1920 C   0  0  0  0  0  2  0  0  0  0  0  0
  -30.3100  -22.1470   15.9200 C   0  0  0  0  0  1  0  0  0  0  0  0
  -30.5890  -22.0990   17.4260 C   0  0  0  0  0  2  0  0  0  0  0  0
  -28.8690  -22.4570   20.3960 C   0  0  0  0  0  2  0  0  0  0  0  0
  -29.0760  -23.9800   19.9400 C   0  0  0  0  0  3  0  0  0  0  0  0
  -28.2060  -25.1140   20.6350 C   0  0  0  0  0  3  0  0  0  0  0  0
  -28.3940  -26.5230   20.2180 O   0  0  0  0  0  0  0  0  0  0  0  0
  -24.6050  -31.8850   23.2220 C   0  0  0  0  0  0  0  0  0  0  0  0
  -27.2670  -27.3540   20.1910 C   0  0  0  0  0  0  0  0  0  0  0  0
  -23.4210  -30.4830   21.5690 C   0  0  0  0  0  3  0  0  0  0  0  0
  -24.8930  -28.9400   20.1560 C   0  0  0  0  0  0  0  0  0  0  0  0
  -25.9590  -30.8180   21.4070 C   0  0  0  0  0  2  0  0  0  0  0  0
  -26.0530  -29.4420   20.7610 C   0  0  0  0  0  0  0  0  0  0  0  0
  -27.2450  -28.6610   20.7640 C   0  0  0  0  0  3  0  0  0  0  0  0
  -26.0890  -26.9030   19.5580 C   0  0  0  0  0  3  0  0  0  0  0  0
  -24.9110  -27.6760   19.5450 C   0  0  0  0  0  3  0  0  0  0  0  0
  -23.6510  -29.8080   20.1910 C   0  0  0  0  0  2  0  0  0  0  0  0
  -24.6790  -31.0790   22.1230 N   0  0  0  0  0  0  0  0  0  0  0  0
  -23.5160  -32.1560   23.7480 O   0  0  0  0  0  0  0  0  0  0  0  0
  -22.7560  -29.4610   22.5230 C   0  0  0  0  0  0  0  0  0  0  0  0
  -21.4300  -29.2890   22.3940 N   0  0  0  0  0  0  0  0  0  0  0  0
  -23.4330  -28.8260   23.3360 O   0  0  0  0  0  0  0  0  0  0  0  0
  -20.9440  -29.8540   21.7100 H   0  0  0  0  0  0  0  0  0  0  0  0
  -18.0420  -28.1350   22.9150 C   0  0  0  0  0  0  0  0  0  0  0  0
  -20.6060  -28.3510   23.1590 C   0  0  0  0  0  3  0  0  0  0  0  0
  -20.6800  -26.9270   22.5600 C   0  0  0  0  0  2  0  0  0  0  0  0
  -19.5620  -26.6390   21.5530 C   0  0  0  0  0  2  0  0  0  0  0  0
  -18.1900  -26.7940   22.2150 C   0  0  0  0  0  2  0  0  0  0  0  0
  -19.1760  -28.8730   23.3440 C   0  0  0  0  0  0  0  0  0  0  0  0
  -18.9830  -30.1290   23.9590 C   0  0  0  0  0  3  0  0  0  0  0  0
  -17.6880  -30.6470   24.1470 C   0  0  0  0  0  3  0  0  0  0  0  0
  -16.5680  -29.9050   23.7330 C   0  0  0  0  0  3  0  0  0  0  0  0
  -16.7460  -28.6510   23.1230 C   0  0  0  0  0  3  0  0  0  0  0  0
  -25.8800  -32.5210   23.8550 C   0  0  0  0  0  3  0  0  0  0  0  0
  -25.5640  -33.9190   24.1780 N   0  0  0  0  0  0  0  0  0  0  0  0
  -25.8980  -34.9710   23.4180 C   0  0  0  0  0  0  0  0  0  0  0  0
  -26.5740  -34.8650   22.3900 O   0  0  0  0  0  0  0  0  0  0  0  0
  -24.9640  -34.0750   24.9740 H   0  0  0  0  0  0  0  0  0  0  0  0
  -24.1770  -36.7640   23.0360 C   0  0  0  0  0  1  0  0  0  0  0  0
  -25.4040  -36.3600   23.8670 C   0  0  0  0  0  3  0  0  0  0  0  0
  -27.5220  -37.2470   24.7370 C   0  0  0  0  0  1  0  0  0  0  0  0
  -26.4380  -37.4130   23.7710 N   0  0  0  0  0  0  0  0  0  0  0  0
  -26.0290  -38.3320   23.9110 H   0  0  0  0  0  0  0  0  0  0  0  0
  -26.3840  -31.7560   25.1410 C   0  0  1  0  0  0  0  0  0  0  0  0
  -25.2790  -31.5160   26.1950 C   0  0  0  0  0  1  0  0  0  0  0  0
  -26.9800  -30.3810   24.7600 C   0  0  0  0  0  1  0  0  0  0  0  0
  -27.5220  -32.5580   25.8150 C   0  0  0  0  0  1  0  0  0  0  0  0
  1  6  1  0
  1 50  1  0
  3  2  2  0
  4  5  2  0
  5  2  1  0
  5 17  1  0
  6  3  1  0
  7  6  2  0
  7  4  1  0
  8  7  1  0
  9 17  1  0
 10 15  1  0
 11 12  1  0
 11 10  1  0
 13 12  1  0
 13 22  1  0
 13 14  1  0
 15  9  1  0
 15 14  1  0
 16  9  2  0
 17 18  1  0
 19 20  2  0
 20 39  1  0
 21 20  1  0
 21 24  1  0
 22 23  1  0
 22 19  1  0
 23 21  2  0
 24 25  1  0
 25 26  2  0
 27 30  1  0
 27 26  1  0
 28 27  2  0
 29 28  1  0
 29 24  2  0
 30 31  1  0
 31 32  1  0
 32 33  2  0
 34 33  1  0
 34 38  1  0
 35 34  2  0
 36 31  2  0
 36 35  1  0
 37 36  1  0
 39 40  1  0
 40 43  1  0
 40 42  1  0
 41 39  2  0
 44 19  1  0
 44 45  1  0
 46 44  1  0
 47  1  1  0
 48 49  1  0
 49 47  1  0
 51 50  1  0
 51 52  2  0
 53 52  1  0
 54 65  2  0
 55 53  1  0
 55 60  1  0
 56 64  1  0
 56 66  1  0
 57 63  1  0
 57 59  1  0
 58 64  1  0
 59 60  2  0
 59 58  1  0
 61 55  2  0
 62 61  1  0
 62 57  2  0
 63 56  1  0
 64 54  1  0
 66 68  2  0
 67 66  1  0
 69 67  1  0
 70 79  2  0
 70 75  1  0
 71 67  1  0
 71 75  1  0
 72 71  1  0
 73 74  1  0
 73 72  1  0
 74 70  1  0
 75 76  2  0
 76 77  1  0
 78 77  2  0
 79 78  1  0
 80 54  1  0
 80 81  1  0
 80 90  1  0
 81 84  1  0
 82 86  1  0
 82 81  1  0
 83 82  2  0
 86 85  1  0
 88 86  1  0
 88 89  1  0
 88 87  1  0
 90 93  1  1
 90 91  1  0
 92 90  1  0
M  ISO  4   9 100  17 100  52 101  53 101
M  END
>  <TORSDO>  (80) 
F 22

>  <SCORE>  (80) 
-13.311

>  <name>  (80) 
79

>  <ligand_id>  (80) 
79

>  <original_smiles>  (80) 
[H]c1c([H])c([H])c2c(c1[H])C([H])([H])C([H])([H])C([H])([H])C2([H])N([H])C(=O)C1([H])N(C(=O)C([H])(N([H])C(=O)C([H])(N([H])C([H])([H])[H])C([H])([H])[H])C(C([H])([H])[H])(C([H])([H])[H])C([H])([H])[H])C([H])([H])c2c([H])c(OC([H])([H])C([H])([H])C([H])([H])N(c3c([H])c([H])c(N([H])C(=O)N4C([H])([H])C([H])([H])C([H])([H])C([H])(n5nc(-c6c([H])c([H])c(Oc7c([H])c([H])c(F)c([H])c7F)c([H])c6[H])c(C(=O)N([H])[H])c5N([H])[H])C4([H])[H])c([H])c3Cl)C([H])([H])C([H])([H])C([H])([H])[H])c([H])c([H])c2C1([H])[H]

>  <smiles>  (80) 
[H]c1c([H])c([H])c2c(c1[H])C([H])([H])C([H])([H])C([H])([H])C2([H])N([H])C(=O)C1([H])N(C(=O)C([H])(N([H])C(=O)C([H])(N([H])C([H])([H])[H])C([H])([H])[H])C(C([H])([H])[H])(C([H])([H])[H])C([H])([H])[H])C([H])([H])c2c([H])c(OC([H])([H])C([H])([H])C([H])([H])N(c3c([H])c([H])c(N([H])C(=O)N4C([H])([H])C([H])([H])C([H])([H])C([H])(n5nc(-c6c([H])c([H])c(Oc7c([H])c([H])c(F)c([H])c7F)c([H])c6[H])c(C(=O)N([H])[H])c5N([H])[H])C4([H])[H])c([H])c3Cl)C([H])([H])C([H])([H])C([H])([H])[H])c([H])c([H])c2C1([H])[H]

$$$$
80:0:0
     RDKit          3D

 90 98  0  0  1  0  0  0  0  0999 V2000
  -30.5950  -19.6490   22.3640 C   0  0  0  0  0  3  0  0  0  0  0  0
  -30.0710  -20.8130   21.7340 C   0  0  0  0  0  3  0  0  0  0  0  0
  -30.5780  -18.3450   21.7900 C   0  0  0  0  0  3  0  0  0  0  0  0
  -29.5180  -20.7610   20.4380 C   0  0  0  0  0  0  0  0  0  0  0  0
  -30.0070  -18.0820   20.5250 C   0  0  0  0  0  0  0  0  0  0  0  0
  -29.5270  -19.3620   19.8690 C   0  0  0  0  0  0  0  0  0  0  0  0
  -29.0700  -19.2690   18.5960 F   0  0  0  0  0  0  0  0  0  0  0  0
  -30.5370  -15.3060   20.1590 C   0  0  0  0  0  0  0  0  0  0  0  0
  -30.4490  -12.9030   19.2180 C   0  0  0  0  0  2  0  0  0  0  0  0
  -29.4820  -12.7290   18.0220 C   0  0  0  0  0  2  0  0  0  0  0  0
  -28.0540  -12.4090   18.5090 C   0  0  0  0  0  2  0  0  0  0  0  0
  -27.6230  -13.3400   19.6600 C   0  0  0  0  0  3  0  0  0  0  0  0
  -28.7220  -13.5170   20.7430 C   0  0  0  0  0  2  0  0  0  0  0  0
  -29.9350  -14.0220   20.0730 N   0  0  0  0  0  0  0  0  0  0  0  0
  -31.7670  -15.2910   20.0130 O   0  0  0  0  0  0  0  0  0  0  0  0
  -28.4800  -16.4680   19.4560 C   0  0  0  0  0  1  0  0  0  0  0  0
  -29.7860  -16.5790   20.0890 N   0  0  0  0  0  0  0  0  0  0  0  0
  -25.2740  -13.9230   20.4930 C   0  0  0  0  0  0  0  0  0  0  0  0
  -24.2280  -13.1440   20.8880 C   0  0  0  0  0  0  0  0  0  0  0  0
  -24.7000  -11.7980   20.8300 C   0  0  0  0  0  0  0  0  0  0  0  0
  -26.3150  -13.0460   20.2150 N   0  0  0  0  0  0  0  0  0  0  0  0
  -25.9810  -11.7630   20.4870 N   0  0  0  0  0  0  0  0  0  0  0  0
  -23.9870  -10.5350   21.0140 C   0  0  0  0  0  0  0  0  0  0  0  0
  -24.4330   -9.5710   21.9440 C   0  0  0  0  0  3  0  0  0  0  0  0
  -23.7200   -8.3670   22.1190 C   0  0  0  0  0  3  0  0  0  0  0  0
  -22.5470   -8.1240   21.3660 C   0  0  0  0  0  0  0  0  0  0  0  0
  -22.1220   -9.0770   20.4230 C   0  0  0  0  0  3  0  0  0  0  0  0
  -22.8370  -10.2720   20.2440 C   0  0  0  0  0  3  0  0  0  0  0  0
  -21.8000   -6.9750   21.4560 O   0  0  0  0  0  0  0  0  0  0  0  0
  -21.7390   -6.2450   22.6160 C   0  0  0  0  0  0  0  0  0  0  0  0
  -21.2620   -6.8020   23.8220 C   0  0  0  0  0  3  0  0  0  0  0  0
  -21.1520   -5.9960   24.9740 C   0  0  0  0  0  3  0  0  0  0  0  0
  -21.5100   -4.6360   24.9180 C   0  0  0  0  0  0  0  0  0  0  0  0
  -21.9810   -4.0780   23.7170 C   0  0  0  0  0  3  0  0  0  0  0  0
  -22.0930   -4.8810   22.5680 C   0  0  0  0  0  0  0  0  0  0  0  0
  -22.5270   -4.3350   21.4070 F   0  0  0  0  0  0  0  0  0  0  0  0
  -21.3970   -3.8600   26.0220 F   0  0  0  0  0  0  0  0  0  0  0  0
  -22.8360  -13.6170   21.1930 C   0  0  0  0  0  0  0  0  0  0  0  0
  -22.1270  -12.9060   22.0640 N   0  0  0  0  0  0  0  0  0  0  0  0
  -22.3880  -14.6510   20.6980 O   0  0  0  0  0  0  0  0  0  0  0  0
  -22.5050  -12.0730   22.4910 H   0  0  0  0  0  0  0  0  0  0  0  0
  -21.1920  -13.2010   22.3090 H   0  0  0  0  0  0  0  0  0  0  0  0
  -25.4010  -15.2970   20.3120 N   0  0  0  0  0  0  0  0  0  0  0  0
  -24.6090  -15.9200   20.4380 H   0  0  0  0  0  0  0  0  0  0  0  0
  -26.2050  -15.7540   19.9050 H   0  0  0  0  0  0  0  0  0  0  0  0
  -28.7510  -23.3660   19.7250 C   0  0  0  0  0  0  0  0  0  0  0  0
  -28.5580  -23.8880   18.3150 C   0  0  0  0  0  1  0  0  0  0  0  0
  -29.0930  -22.0200   19.6940 N   0  0  0  0  0  0  0  0  0  0  0  0
  -28.4120  -24.6900   20.7310 C   0  0  0  0  0  2  0  0  0  0  0  0
  -28.4370  -26.2270   20.2980 O   0  0  0  0  0  0  0  0  0  0  0  0
  -24.6310  -31.9290   23.2280 C   0  0  0  0  0  0  0  0  0  0  0  0
  -27.3310  -27.1780   20.3040 C   0  0  0  0  0  0  0  0  0  0  0  0
  -23.4780  -30.4990   21.5850 C   0  0  0  0  0  3  0  0  0  0  0  0
  -24.9710  -28.9150   20.2060 C   0  0  0  0  0  0  0  0  0  0  0  0
  -26.0300  -30.7940   21.4500 C   0  0  0  0  0  2  0  0  0  0  0  0
  -26.1360  -29.3860   20.8200 C   0  0  0  0  0  0  0  0  0  0  0  0
  -27.3170  -28.5390   20.8390 C   0  0  0  0  0  3  0  0  0  0  0  0
  -26.1260  -26.8080   19.6680 C   0  0  0  0  0  3  0  0  0  0  0  0
  -24.9800  -27.6400   19.6140 C   0  0  0  0  0  3  0  0  0  0  0  0
  -23.7310  -29.8030   20.2200 C   0  0  0  0  0  2  0  0  0  0  0  0
  -24.7330  -31.0980   22.1440 N   0  0  0  0  0  0  0  0  0  0  0  0
  -23.5320  -32.2020   23.7360 O   0  0  0  0  0  0  0  0  0  0  0  0
  -22.7930  -29.4970   22.5500 C   0  0  0  0  0  0  0  0  0  0  0  0
  -21.4670  -29.3140   22.4130 N   0  0  0  0  0  0  0  0  0  0  0  0
  -23.4610  -28.8830   23.3850 O   0  0  0  0  0  0  0  0  0  0  0  0
  -20.9820  -29.8640   21.7180 H   0  0  0  0  0  0  0  0  0  0  0  0
  -18.0910  -28.0970   22.9120 C   0  0  0  0  0  0  0  0  0  0  0  0
  -20.6480  -28.3730   23.1810 C   0  0  0  0  0  3  0  0  0  0  0  0
  -20.7560  -26.9410   22.6040 C   0  0  0  0  0  2  0  0  0  0  0  0
  -19.6550  -26.6150   21.5890 C   0  0  0  0  0  2  0  0  0  0  0  0
  -18.2730  -26.7510   22.2330 C   0  0  0  0  0  2  0  0  0  0  0  0
  -19.2040  -28.8650   23.3440 C   0  0  0  0  0  0  0  0  0  0  0  0
  -18.9770  -30.1230   23.9420 C   0  0  0  0  0  3  0  0  0  0  0  0
  -17.6680  -30.6140   24.1110 C   0  0  0  0  0  3  0  0  0  0  0  0
  -16.5680  -29.8440   23.6940 C   0  0  0  0  0  3  0  0  0  0  0  0
  -16.7810  -28.5890   23.0990 C   0  0  0  0  0  3  0  0  0  0  0  0
  -25.8870  -32.5910   23.8720 C   0  0  0  0  0  3  0  0  0  0  0  0
  -25.5510  -33.9910   24.1820 N   0  0  0  0  0  0  0  0  0  0  0  0
  -25.8880  -35.0430   23.4220 C   0  0  0  0  0  0  0  0  0  0  0  0
  -26.5780  -34.9380   22.4050 O   0  0  0  0  0  0  0  0  0  0  0  0
  -24.9380  -34.1450   24.9690 H   0  0  0  0  0  0  0  0  0  0  0  0
  -24.1540  -36.8230   23.0250 C   0  0  0  0  0  1  0  0  0  0  0  0
  -25.3830  -36.4320   23.8610 C   0  0  0  0  0  3  0  0  0  0  0  0
  -27.4900  -37.3440   24.7320 C   0  0  0  0  0  1  0  0  0  0  0  0
  -26.4100  -37.4920   23.7610 N   0  0  0  0  0  0  0  0  0  0  0  0
  -25.9920  -38.4100   23.8890 H   0  0  0  0  0  0  0  0  0  0  0  0
  -26.3790  -31.8470   25.1750 C   0  0  1  0  0  0  0  0  0  0  0  0
  -25.2620  -31.6070   26.2190 C   0  0  0  0  0  1  0  0  0  0  0  0
  -26.9940  -30.4720   24.8230 C   0  0  0  0  0  1  0  0  0  0  0  0
  -27.5000  -32.6690   25.8550 C   0  0  0  0  0  1  0  0  0  0  0  0
  2  1  2  0
  3  1  1  0
  4  2  1  0
  5  3  2  0
  6  4  2  0
  6  5  1  0
  7  6  1  0
  9 14  1  0
 10 11  1  0
 10  9  1  0
 12 11  1  0
 12 21  1  0
 12 13  1  0
 14  8  1  0
 14 13  1  0
 15  8  2  0
 16 17  1  0
 17  8  1  0
 17  5  1  0
 18 19  2  0
 19 38  1  0
 20 19  1  0
 20 23  1  0
 21 22  1  0
 21 18  1  0
 22 20  2  0
 23 24  1  0
 24 25  2  0
 26 29  1  0
 26 25  1  0
 27 26  2  0
 28 27  1  0
 28 23  2  0
 29 30  1  0
 30 31  1  0
 31 32  2  0
 33 32  1  0
 33 37  1  0
 34 33  2  0
 35 30  2  0
 35 34  1  0
 36 35  1  0
 38 39  1  0
 39 42  1  0
 39 41  1  0
 40 38  2  0
 43 44  1  0
 43 18  1  0
 45 43  1  0
 46 49  1  0
 47 46  1  0
 48 46  2  0
 48  4  1  0
 50 52  1  0
 50 49  1  0
 51 62  2  0
 52 57  1  0
 53 61  1  0
 53 63  1  0
 54 60  1  0
 54 56  1  0
 55 61  1  0
 56 57  2  0
 56 55  1  0
 58 52  2  0
 59 58  1  0
 59 54  2  0
 60 53  1  0
 61 51  1  0
 63 65  2  0
 64 63  1  0
 66 64  1  0
 67 76  2  0
 67 72  1  0
 68 64  1  0
 68 72  1  0
 69 68  1  0
 70 71  1  0
 70 69  1  0
 71 67  1  0
 72 73  2  0
 73 74  1  0
 75 74  2  0
 76 75  1  0
 77 51  1  0
 77 78  1  0
 77 87  1  0
 78 81  1  0
 79 83  1  0
 79 78  1  0
 80 79  2  0
 83 82  1  0
 85 83  1  0
 85 86  1  0
 85 84  1  0
 87 90  1  1
 87 88  1  0
 89 87  1  0
M  ISO  4   8 100  17 100  49 101  50 101
M  END
>  <TORSDO>  (81) 
F 18

>  <SCORE>  (81) 
-15.263

>  <name>  (81) 
80

>  <ligand_id>  (81) 
80

>  <original_smiles>  (81) 
[H]c1c([H])c(N=C(C([H])([H])[H])C([H])([H])Oc2c([H])c([H])c3c(c2[H])C([H])([H])N(C(=O)C([H])(N([H])C(=O)C([H])(N([H])C([H])([H])[H])C([H])([H])[H])C(C([H])([H])[H])(C([H])([H])[H])C([H])([H])[H])C([H])(C(=O)N([H])C2([H])c4c([H])c([H])c([H])c([H])c4C([H])([H])C([H])([H])C2([H])[H])C3([H])[H])c(F)c(N(C(=O)N2C([H])([H])C([H])([H])C([H])([H])C([H])(n3nc(-c4c([H])c([H])c(Oc5c([H])c([H])c(F)c([H])c5F)c([H])c4[H])c(C(=O)N([H])[H])c3N([H])[H])C2([H])[H])C([H])([H])[H])c1[H]

>  <smiles>  (81) 
[H]c1c([H])c(N=C(C([H])([H])[H])C([H])([H])Oc2c([H])c([H])c3c(c2[H])C([H])([H])N(C(=O)C([H])(N([H])C(=O)C([H])(N([H])C([H])([H])[H])C([H])([H])[H])C(C([H])([H])[H])(C([H])([H])[H])C([H])([H])[H])C([H])(C(=O)N([H])C2([H])c4c([H])c([H])c([H])c([H])c4C([H])([H])C([H])([H])C2([H])[H])C3([H])[H])c(F)c(N(C(=O)N2C([H])([H])C([H])([H])C([H])([H])C([H])(n3nc(-c4c([H])c([H])c(Oc5c([H])c([H])c(F)c([H])c5F)c([H])c4[H])c(C(=O)N([H])[H])c3N([H])[H])C2([H])[H])C([H])([H])[H])c1[H]

$$$$
81:0:0
     RDKit          3D

 93102  0  0  1  0  0  0  0  0999 V2000
  -28.6280  -22.4990   19.1830 C   0  0  0  0  0  3  0  0  0  0  0  0
  -28.6490  -23.8920   19.3260 C   0  0  0  0  0  3  0  0  0  0  0  0
  -28.0590  -22.0100   17.8640 C   0  0  0  0  0  2  0  0  0  0  0  0
  -26.9530  -21.0470   18.3070 C   0  0  0  0  0  2  0  0  0  0  0  0
  -27.1180  -20.9970   19.8350 C   0  0  0  0  0  2  0  0  0  0  0  0
  -28.5140  -21.3760   20.0820 N   0  0  0  0  0  0  0  0  0  0  0  0
  -29.5820  -19.2500   18.9900 C   0  0  0  0  0  3  0  0  0  0  0  0
  -29.9730  -17.8590   19.0970 C   0  0  0  0  0  3  0  0  0  0  0  0
  -29.2090  -19.3250   21.3270 C   0  0  0  0  0  3  0  0  0  0  0  0
  -29.1560  -20.0490   20.1040 C   0  0  0  0  0  0  0  0  0  0  0  0
  -30.0030  -17.1360   20.3320 C   0  0  0  0  0  0  0  0  0  0  0  0
  -29.5960  -17.9520   21.4440 C   0  0  0  0  0  0  0  0  0  0  0  0
  -29.5220  -17.4300   22.6920 F   0  0  0  0  0  0  0  0  0  0  0  0
  -30.8230  -14.7430   19.5760 C   0  0  0  0  0  0  0  0  0  0  0  0
  -30.4290  -12.5330   18.4380 C   0  0  0  0  0  2  0  0  0  0  0  0
  -29.3160  -12.6510   17.3720 C   0  0  0  0  0  2  0  0  0  0  0  0
  -27.9230  -12.4640   18.0020 C   0  0  0  0  0  2  0  0  0  0  0  0
  -27.7480  -13.3040   19.2930 C   0  0  0  0  0  3  0  0  0  0  0  0
  -28.9520  -13.1370   20.2440 C   0  0  0  0  0  2  0  0  0  0  0  0
  -30.1650  -13.5280   19.5080 N   0  0  0  0  0  0  0  0  0  0  0  0
  -31.8130  -14.9390   18.8610 O   0  0  0  0  0  0  0  0  0  0  0  0
  -30.8400  -15.3010   21.8740 C   0  0  0  0  0  1  0  0  0  0  0  0
  -30.4190  -15.6930   20.5130 N   0  0  0  0  0  0  0  0  0  0  0  0
  -25.5360  -13.8990   20.4510 C   0  0  0  0  0  0  0  0  0  0  0  0
  -24.5110  -13.1260   20.9230 C   0  0  0  0  0  0  0  0  0  0  0  0
  -24.9020  -11.7690   20.6990 C   0  0  0  0  0  0  0  0  0  0  0  0
  -26.4860  -13.0140   19.9650 N   0  0  0  0  0  0  0  0  0  0  0  0
  -26.1220  -11.7230   20.1740 N   0  0  0  0  0  0  0  0  0  0  0  0
  -24.1630  -10.5170   20.8970 C   0  0  0  0  0  0  0  0  0  0  0  0
  -24.6270   -9.5150   21.7780 C   0  0  0  0  0  3  0  0  0  0  0  0
  -23.8860   -8.3290   21.9680 C   0  0  0  0  0  3  0  0  0  0  0  0
  -22.6680   -8.1340   21.2780 C   0  0  0  0  0  0  0  0  0  0  0  0
  -22.2210   -9.1250   20.3850 C   0  0  0  0  0  3  0  0  0  0  0  0
  -22.9620  -10.3020   20.1940 C   0  0  0  0  0  3  0  0  0  0  0  0
  -21.8950   -7.0030   21.3790 O   0  0  0  0  0  0  0  0  0  0  0  0
  -21.8070   -6.2940   22.5510 C   0  0  0  0  0  0  0  0  0  0  0  0
  -21.3670   -6.8920   23.7530 C   0  0  0  0  0  3  0  0  0  0  0  0
  -21.2220   -6.1100   24.9160 C   0  0  0  0  0  3  0  0  0  0  0  0
  -21.5090   -4.7330   24.8800 C   0  0  0  0  0  0  0  0  0  0  0  0
  -21.9400   -4.1350   23.6830 C   0  0  0  0  0  3  0  0  0  0  0  0
  -22.0860   -4.9130   22.5220 C   0  0  0  0  0  0  0  0  0  0  0  0
  -22.4820   -4.3270   21.3660 F   0  0  0  0  0  0  0  0  0  0  0  0
  -21.3630   -3.9810   25.9960 F   0  0  0  0  0  0  0  0  0  0  0  0
  -23.1990  -13.6170   21.4610 C   0  0  0  0  0  0  0  0  0  0  0  0
  -22.6100  -12.8910   22.4050 N   0  0  0  0  0  0  0  0  0  0  0  0
  -22.7100  -14.6780   21.0770 O   0  0  0  0  0  0  0  0  0  0  0  0
  -23.0210  -12.0320   22.7390 H   0  0  0  0  0  0  0  0  0  0  0  0
  -21.7350  -13.2030   22.8010 H   0  0  0  0  0  0  0  0  0  0  0  0
  -25.7350  -15.2740   20.3740 N   0  0  0  0  0  0  0  0  0  0  0  0
  -25.0430  -15.9410   20.6960 H   0  0  0  0  0  0  0  0  0  0  0  0
  -26.5560  -15.7150   19.9780 H   0  0  0  0  0  0  0  0  0  0  0  0
  -28.5870  -24.9630   20.4850 C   0  0  0  0  0  3  0  0  0  0  0  0
  -28.6840  -26.4270   20.1160 O   0  0  0  0  0  0  0  0  0  0  0  0
  -24.5800  -31.6670   23.0330 C   0  0  0  0  0  0  0  0  0  0  0  0
  -27.5310  -27.2400   20.0590 C   0  0  0  0  0  0  0  0  0  0  0  0
  -23.5110  -30.2190   21.3440 C   0  0  0  0  0  3  0  0  0  0  0  0
  -25.0910  -28.7510   19.9600 C   0  0  0  0  0  0  0  0  0  0  0  0
  -26.0360  -30.6700   21.2460 C   0  0  0  0  0  2  0  0  0  0  0  0
  -26.2140  -29.2980   20.5960 C   0  0  0  0  0  0  0  0  0  0  0  0
  -27.4380  -28.5560   20.6280 C   0  0  0  0  0  3  0  0  0  0  0  0
  -26.3850  -26.7540   19.3970 C   0  0  0  0  0  3  0  0  0  0  0  0
  -25.1820  -27.4890   19.3480 C   0  0  0  0  0  3  0  0  0  0  0  0
  -23.8080  -29.5630   19.9690 C   0  0  0  0  0  2  0  0  0  0  0  0
  -24.7260  -30.8710   21.9320 N   0  0  0  0  0  0  0  0  0  0  0  0
  -23.4660  -31.8820   23.5300 O   0  0  0  0  0  0  0  0  0  0  0  0
  -22.8720  -29.1620   22.2770 C   0  0  0  0  0  0  0  0  0  0  0  0
  -21.5550  -28.9460   22.1370 N   0  0  0  0  0  0  0  0  0  0  0  0
  -23.5640  -28.5400   23.0890 O   0  0  0  0  0  0  0  0  0  0  0  0
  -21.0540  -29.5030   21.4590 H   0  0  0  0  0  0  0  0  0  0  0  0
  -18.2080  -27.6540   22.6090 C   0  0  0  0  0  0  0  0  0  0  0  0
  -20.7620  -27.9600   22.8750 C   0  0  0  0  0  3  0  0  0  0  0  0
  -20.8910  -26.5550   22.2440 C   0  0  0  0  0  2  0  0  0  0  0  0
  -19.7900  -26.2470   21.2260 C   0  0  0  0  0  2  0  0  0  0  0  0
  -18.4090  -26.3370   21.8800 C   0  0  0  0  0  2  0  0  0  0  0  0
  -19.3120  -28.4230   23.0620 C   0  0  0  0  0  0  0  0  0  0  0  0
  -19.0690  -29.6580   23.7030 C   0  0  0  0  0  3  0  0  0  0  0  0
  -17.7560  -30.1230   23.8950 C   0  0  0  0  0  3  0  0  0  0  0  0
  -16.6660  -29.3510   23.4580 C   0  0  0  0  0  3  0  0  0  0  0  0
  -16.8930  -28.1170   22.8210 C   0  0  0  0  0  3  0  0  0  0  0  0
  -25.8040  -32.3660   23.7050 C   0  0  0  0  0  3  0  0  0  0  0  0
  -25.3920  -33.7260   24.0780 N   0  0  0  0  0  0  0  0  0  0  0  0
  -25.6510  -34.8260   23.3580 C   0  0  0  0  0  0  0  0  0  0  0  0
  -26.3320  -34.8070   22.3300 O   0  0  0  0  0  0  0  0  0  0  0  0
  -24.7850  -33.8120   24.8800 H   0  0  0  0  0  0  0  0  0  0  0  0
  -23.8030  -36.5060   23.0470 C   0  0  0  0  0  1  0  0  0  0  0  0
  -25.0630  -36.1600   23.8590 C   0  0  0  0  0  3  0  0  0  0  0  0
  -27.1190  -37.1650   24.7480 C   0  0  0  0  0  1  0  0  0  0  0  0
  -26.0190  -37.2860   23.7950 N   0  0  0  0  0  0  0  0  0  0  0  0
  -25.5470  -38.1700   23.9680 H   0  0  0  0  0  0  0  0  0  0  0  0
  -26.3490  -31.5870   24.9660 C   0  0  1  0  0  0  0  0  0  0  0  0
  -25.2540  -31.2360   25.9990 C   0  0  0  0  0  1  0  0  0  0  0  0
  -27.0360  -30.2690   24.5390 C   0  0  0  0  0  1  0  0  0  0  0  0
  -27.4260  -32.4370   25.6800 C   0  0  0  0  0  1  0  0  0  0  0  0
  1  2  1  0
  1  6  1  0
  2 52  2  0
  3  4  1  0
  3  1  1  0
  4  5  1  0
  5  6  1  0
  6 10  1  0
  7  8  2  0
  7 10  1  0
  8 11  1  0
  9 12  1  0
 10  9  2  0
 11 23  1  0
 11 12  2  0
 12 13  1  0
 14 23  1  0
 15 20  1  0
 16 17  1  0
 16 15  1  0
 18 17  1  0
 18 27  1  0
 18 19  1  0
 20 14  1  0
 20 19  1  0
 21 14  2  0
 23 22  1  0
 24 25  2  0
 25 44  1  0
 26 29  1  0
 26 25  1  0
 27 28  1  0
 27 24  1  0
 28 26  2  0
 29 30  1  0
 30 31  2  0
 32 35  1  0
 32 31  1  0
 33 32  2  0
 34 33  1  0
 34 29  2  0
 35 36  1  0
 36 37  1  0
 37 38  2  0
 39 38  1  0
 39 43  1  0
 40 39  2  0
 41 36  2  0
 41 40  1  0
 42 41  1  0
 44 45  1  0
 45 47  1  0
 45 48  1  0
 46 44  2  0
 49 24  1  0
 49 50  1  0
 51 49  1  0
 53 52  1  0
 54 65  2  0
 55 53  1  0
 55 60  1  0
 56 64  1  0
 56 66  1  0
 57 63  1  0
 57 59  1  0
 58 64  1  0
 59 60  2  0
 59 58  1  0
 61 55  2  0
 62 61  1  0
 62 57  2  0
 63 56  1  0
 64 54  1  0
 66 68  2  0
 67 66  1  0
 69 67  1  0
 70 79  2  0
 70 75  1  0
 71 67  1  0
 71 75  1  0
 72 71  1  0
 73 74  1  0
 73 72  1  0
 74 70  1  0
 75 76  2  0
 76 77  1  0
 78 77  2  0
 79 78  1  0
 80 54  1  0
 80 81  1  0
 80 90  1  0
 81 84  1  0
 82 86  1  0
 82 81  1  0
 83 82  2  0
 86 85  1  0
 88 86  1  0
 88 89  1  0
 88 87  1  0
 90 93  1  1
 90 91  1  0
 92 90  1  0
M  ISO  4  14 100  23 100  52 101  53 101
M  END
>  <TORSDO>  (82) 
F 18

>  <SCORE>  (82) 
-11.822

>  <name>  (82) 
81

>  <ligand_id>  (82) 
81

>  <original_smiles>  (82) 
[H]C(=C1N(c2c([H])c([H])c(N(C(=O)N3C([H])([H])C([H])([H])C([H])([H])C([H])(n4nc(-c5c([H])c([H])c(Oc6c([H])c([H])c(F)c([H])c6F)c([H])c5[H])c(C(=O)N([H])[H])c4N([H])[H])C3([H])[H])C([H])([H])[H])c(F)c2[H])C([H])([H])C([H])([H])C1([H])[H])C([H])([H])Oc1c([H])c([H])c2c(c1[H])C([H])([H])N(C(=O)C([H])(N([H])C(=O)C([H])(N([H])C([H])([H])[H])C([H])([H])[H])C(C([H])([H])[H])(C([H])([H])[H])C([H])([H])[H])C([H])(C(=O)N([H])C1([H])c3c([H])c([H])c([H])c([H])c3C([H])([H])C([H])([H])C1([H])[H])C2([H])[H]

>  <smiles>  (82) 
[H]C(=C1N(c2c([H])c([H])c(N(C(=O)N3C([H])([H])C([H])([H])C([H])([H])C([H])(n4nc(-c5c([H])c([H])c(Oc6c([H])c([H])c(F)c([H])c6F)c([H])c5[H])c(C(=O)N([H])[H])c4N([H])[H])C3([H])[H])C([H])([H])[H])c(F)c2[H])C([H])([H])C([H])([H])C1([H])[H])C([H])([H])Oc1c([H])c([H])c2c(c1[H])C([H])([H])N(C(=O)C([H])(N([H])C(=O)C([H])(N([H])C([H])([H])[H])C([H])([H])[H])C(C([H])([H])[H])(C([H])([H])[H])C([H])([H])[H])C([H])(C(=O)N([H])C1([H])c3c([H])c([H])c([H])c([H])c3C([H])([H])C([H])([H])C1([H])[H])C2([H])[H]

$$$$
82:0:0
     RDKit          3D

 92100  0  0  1  0  0  0  0  0999 V2000
  -30.6840  -20.6380   21.3560 C   0  0  0  0  0  3  0  0  0  0  0  0
  -31.0970  -18.1790   21.3390 C   0  0  0  0  0  3  0  0  0  0  0  0
  -29.5150  -20.5650   20.5650 C   0  0  0  0  0  0  0  0  0  0  0  0
  -29.9800  -17.8940   20.5260 C   0  0  0  0  0  0  0  0  0  0  0  0
  -31.4340  -19.4960   21.7320 C   0  0  0  0  0  0  0  0  0  0  0  0
  -29.1990  -19.1470   20.1700 C   0  0  0  0  0  0  0  0  0  0  0  0
  -32.5330  -19.6790   22.5010 F   0  0  0  0  0  0  0  0  0  0  0  0
  -28.0860  -19.0020   19.4150 F   0  0  0  0  0  0  0  0  0  0  0  0
  -30.4690  -15.1550   20.3280 C   0  0  0  0  0  0  0  0  0  0  0  0
  -30.3730  -12.7430   19.4680 C   0  0  0  0  0  2  0  0  0  0  0  0
  -29.4530  -12.5800   18.2350 C   0  0  0  0  0  2  0  0  0  0  0  0
  -27.9820  -12.3840   18.6590 C   0  0  0  0  0  2  0  0  0  0  0  0
  -27.5480  -13.3280   19.8100 C   0  0  0  0  0  3  0  0  0  0  0  0
  -28.6070  -13.4490   20.9270 C   0  0  0  0  0  2  0  0  0  0  0  0
  -29.8550  -13.8870   20.2810 N   0  0  0  0  0  0  0  0  0  0  0  0
  -31.7020  -15.1370   20.2440 O   0  0  0  0  0  0  0  0  0  0  0  0
  -28.8960  -16.3530   18.9000 C   0  0  0  0  0  1  0  0  0  0  0  0
  -29.7420  -16.4020   20.0960 N   0  0  0  0  0  0  0  0  0  0  0  0
  -25.1740  -13.9140   20.5400 C   0  0  0  0  0  0  0  0  0  0  0  0
  -24.1040  -13.1400   20.8940 C   0  0  0  0  0  0  0  0  0  0  0  0
  -24.5690  -11.7890   20.8710 C   0  0  0  0  0  0  0  0  0  0  0  0
  -26.2170  -13.0300   20.3130 N   0  0  0  0  0  0  0  0  0  0  0  0
  -25.8640  -11.7490   20.5820 N   0  0  0  0  0  0  0  0  0  0  0  0
  -23.8420  -10.5270   21.0520 C   0  0  0  0  0  0  0  0  0  0  0  0
  -24.2650   -9.5610   21.9900 C   0  0  0  0  0  3  0  0  0  0  0  0
  -23.5370   -8.3640   22.1610 C   0  0  0  0  0  3  0  0  0  0  0  0
  -22.3720   -8.1260   21.3940 C   0  0  0  0  0  0  0  0  0  0  0  0
  -21.9680   -9.0810   20.4450 C   0  0  0  0  0  3  0  0  0  0  0  0
  -22.6960  -10.2700   20.2720 C   0  0  0  0  0  3  0  0  0  0  0  0
  -21.6160   -6.9810   21.4750 O   0  0  0  0  0  0  0  0  0  0  0  0
  -21.5550   -6.2400   22.6270 C   0  0  0  0  0  0  0  0  0  0  0  0
  -21.1050   -6.7920   23.8460 C   0  0  0  0  0  3  0  0  0  0  0  0
  -20.9930   -5.9770   24.9890 C   0  0  0  0  0  3  0  0  0  0  0  0
  -21.3190   -4.6090   24.9150 C   0  0  0  0  0  0  0  0  0  0  0  0
  -21.7630   -4.0570   23.7000 C   0  0  0  0  0  3  0  0  0  0  0  0
  -21.8760   -4.8700   22.5590 C   0  0  0  0  0  0  0  0  0  0  0  0
  -22.2830   -4.3270   21.3870 F   0  0  0  0  0  0  0  0  0  0  0  0
  -21.2020   -3.8240   26.0110 F   0  0  0  0  0  0  0  0  0  0  0  0
  -22.7050  -13.6180   21.1390 C   0  0  0  0  0  0  0  0  0  0  0  0
  -21.9610  -12.9200   21.9920 N   0  0  0  0  0  0  0  0  0  0  0  0
  -22.2770  -14.6420   20.6090 O   0  0  0  0  0  0  0  0  0  0  0  0
  -22.3200  -12.0920   22.4400 H   0  0  0  0  0  0  0  0  0  0  0  0
  -21.0190  -13.2200   22.1990 H   0  0  0  0  0  0  0  0  0  0  0  0
  -25.3410  -15.2840   20.3650 N   0  0  0  0  0  0  0  0  0  0  0  0
  -24.5840  -15.9460   20.4990 H   0  0  0  0  0  0  0  0  0  0  0  0
  -26.2060  -15.7260   20.0830 H   0  0  0  0  0  0  0  0  0  0  0  0
  -28.9320  -23.3030   20.5040 C   0  0  0  0  0  0  0  0  0  0  0  0
  -28.7440  -21.8920   20.2280 N   0  0  0  0  0  0  0  0  0  0  0  0
  -29.9440  -23.6490   21.1140 O   0  0  0  0  0  0  0  0  0  0  0  0
  -27.9060  -21.7240   19.6860 H   0  0  0  0  0  0  0  0  0  0  0  0
  -27.9070  -24.5750   20.0810 C   0  0  0  0  0  2  0  0  0  0  0  0
  -28.1890  -26.1100   20.3770 O   0  0  0  0  0  0  0  0  0  0  0  0
  -24.6060  -31.9490   23.2720 C   0  0  0  0  0  0  0  0  0  0  0  0
  -27.1610  -27.1430   20.2870 C   0  0  0  0  0  0  0  0  0  0  0  0
  -23.4110  -30.5480   21.6360 C   0  0  0  0  0  3  0  0  0  0  0  0
  -24.8560  -28.9460   20.2310 C   0  0  0  0  0  0  0  0  0  0  0  0
  -25.9730  -30.7760   21.4930 C   0  0  0  0  0  2  0  0  0  0  0  0
  -26.0390  -29.3750   20.8460 C   0  0  0  0  0  0  0  0  0  0  0  0
  -27.1910  -28.4900   20.8530 C   0  0  0  0  0  3  0  0  0  0  0  0
  -25.9510  -26.8330   19.6270 C   0  0  0  0  0  3  0  0  0  0  0  0
  -24.8280  -27.6930   19.6020 C   0  0  0  0  0  3  0  0  0  0  0  0
  -23.6390  -29.8600   20.2650 C   0  0  0  0  0  2  0  0  0  0  0  0
  -24.6840  -31.1150   22.1890 N   0  0  0  0  0  0  0  0  0  0  0  0
  -23.5150  -32.2500   23.7840 O   0  0  0  0  0  0  0  0  0  0  0  0
  -22.7120  -29.5570   22.6010 C   0  0  0  0  0  0  0  0  0  0  0  0
  -21.3830  -29.3980   22.4630 N   0  0  0  0  0  0  0  0  0  0  0  0
  -23.3680  -28.9330   23.4390 O   0  0  0  0  0  0  0  0  0  0  0  0
  -20.9120  -29.9510   21.7610 H   0  0  0  0  0  0  0  0  0  0  0  0
  -17.9840  -28.2310   22.9500 C   0  0  0  0  0  0  0  0  0  0  0  0
  -20.5430  -28.4730   23.2320 C   0  0  0  0  0  3  0  0  0  0  0  0
  -20.6370  -27.0370   22.6680 C   0  0  0  0  0  2  0  0  0  0  0  0
  -19.5390  -26.7170   21.6470 C   0  0  0  0  0  2  0  0  0  0  0  0
  -18.1540  -26.8780   22.2800 C   0  0  0  0  0  2  0  0  0  0  0  0
  -19.1060  -28.9880   23.3820 C   0  0  0  0  0  0  0  0  0  0  0  0
  -18.8930  -30.2530   23.9700 C   0  0  0  0  0  3  0  0  0  0  0  0
  -17.5910  -30.7640   24.1280 C   0  0  0  0  0  3  0  0  0  0  0  0
  -16.4830  -30.0050   23.7110 C   0  0  0  0  0  3  0  0  0  0  0  0
  -16.6810  -28.7400   23.1300 C   0  0  0  0  0  3  0  0  0  0  0  0
  -25.8800  -32.5810   23.9100 C   0  0  0  0  0  3  0  0  0  0  0  0
  -25.5740  -33.9880   24.2260 N   0  0  0  0  0  0  0  0  0  0  0  0
  -25.9100  -35.0350   23.4610 C   0  0  0  0  0  0  0  0  0  0  0  0
  -26.5740  -34.9180   22.4270 O   0  0  0  0  0  0  0  0  0  0  0  0
  -24.9840  -34.1520   25.0280 H   0  0  0  0  0  0  0  0  0  0  0  0
  -24.1830  -36.8360   23.1170 C   0  0  0  0  0  1  0  0  0  0  0  0
  -25.4360  -36.4320   23.9110 C   0  0  0  0  0  3  0  0  0  0  0  0
  -27.5860  -37.3180   24.7020 C   0  0  0  0  0  1  0  0  0  0  0  0
  -26.4720  -37.4790   23.7710 N   0  0  0  0  0  0  0  0  0  0  0  0
  -26.0740  -38.4030   23.9070 H   0  0  0  0  0  0  0  0  0  0  0  0
  -26.3670  -31.8240   25.2070 C   0  0  1  0  0  0  0  0  0  0  0  0
  -25.2520  -31.6140   26.2590 C   0  0  0  0  0  1  0  0  0  0  0  0
  -26.9420  -30.4340   24.8510 C   0  0  0  0  0  1  0  0  0  0  0  0
  -27.5150  -32.6160   25.8780 C   0  0  0  0  0  1  0  0  0  0  0  0
  1  5  1  0
  2  5  2  0
  3  1  2  0
  4  2  1  0
  5  7  1  0
  6  4  2  0
  6  3  1  0
  8  6  1  0
 10 15  1  0
 11 12  1  0
 11 10  1  0
 13 12  1  0
 13 22  1  0
 13 14  1  0
 15  9  1  0
 15 14  1  0
 16  9  2  0
 17 18  1  0
 18  9  1  0
 18  4  1  0
 19 20  2  0
 20 39  1  0
 21 20  1  0
 21 24  1  0
 22 19  1  0
 22 23  1  0
 23 21  2  0
 24 25  1  0
 25 26  2  0
 27 30  1  0
 27 26  1  0
 28 27  2  0
 29 28  1  0
 29 24  2  0
 30 31  1  0
 31 32  1  0
 32 33  2  0
 34 33  1  0
 34 38  1  0
 35 34  2  0
 36 31  2  0
 36 35  1  0
 37 36  1  0
 39 40  1  0
 40 43  1  0
 40 42  1  0
 41 39  2  0
 44 45  1  0
 44 19  1  0
 46 44  1  0
 47 49  2  0
 48 47  1  0
 48  3  1  0
 50 48  1  0
 51 52  1  0
 51 47  1  0
 53 64  2  0
 54 52  1  0
 54 59  1  0
 55 63  1  0
 55 65  1  0
 56 62  1  0
 56 58  1  0
 57 63  1  0
 58 59  2  0
 58 57  1  0
 60 54  2  0
 61 60  1  0
 61 56  2  0
 62 55  1  0
 63 53  1  0
 65 67  2  0
 66 65  1  0
 68 66  1  0
 69 78  2  0
 69 74  1  0
 70 66  1  0
 70 74  1  0
 71 70  1  0
 72 73  1  0
 72 71  1  0
 73 69  1  0
 74 75  2  0
 75 76  1  0
 77 76  2  0
 78 77  1  0
 79 53  1  0
 79 80  1  0
 79 89  1  0
 80 83  1  0
 81 85  1  0
 81 80  1  0
 82 81  2  0
 85 84  1  0
 87 88  1  0
 87 85  1  0
 87 86  1  0
 89 92  1  1
 89 90  1  0
 91 89  1  0
M  ISO  4   9 100  18 100  51 101  52 101
M  END
>  <TORSDO>  (83) 
F 18

>  <SCORE>  (83) 
-14.874

>  <name>  (83) 
82

>  <ligand_id>  (83) 
82

>  <original_smiles>  (83) 
[H]c1c([H])c([H])c2c(c1[H])C([H])([H])C([H])([H])C([H])([H])C2([H])N([H])C(=O)C1([H])N(C(=O)C([H])(N([H])C(=O)C([H])(N([H])C([H])([H])[H])C([H])([H])[H])C(C([H])([H])[H])(C([H])([H])[H])C([H])([H])[H])C([H])([H])c2c([H])c(OC([H])([H])C(=O)N([H])c3c([H])c(F)c([H])c(N(C(=O)N4C([H])([H])C([H])([H])C([H])([H])C([H])(n5nc(-c6c([H])c([H])c(Oc7c([H])c([H])c(F)c([H])c7F)c([H])c6[H])c(C(=O)N([H])[H])c5N([H])[H])C4([H])[H])C([H])([H])[H])c3F)c([H])c([H])c2C1([H])[H]

>  <smiles>  (83) 
[H]c1c([H])c([H])c2c(c1[H])C([H])([H])C([H])([H])C([H])([H])C2([H])N([H])C(=O)C1([H])N(C(=O)C([H])(N([H])C(=O)C([H])(N([H])C([H])([H])[H])C([H])([H])[H])C(C([H])([H])[H])(C([H])([H])[H])C([H])([H])[H])C([H])([H])c2c([H])c(OC([H])([H])C(=O)N([H])c3c([H])c(F)c([H])c(N(C(=O)N4C([H])([H])C([H])([H])C([H])([H])C([H])(n5nc(-c6c([H])c([H])c(Oc7c([H])c([H])c(F)c([H])c7F)c([H])c6[H])c(C(=O)N([H])[H])c5N([H])[H])C4([H])[H])C([H])([H])[H])c3F)c([H])c([H])c2C1([H])[H]

$$$$
83:0:0
     RDKit          3D

 95104  0  0  1  0  0  0  0  0999 V2000
  -26.0260  -23.6380   21.0050 C   0  0  0  0  0  2  0  0  0  0  0  0
  -27.1340  -24.3910   21.7270 C   0  0  0  0  0  2  0  0  0  0  0  0
  -26.7580  -22.6120   20.1250 C   0  0  0  0  0  2  0  0  0  0  0  0
  -28.3540  -24.1850   20.8230 C   0  0  0  0  0  3  0  0  0  0  0  0
  -28.2270  -22.7340   20.3400 N   0  0  1  0  0  4  0  0  0  0  0  0
  -28.7370  -22.6490   19.4720 H   0  0  0  0  0  0  0  0  0  0  0  0
  -28.7650  -21.6320   21.2600 C   0  0  0  0  0  2  0  0  0  0  0  0
  -30.2770  -19.5250   21.4860 C   0  0  0  0  0  3  0  0  0  0  0  0
  -30.6090  -18.1370   21.3920 C   0  0  0  0  0  3  0  0  0  0  0  0
  -29.1590  -20.1280   20.8300 C   0  0  0  0  0  0  0  0  0  0  0  0
  -28.4270  -19.2080   19.9970 C   0  0  0  0  0  0  0  0  0  0  0  0
  -29.8500  -17.2350   20.6080 C   0  0  0  0  0  0  0  0  0  0  0  0
  -28.7640  -17.8130   19.9110 C   0  0  0  0  0  0  0  0  0  0  0  0
  -27.2010  -19.6280   19.2040 C   0  0  0  0  0  1  0  0  0  0  0  0
  -27.9760  -16.9780   19.1860 F   0  0  0  0  0  0  0  0  0  0  0  0
  -30.7250  -14.8370   20.0750 C   0  0  0  0  0  0  0  0  0  0  0  0
  -30.5320  -12.6180   18.9340 C   0  0  0  0  0  2  0  0  0  0  0  0
  -29.5100  -12.7200   17.7740 C   0  0  0  0  0  2  0  0  0  0  0  0
  -28.0680  -12.5280   18.2830 C   0  0  0  0  0  2  0  0  0  0  0  0
  -27.7730  -13.3830   19.5390 C   0  0  0  0  0  3  0  0  0  0  0  0
  -28.8790  -13.1990   20.5990 C   0  0  0  0  0  2  0  0  0  0  0  0
  -30.1510  -13.5950   19.9770 N   0  0  0  0  0  0  0  0  0  0  0  0
  -31.8230  -15.0770   19.5590 O   0  0  0  0  0  0  0  0  0  0  0  0
  -29.9630  -15.7770   20.7190 N   0  0  0  0  0  0  0  0  0  0  0  0
  -29.1320  -15.3510   21.0990 H   0  0  0  0  0  0  0  0  0  0  0  0
  -25.4340  -13.9880   20.4090 C   0  0  0  0  0  0  0  0  0  0  0  0
  -24.3840  -13.2160   20.8180 C   0  0  0  0  0  0  0  0  0  0  0  0
  -24.8280  -11.8590   20.7180 C   0  0  0  0  0  0  0  0  0  0  0  0
  -26.4520  -13.1040   20.0850 N   0  0  0  0  0  0  0  0  0  0  0  0
  -26.0970  -11.8180   20.3310 N   0  0  0  0  0  0  0  0  0  0  0  0
  -24.1060  -10.5940   20.9120 C   0  0  0  0  0  0  0  0  0  0  0  0
  -24.5360   -9.6390   21.8620 C   0  0  0  0  0  3  0  0  0  0  0  0
  -23.8160   -8.4390   22.0430 C   0  0  0  0  0  3  0  0  0  0  0  0
  -22.6540   -8.1860   21.2730 C   0  0  0  0  0  0  0  0  0  0  0  0
  -22.2450   -9.1300   20.3150 C   0  0  0  0  0  3  0  0  0  0  0  0
  -22.9650  -10.3210   20.1310 C   0  0  0  0  0  3  0  0  0  0  0  0
  -21.9050   -7.0390   21.3650 O   0  0  0  0  0  0  0  0  0  0  0  0
  -21.7690   -6.3600   22.5500 C   0  0  0  0  0  0  0  0  0  0  0  0
  -21.2370   -6.9730   23.7060 C   0  0  0  0  0  3  0  0  0  0  0  0
  -21.0500   -6.2170   24.8810 C   0  0  0  0  0  3  0  0  0  0  0  0
  -21.3860   -4.8510   24.9000 C   0  0  0  0  0  0  0  0  0  0  0  0
  -21.9130   -4.2370   23.7500 C   0  0  0  0  0  3  0  0  0  0  0  0
  -22.1010   -4.9900   22.5770 C   0  0  0  0  0  0  0  0  0  0  0  0
  -22.5870   -4.3880   21.4650 F   0  0  0  0  0  0  0  0  0  0  0  0
  -21.2000   -4.1240   26.0270 F   0  0  0  0  0  0  0  0  0  0  0  0
  -23.0070  -13.6870   21.1880 C   0  0  0  0  0  0  0  0  0  0  0  0
  -22.3270  -12.9650   22.0700 N   0  0  0  0  0  0  0  0  0  0  0  0
  -22.5470  -14.7350   20.7310 O   0  0  0  0  0  0  0  0  0  0  0  0
  -22.7150  -12.1190   22.4600 H   0  0  0  0  0  0  0  0  0  0  0  0
  -21.4050  -13.2580   22.3640 H   0  0  0  0  0  0  0  0  0  0  0  0
  -25.6110  -15.3620   20.2660 N   0  0  0  0  0  0  0  0  0  0  0  0
  -24.8780  -16.0320   20.4630 H   0  0  0  0  0  0  0  0  0  0  0  0
  -26.4450  -15.7900   19.8790 H   0  0  0  0  0  0  0  0  0  0  0  0
  -28.3440  -25.2700   19.6520 C   0  0  0  0  0  2  0  0  0  0  0  0
  -28.3140  -26.7090   19.9800 O   0  0  0  0  0  0  0  0  0  0  0  0
  -24.5950  -31.9310   23.1550 C   0  0  0  0  0  0  0  0  0  0  0  0
  -27.1530  -27.4880   19.9310 C   0  0  0  0  0  0  0  0  0  0  0  0
  -23.3500  -30.5600   21.5170 C   0  0  0  0  0  3  0  0  0  0  0  0
  -24.7690  -29.0660   19.9970 C   0  0  0  0  0  0  0  0  0  0  0  0
  -25.8720  -30.9110   21.2660 C   0  0  0  0  0  2  0  0  0  0  0  0
  -25.9400  -29.5510   20.5890 C   0  0  0  0  0  0  0  0  0  0  0  0
  -27.1270  -28.7710   20.5550 C   0  0  0  0  0  3  0  0  0  0  0  0
  -25.9600  -27.0590   19.3000 C   0  0  0  0  0  3  0  0  0  0  0  0
  -24.7820  -27.8280   19.3390 C   0  0  0  0  0  3  0  0  0  0  0  0
  -23.5200  -29.9160   20.1140 C   0  0  0  0  0  2  0  0  0  0  0  0
  -24.6250  -31.1490   22.0370 N   0  0  0  0  0  0  0  0  0  0  0  0
  -23.5290  -32.1860   23.7320 O   0  0  0  0  0  0  0  0  0  0  0  0
  -22.7260  -29.5160   22.4720 C   0  0  0  0  0  0  0  0  0  0  0  0
  -21.4030  -29.3190   22.3630 N   0  0  0  0  0  0  0  0  0  0  0  0
  -23.4310  -28.8910   23.2690 O   0  0  0  0  0  0  0  0  0  0  0  0
  -20.9030  -29.8200   21.6410 H   0  0  0  0  0  0  0  0  0  0  0  0
  -18.0520  -28.0940   22.8880 C   0  0  0  0  0  0  0  0  0  0  0  0
  -20.6110  -28.3610   23.1290 C   0  0  0  0  0  3  0  0  0  0  0  0
  -20.7260  -26.9580   22.4960 C   0  0  0  0  0  2  0  0  0  0  0  0
  -19.6020  -26.6510   21.5060 C   0  0  0  0  0  2  0  0  0  0  0  0
  -18.2310  -26.7580   22.1860 C   0  0  0  0  0  2  0  0  0  0  0  0
  -19.1720  -28.8520   23.3200 C   0  0  0  0  0  0  0  0  0  0  0  0
  -18.9530  -30.0910   23.9530 C   0  0  0  0  0  3  0  0  0  0  0  0
  -17.6480  -30.5890   24.1420 C   0  0  0  0  0  3  0  0  0  0  0  0
  -16.5420  -29.8340   23.7110 C   0  0  0  0  0  3  0  0  0  0  0  0
  -16.7460  -28.5850   23.1020 C   0  0  0  0  0  3  0  0  0  0  0  0
  -25.8980  -32.5500   23.7560 C   0  0  0  0  0  3  0  0  0  0  0  0
  -26.4510  -31.7530   25.0000 C   0  0  1  0  0  0  0  0  0  0  0  0
  -25.3880  -31.4900   26.0910 C   0  0  0  0  0  1  0  0  0  0  0  0
  -27.0250  -30.3860   24.5610 C   0  0  0  0  0  1  0  0  0  0  0  0
  -27.6150  -32.5320   25.6530 C   0  0  0  0  0  1  0  0  0  0  0  0
  -25.5960  -33.9390   24.1270 N   0  0  0  0  0  0  0  0  0  0  0  0
  -25.9140  -35.0120   23.3890 C   0  0  0  0  0  0  0  0  0  0  0  0
  -26.5660  -34.9420   22.3420 O   0  0  0  0  0  0  0  0  0  0  0  0
  -25.0160  -34.0700   24.9430 H   0  0  0  0  0  0  0  0  0  0  0  0
  -24.1790  -36.8150   23.1100 C   0  0  0  0  0  1  0  0  0  0  0  0
  -25.4320  -36.3890   23.8900 C   0  0  0  0  0  3  0  0  0  0  0  0
  -27.5800  -37.2470   24.7200 C   0  0  0  0  0  1  0  0  0  0  0  0
  -26.4670  -37.4440   23.7940 N   0  0  0  0  0  0  0  0  0  0  0  0
  -26.0620  -38.3570   23.9750 H   0  0  0  0  0  0  0  0  0  0  0  0
  1  2  1  0
  3  5  1  0
  3  1  1  0
  4 54  1  0
  4  2  1  0
  5  4  1  0
  5  7  1  0
  5  6  1  6
  9  8  1  0
 10  7  1  0
 10  8  2  0
 11 10  1  0
 12 24  1  0
 12  9  2  0
 13 11  2  0
 13 12  1  0
 14 11  1  0
 15 13  1  0
 16 24  1  0
 17 22  1  0
 18 19  1  0
 18 17  1  0
 20 19  1  0
 20 29  1  0
 20 21  1  0
 22 16  1  0
 22 21  1  0
 23 16  2  0
 24 25  1  0
 26 27  2  0
 27 46  1  0
 28 27  1  0
 28 31  1  0
 29 30  1  0
 29 26  1  0
 30 28  2  0
 31 32  1  0
 32 33  2  0
 34 37  1  0
 34 33  1  0
 35 34  2  0
 36 35  1  0
 36 31  2  0
 37 38  1  0
 38 43  2  0
 38 39  1  0
 39 40  2  0
 40 41  1  0
 41 45  1  0
 42 41  2  0
 43 42  1  0
 44 43  1  0
 46 47  1  0
 47 50  1  0
 47 49  1  0
 48 46  2  0
 51 26  1  0
 51 52  1  0
 53 51  1  0
 54 55  1  0
 56 67  2  0
 57 55  1  0
 57 62  1  0
 58 66  1  0
 58 68  1  0
 59 65  1  0
 59 61  1  0
 60 66  1  0
 61 60  1  0
 62 61  2  0
 63 64  1  0
 63 57  2  0
 64 59  2  0
 65 58  1  0
 66 56  1  0
 68 70  2  0
 69 68  1  0
 71 69  1  0
 72 81  2  0
 72 77  1  0
 73 69  1  0
 73 77  1  0
 74 73  1  0
 75 76  1  0
 75 74  1  0
 76 72  1  0
 77 78  2  0
 78 79  1  0
 80 79  2  0
 81 80  1  0
 82 56  1  0
 82 87  1  0
 82 83  1  0
 83 86  1  1
 83 84  1  0
 85 83  1  0
 87 90  1  0
 88 92  1  0
 88 87  1  0
 89 88  2  0
 92 91  1  0
 94 92  1  0
 94 95  1  0
 94 93  1  0
M  ISO  4  16 100  24 100  54 101  55 101
M  END
>  <TORSDO>  (84) 
F 19

>  <SCORE>  (84) 
-14.360

>  <name>  (84) 
83

>  <ligand_id>  (84) 
83

>  <original_smiles>  (84) 
[H]c1c([H])c([H])c2c(c1[H])C([H])([H])C([H])([H])C([H])([H])C2([H])N([H])C(=O)C1([H])N(C(=O)C([H])(N([H])C(=O)C([H])(N([H])C([H])([H])[H])C([H])([H])[H])C(C([H])([H])[H])(C([H])([H])[H])C([H])([H])[H])C([H])([H])c2c([H])c(OC([H])([H])C3([H])C([H])([H])C([H])([H])C([H])([H])[N+]3([H])C([H])([H])c3c([H])c([H])c(N([H])C(=O)N4C([H])([H])C([H])([H])C([H])([H])C([H])(n5nc(-c6c([H])c([H])c(Oc7c([H])c([H])c(F)c([H])c7F)c([H])c6[H])c(C(=O)N([H])[H])c5N([H])[H])C4([H])[H])c(F)c3C([H])([H])[H])c([H])c([H])c2C1([H])[H]

>  <smiles>  (84) 
[H]c1c([H])c([H])c2c(c1[H])C([H])([H])C([H])([H])C([H])([H])C2([H])N([H])C(=O)C1([H])N(C(=O)C([H])(N([H])C(=O)C([H])(N([H])C([H])([H])[H])C([H])([H])[H])C(C([H])([H])[H])(C([H])([H])[H])C([H])([H])[H])C([H])([H])c2c([H])c(OC([H])([H])C3([H])C([H])([H])C([H])([H])C([H])([H])[N+]3([H])C([H])([H])c3c([H])c([H])c(N([H])C(=O)N4C([H])([H])C([H])([H])C([H])([H])C([H])(n5nc(-c6c([H])c([H])c(Oc7c([H])c([H])c(F)c([H])c7F)c([H])c6[H])c(C(=O)N([H])[H])c5N([H])[H])C4([H])[H])c(F)c3C([H])([H])[H])c([H])c([H])c2C1([H])[H]

$$$$
84:0:0
     RDKit          3D

 96106  0  0  1  0  0  0  0  0999 V2000
  -31.6880  -23.0350   21.4640 C   0  0  0  0  0  2  0  0  0  0  0  0
  -29.4770  -22.6080   22.6230 C   0  0  0  0  0  2  0  0  0  0  0  0
  -29.5370  -24.2670   20.6260 C   0  0  0  0  0  2  0  0  0  0  0  0
  -30.3520  -25.0820   22.3500 C   0  0  0  0  0  2  0  0  0  0  0  0
  -31.6130  -21.5580   21.0420 C   0  0  0  0  0  2  0  0  0  0  0  0
  -30.2770  -21.4120   23.1690 C   0  0  0  0  0  2  0  0  0  0  0  0
  -30.1780  -25.6250   20.9240 C   0  0  0  0  0  3  0  0  0  0  0  0
  -30.3050  -23.6360   21.8060 C   0  0  2  0  0  0  0  0  0  0  0  0
  -31.0240  -20.7400   22.1010 N   0  0  0  0  0  0  0  0  0  0  0  0
  -31.9440  -18.5450   21.5820 C   0  0  0  0  0  3  0  0  0  0  0  0
  -31.7870  -17.1710   21.3200 C   0  0  0  0  0  3  0  0  0  0  0  0
  -29.5350  -18.7970   21.7760 C   0  0  0  0  0  3  0  0  0  0  0  0
  -30.8250  -19.3740   21.8220 C   0  0  0  0  0  0  0  0  0  0  0  0
  -30.4920  -16.6030   21.2660 C   0  0  0  0  0  0  0  0  0  0  0  0
  -29.3730  -17.4260   21.5000 C   0  0  0  0  0  0  0  0  0  0  0  0
  -28.1280  -16.8880   21.4540 F   0  0  0  0  0  0  0  0  0  0  0  0
  -30.7530  -14.4170   20.0880 C   0  0  0  0  0  0  0  0  0  0  0  0
  -30.3670  -12.3520   18.7910 C   0  0  0  0  0  2  0  0  0  0  0  0
  -29.3290  -12.6110   17.6810 C   0  0  0  0  0  2  0  0  0  0  0  0
  -27.8930  -12.4350   18.2150 C   0  0  0  0  0  2  0  0  0  0  0  0
  -27.6510  -13.1960   19.5450 C   0  0  0  0  0  3  0  0  0  0  0  0
  -28.7870  -12.9030   20.5510 C   0  0  0  0  0  2  0  0  0  0  0  0
  -30.0700  -13.2550   19.9130 N   0  0  0  0  0  0  0  0  0  0  0  0
  -31.7540  -14.7090   19.4270 O   0  0  0  0  0  0  0  0  0  0  0  0
  -30.2320  -15.2290   21.0200 N   0  0  0  0  0  0  0  0  0  0  0  0
  -29.3940  -14.8780   21.4600 H   0  0  0  0  0  0  0  0  0  0  0  0
  -25.2790  -13.7340   20.3920 C   0  0  0  0  0  0  0  0  0  0  0  0
  -24.2610  -12.9300   20.8320 C   0  0  0  0  0  0  0  0  0  0  0  0
  -24.7620  -11.5940   20.7770 C   0  0  0  0  0  0  0  0  0  0  0  0
  -26.3370  -12.8850   20.1050 N   0  0  0  0  0  0  0  0  0  0  0  0
  -26.0310  -11.5930   20.3890 N   0  0  0  0  0  0  0  0  0  0  0  0
  -24.0910  -10.3100   21.0190 C   0  0  0  0  0  0  0  0  0  0  0  0
  -24.5510   -9.4100   22.0050 C   0  0  0  0  0  3  0  0  0  0  0  0
  -23.8770   -8.1900   22.2320 C   0  0  0  0  0  3  0  0  0  0  0  0
  -22.7300   -7.8620   21.4710 C   0  0  0  0  0  0  0  0  0  0  0  0
  -22.2900   -8.7510   20.4750 C   0  0  0  0  0  3  0  0  0  0  0  0
  -22.9640   -9.9620   20.2470 C   0  0  0  0  0  3  0  0  0  0  0  0
  -22.0280   -6.6890   21.6030 O   0  0  0  0  0  0  0  0  0  0  0  0
  -21.8890   -6.0650   22.8180 C   0  0  0  0  0  0  0  0  0  0  0  0
  -21.3060   -6.7170   23.9270 C   0  0  0  0  0  3  0  0  0  0  0  0
  -21.1190   -6.0160   25.1350 C   0  0  0  0  0  3  0  0  0  0  0  0
  -21.5060   -4.6660   25.2360 C   0  0  0  0  0  0  0  0  0  0  0  0
  -22.0810   -4.0150   24.1310 C   0  0  0  0  0  3  0  0  0  0  0  0
  -22.2690   -4.7120   22.9240 C   0  0  0  0  0  0  0  0  0  0  0  0
  -22.8050   -4.0730   21.8560 F   0  0  0  0  0  0  0  0  0  0  0  0
  -21.3180   -3.9910   26.3930 F   0  0  0  0  0  0  0  0  0  0  0  0
  -22.8690  -13.3650   21.1930 C   0  0  0  0  0  0  0  0  0  0  0  0
  -22.2310  -12.6610   22.1210 N   0  0  0  0  0  0  0  0  0  0  0  0
  -22.3580  -14.3630   20.6880 O   0  0  0  0  0  0  0  0  0  0  0  0
  -22.6590  -11.8540   22.5500 H   0  0  0  0  0  0  0  0  0  0  0  0
  -21.3020  -12.9350   22.4090 H   0  0  0  0  0  0  0  0  0  0  0  0
  -25.3880  -15.1080   20.2020 N   0  0  0  0  0  0  0  0  0  0  0  0
  -24.6230  -15.7460   20.3880 H   0  0  0  0  0  0  0  0  0  0  0  0
  -26.2260  -15.5780   19.8830 H   0  0  0  0  0  0  0  0  0  0  0  0
  -29.3840  -26.9080   20.7030 C   0  0  0  0  0  2  0  0  0  0  0  0
  -28.4080  -26.6900   19.6850 O   0  0  0  0  0  0  0  0  0  0  0  0
  -24.5330  -31.6430   23.0500 C   0  0  0  0  0  0  0  0  0  0  0  0
  -27.2460  -27.4190   19.7710 C   0  0  0  0  0  0  0  0  0  0  0  0
  -23.3260  -30.2630   21.3850 C   0  0  0  0  0  3  0  0  0  0  0  0
  -24.7900  -28.8160   19.8790 C   0  0  0  0  0  0  0  0  0  0  0  0
  -25.8260  -30.7150   21.1400 C   0  0  0  0  0  2  0  0  0  0  0  0
  -25.9390  -29.3690   20.4590 C   0  0  0  0  0  0  0  0  0  0  0  0
  -27.1650  -28.6820   20.4060 C   0  0  0  0  0  3  0  0  0  0  0  0
  -26.0840  -26.8770   19.1850 C   0  0  0  0  0  3  0  0  0  0  0  0
  -24.8560  -27.5660   19.2390 C   0  0  0  0  0  3  0  0  0  0  0  0
  -23.5210  -29.6300   19.9800 C   0  0  0  0  0  2  0  0  0  0  0  0
  -24.5820  -30.8840   21.9180 N   0  0  0  0  0  0  0  0  0  0  0  0
  -23.4590  -31.8680   23.6240 O   0  0  0  0  0  0  0  0  0  0  0  0
  -22.7290  -29.1940   22.3280 C   0  0  0  0  0  0  0  0  0  0  0  0
  -21.4130  -28.9600   22.2040 N   0  0  0  0  0  0  0  0  0  0  0  0
  -23.4450  -28.5790   23.1220 O   0  0  0  0  0  0  0  0  0  0  0  0
  -20.8980  -29.5130   21.5330 H   0  0  0  0  0  0  0  0  0  0  0  0
  -18.0960  -27.6110   22.6590 C   0  0  0  0  0  0  0  0  0  0  0  0
  -20.6370  -27.9720   22.9530 C   0  0  0  0  0  3  0  0  0  0  0  0
  -20.8060  -26.5590   22.3480 C   0  0  0  0  0  2  0  0  0  0  0  0
  -19.7230  -26.2070   21.3230 C   0  0  0  0  0  2  0  0  0  0  0  0
  -18.3330  -26.2820   21.9620 C   0  0  0  0  0  2  0  0  0  0  0  0
  -19.1780  -28.4110   23.1100 C   0  0  0  0  0  0  0  0  0  0  0  0
  -18.9030  -29.6530   23.7200 C   0  0  0  0  0  3  0  0  0  0  0  0
  -17.5780  -30.0970   23.8860 C   0  0  0  0  0  3  0  0  0  0  0  0
  -16.5100  -29.2910   23.4560 C   0  0  0  0  0  3  0  0  0  0  0  0
  -16.7690  -28.0510   22.8450 C   0  0  0  0  0  3  0  0  0  0  0  0
  -25.8190  -32.2810   23.6640 C   0  0  0  0  0  3  0  0  0  0  0  0
  -25.4840  -33.6580   24.0490 N   0  0  0  0  0  0  0  0  0  0  0  0
  -25.7850  -34.7440   23.3250 C   0  0  0  0  0  0  0  0  0  0  0  0
  -26.4440  -34.6940   22.2830 O   0  0  0  0  0  0  0  0  0  0  0  0
  -24.8960  -33.7690   24.8620 H   0  0  0  0  0  0  0  0  0  0  0  0
  -24.0100  -36.5010   23.0560 C   0  0  0  0  0  1  0  0  0  0  0  0
  -25.2710  -36.1020   23.8390 C   0  0  0  0  0  3  0  0  0  0  0  0
  -27.3910  -37.0110   24.6750 C   0  0  0  0  0  1  0  0  0  0  0  0
  -26.2750  -37.1830   23.7490 N   0  0  0  0  0  0  0  0  0  0  0  0
  -25.8510  -38.0880   23.9280 H   0  0  0  0  0  0  0  0  0  0  0  0
  -26.3870  -31.4760   24.8960 C   0  0  1  0  0  0  0  0  0  0  0  0
  -25.3280  -31.1760   25.9810 C   0  0  0  0  0  1  0  0  0  0  0  0
  -26.9930  -30.1310   24.4320 C   0  0  0  0  0  1  0  0  0  0  0  0
  -27.5350  -32.2740   25.5580 C   0  0  0  0  0  1  0  0  0  0  0  0
  8  1  1  6
  2  6  1  0
  3  7  1  0
  5  1  1  0
  5  9  1  0
  7 55  1  0
  7  4  1  0
  8  3  1  0
  8  4  1  0
  8  2  1  0
  9  6  1  0
 10 13  1  0
 11 10  2  0
 12 13  2  0
 13  9  1  0
 14 11  1  0
 14 15  2  0
 15 12  1  0
 16 15  1  0
 17 25  1  0
 18 23  1  0
 19 20  1  0
 19 18  1  0
 21 20  1  0
 21 30  1  0
 21 22  1  0
 23 17  1  0
 23 22  1  0
 24 17  2  0
 25 14  1  0
 25 26  1  0
 27 28  2  0
 28 47  1  0
 29 28  1  0
 29 32  1  0
 30 31  1  0
 30 27  1  0
 31 29  2  0
 32 33  1  0
 33 34  2  0
 35 38  1  0
 35 34  1  0
 36 35  2  0
 37 36  1  0
 37 32  2  0
 38 39  1  0
 39 44  2  0
 39 40  1  0
 40 41  2  0
 41 42  1  0
 42 46  1  0
 43 42  2  0
 44 43  1  0
 45 44  1  0
 47 48  1  0
 48 51  1  0
 48 50  1  0
 49 47  2  0
 52 53  1  0
 52 27  1  0
 54 52  1  0
 56 58  1  0
 56 55  1  0
 57 68  2  0
 58 63  1  0
 59 67  1  0
 59 69  1  0
 60 66  1  0
 60 62  1  0
 61 67  1  0
 62 61  1  0
 63 62  2  0
 64 65  1  0
 64 58  2  0
 65 60  2  0
 66 59  1  0
 67 57  1  0
 69 71  2  0
 70 69  1  0
 72 70  1  0
 73 82  2  0
 73 78  1  0
 74 70  1  0
 74 78  1  0
 75 74  1  0
 76 77  1  0
 76 75  1  0
 77 73  1  0
 78 79  2  0
 79 80  1  0
 81 80  2  0
 82 81  1  0
 83 57  1  0
 83 84  1  0
 83 93  1  0
 84 87  1  0
 85 89  1  0
 85 84  1  0
 86 85  2  0
 89 88  1  0
 91 89  1  0
 91 92  1  0
 91 90  1  0
 93 96  1  1
 93 94  1  0
 95 93  1  0
M  ISO  4  17 100  25 100  55 101  56 101
M  END
>  <TORSDO>  (85) 
F 18

>  <SCORE>  (85) 
-11.939

>  <name>  (85) 
84

>  <ligand_id>  (85) 
84

>  <original_smiles>  (85) 
[H]c1c([H])c([H])c2c(c1[H])C([H])([H])C([H])([H])C([H])([H])C2([H])N([H])C(=O)C1([H])N(C(=O)C([H])(N([H])C(=O)C([H])(N([H])C([H])([H])[H])C([H])([H])[H])C(C([H])([H])[H])(C([H])([H])[H])C([H])([H])[H])C([H])([H])c2c([H])c(OC([H])([H])C3([H])C([H])([H])C4(C([H])([H])C([H])([H])N(c5c([H])c([H])c(N([H])C(=O)N6C([H])([H])C([H])([H])C([H])([H])C([H])(n7nc(-c8c([H])c([H])c(Oc9c([H])c([H])c(F)c([H])c9F)c([H])c8[H])c(C(=O)N([H])[H])c7N([H])[H])C6([H])[H])c(F)c5[H])C([H])([H])C4([H])[H])C3([H])[H])c([H])c([H])c2C1([H])[H]

>  <smiles>  (85) 
[H]c1c([H])c([H])c2c(c1[H])C([H])([H])C([H])([H])C([H])([H])C2([H])N([H])C(=O)C1([H])N(C(=O)C([H])(N([H])C(=O)C([H])(N([H])C([H])([H])[H])C([H])([H])[H])C(C([H])([H])[H])(C([H])([H])[H])C([H])([H])[H])C([H])([H])c2c([H])c(OC([H])([H])C3([H])C([H])([H])C4(C([H])([H])C([H])([H])N(c5c([H])c([H])c(N([H])C(=O)N6C([H])([H])C([H])([H])C([H])([H])C([H])(n7nc(-c8c([H])c([H])c(Oc9c([H])c([H])c(F)c([H])c9F)c([H])c8[H])c(C(=O)N([H])[H])c7N([H])[H])C6([H])[H])c(F)c5[H])C([H])([H])C4([H])[H])C3([H])[H])c([H])c([H])c2C1([H])[H]

$$$$
85:0:0
     RDKit          3D

 94103  0  0  1  0  0  0  0  0999 V2000
  -28.9480  -22.4470   20.2640 C   0  0  0  0  0  0  0  0  0  0  0  0
  -26.8490  -22.2840   18.2620 C   0  0  0  0  0  2  0  0  0  0  0  0
  -27.1240  -23.6820   18.8170 C   0  0  0  0  0  2  0  0  0  0  0  0
  -28.1310  -21.4560   18.1740 C   0  0  0  0  0  2  0  0  0  0  0  0
  -27.9330  -23.6780   20.1300 C   0  0  0  0  0  3  0  0  0  0  0  0
  -28.8200  -21.3080   19.4750 N   0  0  0  0  0  0  0  0  0  0  0  0
  -29.8170  -22.5180   21.1370 O   0  0  0  0  0  0  0  0  0  0  0  0
  -29.4650  -19.4570   21.1190 C   0  0  0  0  0  3  0  0  0  0  0  0
  -29.7700  -18.0900   21.3930 C   0  0  0  0  0  3  0  0  0  0  0  0
  -29.6130  -18.9860   18.7670 C   0  0  0  0  0  3  0  0  0  0  0  0
  -29.3380  -19.9510   19.7900 C   0  0  0  0  0  0  0  0  0  0  0  0
  -29.9790  -17.1300   20.3680 C   0  0  0  0  0  0  0  0  0  0  0  0
  -29.9130  -17.6160   19.0350 C   0  0  0  0  0  0  0  0  0  0  0  0
  -30.0630  -16.7600   17.9940 F   0  0  0  0  0  0  0  0  0  0  0  0
  -30.7760  -14.6950   20.1280 C   0  0  0  0  0  0  0  0  0  0  0  0
  -30.5200  -12.4740   19.0520 C   0  0  0  0  0  2  0  0  0  0  0  0
  -29.5190  -12.6210   17.8830 C   0  0  0  0  0  2  0  0  0  0  0  0
  -28.0700  -12.4500   18.3740 C   0  0  0  0  0  2  0  0  0  0  0  0
  -27.7650  -13.2970   19.6350 C   0  0  0  0  0  3  0  0  0  0  0  0
  -28.8700  -13.1270   20.7010 C   0  0  0  0  0  2  0  0  0  0  0  0
  -30.1640  -13.4710   20.0830 N   0  0  0  0  0  0  0  0  0  0  0  0
  -31.8920  -14.8780   19.6280 O   0  0  0  0  0  0  0  0  0  0  0  0
  -30.0660  -15.7100   20.7000 N   0  0  0  0  0  0  0  0  0  0  0  0
  -29.3210  -15.3840   21.2950 H   0  0  0  0  0  0  0  0  0  0  0  0
  -25.4050  -13.8800   20.4760 C   0  0  0  0  0  0  0  0  0  0  0  0
  -24.3510  -13.1010   20.8710 C   0  0  0  0  0  0  0  0  0  0  0  0
  -24.8070  -11.7520   20.7790 C   0  0  0  0  0  0  0  0  0  0  0  0
  -26.4360  -13.0060   20.1700 N   0  0  0  0  0  0  0  0  0  0  0  0
  -26.0820  -11.7190   20.4110 N   0  0  0  0  0  0  0  0  0  0  0  0
  -24.0870  -10.4840   20.9660 C   0  0  0  0  0  0  0  0  0  0  0  0
  -24.5210   -9.5170   21.9010 C   0  0  0  0  0  3  0  0  0  0  0  0
  -23.7980   -8.3160   22.0740 C   0  0  0  0  0  3  0  0  0  0  0  0
  -22.6250   -8.0750   21.3200 C   0  0  0  0  0  0  0  0  0  0  0  0
  -22.2100   -9.0330   20.3780 C   0  0  0  0  0  3  0  0  0  0  0  0
  -22.9330  -10.2240   20.2020 C   0  0  0  0  0  3  0  0  0  0  0  0
  -21.8790   -6.9250   21.4030 O   0  0  0  0  0  0  0  0  0  0  0  0
  -21.7840   -6.2110   22.5720 C   0  0  0  0  0  0  0  0  0  0  0  0
  -21.2580   -6.7800   23.7520 C   0  0  0  0  0  3  0  0  0  0  0  0
  -21.1160   -5.9920   24.9130 C   0  0  0  0  0  3  0  0  0  0  0  0
  -21.4840   -4.6330   24.8890 C   0  0  0  0  0  0  0  0  0  0  0  0
  -21.9990   -4.0630   23.7130 C   0  0  0  0  0  3  0  0  0  0  0  0
  -22.1450   -4.8500   22.5560 C   0  0  0  0  0  0  0  0  0  0  0  0
  -22.6240   -4.2900   21.4190 F   0  0  0  0  0  0  0  0  0  0  0  0
  -21.3410   -3.8730   26.0000 F   0  0  0  0  0  0  0  0  0  0  0  0
  -22.9690  -13.5780   21.2150 C   0  0  0  0  0  0  0  0  0  0  0  0
  -22.2720  -12.8610   22.0900 N   0  0  0  0  0  0  0  0  0  0  0  0
  -22.5150  -14.6200   20.7470 O   0  0  0  0  0  0  0  0  0  0  0  0
  -22.6500  -12.0190   22.4990 H   0  0  0  0  0  0  0  0  0  0  0  0
  -21.3500  -13.1710   22.3630 H   0  0  0  0  0  0  0  0  0  0  0  0
  -25.5670  -15.2520   20.3310 N   0  0  0  0  0  0  0  0  0  0  0  0
  -24.8140  -15.9080   20.4930 H   0  0  0  0  0  0  0  0  0  0  0  0
  -26.4080  -15.6890   19.9730 H   0  0  0  0  0  0  0  0  0  0  0  0
  -28.2630  -25.1250   20.7990 C   0  0  0  0  0  2  0  0  0  0  0  0
  -28.3640  -26.4620   20.1350 O   0  0  0  0  0  0  0  0  0  0  0  0
  -24.6070  -31.8870   23.2150 C   0  0  0  0  0  0  0  0  0  0  0  0
  -27.2620  -27.3320   20.1700 C   0  0  0  0  0  0  0  0  0  0  0  0
  -23.4260  -30.4800   21.5660 C   0  0  0  0  0  3  0  0  0  0  0  0
  -24.9000  -28.9410   20.1550 C   0  0  0  0  0  0  0  0  0  0  0  0
  -25.9690  -30.8050   21.4130 C   0  0  0  0  0  2  0  0  0  0  0  0
  -26.0610  -29.4250   20.7720 C   0  0  0  0  0  0  0  0  0  0  0  0
  -27.2490  -28.6280   20.7790 C   0  0  0  0  0  3  0  0  0  0  0  0
  -26.0910  -26.9250   19.5080 C   0  0  0  0  0  3  0  0  0  0  0  0
  -24.9170  -27.6930   19.5150 C   0  0  0  0  0  3  0  0  0  0  0  0
  -23.6580  -29.8080   20.1880 C   0  0  0  0  0  2  0  0  0  0  0  0
  -24.6860  -31.0760   22.1190 N   0  0  0  0  0  0  0  0  0  0  0  0
  -23.5160  -32.1580   23.7390 O   0  0  0  0  0  0  0  0  0  0  0  0
  -22.7650  -29.4550   22.5180 C   0  0  0  0  0  0  0  0  0  0  0  0
  -21.4390  -29.2760   22.3910 N   0  0  0  0  0  0  0  0  0  0  0  0
  -23.4450  -28.8270   23.3330 O   0  0  0  0  0  0  0  0  0  0  0  0
  -20.9440  -29.8360   21.7110 H   0  0  0  0  0  0  0  0  0  0  0  0
  -18.0580  -28.1050   22.9150 C   0  0  0  0  0  0  0  0  0  0  0  0
  -20.6230  -28.3320   23.1560 C   0  0  0  0  0  3  0  0  0  0  0  0
  -20.7030  -26.9070   22.5580 C   0  0  0  0  0  2  0  0  0  0  0  0
  -19.5840  -26.6100   21.5520 C   0  0  0  0  0  2  0  0  0  0  0  0
  -18.2120  -26.7630   22.2150 C   0  0  0  0  0  2  0  0  0  0  0  0
  -19.1910  -28.8480   23.3430 C   0  0  0  0  0  0  0  0  0  0  0  0
  -18.9920  -30.1040   23.9560 C   0  0  0  0  0  3  0  0  0  0  0  0
  -17.6940  -30.6150   24.1500 C   0  0  0  0  0  3  0  0  0  0  0  0
  -16.5770  -29.8690   23.7360 C   0  0  0  0  0  3  0  0  0  0  0  0
  -16.7610  -28.6160   23.1250 C   0  0  0  0  0  3  0  0  0  0  0  0
  -25.8840  -32.5280   23.8440 C   0  0  0  0  0  3  0  0  0  0  0  0
  -25.5600  -33.9250   24.1710 N   0  0  0  0  0  0  0  0  0  0  0  0
  -25.8970  -34.9810   23.4210 C   0  0  0  0  0  0  0  0  0  0  0  0
  -26.5830  -34.8840   22.4000 O   0  0  0  0  0  0  0  0  0  0  0  0
  -24.9590  -34.0750   24.9670 H   0  0  0  0  0  0  0  0  0  0  0  0
  -24.1800  -36.7750   23.0240 C   0  0  0  0  0  1  0  0  0  0  0  0
  -25.3950  -36.3660   23.8720 C   0  0  0  0  0  3  0  0  0  0  0  0
  -27.4990  -37.2500   24.7810 C   0  0  0  0  0  1  0  0  0  0  0  0
  -26.4310  -37.4200   23.8000 N   0  0  0  0  0  0  0  0  0  0  0  0
  -26.0190  -38.3400   23.9310 H   0  0  0  0  0  0  0  0  0  0  0  0
  -26.3930  -31.7620   25.1260 C   0  0  1  0  0  0  0  0  0  0  0  0
  -25.2910  -31.5170   26.1820 C   0  0  0  0  0  1  0  0  0  0  0  0
  -26.9900  -30.3860   24.7450 C   0  0  0  0  0  1  0  0  0  0  0  0
  -27.5280  -32.5640   25.8000 C   0  0  0  0  0  1  0  0  0  0  0  0
  1  7  2  0
  2  3  1  0
  3  5  1  0
  4  2  1  0
  4  6  1  0
  5  1  1  0
  5 53  1  0
  6 11  1  0
  6  1  1  0
  8  9  1  0
 10 13  2  0
 10 11  1  0
 11  8  2  0
 12 23  1  0
 12  9  2  0
 13 12  1  0
 14 13  1  0
 15 23  1  0
 16 21  1  0
 17 18  1  0
 17 16  1  0
 19 18  1  0
 19 28  1  0
 19 20  1  0
 21 15  1  0
 21 20  1  0
 22 15  2  0
 23 24  1  0
 25 26  2  0
 26 45  1  0
 27 26  1  0
 27 30  1  0
 28 29  1  0
 28 25  1  0
 29 27  2  0
 30 31  1  0
 31 32  2  0
 33 36  1  0
 33 32  1  0
 34 33  2  0
 35 34  1  0
 35 30  2  0
 36 37  1  0
 37 38  1  0
 38 39  2  0
 40 39  1  0
 40 44  1  0
 41 40  2  0
 42 37  2  0
 42 41  1  0
 43 42  1  0
 45 46  1  0
 46 49  1  0
 46 48  1  0
 47 45  2  0
 50 25  1  0
 50 51  1  0
 52 50  1  0
 54 56  1  0
 54 53  1  0
 55 66  2  0
 56 61  1  0
 57 65  1  0
 57 67  1  0
 58 64  1  0
 58 60  1  0
 59 65  1  0
 60 61  2  0
 60 59  1  0
 62 63  1  0
 62 56  2  0
 63 58  2  0
 64 57  1  0
 65 55  1  0
 67 69  2  0
 68 67  1  0
 70 68  1  0
 71 80  2  0
 71 76  1  0
 72 68  1  0
 72 76  1  0
 73 72  1  0
 74 75  1  0
 74 73  1  0
 75 71  1  0
 76 77  2  0
 77 78  1  0
 79 78  2  0
 80 79  1  0
 81 55  1  0
 81 82  1  0
 81 91  1  0
 82 85  1  0
 83 87  1  0
 83 82  1  0
 84 83  2  0
 87 86  1  0
 89 87  1  0
 89 90  1  0
 89 88  1  0
 91 94  1  1
 91 92  1  0
 93 91  1  0
M  ISO  4  15 100  23 100  53 101  54 101
M  END
>  <TORSDO>  (86) 
F 18

>  <SCORE>  (86) 
-14.316

>  <name>  (86) 
85

>  <ligand_id>  (86) 
85

>  <original_smiles>  (86) 
[H]c1c([H])c([H])c2c(c1[H])C([H])([H])C([H])([H])C([H])([H])C2([H])N([H])C(=O)C1([H])N(C(=O)C([H])(N([H])C(=O)C([H])(N([H])C([H])([H])[H])C([H])([H])[H])C(C([H])([H])[H])(C([H])([H])[H])C([H])([H])[H])C([H])([H])c2c([H])c(OC([H])([H])C3([H])C(=O)N(c4c([H])c([H])c(N([H])C(=O)N5C([H])([H])C([H])([H])C([H])([H])C([H])(n6nc(-c7c([H])c([H])c(Oc8c([H])c([H])c(F)c([H])c8F)c([H])c7[H])c(C(=O)N([H])[H])c6N([H])[H])C5([H])[H])c(F)c4[H])C([H])([H])C([H])([H])C3([H])[H])c([H])c([H])c2C1([H])[H]

>  <smiles>  (86) 
[H]c1c([H])c([H])c2c(c1[H])C([H])([H])C([H])([H])C([H])([H])C2([H])N([H])C(=O)C1([H])N(C(=O)C([H])(N([H])C(=O)C([H])(N([H])C([H])([H])[H])C([H])([H])[H])C(C([H])([H])[H])(C([H])([H])[H])C([H])([H])[H])C([H])([H])c2c([H])c(OC([H])([H])C3([H])C(=O)N(c4c([H])c([H])c(N([H])C(=O)N5C([H])([H])C([H])([H])C([H])([H])C([H])(n6nc(-c7c([H])c([H])c(Oc8c([H])c([H])c(F)c([H])c8F)c([H])c7[H])c(C(=O)N([H])[H])c6N([H])[H])C5([H])[H])c(F)c4[H])C([H])([H])C([H])([H])C3([H])[H])c([H])c([H])c2C1([H])[H]

$$$$
86:0:0
     RDKit          3D

 94102  0  0  1  0  0  0  0  0999 V2000
  -30.0500  -22.0590   21.7990 C   0  0  0  0  0  1  0  0  0  0  0  0
  -28.9340  -22.0380   20.8260 N   0  0  1  0  0  4  0  0  0  0  0  0
  -29.3710  -22.1790   19.9260 H   0  0  0  0  0  0  0  0  0  0  0  0
  -28.2920  -20.6720   20.7130 C   0  0  0  0  0  2  0  0  0  0  0  0
  -30.9820  -17.5070   19.2500 C   0  0  0  0  0  3  0  0  0  0  0  0
  -31.0660  -18.8300   18.7720 C   0  0  0  0  0  3  0  0  0  0  0  0
  -29.1480  -18.1670   20.7100 C   0  0  0  0  0  3  0  0  0  0  0  0
  -29.2240  -19.5200   20.2280 C   0  0  0  0  0  0  0  0  0  0  0  0
  -30.0150  -17.1290   20.2180 C   0  0  0  0  0  0  0  0  0  0  0  0
  -30.1770  -19.8130   19.2290 C   0  0  0  0  0  0  0  0  0  0  0  0
  -30.2480  -21.0650   18.7150 F   0  0  0  0  0  0  0  0  0  0  0  0
  -30.6250  -14.6380   20.3590 C   0  0  0  0  0  0  0  0  0  0  0  0
  -30.3500  -12.4010   19.3260 C   0  0  0  0  0  2  0  0  0  0  0  0
  -29.4310  -12.5670   18.0980 C   0  0  0  0  0  2  0  0  0  0  0  0
  -27.9570  -12.4240   18.5220 C   0  0  0  0  0  2  0  0  0  0  0  0
  -27.6010  -13.2970   19.7540 C   0  0  0  0  0  3  0  0  0  0  0  0
  -28.6500  -13.1540   20.8800 C   0  0  0  0  0  2  0  0  0  0  0  0
  -29.9700  -13.4400   20.3040 N   0  0  0  0  0  0  0  0  0  0  0  0
  -31.8010  -14.7360   20.0050 O   0  0  0  0  0  0  0  0  0  0  0  0
  -29.8630  -15.7390   20.6530 N   0  0  0  0  0  0  0  0  0  0  0  0
  -28.9670  -15.5080   21.0570 H   0  0  0  0  0  0  0  0  0  0  0  0
  -25.2100  -13.8940   20.4620 C   0  0  0  0  0  0  0  0  0  0  0  0
  -24.1460  -13.1250   20.8350 C   0  0  0  0  0  0  0  0  0  0  0  0
  -24.6070  -11.7710   20.8100 C   0  0  0  0  0  0  0  0  0  0  0  0
  -26.2540  -13.0150   20.2360 N   0  0  0  0  0  0  0  0  0  0  0  0
  -25.8990  -11.7330   20.5080 N   0  0  0  0  0  0  0  0  0  0  0  0
  -23.8800  -10.5100   21.0020 C   0  0  0  0  0  0  0  0  0  0  0  0
  -24.3060   -9.5480   21.9460 C   0  0  0  0  0  3  0  0  0  0  0  0
  -23.5810   -8.3500   22.1270 C   0  0  0  0  0  3  0  0  0  0  0  0
  -22.4130   -8.1050   21.3660 C   0  0  0  0  0  0  0  0  0  0  0  0
  -22.0070   -9.0540   20.4100 C   0  0  0  0  0  3  0  0  0  0  0  0
  -22.7320  -10.2430   20.2280 C   0  0  0  0  0  3  0  0  0  0  0  0
  -21.6620   -6.9590   21.4560 O   0  0  0  0  0  0  0  0  0  0  0  0
  -21.6010   -6.2240   22.6140 C   0  0  0  0  0  0  0  0  0  0  0  0
  -21.1670   -6.7910   23.8310 C   0  0  0  0  0  3  0  0  0  0  0  0
  -21.0590   -5.9860   24.9830 C   0  0  0  0  0  3  0  0  0  0  0  0
  -21.3690   -4.6150   24.9150 C   0  0  0  0  0  0  0  0  0  0  0  0
  -21.7970   -4.0470   23.7020 C   0  0  0  0  0  3  0  0  0  0  0  0
  -21.9100   -4.8510   22.5530 C   0  0  0  0  0  0  0  0  0  0  0  0
  -22.3020   -4.2960   21.3820 F   0  0  0  0  0  0  0  0  0  0  0  0
  -21.2570   -3.8380   26.0190 F   0  0  0  0  0  0  0  0  0  0  0  0
  -22.7470  -13.5990   21.0990 C   0  0  0  0  0  0  0  0  0  0  0  0
  -22.0170  -12.9070   21.9630 N   0  0  0  0  0  0  0  0  0  0  0  0
  -22.3120  -14.6250   20.5730 O   0  0  0  0  0  0  0  0  0  0  0  0
  -22.3790  -12.0780   22.4110 H   0  0  0  0  0  0  0  0  0  0  0  0
  -21.0790  -13.2100   22.1800 H   0  0  0  0  0  0  0  0  0  0  0  0
  -25.3830  -15.2640   20.2700 N   0  0  0  0  0  0  0  0  0  0  0  0
  -24.6220  -15.9280   20.3500 H   0  0  0  0  0  0  0  0  0  0  0  0
  -26.2280  -15.6770   19.9050 H   0  0  0  0  0  0  0  0  0  0  0  0
  -27.9990  -23.1950   21.0690 C   0  0  0  0  0  2  0  0  0  0  0  0
  -27.4610  -23.4070   18.5460 C   0  0  0  0  0  1  0  0  0  0  0  0
  -27.6790  -24.1680   19.8720 C   0  0  0  0  0  3  0  0  0  0  0  0
  -28.5900  -25.4320   19.6060 C   0  0  0  0  0  2  0  0  0  0  0  0
  -28.4110  -26.6930   20.3070 O   0  0  0  0  0  0  0  0  0  0  0  0
  -24.6190  -31.9250   23.2660 C   0  0  0  0  0  0  0  0  0  0  0  0
  -27.2620  -27.4630   20.1810 C   0  0  0  0  0  0  0  0  0  0  0  0
  -23.4170  -30.5260   21.6200 C   0  0  0  0  0  3  0  0  0  0  0  0
  -24.8740  -29.0080   20.1740 C   0  0  0  0  0  0  0  0  0  0  0  0
  -25.9460  -30.8840   21.4310 C   0  0  0  0  0  2  0  0  0  0  0  0
  -26.0330  -29.5190   20.7700 C   0  0  0  0  0  0  0  0  0  0  0  0
  -27.2250  -28.7530   20.7750 C   0  0  0  0  0  3  0  0  0  0  0  0
  -26.0940  -27.0030   19.5310 C   0  0  0  0  0  3  0  0  0  0  0  0
  -24.9000  -27.7500   19.5530 C   0  0  0  0  0  3  0  0  0  0  0  0
  -23.6270  -29.8630   20.2340 C   0  0  0  0  0  2  0  0  0  0  0  0
  -24.6770  -31.1310   22.1580 N   0  0  0  0  0  0  0  0  0  0  0  0
  -23.5360  -32.1900   23.8060 O   0  0  0  0  0  0  0  0  0  0  0  0
  -22.7770  -29.4930   22.5760 C   0  0  0  0  0  0  0  0  0  0  0  0
  -21.4560  -29.2910   22.4440 N   0  0  0  0  0  0  0  0  0  0  0  0
  -23.4660  -28.8740   23.3930 O   0  0  0  0  0  0  0  0  0  0  0  0
  -20.9640  -29.8350   21.7500 H   0  0  0  0  0  0  0  0  0  0  0  0
  -18.0910  -28.0680   22.9360 C   0  0  0  0  0  0  0  0  0  0  0  0
  -20.6470  -28.3500   23.2150 C   0  0  0  0  0  3  0  0  0  0  0  0
  -20.7650  -26.9210   22.6430 C   0  0  0  0  0  2  0  0  0  0  0  0
  -19.6690  -26.5880   21.6250 C   0  0  0  0  0  2  0  0  0  0  0  0
  -18.2820  -26.7190   22.2600 C   0  0  0  0  0  2  0  0  0  0  0  0
  -19.2020  -28.8400   23.3690 C   0  0  0  0  0  0  0  0  0  0  0  0
  -18.9720  -30.1040   23.9530 C   0  0  0  0  0  3  0  0  0  0  0  0
  -17.6620  -30.5970   24.1090 C   0  0  0  0  0  3  0  0  0  0  0  0
  -16.5660  -29.8210   23.6930 C   0  0  0  0  0  3  0  0  0  0  0  0
  -16.7800  -28.5570   23.1160 C   0  0  0  0  0  3  0  0  0  0  0  0
  -25.9030  -32.5570   23.8850 C   0  0  0  0  0  3  0  0  0  0  0  0
  -25.5910  -33.9560   24.2050 N   0  0  0  0  0  0  0  0  0  0  0  0
  -25.9230  -35.0040   23.4390 C   0  0  0  0  0  0  0  0  0  0  0  0
  -26.5980  -34.8940   22.4100 O   0  0  0  0  0  0  0  0  0  0  0  0
  -24.9870  -34.1130   24.9990 H   0  0  0  0  0  0  0  0  0  0  0  0
  -24.1840  -36.7810   23.0720 C   0  0  0  0  0  1  0  0  0  0  0  0
  -25.4280  -36.3930   23.8860 C   0  0  0  0  0  3  0  0  0  0  0  0
  -27.5580  -37.2900   24.7060 C   0  0  0  0  0  1  0  0  0  0  0  0
  -26.4530  -37.4540   23.7650 N   0  0  0  0  0  0  0  0  0  0  0  0
  -26.0400  -38.3690   23.9200 H   0  0  0  0  0  0  0  0  0  0  0  0
  -26.4260  -31.7910   25.1640 C   0  0  1  0  0  0  0  0  0  0  0  0
  -25.3390  -31.5500   26.2390 C   0  0  0  0  0  1  0  0  0  0  0  0
  -27.0160  -30.4130   24.7790 C   0  0  0  0  0  1  0  0  0  0  0  0
  -27.5720  -32.5970   25.8200 C   0  0  0  0  0  1  0  0  0  0  0  0
  2 50  1  0
  2  1  1  0
  2  3  1  6
  4  2  1  0
  5  9  1  0
  6 10  1  0
  6  5  2  0
  8  7  1  0
  8  4  1  0
  9 20  1  0
  9  7  2  0
 10  8  2  0
 11 10  1  0
 12 20  1  0
 13 18  1  0
 14 15  1  0
 14 13  1  0
 16 15  1  0
 16 25  1  0
 16 17  1  0
 18 12  1  0
 18 17  1  0
 19 12  2  0
 20 21  1  0
 22 23  2  0
 23 42  1  0
 24 23  1  0
 24 27  1  0
 25 22  1  0
 25 26  1  0
 26 24  2  0
 27 28  1  0
 28 29  2  0
 30 33  1  0
 30 29  1  0
 31 30  2  0
 32 31  1  0
 32 27  2  0
 33 34  1  0
 34 35  1  0
 35 36  2  0
 37 36  1  0
 37 41  1  0
 38 37  2  0
 39 34  2  0
 39 38  1  0
 40 39  1  0
 42 43  1  0
 43 46  1  0
 43 45  1  0
 44 42  2  0
 47 48  1  0
 47 22  1  0
 49 47  1  0
 52 51  1  0
 52 50  1  0
 53 52  1  0
 53 54  1  0
 55 66  2  0
 56 54  1  0
 56 61  1  0
 57 65  1  0
 57 67  1  0
 58 64  1  0
 58 60  1  0
 59 65  1  0
 60 61  2  0
 60 59  1  0
 62 63  1  0
 62 56  2  0
 63 58  2  0
 64 57  1  0
 65 55  1  0
 67 69  2  0
 68 67  1  0
 70 68  1  0
 71 80  2  0
 71 76  1  0
 72 68  1  0
 72 76  1  0
 73 72  1  0
 74 75  1  0
 74 73  1  0
 75 71  1  0
 76 77  2  0
 77 78  1  0
 79 78  2  0
 80 79  1  0
 81 55  1  0
 81 82  1  0
 81 91  1  0
 82 85  1  0
 83 87  1  0
 83 82  1  0
 84 83  2  0
 87 86  1  0
 89 87  1  0
 89 90  1  0
 89 88  1  0
 91 94  1  1
 91 92  1  0
 93 91  1  0
M  ISO  4  12 100  20 100  53 101  54 101
M  END
>  <TORSDO>  (87) 
F 21

>  <SCORE>  (87) 
-13.735

>  <name>  (87) 
86

>  <ligand_id>  (87) 
86

>  <original_smiles>  (87) 
[H]c1c([H])c([H])c2c(c1[H])C([H])([H])C([H])([H])C([H])([H])C2([H])N([H])C(=O)C1([H])N(C(=O)C([H])(N([H])C(=O)C([H])(N([H])C([H])([H])[H])C([H])([H])[H])C(C([H])([H])[H])(C([H])([H])[H])C([H])([H])[H])C([H])([H])c2c([H])c(OC([H])([H])C([H])(C([H])([H])[H])C([H])([H])[N+]([H])(C([H])([H])[H])C([H])([H])c3c([H])c(N([H])C(=O)N4C([H])([H])C([H])([H])C([H])([H])C([H])(n5nc(-c6c([H])c([H])c(Oc7c([H])c([H])c(F)c([H])c7F)c([H])c6[H])c(C(=O)N([H])[H])c5N([H])[H])C4([H])[H])c([H])c([H])c3F)c([H])c([H])c2C1([H])[H]

>  <smiles>  (87) 
[H]c1c([H])c([H])c2c(c1[H])C([H])([H])C([H])([H])C([H])([H])C2([H])N([H])C(=O)C1([H])N(C(=O)C([H])(N([H])C(=O)C([H])(N([H])C([H])([H])[H])C([H])([H])[H])C(C([H])([H])[H])(C([H])([H])[H])C([H])([H])[H])C([H])([H])c2c([H])c(OC([H])([H])C([H])(C([H])([H])[H])C([H])([H])[N+]([H])(C([H])([H])[H])C([H])([H])c3c([H])c(N([H])C(=O)N4C([H])([H])C([H])([H])C([H])([H])C([H])(n5nc(-c6c([H])c([H])c(Oc7c([H])c([H])c(F)c([H])c7F)c([H])c6[H])c(C(=O)N([H])[H])c5N([H])[H])C4([H])[H])c([H])c([H])c3F)c([H])c([H])c2C1([H])[H]

$$$$
87:0:0
     RDKit          3D

 94103  0  0  1  0  0  0  0  0999 V2000
  -26.4120  -23.1570   21.0190 C   0  0  0  0  0  2  0  0  0  0  0  0
  -26.9470  -23.5070   19.6250 C   0  0  0  0  0  2  0  0  0  0  0  0
  -27.6610  -22.7250   21.8060 C   0  0  0  0  0  2  0  0  0  0  0  0
  -28.4020  -23.8890   19.9010 C   0  0  2  0  0  0  0  0  0  0  0  0
  -29.3060  -23.9100   18.6530 C   0  0  0  0  0  1  0  0  0  0  0  0
  -28.7870  -22.7930   20.8640 N   0  0  0  0  0  0  0  0  0  0  0  0
  -30.2890  -19.2990   21.2540 C   0  0  0  0  0  3  0  0  0  0  0  0
  -29.9320  -20.6650   21.4730 C   0  0  0  0  0  3  0  0  0  0  0  0
  -28.8050  -20.7190   19.3720 C   0  0  0  0  0  3  0  0  0  0  0  0
  -29.9100  -18.5910   20.0810 C   0  0  0  0  0  0  0  0  0  0  0  0
  -29.1800  -21.4350   20.5410 C   0  0  0  0  0  0  0  0  0  0  0  0
  -29.1610  -19.3600   19.1390 C   0  0  0  0  0  0  0  0  0  0  0  0
  -28.6830  -18.6910   17.6180 Cl  0  0  0  0  0  0  0  0  0  0  0  0
  -30.4760  -17.1550   19.7260 C   0  0  0  0  0  2  0  0  0  0  0  0
  -30.7490  -14.6970   20.0050 C   0  0  0  0  0  0  0  0  0  0  0  0
  -30.4140  -12.4670   18.9270 C   0  0  0  0  0  2  0  0  0  0  0  0
  -29.4130  -12.5570   17.7550 C   0  0  0  0  0  2  0  0  0  0  0  0
  -27.9710  -12.3800   18.2630 C   0  0  0  0  0  2  0  0  0  0  0  0
  -27.6630  -13.2580   19.5060 C   0  0  0  0  0  3  0  0  0  0  0  0
  -28.7770  -13.1480   20.5630 C   0  0  0  0  0  2  0  0  0  0  0  0
  -30.0530  -13.5100   19.9220 N   0  0  0  0  0  0  0  0  0  0  0  0
  -31.8490  -14.7820   19.4520 O   0  0  0  0  0  0  0  0  0  0  0  0
  -29.8350  -16.0400   21.8560 C   0  0  0  0  0  1  0  0  0  0  0  0
  -30.1240  -15.8580   20.4310 N   0  0  0  0  0  0  0  0  0  0  0  0
  -25.3520  -13.8250   20.4630 C   0  0  0  0  0  0  0  0  0  0  0  0
  -24.3080  -13.0410   20.8680 C   0  0  0  0  0  0  0  0  0  0  0  0
  -24.7460  -11.6890   20.7110 C   0  0  0  0  0  0  0  0  0  0  0  0
  -26.3560  -12.9540   20.0780 N   0  0  0  0  0  0  0  0  0  0  0  0
  -26.0050  -11.6590   20.2910 N   0  0  0  0  0  0  0  0  0  0  0  0
  -24.0210  -10.4240   20.8750 C   0  0  0  0  0  0  0  0  0  0  0  0
  -24.4640   -9.4230   21.7690 C   0  0  0  0  0  3  0  0  0  0  0  0
  -23.7330   -8.2250   21.9230 C   0  0  0  0  0  3  0  0  0  0  0  0
  -22.5460   -8.0170   21.1820 C   0  0  0  0  0  0  0  0  0  0  0  0
  -22.1230   -9.0050   20.2750 C   0  0  0  0  0  3  0  0  0  0  0  0
  -22.8530  -10.1950   20.1200 C   0  0  0  0  0  3  0  0  0  0  0  0
  -21.7910   -6.8700   21.2440 O   0  0  0  0  0  0  0  0  0  0  0  0
  -21.7030   -6.1280   22.3950 C   0  0  0  0  0  0  0  0  0  0  0  0
  -21.2300   -6.6820   23.6040 C   0  0  0  0  0  3  0  0  0  0  0  0
  -21.0840   -5.8650   24.7430 C   0  0  0  0  0  3  0  0  0  0  0  0
  -21.4070   -4.4970   24.6740 C   0  0  0  0  0  0  0  0  0  0  0  0
  -21.8730   -3.9420   23.4690 C   0  0  0  0  0  3  0  0  0  0  0  0
  -22.0160   -4.7550   22.3310 C   0  0  0  0  0  0  0  0  0  0  0  0
  -22.4450   -4.2120   21.1670 F   0  0  0  0  0  0  0  0  0  0  0  0
  -21.2620   -3.7100   25.7670 F   0  0  0  0  0  0  0  0  0  0  0  0
  -22.9450  -13.5120   21.2840 C   0  0  0  0  0  0  0  0  0  0  0  0
  -22.2840  -12.7770   22.1700 N   0  0  0  0  0  0  0  0  0  0  0  0
  -22.4790  -14.5680   20.8600 O   0  0  0  0  0  0  0  0  0  0  0  0
  -22.6790  -11.9240   22.5370 H   0  0  0  0  0  0  0  0  0  0  0  0
  -21.3720  -13.0740   22.4880 H   0  0  0  0  0  0  0  0  0  0  0  0
  -25.5250  -15.2020   20.3710 N   0  0  0  0  0  0  0  0  0  0  0  0
  -24.7890  -15.8550   20.6190 H   0  0  0  0  0  0  0  0  0  0  0  0
  -26.3570  -15.6550   20.0180 H   0  0  0  0  0  0  0  0  0  0  0  0
  -28.4290  -25.3840   20.5250 C   0  0  0  0  0  2  0  0  0  0  0  0
  -28.3020  -26.5830   19.6650 O   0  0  0  0  0  0  0  0  0  0  0  0
  -24.6820  -31.8320   23.0610 C   0  0  0  0  0  0  0  0  0  0  0  0
  -27.1720  -27.4010   19.7680 C   0  0  0  0  0  0  0  0  0  0  0  0
  -23.4070  -30.4860   21.4350 C   0  0  0  0  0  3  0  0  0  0  0  0
  -24.7960  -28.9840   19.9130 C   0  0  0  0  0  0  0  0  0  0  0  0
  -25.9330  -30.8260   21.1440 C   0  0  0  0  0  2  0  0  0  0  0  0
  -25.9910  -29.4660   20.4650 C   0  0  0  0  0  0  0  0  0  0  0  0
  -27.1820  -28.6870   20.3860 C   0  0  0  0  0  3  0  0  0  0  0  0
  -25.9650  -26.9950   19.1600 C   0  0  0  0  0  3  0  0  0  0  0  0
  -24.7820  -27.7460   19.2570 C   0  0  0  0  0  3  0  0  0  0  0  0
  -23.5610  -29.8510   20.0300 C   0  0  0  0  0  2  0  0  0  0  0  0
  -24.6960  -31.0610   21.9370 N   0  0  0  0  0  0  0  0  0  0  0  0
  -23.6230  -32.0870   23.6520 O   0  0  0  0  0  0  0  0  0  0  0  0
  -22.7930  -29.4360   22.3930 C   0  0  0  0  0  0  0  0  0  0  0  0
  -21.4620  -29.2620   22.3220 N   0  0  0  0  0  0  0  0  0  0  0  0
  -23.5060  -28.7830   23.1560 O   0  0  0  0  0  0  0  0  0  0  0  0
  -20.9410  -29.8440   21.6800 H   0  0  0  0  0  0  0  0  0  0  0  0
  -18.1190  -28.0090   22.8900 C   0  0  0  0  0  0  0  0  0  0  0  0
  -20.6820  -28.2910   23.0920 C   0  0  0  0  0  3  0  0  0  0  0  0
  -20.7840  -26.8780   22.4760 C   0  0  0  0  0  2  0  0  0  0  0  0
  -19.6570  -26.5710   21.4840 C   0  0  0  0  0  2  0  0  0  0  0  0
  -18.2890  -26.6810   22.1680 C   0  0  0  0  0  2  0  0  0  0  0  0
  -19.2400  -28.7710   23.3080 C   0  0  0  0  0  0  0  0  0  0  0  0
  -19.0250  -30.0180   23.9390 C   0  0  0  0  0  3  0  0  0  0  0  0
  -17.7190  -30.5030   24.1450 C   0  0  0  0  0  3  0  0  0  0  0  0
  -16.6140  -29.7370   23.7410 C   0  0  0  0  0  3  0  0  0  0  0  0
  -16.8140  -28.4890   23.1260 C   0  0  0  0  0  3  0  0  0  0  0  0
  -25.9930  -32.4450   23.6450 C   0  0  0  0  0  3  0  0  0  0  0  0
  -26.5810  -31.6130   24.8490 C   0  0  1  0  0  0  0  0  0  0  0  0
  -25.5490  -31.3130   25.9590 C   0  0  0  0  0  1  0  0  0  0  0  0
  -27.1510  -30.2630   24.3560 C   0  0  0  0  0  1  0  0  0  0  0  0
  -27.7640  -32.3800   25.4840 C   0  0  0  0  0  1  0  0  0  0  0  0
  -25.6880  -33.8190   24.0630 N   0  0  0  0  0  0  0  0  0  0  0  0
  -25.9720  -34.9120   23.3420 C   0  0  0  0  0  0  0  0  0  0  0  0
  -26.5890  -34.8700   22.2750 O   0  0  0  0  0  0  0  0  0  0  0  0
  -25.1330  -33.9240   24.8990 H   0  0  0  0  0  0  0  0  0  0  0  0
  -24.2210  -36.7080   23.1580 C   0  0  0  0  0  1  0  0  0  0  0  0
  -25.4970  -36.2690   23.8940 C   0  0  0  0  0  3  0  0  0  0  0  0
  -27.6580  -37.1230   24.6860 C   0  0  0  0  0  1  0  0  0  0  0  0
  -26.5200  -37.3340   23.7960 N   0  0  0  0  0  0  0  0  0  0  0  0
  -26.1160  -38.2440   24.0080 H   0  0  0  0  0  0  0  0  0  0  0  0
  1  3  1  0
  2  4  1  0
  2  1  1  0
  4  5  1  6
  4 53  1  0
  4  6  1  0
  6  3  1  0
  7  8  1  0
  9 11  1  0
 10  7  2  0
 11  6  1  0
 11  8  2  0
 12  9  2  0
 12 10  1  0
 13 12  1  0
 14 10  1  0
 14 24  1  0
 15 24  1  0
 16 21  1  0
 17 18  1  0
 17 16  1  0
 19 18  1  0
 19 28  1  0
 19 20  1  0
 21 15  1  0
 21 20  1  0
 22 15  2  0
 24 23  1  0
 25 26  2  0
 26 45  1  0
 27 26  1  0
 27 30  1  0
 28 29  1  0
 28 25  1  0
 29 27  2  0
 30 31  1  0
 31 32  2  0
 33 36  1  0
 33 32  1  0
 34 33  2  0
 35 34  1  0
 35 30  2  0
 36 37  1  0
 37 38  1  0
 38 39  2  0
 40 39  1  0
 40 44  1  0
 41 40  2  0
 42 37  2  0
 42 41  1  0
 43 42  1  0
 45 46  1  0
 46 49  1  0
 46 48  1  0
 47 45  2  0
 50 25  1  0
 50 51  1  0
 52 50  1  0
 54 56  1  0
 54 53  1  0
 55 66  2  0
 56 61  1  0
 57 65  1  0
 57 67  1  0
 58 64  1  0
 58 60  1  0
 59 65  1  0
 60 59  1  0
 61 60  2  0
 62 63  1  0
 62 56  2  0
 63 58  2  0
 64 57  1  0
 65 55  1  0
 67 69  2  0
 68 67  1  0
 70 68  1  0
 71 80  2  0
 71 76  1  0
 72 68  1  0
 72 76  1  0
 73 72  1  0
 74 75  1  0
 74 73  1  0
 75 71  1  0
 76 77  2  0
 77 78  1  0
 79 78  2  0
 80 79  1  0
 81 55  1  0
 81 86  1  0
 81 82  1  0
 82 85  1  1
 82 83  1  0
 84 82  1  0
 86 89  1  0
 87 91  1  0
 87 86  1  0
 88 87  2  0
 91 90  1  0
 93 91  1  0
 93 94  1  0
 93 92  1  0
M  ISO  4  15 100  24 100  53 101  54 101
M  END
>  <TORSDO>  (88) 
F 19

>  <SCORE>  (88) 
-13.708

>  <name>  (88) 
87

>  <ligand_id>  (88) 
87

>  <original_smiles>  (88) 
[H]c1c([H])c([H])c2c(c1[H])C([H])([H])C([H])([H])C([H])([H])C2([H])N([H])C(=O)C1([H])N(C(=O)C([H])(N([H])C(=O)C([H])(N([H])C([H])([H])[H])C([H])([H])[H])C(C([H])([H])[H])(C([H])([H])[H])C([H])([H])[H])C([H])([H])c2c([H])c(OC([H])([H])C3(C([H])([H])[H])N(c4c([H])c([H])c(C([H])([H])N(C(=O)N5C([H])([H])C([H])([H])C([H])([H])C([H])(n6nc(-c7c([H])c([H])c(Oc8c([H])c([H])c(F)c([H])c8F)c([H])c7[H])c(C(=O)N([H])[H])c6N([H])[H])C5([H])[H])C([H])([H])[H])c(Cl)c4[H])C([H])([H])C([H])([H])C3([H])[H])c([H])c([H])c2C1([H])[H]

>  <smiles>  (88) 
[H]c1c([H])c([H])c2c(c1[H])C([H])([H])C([H])([H])C([H])([H])C2([H])N([H])C(=O)C1([H])N(C(=O)C([H])(N([H])C(=O)C([H])(N([H])C([H])([H])[H])C([H])([H])[H])C(C([H])([H])[H])(C([H])([H])[H])C([H])([H])[H])C([H])([H])c2c([H])c(OC([H])([H])C3(C([H])([H])[H])N(c4c([H])c([H])c(C([H])([H])N(C(=O)N5C([H])([H])C([H])([H])C([H])([H])C([H])(n6nc(-c7c([H])c([H])c(Oc8c([H])c([H])c(F)c([H])c8F)c([H])c7[H])c(C(=O)N([H])[H])c6N([H])[H])C5([H])[H])C([H])([H])[H])c(Cl)c4[H])C([H])([H])C([H])([H])C3([H])[H])c([H])c([H])c2C1([H])[H]

$$$$
88:0:0
     RDKit          3D

 89 97  0  0  1  0  0  0  0  0999 V2000
  -29.0910  -19.0300   20.3740 C   0  0  0  0  0  3  0  0  0  0  0  0
  -30.8510  -20.6770   20.5690 C   0  0  0  0  0  3  0  0  0  0  0  0
  -31.3650  -18.2440   20.6120 C   0  0  0  0  0  3  0  0  0  0  0  0
  -29.4620  -20.4910   20.4170 C   0  0  0  0  0  0  0  0  0  0  0  0
  -30.0170  -17.8450   20.4650 C   0  0  0  0  0  0  0  0  0  0  0  0
  -31.7640  -19.6020   20.6650 C   0  0  0  0  0  0  0  0  0  0  0  0
  -33.0800  -19.8850   20.8170 F   0  0  0  0  0  0  0  0  0  0  0  0
  -30.4830  -15.1060   20.3150 C   0  0  0  0  0  0  0  0  0  0  0  0
  -30.3700  -12.7470   19.3530 C   0  0  0  0  0  2  0  0  0  0  0  0
  -29.4170  -12.6760   18.1370 C   0  0  0  0  0  2  0  0  0  0  0  0
  -27.9670  -12.4360   18.5970 C   0  0  0  0  0  2  0  0  0  0  0  0
  -27.5650  -13.3520   19.7810 C   0  0  0  0  0  3  0  0  0  0  0  0
  -28.6400  -13.3940   20.8870 C   0  0  0  0  0  2  0  0  0  0  0  0
  -29.8870  -13.8400   20.2520 N   0  0  0  0  0  0  0  0  0  0  0  0
  -31.6890  -15.1400   20.0450 O   0  0  0  0  0  0  0  0  0  0  0  0
  -29.7060  -16.3150   20.4510 N   0  0  0  0  0  0  0  0  0  0  0  0
  -28.7240  -16.1070   20.5470 H   0  0  0  0  0  0  0  0  0  0  0  0
  -25.1970  -13.8950   20.5770 C   0  0  0  0  0  0  0  0  0  0  0  0
  -24.1470  -13.1050   20.9540 C   0  0  0  0  0  0  0  0  0  0  0  0
  -24.6230  -11.7590   20.8950 C   0  0  0  0  0  0  0  0  0  0  0  0
  -26.2430  -13.0310   20.3040 N   0  0  0  0  0  0  0  0  0  0  0  0
  -25.9090  -11.7390   20.5640 N   0  0  0  0  0  0  0  0  0  0  0  0
  -23.9100  -10.4880   21.0770 C   0  0  0  0  0  0  0  0  0  0  0  0
  -24.3570   -9.5130   21.9980 C   0  0  0  0  0  3  0  0  0  0  0  0
  -23.6400   -8.3100   22.1700 C   0  0  0  0  0  3  0  0  0  0  0  0
  -22.4630   -8.0710   21.4210 C   0  0  0  0  0  0  0  0  0  0  0  0
  -22.0360   -9.0330   20.4900 C   0  0  0  0  0  3  0  0  0  0  0  0
  -22.7530  -10.2280   20.3160 C   0  0  0  0  0  3  0  0  0  0  0  0
  -21.7190   -6.9190   21.5030 O   0  0  0  0  0  0  0  0  0  0  0  0
  -21.6710   -6.1720   22.6530 C   0  0  0  0  0  0  0  0  0  0  0  0
  -21.2020   -6.7090   23.8710 C   0  0  0  0  0  3  0  0  0  0  0  0
  -21.1050   -5.8870   25.0110 C   0  0  0  0  0  3  0  0  0  0  0  0
  -21.4680   -4.5290   24.9340 C   0  0  0  0  0  0  0  0  0  0  0  0
  -21.9290   -3.9910   23.7200 C   0  0  0  0  0  3  0  0  0  0  0  0
  -22.0270   -4.8110   22.5820 C   0  0  0  0  0  0  0  0  0  0  0  0
  -22.4530   -4.2820   21.4080 F   0  0  0  0  0  0  0  0  0  0  0  0
  -21.3670   -3.7370   26.0270 F   0  0  0  0  0  0  0  0  0  0  0  0
  -22.7500  -13.5660   21.2490 C   0  0  0  0  0  0  0  0  0  0  0  0
  -22.0420  -12.8560   22.1200 N   0  0  0  0  0  0  0  0  0  0  0  0
  -22.2960  -14.5930   20.7440 O   0  0  0  0  0  0  0  0  0  0  0  0
  -22.4220  -12.0270   22.5500 H   0  0  0  0  0  0  0  0  0  0  0  0
  -21.1060  -13.1490   22.3620 H   0  0  0  0  0  0  0  0  0  0  0  0
  -25.3440  -15.2690   20.4150 N   0  0  0  0  0  0  0  0  0  0  0  0
  -24.5680  -15.9100   20.5430 H   0  0  0  0  0  0  0  0  0  0  0  0
  -26.1670  -15.7190   20.0380 H   0  0  0  0  0  0  0  0  0  0  0  0
  -28.5710  -21.8490   20.3100 C   0  0  0  0  0  3  0  0  0  0  0  0
  -28.8320  -23.2640   20.3400 C   0  0  0  0  0  3  0  0  0  0  0  0
  -27.8400  -24.5960   20.1580 C   0  0  0  0  0  2  0  0  0  0  0  0
  -28.1890  -26.1250   20.3590 O   0  0  0  0  0  0  0  0  0  0  0  0
  -24.6210  -31.9460   23.2860 C   0  0  0  0  0  0  0  0  0  0  0  0
  -27.1690  -27.1620   20.2810 C   0  0  0  0  0  0  0  0  0  0  0  0
  -23.4230  -30.5570   21.6430 C   0  0  0  0  0  3  0  0  0  0  0  0
  -24.8660  -28.9650   20.2290 C   0  0  0  0  0  0  0  0  0  0  0  0
  -25.9840  -30.7860   21.5000 C   0  0  0  0  0  2  0  0  0  0  0  0
  -26.0490  -29.3900   20.8480 C   0  0  0  0  0  0  0  0  0  0  0  0
  -27.2010  -28.5060   20.8540 C   0  0  0  0  0  3  0  0  0  0  0  0
  -25.9580  -26.8580   19.6190 C   0  0  0  0  0  3  0  0  0  0  0  0
  -24.8380  -27.7150   19.5980 C   0  0  0  0  0  3  0  0  0  0  0  0
  -23.6500  -29.8780   20.2670 C   0  0  0  0  0  2  0  0  0  0  0  0
  -24.6970  -31.1200   22.1980 N   0  0  0  0  0  0  0  0  0  0  0  0
  -23.5330  -32.2410   23.8050 O   0  0  0  0  0  0  0  0  0  0  0  0
  -22.7260  -29.5580   22.6030 C   0  0  0  0  0  0  0  0  0  0  0  0
  -21.3980  -29.3950   22.4650 N   0  0  0  0  0  0  0  0  0  0  0  0
  -23.3860  -28.9330   23.4370 O   0  0  0  0  0  0  0  0  0  0  0  0
  -20.9230  -29.9510   21.7690 H   0  0  0  0  0  0  0  0  0  0  0  0
  -18.0020  -28.2220   22.9540 C   0  0  0  0  0  0  0  0  0  0  0  0
  -20.5630  -28.4650   23.2320 C   0  0  0  0  0  3  0  0  0  0  0  0
  -20.6540  -27.0320   22.6590 C   0  0  0  0  0  2  0  0  0  0  0  0
  -19.5540  -26.7170   21.6400 C   0  0  0  0  0  2  0  0  0  0  0  0
  -18.1720  -26.8730   22.2770 C   0  0  0  0  0  2  0  0  0  0  0  0
  -19.1250  -28.9780   23.3880 C   0  0  0  0  0  0  0  0  0  0  0  0
  -18.9110  -30.2400   23.9820 C   0  0  0  0  0  3  0  0  0  0  0  0
  -17.6090  -30.7490   24.1460 C   0  0  0  0  0  3  0  0  0  0  0  0
  -16.5010  -29.9920   23.7270 C   0  0  0  0  0  3  0  0  0  0  0  0
  -16.6980  -28.7310   23.1370 C   0  0  0  0  0  3  0  0  0  0  0  0
  -25.8970  -32.5750   23.9220 C   0  0  0  0  0  3  0  0  0  0  0  0
  -25.5970  -33.9790   24.2420 N   0  0  0  0  0  0  0  0  0  0  0  0
  -25.9190  -35.0260   23.4710 C   0  0  0  0  0  0  0  0  0  0  0  0
  -26.5670  -34.9120   22.4270 O   0  0  0  0  0  0  0  0  0  0  0  0
  -25.0200  -34.1430   25.0540 H   0  0  0  0  0  0  0  0  0  0  0  0
  -24.1820  -36.8210   23.1520 C   0  0  0  0  0  1  0  0  0  0  0  0
  -25.4480  -36.4220   23.9280 C   0  0  0  0  0  3  0  0  0  0  0  0
  -27.6070  -37.3170   24.6800 C   0  0  0  0  0  1  0  0  0  0  0  0
  -26.4750  -37.4750   23.7710 N   0  0  0  0  0  0  0  0  0  0  0  0
  -26.0720  -38.3950   23.9260 H   0  0  0  0  0  0  0  0  0  0  0  0
  -26.3850  -31.8120   25.2150 C   0  0  1  0  0  0  0  0  0  0  0  0
  -25.2740  -31.5970   26.2690 C   0  0  0  0  0  1  0  0  0  0  0  0
  -26.9610  -30.4240   24.8530 C   0  0  0  0  0  1  0  0  0  0  0  0
  -27.5350  -32.6030   25.8850 C   0  0  0  0  0  1  0  0  0  0  0  0
  1  4  2  0
  1  5  1  0
  2  6  2  0
  3  6  1  0
  4  2  1  0
  5  3  2  0
  6  7  1  0
  8 16  1  0
  9 14  1  0
 10 11  1  0
 10  9  1  0
 12 11  1  0
 12 21  1  0
 12 13  1  0
 14  8  1  0
 14 13  1  0
 15  8  2  0
 16  5  1  0
 16 17  1  0
 18 19  2  0
 19 38  1  0
 20 19  1  0
 20 23  1  0
 21 22  1  0
 21 18  1  0
 22 20  2  0
 23 24  1  0
 24 25  2  0
 26 29  1  0
 26 25  1  0
 27 26  2  0
 28 27  1  0
 28 23  2  0
 29 30  1  0
 30 31  1  0
 31 32  2  0
 33 32  1  0
 33 37  1  0
 34 33  2  0
 35 30  2  0
 35 34  1  0
 36 35  1  0
 38 39  1  0
 39 42  1  0
 39 41  1  0
 40 38  2  0
 43 44  1  0
 43 18  1  0
 45 43  1  0
 46 47  2  0
 46  4  1  0
 48 47  1  0
 48 49  1  0
 50 61  2  0
 51 49  1  0
 51 56  1  0
 52 60  1  0
 52 62  1  0
 53 59  1  0
 53 55  1  0
 54 60  1  0
 55 56  2  0
 55 54  1  0
 57 51  2  0
 58 57  1  0
 58 53  2  0
 59 52  1  0
 60 50  1  0
 62 64  2  0
 63 62  1  0
 65 63  1  0
 66 75  2  0
 66 71  1  0
 67 63  1  0
 67 71  1  0
 68 67  1  0
 69 70  1  0
 69 68  1  0
 70 66  1  0
 71 72  2  0
 72 73  1  0
 74 73  2  0
 75 74  1  0
 76 50  1  0
 76 77  1  0
 76 86  1  0
 77 80  1  0
 78 82  1  0
 78 77  1  0
 79 78  2  0
 82 81  1  0
 84 85  1  0
 84 82  1  0
 84 83  1  0
 86 89  1  1
 86 87  1  0
 88 86  1  0
M  ISO  4   8 100  16 100  48 101  49 101
M  END
>  <TORSDO>  (89) 
F 18

>  <SCORE>  (89) 
-14.701

>  <name>  (89) 
88

>  <ligand_id>  (89) 
88

>  <original_smiles>  (89) 
[H]C(=C([H])C([H])([H])Oc1c([H])c([H])c2c(c1[H])C([H])([H])N(C(=O)C([H])(N([H])C(=O)C([H])(N([H])C([H])([H])[H])C([H])([H])[H])C(C([H])([H])[H])(C([H])([H])[H])C([H])([H])[H])C([H])(C(=O)N([H])C1([H])c3c([H])c([H])c([H])c([H])c3C([H])([H])C([H])([H])C1([H])[H])C2([H])[H])c1c([H])c(F)c([H])c(N([H])C(=O)N2C([H])([H])C([H])([H])C([H])([H])C([H])(n3nc(-c4c([H])c([H])c(Oc5c([H])c([H])c(F)c([H])c5F)c([H])c4[H])c(C(=O)N([H])[H])c3N([H])[H])C2([H])[H])c1[H]

>  <smiles>  (89) 
[H]C(=C([H])C([H])([H])Oc1c([H])c([H])c2c(c1[H])C([H])([H])N(C(=O)C([H])(N([H])C(=O)C([H])(N([H])C([H])([H])[H])C([H])([H])[H])C(C([H])([H])[H])(C([H])([H])[H])C([H])([H])[H])C([H])(C(=O)N([H])C1([H])c3c([H])c([H])c([H])c([H])c3C([H])([H])C([H])([H])C1([H])[H])C2([H])[H])c1c([H])c(F)c([H])c(N([H])C(=O)N2C([H])([H])C([H])([H])C([H])([H])C([H])(n3nc(-c4c([H])c([H])c(Oc5c([H])c([H])c(F)c([H])c5F)c([H])c4[H])c(C(=O)N([H])[H])c3N([H])[H])C2([H])[H])c1[H]

$$$$
89:0:0
     RDKit          3D

 93102  0  0  1  0  0  0  0  0999 V2000
  -28.2130  -23.3270   22.6370 C   0  0  0  0  0  2  0  0  0  0  0  0
  -29.3270  -24.2400   22.1170 C   0  0  0  0  0  2  0  0  0  0  0  0
  -28.4020  -22.0810   21.7700 C   0  0  0  0  0  2  0  0  0  0  0  0
  -29.2480  -24.0380   20.5940 C   0  0  0  0  0  3  0  0  0  0  0  0
  -28.8980  -22.5510   20.4460 N   0  0  1  0  0  4  0  0  0  0  0  0
  -28.1240  -22.4860   19.8000 H   0  0  0  0  0  0  0  0  0  0  0  0
  -29.9700  -21.6380   19.8740 C   0  0  0  0  0  2  0  0  0  0  0  0
  -30.9080  -19.3790   20.8190 C   0  0  0  0  0  3  0  0  0  0  0  0
  -28.8930  -19.2690   19.5110 C   0  0  0  0  0  3  0  0  0  0  0  0
  -30.9170  -17.9560   20.9430 C   0  0  0  0  0  3  0  0  0  0  0  0
  -28.8900  -17.8530   19.6490 C   0  0  0  0  0  3  0  0  0  0  0  0
  -29.8970  -20.0770   20.0980 C   0  0  0  0  0  0  0  0  0  0  0  0
  -29.9000  -17.1540   20.3600 C   0  0  0  0  0  0  0  0  0  0  0  0
  -30.6330  -14.6690   20.3540 C   0  0  0  0  0  0  0  0  0  0  0  0
  -30.4340  -12.4300   19.3060 C   0  0  0  0  0  2  0  0  0  0  0  0
  -29.4970  -12.5790   18.0880 C   0  0  0  0  0  2  0  0  0  0  0  0
  -28.0190  -12.4230   18.5080 C   0  0  0  0  0  2  0  0  0  0  0  0
  -27.6550  -13.2790   19.7500 C   0  0  0  0  0  3  0  0  0  0  0  0
  -28.7090  -13.1150   20.8670 C   0  0  0  0  0  2  0  0  0  0  0  0
  -30.0250  -13.4430   20.2940 N   0  0  0  0  0  0  0  0  0  0  0  0
  -31.8160  -14.8280   20.0420 O   0  0  0  0  0  0  0  0  0  0  0  0
  -29.7730  -15.7130   20.5460 N   0  0  0  0  0  0  0  0  0  0  0  0
  -28.8250  -15.3830   20.6490 H   0  0  0  0  0  0  0  0  0  0  0  0
  -25.2570  -13.8890   20.4490 C   0  0  0  0  0  0  0  0  0  0  0  0
  -24.1870  -13.1200   20.8240 C   0  0  0  0  0  0  0  0  0  0  0  0
  -24.6490  -11.7680   20.8090 C   0  0  0  0  0  0  0  0  0  0  0  0
  -26.3010  -13.0040   20.2300 N   0  0  0  0  0  0  0  0  0  0  0  0
  -25.9410  -11.7240   20.5070 N   0  0  0  0  0  0  0  0  0  0  0  0
  -23.9190  -10.5090   21.0030 C   0  0  0  0  0  0  0  0  0  0  0  0
  -24.3410   -9.5520   21.9500 C   0  0  0  0  0  3  0  0  0  0  0  0
  -23.6130   -8.3570   22.1320 C   0  0  0  0  0  3  0  0  0  0  0  0
  -22.4500   -8.1110   21.3650 C   0  0  0  0  0  0  0  0  0  0  0  0
  -22.0470   -9.0570   20.4070 C   0  0  0  0  0  3  0  0  0  0  0  0
  -22.7760  -10.2440   20.2240 C   0  0  0  0  0  3  0  0  0  0  0  0
  -21.6940   -6.9690   21.4550 O   0  0  0  0  0  0  0  0  0  0  0  0
  -21.6260   -6.2390   22.6160 C   0  0  0  0  0  0  0  0  0  0  0  0
  -21.1670   -6.8040   23.8260 C   0  0  0  0  0  3  0  0  0  0  0  0
  -21.0470   -6.0010   24.9770 C   0  0  0  0  0  3  0  0  0  0  0  0
  -21.3760   -4.6330   24.9200 C   0  0  0  0  0  0  0  0  0  0  0  0
  -21.8280   -4.0680   23.7150 C   0  0  0  0  0  3  0  0  0  0  0  0
  -21.9490   -4.8680   22.5660 C   0  0  0  0  0  0  0  0  0  0  0  0
  -22.3650   -4.3130   21.4020 F   0  0  0  0  0  0  0  0  0  0  0  0
  -21.2520   -3.8600   26.0230 F   0  0  0  0  0  0  0  0  0  0  0  0
  -22.7900  -13.6040   21.0800 C   0  0  0  0  0  0  0  0  0  0  0  0
  -22.0530  -12.9200   21.9490 N   0  0  0  0  0  0  0  0  0  0  0  0
  -22.3600  -14.6250   20.5470 O   0  0  0  0  0  0  0  0  0  0  0  0
  -22.4120  -12.0960   22.4090 H   0  0  0  0  0  0  0  0  0  0  0  0
  -21.1140  -13.2280   22.1570 H   0  0  0  0  0  0  0  0  0  0  0  0
  -25.4210  -15.2570   20.2530 N   0  0  0  0  0  0  0  0  0  0  0  0
  -24.6330  -15.8950   20.3060 H   0  0  0  0  0  0  0  0  0  0  0  0
  -26.2490  -15.6910   19.8680 H   0  0  0  0  0  0  0  0  0  0  0  0
  -28.1770  -25.0670   20.0010 C   0  0  0  0  0  2  0  0  0  0  0  0
  -28.3960  -26.5240   20.1640 O   0  0  0  0  0  0  0  0  0  0  0  0
  -24.6580  -31.8780   23.2180 C   0  0  0  0  0  0  0  0  0  0  0  0
  -27.2720  -27.3630   20.1130 C   0  0  0  0  0  0  0  0  0  0  0  0
  -23.4470  -30.4960   21.5670 C   0  0  0  0  0  3  0  0  0  0  0  0
  -24.8990  -28.9630   20.1220 C   0  0  0  0  0  0  0  0  0  0  0  0
  -25.9860  -30.8200   21.3760 C   0  0  0  0  0  2  0  0  0  0  0  0
  -26.0680  -29.4500   20.7190 C   0  0  0  0  0  0  0  0  0  0  0  0
  -27.2570  -28.6620   20.7070 C   0  0  0  0  0  3  0  0  0  0  0  0
  -26.0770  -26.9280   19.4890 C   0  0  0  0  0  3  0  0  0  0  0  0
  -24.9080  -27.7080   19.4990 C   0  0  0  0  0  3  0  0  0  0  0  0
  -23.6590  -29.8340   20.1800 C   0  0  0  0  0  2  0  0  0  0  0  0
  -24.7160  -31.0820   22.1110 N   0  0  0  0  0  0  0  0  0  0  0  0
  -23.5780  -32.1460   23.7640 O   0  0  0  0  0  0  0  0  0  0  0  0
  -22.7960  -29.4630   22.5190 C   0  0  0  0  0  0  0  0  0  0  0  0
  -21.4690  -29.2830   22.4040 N   0  0  0  0  0  0  0  0  0  0  0  0
  -23.4850  -28.8250   23.3190 O   0  0  0  0  0  0  0  0  0  0  0  0
  -20.9680  -29.8520   21.7330 H   0  0  0  0  0  0  0  0  0  0  0  0
  -18.0990  -28.0890   22.9340 C   0  0  0  0  0  0  0  0  0  0  0  0
  -20.6610  -28.3390   23.1760 C   0  0  0  0  0  3  0  0  0  0  0  0
  -20.7480  -26.9090   22.5870 C   0  0  0  0  0  2  0  0  0  0  0  0
  -19.6360  -26.6030   21.5790 C   0  0  0  0  0  2  0  0  0  0  0  0
  -18.2620  -26.7470   22.2390 C   0  0  0  0  0  2  0  0  0  0  0  0
  -19.2240  -28.8430   23.3600 C   0  0  0  0  0  0  0  0  0  0  0  0
  -19.0130  -30.1010   23.9660 C   0  0  0  0  0  3  0  0  0  0  0  0
  -17.7110  -30.6040   24.1490 C   0  0  0  0  0  3  0  0  0  0  0  0
  -16.6010  -29.8460   23.7390 C   0  0  0  0  0  3  0  0  0  0  0  0
  -16.7950  -28.5890   23.1390 C   0  0  0  0  0  3  0  0  0  0  0  0
  -25.9440  -32.5100   23.8350 C   0  0  0  0  0  3  0  0  0  0  0  0
  -26.4690  -31.7350   25.1060 C   0  0  1  0  0  0  0  0  0  0  0  0
  -25.3790  -31.4940   26.1770 C   0  0  0  0  0  1  0  0  0  0  0  0
  -27.0520  -30.3610   24.7040 C   0  0  0  0  0  1  0  0  0  0  0  0
  -27.6230  -32.5280   25.7660 C   0  0  0  0  0  1  0  0  0  0  0  0
  -25.6360  -33.9060   24.1760 N   0  0  0  0  0  0  0  0  0  0  0  0
  -25.9540  -34.9640   23.4180 C   0  0  0  0  0  0  0  0  0  0  0  0
  -26.6090  -34.8670   22.3760 O   0  0  0  0  0  0  0  0  0  0  0  0
  -25.0600  -34.0540   24.9920 H   0  0  0  0  0  0  0  0  0  0  0  0
  -24.2140  -36.7520   23.0940 C   0  0  0  0  0  1  0  0  0  0  0  0
  -25.4680  -36.3500   23.8890 C   0  0  0  0  0  3  0  0  0  0  0  0
  -27.6090  -37.2370   24.6990 C   0  0  0  0  0  1  0  0  0  0  0  0
  -26.4960  -37.4050   23.7690 N   0  0  0  0  0  0  0  0  0  0  0  0
  -26.0910  -38.3230   23.9300 H   0  0  0  0  0  0  0  0  0  0  0  0
  2  1  1  0
  3  1  1  0
  4 52  1  0
  4  2  1  0
  5  4  1  0
  5  3  1  0
  5  6  1  6
  7 12  1  0
  7  5  1  0
  8 10  1  0
  9 11  2  0
  9 12  1  0
 11 13  1  0
 12  8  2  0
 13 22  1  0
 13 10  2  0
 14 22  1  0
 15 20  1  0
 16 17  1  0
 16 15  1  0
 18 17  1  0
 18 27  1  0
 18 19  1  0
 20 14  1  0
 20 19  1  0
 21 14  2  0
 22 23  1  0
 24 25  2  0
 25 44  1  0
 26 25  1  0
 26 29  1  0
 27 24  1  0
 27 28  1  0
 28 26  2  0
 29 30  1  0
 30 31  2  0
 32 35  1  0
 32 31  1  0
 33 32  2  0
 34 33  1  0
 34 29  2  0
 35 36  1  0
 36 37  1  0
 37 38  2  0
 39 38  1  0
 39 43  1  0
 40 39  2  0
 41 36  2  0
 41 40  1  0
 42 41  1  0
 44 45  1  0
 45 48  1  0
 45 47  1  0
 46 44  2  0
 49 50  1  0
 49 24  1  0
 51 49  1  0
 52 53  1  0
 54 65  2  0
 55 53  1  0
 55 60  1  0
 56 64  1  0
 56 66  1  0
 57 63  1  0
 57 59  1  0
 58 64  1  0
 59 58  1  0
 60 59  2  0
 61 62  1  0
 61 55  2  0
 62 57  2  0
 63 56  1  0
 64 54  1  0
 66 68  2  0
 67 66  1  0
 69 67  1  0
 70 79  2  0
 70 75  1  0
 71 67  1  0
 71 75  1  0
 72 71  1  0
 73 74  1  0
 73 72  1  0
 74 70  1  0
 75 76  2  0
 76 77  1  0
 78 77  2  0
 79 78  1  0
 80 54  1  0
 80 85  1  0
 80 81  1  0
 81 84  1  1
 81 82  1  0
 83 81  1  0
 85 88  1  0
 86 90  1  0
 86 85  1  0
 87 86  2  0
 90 89  1  0
 92 90  1  0
 92 93  1  0
 92 91  1  0
M  ISO  4  14 100  22 100  52 101  53 101
M  END
>  <TORSDO>  (90) 
F 19

>  <SCORE>  (90) 
-14.020

>  <name>  (90) 
89

>  <ligand_id>  (90) 
89

>  <original_smiles>  (90) 
[H]c1c([H])c([H])c2c(c1[H])C([H])([H])C([H])([H])C([H])([H])C2([H])N([H])C(=O)C1([H])N(C(=O)C([H])(N([H])C(=O)C([H])(N([H])C([H])([H])[H])C([H])([H])[H])C(C([H])([H])[H])(C([H])([H])[H])C([H])([H])[H])C([H])([H])c2c([H])c(OC([H])([H])C3([H])C([H])([H])C([H])([H])C([H])([H])[N+]3([H])C([H])([H])c3c([H])c([H])c(N([H])C(=O)N4C([H])([H])C([H])([H])C([H])([H])C([H])(n5nc(-c6c([H])c([H])c(Oc7c([H])c([H])c(F)c([H])c7F)c([H])c6[H])c(C(=O)N([H])[H])c5N([H])[H])C4([H])[H])c([H])c3[H])c([H])c([H])c2C1([H])[H]

>  <smiles>  (90) 
[H]c1c([H])c([H])c2c(c1[H])C([H])([H])C([H])([H])C([H])([H])C2([H])N([H])C(=O)C1([H])N(C(=O)C([H])(N([H])C(=O)C([H])(N([H])C([H])([H])[H])C([H])([H])[H])C(C([H])([H])[H])(C([H])([H])[H])C([H])([H])[H])C([H])([H])c2c([H])c(OC([H])([H])C3([H])C([H])([H])C([H])([H])C([H])([H])[N+]3([H])C([H])([H])c3c([H])c([H])c(N([H])C(=O)N4C([H])([H])C([H])([H])C([H])([H])C([H])(n5nc(-c6c([H])c([H])c(Oc7c([H])c([H])c(F)c([H])c7F)c([H])c6[H])c(C(=O)N([H])[H])c5N([H])[H])C4([H])[H])c([H])c3[H])c([H])c([H])c2C1([H])[H]

$$$$
