0:0:0
     RDKit          3D

 94103  0  0  1  0  0  0  0  0999 V2000
  -30.7890  -18.8270   21.6800 C   0  0  0  0  0  3  0  0  0  0  0  0
  -30.5220  -21.2810   21.7310 C   0  0  0  0  0  3  0  0  0  0  0  0
  -29.7370  -18.6910   20.7570 C   0  0  0  0  0  0  0  0  0  0  0  0
  -29.4210  -21.2510   20.8430 C   0  0  0  0  0  0  0  0  0  0  0  0
  -31.1720  -20.0990   22.1550 C   0  0  0  0  0  0  0  0  0  0  0  0
  -29.0460  -19.9210   20.3700 C   0  0  0  0  0  0  0  0  0  0  0  0
  -32.1980  -20.1870   23.0360 F   0  0  0  0  0  0  0  0  0  0  0  0
  -28.0160  -19.8260   19.4910 F   0  0  0  0  0  0  0  0  0  0  0  0
  -26.9790  -24.1400   20.7660 C   0  0  0  0  0  2  0  0  0  0  0  0
  -27.3130  -22.6280   20.5640 C   0  0  0  0  0  2  0  0  0  0  0  0
  -29.2870  -23.9120   20.5960 C   0  0  0  0  0  2  0  0  0  0  0  0
  -28.1480  -24.9370   20.1370 C   0  0  0  0  0  3  0  0  0  0  0  0
  -28.7640  -22.5060   20.4770 N   0  0  0  0  0  0  0  0  0  0  0  0
  -28.2720  -26.4180   20.4210 O   0  0  0  0  0  0  0  0  0  0  0  0
  -24.6180  -31.9680   23.2820 C   0  0  0  0  0  0  0  0  0  0  0  0
  -27.1950  -27.3280   20.2760 C   0  0  0  0  0  0  0  0  0  0  0  0
  -23.4120  -30.5750   21.6360 C   0  0  0  0  0  3  0  0  0  0  0  0
  -24.8620  -29.0110   20.2070 C   0  0  0  0  0  0  0  0  0  0  0  0
  -25.9580  -30.8540   21.4790 C   0  0  0  0  0  2  0  0  0  0  0  0
  -26.0240  -29.4700   20.8360 C   0  0  0  0  0  0  0  0  0  0  0  0
  -27.1890  -28.6370   20.8690 C   0  0  0  0  0  3  0  0  0  0  0  0
  -26.0290  -26.9630   19.5680 C   0  0  0  0  0  3  0  0  0  0  0  0
  -24.8740  -27.7700   19.5510 C   0  0  0  0  0  3  0  0  0  0  0  0
  -23.6300  -29.8960   20.2550 C   0  0  0  0  0  2  0  0  0  0  0  0
  -24.6820  -31.1530   22.1880 N   0  0  0  0  0  0  0  0  0  0  0  0
  -23.5350  -32.2580   23.8100 O   0  0  0  0  0  0  0  0  0  0  0  0
  -22.7340  -29.5690   22.5970 C   0  0  0  0  0  0  0  0  0  0  0  0
  -21.4060  -29.4050   22.4660 N   0  0  0  0  0  0  0  0  0  0  0  0
  -23.4020  -28.9420   23.4220 O   0  0  0  0  0  0  0  0  0  0  0  0
  -20.9260  -29.9640   21.7750 H   0  0  0  0  0  0  0  0  0  0  0  0
  -18.0120  -28.2520   22.9630 C   0  0  0  0  0  0  0  0  0  0  0  0
  -20.5740  -28.4780   23.2360 C   0  0  0  0  0  3  0  0  0  0  0  0
  -20.6570  -27.0450   22.6580 C   0  0  0  0  0  2  0  0  0  0  0  0
  -19.5510  -26.7400   21.6420 C   0  0  0  0  0  2  0  0  0  0  0  0
  -18.1710  -26.9030   22.2840 C   0  0  0  0  0  2  0  0  0  0  0  0
  -19.1410  -29.0000   23.3950 C   0  0  0  0  0  0  0  0  0  0  0  0
  -18.9370  -30.2640   23.9880 C   0  0  0  0  0  3  0  0  0  0  0  0
  -17.6390  -30.7830   24.1520 C   0  0  0  0  0  3  0  0  0  0  0  0
  -16.5250  -30.0330   23.7340 C   0  0  0  0  0  3  0  0  0  0  0  0
  -16.7130  -28.7690   23.1470 C   0  0  0  0  0  3  0  0  0  0  0  0
  -25.9040  -32.5900   23.9120 C   0  0  0  0  0  3  0  0  0  0  0  0
  -25.6090  -33.9930   24.2340 N   0  0  0  0  0  0  0  0  0  0  0  0
  -25.9380  -35.0390   23.4640 C   0  0  0  0  0  0  0  0  0  0  0  0
  -26.5890  -34.9230   22.4220 O   0  0  0  0  0  0  0  0  0  0  0  0
  -25.0290  -34.1590   25.0440 H   0  0  0  0  0  0  0  0  0  0  0  0
  -24.2070  -36.8320   23.1330 C   0  0  0  0  0  1  0  0  0  0  0  0
  -25.4670  -36.4340   23.9170 C   0  0  0  0  0  3  0  0  0  0  0  0
  -27.6210  -37.3230   24.6900 C   0  0  0  0  0  1  0  0  0  0  0  0
  -26.5000  -37.4820   23.7680 N   0  0  0  0  0  0  0  0  0  0  0  0
  -26.1010  -38.4070   23.9100 H   0  0  0  0  0  0  0  0  0  0  0  0
  -26.4030  -31.8210   25.1960 C   0  0  1  0  0  0  0  0  0  0  0  0
  -25.2990  -31.5990   26.2550 C   0  0  0  0  0  1  0  0  0  0  0  0
  -26.9730  -30.4350   24.8140 C   0  0  0  0  0  1  0  0  0  0  0  0
  -27.5560  -32.6060   25.8650 C   0  0  0  0  0  1  0  0  0  0  0  0
  -29.8020  -17.2540   18.6360 C   0  0  0  0  0  1  0  0  0  0  0  0
  -29.4270  -17.2580   20.1280 C   0  0  0  0  0  0  0  0  0  0  0  0
  -30.5770  -14.8380   20.4420 C   0  0  0  0  0  0  0  0  0  0  0  0
  -30.4670  -12.5580   19.4180 C   0  0  0  0  0  2  0  0  0  0  0  0
  -29.5500  -12.6410   18.1730 C   0  0  0  0  0  2  0  0  0  0  0  0
  -28.0720  -12.4480   18.5680 C   0  0  0  0  0  2  0  0  0  0  0  0
  -27.6710  -13.3150   19.7920 C   0  0  0  0  0  3  0  0  0  0  0  0
  -28.7010  -13.1990   20.9350 C   0  0  0  0  0  2  0  0  0  0  0  0
  -30.0130  -13.5810   20.3910 N   0  0  0  0  0  0  0  0  0  0  0  0
  -31.7260  -15.0100   20.0190 O   0  0  0  0  0  0  0  0  0  0  0  0
  -29.7460  -15.8980   20.7880 N   0  0  0  0  0  4  0  0  0  0  0  0
  -28.9560  -15.5630   21.3200 H   0  0  0  0  0  0  0  0  0  0  0  0
  -25.2620  -13.8950   20.4570 C   0  0  0  0  0  0  0  0  0  0  0  0
  -24.1970  -13.1160   20.8170 C   0  0  0  0  0  0  0  0  0  0  0  0
  -24.6710  -11.7690   20.8100 C   0  0  0  0  0  0  0  0  0  0  0  0
  -26.3170  -13.0210   20.2480 N   0  0  0  0  0  0  0  0  0  0  0  0
  -25.9670  -11.7370   20.5230 N   0  0  0  0  0  0  0  0  0  0  0  0
  -23.9540  -10.5030   21.0030 C   0  0  0  0  0  0  0  0  0  0  0  0
  -24.3800   -9.5500   21.9540 C   0  0  0  0  0  3  0  0  0  0  0  0
  -23.6630   -8.3480   22.1320 C   0  0  0  0  0  3  0  0  0  0  0  0
  -22.5060   -8.0890   21.3600 C   0  0  0  0  0  0  0  0  0  0  0  0
  -22.1020   -9.0300   20.3960 C   0  0  0  0  0  3  0  0  0  0  0  0
  -22.8190  -10.2240   20.2170 C   0  0  0  0  0  3  0  0  0  0  0  0
  -21.7590   -6.9400   21.4500 O   0  0  0  0  0  0  0  0  0  0  0  0
  -21.6910   -6.2130   22.6120 C   0  0  0  0  0  0  0  0  0  0  0  0
  -21.2140   -6.7750   23.8160 C   0  0  0  0  0  3  0  0  0  0  0  0
  -21.0970   -5.9720   24.9680 C   0  0  0  0  0  3  0  0  0  0  0  0
  -21.4460   -4.6090   24.9180 C   0  0  0  0  0  0  0  0  0  0  0  0
  -21.9130   -4.0460   23.7170 C   0  0  0  0  0  3  0  0  0  0  0  0
  -22.0330   -4.8460   22.5670 C   0  0  0  0  0  0  0  0  0  0  0  0
  -22.4670   -4.2940   21.4090 F   0  0  0  0  0  0  0  0  0  0  0  0
  -21.3240   -3.8370   26.0220 F   0  0  0  0  0  0  0  0  0  0  0  0
  -22.7920  -13.5830   21.0590 C   0  0  0  0  0  0  0  0  0  0  0  0
  -22.0510  -12.8890   21.9160 N   0  0  0  0  0  0  0  0  0  0  0  0
  -22.3560  -14.5990   20.5190 O   0  0  0  0  0  0  0  0  0  0  0  0
  -22.4100  -12.0660   22.3770 H   0  0  0  0  0  0  0  0  0  0  0  0
  -21.1050  -13.1840   22.1150 H   0  0  0  0  0  0  0  0  0  0  0  0
  -25.4200  -15.2650   20.2670 N   0  0  0  0  0  0  0  0  0  0  0  0
  -24.6470  -15.9140   20.3560 H   0  0  0  0  0  0  0  0  0  0  0  0
  -26.2620  -15.6990   19.9150 H   0  0  0  0  0  0  0  0  0  0  0  0
  1  5  1  0
  2  5  2  0
  3  1  2  0
  4  2  1  0
  5  7  1  0
  6  3  1  0
  6  4  2  0
  8  6  1  0
 10  9  1  0
 12 14  1  0
 12 11  1  0
 12  9  1  0
 13 10  1  0
 13 11  1  0
 13  4  1  0
 15 26  2  0
 16 14  1  0
 16 21  1  0
 17 25  1  0
 17 27  1  0
 18 24  1  0
 18 20  1  0
 19 25  1  0
 20 21  2  0
 20 19  1  0
 22 16  2  0
 23 22  1  0
 23 18  2  0
 24 17  1  0
 25 15  1  0
 27 29  2  0
 28 27  1  0
 30 28  1  0
 31 40  2  0
 31 36  1  0
 32 28  1  0
 32 36  1  0
 33 32  1  0
 34 35  1  0
 34 33  1  0
 35 31  1  0
 36 37  2  0
 37 38  1  0
 39 38  2  0
 40 39  1  0
 41 15  1  0
 41 42  1  0
 41 51  1  0
 42 45  1  0
 43 47  1  0
 43 42  1  0
 44 43  2  0
 47 46  1  0
 49 50  1  0
 49 47  1  0
 49 48  1  0
 51 54  1  1
 51 52  1  0
 53 51  1  0
 55 56  1  0
 56  3  1  0
 56 65  2  3
 57 65  1  0
 58 63  1  0
 59 60  1  0
 59 58  1  0
 61 60  1  0
 61 70  1  0
 61 62  1  0
 63 57  1  0
 63 62  1  0
 64 57  2  0
 65 66  1  0
 67 68  2  0
 68 87  1  0
 69 68  1  0
 69 72  1  0
 70 67  1  0
 70 71  1  0
 71 69  2  0
 72 73  1  0
 73 74  2  0
 75 78  1  0
 75 74  1  0
 76 75  2  0
 77 76  1  0
 77 72  2  0
 78 79  1  0
 79 80  1  0
 80 81  2  0
 82 81  1  0
 82 86  1  0
 83 82  2  0
 84 79  2  0
 84 83  1  0
 85 84  1  0
 87 88  1  0
 88 91  1  0
 88 90  1  0
 89 87  2  0
 92 93  1  0
 92 67  1  0
 94 92  1  0
M  ISO  4  12 101  14 101  57 100  65 100
M  END
>  <TORSDO>  (1) 
F 18

>  <SCORE>  (1) 
-15.114

>  <name>  (1) 
0

>  <ligand_id>  (1) 
0

>  <original_smiles>  (1) 
[H]c1c([H])c([H])c2c(c1[H])C([H])([H])C([H])([H])C([H])([H])C2([H])N([H])C(=O)C1([H])N(C(=O)C([H])(N([H])C(=O)C([H])(N([H])C([H])([H])[H])C([H])([H])[H])C(C([H])([H])[H])(C([H])([H])[H])C([H])([H])[H])C([H])([H])c2c([H])c(OC3([H])C([H])([H])N(c4c([H])c(F)c([H])c(C([H])(N([H])C(=O)N5C([H])([H])C([H])([H])C([H])([H])C([H])(n6nc(-c7c([H])c([H])c(Oc8c([H])c([H])c(F)c([H])c8F)c([H])c7[H])c(C(=O)N([H])[H])c6N([H])[H])C5([H])[H])C([H])([H])[H])c4F)C([H])([H])C3([H])[H])c([H])c([H])c2C1([H])[H]

>  <smiles>  (1) 
[H]c1c([H])c([H])c2c(c1[H])C([H])([H])C([H])([H])C([H])([H])C2([H])N([H])C(=O)C1([H])N(C(=O)C([H])(N([H])C(=O)C([H])(N([H])C([H])([H])[H])C([H])([H])[H])C(C([H])([H])[H])(C([H])([H])[H])C([H])([H])[H])C([H])([H])c2c([H])c(OC3([H])C([H])([H])N(c4c([H])c(F)c([H])c(C([H])(N([H])C(=O)N5C([H])([H])C([H])([H])C([H])([H])C([H])(n6nc(-c7c([H])c([H])c(Oc8c([H])c([H])c(F)c([H])c8F)c([H])c7[H])c(C(=O)N([H])[H])c6N([H])[H])C5([H])[H])C([H])([H])[H])c4F)C([H])([H])C3([H])[H])c([H])c([H])c2C1([H])[H]

$$$$
1:0:0
     RDKit          3D

 98108  0  0  1  0  0  0  0  0999 V2000
  -30.2180  -18.3090   20.1070 C   0  0  0  0  0  3  0  0  0  0  0  0
  -27.7540  -19.4020   19.4150 C   0  0  0  0  0  3  0  0  0  0  0  0
  -30.0210  -19.7530   19.9760 C   0  0  0  0  0  0  0  0  0  0  0  0
  -28.7740  -20.3940   19.5930 C   0  0  0  0  0  0  0  0  0  0  0  0
  -29.1930  -17.3270   19.9050 C   0  0  0  0  0  0  0  0  0  0  0  0
  -27.9510  -17.9670   19.5620 C   0  0  0  0  0  0  0  0  0  0  0  0
  -26.8840  -17.1570   19.3560 F   0  0  0  0  0  0  0  0  0  0  0  0
  -30.1560  -14.7180   19.8920 C   0  0  0  0  0  0  0  0  0  0  0  0
  -30.1010  -12.3320   19.0350 C   0  0  0  0  0  2  0  0  0  0  0  0
  -29.0900  -12.2290   17.8680 C   0  0  0  0  0  2  0  0  0  0  0  0
  -27.6630  -11.9890   18.4010 C   0  0  0  0  0  2  0  0  0  0  0  0
  -27.2990  -12.9380   19.5720 C   0  0  0  0  0  3  0  0  0  0  0  0
  -28.4220  -12.9900   20.6300 C   0  0  0  0  0  2  0  0  0  0  0  0
  -29.6430  -13.4240   19.9360 N   0  0  0  0  0  0  0  0  0  0  0  0
  -31.3310  -14.8620   19.5310 O   0  0  0  0  0  0  0  0  0  0  0  0
  -29.2560  -15.8000   20.0580 N   0  0  0  0  0  0  0  0  0  0  0  0
  -28.3410  -15.4380   20.2820 H   0  0  0  0  0  0  0  0  0  0  0  0
  -24.9600  -13.4860   20.4620 C   0  0  0  0  0  0  0  0  0  0  0  0
  -23.9370  -12.6970   20.9080 C   0  0  0  0  0  0  0  0  0  0  0  0
  -24.4230  -11.3540   20.8590 C   0  0  0  0  0  0  0  0  0  0  0  0
  -26.0030  -12.6250   20.1600 N   0  0  0  0  0  0  0  0  0  0  0  0
  -25.6910  -11.3380   20.4630 N   0  0  0  0  0  0  0  0  0  0  0  0
  -23.7350  -10.0820   21.1080 C   0  0  0  0  0  0  0  0  0  0  0  0
  -24.2300   -9.1420   22.0380 C   0  0  0  0  0  3  0  0  0  0  0  0
  -23.5390   -7.9330   22.2720 C   0  0  0  0  0  3  0  0  0  0  0  0
  -22.3370   -7.6570   21.5780 C   0  0  0  0  0  0  0  0  0  0  0  0
  -21.8590   -8.5850   20.6370 C   0  0  0  0  0  3  0  0  0  0  0  0
  -22.5510   -9.7860   20.4000 C   0  0  0  0  0  3  0  0  0  0  0  0
  -21.6120   -6.4990   21.7230 O   0  0  0  0  0  0  0  0  0  0  0  0
  -21.6350   -5.7760   22.8890 C   0  0  0  0  0  0  0  0  0  0  0  0
  -21.1760   -6.3170   24.1090 C   0  0  0  0  0  3  0  0  0  0  0  0
  -21.1520   -5.5180   25.2690 C   0  0  0  0  0  3  0  0  0  0  0  0
  -21.5760   -4.1760   25.2090 C   0  0  0  0  0  0  0  0  0  0  0  0
  -22.0290   -3.6350   23.9940 C   0  0  0  0  0  3  0  0  0  0  0  0
  -22.0550   -4.4330   22.8370 C   0  0  0  0  0  0  0  0  0  0  0  0
  -22.4730   -3.9000   21.6630 F   0  0  0  0  0  0  0  0  0  0  0  0
  -21.5450   -3.4060   26.3220 F   0  0  0  0  0  0  0  0  0  0  0  0
  -22.5510  -13.1530   21.2640 C   0  0  0  0  0  0  0  0  0  0  0  0
  -21.8910  -12.4570   22.1830 N   0  0  0  0  0  0  0  0  0  0  0  0
  -22.0630  -14.1650   20.7630 O   0  0  0  0  0  0  0  0  0  0  0  0
  -22.2960  -11.6380   22.6130 H   0  0  0  0  0  0  0  0  0  0  0  0
  -20.9670  -12.7520   22.4650 H   0  0  0  0  0  0  0  0  0  0  0  0
  -25.0800  -14.8580   20.2630 N   0  0  0  0  0  0  0  0  0  0  0  0
  -24.3070  -15.4880   20.4390 H   0  0  0  0  0  0  0  0  0  0  0  0
  -25.8890  -15.3430   19.8960 H   0  0  0  0  0  0  0  0  0  0  0  0
  -28.7180  -23.9580   18.0800 C   0  0  0  0  0  2  0  0  0  0  0  0
  -28.7260  -22.3970   18.0080 C   0  0  0  0  0  2  0  0  0  0  0  0
  -27.9390  -23.0410   20.1130 C   0  0  0  0  0  2  0  0  0  0  0  0
  -27.6950  -24.3720   19.1530 C   0  0  0  0  0  3  0  0  0  0  0  0
  -28.6210  -21.8720   19.3720 N   0  0  0  0  0  0  0  0  0  0  0  0
  -27.8110  -25.8990   19.4840 O   0  0  0  0  0  0  0  0  0  0  0  0
  -24.4690  -31.5490   22.8250 C   0  0  0  0  0  0  0  0  0  0  0  0
  -26.7520  -26.8810   19.4870 C   0  0  0  0  0  0  0  0  0  0  0  0
  -23.1420  -30.2340   21.2180 C   0  0  0  0  0  3  0  0  0  0  0  0
  -24.4640  -28.6800   19.6550 C   0  0  0  0  0  0  0  0  0  0  0  0
  -25.6880  -30.4500   20.9080 C   0  0  0  0  0  2  0  0  0  0  0  0
  -25.6870  -29.0790   20.2080 C   0  0  0  0  0  0  0  0  0  0  0  0
  -26.8260  -28.1950   20.1080 C   0  0  0  0  0  3  0  0  0  0  0  0
  -25.4980  -26.5880   18.9020 C   0  0  0  0  0  3  0  0  0  0  0  0
  -24.3820  -27.4490   18.9870 C   0  0  0  0  0  3  0  0  0  0  0  0
  -23.2650  -29.6030   19.8040 C   0  0  0  0  0  2  0  0  0  0  0  0
  -24.4570  -30.7630   21.7050 N   0  0  0  0  0  0  0  0  0  0  0  0
  -23.4230  -31.8380   23.4260 O   0  0  0  0  0  0  0  0  0  0  0  0
  -22.5000  -29.2080   22.1840 C   0  0  0  0  0  0  0  0  0  0  0  0
  -21.1630  -29.0670   22.1300 N   0  0  0  0  0  0  0  0  0  0  0  0
  -23.2040  -28.5440   22.9500 O   0  0  0  0  0  0  0  0  0  0  0  0
  -20.6510  -29.6570   21.4890 H   0  0  0  0  0  0  0  0  0  0  0  0
  -17.7970  -27.8830   22.7540 C   0  0  0  0  0  0  0  0  0  0  0  0
  -20.3670  -28.1230   22.9190 C   0  0  0  0  0  3  0  0  0  0  0  0
  -20.4340  -26.7000   22.3170 C   0  0  0  0  0  2  0  0  0  0  0  0
  -19.2880  -26.4020   21.3430 C   0  0  0  0  0  2  0  0  0  0  0  0
  -17.9350  -26.5450   22.0450 C   0  0  0  0  0  2  0  0  0  0  0  0
  -18.9390  -28.6310   23.1490 C   0  0  0  0  0  0  0  0  0  0  0  0
  -18.7520  -29.8820   23.7740 C   0  0  0  0  0  3  0  0  0  0  0  0
  -17.4590  -30.3880   24.0040 C   0  0  0  0  0  3  0  0  0  0  0  0
  -16.3330  -29.6370   23.6240 C   0  0  0  0  0  3  0  0  0  0  0  0
  -16.5030  -28.3850   23.0060 C   0  0  0  0  0  3  0  0  0  0  0  0
  -25.7970  -32.1370   23.3930 C   0  0  0  0  0  3  0  0  0  0  0  0
  -26.4150  -31.2640   24.5540 C   0  0  1  0  0  0  0  0  0  0  0  0
  -25.4180  -30.9470   25.6940 C   0  0  0  0  0  1  0  0  0  0  0  0
  -26.9450  -29.9180   24.0060 C   0  0  0  0  0  1  0  0  0  0  0  0
  -27.6290  -31.9960   25.1720 C   0  0  0  0  0  1  0  0  0  0  0  0
  -25.5140  -33.4990   23.8760 N   0  0  0  0  0  0  0  0  0  0  0  0
  -25.9030  -34.6230   23.2610 C   0  0  0  0  0  0  0  0  0  0  0  0
  -26.6050  -34.6200   22.2470 O   0  0  0  0  0  0  0  0  0  0  0  0
  -24.9010  -33.5750   24.6740 H   0  0  0  0  0  0  0  0  0  0  0  0
  -24.2600  -36.5180   23.0600 C   0  0  0  0  0  1  0  0  0  0  0  0
  -25.4450  -35.9650   23.8680 C   0  0  0  0  0  3  0  0  0  0  0  0
  -27.5580  -36.6580   24.9080 C   0  0  0  0  0  1  0  0  0  0  0  0
  -26.5180  -36.9810   23.9350 N   0  0  0  0  0  0  0  0  0  0  0  0
  -26.1370  -37.8930   24.1690 H   0  0  0  0  0  0  0  0  0  0  0  0
  -31.2110  -20.6370   20.3400 C   0  0  0  0  0  2  0  0  0  0  0  0
  -31.0750  -24.1450   21.6660 C   0  0  0  0  0  2  0  0  0  0  0  0
  -30.1850  -23.4050   22.6760 C   0  0  0  0  0  2  0  0  0  0  0  0
  -31.7140  -23.0430   20.8170 C   0  0  0  0  0  2  0  0  0  0  0  0
  -30.1640  -21.9390   22.2170 C   0  0  0  0  0  2  0  0  0  0  0  0
  -30.7410  -21.9410   20.8570 N   0  0  2  0  0  4  0  0  0  0  0  0
  -29.9890  -22.1850   20.2210 H   0  0  0  0  0  0  0  0  0  0  0  0
  2  6  2  0
  2  4  1  0
  3  1  1  0
  3 92  1  0
  4  3  2  0
  5 16  1  0
  5  1  2  0
  6  5  1  0
  7  6  1  0
  8 14  1  0
  8 16  1  0
  9 14  1  0
 10 11  1  0
 10  9  1  0
 12 11  1  0
 12 21  1  0
 12 13  1  0
 14 13  1  0
 15  8  2  0
 16 17  1  0
 18 19  2  0
 19 38  1  0
 20 19  1  0
 20 23  1  0
 21 18  1  0
 21 22  1  0
 22 20  2  0
 23 24  1  0
 24 25  2  0
 26 29  1  0
 26 25  1  0
 27 26  2  0
 28 27  1  0
 28 23  2  0
 29 30  1  0
 30 31  1  0
 31 32  2  0
 33 32  1  0
 33 37  1  0
 34 33  2  0
 35 30  2  0
 35 34  1  0
 36 35  1  0
 38 39  1  0
 39 42  1  0
 39 41  1  0
 40 38  2  0
 43 44  1  0
 43 18  1  0
 45 43  1  0
 46 49  1  0
 47 46  1  0
 47 50  1  0
 49 51  1  0
 49 48  1  0
 50  4  1  0
 50 48  1  0
 51 53  1  0
 52 63  2  0
 53 58  1  0
 54 62  1  0
 54 64  1  0
 55 61  1  0
 55 57  1  0
 56 62  1  0
 57 56  1  0
 58 57  2  0
 59 60  1  0
 59 53  2  0
 60 55  2  0
 61 54  1  0
 62 52  1  0
 64 66  2  0
 65 64  1  0
 67 65  1  0
 68 77  2  0
 68 73  1  0
 69 65  1  0
 69 73  1  0
 70 69  1  0
 71 72  1  0
 71 70  1  0
 72 68  1  0
 73 74  2  0
 74 75  1  0
 76 75  2  0
 77 76  1  0
 78 52  1  0
 78 83  1  0
 78 79  1  0
 79 82  1  1
 79 80  1  0
 81 79  1  0
 83 86  1  0
 84 88  1  0
 84 83  1  0
 85 84  2  0
 88 87  1  0
 88 90  1  0
 90 91  1  0
 90 89  1  0
 92 97  1  0
 93 94  1  0
 95 97  1  0
 95 93  1  0
 96 94  1  0
 97 96  1  0
 97 98  1  6
M  ISO  4   8 100  16 100  49 101  51 101
M  END
>  <TORSDO>  (2) 
F 19

>  <SCORE>  (2) 
-13.034

>  <name>  (2) 
1

>  <ligand_id>  (2) 
1

>  <original_smiles>  (2) 
[H]c1c([H])c([H])c2c(c1[H])C([H])([H])C([H])([H])C([H])([H])C2([H])N([H])C(=O)C1([H])N(C(=O)C([H])(N([H])C(=O)C([H])(N([H])C([H])([H])[H])C([H])([H])[H])C(C([H])([H])[H])(C([H])([H])[H])C([H])([H])[H])C([H])([H])c2c([H])c(OC3([H])C([H])([H])N(c4c([H])c(F)c(N([H])C(=O)N5C([H])([H])C([H])([H])C([H])([H])C([H])(n6nc(-c7c([H])c([H])c(Oc8c([H])c([H])c(F)c([H])c8F)c([H])c7[H])c(C(=O)N([H])[H])c6N([H])[H])C5([H])[H])c([H])c4C([H])([H])[N+]4([H])C([H])([H])C([H])([H])C([H])([H])C4([H])[H])C([H])([H])C3([H])[H])c([H])c([H])c2C1([H])[H]

>  <smiles>  (2) 
[H]c1c([H])c([H])c2c(c1[H])C([H])([H])C([H])([H])C([H])([H])C2([H])N([H])C(=O)C1([H])N(C(=O)C([H])(N([H])C(=O)C([H])(N([H])C([H])([H])[H])C([H])([H])[H])C(C([H])([H])[H])(C([H])([H])[H])C([H])([H])[H])C([H])([H])c2c([H])c(OC3([H])C([H])([H])N(c4c([H])c(F)c(N([H])C(=O)N5C([H])([H])C([H])([H])C([H])([H])C([H])(n6nc(-c7c([H])c([H])c(Oc8c([H])c([H])c(F)c([H])c8F)c([H])c7[H])c(C(=O)N([H])[H])c6N([H])[H])C5([H])[H])c([H])c4C([H])([H])[N+]4([H])C([H])([H])C([H])([H])C([H])([H])C4([H])[H])C([H])([H])C3([H])[H])c([H])c([H])c2C1([H])[H]

$$$$
2:0:0
     RDKit          3D

 97106  0  0  1  0  0  0  0  0999 V2000
  -31.6660  -18.5220   19.8380 C   0  0  0  0  0  3  0  0  0  0  0  0
  -32.0990  -19.6890   19.1870 C   0  0  0  0  0  3  0  0  0  0  0  0
  -30.3730  -18.4350   20.3830 C   0  0  0  0  0  0  0  0  0  0  0  0
  -31.2670  -20.8280   19.0540 C   0  0  0  0  0  0  0  0  0  0  0  0
  -29.9790  -20.8110   19.6820 C   0  0  0  0  0  0  0  0  0  0  0  0
  -29.5420  -19.6000   20.3200 C   0  0  0  0  0  0  0  0  0  0  0  0
  -27.9560  -19.5590   21.0160 Cl  0  0  0  0  0  0  0  0  0  0  0  0
  -33.1320  -23.2210   16.9110 C   0  0  0  0  0  2  0  0  0  0  0  0
  -31.8620  -22.9470   16.1050 C   0  0  0  0  0  2  0  0  0  0  0  0
  -33.1190  -22.1030   17.9440 C   0  0  0  0  0  2  0  0  0  0  0  0
  -30.9060  -22.2800   17.1020 C   0  0  0  0  0  2  0  0  0  0  0  0
  -31.7100  -21.9250   18.2710 N   0  0  0  0  0  0  0  0  0  0  0  0
  -29.1020  -21.9380   19.6670 N   0  0  0  0  0  0  0  0  0  0  0  0
  -28.1790  -21.6560   19.9850 H   0  0  0  0  0  0  0  0  0  0  0  0
  -29.5420  -23.2080   20.2860 C   0  0  0  0  0  2  0  0  0  0  0  0
  -28.5230  -24.4040   20.2190 C   0  0  0  0  0  2  0  0  0  0  0  0
  -28.7830  -25.5240   19.1630 C   0  0  0  0  0  2  0  0  0  0  0  0
  -28.6000  -26.8720   19.6710 O   0  0  0  0  0  0  0  0  0  0  0  0
  -24.5990  -31.7030   23.0750 C   0  0  0  0  0  0  0  0  0  0  0  0
  -27.3710  -27.5150   19.7110 C   0  0  0  0  0  0  0  0  0  0  0  0
  -23.4240  -30.3470   21.3710 C   0  0  0  0  0  3  0  0  0  0  0  0
  -24.9130  -28.9400   19.8480 C   0  0  0  0  0  0  0  0  0  0  0  0
  -25.9320  -30.8060   21.1640 C   0  0  0  0  0  2  0  0  0  0  0  0
  -26.0600  -29.4740   20.4460 C   0  0  0  0  0  0  0  0  0  0  0  0
  -27.2860  -28.7660   20.3740 C   0  0  0  0  0  3  0  0  0  0  0  0
  -26.1980  -26.9990   19.1120 C   0  0  0  0  0  3  0  0  0  0  0  0
  -24.9790  -27.7040   19.1810 C   0  0  0  0  0  3  0  0  0  0  0  0
  -23.6410  -29.7500   19.9560 C   0  0  0  0  0  2  0  0  0  0  0  0
  -24.6700  -30.9660   21.9290 N   0  0  0  0  0  0  0  0  0  0  0  0
  -23.5160  -31.9020   23.6430 O   0  0  0  0  0  0  0  0  0  0  0  0
  -22.8220  -29.2530   22.2820 C   0  0  0  0  0  0  0  0  0  0  0  0
  -21.5020  -29.0320   22.1650 N   0  0  0  0  0  0  0  0  0  0  0  0
  -23.5380  -28.6090   23.0530 O   0  0  0  0  0  0  0  0  0  0  0  0
  -20.9810  -29.6110   21.5200 H   0  0  0  0  0  0  0  0  0  0  0  0
  -18.1810  -27.6960   22.6480 C   0  0  0  0  0  0  0  0  0  0  0  0
  -20.7330  -28.0230   22.8910 C   0  0  0  0  0  3  0  0  0  0  0  0
  -20.8710  -26.6340   22.2280 C   0  0  0  0  0  2  0  0  0  0  0  0
  -19.7610  -26.3350   21.2140 C   0  0  0  0  0  2  0  0  0  0  0  0
  -18.3870  -26.3940   21.8910 C   0  0  0  0  0  2  0  0  0  0  0  0
  -19.2820  -28.4670   23.1050 C   0  0  0  0  0  0  0  0  0  0  0  0
  -19.0330  -29.6840   23.7770 C   0  0  0  0  0  3  0  0  0  0  0  0
  -17.7160  -30.1310   23.9950 C   0  0  0  0  0  3  0  0  0  0  0  0
  -16.6300  -29.3560   23.5540 C   0  0  0  0  0  3  0  0  0  0  0  0
  -16.8620  -28.1400   22.8870 C   0  0  0  0  0  3  0  0  0  0  0  0
  -25.8680  -32.3480   23.7150 C   0  0  0  0  0  3  0  0  0  0  0  0
  -25.5230  -33.7250   24.0930 N   0  0  0  0  0  0  0  0  0  0  0  0
  -25.8310  -34.8110   23.3710 C   0  0  0  0  0  0  0  0  0  0  0  0
  -26.5040  -34.7590   22.3370 O   0  0  0  0  0  0  0  0  0  0  0  0
  -24.9240  -33.8380   24.8970 H   0  0  0  0  0  0  0  0  0  0  0  0
  -24.0570  -36.5690   23.0710 C   0  0  0  0  0  1  0  0  0  0  0  0
  -25.3070  -36.1690   23.8730 C   0  0  0  0  0  3  0  0  0  0  0  0
  -27.4140  -37.0830   24.7400 C   0  0  0  0  0  1  0  0  0  0  0  0
  -26.3110  -37.2520   23.7970 N   0  0  0  0  0  0  0  0  0  0  0  0
  -25.8810  -38.1570   23.9740 H   0  0  0  0  0  0  0  0  0  0  0  0
  -26.4110  -31.5490   24.9620 C   0  0  1  0  0  0  0  0  0  0  0  0
  -25.3300  -31.2470   26.0270 C   0  0  0  0  0  1  0  0  0  0  0  0
  -27.0260  -30.2020   24.5200 C   0  0  0  0  0  1  0  0  0  0  0  0
  -27.5480  -32.3470   25.6430 C   0  0  0  0  0  1  0  0  0  0  0  0
  -29.9500  -17.0770   21.0200 C   0  0  0  0  0  2  0  0  0  0  0  0
  -30.4690  -14.8040   20.0440 C   0  0  0  0  0  0  0  0  0  0  0  0
  -30.2120  -12.5480   19.0600 C   0  0  0  0  0  2  0  0  0  0  0  0
  -29.2220  -12.6240   17.8790 C   0  0  0  0  0  2  0  0  0  0  0  0
  -27.7690  -12.4710   18.3760 C   0  0  0  0  0  2  0  0  0  0  0  0
  -27.4400  -13.3520   19.6090 C   0  0  0  0  0  3  0  0  0  0  0  0
  -28.5520  -13.2800   20.6790 C   0  0  0  0  0  2  0  0  0  0  0  0
  -29.8280  -13.5960   20.0200 N   0  0  0  0  0  0  0  0  0  0  0  0
  -31.6650  -14.9150   19.7650 O   0  0  0  0  0  0  0  0  0  0  0  0
  -28.9440  -16.3280   18.8970 C   0  0  0  0  0  1  0  0  0  0  0  0
  -29.6760  -15.9210   20.1120 N   0  0  0  0  0  0  0  0  0  0  0  0
  -25.0860  -13.9380   20.4430 C   0  0  0  0  0  0  0  0  0  0  0  0
  -24.0410  -13.1540   20.8490 C   0  0  0  0  0  0  0  0  0  0  0  0
  -24.5130  -11.8080   20.7830 C   0  0  0  0  0  0  0  0  0  0  0  0
  -26.1230  -13.0630   20.1570 N   0  0  0  0  0  0  0  0  0  0  0  0
  -25.7880  -11.7770   20.4230 N   0  0  0  0  0  0  0  0  0  0  0  0
  -23.8080  -10.5380   20.9860 C   0  0  0  0  0  0  0  0  0  0  0  0
  -24.2790   -9.5720   21.9030 C   0  0  0  0  0  3  0  0  0  0  0  0
  -23.5740   -8.3650   22.0920 C   0  0  0  0  0  3  0  0  0  0  0  0
  -22.3860   -8.1160   21.3640 C   0  0  0  0  0  0  0  0  0  0  0  0
  -21.9390   -9.0680   20.4320 C   0  0  0  0  0  3  0  0  0  0  0  0
  -22.6440  -10.2670   20.2410 C   0  0  0  0  0  3  0  0  0  0  0  0
  -21.6510   -6.9600   21.4670 O   0  0  0  0  0  0  0  0  0  0  0  0
  -21.6270   -6.2240   22.6230 C   0  0  0  0  0  0  0  0  0  0  0  0
  -21.1980   -6.7740   23.8520 C   0  0  0  0  0  3  0  0  0  0  0  0
  -21.1230   -5.9610   24.9990 C   0  0  0  0  0  3  0  0  0  0  0  0
  -21.4680   -4.5980   24.9200 C   0  0  0  0  0  0  0  0  0  0  0  0
  -21.8880   -4.0470   23.6970 C   0  0  0  0  0  3  0  0  0  0  0  0
  -21.9640   -4.8580   22.5520 C   0  0  0  0  0  0  0  0  0  0  0  0
  -22.3490   -4.3190   21.3700 F   0  0  0  0  0  0  0  0  0  0  0  0
  -21.3910   -3.8120   26.0200 F   0  0  0  0  0  0  0  0  0  0  0  0
  -22.6530  -13.6160   21.1820 C   0  0  0  0  0  0  0  0  0  0  0  0
  -21.9690  -12.9010   22.0690 N   0  0  0  0  0  0  0  0  0  0  0  0
  -22.1830  -14.6420   20.6920 O   0  0  0  0  0  0  0  0  0  0  0  0
  -22.3680  -12.0700   22.4810 H   0  0  0  0  0  0  0  0  0  0  0  0
  -21.0380  -13.1850   22.3330 H   0  0  0  0  0  0  0  0  0  0  0  0
  -25.2330  -15.3120   20.2760 N   0  0  0  0  0  0  0  0  0  0  0  0
  -24.4720  -15.9620   20.4370 H   0  0  0  0  0  0  0  0  0  0  0  0
  -26.0860  -15.7630   19.9680 H   0  0  0  0  0  0  0  0  0  0  0  0
  1  3  1  0
  2  1  2  0
  3 59  1  0
  4  2  1  0
  4  5  2  0
  5  6  1  0
  6  3  2  0
  6  7  1  0
  8 10  1  0
  9  8  1  0
  9 11  1  0
 10 12  1  0
 11 12  1  0
 12  4  1  0
 13  5  1  0
 13 14  1  0
 13 15  1  0
 16 15  1  0
 17 18  1  0
 17 16  1  0
 18 20  1  0
 19 30  2  0
 20 25  1  0
 21 29  1  0
 21 31  1  0
 22 28  1  0
 22 24  1  0
 23 29  1  0
 24 23  1  0
 25 24  2  0
 26 27  1  0
 26 20  2  0
 27 22  2  0
 28 21  1  0
 29 19  1  0
 31 33  2  0
 32 31  1  0
 34 32  1  0
 35 44  2  0
 35 40  1  0
 36 32  1  0
 36 40  1  0
 37 36  1  0
 38 39  1  0
 38 37  1  0
 39 35  1  0
 40 41  2  0
 41 42  1  0
 43 42  2  0
 44 43  1  0
 45 19  1  0
 45 46  1  0
 45 55  1  0
 46 49  1  0
 47 51  1  0
 47 46  1  0
 48 47  2  0
 51 50  1  0
 53 51  1  0
 53 54  1  0
 53 52  1  0
 55 58  1  1
 55 56  1  0
 57 55  1  0
 60 69  1  0
 61 66  1  0
 62 63  1  0
 62 61  1  0
 64 63  1  0
 64 73  1  0
 64 65  1  0
 66 60  1  0
 66 65  1  0
 67 60  2  0
 68 69  1  0
 69 59  1  0
 70 71  2  0
 71 90  1  0
 72 71  1  0
 72 75  1  0
 73 74  1  0
 73 70  1  0
 74 72  2  0
 75 76  1  0
 76 77  2  0
 78 81  1  0
 78 77  1  0
 79 78  2  0
 80 79  1  0
 80 75  2  0
 81 82  1  0
 82 83  1  0
 83 84  2  0
 85 84  1  0
 85 89  1  0
 86 85  2  0
 87 82  2  0
 87 86  1  0
 88 87  1  0
 90 91  1  0
 91 94  1  0
 91 93  1  0
 92 90  2  0
 95 96  1  0
 95 70  1  0
 97 95  1  0
M  ISO  4  17 101  18 101  60 100  69 100
M  END
>  <TORSDO>  (3) 
F 22

>  <SCORE>  (3) 
-12.339

>  <name>  (3) 
2

>  <ligand_id>  (3) 
2

>  <original_smiles>  (3) 
[H]c1c([H])c([H])c2c(c1[H])C([H])([H])C([H])([H])C([H])([H])C2([H])N([H])C(=O)C1([H])N(C(=O)C([H])(N([H])C(=O)C([H])(N([H])C([H])([H])[H])C([H])([H])[H])C(C([H])([H])[H])(C([H])([H])[H])C([H])([H])[H])C([H])([H])c2c([H])c(OC([H])([H])C([H])([H])C([H])([H])N([H])c3c(Cl)c(C([H])([H])N(C(=O)N4C([H])([H])C([H])([H])C([H])([H])C([H])(n5nc(-c6c([H])c([H])c(Oc7c([H])c([H])c(F)c([H])c7F)c([H])c6[H])c(C(=O)N([H])[H])c5N([H])[H])C4([H])[H])C([H])([H])[H])c([H])c([H])c3N3C([H])([H])C([H])([H])C([H])([H])C3([H])[H])c([H])c([H])c2C1([H])[H]

>  <smiles>  (3) 
[H]c1c([H])c([H])c2c(c1[H])C([H])([H])C([H])([H])C([H])([H])C2([H])N([H])C(=O)C1([H])N(C(=O)C([H])(N([H])C(=O)C([H])(N([H])C([H])([H])[H])C([H])([H])[H])C(C([H])([H])[H])(C([H])([H])[H])C([H])([H])[H])C([H])([H])c2c([H])c(OC([H])([H])C([H])([H])C([H])([H])N([H])c3c(Cl)c(C([H])([H])N(C(=O)N4C([H])([H])C([H])([H])C([H])([H])C([H])(n5nc(-c6c([H])c([H])c(Oc7c([H])c([H])c(F)c([H])c7F)c([H])c6[H])c(C(=O)N([H])[H])c5N([H])[H])C4([H])[H])C([H])([H])[H])c([H])c([H])c3N3C([H])([H])C([H])([H])C([H])([H])C3([H])[H])c([H])c([H])c2C1([H])[H]

$$$$
3:0:0
     RDKit          3D

 91100  0  0  1  0  0  0  0  0999 V2000
  -27.9500  -21.1670   19.6860 C   0  0  0  0  0  3  0  0  0  0  0  0
  -27.6650  -22.5760   19.7750 C   0  0  0  0  0  3  0  0  0  0  0  0
  -29.5760  -22.8490   21.1410 C   0  0  0  0  0  3  0  0  0  0  0  0
  -29.0510  -20.5010   20.3180 C   0  0  0  0  0  0  0  0  0  0  0  0
  -28.4540  -23.5030   20.5180 C   0  0  0  0  0  0  0  0  0  0  0  0
  -29.8730  -21.4260   21.0440 C   0  0  0  0  0  0  0  0  0  0  0  0
  -30.9710  -20.9510   21.6780 F   0  0  0  0  0  0  0  0  0  0  0  0
  -30.5750  -15.0340   20.7050 C   0  0  0  0  0  0  0  0  0  0  0  0
  -30.5220  -12.6540   19.8660 C   0  0  0  0  0  2  0  0  0  0  0  0
  -29.6670  -12.5170   18.5860 C   0  0  0  0  0  2  0  0  0  0  0  0
  -28.1710  -12.3510   18.9320 C   0  0  0  0  0  2  0  0  0  0  0  0
  -27.6770  -13.3110   20.0470 C   0  0  0  0  0  3  0  0  0  0  0  0
  -28.6690  -13.4000   21.2240 C   0  0  0  0  0  2  0  0  0  0  0  0
  -29.9730  -13.7810   20.6600 N   0  0  0  0  0  0  0  0  0  0  0  0
  -31.8100  -15.0810   20.7160 O   0  0  0  0  0  0  0  0  0  0  0  0
  -29.8750  -17.2570   18.1480 C   0  0  0  0  0  2  0  0  0  0  0  0
  -29.7520  -18.7270   18.5920 C   0  0  0  0  0  2  0  0  0  0  0  0
  -29.1870  -16.2550   19.0980 C   0  0  0  0  0  2  0  0  0  0  0  0
  -29.9580  -17.6920   20.9340 C   0  0  0  0  0  2  0  0  0  0  0  0
  -29.2520  -18.8980   20.0360 C   0  0  0  0  0  3  0  0  0  0  0  0
  -29.8140  -16.2080   20.4340 N   0  0  0  0  0  0  0  0  0  0  0  0
  -25.2550  -13.8980   20.6220 C   0  0  0  0  0  0  0  0  0  0  0  0
  -24.1710  -13.1230   20.9280 C   0  0  0  0  0  0  0  0  0  0  0  0
  -24.6480  -11.7760   20.9570 C   0  0  0  0  0  0  0  0  0  0  0  0
  -26.3160  -13.0200   20.4720 N   0  0  0  0  0  0  0  0  0  0  0  0
  -25.9570  -11.7420   20.7420 N   0  0  0  0  0  0  0  0  0  0  0  0
  -23.9220  -10.5120   21.1190 C   0  0  0  0  0  0  0  0  0  0  0  0
  -24.3080   -9.5590   22.0870 C   0  0  0  0  0  3  0  0  0  0  0  0
  -23.5840   -8.3570   22.2360 C   0  0  0  0  0  3  0  0  0  0  0  0
  -22.4600   -8.0990   21.4160 C   0  0  0  0  0  0  0  0  0  0  0  0
  -22.0940   -9.0410   20.4380 C   0  0  0  0  0  3  0  0  0  0  0  0
  -22.8200  -10.2350   20.2870 C   0  0  0  0  0  3  0  0  0  0  0  0
  -21.7120   -6.9490   21.4750 O   0  0  0  0  0  0  0  0  0  0  0  0
  -21.6080   -6.2170   22.6300 C   0  0  0  0  0  0  0  0  0  0  0  0
  -21.1040   -6.7770   23.8240 C   0  0  0  0  0  3  0  0  0  0  0  0
  -20.9500   -5.9710   24.9690 C   0  0  0  0  0  3  0  0  0  0  0  0
  -21.2880   -4.6050   24.9200 C   0  0  0  0  0  0  0  0  0  0  0  0
  -21.7850   -4.0450   23.7300 C   0  0  0  0  0  3  0  0  0  0  0  0
  -21.9430   -4.8490   22.5870 C   0  0  0  0  0  0  0  0  0  0  0  0
  -22.4030   -4.3000   21.4370 F   0  0  0  0  0  0  0  0  0  0  0  0
  -21.1330   -3.8270   26.0170 F   0  0  0  0  0  0  0  0  0  0  0  0
  -22.7540  -13.5920   21.0870 C   0  0  0  0  0  0  0  0  0  0  0  0
  -21.9740  -12.9090   21.9180 N   0  0  0  0  0  0  0  0  0  0  0  0
  -22.3460  -14.5980   20.5100 O   0  0  0  0  0  0  0  0  0  0  0  0
  -22.3180  -12.0950   22.4050 H   0  0  0  0  0  0  0  0  0  0  0  0
  -21.0210  -13.2060   22.0720 H   0  0  0  0  0  0  0  0  0  0  0  0
  -25.4220  -15.2680   20.4350 N   0  0  0  0  0  0  0  0  0  0  0  0
  -24.6490  -15.9220   20.4980 H   0  0  0  0  0  0  0  0  0  0  0  0
  -26.3020  -15.7120   20.2080 H   0  0  0  0  0  0  0  0  0  0  0  0
  -27.8970  -24.9940   20.8810 C   0  0  0  0  0  2  0  0  0  0  0  0
  -28.1510  -26.3230   20.1740 O   0  0  0  0  0  0  0  0  0  0  0  0
  -24.5440  -31.9440   23.2330 C   0  0  0  0  0  0  0  0  0  0  0  0
  -27.0960  -27.2850   20.1710 C   0  0  0  0  0  0  0  0  0  0  0  0
  -23.3230  -30.5470   21.6090 C   0  0  0  0  0  3  0  0  0  0  0  0
  -24.7570  -28.9810   20.1660 C   0  0  0  0  0  0  0  0  0  0  0  0
  -25.8710  -30.8320   21.4070 C   0  0  0  0  0  2  0  0  0  0  0  0
  -25.9410  -29.4450   20.7580 C   0  0  0  0  0  0  0  0  0  0  0  0
  -27.1160  -28.6110   20.7450 C   0  0  0  0  0  3  0  0  0  0  0  0
  -25.8900  -26.9080   19.5440 C   0  0  0  0  0  3  0  0  0  0  0  0
  -24.7410  -27.7240   19.5440 C   0  0  0  0  0  3  0  0  0  0  0  0
  -23.5260  -29.8700   20.2280 C   0  0  0  0  0  2  0  0  0  0  0  0
  -24.6000  -31.1290   22.1390 N   0  0  0  0  0  0  0  0  0  0  0  0
  -23.4670  -32.2290   23.7750 O   0  0  0  0  0  0  0  0  0  0  0  0
  -22.6610  -29.5380   22.5790 C   0  0  0  0  0  0  0  0  0  0  0  0
  -21.3340  -29.3570   22.4580 N   0  0  0  0  0  0  0  0  0  0  0  0
  -23.3420  -28.9220   23.4020 O   0  0  0  0  0  0  0  0  0  0  0  0
  -20.8430  -29.9040   21.7640 H   0  0  0  0  0  0  0  0  0  0  0  0
  -17.9630  -28.1340   22.9730 C   0  0  0  0  0  0  0  0  0  0  0  0
  -20.5200  -28.4210   23.2370 C   0  0  0  0  0  3  0  0  0  0  0  0
  -20.6340  -26.9840   22.6730 C   0  0  0  0  0  2  0  0  0  0  0  0
  -19.5330  -26.6410   21.6640 C   0  0  0  0  0  2  0  0  0  0  0  0
  -18.1510  -26.7810   22.3080 C   0  0  0  0  0  2  0  0  0  0  0  0
  -19.0760  -28.9110   23.3950 C   0  0  0  0  0  0  0  0  0  0  0  0
  -18.8440  -30.1760   23.9790 C   0  0  0  0  0  3  0  0  0  0  0  0
  -17.5340  -30.6650   24.1430 C   0  0  0  0  0  3  0  0  0  0  0  0
  -16.4380  -29.8860   23.7360 C   0  0  0  0  0  3  0  0  0  0  0  0
  -16.6530  -28.6230   23.1560 C   0  0  0  0  0  3  0  0  0  0  0  0
  -25.8330  -32.5790   23.8430 C   0  0  0  0  0  3  0  0  0  0  0  0
  -25.5300  -33.9800   24.1690 N   0  0  0  0  0  0  0  0  0  0  0  0
  -25.8720  -35.0310   23.4110 C   0  0  0  0  0  0  0  0  0  0  0  0
  -26.5420  -34.9210   22.3810 O   0  0  0  0  0  0  0  0  0  0  0  0
  -24.9330  -34.1390   24.9670 H   0  0  0  0  0  0  0  0  0  0  0  0
  -24.1720  -36.8490   23.0400 C   0  0  0  0  0  1  0  0  0  0  0  0
  -25.3950  -36.4240   23.8680 C   0  0  0  0  0  3  0  0  0  0  0  0
  -27.5270  -37.2800   24.7360 C   0  0  0  0  0  1  0  0  0  0  0  0
  -26.4430  -37.4650   23.7750 N   0  0  0  0  0  0  0  0  0  0  0  0
  -26.0460  -38.3890   23.9180 H   0  0  0  0  0  0  0  0  0  0  0  0
  -26.3520  -31.8140   25.1240 C   0  0  1  0  0  0  0  0  0  0  0  0
  -25.2650  -31.5910   26.1990 C   0  0  0  0  0  1  0  0  0  0  0  0
  -26.9250  -30.4300   24.7410 C   0  0  0  0  0  1  0  0  0  0  0  0
  -27.5130  -32.6070   25.7710 C   0  0  0  0  0  1  0  0  0  0  0  0
  1  2  2  0
  1  4  1  0
  2  5  1  0
  4  6  2  0
  5 50  1  0
  5  3  2  0
  6  3  1  0
  6  7  1  0
  8 15  2  0
  9 14  1  0
 10 11  1  0
 10  9  1  0
 12 11  1  0
 12 25  1  0
 12 13  1  0
 14  8  1  0
 14 13  1  0
 16 17  1  0
 16 18  1  0
 17 20  1  0
 18 21  1  0
 20  4  1  0
 20 19  1  0
 21  8  1  0
 21 19  1  0
 22 23  2  0
 23 24  1  0
 23 42  1  0
 24 27  1  0
 25 22  1  0
 25 26  1  0
 26 24  2  0
 27 28  1  0
 28 29  2  0
 30 33  1  0
 30 29  1  0
 31 30  2  0
 32 31  1  0
 32 27  2  0
 33 34  1  0
 34 35  1  0
 35 36  2  0
 37 36  1  0
 37 41  1  0
 38 37  2  0
 39 34  2  0
 39 38  1  0
 40 39  1  0
 42 43  1  0
 43 46  1  0
 43 45  1  0
 44 42  2  0
 47 48  1  0
 47 22  1  0
 49 47  1  0
 51 50  1  0
 52 63  2  0
 53 51  1  0
 53 58  1  0
 54 62  1  0
 54 64  1  0
 55 61  1  0
 55 57  1  0
 56 62  1  0
 57 56  1  0
 58 57  2  0
 59 60  1  0
 59 53  2  0
 60 55  2  0
 61 54  1  0
 62 52  1  0
 64 66  2  0
 65 64  1  0
 67 65  1  0
 68 77  2  0
 68 73  1  0
 69 65  1  0
 69 73  1  0
 70 69  1  0
 71 72  1  0
 71 70  1  0
 72 68  1  0
 73 74  2  0
 74 75  1  0
 76 75  2  0
 77 76  1  0
 78 52  1  0
 78 79  1  0
 78 88  1  0
 79 82  1  0
 80 84  1  0
 80 79  1  0
 81 80  2  0
 84 83  1  0
 86 84  1  0
 86 87  1  0
 86 85  1  0
 88 91  1  1
 88 89  1  0
 90 88  1  0
M  ISO  4   8 100  21 100  50 101  51 101
M  END
>  <TORSDO>  (4) 
F 17

>  <SCORE>  (4) 
-14.830

>  <name>  (4) 
3

>  <ligand_id>  (4) 
3

>  <original_smiles>  (4) 
[H]c1c([H])c([H])c2c(c1[H])C([H])([H])C([H])([H])C([H])([H])C2([H])N([H])C(=O)C1([H])N(C(=O)C([H])(N([H])C(=O)C([H])(N([H])C([H])([H])[H])C([H])([H])[H])C(C([H])([H])[H])(C([H])([H])[H])C([H])([H])[H])C([H])([H])c2c([H])c(OC([H])([H])c3c([H])c([H])c(C4([H])C([H])([H])N(C(=O)N5C([H])([H])C([H])([H])C([H])([H])C([H])(n6nc(-c7c([H])c([H])c(Oc8c([H])c([H])c(F)c([H])c8F)c([H])c7[H])c(C(=O)N([H])[H])c6N([H])[H])C5([H])[H])C([H])([H])C([H])([H])C4([H])[H])c(F)c3[H])c([H])c([H])c2C1([H])[H]

>  <smiles>  (4) 
[H]c1c([H])c([H])c2c(c1[H])C([H])([H])C([H])([H])C([H])([H])C2([H])N([H])C(=O)C1([H])N(C(=O)C([H])(N([H])C(=O)C([H])(N([H])C([H])([H])[H])C([H])([H])[H])C(C([H])([H])[H])(C([H])([H])[H])C([H])([H])[H])C([H])([H])c2c([H])c(OC([H])([H])c3c([H])c([H])c(C4([H])C([H])([H])N(C(=O)N5C([H])([H])C([H])([H])C([H])([H])C([H])(n6nc(-c7c([H])c([H])c(Oc8c([H])c([H])c(F)c([H])c8F)c([H])c7[H])c(C(=O)N([H])[H])c6N([H])[H])C5([H])[H])C([H])([H])C([H])([H])C4([H])[H])c(F)c3[H])c([H])c([H])c2C1([H])[H]

$$$$
4:0:0
     RDKit          3D

 91100  0  0  1  0  0  0  0  0999 V2000
  -28.3000  -24.1870   18.1660 C   0  0  0  0  0  2  0  0  0  0  0  0
  -28.9830  -22.7710   18.0480 C   0  0  0  0  0  2  0  0  0  0  0  0
  -28.7610  -23.3150   20.3370 C   0  0  0  0  0  2  0  0  0  0  0  0
  -28.7200  -24.7500   19.5300 C   0  0  0  0  0  3  0  0  0  0  0  0
  -29.1000  -22.1580   19.3820 N   0  0  0  0  0  0  0  0  0  0  0  0
  -29.8160  -19.8500   18.4180 C   0  0  0  0  0  3  0  0  0  0  0  0
  -30.1070  -18.4210   18.4920 C   0  0  0  0  0  3  0  0  0  0  0  0
  -29.4190  -19.9240   20.7270 C   0  0  0  0  0  3  0  0  0  0  0  0
  -29.6730  -18.4860   20.8090 C   0  0  0  0  0  0  0  0  0  0  0  0
  -29.4460  -20.7050   19.5230 C   0  0  0  0  0  0  0  0  0  0  0  0
  -30.0390  -17.6410   19.6950 C   0  0  0  0  0  0  0  0  0  0  0  0
  -29.5210  -17.8290   22.1710 C   0  0  0  0  0  1  0  0  0  0  0  0
  -30.9440  -15.0240   19.3850 C   0  0  0  0  0  0  0  0  0  0  0  0
  -30.7640  -12.6590   18.4840 C   0  0  0  0  0  2  0  0  0  0  0  0
  -29.6210  -12.5970   17.4410 C   0  0  0  0  0  2  0  0  0  0  0  0
  -28.2640  -12.3540   18.1290 C   0  0  0  0  0  2  0  0  0  0  0  0
  -28.0570  -13.2700   19.3650 C   0  0  0  0  0  3  0  0  0  0  0  0
  -29.2970  -13.2810   20.2850 C   0  0  0  0  0  2  0  0  0  0  0  0
  -30.4350  -13.7280   19.4680 N   0  0  0  0  0  0  0  0  0  0  0  0
  -32.0350  -15.1720   18.8220 O   0  0  0  0  0  0  0  0  0  0  0  0
  -30.1460  -16.1100   19.8370 N   0  0  0  0  0  0  0  0  0  0  0  0
  -29.4010  -15.7410   20.4070 H   0  0  0  0  0  0  0  0  0  0  0  0
  -25.9630  -13.8090   20.7330 C   0  0  0  0  0  0  0  0  0  0  0  0
  -24.9320  -13.0310   21.1840 C   0  0  0  0  0  0  0  0  0  0  0  0
  -25.2400  -11.6950   20.7830 C   0  0  0  0  0  0  0  0  0  0  0  0
  -26.8350  -12.9470   20.0900 N   0  0  0  0  0  0  0  0  0  0  0  0
  -26.4220  -11.6560   20.1790 N   0  0  0  0  0  0  0  0  0  0  0  0
  -24.4490  -10.4610   20.8880 C   0  0  0  0  0  0  0  0  0  0  0  0
  -24.8440   -9.3990   21.7310 C   0  0  0  0  0  3  0  0  0  0  0  0
  -24.0560   -8.2330   21.8290 C   0  0  0  0  0  3  0  0  0  0  0  0
  -22.8570   -8.1200   21.0840 C   0  0  0  0  0  0  0  0  0  0  0  0
  -22.4800   -9.1720   20.2290 C   0  0  0  0  0  3  0  0  0  0  0  0
  -23.2690  -10.3290   20.1290 C   0  0  0  0  0  3  0  0  0  0  0  0
  -22.0410   -7.0150   21.0970 O   0  0  0  0  0  0  0  0  0  0  0  0
  -21.7650   -6.3380   22.2580 C   0  0  0  0  0  0  0  0  0  0  0  0
  -21.1500   -6.9690   23.3600 C   0  0  0  0  0  3  0  0  0  0  0  0
  -20.8210   -6.2200   24.5070 C   0  0  0  0  0  3  0  0  0  0  0  0
  -21.0970   -4.8410   24.5510 C   0  0  0  0  0  0  0  0  0  0  0  0
  -21.7040   -4.2090   23.4520 C   0  0  0  0  0  3  0  0  0  0  0  0
  -22.0340   -4.9550   22.3070 C   0  0  0  0  0  0  0  0  0  0  0  0
  -22.6000   -4.3370   21.2430 F   0  0  0  0  0  0  0  0  0  0  0  0
  -20.7740   -4.1180   25.6490 F   0  0  0  0  0  0  0  0  0  0  0  0
  -23.6820  -13.5140   21.8610 C   0  0  0  0  0  0  0  0  0  0  0  0
  -23.1250  -12.7140   22.7620 N   0  0  0  0  0  0  0  0  0  0  0  0
  -23.2210  -14.6310   21.6270 O   0  0  0  0  0  0  0  0  0  0  0  0
  -23.5150  -11.8070   22.9680 H   0  0  0  0  0  0  0  0  0  0  0  0
  -22.2950  -13.0150   23.2550 H   0  0  0  0  0  0  0  0  0  0  0  0
  -26.2190  -15.1760   20.7910 N   0  0  0  0  0  0  0  0  0  0  0  0
  -25.5520  -15.8270   21.1900 H   0  0  0  0  0  0  0  0  0  0  0  0
  -26.9870  -15.6370   20.3190 H   0  0  0  0  0  0  0  0  0  0  0  0
  -28.4890  -26.2410   19.9570 O   0  0  0  0  0  0  0  0  0  0  0  0
  -24.7040  -31.5770   23.2700 C   0  0  0  0  0  0  0  0  0  0  0  0
  -27.3510  -27.1200   19.9310 C   0  0  0  0  0  0  0  0  0  0  0  0
  -23.5140  -30.2610   21.5560 C   0  0  0  0  0  3  0  0  0  0  0  0
  -24.9760  -28.7980   20.0230 C   0  0  0  0  0  0  0  0  0  0  0  0
  -26.0560  -30.5920   21.3800 C   0  0  0  0  0  2  0  0  0  0  0  0
  -26.1480  -29.2430   20.6450 C   0  0  0  0  0  0  0  0  0  0  0  0
  -27.3290  -28.4180   20.5800 C   0  0  0  0  0  3  0  0  0  0  0  0
  -26.1510  -26.7640   19.2820 C   0  0  0  0  0  3  0  0  0  0  0  0
  -24.9900  -27.5750   19.3260 C   0  0  0  0  0  3  0  0  0  0  0  0
  -23.7310  -29.6660   20.1350 C   0  0  0  0  0  2  0  0  0  0  0  0
  -24.7780  -30.8290   22.1250 N   0  0  0  0  0  0  0  0  0  0  0  0
  -23.6190  -31.8050   23.8260 O   0  0  0  0  0  0  0  0  0  0  0  0
  -22.8650  -29.1870   22.4630 C   0  0  0  0  0  0  0  0  0  0  0  0
  -21.5470  -28.9690   22.3080 N   0  0  0  0  0  0  0  0  0  0  0  0
  -23.5510  -28.5510   23.2680 O   0  0  0  0  0  0  0  0  0  0  0  0
  -21.0490  -29.5360   21.6360 H   0  0  0  0  0  0  0  0  0  0  0  0
  -18.2090  -27.6210   22.7120 C   0  0  0  0  0  0  0  0  0  0  0  0
  -20.7550  -27.9650   23.0220 C   0  0  0  0  0  3  0  0  0  0  0  0
  -20.9150  -26.5680   22.3760 C   0  0  0  0  0  2  0  0  0  0  0  0
  -19.8360  -26.2580   21.3340 C   0  0  0  0  0  2  0  0  0  0  0  0
  -18.4440  -26.3180   21.9680 C   0  0  0  0  0  2  0  0  0  0  0  0
  -19.2940  -28.4020   23.1930 C   0  0  0  0  0  0  0  0  0  0  0  0
  -19.0210  -29.6220   23.8490 C   0  0  0  0  0  3  0  0  0  0  0  0
  -17.6970  -30.0630   24.0280 C   0  0  0  0  0  3  0  0  0  0  0  0
  -16.6260  -29.2800   23.5620 C   0  0  0  0  0  3  0  0  0  0  0  0
  -16.8830  -28.0600   22.9110 C   0  0  0  0  0  3  0  0  0  0  0  0
  -25.9770  -32.1970   23.9250 C   0  0  0  0  0  3  0  0  0  0  0  0
  -25.6640  -33.5900   24.2840 N   0  0  0  0  0  0  0  0  0  0  0  0
  -25.9370  -34.6560   23.5220 C   0  0  0  0  0  0  0  0  0  0  0  0
  -26.5470  -34.5730   22.4520 O   0  0  0  0  0  0  0  0  0  0  0  0
  -25.1190  -33.7270   25.1220 H   0  0  0  0  0  0  0  0  0  0  0  0
  -24.1610  -36.4260   23.3050 C   0  0  0  0  0  1  0  0  0  0  0  0
  -25.4630  -36.0340   24.0240 C   0  0  0  0  0  3  0  0  0  0  0  0
  -27.6290  -36.9600   24.7200 C   0  0  0  0  0  1  0  0  0  0  0  0
  -26.4680  -37.1060   23.8470 N   0  0  0  0  0  0  0  0  0  0  0  0
  -26.0550  -38.0190   24.0180 H   0  0  0  0  0  0  0  0  0  0  0  0
  -26.4710  -31.4020   25.1960 C   0  0  1  0  0  0  0  0  0  0  0  0
  -25.3650  -31.1620   26.2500 C   0  0  0  0  0  1  0  0  0  0  0  0
  -27.0410  -30.0230   24.7910 C   0  0  0  0  0  1  0  0  0  0  0  0
  -27.6250  -32.1710   25.8810 C   0  0  0  0  0  1  0  0  0  0  0  0
  1  4  1  0
  2  1  1  0
  2  5  1  0
  4 51  1  0
  4  3  1  0
  5 10  1  0
  5  3  1  0
  6  7  2  0
  6 10  1  0
  7 11  1  0
  8  9  1  0
  9 12  1  0
 10  8  2  0
 11 21  1  0
 11  9  2  0
 13 19  1  0
 13 21  1  0
 14 19  1  0
 15 16  1  0
 15 14  1  0
 17 16  1  0
 17 26  1  0
 17 18  1  0
 19 18  1  0
 20 13  2  0
 21 22  1  0
 23 48  1  0
 23 24  2  0
 24 43  1  0
 25 28  1  0
 25 24  1  0
 26 27  1  0
 26 23  1  0
 27 25  2  0
 28 29  1  0
 29 30  2  0
 31 34  1  0
 31 30  1  0
 32 31  2  0
 33 32  1  0
 33 28  2  0
 34 35  1  0
 35 40  2  0
 35 36  1  0
 36 37  2  0
 37 38  1  0
 38 42  1  0
 39 38  2  0
 40 39  1  0
 41 40  1  0
 43 44  1  0
 44 46  1  0
 44 47  1  0
 45 43  2  0
 48 49  1  0
 50 48  1  0
 52 63  2  0
 53 51  1  0
 53 58  1  0
 54 62  1  0
 54 64  1  0
 55 61  1  0
 55 57  1  0
 56 62  1  0
 57 56  1  0
 58 57  2  0
 59 60  1  0
 59 53  2  0
 60 55  2  0
 61 54  1  0
 62 52  1  0
 64 66  2  0
 65 64  1  0
 67 65  1  0
 68 77  2  0
 68 73  1  0
 69 65  1  0
 69 73  1  0
 70 69  1  0
 71 72  1  0
 71 70  1  0
 72 68  1  0
 73 74  2  0
 74 75  1  0
 76 75  2  0
 77 76  1  0
 78 52  1  0
 78 79  1  0
 78 88  1  0
 79 82  1  0
 80 84  1  0
 80 79  1  0
 81 80  2  0
 84 83  1  0
 86 87  1  0
 86 84  1  0
 86 85  1  0
 88 91  1  1
 88 89  1  0
 90 88  1  0
M  ISO  4   4 101  13 100  21 100  51 101
M  END
>  <TORSDO>  (5) 
F 17

>  <SCORE>  (5) 
-10.960

>  <name>  (5) 
4

>  <ligand_id>  (5) 
4

>  <original_smiles>  (5) 
[H]c1c([H])c([H])c2c(c1[H])C([H])([H])C([H])([H])C([H])([H])C2([H])N([H])C(=O)C1([H])N(C(=O)C([H])(N([H])C(=O)C([H])(N([H])C([H])([H])[H])C([H])([H])[H])C(C([H])([H])[H])(C([H])([H])[H])C([H])([H])[H])C([H])([H])c2c([H])c(OC3([H])C([H])([H])N(c4c([H])c([H])c(N([H])C(=O)N5C([H])([H])C([H])([H])C([H])([H])C([H])(n6nc(-c7c([H])c([H])c(Oc8c([H])c([H])c(F)c([H])c8F)c([H])c7[H])c(C(=O)N([H])[H])c6N([H])[H])C5([H])[H])c(C([H])([H])[H])c4[H])C([H])([H])C3([H])[H])c([H])c([H])c2C1([H])[H]

>  <smiles>  (5) 
[H]c1c([H])c([H])c2c(c1[H])C([H])([H])C([H])([H])C([H])([H])C2([H])N([H])C(=O)C1([H])N(C(=O)C([H])(N([H])C(=O)C([H])(N([H])C([H])([H])[H])C([H])([H])[H])C(C([H])([H])[H])(C([H])([H])[H])C([H])([H])[H])C([H])([H])c2c([H])c(OC3([H])C([H])([H])N(c4c([H])c([H])c(N([H])C(=O)N5C([H])([H])C([H])([H])C([H])([H])C([H])(n6nc(-c7c([H])c([H])c(Oc8c([H])c([H])c(F)c([H])c8F)c([H])c7[H])c(C(=O)N([H])[H])c6N([H])[H])C5([H])[H])c(C([H])([H])[H])c4[H])C([H])([H])C3([H])[H])c([H])c([H])c2C1([H])[H]

$$$$
5:0:0
     RDKit          3D

 92101  0  0  1  0  0  0  0  0999 V2000
  -30.4860  -23.7450   20.6650 C   0  0  0  0  0  2  0  0  0  0  0  0
  -30.9950  -22.2920   20.4810 C   0  0  0  0  0  2  0  0  0  0  0  0
  -28.6410  -22.3540   20.0910 C   0  0  0  0  0  2  0  0  0  0  0  0
  -29.1670  -23.8320   19.8810 C   0  0  0  0  0  3  0  0  0  0  0  0
  -29.8240  -21.4660   20.1940 N   0  0  0  0  0  0  0  0  0  0  0  0
  -31.1160  -19.3210   20.1820 C   0  0  0  0  0  3  0  0  0  0  0  0
  -31.2040  -17.8960   20.2380 C   0  0  0  0  0  3  0  0  0  0  0  0
  -28.7350  -19.2080   20.4190 C   0  0  0  0  0  3  0  0  0  0  0  0
  -28.8120  -17.7820   20.5110 C   0  0  0  0  0  0  0  0  0  0  0  0
  -29.8820  -20.0260   20.2550 C   0  0  0  0  0  0  0  0  0  0  0  0
  -30.0530  -17.0780   20.3990 C   0  0  0  0  0  0  0  0  0  0  0  0
  -27.5130  -17.0300   20.7710 C   0  0  0  0  0  1  0  0  0  0  0  0
  -30.7770  -14.6300   19.8080 C   0  0  0  0  0  0  0  0  0  0  0  0
  -30.4630  -12.4480   18.6420 C   0  0  0  0  0  2  0  0  0  0  0  0
  -29.3910  -12.6310   17.5430 C   0  0  0  0  0  2  0  0  0  0  0  0
  -27.9710  -12.4430   18.1150 C   0  0  0  0  0  2  0  0  0  0  0  0
  -27.7490  -13.2350   19.4300 C   0  0  0  0  0  3  0  0  0  0  0  0
  -28.9200  -13.0170   20.4150 C   0  0  0  0  0  2  0  0  0  0  0  0
  -30.1630  -13.4060   19.7280 N   0  0  0  0  0  0  0  0  0  0  0  0
  -31.8570  -14.8400   19.2480 O   0  0  0  0  0  0  0  0  0  0  0  0
  -30.0620  -15.6110   20.4480 N   0  0  0  0  0  0  0  0  0  0  0  0
  -29.2720  -15.2240   20.9380 H   0  0  0  0  0  0  0  0  0  0  0  0
  -25.4580  -13.7940   20.4580 C   0  0  0  0  0  0  0  0  0  0  0  0
  -24.4280  -13.0020   20.8850 C   0  0  0  0  0  0  0  0  0  0  0  0
  -24.8590  -11.6540   20.6900 C   0  0  0  0  0  0  0  0  0  0  0  0
  -26.4560  -12.9270   20.0370 N   0  0  0  0  0  0  0  0  0  0  0  0
  -26.1060  -11.6300   20.2320 N   0  0  0  0  0  0  0  0  0  0  0  0
  -24.1360  -10.3860   20.8570 C   0  0  0  0  0  0  0  0  0  0  0  0
  -24.5470   -9.4200   21.8020 C   0  0  0  0  0  3  0  0  0  0  0  0
  -23.8240   -8.2170   21.9570 C   0  0  0  0  0  3  0  0  0  0  0  0
  -22.6770   -7.9710   21.1650 C   0  0  0  0  0  0  0  0  0  0  0  0
  -22.2870   -8.9260   20.2080 C   0  0  0  0  0  3  0  0  0  0  0  0
  -23.0110  -10.1190   20.0530 C   0  0  0  0  0  3  0  0  0  0  0  0
  -21.9300   -6.8200   21.2280 O   0  0  0  0  0  0  0  0  0  0  0  0
  -21.7090   -6.1690   22.4140 C   0  0  0  0  0  0  0  0  0  0  0  0
  -21.0850   -6.8060   23.5100 C   0  0  0  0  0  3  0  0  0  0  0  0
  -20.8140   -6.0800   24.6860 C   0  0  0  0  0  3  0  0  0  0  0  0
  -21.1570   -4.7170   24.7680 C   0  0  0  0  0  0  0  0  0  0  0  0
  -21.7760   -4.0790   23.6790 C   0  0  0  0  0  3  0  0  0  0  0  0
  -22.0470   -4.8030   22.5040 C   0  0  0  0  0  0  0  0  0  0  0  0
  -22.6230   -4.1790   21.4480 F   0  0  0  0  0  0  0  0  0  0  0  0
  -20.8920   -4.0160   25.8950 F   0  0  0  0  0  0  0  0  0  0  0  0
  -23.0790  -13.4660   21.3540 C   0  0  0  0  0  0  0  0  0  0  0  0
  -22.4490  -12.7190   22.2530 N   0  0  0  0  0  0  0  0  0  0  0  0
  -22.5950  -14.5270   20.9600 O   0  0  0  0  0  0  0  0  0  0  0  0
  -22.8550  -11.8600   22.5950 H   0  0  0  0  0  0  0  0  0  0  0  0
  -21.5490  -13.0110   22.6060 H   0  0  0  0  0  0  0  0  0  0  0  0
  -25.6240  -15.1730   20.3730 N   0  0  0  0  0  0  0  0  0  0  0  0
  -24.8910  -15.8230   20.6400 H   0  0  0  0  0  0  0  0  0  0  0  0
  -26.4280  -15.6310   19.9660 H   0  0  0  0  0  0  0  0  0  0  0  0
  -28.2010  -25.0410   20.2740 C   0  0  0  0  0  2  0  0  0  0  0  0
  -28.4180  -26.4060   19.7320 O   0  0  0  0  0  0  0  0  0  0  0  0
  -24.7680  -31.6160   23.1350 C   0  0  0  0  0  0  0  0  0  0  0  0
  -27.3160  -27.2730   19.7570 C   0  0  0  0  0  0  0  0  0  0  0  0
  -23.5370  -30.3450   21.4110 C   0  0  0  0  0  3  0  0  0  0  0  0
  -24.9640  -28.8900   19.8650 C   0  0  0  0  0  0  0  0  0  0  0  0
  -26.0760  -30.6630   21.2230 C   0  0  0  0  0  2  0  0  0  0  0  0
  -26.1410  -29.3330   20.4840 C   0  0  0  0  0  0  0  0  0  0  0  0
  -27.3230  -28.5360   20.4200 C   0  0  0  0  0  3  0  0  0  0  0  0
  -26.1250  -26.8910   19.1010 C   0  0  0  0  0  3  0  0  0  0  0  0
  -24.9580  -27.6750   19.1610 C   0  0  0  0  0  3  0  0  0  0  0  0
  -23.7330  -29.7650   19.9850 C   0  0  0  0  0  2  0  0  0  0  0  0
  -24.8130  -30.8880   21.9810 N   0  0  0  0  0  0  0  0  0  0  0  0
  -23.6930  -31.8640   23.6980 O   0  0  0  0  0  0  0  0  0  0  0  0
  -22.8760  -29.2690   22.3050 C   0  0  0  0  0  0  0  0  0  0  0  0
  -21.5440  -29.1360   22.2020 N   0  0  0  0  0  0  0  0  0  0  0  0
  -23.5600  -28.5620   23.0490 O   0  0  0  0  0  0  0  0  0  0  0  0
  -21.0520  -29.7600   21.5770 H   0  0  0  0  0  0  0  0  0  0  0  0
  -18.1420  -28.0380   22.7600 C   0  0  0  0  0  0  0  0  0  0  0  0
  -20.7200  -28.1600   22.9170 C   0  0  0  0  0  3  0  0  0  0  0  0
  -20.7260  -26.7920   22.1970 C   0  0  0  0  0  2  0  0  0  0  0  0
  -19.5620  -26.6210   21.2160 C   0  0  0  0  0  2  0  0  0  0  0  0
  -18.2220  -26.7580   21.9440 C   0  0  0  0  0  2  0  0  0  0  0  0
  -19.3150  -28.7050   23.2040 C   0  0  0  0  0  0  0  0  0  0  0  0
  -19.1860  -29.9080   23.9300 C   0  0  0  0  0  3  0  0  0  0  0  0
  -17.9150  -30.4430   24.2150 C   0  0  0  0  0  3  0  0  0  0  0  0
  -16.7570  -29.7720   23.7860 C   0  0  0  0  0  3  0  0  0  0  0  0
  -16.8720  -28.5700   23.0650 C   0  0  0  0  0  3  0  0  0  0  0  0
  -26.0640  -32.1930   23.7860 C   0  0  0  0  0  3  0  0  0  0  0  0
  -25.7590  -33.5530   24.2530 N   0  0  0  0  0  0  0  0  0  0  0  0
  -26.0760  -34.6740   23.5900 C   0  0  0  0  0  0  0  0  0  0  0  0
  -26.7270  -34.6690   22.5410 O   0  0  0  0  0  0  0  0  0  0  0  0
  -25.1800  -33.6300   25.0770 H   0  0  0  0  0  0  0  0  0  0  0  0
  -24.3500  -36.4950   23.4320 C   0  0  0  0  0  1  0  0  0  0  0  0
  -25.5980  -36.0110   24.1860 C   0  0  0  0  0  3  0  0  0  0  0  0
  -27.7410  -36.8160   25.0780 C   0  0  0  0  0  1  0  0  0  0  0  0
  -26.6340  -37.0680   24.1590 N   0  0  0  0  0  0  0  0  0  0  0  0
  -26.2300  -37.9730   24.3890 H   0  0  0  0  0  0  0  0  0  0  0  0
  -26.6080  -31.3070   24.9730 C   0  0  1  0  0  0  0  0  0  0  0  0
  -25.5380  -30.9660   26.0370 C   0  0  0  0  0  1  0  0  0  0  0  0
  -27.1850  -29.9750   24.4410 C   0  0  0  0  0  1  0  0  0  0  0  0
  -27.7720  -32.0400   25.6800 C   0  0  0  0  0  1  0  0  0  0  0  0
  2  1  1  0
  3  5  1  0
  4  3  1  0
  4 51  1  0
  4  1  1  0
  5 10  1  0
  5  2  1  0
  6  7  2  0
  6 10  1  0
  7 11  1  0
  8  9  1  0
  9 12  1  0
 10  8  2  0
 11 21  1  0
 11  9  2  0
 13 21  1  0
 14 19  1  0
 15 16  1  0
 15 14  1  0
 17 16  1  0
 17 26  1  0
 17 18  1  0
 19 13  1  0
 19 18  1  0
 20 13  2  0
 21 22  1  0
 23 24  2  0
 24 43  1  0
 25 28  1  0
 25 24  1  0
 26 27  1  0
 26 23  1  0
 27 25  2  0
 28 29  1  0
 29 30  2  0
 31 34  1  0
 31 30  1  0
 32 31  2  0
 33 32  1  0
 33 28  2  0
 34 35  1  0
 35 40  2  0
 35 36  1  0
 36 37  2  0
 37 38  1  0
 38 42  1  0
 39 38  2  0
 40 39  1  0
 41 40  1  0
 43 44  1  0
 44 46  1  0
 44 47  1  0
 45 43  2  0
 48 23  1  0
 48 49  1  0
 50 48  1  0
 52 54  1  0
 52 51  1  0
 53 64  2  0
 54 59  1  0
 55 63  1  0
 55 65  1  0
 56 62  1  0
 56 58  1  0
 57 63  1  0
 58 57  1  0
 59 58  2  0
 60 61  1  0
 60 54  2  0
 61 56  2  0
 62 55  1  0
 63 53  1  0
 65 67  2  0
 66 65  1  0
 68 66  1  0
 69 78  2  0
 69 74  1  0
 70 66  1  0
 70 74  1  0
 71 70  1  0
 72 73  1  0
 72 71  1  0
 73 69  1  0
 74 75  2  0
 75 76  1  0
 77 76  2  0
 78 77  1  0
 79 53  1  0
 79 80  1  0
 79 89  1  0
 80 83  1  0
 81 85  1  0
 81 80  1  0
 82 81  2  0
 85 84  1  0
 87 85  1  0
 87 88  1  0
 87 86  1  0
 89 92  1  1
 89 90  1  0
 91 89  1  0
M  ISO  4  13 100  21 100  51 101  52 101
M  END
>  <TORSDO>  (6) 
F 18

>  <SCORE>  (6) 
-12.967

>  <name>  (6) 
5

>  <ligand_id>  (6) 
5

>  <original_smiles>  (6) 
[H]c1c([H])c([H])c2c(c1[H])C([H])([H])C([H])([H])C([H])([H])C2([H])N([H])C(=O)C1([H])N(C(=O)C([H])(N([H])C(=O)C([H])(N([H])C([H])([H])[H])C([H])([H])[H])C(C([H])([H])[H])(C([H])([H])[H])C([H])([H])[H])C([H])([H])c2c([H])c(OC([H])([H])C3([H])C([H])([H])N(c4c([H])c([H])c(N([H])C(=O)N5C([H])([H])C([H])([H])C([H])([H])C([H])(n6nc(-c7c([H])c([H])c(Oc8c([H])c([H])c(F)c([H])c8F)c([H])c7[H])c(C(=O)N([H])[H])c6N([H])[H])C5([H])[H])c(C([H])([H])[H])c4[H])C([H])([H])C3([H])[H])c([H])c([H])c2C1([H])[H]

>  <smiles>  (6) 
[H]c1c([H])c([H])c2c(c1[H])C([H])([H])C([H])([H])C([H])([H])C2([H])N([H])C(=O)C1([H])N(C(=O)C([H])(N([H])C(=O)C([H])(N([H])C([H])([H])[H])C([H])([H])[H])C(C([H])([H])[H])(C([H])([H])[H])C([H])([H])[H])C([H])([H])c2c([H])c(OC([H])([H])C3([H])C([H])([H])N(c4c([H])c([H])c(N([H])C(=O)N5C([H])([H])C([H])([H])C([H])([H])C([H])(n6nc(-c7c([H])c([H])c(Oc8c([H])c([H])c(F)c([H])c8F)c([H])c7[H])c(C(=O)N([H])[H])c6N([H])[H])C5([H])[H])c(C([H])([H])[H])c4[H])C([H])([H])C3([H])[H])c([H])c([H])c2C1([H])[H]

$$$$
6:0:0
     RDKit          3D

 98108  0  0  1  0  0  0  0  0999 V2000
  -28.9020  -19.3090   16.8590 C   0  0  0  0  0  3  0  0  0  0  0  0
  -28.4660  -20.6160   17.1810 C   0  0  0  0  0  3  0  0  0  0  0  0
  -29.2250  -18.3260   17.8260 C   0  0  0  0  0  3  0  0  0  0  0  0
  -28.5450  -19.9390   19.5080 C   0  0  0  0  0  0  0  0  0  0  0  0
  -28.2750  -21.0500   18.5080 C   0  0  0  0  0  0  0  0  0  0  0  0
  -29.1060  -18.5410   19.2210 C   0  0  0  0  0  0  0  0  0  0  0  0
  -28.0670  -20.2510   20.9130 C   0  0  0  0  0  1  0  0  0  0  0  0
  -30.2470  -16.1000   19.7970 C   0  0  0  0  0  0  0  0  0  0  0  0
  -30.3670  -13.5970   19.3030 C   0  0  0  0  0  2  0  0  0  0  0  0
  -29.5220  -13.2030   18.0690 C   0  0  0  0  0  2  0  0  0  0  0  0
  -28.0800  -12.8830   18.4940 C   0  0  0  0  0  2  0  0  0  0  0  0
  -27.5120  -13.9520   19.4620 C   0  0  0  0  0  3  0  0  0  0  0  0
  -28.4930  -14.3430   20.5840 C   0  0  0  0  0  2  0  0  0  0  0  0
  -29.7410  -14.7950   19.9510 N   0  0  0  0  0  0  0  0  0  0  0  0
  -31.4100  -16.1590   19.3740 O   0  0  0  0  0  0  0  0  0  0  0  0
  -29.5620  -17.3310   20.1510 N   0  0  0  0  0  0  0  0  0  0  0  0
  -31.5160  -18.9390   23.8120 C   0  0  0  0  0  2  0  0  0  0  0  0
  -30.3520  -19.6870   23.1400 C   0  0  0  0  0  2  0  0  0  0  0  0
  -31.3640  -17.4170   23.6700 C   0  0  0  0  0  2  0  0  0  0  0  0
  -30.1680  -19.2590   21.6720 C   0  0  0  0  0  2  0  0  0  0  0  0
  -31.1860  -17.0070   22.2000 C   0  0  0  0  0  2  0  0  0  0  0  0
  -29.9620  -17.7260   21.5430 C   0  0  0  0  0  3  0  0  0  0  0  0
  -25.1440  -14.4150   20.2940 C   0  0  0  0  0  0  0  0  0  0  0  0
  -24.1160  -13.5910   20.6620 C   0  0  0  0  0  0  0  0  0  0  0  0
  -24.6240  -12.2590   20.5700 C   0  0  0  0  0  0  0  0  0  0  0  0
  -26.2040  -13.5810   19.9870 N   0  0  0  0  0  0  0  0  0  0  0  0
  -25.9060  -12.2770   20.2230 N   0  0  0  0  0  0  0  0  0  0  0  0
  -23.9410  -10.9670   20.7310 C   0  0  0  0  0  0  0  0  0  0  0  0
  -24.4680   -9.9530   21.5620 C   0  0  0  0  0  3  0  0  0  0  0  0
  -23.7830   -8.7290   21.7190 C   0  0  0  0  0  3  0  0  0  0  0  0
  -22.5580   -8.5100   21.0440 C   0  0  0  0  0  0  0  0  0  0  0  0
  -22.0500   -9.5130   20.2000 C   0  0  0  0  0  3  0  0  0  0  0  0
  -22.7360  -10.7290   20.0420 C   0  0  0  0  0  3  0  0  0  0  0  0
  -21.8370   -7.3420   21.1150 O   0  0  0  0  0  0  0  0  0  0  0  0
  -21.9430   -6.4930   22.1870 C   0  0  0  0  0  0  0  0  0  0  0  0
  -21.6840   -6.9210   23.5070 C   0  0  0  0  0  3  0  0  0  0  0  0
  -21.7380   -5.9990   24.5700 C   0  0  0  0  0  3  0  0  0  0  0  0
  -22.0420   -4.6470   24.3170 C   0  0  0  0  0  0  0  0  0  0  0  0
  -22.2940   -4.2170   23.0030 C   0  0  0  0  0  3  0  0  0  0  0  0
  -22.2430   -5.1380   21.9410 C   0  0  0  0  0  0  0  0  0  0  0  0
  -22.4660   -4.7120   20.6740 F   0  0  0  0  0  0  0  0  0  0  0  0
  -22.0870   -3.7610   25.3370 F   0  0  0  0  0  0  0  0  0  0  0  0
  -22.7120  -14.0140   20.9820 C   0  0  0  0  0  0  0  0  0  0  0  0
  -22.0330  -13.2740   21.8540 N   0  0  0  0  0  0  0  0  0  0  0  0
  -22.2250  -15.0340   20.4970 O   0  0  0  0  0  0  0  0  0  0  0  0
  -22.4430  -12.4510   22.2690 H   0  0  0  0  0  0  0  0  0  0  0  0
  -21.0910  -13.5370   22.1080 H   0  0  0  0  0  0  0  0  0  0  0  0
  -25.2600  -15.7950   20.1680 N   0  0  0  0  0  0  0  0  0  0  0  0
  -24.4790  -16.4210   20.3330 H   0  0  0  0  0  0  0  0  0  0  0  0
  -26.0940  -16.2750   19.8520 H   0  0  0  0  0  0  0  0  0  0  0  0
  -28.0320  -23.9870   20.5580 C   0  0  0  0  0  2  0  0  0  0  0  0
  -26.6010  -23.9560   19.9950 C   0  0  0  0  0  2  0  0  0  0  0  0
  -28.9110  -23.2470   19.5380 C   0  0  0  0  0  2  0  0  0  0  0  0
  -26.7500  -23.5310   18.5270 C   0  0  2  0  0  0  0  0  0  0  0  0
  -25.5300  -22.7160   18.0680 C   0  0  0  0  0  1  0  0  0  0  0  0
  -27.9850  -22.5340   18.6720 N   0  0  0  0  0  0  0  0  0  0  0  0
  -26.7240  -25.0180   17.6230 C   0  0  0  0  0  2  0  0  0  0  0  0
  -26.9850  -26.5590   17.9370 O   0  0  0  0  0  0  0  0  0  0  0  0
  -25.0940  -31.4130   23.1760 C   0  0  0  0  0  0  0  0  0  0  0  0
  -26.1200  -27.6600   18.3400 C   0  0  0  0  0  0  0  0  0  0  0  0
  -23.3760  -30.8140   21.5120 C   0  0  0  0  0  3  0  0  0  0  0  0
  -24.2130  -29.6270   19.3740 C   0  0  0  0  0  0  0  0  0  0  0  0
  -25.8620  -30.7750   20.8530 C   0  0  0  0  0  2  0  0  0  0  0  0
  -25.5420  -29.6820   19.8080 C   0  0  0  0  0  0  0  0  0  0  0  0
  -26.4870  -28.7150   19.2830 C   0  0  0  0  0  3  0  0  0  0  0  0
  -24.7840  -27.7320   17.8960 C   0  0  0  0  0  3  0  0  0  0  0  0
  -23.8510  -28.6720   18.4040 C   0  0  0  0  0  3  0  0  0  0  0  0
  -23.2130  -30.6070   19.9790 C   0  0  0  0  0  2  0  0  0  0  0  0
  -24.8110  -31.0030   21.9000 N   0  0  0  0  0  0  0  0  0  0  0  0
  -24.1950  -31.6470   23.9980 O   0  0  0  0  0  0  0  0  0  0  0  0
  -22.6940  -29.6430   22.2640 C   0  0  0  0  0  0  0  0  0  0  0  0
  -21.3500  -29.6050   22.2490 N   0  0  0  0  0  0  0  0  0  0  0  0
  -23.3750  -28.7800   22.8230 O   0  0  0  0  0  0  0  0  0  0  0  0
  -20.8600  -30.3510   21.7770 H   0  0  0  0  0  0  0  0  0  0  0  0
  -17.9520  -28.3880   22.5680 C   0  0  0  0  0  0  0  0  0  0  0  0
  -20.5190  -28.5560   22.8430 C   0  0  0  0  0  3  0  0  0  0  0  0
  -20.5880  -27.2530   22.0120 C   0  0  0  0  0  2  0  0  0  0  0  0
  -19.4700  -27.1450   20.9700 C   0  0  0  0  0  2  0  0  0  0  0  0
  -18.0970  -27.1880   21.6470 C   0  0  0  0  0  2  0  0  0  0  0  0
  -19.0890  -29.0390   23.1170 C   0  0  0  0  0  0  0  0  0  0  0  0
  -18.8980  -30.1700   23.9390 C   0  0  0  0  0  3  0  0  0  0  0  0
  -17.6030  -30.6490   24.2180 C   0  0  0  0  0  3  0  0  0  0  0  0
  -16.4810  -29.9940   23.6800 C   0  0  0  0  0  3  0  0  0  0  0  0
  -16.6570  -28.8650   22.8610 C   0  0  0  0  0  3  0  0  0  0  0  0
  -26.5600  -31.6330   23.6570 C   0  0  0  0  0  3  0  0  0  0  0  0
  -27.1160  -30.4340   24.5210 C   0  0  1  0  0  0  0  0  0  0  0  0
  -26.2010  -30.0470   25.7060 C   0  0  0  0  0  1  0  0  0  0  0  0
  -27.3160  -29.1690   23.6520 C   0  0  0  0  0  1  0  0  0  0  0  0
  -28.5090  -30.8000   25.0890 C   0  0  0  0  0  1  0  0  0  0  0  0
  -26.5990  -32.8840   24.4340 N   0  0  0  0  0  0  0  0  0  0  0  0
  -27.1360  -34.0350   24.0080 C   0  0  0  0  0  0  0  0  0  0  0  0
  -27.7170  -34.1380   22.9250 O   0  0  0  0  0  0  0  0  0  0  0  0
  -26.0890  -32.8920   25.3040 H   0  0  0  0  0  0  0  0  0  0  0  0
  -25.9000  -36.1940   24.4070 C   0  0  0  0  0  1  0  0  0  0  0  0
  -27.0100  -35.2670   24.9280 C   0  0  0  0  0  3  0  0  0  0  0  0
  -29.3000  -35.3250   25.8140 C   0  0  0  0  0  1  0  0  0  0  0  0
  -28.2680  -36.0330   25.0630 N   0  0  0  0  0  0  0  0  0  0  0  0
  -28.0990  -36.9260   25.5180 H   0  0  0  0  0  0  0  0  0  0  0  0
  1  2  2  0
  1  3  1  0
  2  5  1  0
  3  6  2  0
  4  7  1  0
  5 56  1  0
  5  4  2  0
  6  4  1  0
  6 16  1  0
  8 14  1  0
  8 16  1  0
  9 14  1  0
 10 11  1  0
 10  9  1  0
 12 11  1  0
 12 26  1  0
 12 13  1  0
 14 13  1  0
 15  8  2  0
 16 22  1  0
 18 17  1  0
 19 17  1  0
 20 18  1  0
 21 19  1  0
 22 20  1  0
 22 21  1  0
 23 24  2  0
 24 43  1  0
 25 24  1  0
 25 28  1  0
 26 27  1  0
 26 23  1  0
 27 25  2  0
 28 29  1  0
 29 30  2  0
 31 34  1  0
 31 30  1  0
 32 31  2  0
 33 32  1  0
 33 28  2  0
 34 35  1  0
 35 36  1  0
 36 37  2  0
 38 37  1  0
 38 42  1  0
 39 38  2  0
 40 35  2  0
 40 39  1  0
 41 40  1  0
 43 44  1  0
 44 47  1  0
 44 46  1  0
 45 43  2  0
 48 23  1  0
 48 49  1  0
 50 48  1  0
 52 51  1  0
 53 51  1  0
 54 55  1  6
 54 56  1  0
 54 52  1  0
 56 53  1  0
 57 58  1  0
 57 54  1  0
 58 60  1  0
 59 70  2  0
 60 65  1  0
 61 69  1  0
 61 71  1  0
 62 64  1  0
 62 68  1  0
 63 69  1  0
 64 63  1  0
 65 64  2  0
 66 60  2  0
 66 67  1  0
 67 62  2  0
 68 61  1  0
 69 59  1  0
 71 73  2  0
 72 71  1  0
 74 72  1  0
 75 84  2  0
 75 80  1  0
 76 72  1  0
 76 80  1  0
 77 76  1  0
 78 79  1  0
 78 77  1  0
 79 75  1  0
 80 81  2  0
 81 82  1  0
 83 82  2  0
 84 83  1  0
 85 59  1  0
 85 90  1  0
 85 86  1  0
 86 89  1  1
 86 87  1  0
 88 86  1  0
 90 93  1  0
 91 90  1  0
 91 95  1  0
 92 91  2  0
 95 94  1  0
 95 97  1  0
 97 98  1  0
 97 96  1  0
M  ISO  4   8 100  16 100  57 101  58 101
M  END
>  <TORSDO>  (7) 
F 19

>  <SCORE>  (7) 
-9.413

>  <name>  (7) 
6

>  <ligand_id>  (7) 
6

>  <original_smiles>  (7) 
[H]c1c([H])c(N(C(=O)N2C([H])([H])C([H])([H])C([H])([H])C([H])(n3nc(-c4c([H])c([H])c(Oc5c([H])c([H])c(F)c([H])c5F)c([H])c4[H])c(C(=O)N([H])[H])c3N([H])[H])C2([H])[H])C2([H])C([H])([H])C([H])([H])C([H])([H])C([H])([H])C2([H])[H])c(C([H])([H])[H])c(N2C([H])([H])C([H])([H])C([H])([H])C2(C([H])([H])[H])C([H])([H])Oc2c([H])c([H])c3c(c2[H])C([H])([H])N(C(=O)C([H])(N([H])C(=O)C([H])(N([H])C([H])([H])[H])C([H])([H])[H])C(C([H])([H])[H])(C([H])([H])[H])C([H])([H])[H])C([H])(C(=O)N([H])C2([H])c4c([H])c([H])c([H])c([H])c4C([H])([H])C([H])([H])C2([H])[H])C3([H])[H])c1[H]

>  <smiles>  (7) 
[H]c1c([H])c(N(C(=O)N2C([H])([H])C([H])([H])C([H])([H])C([H])(n3nc(-c4c([H])c([H])c(Oc5c([H])c([H])c(F)c([H])c5F)c([H])c4[H])c(C(=O)N([H])[H])c3N([H])[H])C2([H])[H])C2([H])C([H])([H])C([H])([H])C([H])([H])C([H])([H])C2([H])[H])c(C([H])([H])[H])c(N2C([H])([H])C([H])([H])C([H])([H])C2(C([H])([H])[H])C([H])([H])Oc2c([H])c([H])c3c(c2[H])C([H])([H])N(C(=O)C([H])(N([H])C(=O)C([H])(N([H])C([H])([H])[H])C([H])([H])[H])C(C([H])([H])[H])(C([H])([H])[H])C([H])([H])[H])C([H])(C(=O)N([H])C2([H])c4c([H])c([H])c([H])c([H])c4C([H])([H])C([H])([H])C2([H])[H])C3([H])[H])c1[H]

$$$$
7:0:0
     RDKit          3D

 92101  0  0  1  0  0  0  0  0999 V2000
  -28.5860  -19.1060   20.8170 C   0  0  0  0  0  3  0  0  0  0  0  0
  -30.2320  -19.5500   19.2100 C   0  0  0  0  0  3  0  0  0  0  0  0
  -29.2160  -20.1190   20.0440 C   0  0  0  0  0  0  0  0  0  0  0  0
  -30.0070  -17.1760   20.0490 C   0  0  0  0  0  0  0  0  0  0  0  0
  -28.9410  -17.7200   20.8300 C   0  0  0  0  0  0  0  0  0  0  0  0
  -30.6130  -18.1520   19.1980 C   0  0  0  0  0  0  0  0  0  0  0  0
  -28.2270  -16.9080   21.6460 F   0  0  0  0  0  0  0  0  0  0  0  0
  -31.6240  -17.7790   18.3780 F   0  0  0  0  0  0  0  0  0  0  0  0
  -30.8910  -14.7790   19.3800 C   0  0  0  0  0  0  0  0  0  0  0  0
  -30.4720  -12.5590   18.2680 C   0  0  0  0  0  2  0  0  0  0  0  0
  -29.3370  -12.6600   17.2220 C   0  0  0  0  0  2  0  0  0  0  0  0
  -27.9640  -12.4750   17.8940 C   0  0  0  0  0  2  0  0  0  0  0  0
  -27.8120  -13.3480   19.1660 C   0  0  0  0  0  3  0  0  0  0  0  0
  -29.0290  -13.1870   20.0960 C   0  0  0  0  0  2  0  0  0  0  0  0
  -30.2250  -13.5670   19.3290 N   0  0  0  0  0  0  0  0  0  0  0  0
  -31.9080  -14.9350   18.6960 O   0  0  0  0  0  0  0  0  0  0  0  0
  -30.9020  -15.4850   21.6490 C   0  0  0  0  0  1  0  0  0  0  0  0
  -30.4530  -15.7550   20.2710 N   0  0  0  0  0  0  0  0  0  0  0  0
  -25.6290  -13.9640   20.3650 C   0  0  0  0  0  0  0  0  0  0  0  0
  -24.6060  -13.1990   20.8560 C   0  0  0  0  0  0  0  0  0  0  0  0
  -24.9840  -11.8400   20.6250 C   0  0  0  0  0  0  0  0  0  0  0  0
  -26.5610  -13.0720   19.8640 N   0  0  0  0  0  0  0  0  0  0  0  0
  -26.1920  -11.7820   20.0820 N   0  0  0  0  0  0  0  0  0  0  0  0
  -24.2380  -10.5940   20.8370 C   0  0  0  0  0  0  0  0  0  0  0  0
  -24.6920   -9.6060   21.7370 C   0  0  0  0  0  3  0  0  0  0  0  0
  -23.9490   -8.4240   21.9350 C   0  0  0  0  0  3  0  0  0  0  0  0
  -22.7370   -8.2210   21.2320 C   0  0  0  0  0  0  0  0  0  0  0  0
  -22.3020   -9.1980   20.3190 C   0  0  0  0  0  3  0  0  0  0  0  0
  -23.0460  -10.3720   20.1200 C   0  0  0  0  0  3  0  0  0  0  0  0
  -21.9590   -7.0940   21.3420 O   0  0  0  0  0  0  0  0  0  0  0  0
  -21.8020   -6.4420   22.5380 C   0  0  0  0  0  0  0  0  0  0  0  0
  -21.2620   -7.0870   23.6740 C   0  0  0  0  0  3  0  0  0  0  0  0
  -21.0550   -6.3610   24.8630 C   0  0  0  0  0  3  0  0  0  0  0  0
  -21.3760   -4.9910   24.9190 C   0  0  0  0  0  0  0  0  0  0  0  0
  -21.9070   -4.3460   23.7880 C   0  0  0  0  0  3  0  0  0  0  0  0
  -22.1170   -5.0700   22.6010 C   0  0  0  0  0  0  0  0  0  0  0  0
  -22.6080   -4.4380   21.5090 F   0  0  0  0  0  0  0  0  0  0  0  0
  -21.1710   -4.2930   26.0600 F   0  0  0  0  0  0  0  0  0  0  0  0
  -23.3100  -13.6980   21.4230 C   0  0  0  0  0  0  0  0  0  0  0  0
  -22.7260  -12.9540   22.3570 N   0  0  0  0  0  0  0  0  0  0  0  0
  -22.8320  -14.7770   21.0740 O   0  0  0  0  0  0  0  0  0  0  0  0
  -23.1350  -12.0790   22.6540 H   0  0  0  0  0  0  0  0  0  0  0  0
  -21.8630  -13.2600   22.7820 H   0  0  0  0  0  0  0  0  0  0  0  0
  -25.8390  -15.3380   20.2850 N   0  0  0  0  0  0  0  0  0  0  0  0
  -25.1780  -16.0180   20.6380 H   0  0  0  0  0  0  0  0  0  0  0  0
  -26.6620  -15.7590   19.8770 H   0  0  0  0  0  0  0  0  0  0  0  0
  -28.0630  -22.3230   19.2010 C   0  0  0  0  0  2  0  0  0  0  0  0
  -29.6720  -22.6920   20.3800 C   0  0  0  0  0  2  0  0  0  0  0  0
  -28.4620  -23.6310   19.9980 C   0  0  0  0  0  3  0  0  0  0  0  0
  -28.7690  -21.5300   20.2260 N   0  0  0  0  0  0  0  0  0  0  0  0
  -28.5880  -25.0850   19.2880 C   0  0  0  0  0  2  0  0  0  0  0  0
  -28.4470  -26.4270   19.9650 O   0  0  0  0  0  0  0  0  0  0  0  0
  -24.5340  -31.6920   23.0590 C   0  0  0  0  0  0  0  0  0  0  0  0
  -27.2890  -27.2390   19.9110 C   0  0  0  0  0  0  0  0  0  0  0  0
  -23.3710  -30.2540   21.4290 C   0  0  0  0  0  3  0  0  0  0  0  0
  -24.8600  -28.7840   19.9540 C   0  0  0  0  0  0  0  0  0  0  0  0
  -25.8910  -30.6770   21.2060 C   0  0  0  0  0  2  0  0  0  0  0  0
  -26.0190  -29.3070   20.5390 C   0  0  0  0  0  0  0  0  0  0  0  0
  -27.2310  -28.5480   20.5050 C   0  0  0  0  0  3  0  0  0  0  0  0
  -26.0990  -26.7770   19.3090 C   0  0  0  0  0  3  0  0  0  0  0  0
  -24.9060  -27.5280   19.3290 C   0  0  0  0  0  3  0  0  0  0  0  0
  -23.5870  -29.6060   20.0370 C   0  0  0  0  0  2  0  0  0  0  0  0
  -24.6190  -30.8960   21.9520 N   0  0  0  0  0  0  0  0  0  0  0  0
  -23.4490  -31.9100   23.6160 O   0  0  0  0  0  0  0  0  0  0  0  0
  -22.7780  -29.1960   22.3900 C   0  0  0  0  0  0  0  0  0  0  0  0
  -21.4760  -28.8980   22.2340 N   0  0  0  0  0  0  0  0  0  0  0  0
  -23.4890  -28.6450   23.2350 O   0  0  0  0  0  0  0  0  0  0  0  0
  -20.9580  -29.3990   21.5270 H   0  0  0  0  0  0  0  0  0  0  0  0
  -18.2250  -27.3550   22.6250 C   0  0  0  0  0  0  0  0  0  0  0  0
  -20.7260  -27.9000   22.9990 C   0  0  0  0  0  3  0  0  0  0  0  0
  -21.0070  -26.4700   22.4780 C   0  0  0  0  0  2  0  0  0  0  0  0
  -19.9950  -25.9990   21.4280 C   0  0  0  0  0  2  0  0  0  0  0  0
  -18.5770  -26.0130   22.0060 C   0  0  0  0  0  2  0  0  0  0  0  0
  -19.2340  -28.2460   23.0760 C   0  0  0  0  0  0  0  0  0  0  0  0
  -18.8520  -29.4970   23.6120 C   0  0  0  0  0  3  0  0  0  0  0  0
  -17.4940  -29.8550   23.7060 C   0  0  0  0  0  3  0  0  0  0  0  0
  -16.5000  -28.9620   23.2700 C   0  0  0  0  0  3  0  0  0  0  0  0
  -16.8670  -27.7150   22.7350 C   0  0  0  0  0  3  0  0  0  0  0  0
  -25.7930  -32.3830   23.6650 C   0  0  0  0  0  3  0  0  0  0  0  0
  -25.4130  -33.7570   24.0310 N   0  0  0  0  0  0  0  0  0  0  0  0
  -25.6680  -34.8430   23.2880 C   0  0  0  0  0  0  0  0  0  0  0  0
  -26.3190  -34.7960   22.2420 O   0  0  0  0  0  0  0  0  0  0  0  0
  -24.8290  -33.8600   24.8470 H   0  0  0  0  0  0  0  0  0  0  0  0
  -23.8380  -36.5470   23.0080 C   0  0  0  0  0  1  0  0  0  0  0  0
  -25.1170  -36.1940   23.7850 C   0  0  0  0  0  3  0  0  0  0  0  0
  -27.2150  -37.1820   24.5900 C   0  0  0  0  0  1  0  0  0  0  0  0
  -26.0880  -37.3040   23.6700 N   0  0  0  0  0  0  0  0  0  0  0  0
  -25.6380  -38.2000   23.8360 H   0  0  0  0  0  0  0  0  0  0  0  0
  -26.3750  -31.6200   24.9200 C   0  0  1  0  0  0  0  0  0  0  0  0
  -25.3120  -31.2770   25.9920 C   0  0  0  0  0  1  0  0  0  0  0  0
  -27.0490  -30.2950   24.4890 C   0  0  0  0  0  1  0  0  0  0  0  0
  -27.4730  -32.4760   25.5900 C   0  0  0  0  0  1  0  0  0  0  0  0
  1  5  1  0
  2  3  1  0
  3 50  1  0
  3  1  2  0
  4 18  1  0
  4  5  2  0
  5  7  1  0
  6  2  2  0
  6  4  1  0
  8  6  1  0
  9 18  1  0
 10 15  1  0
 11 12  1  0
 11 10  1  0
 13 12  1  0
 13 22  1  0
 13 14  1  0
 15  9  1  0
 15 14  1  0
 16  9  2  0
 18 17  1  0
 19 20  2  0
 20 39  1  0
 21 24  1  0
 21 20  1  0
 22 23  1  0
 22 19  1  0
 23 21  2  0
 24 25  1  0
 25 26  2  0
 27 30  1  0
 27 26  1  0
 28 27  2  0
 29 28  1  0
 29 24  2  0
 30 31  1  0
 31 36  2  0
 31 32  1  0
 32 33  2  0
 33 34  1  0
 34 38  1  0
 35 34  2  0
 36 35  1  0
 37 36  1  0
 39 40  1  0
 40 42  1  0
 40 43  1  0
 41 39  2  0
 44 19  1  0
 44 45  1  0
 46 44  1  0
 47 49  1  0
 47 50  1  0
 49 51  1  0
 49 48  1  0
 50 48  1  0
 51 52  1  0
 53 64  2  0
 54 52  1  0
 54 59  1  0
 55 63  1  0
 55 65  1  0
 56 62  1  0
 56 58  1  0
 57 63  1  0
 58 57  1  0
 59 58  2  0
 60 61  1  0
 60 54  2  0
 61 56  2  0
 62 55  1  0
 63 53  1  0
 65 67  2  0
 66 65  1  0
 68 66  1  0
 69 78  2  0
 69 74  1  0
 70 66  1  0
 70 74  1  0
 71 70  1  0
 72 73  1  0
 72 71  1  0
 73 69  1  0
 74 75  2  0
 75 76  1  0
 77 76  2  0
 78 77  1  0
 79 53  1  0
 79 80  1  0
 79 89  1  0
 80 83  1  0
 81 85  1  0
 81 80  1  0
 82 81  2  0
 85 84  1  0
 87 85  1  0
 87 88  1  0
 87 86  1  0
 89 92  1  1
 89 90  1  0
 91 89  1  0
M  ISO  4   9 100  18 100  51 101  52 101
M  END
>  <TORSDO>  (8) 
F 18

>  <SCORE>  (8) 
-12.187

>  <name>  (8) 
7

>  <ligand_id>  (8) 
7

>  <original_smiles>  (8) 
[H]c1c([H])c([H])c2c(c1[H])C([H])([H])C([H])([H])C([H])([H])C2([H])N([H])C(=O)C1([H])N(C(=O)C([H])(N([H])C(=O)C([H])(N([H])C([H])([H])[H])C([H])([H])[H])C(C([H])([H])[H])(C([H])([H])[H])C([H])([H])[H])C([H])([H])c2c([H])c(OC([H])([H])C3([H])C([H])([H])N(c4c([H])c(F)c(N(C(=O)N5C([H])([H])C([H])([H])C([H])([H])C([H])(n6nc(-c7c([H])c([H])c(Oc8c([H])c([H])c(F)c([H])c8F)c([H])c7[H])c(C(=O)N([H])[H])c6N([H])[H])C5([H])[H])C([H])([H])[H])c(F)c4[H])C3([H])[H])c([H])c([H])c2C1([H])[H]

>  <smiles>  (8) 
[H]c1c([H])c([H])c2c(c1[H])C([H])([H])C([H])([H])C([H])([H])C2([H])N([H])C(=O)C1([H])N(C(=O)C([H])(N([H])C(=O)C([H])(N([H])C([H])([H])[H])C([H])([H])[H])C(C([H])([H])[H])(C([H])([H])[H])C([H])([H])[H])C([H])([H])c2c([H])c(OC([H])([H])C3([H])C([H])([H])N(c4c([H])c(F)c(N(C(=O)N5C([H])([H])C([H])([H])C([H])([H])C([H])(n6nc(-c7c([H])c([H])c(Oc8c([H])c([H])c(F)c([H])c8F)c([H])c7[H])c(C(=O)N([H])[H])c6N([H])[H])C5([H])[H])C([H])([H])[H])c(F)c4[H])C3([H])[H])c([H])c([H])c2C1([H])[H]

$$$$
8:0:0
     RDKit          3D

 96104  0  0  1  0  0  0  0  0999 V2000
  -29.1330  -22.5600   20.8350 N   0  0  1  0  0  4  0  0  0  0  0  0
  -28.3840  -22.2850   20.2170 H   0  0  0  0  0  0  0  0  0  0  0  0
  -30.2460  -21.6190   20.4130 C   0  0  0  0  0  2  0  0  0  0  0  0
  -28.9030  -19.3390   20.3590 C   0  0  0  0  0  3  0  0  0  0  0  0
  -28.8340  -17.9160   20.4260 C   0  0  0  0  0  3  0  0  0  0  0  0
  -31.2030  -17.8020   20.8070 C   0  0  0  0  0  3  0  0  0  0  0  0
  -30.1240  -20.0440   20.5420 C   0  0  0  0  0  0  0  0  0  0  0  0
  -31.2800  -19.2260   20.7590 C   0  0  0  0  0  0  0  0  0  0  0  0
  -29.9810  -17.1060   20.6400 C   0  0  0  0  0  0  0  0  0  0  0  0
  -32.6580  -19.8510   20.9210 C   0  0  0  0  0  1  0  0  0  0  0  0
  -30.6300  -14.6320   20.2890 C   0  0  0  0  0  0  0  0  0  0  0  0
  -30.3890  -12.4390   19.1470 C   0  0  0  0  0  2  0  0  0  0  0  0
  -29.4070  -12.6090   17.9660 C   0  0  0  0  0  2  0  0  0  0  0  0
  -27.9480  -12.4310   18.4320 C   0  0  0  0  0  2  0  0  0  0  0  0
  -27.6250  -13.2510   19.7100 C   0  0  0  0  0  3  0  0  0  0  0  0
  -28.7160  -13.0540   20.7890 C   0  0  0  0  0  2  0  0  0  0  0  0
  -30.0100  -13.4150   20.1860 N   0  0  0  0  0  0  0  0  0  0  0  0
  -31.7730  -14.8100   19.8580 O   0  0  0  0  0  0  0  0  0  0  0  0
  -29.8370  -15.6580   20.7240 N   0  0  0  0  0  0  0  0  0  0  0  0
  -28.9220  -15.3420   21.0040 H   0  0  0  0  0  0  0  0  0  0  0  0
  -25.2430  -13.8190   20.4920 C   0  0  0  0  0  0  0  0  0  0  0  0
  -24.1940  -13.0310   20.8760 C   0  0  0  0  0  0  0  0  0  0  0  0
  -24.6670  -11.6840   20.8120 C   0  0  0  0  0  0  0  0  0  0  0  0
  -26.2900  -12.9510   20.2200 N   0  0  0  0  0  0  0  0  0  0  0  0
  -25.9490  -11.6620   20.4720 N   0  0  0  0  0  0  0  0  0  0  0  0
  -23.9560  -10.4130   21.0000 C   0  0  0  0  0  0  0  0  0  0  0  0
  -24.3880   -9.4600   21.9480 C   0  0  0  0  0  3  0  0  0  0  0  0
  -23.6770   -8.2530   22.1240 C   0  0  0  0  0  3  0  0  0  0  0  0
  -22.5210   -7.9910   21.3520 C   0  0  0  0  0  0  0  0  0  0  0  0
  -22.1080   -8.9330   20.3930 C   0  0  0  0  0  3  0  0  0  0  0  0
  -22.8200  -10.1320   20.2150 C   0  0  0  0  0  3  0  0  0  0  0  0
  -21.7830   -6.8340   21.4350 O   0  0  0  0  0  0  0  0  0  0  0  0
  -21.6920   -6.1230   22.6030 C   0  0  0  0  0  0  0  0  0  0  0  0
  -21.1570   -6.6910   23.7800 C   0  0  0  0  0  3  0  0  0  0  0  0
  -21.0150   -5.9020   24.9410 C   0  0  0  0  0  3  0  0  0  0  0  0
  -21.3970   -4.5470   24.9230 C   0  0  0  0  0  0  0  0  0  0  0  0
  -21.9230   -3.9790   23.7490 C   0  0  0  0  0  3  0  0  0  0  0  0
  -22.0660   -4.7640   22.5930 C   0  0  0  0  0  0  0  0  0  0  0  0
  -22.5540   -4.2060   21.4590 F   0  0  0  0  0  0  0  0  0  0  0  0
  -21.2540   -3.7880   26.0350 F   0  0  0  0  0  0  0  0  0  0  0  0
  -22.7990  -13.4910   21.1900 C   0  0  0  0  0  0  0  0  0  0  0  0
  -22.1030  -12.7770   22.0690 N   0  0  0  0  0  0  0  0  0  0  0  0
  -22.3370  -14.5190   20.6960 O   0  0  0  0  0  0  0  0  0  0  0  0
  -22.4930  -11.9470   22.4900 H   0  0  0  0  0  0  0  0  0  0  0  0
  -21.1690  -13.0660   22.3240 H   0  0  0  0  0  0  0  0  0  0  0  0
  -25.3870  -15.1930   20.3300 N   0  0  0  0  0  0  0  0  0  0  0  0
  -24.6030  -15.8240   20.4560 H   0  0  0  0  0  0  0  0  0  0  0  0
  -26.1950  -15.6440   19.9230 H   0  0  0  0  0  0  0  0  0  0  0  0
  -28.5530  -22.3030   22.1930 C   0  0  0  0  0  2  0  0  0  0  0  0
  -30.3380  -21.3740   23.8350 C   0  0  0  0  0  1  0  0  0  0  0  0
  -30.1790  -23.8960   23.5000 C   0  0  0  0  0  1  0  0  0  0  0  0
  -29.4340  -22.5550   23.4510 C   0  0  0  0  0  3  0  0  0  0  0  0
  -29.3220  -24.0430   20.4620 C   0  0  0  0  0  2  0  0  0  0  0  0
  -26.9050  -24.2300   19.8010 C   0  0  0  0  0  1  0  0  0  0  0  0
  -28.0420  -24.9920   20.5310 C   0  0  0  0  0  3  0  0  0  0  0  0
  -28.2550  -26.4260   20.1250 O   0  0  0  0  0  0  0  0  0  0  0  0
  -24.6550  -31.8590   23.3140 C   0  0  0  0  0  0  0  0  0  0  0  0
  -27.1740  -27.3300   20.1260 C   0  0  0  0  0  0  0  0  0  0  0  0
  -23.4250  -30.5290   21.6410 C   0  0  0  0  0  3  0  0  0  0  0  0
  -24.8470  -29.0020   20.1680 C   0  0  0  0  0  0  0  0  0  0  0  0
  -25.9710  -30.7940   21.4770 C   0  0  0  0  0  2  0  0  0  0  0  0
  -26.0230  -29.4330   20.7950 C   0  0  0  0  0  0  0  0  0  0  0  0
  -27.1860  -28.6020   20.7840 C   0  0  0  0  0  3  0  0  0  0  0  0
  -26.0050  -27.0240   19.3960 C   0  0  0  0  0  3  0  0  0  0  0  0
  -24.8380  -27.7980   19.4590 C   0  0  0  0  0  3  0  0  0  0  0  0
  -23.6260  -29.8920   20.2430 C   0  0  0  0  0  2  0  0  0  0  0  0
  -24.7010  -31.0770   22.1980 N   0  0  0  0  0  0  0  0  0  0  0  0
  -23.5770  -32.1440   23.8550 O   0  0  0  0  0  0  0  0  0  0  0  0
  -22.7480  -29.4920   22.5710 C   0  0  0  0  0  0  0  0  0  0  0  0
  -21.4210  -29.3290   22.4310 N   0  0  0  0  0  0  0  0  0  0  0  0
  -23.4160  -28.8410   23.3780 O   0  0  0  0  0  0  0  0  0  0  0  0
  -20.9400  -29.9030   21.7510 H   0  0  0  0  0  0  0  0  0  0  0  0
  -18.0280  -28.1760   22.9080 C   0  0  0  0  0  0  0  0  0  0  0  0
  -20.5900  -28.3840   23.1800 C   0  0  0  0  0  3  0  0  0  0  0  0
  -20.6690  -26.9680   22.5640 C   0  0  0  0  0  2  0  0  0  0  0  0
  -19.5600  -26.6900   21.5450 C   0  0  0  0  0  2  0  0  0  0  0  0
  -18.1820  -26.8410   22.1940 C   0  0  0  0  0  2  0  0  0  0  0  0
  -19.1600  -28.9080   23.3550 C   0  0  0  0  0  0  0  0  0  0  0  0
  -18.9620  -30.1590   23.9800 C   0  0  0  0  0  3  0  0  0  0  0  0
  -17.6660  -30.6760   24.1620 C   0  0  0  0  0  3  0  0  0  0  0  0
  -16.5500  -29.9400   23.7290 C   0  0  0  0  0  3  0  0  0  0  0  0
  -16.7310  -28.6910   23.1090 C   0  0  0  0  0  3  0  0  0  0  0  0
  -25.9500  -32.4510   23.9490 C   0  0  0  0  0  3  0  0  0  0  0  0
  -25.6750  -33.8540   24.2900 N   0  0  0  0  0  0  0  0  0  0  0  0
  -26.0250  -34.9040   23.5380 C   0  0  0  0  0  0  0  0  0  0  0  0
  -26.6840  -34.7930   22.5010 O   0  0  0  0  0  0  0  0  0  0  0  0
  -25.0970  -34.0180   25.1020 H   0  0  0  0  0  0  0  0  0  0  0  0
  -24.3360  -36.7370   23.2060 C   0  0  0  0  0  1  0  0  0  0  0  0
  -25.5710  -36.2990   24.0100 C   0  0  0  0  0  3  0  0  0  0  0  0
  -27.7240  -37.1310   24.8460 C   0  0  0  0  0  1  0  0  0  0  0  0
  -26.6290  -37.3290   23.9000 N   0  0  0  0  0  0  0  0  0  0  0  0
  -26.2440  -38.2580   24.0510 H   0  0  0  0  0  0  0  0  0  0  0  0
  -26.4400  -31.6540   25.2190 C   0  0  1  0  0  0  0  0  0  0  0  0
  -25.3310  -31.4300   26.2720 C   0  0  0  0  0  1  0  0  0  0  0  0
  -27.0000  -30.2680   24.8200 C   0  0  0  0  0  1  0  0  0  0  0  0
  -27.6010  -32.4160   25.9000 C   0  0  0  0  0  1  0  0  0  0  0  0
  1 49  1  0
  1  2  1  6
  3  7  1  0
  3  1  1  0
  4  5  2  0
  4  7  1  0
  5  9  1  0
  7  8  2  0
  8  6  1  0
  8 10  1  0
  9 19  1  0
  9  6  2  0
 11 19  1  0
 12 17  1  0
 13 14  1  0
 13 12  1  0
 15 14  1  0
 15 24  1  0
 15 16  1  0
 17 11  1  0
 17 16  1  0
 18 11  2  0
 19 20  1  0
 21 22  2  0
 22 41  1  0
 23 22  1  0
 23 26  1  0
 24 25  1  0
 24 21  1  0
 25 23  2  0
 26 27  1  0
 27 28  2  0
 29 32  1  0
 29 28  1  0
 30 29  2  0
 31 30  1  0
 31 26  2  0
 32 33  1  0
 33 34  1  0
 34 35  2  0
 36 35  1  0
 36 40  1  0
 37 36  2  0
 38 33  2  0
 38 37  1  0
 39 38  1  0
 41 42  1  0
 42 45  1  0
 42 44  1  0
 43 41  2  0
 46 47  1  0
 46 21  1  0
 48 46  1  0
 49 52  1  0
 52 51  1  0
 52 50  1  0
 53 55  1  0
 53  1  1  0
 55 54  1  0
 56 58  1  0
 56 55  1  0
 57 68  2  0
 58 63  1  0
 59 67  1  0
 59 69  1  0
 60 66  1  0
 60 62  1  0
 61 67  1  0
 62 61  1  0
 63 62  2  0
 64 65  1  0
 64 58  2  0
 65 60  2  0
 66 59  1  0
 67 57  1  0
 69 71  2  0
 70 69  1  0
 72 70  1  0
 73 82  2  0
 73 78  1  0
 74 70  1  0
 74 78  1  0
 75 74  1  0
 76 77  1  0
 76 75  1  0
 77 73  1  0
 78 79  2  0
 79 80  1  0
 81 80  2  0
 82 81  1  0
 83 57  1  0
 83 84  1  0
 83 93  1  0
 84 87  1  0
 85 89  1  0
 85 84  1  0
 86 85  2  0
 89 88  1  0
 91 89  1  0
 91 92  1  0
 91 90  1  0
 93 96  1  1
 93 94  1  0
 95 93  1  0
M  ISO  4  11 100  19 100  55 101  56 101
M  END
>  <TORSDO>  (9) 
F 22

>  <SCORE>  (9) 
-13.128

>  <name>  (9) 
8

>  <ligand_id>  (9) 
8

>  <original_smiles>  (9) 
[H]c1c([H])c([H])c2c(c1[H])C([H])([H])C([H])([H])C([H])([H])C2([H])N([H])C(=O)C1([H])N(C(=O)C([H])(N([H])C(=O)C([H])(N([H])C([H])([H])[H])C([H])([H])[H])C(C([H])([H])[H])(C([H])([H])[H])C([H])([H])[H])C([H])([H])c2c([H])c(OC([H])(C([H])([H])[H])C([H])([H])[N+]([H])(C([H])([H])c3c([H])c([H])c(N([H])C(=O)N4C([H])([H])C([H])([H])C([H])([H])C([H])(n5nc(-c6c([H])c([H])c(Oc7c([H])c([H])c(F)c([H])c7F)c([H])c6[H])c(C(=O)N([H])[H])c5N([H])[H])C4([H])[H])c([H])c3C([H])([H])[H])C([H])([H])C([H])(C([H])([H])[H])C([H])([H])[H])c([H])c([H])c2C1([H])[H]

>  <smiles>  (9) 
[H]c1c([H])c([H])c2c(c1[H])C([H])([H])C([H])([H])C([H])([H])C2([H])N([H])C(=O)C1([H])N(C(=O)C([H])(N([H])C(=O)C([H])(N([H])C([H])([H])[H])C([H])([H])[H])C(C([H])([H])[H])(C([H])([H])[H])C([H])([H])[H])C([H])([H])c2c([H])c(OC([H])(C([H])([H])[H])C([H])([H])[N+]([H])(C([H])([H])c3c([H])c([H])c(N([H])C(=O)N4C([H])([H])C([H])([H])C([H])([H])C([H])(n5nc(-c6c([H])c([H])c(Oc7c([H])c([H])c(F)c([H])c7F)c([H])c6[H])c(C(=O)N([H])[H])c5N([H])[H])C4([H])[H])c([H])c3C([H])([H])[H])C([H])([H])C([H])(C([H])([H])[H])C([H])([H])[H])c([H])c([H])c2C1([H])[H]

$$$$
9:0:0
     RDKit          3D

 92101  0  0  1  0  0  0  0  0999 V2000
  -28.8450  -22.6240   20.7420 C   0  0  0  0  0  0  0  0  0  0  0  0
  -29.6500  -22.5080   18.8410 C   0  0  0  0  0  2  0  0  0  0  0  0
  -29.3640  -23.7590   19.7650 C   0  0  0  0  0  3  0  0  0  0  0  0
  -29.5680  -21.6490   20.0300 N   0  0  0  0  0  0  0  0  0  0  0  0
  -28.0800  -22.5320   21.6800 O   0  0  0  0  0  0  0  0  0  0  0  0
  -30.5990  -19.4060   19.2040 C   0  0  0  0  0  3  0  0  0  0  0  0
  -30.7350  -17.9740   19.2550 C   0  0  0  0  0  3  0  0  0  0  0  0
  -28.9260  -19.3280   20.8630 C   0  0  0  0  0  3  0  0  0  0  0  0
  -29.0270  -17.9010   20.9220 C   0  0  0  0  0  0  0  0  0  0  0  0
  -29.6930  -20.1720   20.0070 C   0  0  0  0  0  0  0  0  0  0  0  0
  -29.9470  -17.1660   20.1210 C   0  0  0  0  0  0  0  0  0  0  0  0
  -28.1120  -17.1580   21.8850 C   0  0  0  0  0  1  0  0  0  0  0  0
  -30.6710  -14.6620   19.6350 C   0  0  0  0  0  0  0  0  0  0  0  0
  -30.3500  -12.4230   18.5740 C   0  0  0  0  0  2  0  0  0  0  0  0
  -29.2710  -12.5590   17.4750 C   0  0  0  0  0  2  0  0  0  0  0  0
  -27.8540  -12.4030   18.0670 C   0  0  0  0  0  2  0  0  0  0  0  0
  -27.6480  -13.2530   19.3480 C   0  0  0  0  0  3  0  0  0  0  0  0
  -28.8250  -13.0700   20.3340 C   0  0  0  0  0  2  0  0  0  0  0  0
  -30.0610  -13.4290   19.6190 N   0  0  0  0  0  0  0  0  0  0  0  0
  -31.7630  -14.8350   19.0840 O   0  0  0  0  0  0  0  0  0  0  0  0
  -29.9380  -15.6880   20.1900 N   0  0  0  0  0  0  0  0  0  0  0  0
  -29.1580  -15.3240   20.7150 H   0  0  0  0  0  0  0  0  0  0  0  0
  -25.3680  -13.8730   20.3570 C   0  0  0  0  0  0  0  0  0  0  0  0
  -24.3340  -13.1100   20.8270 C   0  0  0  0  0  0  0  0  0  0  0  0
  -24.7580  -11.7510   20.7020 C   0  0  0  0  0  0  0  0  0  0  0  0
  -26.3570  -12.9800   19.9770 N   0  0  0  0  0  0  0  0  0  0  0  0
  -26.0020  -11.6970   20.2430 N   0  0  0  0  0  0  0  0  0  0  0  0
  -24.0300  -10.4970   20.9390 C   0  0  0  0  0  0  0  0  0  0  0  0
  -24.4550   -9.5690   21.9130 C   0  0  0  0  0  3  0  0  0  0  0  0
  -23.7260   -8.3790   22.1350 C   0  0  0  0  0  3  0  0  0  0  0  0
  -22.5590   -8.1110   21.3800 C   0  0  0  0  0  0  0  0  0  0  0  0
  -22.1540   -9.0280   20.3950 C   0  0  0  0  0  3  0  0  0  0  0  0
  -22.8830  -10.2090   20.1730 C   0  0  0  0  0  3  0  0  0  0  0  0
  -21.8040   -6.9710   21.5090 O   0  0  0  0  0  0  0  0  0  0  0  0
  -21.6270   -6.3580   22.7240 C   0  0  0  0  0  0  0  0  0  0  0  0
  -21.0830   -7.0430   23.8320 C   0  0  0  0  0  3  0  0  0  0  0  0
  -20.8540   -6.3560   25.0410 C   0  0  0  0  0  3  0  0  0  0  0  0
  -21.1570   -4.9860   25.1420 C   0  0  0  0  0  0  0  0  0  0  0  0
  -21.6930   -4.3000   24.0380 C   0  0  0  0  0  3  0  0  0  0  0  0
  -21.9240   -4.9840   22.8310 C   0  0  0  0  0  0  0  0  0  0  0  0
  -22.4210   -4.3140   21.7630 F   0  0  0  0  0  0  0  0  0  0  0  0
  -20.9290   -4.3230   26.3000 F   0  0  0  0  0  0  0  0  0  0  0  0
  -22.9890  -13.6050   21.2740 C   0  0  0  0  0  0  0  0  0  0  0  0
  -22.3780  -12.9300   22.2420 N   0  0  0  0  0  0  0  0  0  0  0  0
  -22.4930  -14.6250   20.8000 O   0  0  0  0  0  0  0  0  0  0  0  0
  -22.7950  -12.1050   22.6470 H   0  0  0  0  0  0  0  0  0  0  0  0
  -21.4820  -13.2450   22.5850 H   0  0  0  0  0  0  0  0  0  0  0  0
  -25.5410  -15.2450   20.1990 N   0  0  0  0  0  0  0  0  0  0  0  0
  -24.7990  -15.9050   20.4060 H   0  0  0  0  0  0  0  0  0  0  0  0
  -26.3390  -15.6750   19.7500 H   0  0  0  0  0  0  0  0  0  0  0  0
  -28.3260  -24.9280   19.3870 C   0  0  0  0  0  2  0  0  0  0  0  0
  -28.4860  -26.3550   19.8250 O   0  0  0  0  0  0  0  0  0  0  0  0
  -24.5080  -31.4810   23.0600 C   0  0  0  0  0  0  0  0  0  0  0  0
  -27.3670  -27.2190   19.7700 C   0  0  0  0  0  0  0  0  0  0  0  0
  -23.4200  -30.2070   21.2490 C   0  0  0  0  0  3  0  0  0  0  0  0
  -24.9740  -28.8110   19.7720 C   0  0  0  0  0  0  0  0  0  0  0  0
  -25.9610  -30.5750   21.2280 C   0  0  0  0  0  2  0  0  0  0  0  0
  -26.1020  -29.2570   20.4700 C   0  0  0  0  0  0  0  0  0  0  0  0
  -27.3010  -28.4740   20.4620 C   0  0  0  0  0  3  0  0  0  0  0  0
  -26.2140  -26.8450   19.0380 C   0  0  0  0  0  3  0  0  0  0  0  0
  -25.0340  -27.6120   19.0470 C   0  0  0  0  0  3  0  0  0  0  0  0
  -23.7190  -29.6580   19.8300 C   0  0  0  0  0  2  0  0  0  0  0  0
  -24.6460  -30.7680   21.9040 N   0  0  0  0  0  0  0  0  0  0  0  0
  -23.3930  -31.6950   23.5580 O   0  0  0  0  0  0  0  0  0  0  0  0
  -22.7310  -29.1010   22.0840 C   0  0  0  0  0  0  0  0  0  0  0  0
  -21.4150  -28.9170   21.8780 N   0  0  0  0  0  0  0  0  0  0  0  0
  -23.3800  -28.4160   22.8780 O   0  0  0  0  0  0  0  0  0  0  0  0
  -20.9500  -29.5240   21.2170 H   0  0  0  0  0  0  0  0  0  0  0  0
  -18.0280  -27.6730   22.1560 C   0  0  0  0  0  0  0  0  0  0  0  0
  -20.5780  -27.9050   22.5250 C   0  0  0  0  0  3  0  0  0  0  0  0
  -20.7000  -26.5400   21.8100 C   0  0  0  0  0  2  0  0  0  0  0  0
  -19.6280  -26.3210   20.7360 C   0  0  0  0  0  2  0  0  0  0  0  0
  -18.2290  -26.4000   21.3520 C   0  0  0  0  0  2  0  0  0  0  0  0
  -19.1310  -28.3880   22.6930 C   0  0  0  0  0  0  0  0  0  0  0  0
  -18.8910  -29.5830   23.4050 C   0  0  0  0  0  3  0  0  0  0  0  0
  -17.5800  -30.0640   23.5850 C   0  0  0  0  0  3  0  0  0  0  0  0
  -16.4910  -29.3450   23.0630 C   0  0  0  0  0  3  0  0  0  0  0  0
  -16.7160  -28.1500   22.3550 C   0  0  0  0  0  3  0  0  0  0  0  0
  -25.7430  -32.0810   23.7980 C   0  0  0  0  0  3  0  0  0  0  0  0
  -25.3910  -33.4470   24.2150 N   0  0  0  0  0  0  0  0  0  0  0  0
  -25.6840  -34.5540   23.5210 C   0  0  0  0  0  0  0  0  0  0  0  0
  -26.3470  -34.5360   22.4790 O   0  0  0  0  0  0  0  0  0  0  0  0
  -24.7990  -33.5330   25.0280 H   0  0  0  0  0  0  0  0  0  0  0  0
  -23.8730  -36.2910   23.3180 C   0  0  0  0  0  1  0  0  0  0  0  0
  -25.1570  -35.8960   24.0660 C   0  0  0  0  0  3  0  0  0  0  0  0
  -27.2720  -36.8360   24.8860 C   0  0  0  0  0  1  0  0  0  0  0  0
  -26.1420  -36.9960   23.9750 N   0  0  0  0  0  0  0  0  0  0  0  0
  -25.7020  -37.8920   24.1700 H   0  0  0  0  0  0  0  0  0  0  0  0
  -26.2000  -31.2240   25.0420 C   0  0  1  0  0  0  0  0  0  0  0  0
  -25.0500  -30.8790   26.0170 C   0  0  0  0  0  1  0  0  0  0  0  0
  -26.8420  -29.8930   24.5840 C   0  0  0  0  0  1  0  0  0  0  0  0
  -27.2860  -31.9880   25.8350 C   0  0  0  0  0  1  0  0  0  0  0  0
  1  5  2  0
  2  3  1  0
  2  4  1  0
  3 51  1  0
  3  1  1  0
  4  1  1  0
  6  7  2  0
  6 10  1  0
  7 11  1  0
  8  9  1  0
  9 12  1  0
 10  4  1  0
 10  8  2  0
 11 21  1  0
 11  9  2  0
 13 21  1  0
 14 19  1  0
 15 16  1  0
 15 14  1  0
 17 16  1  0
 17 26  1  0
 17 18  1  0
 19 13  1  0
 19 18  1  0
 20 13  2  0
 21 22  1  0
 23 24  2  0
 24 43  1  0
 25 24  1  0
 25 28  1  0
 26 27  1  0
 26 23  1  0
 27 25  2  0
 28 29  1  0
 29 30  2  0
 31 34  1  0
 31 30  1  0
 32 31  2  0
 33 32  1  0
 33 28  2  0
 34 35  1  0
 35 40  2  0
 35 36  1  0
 36 37  2  0
 37 38  1  0
 38 42  1  0
 39 38  2  0
 40 39  1  0
 41 40  1  0
 43 44  1  0
 44 47  1  0
 44 46  1  0
 45 43  2  0
 48 23  1  0
 48 49  1  0
 50 48  1  0
 51 52  1  0
 53 64  2  0
 54 52  1  0
 54 59  1  0
 55 63  1  0
 55 65  1  0
 56 62  1  0
 56 58  1  0
 57 63  1  0
 58 57  1  0
 59 58  2  0
 60 61  1  0
 60 54  2  0
 61 56  2  0
 62 55  1  0
 63 53  1  0
 65 67  2  0
 66 65  1  0
 68 66  1  0
 69 78  2  0
 69 74  1  0
 70 66  1  0
 70 74  1  0
 71 70  1  0
 72 73  1  0
 72 71  1  0
 73 69  1  0
 74 75  2  0
 75 76  1  0
 77 76  2  0
 78 77  1  0
 79 53  1  0
 79 80  1  0
 79 89  1  0
 80 83  1  0
 81 85  1  0
 81 80  1  0
 82 81  2  0
 85 84  1  0
 87 85  1  0
 87 88  1  0
 87 86  1  0
 89 92  1  1
 89 90  1  0
 91 89  1  0
M  ISO  4  13 100  21 100  51 101  52 101
M  END
>  <TORSDO>  (10) 
F 18

>  <SCORE>  (10) 
-9.744

>  <name>  (10) 
9

>  <ligand_id>  (10) 
9

>  <original_smiles>  (10) 
[H]c1c([H])c([H])c2c(c1[H])C([H])([H])C([H])([H])C([H])([H])C2([H])N([H])C(=O)C1([H])N(C(=O)C([H])(N([H])C(=O)C([H])(N([H])C([H])([H])[H])C([H])([H])[H])C(C([H])([H])[H])(C([H])([H])[H])C([H])([H])[H])C([H])([H])c2c([H])c(OC([H])([H])C3([H])C(=O)N(c4c([H])c([H])c(N([H])C(=O)N5C([H])([H])C([H])([H])C([H])([H])C([H])(n6nc(-c7c([H])c([H])c(Oc8c([H])c([H])c(F)c([H])c8F)c([H])c7[H])c(C(=O)N([H])[H])c6N([H])[H])C5([H])[H])c(C([H])([H])[H])c4[H])C3([H])[H])c([H])c([H])c2C1([H])[H]

>  <smiles>  (10) 
[H]c1c([H])c([H])c2c(c1[H])C([H])([H])C([H])([H])C([H])([H])C2([H])N([H])C(=O)C1([H])N(C(=O)C([H])(N([H])C(=O)C([H])(N([H])C([H])([H])[H])C([H])([H])[H])C(C([H])([H])[H])(C([H])([H])[H])C([H])([H])[H])C([H])([H])c2c([H])c(OC([H])([H])C3([H])C(=O)N(c4c([H])c([H])c(N([H])C(=O)N5C([H])([H])C([H])([H])C([H])([H])C([H])(n6nc(-c7c([H])c([H])c(Oc8c([H])c([H])c(F)c([H])c8F)c([H])c7[H])c(C(=O)N([H])[H])c6N([H])[H])C5([H])[H])c(C([H])([H])[H])c4[H])C3([H])[H])c([H])c([H])c2C1([H])[H]

$$$$
10:0:0
     RDKit          3D

102112  0  0  1  0  0  0  0  0999 V2000
  -28.8900  -21.2240   19.5970 C   0  0  0  0  0  3  0  0  0  0  0  0
  -28.9410  -22.3480   18.7600 C   0  0  0  0  0  3  0  0  0  0  0  0
  -29.5900  -21.2050   20.8170 C   0  0  0  0  0  0  0  0  0  0  0  0
  -30.3390  -22.3540   21.2070 C   0  0  0  0  0  0  0  0  0  0  0  0
  -30.3520  -23.5310   20.3820 C   0  0  0  0  0  0  0  0  0  0  0  0
  -29.6750  -23.4990   19.1230 C   0  0  0  0  0  0  0  0  0  0  0  0
  -31.1380  -22.3200   22.5100 C   0  0  0  0  0  1  0  0  0  0  0  0
  -29.6220  -24.0460   15.8440 C   0  0  0  0  0  2  0  0  0  0  0  0
  -28.6240  -25.1500   16.1680 C   0  0  0  0  0  2  0  0  0  0  0  0
  -30.5950  -24.1340   17.0150 C   0  0  0  0  0  2  0  0  0  0  0  0
  -28.5650  -25.1920   17.7060 C   0  0  0  0  0  3  0  0  0  0  0  0
  -29.7980  -24.5360   18.1710 N   0  0  0  0  0  0  0  0  0  0  0  0
  -28.4400  -26.6480   18.2090 C   0  0  0  0  0  2  0  0  0  0  0  0
  -27.9220  -26.7150   19.5330 O   0  0  0  0  0  0  0  0  0  0  0  0
  -24.5590  -31.8410   23.1370 C   0  0  0  0  0  0  0  0  0  0  0  0
  -26.7850  -27.4730   19.6670 C   0  0  0  0  0  0  0  0  0  0  0  0
  -23.1720  -30.5540   21.5430 C   0  0  0  0  0  3  0  0  0  0  0  0
  -24.4490  -29.0290   19.9440 C   0  0  0  0  0  0  0  0  0  0  0  0
  -25.6820  -30.8370   21.1550 C   0  0  0  0  0  2  0  0  0  0  0  0
  -25.6650  -29.4930   20.4610 C   0  0  0  0  0  0  0  0  0  0  0  0
  -26.8360  -28.7160   20.3300 C   0  0  0  0  0  3  0  0  0  0  0  0
  -25.5570  -27.0080   19.1560 C   0  0  0  0  0  3  0  0  0  0  0  0
  -24.3870  -27.7820   19.2930 C   0  0  0  0  0  3  0  0  0  0  0  0
  -23.2440  -29.9270   20.1240 C   0  0  0  0  0  2  0  0  0  0  0  0
  -24.4940  -31.0890   22.0020 N   0  0  0  0  0  0  0  0  0  0  0  0
  -23.5370  -32.1260   23.7750 O   0  0  0  0  0  0  0  0  0  0  0  0
  -22.5660  -29.5140   22.5120 C   0  0  0  0  0  0  0  0  0  0  0  0
  -21.2390  -29.3260   22.4310 N   0  0  0  0  0  0  0  0  0  0  0  0
  -23.2830  -28.8810   23.2910 O   0  0  0  0  0  0  0  0  0  0  0  0
  -20.7220  -29.8880   21.7710 H   0  0  0  0  0  0  0  0  0  0  0  0
  -17.9090  -28.0320   22.9620 C   0  0  0  0  0  0  0  0  0  0  0  0
  -20.4580  -28.3740   23.2190 C   0  0  0  0  0  3  0  0  0  0  0  0
  -20.6040  -26.9390   22.6620 C   0  0  0  0  0  2  0  0  0  0  0  0
  -19.5090  -26.5670   21.6570 C   0  0  0  0  0  2  0  0  0  0  0  0
  -18.1250  -26.6790   22.3050 C   0  0  0  0  0  2  0  0  0  0  0  0
  -19.0040  -28.8350   23.3770 C   0  0  0  0  0  0  0  0  0  0  0  0
  -18.7500  -30.0990   23.9500 C   0  0  0  0  0  3  0  0  0  0  0  0
  -17.4320  -30.5640   24.1120 C   0  0  0  0  0  3  0  0  0  0  0  0
  -16.3510  -29.7600   23.7140 C   0  0  0  0  0  3  0  0  0  0  0  0
  -16.5900  -28.4970   23.1450 C   0  0  0  0  0  3  0  0  0  0  0  0
  -25.9150  -32.3980   23.6730 C   0  0  0  0  0  3  0  0  0  0  0  0
  -25.6860  -33.7870   24.0930 N   0  0  0  0  0  0  0  0  0  0  0  0
  -25.9980  -34.8650   23.3610 C   0  0  0  0  0  0  0  0  0  0  0  0
  -26.5830  -34.7930   22.2760 O   0  0  0  0  0  0  0  0  0  0  0  0
  -25.1600  -33.9210   24.9430 H   0  0  0  0  0  0  0  0  0  0  0  0
  -24.3060  -36.7190   23.2410 C   0  0  0  0  0  1  0  0  0  0  0  0
  -25.5980  -36.2400   23.9230 C   0  0  0  0  0  3  0  0  0  0  0  0
  -27.8230  -37.0140   24.6070 C   0  0  0  0  0  1  0  0  0  0  0  0
  -26.6520  -37.2670   23.7730 N   0  0  0  0  0  0  0  0  0  0  0  0
  -26.2910  -38.1890   24.0040 H   0  0  0  0  0  0  0  0  0  0  0  0
  -26.5160  -31.5480   24.8600 C   0  0  1  0  0  0  0  0  0  0  0  0
  -25.5150  -31.2940   26.0110 C   0  0  0  0  0  1  0  0  0  0  0  0
  -27.0130  -30.1760   24.3480 C   0  0  0  0  0  1  0  0  0  0  0  0
  -27.7500  -32.2720   25.4490 C   0  0  0  0  0  1  0  0  0  0  0  0
  -31.1210  -24.7900   20.8500 C   0  0  1  0  0  0  0  0  0  0  0  0
  -30.9270  -25.0240   22.1490 F   0  0  0  0  0  0  0  0  0  0  0  0
  -32.4250  -24.6070   20.6490 F   0  0  0  0  0  0  0  0  0  0  0  0
  -30.7770  -25.9250   20.2430 F   0  0  0  0  0  0  0  0  0  0  0  0
  -29.4610  -19.9530   21.6990 C   0  0  0  0  0  2  0  0  0  0  0  0
  -30.4120  -17.7020   22.2480 C   0  0  0  0  0  2  0  0  0  0  0  0
  -30.1440  -17.9950   20.2460 C   0  0  0  0  0  2  0  0  0  0  0  0
  -30.9330  -16.9410   21.0310 C   0  0  0  0  0  3  0  0  0  0  0  0
  -30.4440  -18.8880   21.3770 N   0  0  1  0  0  4  0  0  0  0  0  0
  -31.3840  -19.2450   21.3140 H   0  0  0  0  0  0  0  0  0  0  0  0
  -31.0730  -14.5960   20.1920 C   0  0  0  0  0  0  0  0  0  0  0  0
  -30.7240  -12.4270   19.0720 C   0  0  0  0  0  2  0  0  0  0  0  0
  -29.7610  -12.6060   17.8800 C   0  0  0  0  0  2  0  0  0  0  0  0
  -28.2920  -12.4980   18.3390 C   0  0  0  0  0  2  0  0  0  0  0  0
  -27.9880  -13.3800   19.5790 C   0  0  0  0  0  3  0  0  0  0  0  0
  -29.0540  -13.1660   20.6760 C   0  0  0  0  0  2  0  0  0  0  0  0
  -30.3780  -13.4340   20.0860 N   0  0  0  0  0  0  0  0  0  0  0  0
  -32.1450  -14.8040   19.6180 O   0  0  0  0  0  0  0  0  0  0  0  0
  -30.4640  -15.5580   20.9010 N   0  0  0  0  0  0  0  0  0  0  0  0
  -29.5930  -15.3020   21.3410 H   0  0  0  0  0  0  0  0  0  0  0  0
  -25.6200  -14.0500   20.3420 C   0  0  0  0  0  0  0  0  0  0  0  0
  -24.5410  -13.3040   20.7340 C   0  0  0  0  0  0  0  0  0  0  0  0
  -24.9670  -11.9420   20.6890 C   0  0  0  0  0  0  0  0  0  0  0  0
  -26.6360  -13.1440   20.0860 N   0  0  0  0  0  0  0  0  0  0  0  0
  -26.2480  -11.8690   20.3490 N   0  0  0  0  0  0  0  0  0  0  0  0
  -24.2150  -10.6960   20.8930 C   0  0  0  0  0  0  0  0  0  0  0  0
  -24.6200   -9.7360   21.8470 C   0  0  0  0  0  3  0  0  0  0  0  0
  -23.8700   -8.5560   22.0360 C   0  0  0  0  0  3  0  0  0  0  0  0
  -22.7020   -8.3260   21.2720 C   0  0  0  0  0  0  0  0  0  0  0  0
  -22.3150   -9.2740   20.3080 C   0  0  0  0  0  3  0  0  0  0  0  0
  -23.0660  -10.4470   20.1170 C   0  0  0  0  0  3  0  0  0  0  0  0
  -21.9260   -7.1970   21.3690 O   0  0  0  0  0  0  0  0  0  0  0  0
  -21.8030   -6.5080   22.5490 C   0  0  0  0  0  0  0  0  0  0  0  0
  -21.3230   -7.1250   23.7250 C   0  0  0  0  0  3  0  0  0  0  0  0
  -21.1450   -6.3630   24.8970 C   0  0  0  0  0  3  0  0  0  0  0  0
  -21.4380   -4.9870   24.8950 C   0  0  0  0  0  0  0  0  0  0  0  0
  -21.9090   -4.3690   23.7230 C   0  0  0  0  0  3  0  0  0  0  0  0
  -22.0880   -5.1280   22.5530 C   0  0  0  0  0  0  0  0  0  0  0  0
  -22.5230   -4.5240   21.4200 F   0  0  0  0  0  0  0  0  0  0  0  0
  -21.2600   -4.2530   26.0180 F   0  0  0  0  0  0  0  0  0  0  0  0
  -23.1630  -13.8150   21.0420 C   0  0  0  0  0  0  0  0  0  0  0  0
  -22.4440  -13.1420   21.9350 N   0  0  0  0  0  0  0  0  0  0  0  0
  -22.7330  -14.8450   20.5260 O   0  0  0  0  0  0  0  0  0  0  0  0
  -22.8050  -12.3080   22.3760 H   0  0  0  0  0  0  0  0  0  0  0  0
  -21.5210  -13.4680   22.1830 H   0  0  0  0  0  0  0  0  0  0  0  0
  -25.8170  -15.4170   20.1640 N   0  0  0  0  0  0  0  0  0  0  0  0
  -25.0680  -16.0910   20.2790 H   0  0  0  0  0  0  0  0  0  0  0  0
  -26.6640  -15.8270   19.7930 H   0  0  0  0  0  0  0  0  0  0  0  0
  1  3  1  0
  2  6  1  0
  2  1  2  0
  3  4  2  0
  3 59  1  0
  4  7  1  0
  5 55  1  0
  5  4  1  0
  6  5  2  0
  8  9  1  0
  8 10  1  0
  9 11  1  0
 10 12  1  0
 11 12  1  0
 11 13  1  0
 12  6  1  0
 13 14  1  0
 14 16  1  0
 15 26  2  0
 16 21  1  0
 17 25  1  0
 17 27  1  0
 18 24  1  0
 18 20  1  0
 19 25  1  0
 20 19  1  0
 21 20  2  0
 22 23  1  0
 22 16  2  0
 23 18  2  0
 24 17  1  0
 25 15  1  0
 27 29  2  0
 28 27  1  0
 30 28  1  0
 31 40  2  0
 31 36  1  0
 32 28  1  0
 32 36  1  0
 33 32  1  0
 34 35  1  0
 34 33  1  0
 35 31  1  0
 36 37  2  0
 37 38  1  0
 39 38  2  0
 40 39  1  0
 41 15  1  0
 41 42  1  0
 41 51  1  0
 42 45  1  0
 43 47  1  0
 43 42  1  0
 44 43  2  0
 47 46  1  0
 49 47  1  0
 49 50  1  0
 49 48  1  0
 51 54  1  1
 51 52  1  0
 53 51  1  0
 55 56  1  1
 57 55  1  0
 58 55  1  0
 61 62  1  0
 61 63  1  0
 62 73  1  0
 62 60  1  0
 63 59  1  0
 63 60  1  0
 63 64  1  6
 65 73  1  0
 66 71  1  0
 67 68  1  0
 67 66  1  0
 69 68  1  0
 69 78  1  0
 69 70  1  0
 71 65  1  0
 71 70  1  0
 72 65  2  0
 73 74  1  0
 75 76  2  0
 76 95  1  0
 77 76  1  0
 77 80  1  0
 78 75  1  0
 78 79  1  0
 79 77  2  0
 80 81  1  0
 81 82  2  0
 83 86  1  0
 83 82  1  0
 84 83  2  0
 85 84  1  0
 85 80  2  0
 86 87  1  0
 87 92  2  0
 87 88  1  0
 88 89  2  0
 90 89  1  0
 90 94  1  0
 91 90  2  0
 92 91  1  0
 93 92  1  0
 95 96  1  0
 96 99  1  0
 96 98  1  0
 97 95  2  0
100101  1  0
100 75  1  0
102100  1  0
M  ISO  4  13 101  14 101  65 100  73 100
M  END
>  <TORSDO>  (11) 
F 21

>  <SCORE>  (11) 
-12.606

>  <name>  (11) 
10

>  <ligand_id>  (11) 
10

>  <original_smiles>  (11) 
[H]c1c([H])c([H])c2c(c1[H])C([H])([H])C([H])([H])C([H])([H])C2([H])N([H])C(=O)C1([H])N(C(=O)C([H])(N([H])C(=O)C([H])(N([H])C([H])([H])[H])C([H])([H])[H])C(C([H])([H])[H])(C([H])([H])[H])C([H])([H])[H])C([H])([H])c2c([H])c(OC([H])([H])C3([H])N(c4c([H])c([H])c(C([H])([H])[N+]5([H])C([H])([H])C([H])(N([H])C(=O)N6C([H])([H])C([H])([H])C([H])([H])C([H])(n7nc(-c8c([H])c([H])c(Oc9c([H])c([H])c(F)c([H])c9F)c([H])c8[H])c(C(=O)N([H])[H])c7N([H])[H])C6([H])[H])C5([H])[H])c(C([H])([H])[H])c4C(F)(F)F)C([H])([H])C([H])([H])C3([H])[H])c([H])c([H])c2C1([H])[H]

>  <smiles>  (11) 
[H]c1c([H])c([H])c2c(c1[H])C([H])([H])C([H])([H])C([H])([H])C2([H])N([H])C(=O)C1([H])N(C(=O)C([H])(N([H])C(=O)C([H])(N([H])C([H])([H])[H])C([H])([H])[H])C(C([H])([H])[H])(C([H])([H])[H])C([H])([H])[H])C([H])([H])c2c([H])c(OC([H])([H])C3([H])N(c4c([H])c([H])c(C([H])([H])[N+]5([H])C([H])([H])C([H])(N([H])C(=O)N6C([H])([H])C([H])([H])C([H])([H])C([H])(n7nc(-c8c([H])c([H])c(Oc9c([H])c([H])c(F)c([H])c9F)c([H])c8[H])c(C(=O)N([H])[H])c7N([H])[H])C6([H])[H])C5([H])[H])c(C([H])([H])[H])c4C(F)(F)F)C([H])([H])C([H])([H])C3([H])[H])c([H])c([H])c2C1([H])[H]

$$$$
11:0:0
     RDKit          3D

 92101  0  0  1  0  0  0  0  0999 V2000
  -29.0880  -19.9130   20.7590 C   0  0  0  0  0  3  0  0  0  0  0  0
  -29.7650  -19.8790   18.5150 C   0  0  0  0  0  3  0  0  0  0  0  0
  -29.3210  -18.4700   20.8410 C   0  0  0  0  0  0  0  0  0  0  0  0
  -29.2700  -20.7150   19.5840 C   0  0  0  0  0  0  0  0  0  0  0  0
  -29.8170  -17.6470   19.7600 C   0  0  0  0  0  0  0  0  0  0  0  0
  -30.0310  -18.4440   18.5850 C   0  0  0  0  0  0  0  0  0  0  0  0
  -28.9940  -17.7830   22.1550 C   0  0  0  0  0  1  0  0  0  0  0  0
  -30.4510  -17.8190   17.4600 F   0  0  0  0  0  0  0  0  0  0  0  0
  -30.6780  -15.0250   19.4080 C   0  0  0  0  0  0  0  0  0  0  0  0
  -30.4810  -12.6880   18.4440 C   0  0  0  0  0  2  0  0  0  0  0  0
  -29.3640  -12.6710   17.3710 C   0  0  0  0  0  2  0  0  0  0  0  0
  -27.9870  -12.4350   18.0180 C   0  0  0  0  0  2  0  0  0  0  0  0
  -27.7630  -13.3270   19.2690 C   0  0  0  0  0  3  0  0  0  0  0  0
  -28.9780  -13.2940   20.2210 C   0  0  0  0  0  2  0  0  0  0  0  0
  -30.1450  -13.7380   19.4460 N   0  0  0  0  0  0  0  0  0  0  0  0
  -31.7910  -15.1640   18.8870 O   0  0  0  0  0  0  0  0  0  0  0  0
  -29.8900  -16.1120   19.8710 N   0  0  0  0  0  0  0  0  0  0  0  0
  -29.1180  -15.7460   20.4070 H   0  0  0  0  0  0  0  0  0  0  0  0
  -25.5660  -13.8840   20.4590 C   0  0  0  0  0  0  0  0  0  0  0  0
  -24.5480  -13.0990   20.9270 C   0  0  0  0  0  0  0  0  0  0  0  0
  -24.9430  -11.7480   20.6780 C   0  0  0  0  0  0  0  0  0  0  0  0
  -26.5150  -13.0110   19.9540 N   0  0  0  0  0  0  0  0  0  0  0  0
  -26.1600  -11.7140   20.1470 N   0  0  0  0  0  0  0  0  0  0  0  0
  -24.2060  -10.4910   20.8610 C   0  0  0  0  0  0  0  0  0  0  0  0
  -24.6420   -9.5060   21.7750 C   0  0  0  0  0  3  0  0  0  0  0  0
  -23.9040   -8.3140   21.9470 C   0  0  0  0  0  3  0  0  0  0  0  0
  -22.7200   -8.0980   21.2040 C   0  0  0  0  0  0  0  0  0  0  0  0
  -22.3030   -9.0720   20.2790 C   0  0  0  0  0  3  0  0  0  0  0  0
  -23.0410  -10.2550   20.1050 C   0  0  0  0  0  3  0  0  0  0  0  0
  -21.9540   -6.9600   21.2860 O   0  0  0  0  0  0  0  0  0  0  0  0
  -21.7270   -6.3310   22.4840 C   0  0  0  0  0  0  0  0  0  0  0  0
  -21.0890   -6.9850   23.5600 C   0  0  0  0  0  3  0  0  0  0  0  0
  -20.8130   -6.2790   24.7480 C   0  0  0  0  0  3  0  0  0  0  0  0
  -21.1640   -4.9200   24.8590 C   0  0  0  0  0  0  0  0  0  0  0  0
  -21.7950   -4.2660   23.7860 C   0  0  0  0  0  3  0  0  0  0  0  0
  -22.0720   -4.9690   22.6010 C   0  0  0  0  0  0  0  0  0  0  0  0
  -22.6610   -4.3280   21.5630 F   0  0  0  0  0  0  0  0  0  0  0  0
  -20.8930   -4.2400   25.9970 F   0  0  0  0  0  0  0  0  0  0  0  0
  -23.2380  -13.5780   21.4810 C   0  0  0  0  0  0  0  0  0  0  0  0
  -22.6430  -12.8170   22.3920 N   0  0  0  0  0  0  0  0  0  0  0  0
  -22.7580  -14.6600   21.1430 O   0  0  0  0  0  0  0  0  0  0  0  0
  -23.0440  -11.9390   22.6840 H   0  0  0  0  0  0  0  0  0  0  0  0
  -21.7720  -13.1190   22.8040 H   0  0  0  0  0  0  0  0  0  0  0  0
  -25.7530  -15.2620   20.3950 N   0  0  0  0  0  0  0  0  0  0  0  0
  -25.0320  -15.9120   20.6890 H   0  0  0  0  0  0  0  0  0  0  0  0
  -26.5240  -15.7150   19.9220 H   0  0  0  0  0  0  0  0  0  0  0  0
  -28.2760  -24.2300   18.1840 C   0  0  0  0  0  2  0  0  0  0  0  0
  -28.9380  -22.8020   18.1000 C   0  0  0  0  0  2  0  0  0  0  0  0
  -28.5930  -23.3390   20.3750 C   0  0  0  0  0  2  0  0  0  0  0  0
  -28.6210  -24.7790   19.5740 C   0  0  0  0  0  3  0  0  0  0  0  0
  -28.9580  -22.1770   19.4340 N   0  0  0  0  0  0  0  0  0  0  0  0
  -28.3870  -26.2700   19.9980 O   0  0  0  0  0  0  0  0  0  0  0  0
  -24.6460  -31.7290   23.1560 C   0  0  0  0  0  0  0  0  0  0  0  0
  -27.2500  -27.1500   19.9510 C   0  0  0  0  0  0  0  0  0  0  0  0
  -23.4340  -30.3540   21.5030 C   0  0  0  0  0  3  0  0  0  0  0  0
  -24.8790  -28.8360   20.0070 C   0  0  0  0  0  0  0  0  0  0  0  0
  -25.9740  -30.6760   21.2870 C   0  0  0  0  0  2  0  0  0  0  0  0
  -26.0580  -29.3000   20.6010 C   0  0  0  0  0  0  0  0  0  0  0  0
  -27.2370  -28.4730   20.5530 C   0  0  0  0  0  3  0  0  0  0  0  0
  -26.0420  -26.7750   19.3290 C   0  0  0  0  0  3  0  0  0  0  0  0
  -24.8820  -27.5880   19.3570 C   0  0  0  0  0  3  0  0  0  0  0  0
  -23.6350  -29.7080   20.1040 C   0  0  0  0  0  2  0  0  0  0  0  0
  -24.7050  -30.9420   22.0380 N   0  0  0  0  0  0  0  0  0  0  0  0
  -23.5670  -31.9790   23.7160 O   0  0  0  0  0  0  0  0  0  0  0  0
  -22.7950  -29.3150   22.4560 C   0  0  0  0  0  0  0  0  0  0  0  0
  -21.4780  -29.0810   22.3140 N   0  0  0  0  0  0  0  0  0  0  0  0
  -23.4870  -28.7200   23.2870 O   0  0  0  0  0  0  0  0  0  0  0  0
  -20.9760  -29.6150   21.6200 H   0  0  0  0  0  0  0  0  0  0  0  0
  -18.1630  -27.6830   22.7360 C   0  0  0  0  0  0  0  0  0  0  0  0
  -20.6940  -28.1010   23.0700 C   0  0  0  0  0  3  0  0  0  0  0  0
  -20.8970  -26.6740   22.5090 C   0  0  0  0  0  2  0  0  0  0  0  0
  -19.8450  -26.2790   21.4680 C   0  0  0  0  0  2  0  0  0  0  0  0
  -18.4400  -26.3450   22.0720 C   0  0  0  0  0  2  0  0  0  0  0  0
  -19.2220  -28.5150   23.1900 C   0  0  0  0  0  0  0  0  0  0  0  0
  -18.9100  -29.7630   23.7690 C   0  0  0  0  0  3  0  0  0  0  0  0
  -17.5740  -30.1840   23.8980 C   0  0  0  0  0  3  0  0  0  0  0  0
  -16.5290  -29.3520   23.4600 C   0  0  0  0  0  3  0  0  0  0  0  0
  -16.8250  -28.1030   22.8850 C   0  0  0  0  0  3  0  0  0  0  0  0
  -25.9260  -32.3710   23.7740 C   0  0  0  0  0  3  0  0  0  0  0  0
  -25.6030  -33.7600   24.1380 N   0  0  0  0  0  0  0  0  0  0  0  0
  -25.8770  -34.8320   23.3830 C   0  0  0  0  0  0  0  0  0  0  0  0
  -26.4940  -34.7580   22.3170 O   0  0  0  0  0  0  0  0  0  0  0  0
  -25.0510  -33.8900   24.9730 H   0  0  0  0  0  0  0  0  0  0  0  0
  -24.0860  -36.5870   23.1670 C   0  0  0  0  0  1  0  0  0  0  0  0
  -25.3900  -36.2060   23.8880 C   0  0  0  0  0  3  0  0  0  0  0  0
  -27.5460  -37.1450   24.5920 C   0  0  0  0  0  1  0  0  0  0  0  0
  -26.3870  -37.2850   23.7160 N   0  0  0  0  0  0  0  0  0  0  0  0
  -25.9660  -38.1940   23.8890 H   0  0  0  0  0  0  0  0  0  0  0  0
  -26.4670  -31.5870   25.0340 C   0  0  1  0  0  0  0  0  0  0  0  0
  -25.3870  -31.3090   26.1050 C   0  0  0  0  0  1  0  0  0  0  0  0
  -27.0750  -30.2300   24.6130 C   0  0  0  0  0  1  0  0  0  0  0  0
  -27.6070  -32.3920   25.7020 C   0  0  0  0  0  1  0  0  0  0  0  0
  1  3  1  0
  2  6  2  0
  2  4  1  0
  3  7  1  0
  4  1  2  0
  5 17  1  0
  5  3  2  0
  6  5  1  0
  8  6  1  0
  9 15  1  0
  9 17  1  0
 10 15  1  0
 11 12  1  0
 11 10  1  0
 13 12  1  0
 13 22  1  0
 13 14  1  0
 15 14  1  0
 16  9  2  0
 17 18  1  0
 19 20  2  0
 20 39  1  0
 21 24  1  0
 21 20  1  0
 22 23  1  0
 22 19  1  0
 23 21  2  0
 24 25  1  0
 25 26  2  0
 27 30  1  0
 27 26  1  0
 28 27  2  0
 29 28  1  0
 29 24  2  0
 30 31  1  0
 31 36  2  0
 31 32  1  0
 32 33  2  0
 33 34  1  0
 34 38  1  0
 35 34  2  0
 36 35  1  0
 37 36  1  0
 39 40  1  0
 40 42  1  0
 40 43  1  0
 41 39  2  0
 44 19  1  0
 44 45  1  0
 46 44  1  0
 47 50  1  0
 48 47  1  0
 48 51  1  0
 50 52  1  0
 50 49  1  0
 51  4  1  0
 51 49  1  0
 53 64  2  0
 54 52  1  0
 54 59  1  0
 55 63  1  0
 55 65  1  0
 56 62  1  0
 56 58  1  0
 57 63  1  0
 58 57  1  0
 59 58  2  0
 60 61  1  0
 60 54  2  0
 61 56  2  0
 62 55  1  0
 63 53  1  0
 65 67  2  0
 66 65  1  0
 68 66  1  0
 69 78  2  0
 69 74  1  0
 70 66  1  0
 70 74  1  0
 71 70  1  0
 72 73  1  0
 72 71  1  0
 73 69  1  0
 74 75  2  0
 75 76  1  0
 77 76  2  0
 78 77  1  0
 79 53  1  0
 79 80  1  0
 79 89  1  0
 80 83  1  0
 81 85  1  0
 81 80  1  0
 82 81  2  0
 85 84  1  0
 87 85  1  0
 87 88  1  0
 87 86  1  0
 89 92  1  1
 89 90  1  0
 91 89  1  0
M  ISO  4   9 100  17 100  50 101  52 101
M  END
>  <TORSDO>  (12) 
F 17

>  <SCORE>  (12) 
-11.445

>  <name>  (12) 
11

>  <ligand_id>  (12) 
11

>  <original_smiles>  (12) 
[H]c1c([H])c([H])c2c(c1[H])C([H])([H])C([H])([H])C([H])([H])C2([H])N([H])C(=O)C1([H])N(C(=O)C([H])(N([H])C(=O)C([H])(N([H])C([H])([H])[H])C([H])([H])[H])C(C([H])([H])[H])(C([H])([H])[H])C([H])([H])[H])C([H])([H])c2c([H])c(OC3([H])C([H])([H])N(c4c([H])c(F)c(N([H])C(=O)N5C([H])([H])C([H])([H])C([H])([H])C([H])(n6nc(-c7c([H])c([H])c(Oc8c([H])c([H])c(F)c([H])c8F)c([H])c7[H])c(C(=O)N([H])[H])c6N([H])[H])C5([H])[H])c(C([H])([H])[H])c4[H])C([H])([H])C3([H])[H])c([H])c([H])c2C1([H])[H]

>  <smiles>  (12) 
[H]c1c([H])c([H])c2c(c1[H])C([H])([H])C([H])([H])C([H])([H])C2([H])N([H])C(=O)C1([H])N(C(=O)C([H])(N([H])C(=O)C([H])(N([H])C([H])([H])[H])C([H])([H])[H])C(C([H])([H])[H])(C([H])([H])[H])C([H])([H])[H])C([H])([H])c2c([H])c(OC3([H])C([H])([H])N(c4c([H])c(F)c(N([H])C(=O)N5C([H])([H])C([H])([H])C([H])([H])C([H])(n6nc(-c7c([H])c([H])c(Oc8c([H])c([H])c(F)c([H])c8F)c([H])c7[H])c(C(=O)N([H])[H])c6N([H])[H])C5([H])[H])c(C([H])([H])[H])c4[H])C([H])([H])C3([H])[H])c([H])c([H])c2C1([H])[H]

$$$$
12:0:0
     RDKit          3D

 94103  0  0  1  0  0  0  0  0999 V2000
  -28.5050  -23.8640   22.9400 C   0  0  0  0  0  2  0  0  0  0  0  0
  -27.2000  -23.5390   22.2200 C   0  0  0  0  0  2  0  0  0  0  0  0
  -29.5150  -24.5000   21.9680 C   0  0  0  0  0  2  0  0  0  0  0  0
  -27.4660  -22.4720   21.1450 C   0  0  0  0  0  2  0  0  0  0  0  0
  -29.3240  -24.0770   20.4800 C   0  0  0  0  0  3  0  0  0  0  0  0
  -28.7160  -22.6980   20.3990 N   0  0  0  0  0  0  0  0  0  0  0  0
  -29.1130  -19.1380   19.1830 C   0  0  0  0  0  3  0  0  0  0  0  0
  -28.6990  -20.4930   19.3230 C   0  0  0  0  0  3  0  0  0  0  0  0
  -30.8940  -19.5520   20.7400 C   0  0  0  0  0  3  0  0  0  0  0  0
  -30.2160  -18.6280   19.9060 C   0  0  0  0  0  0  0  0  0  0  0  0
  -29.3550  -21.4250   20.1770 C   0  0  0  0  0  0  0  0  0  0  0  0
  -30.4960  -20.9130   20.8720 C   0  0  0  0  0  0  0  0  0  0  0  0
  -31.4520  -21.8910   21.9240 Cl  0  0  0  0  0  0  0  0  0  0  0  0
  -30.7910  -17.1930   19.6470 C   0  0  0  0  0  2  0  0  0  0  0  0
  -30.9910  -14.7520   20.1160 C   0  0  0  0  0  0  0  0  0  0  0  0
  -30.5710  -12.5930   18.9510 C   0  0  0  0  0  2  0  0  0  0  0  0
  -29.5990  -12.8420   17.7780 C   0  0  0  0  0  2  0  0  0  0  0  0
  -28.1350  -12.7250   18.2510 C   0  0  0  0  0  2  0  0  0  0  0  0
  -27.8680  -13.5170   19.5620 C   0  0  0  0  0  3  0  0  0  0  0  0
  -28.9660  -13.2450   20.6120 C   0  0  0  0  0  2  0  0  0  0  0  0
  -30.2570  -13.5940   19.9970 N   0  0  0  0  0  0  0  0  0  0  0  0
  -32.1350  -14.7910   19.6520 O   0  0  0  0  0  0  0  0  0  0  0  0
  -29.6490  -16.1630   21.6600 C   0  0  0  0  0  1  0  0  0  0  0  0
  -30.3500  -15.9490   20.3860 N   0  0  0  0  0  0  0  0  0  0  0  0
  -25.5150  -14.1510   20.3770 C   0  0  0  0  0  0  0  0  0  0  0  0
  -24.4420  -13.3900   20.7630 C   0  0  0  0  0  0  0  0  0  0  0  0
  -24.8700  -12.0310   20.6760 C   0  0  0  0  0  0  0  0  0  0  0  0
  -26.5300  -13.2540   20.0870 N   0  0  0  0  0  0  0  0  0  0  0  0
  -26.1490  -11.9710   20.3240 N   0  0  0  0  0  0  0  0  0  0  0  0
  -24.1200  -10.7810   20.8560 C   0  0  0  0  0  0  0  0  0  0  0  0
  -24.5280   -9.8010   21.7880 C   0  0  0  0  0  3  0  0  0  0  0  0
  -23.7800   -8.6160   21.9550 C   0  0  0  0  0  3  0  0  0  0  0  0
  -22.6090   -8.4020   21.1910 C   0  0  0  0  0  0  0  0  0  0  0  0
  -22.2180   -9.3710   20.2500 C   0  0  0  0  0  3  0  0  0  0  0  0
  -22.9660  -10.5480   20.0810 C   0  0  0  0  0  3  0  0  0  0  0  0
  -21.8330   -7.2700   21.2690 O   0  0  0  0  0  0  0  0  0  0  0  0
  -21.7150   -6.5570   22.4340 C   0  0  0  0  0  0  0  0  0  0  0  0
  -21.2490   -7.1500   23.6280 C   0  0  0  0  0  3  0  0  0  0  0  0
  -21.0770   -6.3630   24.7850 C   0  0  0  0  0  3  0  0  0  0  0  0
  -21.3620   -4.9850   24.7480 C   0  0  0  0  0  0  0  0  0  0  0  0
  -21.8200   -4.3920   23.5580 C   0  0  0  0  0  3  0  0  0  0  0  0
  -21.9930   -5.1750   22.4050 C   0  0  0  0  0  0  0  0  0  0  0  0
  -22.4150   -4.5940   21.2550 F   0  0  0  0  0  0  0  0  0  0  0  0
  -21.1910   -4.2280   25.8570 F   0  0  0  0  0  0  0  0  0  0  0  0
  -23.0670  -13.8910   21.0960 C   0  0  0  0  0  0  0  0  0  0  0  0
  -22.3560  -13.1940   21.9780 N   0  0  0  0  0  0  0  0  0  0  0  0
  -22.6300  -14.9320   20.6100 O   0  0  0  0  0  0  0  0  0  0  0  0
  -22.7210  -12.3500   22.3920 H   0  0  0  0  0  0  0  0  0  0  0  0
  -21.4340  -13.5100   22.2440 H   0  0  0  0  0  0  0  0  0  0  0  0
  -25.6980  -15.5220   20.2270 N   0  0  0  0  0  0  0  0  0  0  0  0
  -24.9360  -16.1800   20.3460 H   0  0  0  0  0  0  0  0  0  0  0  0
  -26.5420  -15.9580   19.8740 H   0  0  0  0  0  0  0  0  0  0  0  0
  -28.4960  -25.2050   19.6950 C   0  0  0  0  0  2  0  0  0  0  0  0
  -28.5710  -26.6310   20.1170 O   0  0  0  0  0  0  0  0  0  0  0  0
  -24.6680  -31.8730   23.2140 C   0  0  0  0  0  0  0  0  0  0  0  0
  -27.4220  -27.4430   20.0720 C   0  0  0  0  0  0  0  0  0  0  0  0
  -23.5140  -30.4750   21.5430 C   0  0  0  0  0  3  0  0  0  0  0  0
  -25.0130  -28.9960   20.0960 C   0  0  0  0  0  0  0  0  0  0  0  0
  -26.0490  -30.8570   21.3870 C   0  0  0  0  0  2  0  0  0  0  0  0
  -26.1650  -29.4960   20.7130 C   0  0  0  0  0  0  0  0  0  0  0  0
  -27.3700  -28.7280   20.7010 C   0  0  0  0  0  3  0  0  0  0  0  0
  -26.2460  -27.0120   19.4160 C   0  0  0  0  0  3  0  0  0  0  0  0
  -25.0550  -27.7570   19.4420 C   0  0  0  0  0  3  0  0  0  0  0  0
  -23.7550  -29.8360   20.1500 C   0  0  0  0  0  2  0  0  0  0  0  0
  -24.7620  -31.0870   22.1020 N   0  0  0  0  0  0  0  0  0  0  0  0
  -23.5730  -32.1120   23.7430 O   0  0  0  0  0  0  0  0  0  0  0  0
  -22.8800  -29.4140   22.4750 C   0  0  0  0  0  0  0  0  0  0  0  0
  -21.5580  -29.2100   22.3450 N   0  0  0  0  0  0  0  0  0  0  0  0
  -23.5760  -28.7790   23.2720 O   0  0  0  0  0  0  0  0  0  0  0  0
  -21.0550  -29.7750   21.6770 H   0  0  0  0  0  0  0  0  0  0  0  0
  -18.2040  -27.9510   22.8310 C   0  0  0  0  0  0  0  0  0  0  0  0
  -20.7590  -28.2400   23.0960 C   0  0  0  0  0  3  0  0  0  0  0  0
  -20.8780  -26.8230   22.4840 C   0  0  0  0  0  2  0  0  0  0  0  0
  -19.7740  -26.5120   21.4690 C   0  0  0  0  0  2  0  0  0  0  0  0
  -18.3950  -26.6220   22.1200 C   0  0  0  0  0  2  0  0  0  0  0  0
  -19.3120  -28.7170   23.2760 C   0  0  0  0  0  0  0  0  0  0  0  0
  -19.0760  -29.9610   23.9000 C   0  0  0  0  0  3  0  0  0  0  0  0
  -17.7640  -30.4340   24.0880 C   0  0  0  0  0  3  0  0  0  0  0  0
  -16.6700  -29.6620   23.6610 C   0  0  0  0  0  3  0  0  0  0  0  0
  -16.8890  -28.4240   23.0340 C   0  0  0  0  0  3  0  0  0  0  0  0
  -25.9290  -32.5280   23.8560 C   0  0  0  0  0  3  0  0  0  0  0  0
  -26.4410  -31.7620   25.1380 C   0  0  1  0  0  0  0  0  0  0  0  0
  -25.3350  -31.4990   26.1880 C   0  0  0  0  0  1  0  0  0  0  0  0
  -27.0590  -30.4000   24.7490 C   0  0  0  0  0  1  0  0  0  0  0  0
  -27.5630  -32.5790   25.8220 C   0  0  0  0  0  1  0  0  0  0  0  0
  -25.5880  -33.9180   24.1880 N   0  0  0  0  0  0  0  0  0  0  0  0
  -25.8950  -34.9810   23.4310 C   0  0  0  0  0  0  0  0  0  0  0  0
  -26.5670  -34.8940   22.4010 O   0  0  0  0  0  0  0  0  0  0  0  0
  -24.9910  -34.0600   24.9890 H   0  0  0  0  0  0  0  0  0  0  0  0
  -24.1180  -36.7240   23.0840 C   0  0  0  0  0  1  0  0  0  0  0  0
  -25.3710  -36.3550   23.8910 C   0  0  0  0  0  3  0  0  0  0  0  0
  -27.4820  -37.2980   24.7130 C   0  0  0  0  0  1  0  0  0  0  0  0
  -26.3730  -37.4360   23.7740 N   0  0  0  0  0  0  0  0  0  0  0  0
  -25.9430  -38.3450   23.9210 H   0  0  0  0  0  0  0  0  0  0  0  0
  2  1  1  0
  3  1  1  0
  4  2  1  0
  5 53  1  0
  5  3  1  0
  6  5  1  0
  6  4  1  0
  7  8  2  0
  7 10  1  0
  8 11  1  0
  9 12  1  0
 10  9  2  0
 11  6  1  0
 11 12  2  0
 12 13  1  0
 14 10  1  0
 14 24  1  0
 15 24  1  0
 16 21  1  0
 17 18  1  0
 17 16  1  0
 19 18  1  0
 19 28  1  0
 19 20  1  0
 21 15  1  0
 21 20  1  0
 22 15  2  0
 24 23  1  0
 25 26  2  0
 26 45  1  0
 27 26  1  0
 27 30  1  0
 28 29  1  0
 28 25  1  0
 29 27  2  0
 30 31  1  0
 31 32  2  0
 33 36  1  0
 33 32  1  0
 34 33  2  0
 35 34  1  0
 35 30  2  0
 36 37  1  0
 37 38  1  0
 38 39  2  0
 40 39  1  0
 40 44  1  0
 41 40  2  0
 42 37  2  0
 42 41  1  0
 43 42  1  0
 45 46  1  0
 46 49  1  0
 46 48  1  0
 47 45  2  0
 50 51  1  0
 50 25  1  0
 52 50  1  0
 53 54  1  0
 55 66  2  0
 56 54  1  0
 56 61  1  0
 57 65  1  0
 57 67  1  0
 58 64  1  0
 58 60  1  0
 59 65  1  0
 60 59  1  0
 61 60  2  0
 62 63  1  0
 62 56  2  0
 63 58  2  0
 64 57  1  0
 65 55  1  0
 67 69  2  0
 68 67  1  0
 70 68  1  0
 71 80  2  0
 71 76  1  0
 72 68  1  0
 72 76  1  0
 73 72  1  0
 74 75  1  0
 74 73  1  0
 75 71  1  0
 76 77  2  0
 77 78  1  0
 79 78  2  0
 80 79  1  0
 81 55  1  0
 81 86  1  0
 81 82  1  0
 82 85  1  1
 82 83  1  0
 84 82  1  0
 86 89  1  0
 87 91  1  0
 87 86  1  0
 88 87  2  0
 91 90  1  0
 93 91  1  0
 93 94  1  0
 93 92  1  0
M  ISO  4  15 100  24 100  53 101  54 101
M  END
>  <TORSDO>  (13) 
F 19

>  <SCORE>  (13) 
-13.352

>  <name>  (13) 
12

>  <ligand_id>  (13) 
12

>  <original_smiles>  (13) 
[H]c1c([H])c([H])c2c(c1[H])C([H])([H])C([H])([H])C([H])([H])C2([H])N([H])C(=O)C1([H])N(C(=O)C([H])(N([H])C(=O)C([H])(N([H])C([H])([H])[H])C([H])([H])[H])C(C([H])([H])[H])(C([H])([H])[H])C([H])([H])[H])C([H])([H])c2c([H])c(OC([H])([H])C3([H])N(c4c([H])c([H])c(C([H])([H])N(C(=O)N5C([H])([H])C([H])([H])C([H])([H])C([H])(n6nc(-c7c([H])c([H])c(Oc8c([H])c([H])c(F)c([H])c8F)c([H])c7[H])c(C(=O)N([H])[H])c6N([H])[H])C5([H])[H])C([H])([H])[H])c([H])c4Cl)C([H])([H])C([H])([H])C([H])([H])C3([H])[H])c([H])c([H])c2C1([H])[H]

>  <smiles>  (13) 
[H]c1c([H])c([H])c2c(c1[H])C([H])([H])C([H])([H])C([H])([H])C2([H])N([H])C(=O)C1([H])N(C(=O)C([H])(N([H])C(=O)C([H])(N([H])C([H])([H])[H])C([H])([H])[H])C(C([H])([H])[H])(C([H])([H])[H])C([H])([H])[H])C([H])([H])c2c([H])c(OC([H])([H])C3([H])N(c4c([H])c([H])c(C([H])([H])N(C(=O)N5C([H])([H])C([H])([H])C([H])([H])C([H])(n6nc(-c7c([H])c([H])c(Oc8c([H])c([H])c(F)c([H])c8F)c([H])c7[H])c(C(=O)N([H])[H])c6N([H])[H])C5([H])[H])C([H])([H])[H])c([H])c4Cl)C([H])([H])C([H])([H])C([H])([H])C3([H])[H])c([H])c([H])c2C1([H])[H]

$$$$
13:0:0
     RDKit          3D

 90 99  0  0  1  0  0  0  0  0999 V2000
  -27.1650  -19.6030   18.8250 C   0  0  0  0  0  3  0  0  0  0  0  0
  -28.0290  -18.5690   19.2080 C   0  0  0  0  0  3  0  0  0  0  0  0
  -27.3700  -20.9290   19.2480 C   0  0  0  0  0  3  0  0  0  0  0  0
  -29.1670  -18.8100   20.0010 C   0  0  0  0  0  0  0  0  0  0  0  0
  -29.3520  -20.2230   20.4130 C   0  0  0  0  0  0  0  0  0  0  0  0
  -28.4440  -21.3480   20.0730 C   0  0  0  0  0  0  0  0  0  0  0  0
  -30.5630  -20.5440   21.2660 C   0  0  0  0  0  1  0  0  0  0  0  0
  -27.4160  -23.7960   19.9380 C   0  0  0  0  0  2  0  0  0  0  0  0
  -29.3860  -23.8690   20.5010 C   0  0  0  0  0  2  0  0  0  0  0  0
  -28.2130  -24.9430   20.6520 C   0  0  0  0  0  3  0  0  0  0  0  0
  -28.3600  -22.7960   20.5210 N   0  0  0  0  0  0  0  0  0  0  0  0
  -28.3360  -26.3870   20.1710 O   0  0  0  0  0  0  0  0  0  0  0  0
  -24.5960  -31.8870   23.2360 C   0  0  0  0  0  0  0  0  0  0  0  0
  -27.2300  -27.2790   20.1860 C   0  0  0  0  0  0  0  0  0  0  0  0
  -23.4090  -30.4940   21.5830 C   0  0  0  0  0  3  0  0  0  0  0  0
  -24.8730  -28.9410   20.1600 C   0  0  0  0  0  0  0  0  0  0  0  0
  -25.9550  -30.8030   21.4180 C   0  0  0  0  0  2  0  0  0  0  0  0
  -26.0430  -29.4190   20.7660 C   0  0  0  0  0  0  0  0  0  0  0  0
  -27.2250  -28.6030   20.7590 C   0  0  0  0  0  3  0  0  0  0  0  0
  -26.0340  -26.8750   19.5570 C   0  0  0  0  0  3  0  0  0  0  0  0
  -24.8750  -27.6790   19.5450 C   0  0  0  0  0  3  0  0  0  0  0  0
  -23.6380  -29.8230   20.2020 C   0  0  0  0  0  2  0  0  0  0  0  0
  -24.6730  -31.0820   22.1350 N   0  0  0  0  0  0  0  0  0  0  0  0
  -23.5080  -32.1590   23.7650 O   0  0  0  0  0  0  0  0  0  0  0  0
  -22.7390  -29.4740   22.5360 C   0  0  0  0  0  0  0  0  0  0  0  0
  -21.4140  -29.2940   22.4000 N   0  0  0  0  0  0  0  0  0  0  0  0
  -23.4140  -28.8470   23.3570 O   0  0  0  0  0  0  0  0  0  0  0  0
  -20.9280  -29.8480   21.7100 H   0  0  0  0  0  0  0  0  0  0  0  0
  -18.0330  -28.0970   22.9020 C   0  0  0  0  0  0  0  0  0  0  0  0
  -20.5940  -28.3480   23.1630 C   0  0  0  0  0  3  0  0  0  0  0  0
  -20.6910  -26.9240   22.5660 C   0  0  0  0  0  2  0  0  0  0  0  0
  -19.5840  -26.6180   21.5540 C   0  0  0  0  0  2  0  0  0  0  0  0
  -18.2040  -26.7570   22.2050 C   0  0  0  0  0  2  0  0  0  0  0  0
  -19.1560  -28.8500   23.3380 C   0  0  0  0  0  0  0  0  0  0  0  0
  -18.9410  -30.1040   23.9520 C   0  0  0  0  0  3  0  0  0  0  0  0
  -17.6390  -30.6040   24.1310 C   0  0  0  0  0  3  0  0  0  0  0  0
  -16.5310  -29.8470   23.7120 C   0  0  0  0  0  3  0  0  0  0  0  0
  -16.7290  -28.5950   23.1020 C   0  0  0  0  0  3  0  0  0  0  0  0
  -25.8710  -32.5240   23.8710 C   0  0  0  0  0  3  0  0  0  0  0  0
  -26.3640  -31.7650   25.1650 C   0  0  1  0  0  0  0  0  0  0  0  0
  -25.2530  -31.5430   26.2190 C   0  0  0  0  0  1  0  0  0  0  0  0
  -26.9500  -30.3820   24.8000 C   0  0  0  0  0  1  0  0  0  0  0  0
  -27.5070  -32.5640   25.8350 C   0  0  0  0  0  1  0  0  0  0  0  0
  -25.5600  -33.9270   24.1850 N   0  0  0  0  0  0  0  0  0  0  0  0
  -25.9040  -34.9740   23.4230 C   0  0  0  0  0  0  0  0  0  0  0  0
  -26.5830  -34.8600   22.4000 O   0  0  0  0  0  0  0  0  0  0  0  0
  -24.9610  -34.0890   24.9820 H   0  0  0  0  0  0  0  0  0  0  0  0
  -24.1960  -36.7780   23.0250 C   0  0  0  0  0  1  0  0  0  0  0  0
  -25.4160  -36.3690   23.8660 C   0  0  0  0  0  3  0  0  0  0  0  0
  -27.5350  -37.2460   24.7440 C   0  0  0  0  0  1  0  0  0  0  0  0
  -26.4590  -37.4140   23.7710 N   0  0  0  0  0  0  0  0  0  0  0  0
  -26.0550  -38.3370   23.9040 H   0  0  0  0  0  0  0  0  0  0  0  0
  -30.0550  -17.5350   20.2640 C   0  0  0  0  0  3  0  0  0  0  0  0
  -29.7050  -16.1740   20.2940 C   0  0  0  0  0  3  0  0  0  0  0  0
  -30.6080  -14.9360   20.3050 C   0  0  0  0  0  0  0  0  0  0  0  0
  -30.4850  -12.6030   19.3810 C   0  0  0  0  0  2  0  0  0  0  0  0
  -29.5560  -12.6080   18.1430 C   0  0  0  0  0  2  0  0  0  0  0  0
  -28.0860  -12.3970   18.5630 C   0  0  0  0  0  2  0  0  0  0  0  0
  -27.6780  -13.3120   19.7460 C   0  0  0  0  0  3  0  0  0  0  0  0
  -28.7280  -13.3070   20.8740 C   0  0  0  0  0  2  0  0  0  0  0  0
  -30.0220  -13.6800   20.2890 N   0  0  0  0  0  0  0  0  0  0  0  0
  -31.8220  -15.0040   20.0790 O   0  0  0  0  0  0  0  0  0  0  0  0
  -25.2970  -13.8930   20.4900 C   0  0  0  0  0  0  0  0  0  0  0  0
  -24.2350  -13.1140   20.8580 C   0  0  0  0  0  0  0  0  0  0  0  0
  -24.7030  -11.7660   20.8240 C   0  0  0  0  0  0  0  0  0  0  0  0
  -26.3420  -13.0170   20.2450 N   0  0  0  0  0  0  0  0  0  0  0  0
  -25.9930  -11.7340   20.5140 N   0  0  0  0  0  0  0  0  0  0  0  0
  -23.9810  -10.5020   21.0080 C   0  0  0  0  0  0  0  0  0  0  0  0
  -24.4100   -9.5380   21.9480 C   0  0  0  0  0  3  0  0  0  0  0  0
  -23.6910   -8.3350   22.1200 C   0  0  0  0  0  3  0  0  0  0  0  0
  -22.5290   -8.0890   21.3500 C   0  0  0  0  0  0  0  0  0  0  0  0
  -22.1210   -9.0400   20.3980 C   0  0  0  0  0  3  0  0  0  0  0  0
  -22.8400  -10.2340   20.2260 C   0  0  0  0  0  3  0  0  0  0  0  0
  -21.7800   -6.9410   21.4320 O   0  0  0  0  0  0  0  0  0  0  0  0
  -21.7030   -6.2130   22.5920 C   0  0  0  0  0  0  0  0  0  0  0  0
  -21.1990   -6.7670   23.7890 C   0  0  0  0  0  3  0  0  0  0  0  0
  -21.0730   -5.9620   24.9380 C   0  0  0  0  0  3  0  0  0  0  0  0
  -21.4400   -4.6040   24.8910 C   0  0  0  0  0  0  0  0  0  0  0  0
  -21.9350   -4.0490   23.6980 C   0  0  0  0  0  3  0  0  0  0  0  0
  -22.0640   -4.8520   22.5510 C   0  0  0  0  0  0  0  0  0  0  0  0
  -22.5230   -4.3070   21.3980 F   0  0  0  0  0  0  0  0  0  0  0  0
  -21.3110   -3.8280   25.9930 F   0  0  0  0  0  0  0  0  0  0  0  0
  -22.8350  -13.5860   21.1260 C   0  0  0  0  0  0  0  0  0  0  0  0
  -22.1020  -12.8780   21.9770 N   0  0  0  0  0  0  0  0  0  0  0  0
  -22.4000  -14.6170   20.6120 O   0  0  0  0  0  0  0  0  0  0  0  0
  -22.4670  -12.0440   22.4120 H   0  0  0  0  0  0  0  0  0  0  0  0
  -21.1610  -13.1760   22.2000 H   0  0  0  0  0  0  0  0  0  0  0  0
  -25.4560  -15.2650   20.3210 N   0  0  0  0  0  0  0  0  0  0  0  0
  -24.6870  -15.9150   20.4450 H   0  0  0  0  0  0  0  0  0  0  0  0
  -26.3090  -15.7160   20.0190 H   0  0  0  0  0  0  0  0  0  0  0  0
  1  2  2  0
  1  3  1  0
  2  4  1  0
  3  6  2  0
  4 53  1  0
  4  5  2  0
  5  7  1  0
  6  5  1  0
  6 11  1  0
  8 11  1  0
  8 10  1  0
  9 11  1  0
  9 10  1  0
 10 12  1  0
 12 14  1  0
 13 24  2  0
 14 19  1  0
 15 23  1  0
 15 25  1  0
 16 22  1  0
 16 18  1  0
 17 23  1  0
 18 17  1  0
 19 18  2  0
 20 14  2  0
 21 20  1  0
 21 16  2  0
 22 15  1  0
 23 13  1  0
 25 27  2  0
 26 25  1  0
 28 26  1  0
 29 38  2  0
 29 34  1  0
 30 26  1  0
 30 34  1  0
 31 30  1  0
 32 33  1  0
 32 31  1  0
 33 29  1  0
 34 35  2  0
 35 36  1  0
 37 36  2  0
 38 37  1  0
 39 13  1  0
 39 44  1  0
 39 40  1  0
 40 43  1  1
 40 41  1  0
 42 40  1  0
 44 47  1  0
 45 49  1  0
 45 44  1  0
 46 45  2  0
 49 48  1  0
 51 49  1  0
 51 52  1  0
 51 50  1  0
 53 54  2  0
 54 55  1  0
 56 61  1  0
 57 58  1  0
 57 56  1  0
 59 58  1  0
 59 66  1  0
 59 60  1  0
 61 55  1  0
 61 60  1  0
 62 55  2  0
 63 64  2  0
 64 83  1  0
 65 64  1  0
 65 68  1  0
 66 63  1  0
 66 67  1  0
 67 65  2  0
 68 69  1  0
 69 70  2  0
 71 74  1  0
 71 70  1  0
 72 71  2  0
 73 72  1  0
 73 68  2  0
 74 75  1  0
 75 76  1  0
 76 77  2  0
 78 77  1  0
 78 82  1  0
 79 78  2  0
 80 75  2  0
 80 79  1  0
 81 80  1  0
 83 84  1  0
 84 87  1  0
 84 86  1  0
 85 83  2  0
 88 89  1  0
 88 63  1  0
 90 88  1  0
M  ISO  4  10 101  12 101  54 100  55 100
M  END
>  <TORSDO>  (14) 
F 18

>  <SCORE>  (14) 
-14.834

>  <name>  (14) 
13

>  <ligand_id>  (14) 
13

>  <original_smiles>  (14) 
[H]C(C(=O)N1C([H])([H])C([H])([H])C([H])([H])C([H])(n2nc(-c3c([H])c([H])c(Oc4c([H])c([H])c(F)c([H])c4F)c([H])c3[H])c(C(=O)N([H])[H])c2N([H])[H])C1([H])[H])=C([H])c1c([H])c([H])c([H])c(N2C([H])([H])C([H])(Oc3c([H])c([H])c4c(c3[H])C([H])([H])N(C(=O)C([H])(N([H])C(=O)C([H])(N([H])C([H])([H])[H])C([H])([H])[H])C(C([H])([H])[H])(C([H])([H])[H])C([H])([H])[H])C([H])(C(=O)N([H])C3([H])c5c([H])c([H])c([H])c([H])c5C([H])([H])C([H])([H])C3([H])[H])C4([H])[H])C2([H])[H])c1C([H])([H])[H]

>  <smiles>  (14) 
[H]C(C(=O)N1C([H])([H])C([H])([H])C([H])([H])C([H])(n2nc(-c3c([H])c([H])c(Oc4c([H])c([H])c(F)c([H])c4F)c([H])c3[H])c(C(=O)N([H])[H])c2N([H])[H])C1([H])[H])=C([H])c1c([H])c([H])c([H])c(N2C([H])([H])C([H])(Oc3c([H])c([H])c4c(c3[H])C([H])([H])N(C(=O)C([H])(N([H])C(=O)C([H])(N([H])C([H])([H])[H])C([H])([H])[H])C(C([H])([H])[H])(C([H])([H])[H])C([H])([H])[H])C([H])(C(=O)N([H])C3([H])c5c([H])c([H])c([H])c([H])c5C([H])([H])C([H])([H])C3([H])[H])C4([H])[H])C2([H])[H])c1C([H])([H])[H]

$$$$
14:0:0
     RDKit          3D

 92101  0  0  1  0  0  0  0  0999 V2000
  -30.3630  -19.6560   21.5910 C   0  0  0  0  0  3  0  0  0  0  0  0
  -29.9430  -20.9830   21.2790 C   0  0  0  0  0  3  0  0  0  0  0  0
  -29.0970  -18.7910   19.7560 C   0  0  0  0  0  3  0  0  0  0  0  0
  -29.9640  -18.5210   20.8380 C   0  0  0  0  0  0  0  0  0  0  0  0
  -28.6660  -20.1210   19.4290 C   0  0  0  0  0  0  0  0  0  0  0  0
  -29.1020  -21.2800   20.1750 C   0  0  0  0  0  0  0  0  0  0  0  0
  -27.6970  -20.2140   18.2610 C   0  0  0  0  0  1  0  0  0  0  0  0
  -28.4420  -24.6740   18.5610 C   0  0  0  0  0  2  0  0  0  0  0  0
  -28.4470  -23.1340   18.5230 C   0  0  0  0  0  2  0  0  0  0  0  0
  -28.8940  -23.8690   20.7330 C   0  0  0  0  0  2  0  0  0  0  0  0
  -28.1040  -25.0300   20.0110 C   0  0  0  0  0  3  0  0  0  0  0  0
  -28.7510  -22.6570   19.8730 N   0  0  0  0  0  0  0  0  0  0  0  0
  -28.3020  -26.4800   20.2890 O   0  0  0  0  0  0  0  0  0  0  0  0
  -24.6100  -31.9240   23.2610 C   0  0  0  0  0  0  0  0  0  0  0  0
  -27.1930  -27.3460   20.2050 C   0  0  0  0  0  0  0  0  0  0  0  0
  -23.3960  -30.5260   21.6290 C   0  0  0  0  0  3  0  0  0  0  0  0
  -24.8360  -28.9750   20.1960 C   0  0  0  0  0  0  0  0  0  0  0  0
  -25.9370  -30.8340   21.4380 C   0  0  0  0  0  2  0  0  0  0  0  0
  -26.0080  -29.4550   20.7940 C   0  0  0  0  0  0  0  0  0  0  0  0
  -27.1870  -28.6500   20.7940 C   0  0  0  0  0  3  0  0  0  0  0  0
  -25.9990  -26.9370   19.5640 C   0  0  0  0  0  3  0  0  0  0  0  0
  -24.8330  -27.7220   19.5720 C   0  0  0  0  0  3  0  0  0  0  0  0
  -23.6020  -29.8520   20.2480 C   0  0  0  0  0  2  0  0  0  0  0  0
  -24.6670  -31.1120   22.1650 N   0  0  0  0  0  0  0  0  0  0  0  0
  -23.5310  -32.2060   23.7980 O   0  0  0  0  0  0  0  0  0  0  0  0
  -22.7350  -29.5120   22.5920 C   0  0  0  0  0  0  0  0  0  0  0  0
  -21.4080  -29.3330   22.4670 N   0  0  0  0  0  0  0  0  0  0  0  0
  -23.4130  -28.8890   23.4130 O   0  0  0  0  0  0  0  0  0  0  0  0
  -20.9200  -29.8880   21.7780 H   0  0  0  0  0  0  0  0  0  0  0  0
  -18.0320  -28.1420   22.9720 C   0  0  0  0  0  0  0  0  0  0  0  0
  -20.5900  -28.4010   23.2440 C   0  0  0  0  0  3  0  0  0  0  0  0
  -20.6910  -26.9660   22.6780 C   0  0  0  0  0  2  0  0  0  0  0  0
  -19.5900  -26.6370   21.6640 C   0  0  0  0  0  2  0  0  0  0  0  0
  -18.2080  -26.7870   22.3050 C   0  0  0  0  0  2  0  0  0  0  0  0
  -19.1500  -28.9060   23.3990 C   0  0  0  0  0  0  0  0  0  0  0  0
  -18.9320  -30.1730   23.9820 C   0  0  0  0  0  3  0  0  0  0  0  0
  -17.6270  -30.6760   24.1440 C   0  0  0  0  0  3  0  0  0  0  0  0
  -16.5220  -29.9090   23.7340 C   0  0  0  0  0  3  0  0  0  0  0  0
  -16.7260  -28.6440   23.1530 C   0  0  0  0  0  3  0  0  0  0  0  0
  -25.8990  -32.5530   23.8760 C   0  0  0  0  0  3  0  0  0  0  0  0
  -25.5960  -33.9530   24.2060 N   0  0  0  0  0  0  0  0  0  0  0  0
  -25.9150  -35.0030   23.4390 C   0  0  0  0  0  0  0  0  0  0  0  0
  -26.5700  -34.8960   22.3980 O   0  0  0  0  0  0  0  0  0  0  0  0
  -25.0160  -34.1090   25.0180 H   0  0  0  0  0  0  0  0  0  0  0  0
  -24.1810  -36.7950   23.1080 C   0  0  0  0  0  1  0  0  0  0  0  0
  -25.4360  -36.3930   23.8990 C   0  0  0  0  0  3  0  0  0  0  0  0
  -27.5810  -37.2850   24.6940 C   0  0  0  0  0  1  0  0  0  0  0  0
  -26.4650  -37.4460   23.7660 N   0  0  0  0  0  0  0  0  0  0  0  0
  -26.0610  -38.3670   23.9150 H   0  0  0  0  0  0  0  0  0  0  0  0
  -26.4190  -31.7810   25.1510 C   0  0  1  0  0  0  0  0  0  0  0  0
  -25.3300  -31.5460   26.2230 C   0  0  0  0  0  1  0  0  0  0  0  0
  -26.9970  -30.4020   24.7590 C   0  0  0  0  0  1  0  0  0  0  0  0
  -27.5730  -32.5750   25.8070 C   0  0  0  0  0  1  0  0  0  0  0  0
  -30.5670  -17.1100   21.1900 C   0  0  0  0  0  2  0  0  0  0  0  0
  -30.6430  -14.6690   20.4330 C   0  0  0  0  0  0  0  0  0  0  0  0
  -30.3680  -12.4440   19.3560 C   0  0  0  0  0  2  0  0  0  0  0  0
  -29.4340  -12.5650   18.1350 C   0  0  0  0  0  2  0  0  0  0  0  0
  -27.9620  -12.4120   18.5630 C   0  0  0  0  0  2  0  0  0  0  0  0
  -27.6010  -13.2870   19.7930 C   0  0  0  0  0  3  0  0  0  0  0  0
  -28.6570  -13.1630   20.9140 C   0  0  0  0  0  2  0  0  0  0  0  0
  -29.9640  -13.4830   20.3240 N   0  0  0  0  0  0  0  0  0  0  0  0
  -31.8180  -14.7550   20.0730 O   0  0  0  0  0  0  0  0  0  0  0  0
  -29.9490  -15.7940   20.8040 N   0  0  0  0  0  0  0  0  0  0  0  0
  -28.9680  -15.6740   21.0060 H   0  0  0  0  0  0  0  0  0  0  0  0
  -25.2080  -13.8870   20.5000 C   0  0  0  0  0  0  0  0  0  0  0  0
  -24.1380  -13.1170   20.8690 C   0  0  0  0  0  0  0  0  0  0  0  0
  -24.6000  -11.7640   20.8480 C   0  0  0  0  0  0  0  0  0  0  0  0
  -26.2530  -13.0050   20.2770 N   0  0  0  0  0  0  0  0  0  0  0  0
  -25.8930  -11.7240   20.5460 N   0  0  0  0  0  0  0  0  0  0  0  0
  -23.8720  -10.5040   21.0390 C   0  0  0  0  0  0  0  0  0  0  0  0
  -24.3010   -9.5360   21.9750 C   0  0  0  0  0  3  0  0  0  0  0  0
  -23.5710   -8.3410   22.1550 C   0  0  0  0  0  3  0  0  0  0  0  0
  -22.3980   -8.1050   21.3990 C   0  0  0  0  0  0  0  0  0  0  0  0
  -21.9880   -9.0600   20.4530 C   0  0  0  0  0  3  0  0  0  0  0  0
  -22.7180  -10.2470   20.2710 C   0  0  0  0  0  3  0  0  0  0  0  0
  -21.6400   -6.9610   21.4880 O   0  0  0  0  0  0  0  0  0  0  0  0
  -21.5900   -6.2200   22.6410 C   0  0  0  0  0  0  0  0  0  0  0  0
  -21.1600   -6.7750   23.8670 C   0  0  0  0  0  3  0  0  0  0  0  0
  -21.0560   -5.9590   25.0110 C   0  0  0  0  0  3  0  0  0  0  0  0
  -21.3730   -4.5900   24.9310 C   0  0  0  0  0  0  0  0  0  0  0  0
  -21.7970   -4.0350   23.7110 C   0  0  0  0  0  3  0  0  0  0  0  0
  -21.9030   -4.8480   22.5690 C   0  0  0  0  0  0  0  0  0  0  0  0
  -22.2900   -4.3030   21.3910 F   0  0  0  0  0  0  0  0  0  0  0  0
  -21.2670   -3.8050   26.0280 F   0  0  0  0  0  0  0  0  0  0  0  0
  -22.7410  -13.5960   21.1300 C   0  0  0  0  0  0  0  0  0  0  0  0
  -22.0050  -12.9040   21.9930 N   0  0  0  0  0  0  0  0  0  0  0  0
  -22.3080  -14.6200   20.6020 O   0  0  0  0  0  0  0  0  0  0  0  0
  -22.3680  -12.0740   22.4390 H   0  0  0  0  0  0  0  0  0  0  0  0
  -21.0680  -13.2090   22.2110 H   0  0  0  0  0  0  0  0  0  0  0  0
  -25.3740  -15.2560   20.3150 N   0  0  0  0  0  0  0  0  0  0  0  0
  -24.6050  -15.9100   20.4120 H   0  0  0  0  0  0  0  0  0  0  0  0
  -26.2210  -15.6920   19.9710 H   0  0  0  0  0  0  0  0  0  0  0  0
  2  1  1  0
  3  4  1  0
  4 54  1  0
  4  1  2  0
  5  3  2  0
  5  6  1  0
  6  2  2  0
  7  5  1  0
  8 11  1  0
  9  8  1  0
  9 12  1  0
 11 13  1  0
 11 10  1  0
 12  6  1  0
 12 10  1  0
 14 25  2  0
 15 13  1  0
 15 20  1  0
 16 24  1  0
 16 26  1  0
 17 23  1  0
 17 19  1  0
 18 24  1  0
 19 18  1  0
 20 19  2  0
 21 22  1  0
 21 15  2  0
 22 17  2  0
 23 16  1  0
 24 14  1  0
 26 28  2  0
 27 26  1  0
 29 27  1  0
 30 39  2  0
 30 35  1  0
 31 27  1  0
 31 35  1  0
 32 31  1  0
 33 34  1  0
 33 32  1  0
 34 30  1  0
 35 36  2  0
 36 37  1  0
 38 37  2  0
 39 38  1  0
 40 14  1  0
 40 41  1  0
 40 50  1  0
 41 44  1  0
 42 46  1  0
 42 41  1  0
 43 42  2  0
 46 45  1  0
 48 46  1  0
 48 49  1  0
 48 47  1  0
 50 53  1  1
 50 51  1  0
 52 50  1  0
 55 63  1  0
 56 61  1  0
 57 58  1  0
 57 56  1  0
 59 58  1  0
 59 68  1  0
 59 60  1  0
 61 55  1  0
 61 60  1  0
 62 55  2  0
 63 64  1  0
 63 54  1  0
 65 66  2  0
 66 85  1  0
 67 66  1  0
 67 70  1  0
 68 65  1  0
 68 69  1  0
 69 67  2  0
 70 71  1  0
 71 72  2  0
 73 76  1  0
 73 72  1  0
 74 73  2  0
 75 74  1  0
 75 70  2  0
 76 77  1  0
 77 78  1  0
 78 79  2  0
 80 79  1  0
 80 84  1  0
 81 80  2  0
 82 77  2  0
 82 81  1  0
 83 82  1  0
 85 86  1  0
 86 89  1  0
 86 88  1  0
 87 85  2  0
 90 91  1  0
 90 65  1  0
 92 90  1  0
M  ISO  4  11 101  13 101  55 100  63 100
M  END
>  <TORSDO>  (15) 
F 18

>  <SCORE>  (15) 
-14.818

>  <name>  (15) 
14

>  <ligand_id>  (15) 
14

>  <original_smiles>  (15) 
[H]c1c([H])c([H])c2c(c1[H])C([H])([H])C([H])([H])C([H])([H])C2([H])N([H])C(=O)C1([H])N(C(=O)C([H])(N([H])C(=O)C([H])(N([H])C([H])([H])[H])C([H])([H])[H])C(C([H])([H])[H])(C([H])([H])[H])C([H])([H])[H])C([H])([H])c2c([H])c(OC3([H])C([H])([H])N(c4c([H])c([H])c(C([H])([H])N([H])C(=O)N5C([H])([H])C([H])([H])C([H])([H])C([H])(n6nc(-c7c([H])c([H])c(Oc8c([H])c([H])c(F)c([H])c8F)c([H])c7[H])c(C(=O)N([H])[H])c6N([H])[H])C5([H])[H])c([H])c4C([H])([H])[H])C([H])([H])C3([H])[H])c([H])c([H])c2C1([H])[H]

>  <smiles>  (15) 
[H]c1c([H])c([H])c2c(c1[H])C([H])([H])C([H])([H])C([H])([H])C2([H])N([H])C(=O)C1([H])N(C(=O)C([H])(N([H])C(=O)C([H])(N([H])C([H])([H])[H])C([H])([H])[H])C(C([H])([H])[H])(C([H])([H])[H])C([H])([H])[H])C([H])([H])c2c([H])c(OC3([H])C([H])([H])N(c4c([H])c([H])c(C([H])([H])N([H])C(=O)N5C([H])([H])C([H])([H])C([H])([H])C([H])(n6nc(-c7c([H])c([H])c(Oc8c([H])c([H])c(F)c([H])c8F)c([H])c7[H])c(C(=O)N([H])[H])c6N([H])[H])C5([H])[H])c([H])c4C([H])([H])[H])C([H])([H])C3([H])[H])c([H])c([H])c2C1([H])[H]

$$$$
15:0:0
     RDKit          3D

 93102  0  0  1  0  0  0  0  0999 V2000
  -27.4010  -22.0680   21.5080 C   0  0  0  0  0  1  0  0  0  0  0  0
  -29.3640  -23.1930   19.9710 N   0  0  0  0  0  2  0  0  0  0  0  0
  -29.7920  -22.5830   22.5150 O   0  0  0  0  0  1  0  0  0  0  0  0
  -29.1980  -22.2040   21.2230 S   0  0  1  0  0  0  0  0  0  0  0  0
  -31.1800  -15.2050   20.5560 C   0  0  0  0  0  0  0  0  0  0  0  0
  -31.0660  -12.8560   19.7540 C   0  0  0  0  0  2  0  0  0  0  0  0
  -30.2050  -12.7140   18.4750 C   0  0  0  0  0  2  0  0  0  0  0  0
  -28.6920  -12.7030   18.7860 C   0  0  0  0  0  2  0  0  0  0  0  0
  -28.2370  -13.6780   19.9120 C   0  0  0  0  0  3  0  0  0  0  0  0
  -29.2240  -13.6840   21.0960 C   0  0  0  0  0  2  0  0  0  0  0  0
  -30.5490  -13.9840   20.5480 N   0  0  0  0  0  0  0  0  0  0  0  0
  -32.4130  -15.2600   20.6150 O   0  0  0  0  0  0  0  0  0  0  0  0
  -30.4350  -18.1580   21.5520 C   0  0  0  0  0  3  0  0  0  0  0  0
  -30.1560  -19.5330   21.8480 C   0  0  0  0  0  3  0  0  0  0  0  0
  -29.4760  -19.9150   19.5750 C   0  0  0  0  0  3  0  0  0  0  0  0
  -29.7470  -18.5540   19.2770 C   0  0  0  0  0  0  0  0  0  0  0  0
  -30.2470  -17.6170   20.2450 C   0  0  0  0  0  0  0  0  0  0  0  0
  -29.6820  -20.4400   20.8590 C   0  0  0  0  0  0  0  0  0  0  0  0
  -29.5220  -18.1320   17.8490 C   0  0  0  0  0  2  0  0  0  0  0  0
  -30.6230  -17.1730   17.4570 C   0  0  0  0  0  2  0  0  0  0  0  0
  -30.5920  -15.9560   18.3790 C   0  0  0  0  0  2  0  0  0  0  0  0
  -30.5370  -16.2130   19.8460 N   0  0  0  0  0  0  0  0  0  0  0  0
  -25.8190  -14.3050   20.5120 C   0  0  0  0  0  0  0  0  0  0  0  0
  -24.7200  -13.5430   20.8040 C   0  0  0  0  0  0  0  0  0  0  0  0
  -25.1680  -12.1860   20.7960 C   0  0  0  0  0  0  0  0  0  0  0  0
  -26.8640  -13.4120   20.3350 N   0  0  0  0  0  0  0  0  0  0  0  0
  -26.4760  -12.1340   20.5790 N   0  0  0  0  0  0  0  0  0  0  0  0
  -24.4190  -10.9290   20.9250 C   0  0  0  0  0  0  0  0  0  0  0  0
  -24.7840   -9.9430   21.8650 C   0  0  0  0  0  3  0  0  0  0  0  0
  -24.0350   -8.7520   21.9830 C   0  0  0  0  0  3  0  0  0  0  0  0
  -22.9060   -8.5400   21.1570 C   0  0  0  0  0  0  0  0  0  0  0  0
  -22.5600   -9.5140   20.2050 C   0  0  0  0  0  3  0  0  0  0  0  0
  -23.3110  -10.6960   20.0850 C   0  0  0  0  0  3  0  0  0  0  0  0
  -22.1350   -7.4030   21.1840 O   0  0  0  0  0  0  0  0  0  0  0  0
  -21.9330   -6.7000   22.3420 C   0  0  0  0  0  0  0  0  0  0  0  0
  -21.3080   -7.2790   23.4680 C   0  0  0  0  0  3  0  0  0  0  0  0
  -21.0580   -6.4990   24.6150 C   0  0  0  0  0  3  0  0  0  0  0  0
  -21.4230   -5.1390   24.6350 C   0  0  0  0  0  0  0  0  0  0  0  0
  -22.0420   -4.5580   23.5130 C   0  0  0  0  0  3  0  0  0  0  0  0
  -22.2920   -5.3360   22.3700 C   0  0  0  0  0  0  0  0  0  0  0  0
  -22.8700   -4.7680   21.2830 F   0  0  0  0  0  0  0  0  0  0  0  0
  -21.1760   -4.3860   25.7320 F   0  0  0  0  0  0  0  0  0  0  0  0
  -23.3130  -14.0350   20.9820 C   0  0  0  0  0  0  0  0  0  0  0  0
  -22.5310  -13.3630   21.8190 N   0  0  0  0  0  0  0  0  0  0  0  0
  -22.9160  -15.0530   20.4170 O   0  0  0  0  0  0  0  0  0  0  0  0
  -22.8650  -12.5400   22.2980 H   0  0  0  0  0  0  0  0  0  0  0  0
  -21.5850  -13.6760   21.9840 H   0  0  0  0  0  0  0  0  0  0  0  0
  -26.0120  -15.6760   20.3570 N   0  0  0  0  0  0  0  0  0  0  0  0
  -25.2450  -16.3360   20.4180 H   0  0  0  0  0  0  0  0  0  0  0  0
  -26.8960  -16.1100   20.1200 H   0  0  0  0  0  0  0  0  0  0  0  0
  -28.5450  -24.4450   19.7760 C   0  0  0  0  0  2  0  0  0  0  0  0
  -28.9510  -25.6980   20.6450 C   0  0  0  0  0  2  0  0  0  0  0  0
  -28.8280  -27.0530   20.0830 O   0  0  0  0  0  0  0  0  0  0  0  0
  -24.6400  -31.9280   23.3220 C   0  0  0  0  0  0  0  0  0  0  0  0
  -27.6200  -27.7440   20.1280 C   0  0  0  0  0  0  0  0  0  0  0  0
  -23.5720  -30.5520   21.5670 C   0  0  0  0  0  3  0  0  0  0  0  0
  -25.1560  -29.1700   20.1130 C   0  0  0  0  0  0  0  0  0  0  0  0
  -26.0840  -31.0500   21.4750 C   0  0  0  0  0  2  0  0  0  0  0  0
  -26.2690  -29.7150   20.7670 C   0  0  0  0  0  0  0  0  0  0  0  0
  -27.5070  -29.0180   20.7560 C   0  0  0  0  0  3  0  0  0  0  0  0
  -26.4850  -27.2260   19.4750 C   0  0  0  0  0  3  0  0  0  0  0  0
  -25.2640  -27.9300   19.4600 C   0  0  0  0  0  3  0  0  0  0  0  0
  -23.8650  -29.9620   20.1630 C   0  0  0  0  0  2  0  0  0  0  0  0
  -24.7810  -31.1920   22.1810 N   0  0  0  0  0  0  0  0  0  0  0  0
  -23.5270  -32.1090   23.8350 O   0  0  0  0  0  0  0  0  0  0  0  0
  -22.9430  -29.4470   22.4480 C   0  0  0  0  0  0  0  0  0  0  0  0
  -21.6350  -29.2010   22.2660 N   0  0  0  0  0  0  0  0  0  0  0  0
  -23.6330  -28.8140   23.2510 O   0  0  0  0  0  0  0  0  0  0  0  0
  -21.1310  -29.7690   21.5990 H   0  0  0  0  0  0  0  0  0  0  0  0
  -18.3120  -27.8200   22.6170 C   0  0  0  0  0  0  0  0  0  0  0  0
  -20.8510  -28.1750   22.9540 C   0  0  0  0  0  3  0  0  0  0  0  0
  -21.0300  -26.7940   22.2810 C   0  0  0  0  0  2  0  0  0  0  0  0
  -19.9610  -26.4930   21.2260 C   0  0  0  0  0  2  0  0  0  0  0  0
  -18.5630  -26.5310   21.8520 C   0  0  0  0  0  2  0  0  0  0  0  0
  -19.3870  -28.5990   23.1210 C   0  0  0  0  0  0  0  0  0  0  0  0
  -19.1020  -29.8060   23.7940 C   0  0  0  0  0  3  0  0  0  0  0  0
  -17.7740  -30.2380   23.9650 C   0  0  0  0  0  3  0  0  0  0  0  0
  -16.7120  -29.4540   23.4820 C   0  0  0  0  0  3  0  0  0  0  0  0
  -16.9820  -28.2450   22.8150 C   0  0  0  0  0  3  0  0  0  0  0  0
  -25.8630  -32.5980   24.0210 C   0  0  0  0  0  3  0  0  0  0  0  0
  -25.5040  -33.9930   24.3180 N   0  0  0  0  0  0  0  0  0  0  0  0
  -25.8730  -35.0460   23.5790 C   0  0  0  0  0  0  0  0  0  0  0  0
  -26.6220  -34.9490   22.6020 O   0  0  0  0  0  0  0  0  0  0  0  0
  -24.8530  -34.1410   25.0750 H   0  0  0  0  0  0  0  0  0  0  0  0
  -24.1580  -36.8070   23.0590 C   0  0  0  0  0  1  0  0  0  0  0  0
  -25.3250  -36.4260   23.9860 C   0  0  0  0  0  3  0  0  0  0  0  0
  -27.3530  -37.3480   25.0170 C   0  0  0  0  0  1  0  0  0  0  0  0
  -26.3470  -37.4950   23.9670 N   0  0  0  0  0  0  0  0  0  0  0  0
  -25.9170  -38.4090   24.0670 H   0  0  0  0  0  0  0  0  0  0  0  0
  -26.3140  -31.8500   25.3360 C   0  0  1  0  0  0  0  0  0  0  0  0
  -25.1550  -31.5800   26.3250 C   0  0  0  0  0  1  0  0  0  0  0  0
  -26.9700  -30.4920   24.9940 C   0  0  0  0  0  1  0  0  0  0  0  0
  -27.3900  -32.6820   26.0720 C   0  0  0  0  0  1  0  0  0  0  0  0
  2  4  1  0
  4  1  1  1
  4  3  1  0
  5 12  2  0
  6 11  1  0
  7  8  1  0
  7  6  1  0
  9  8  1  0
  9 26  1  0
  9 10  1  0
 11  5  1  0
 11 10  1  0
 13 14  1  0
 15 18  1  0
 16 15  2  0
 16 17  1  0
 17 13  2  0
 18  4  1  0
 18 14  2  0
 19 16  1  0
 20 19  1  0
 20 21  1  0
 21 22  1  0
 22 17  1  0
 22  5  1  0
 23 24  2  0
 24 43  1  0
 25 24  1  0
 25 28  1  0
 26 23  1  0
 26 27  1  0
 27 25  2  0
 28 29  1  0
 29 30  2  0
 31 34  1  0
 31 30  1  0
 32 31  2  0
 33 32  1  0
 33 28  2  0
 34 35  1  0
 35 40  2  0
 35 36  1  0
 36 37  2  0
 37 38  1  0
 38 42  1  0
 39 38  2  0
 40 39  1  0
 41 40  1  0
 43 44  1  0
 44 47  1  0
 44 46  1  0
 45 43  2  0
 48 49  1  0
 48 23  1  0
 50 48  1  0
 51  2  1  0
 51 52  1  0
 53 55  1  0
 53 52  1  0
 54 65  2  0
 55 60  1  0
 56 64  1  0
 56 66  1  0
 57 63  1  0
 57 59  1  0
 58 64  1  0
 59 58  1  0
 60 59  2  0
 61 55  2  0
 62 61  1  0
 62 57  2  0
 63 56  1  0
 64 54  1  0
 66 68  2  0
 67 66  1  0
 69 67  1  0
 70 79  2  0
 70 75  1  0
 71 67  1  0
 71 75  1  0
 72 71  1  0
 73 74  1  0
 73 72  1  0
 74 70  1  0
 75 76  2  0
 76 77  1  0
 78 77  2  0
 79 78  1  0
 80 54  1  0
 80 81  1  0
 80 90  1  0
 81 84  1  0
 82 86  1  0
 82 81  1  0
 83 82  2  0
 86 85  1  0
 88 86  1  0
 88 89  1  0
 88 87  1  0
 90 93  1  1
 90 91  1  0
 92 90  1  0
M  ISO  4   5 100  22 100  52 101  53 101
M  END
>  <TORSDO>  (16) 
F 18

>  <SCORE>  (16) 
-12.767

>  <name>  (16) 
15

>  <ligand_id>  (16) 
15

>  <original_smiles>  (16) 
[H]c1c([H])c([H])c2c(c1[H])C([H])([H])C([H])([H])C([H])([H])C2([H])N([H])C(=O)C1([H])N(C(=O)C([H])(N([H])C(=O)C([H])(N([H])C([H])([H])[H])C([H])([H])[H])C(C([H])([H])[H])(C([H])([H])[H])C([H])([H])[H])C([H])([H])c2c([H])c(OC([H])([H])C([H])([H])N=S(=O)(c3c([H])c([H])c4c(c3[H])C([H])([H])C([H])([H])C([H])([H])N4C(=O)N3C([H])([H])C([H])([H])C([H])([H])C([H])(n4nc(-c5c([H])c([H])c(Oc6c([H])c([H])c(F)c([H])c6F)c([H])c5[H])c(C(=O)N([H])[H])c4N([H])[H])C3([H])[H])C([H])([H])[H])c([H])c([H])c2C1([H])[H]

>  <smiles>  (16) 
[H]c1c([H])c([H])c2c(c1[H])C([H])([H])C([H])([H])C([H])([H])C2([H])N([H])C(=O)C1([H])N(C(=O)C([H])(N([H])C(=O)C([H])(N([H])C([H])([H])[H])C([H])([H])[H])C(C([H])([H])[H])(C([H])([H])[H])C([H])([H])[H])C([H])([H])c2c([H])c(OC([H])([H])C([H])([H])N=S(=O)(c3c([H])c([H])c4c(c3[H])C([H])([H])C([H])([H])C([H])([H])N4C(=O)N3C([H])([H])C([H])([H])C([H])([H])C([H])(n4nc(-c5c([H])c([H])c(Oc6c([H])c([H])c(F)c([H])c6F)c([H])c5[H])c(C(=O)N([H])[H])c4N([H])[H])C3([H])[H])C([H])([H])[H])c([H])c([H])c2C1([H])[H]

$$$$
16:0:0
     RDKit          3D

 93102  0  0  1  0  0  0  0  0999 V2000
  -29.4660  -23.9280   19.1200 C   0  0  0  0  0  2  0  0  0  0  0  0
  -28.1060  -23.4520   20.9890 C   0  0  0  0  0  2  0  0  0  0  0  0
  -29.3890  -22.3890   18.6370 C   0  0  0  0  0  2  0  0  0  0  0  0
  -28.0140  -21.9110   20.5290 C   0  0  0  0  0  2  0  0  0  0  0  0
  -28.2100  -24.5460   19.8550 C   0  0  0  0  0  3  0  0  0  0  0  0
  -29.0810  -21.3100   19.6440 N   0  0  0  0  0  0  0  0  0  0  0  0
  -27.5720  -20.0940   18.2720 C   0  0  0  0  0  3  0  0  0  0  0  0
  -26.4170  -19.3290   18.4970 C   0  0  0  0  0  3  0  0  0  0  0  0
  -27.6460  -17.9270   20.0290 C   0  0  0  0  0  3  0  0  0  0  0  0
  -28.8580  -18.5740   19.6900 C   0  0  0  0  0  0  0  0  0  0  0  0
  -28.7090  -19.9650   19.1200 C   0  0  0  0  0  0  0  0  0  0  0  0
  -26.4200  -18.3530   19.5030 C   0  0  0  0  0  0  0  0  0  0  0  0
  -24.9370  -17.6470   20.0400 Cl  0  0  0  0  0  0  0  0  0  0  0  0
  -30.0830  -17.4890   19.6820 C   0  0  0  0  0  2  0  0  0  0  0  0
  -30.6140  -14.7760   19.8600 C   0  0  0  0  0  0  0  0  0  0  0  0
  -30.4400  -12.3730   19.0970 C   0  0  0  0  0  2  0  0  0  0  0  0
  -29.4510  -12.2890   17.9140 C   0  0  0  0  0  2  0  0  0  0  0  0
  -28.0070  -12.1200   18.4250 C   0  0  0  0  0  2  0  0  0  0  0  0
  -27.6670  -13.1080   19.5680 C   0  0  0  0  0  3  0  0  0  0  0  0
  -28.7760  -13.1690   20.6400 C   0  0  0  0  0  2  0  0  0  0  0  0
  -30.0210  -13.5210   19.9460 N   0  0  0  0  0  0  0  0  0  0  0  0
  -31.7980  -14.8300   19.5090 O   0  0  0  0  0  0  0  0  0  0  0  0
  -29.8290  -15.9480   19.9610 N   0  0  0  0  0  0  0  0  0  0  0  0
  -28.8740  -15.7350   20.2080 H   0  0  0  0  0  0  0  0  0  0  0  0
  -25.3600  -13.7660   20.4590 C   0  0  0  0  0  0  0  0  0  0  0  0
  -24.2930  -13.0300   20.8930 C   0  0  0  0  0  0  0  0  0  0  0  0
  -24.6980  -11.6640   20.8060 C   0  0  0  0  0  0  0  0  0  0  0  0
  -26.3500  -12.8520   20.1430 N   0  0  0  0  0  0  0  0  0  0  0  0
  -25.9620  -11.5780   20.4120 N   0  0  0  0  0  0  0  0  0  0  0  0
  -23.9300  -10.4280   21.0110 C   0  0  0  0  0  0  0  0  0  0  0  0
  -24.3730   -9.4240   21.8980 C   0  0  0  0  0  3  0  0  0  0  0  0
  -23.6070   -8.2570   22.0960 C   0  0  0  0  0  3  0  0  0  0  0  0
  -22.3830   -8.0860   21.4040 C   0  0  0  0  0  0  0  0  0  0  0  0
  -21.9580   -9.0790   20.5050 C   0  0  0  0  0  3  0  0  0  0  0  0
  -22.7260  -10.2390   20.3050 C   0  0  0  0  0  3  0  0  0  0  0  0
  -21.5870   -6.9720   21.5130 O   0  0  0  0  0  0  0  0  0  0  0  0
  -21.5710   -6.2080   22.6520 C   0  0  0  0  0  0  0  0  0  0  0  0
  -21.2390   -6.7530   23.9110 C   0  0  0  0  0  3  0  0  0  0  0  0
  -21.1660   -5.9200   25.0450 C   0  0  0  0  0  3  0  0  0  0  0  0
  -21.4130   -4.5390   24.9220 C   0  0  0  0  0  0  0  0  0  0  0  0
  -21.7370   -3.9910   23.6680 C   0  0  0  0  0  3  0  0  0  0  0  0
  -21.8120   -4.8230   22.5380 C   0  0  0  0  0  0  0  0  0  0  0  0
  -22.1040   -4.2860   21.3280 F   0  0  0  0  0  0  0  0  0  0  0  0
  -21.3380   -3.7350   26.0080 F   0  0  0  0  0  0  0  0  0  0  0  0
  -22.9390  -13.5630   21.2640 C   0  0  0  0  0  0  0  0  0  0  0  0
  -22.2380  -12.8830   22.1640 N   0  0  0  0  0  0  0  0  0  0  0  0
  -22.5110  -14.6140   20.7910 O   0  0  0  0  0  0  0  0  0  0  0  0
  -22.5950  -12.0350   22.5760 H   0  0  0  0  0  0  0  0  0  0  0  0
  -21.3330  -13.2280   22.4510 H   0  0  0  0  0  0  0  0  0  0  0  0
  -25.5630  -15.1270   20.2760 N   0  0  0  0  0  0  0  0  0  0  0  0
  -24.8600  -15.8110   20.5370 H   0  0  0  0  0  0  0  0  0  0  0  0
  -26.3760  -15.5460   19.8480 H   0  0  0  0  0  0  0  0  0  0  0  0
  -28.2630  -26.0480   20.2480 O   0  0  0  0  0  0  0  0  0  0  0  0
  -24.4580  -31.6570   23.1010 C   0  0  0  0  0  0  0  0  0  0  0  0
  -27.1610  -26.9690   20.1670 C   0  0  0  0  0  0  0  0  0  0  0  0
  -23.3100  -30.2380   21.4450 C   0  0  0  0  0  3  0  0  0  0  0  0
  -24.8060  -28.6710   20.0710 C   0  0  0  0  0  0  0  0  0  0  0  0
  -25.8600  -30.5330   21.3380 C   0  0  0  0  0  2  0  0  0  0  0  0
  -25.9630  -29.1380   20.7050 C   0  0  0  0  0  0  0  0  0  0  0  0
  -27.1360  -28.3020   20.7420 C   0  0  0  0  0  3  0  0  0  0  0  0
  -25.9770  -26.6020   19.4860 C   0  0  0  0  0  3  0  0  0  0  0  0
  -24.8230  -27.4150   19.4510 C   0  0  0  0  0  3  0  0  0  0  0  0
  -23.5700  -29.5560   20.0760 C   0  0  0  0  0  2  0  0  0  0  0  0
  -24.5610  -30.8300   22.0180 N   0  0  0  0  0  0  0  0  0  0  0  0
  -23.3590  -31.9350   23.6020 O   0  0  0  0  0  0  0  0  0  0  0  0
  -22.6210  -29.2280   22.3930 C   0  0  0  0  0  0  0  0  0  0  0  0
  -21.2930  -29.0650   22.2550 N   0  0  0  0  0  0  0  0  0  0  0  0
  -23.2840  -28.5940   23.2200 O   0  0  0  0  0  0  0  0  0  0  0  0
  -20.8160  -29.6250   21.5630 H   0  0  0  0  0  0  0  0  0  0  0  0
  -17.8990  -27.9010   22.7400 C   0  0  0  0  0  0  0  0  0  0  0  0
  -20.4610  -28.1340   23.0200 C   0  0  0  0  0  3  0  0  0  0  0  0
  -20.5470  -26.7040   22.4380 C   0  0  0  0  0  2  0  0  0  0  0  0
  -19.4450  -26.3990   21.4170 C   0  0  0  0  0  2  0  0  0  0  0  0
  -18.0630  -26.5540   22.0560 C   0  0  0  0  0  2  0  0  0  0  0  0
  -19.0250  -28.6490   23.1770 C   0  0  0  0  0  0  0  0  0  0  0  0
  -18.8170  -29.9090   23.7780 C   0  0  0  0  0  3  0  0  0  0  0  0
  -17.5170  -30.4240   23.9450 C   0  0  0  0  0  3  0  0  0  0  0  0
  -16.4060  -29.6730   23.5210 C   0  0  0  0  0  3  0  0  0  0  0  0
  -16.5980  -28.4140   22.9250 C   0  0  0  0  0  3  0  0  0  0  0  0
  -25.7170  -32.3110   23.7500 C   0  0  0  0  0  3  0  0  0  0  0  0
  -25.3700  -33.6980   24.0960 N   0  0  0  0  0  0  0  0  0  0  0  0
  -25.7000  -34.7730   23.3660 C   0  0  0  0  0  0  0  0  0  0  0  0
  -26.3960  -34.7020   22.3510 O   0  0  0  0  0  0  0  0  0  0  0  0
  -24.7560  -33.8250   24.8870 H   0  0  0  0  0  0  0  0  0  0  0  0
  -23.9450  -36.5390   23.0080 C   0  0  0  0  0  1  0  0  0  0  0  0
  -25.1780  -36.1450   23.8390 C   0  0  0  0  0  3  0  0  0  0  0  0
  -27.2800  -37.0540   24.7250 C   0  0  0  0  0  1  0  0  0  0  0  0
  -26.1920  -37.2200   23.7640 N   0  0  0  0  0  0  0  0  0  0  0  0
  -25.7650  -38.1290   23.9240 H   0  0  0  0  0  0  0  0  0  0  0  0
  -26.2260  -31.5380   25.0270 C   0  0  1  0  0  0  0  0  0  0  0  0
  -25.1200  -31.2660   26.0750 C   0  0  0  0  0  1  0  0  0  0  0  0
  -26.8440  -30.1760   24.6350 C   0  0  0  0  0  1  0  0  0  0  0  0
  -27.3480  -32.3470   25.7200 C   0  0  0  0  0  1  0  0  0  0  0  0
  1  5  1  0
  3  1  1  0
  3  6  1  0
  4  2  1  0
  5 53  1  0
  5  2  1  0
  6  4  1  0
  7  8  2  0
  7 11  1  0
  8 12  1  0
 10  9  1  0
 11  6  1  0
 11 10  2  0
 12  9  2  0
 12 13  1  0
 14 10  1  0
 14 23  1  0
 15 21  1  0
 15 23  1  0
 16 21  1  0
 17 18  1  0
 17 16  1  0
 19 18  1  0
 19 28  1  0
 19 20  1  0
 21 20  1  0
 22 15  2  0
 23 24  1  0
 25 26  2  0
 26 45  1  0
 27 26  1  0
 27 30  1  0
 28 29  1  0
 28 25  1  0
 29 27  2  0
 30 31  1  0
 31 32  2  0
 33 36  1  0
 33 32  1  0
 34 33  2  0
 35 34  1  0
 35 30  2  0
 36 37  1  0
 37 38  1  0
 38 39  2  0
 40 39  1  0
 40 44  1  0
 41 40  2  0
 42 37  2  0
 42 41  1  0
 43 42  1  0
 45 46  1  0
 46 49  1  0
 46 48  1  0
 47 45  2  0
 50 25  1  0
 50 51  1  0
 52 50  1  0
 54 65  2  0
 55 53  1  0
 55 60  1  0
 56 64  1  0
 56 66  1  0
 57 63  1  0
 57 59  1  0
 58 64  1  0
 59 60  2  0
 59 58  1  0
 61 55  2  0
 62 61  1  0
 62 57  2  0
 63 56  1  0
 64 54  1  0
 66 68  2  0
 67 66  1  0
 69 67  1  0
 70 79  2  0
 70 75  1  0
 71 67  1  0
 71 75  1  0
 72 71  1  0
 73 74  1  0
 73 72  1  0
 74 70  1  0
 75 76  2  0
 76 77  1  0
 78 77  2  0
 79 78  1  0
 80 54  1  0
 80 81  1  0
 80 90  1  0
 81 84  1  0
 82 86  1  0
 82 81  1  0
 83 82  2  0
 86 85  1  0
 88 86  1  0
 88 89  1  0
 88 87  1  0
 90 93  1  1
 90 91  1  0
 92 90  1  0
M  ISO  4   5 101  15 100  23 100  53 101
M  END
>  <TORSDO>  (17) 
F 18

>  <SCORE>  (17) 
-13.869

>  <name>  (17) 
16

>  <ligand_id>  (17) 
16

>  <original_smiles>  (17) 
[H]c1c([H])c([H])c2c(c1[H])C([H])([H])C([H])([H])C([H])([H])C2([H])N([H])C(=O)C1([H])N(C(=O)C([H])(N([H])C(=O)C([H])(N([H])C([H])([H])[H])C([H])([H])[H])C(C([H])([H])[H])(C([H])([H])[H])C([H])([H])[H])C([H])([H])c2c([H])c(OC3([H])C([H])([H])C([H])([H])N(c4c([H])c([H])c(Cl)c([H])c4C([H])([H])N([H])C(=O)N4C([H])([H])C([H])([H])C([H])([H])C([H])(n5nc(-c6c([H])c([H])c(Oc7c([H])c([H])c(F)c([H])c7F)c([H])c6[H])c(C(=O)N([H])[H])c5N([H])[H])C4([H])[H])C([H])([H])C3([H])[H])c([H])c([H])c2C1([H])[H]

>  <smiles>  (17) 
[H]c1c([H])c([H])c2c(c1[H])C([H])([H])C([H])([H])C([H])([H])C2([H])N([H])C(=O)C1([H])N(C(=O)C([H])(N([H])C(=O)C([H])(N([H])C([H])([H])[H])C([H])([H])[H])C(C([H])([H])[H])(C([H])([H])[H])C([H])([H])[H])C([H])([H])c2c([H])c(OC3([H])C([H])([H])C([H])([H])N(c4c([H])c([H])c(Cl)c([H])c4C([H])([H])N([H])C(=O)N4C([H])([H])C([H])([H])C([H])([H])C([H])(n5nc(-c6c([H])c([H])c(Oc7c([H])c([H])c(F)c([H])c7F)c([H])c6[H])c(C(=O)N([H])[H])c5N([H])[H])C4([H])[H])C([H])([H])C3([H])[H])c([H])c([H])c2C1([H])[H]

$$$$
17:0:0
     RDKit          3D

 83 90  0  0  1  0  0  0  0  0999 V2000
  -30.0400  -16.4510   20.2400 C   0  0  0  0  0  0  0  0  0  0  0  0
  -30.3380  -13.7140   19.5150 C   0  0  0  0  0  2  0  0  0  0  0  0
  -29.5840  -12.9150   18.3840 C   0  0  0  0  0  2  0  0  0  0  0  0
  -28.2280  -12.3910   18.8610 C   0  0  0  0  0  2  0  0  0  0  0  0
  -27.5770  -13.4450   19.7700 C   0  0  0  0  0  3  0  0  0  0  0  0
  -28.5190  -14.1110   20.8330 C   0  0  0  0  0  2  0  0  0  0  0  0
  -29.5600  -14.9650   20.1270 N   0  0  0  0  0  0  0  0  0  0  0  0
  -31.2820  -16.1950   20.1830 O   0  0  0  0  0  0  0  0  0  0  0  0
  -29.5390  -21.4550   19.5260 C   0  0  0  0  0  2  0  0  0  0  0  0
  -28.0200  -21.1120   20.8350 C   0  0  0  0  0  2  0  0  0  0  0  0
  -30.1120  -19.6710   19.9600 C   0  0  0  0  0  2  0  0  0  0  0  0
  -28.1980  -19.2300   20.4500 C   0  0  0  0  0  2  0  0  0  0  0  0
  -28.2970  -22.7400   20.0010 C   0  0  0  0  0  2  0  0  0  0  0  0
  -29.4630  -18.1080   20.1840 N   0  0  0  0  0  0  0  0  0  0  0  0
  -25.2020  -13.8910   20.4860 C   0  0  0  0  0  0  0  0  0  0  0  0
  -24.1500  -13.0950   20.8320 C   0  0  0  0  0  0  0  0  0  0  0  0
  -24.6460  -11.7530   20.8270 C   0  0  0  0  0  0  0  0  0  0  0  0
  -26.2720  -13.0460   20.2860 N   0  0  0  0  0  0  0  0  0  0  0  0
  -25.9510  -11.7470   20.5470 N   0  0  0  0  0  0  0  0  0  0  0  0
  -23.9240  -10.4830   21.0140 C   0  0  0  0  0  0  0  0  0  0  0  0
  -24.3400   -9.5250   21.9660 C   0  0  0  0  0  3  0  0  0  0  0  0
  -23.6090   -8.3290   22.1470 C   0  0  0  0  0  3  0  0  0  0  0  0
  -22.4480   -8.0810   21.3770 C   0  0  0  0  0  0  0  0  0  0  0  0
  -22.0500   -9.0270   20.4170 C   0  0  0  0  0  3  0  0  0  0  0  0
  -22.7810  -10.2140   20.2340 C   0  0  0  0  0  3  0  0  0  0  0  0
  -21.6930   -6.9360   21.4660 O   0  0  0  0  0  0  0  0  0  0  0  0
  -21.6320   -6.1990   22.6220 C   0  0  0  0  0  0  0  0  0  0  0  0
  -21.2040   -6.7630   23.8430 C   0  0  0  0  0  3  0  0  0  0  0  0
  -21.0910   -5.9540   24.9910 C   0  0  0  0  0  3  0  0  0  0  0  0
  -21.3960   -4.5820   24.9200 C   0  0  0  0  0  0  0  0  0  0  0  0
  -21.8180   -4.0170   23.7040 C   0  0  0  0  0  3  0  0  0  0  0  0
  -21.9320   -4.8230   22.5580 C   0  0  0  0  0  0  0  0  0  0  0  0
  -22.3170   -4.2690   21.3820 F   0  0  0  0  0  0  0  0  0  0  0  0
  -21.2800   -3.8030   26.0210 F   0  0  0  0  0  0  0  0  0  0  0  0
  -22.7400  -13.5560   21.0490 C   0  0  0  0  0  0  0  0  0  0  0  0
  -21.9990  -12.8740   21.9140 N   0  0  0  0  0  0  0  0  0  0  0  0
  -22.3050  -14.5610   20.4880 O   0  0  0  0  0  0  0  0  0  0  0  0
  -22.3650  -12.0630   22.3890 H   0  0  0  0  0  0  0  0  0  0  0  0
  -21.0510  -13.1680   22.1030 H   0  0  0  0  0  0  0  0  0  0  0  0
  -25.3380  -15.2620   20.2890 N   0  0  0  0  0  0  0  0  0  0  0  0
  -24.5520  -15.9000   20.3660 H   0  0  0  0  0  0  0  0  0  0  0  0
  -26.1870  -15.7150   19.9770 H   0  0  0  0  0  0  0  0  0  0  0  0
  -28.1700  -24.7750   20.1880 O   0  0  0  0  0  1  0  0  0  0  0  0
  -24.7530  -31.7710   23.0090 C   0  0  0  0  0  0  0  0  0  0  0  0
  -27.2450  -26.2140   20.1220 C   0  0  0  0  0  0  0  0  0  0  0  0
  -23.5790  -30.3370   21.4020 C   0  0  0  0  0  3  0  0  0  0  0  0
  -25.0240  -28.5690   20.0360 C   0  0  0  0  0  0  0  0  0  0  0  0
  -26.1750  -30.3310   21.3290 C   0  0  0  0  0  2  0  0  0  0  0  0
  -26.2300  -28.8350   20.6910 C   0  0  0  0  0  0  0  0  0  0  0  0
  -27.2940  -27.7040   20.6890 C   0  0  0  0  0  3  0  0  0  0  0  0
  -26.0000  -26.2940   19.3970 C   0  0  0  0  0  3  0  0  0  0  0  0
  -24.9790  -27.3300   19.3620 C   0  0  0  0  0  3  0  0  0  0  0  0
  -23.8390  -29.5820   20.0570 C   0  0  0  0  0  2  0  0  0  0  0  0
  -24.8660  -30.8600   21.9640 N   0  0  0  0  0  0  0  0  0  0  0  0
  -23.6510  -32.0980   23.4920 O   0  0  0  0  0  0  0  0  0  0  0  0
  -22.8180  -29.4200   22.4010 C   0  0  0  0  0  0  0  0  0  0  0  0
  -21.4760  -29.3140   22.3020 N   0  0  0  0  0  0  0  0  0  0  0  0
  -23.4570  -28.7940   23.2490 O   0  0  0  0  0  0  0  0  0  0  0  0
  -21.0020  -29.8670   21.6020 H   0  0  0  0  0  0  0  0  0  0  0  0
  -18.0660  -28.1740   22.9100 C   0  0  0  0  0  0  0  0  0  0  0  0
  -20.6400  -28.3970   23.0950 C   0  0  0  0  0  3  0  0  0  0  0  0
  -20.6930  -26.9630   22.5170 C   0  0  0  0  0  2  0  0  0  0  0  0
  -19.5590  -26.6680   21.5290 C   0  0  0  0  0  2  0  0  0  0  0  0
  -18.1990  -26.8310   22.2120 C   0  0  0  0  0  2  0  0  0  0  0  0
  -19.2100  -28.9170   23.3080 C   0  0  0  0  0  0  0  0  0  0  0  0
  -19.0250  -30.1690   23.9320 C   0  0  0  0  0  3  0  0  0  0  0  0
  -17.7320  -30.6820   24.1540 C   0  0  0  0  0  3  0  0  0  0  0  0
  -16.6050  -29.9380   23.7640 C   0  0  0  0  0  3  0  0  0  0  0  0
  -16.7730  -28.6850   23.1500 C   0  0  0  0  0  3  0  0  0  0  0  0
  -25.9940  -32.4580   23.6590 C   0  0  0  0  0  3  0  0  0  0  0  0
  -25.6340  -33.8470   24.0330 N   0  0  0  0  0  0  0  0  0  0  0  0
  -25.9390  -34.9510   23.3360 C   0  0  0  0  0  0  0  0  0  0  0  0
  -26.5960  -34.9100   22.2950 O   0  0  0  0  0  0  0  0  0  0  0  0
  -25.0420  -33.9490   24.8450 H   0  0  0  0  0  0  0  0  0  0  0  0
  -24.1730  -36.7430   23.1210 C   0  0  0  0  0  1  0  0  0  0  0  0
  -25.4450  -36.3160   23.8720 C   0  0  0  0  0  3  0  0  0  0  0  0
  -27.5860  -37.2150   24.6810 C   0  0  0  0  0  1  0  0  0  0  0  0
  -26.4540  -37.3940   23.7750 N   0  0  0  0  0  0  0  0  0  0  0  0
  -26.0340  -38.3000   23.9680 H   0  0  0  0  0  0  0  0  0  0  0  0
  -26.5160  -31.6970   24.9430 C   0  0  1  0  0  0  0  0  0  0  0  0
  -25.4230  -31.4500   26.0110 C   0  0  0  0  0  1  0  0  0  0  0  0
  -27.1180  -30.3250   24.5750 C   0  0  0  0  0  1  0  0  0  0  0  0
  -27.6570  -32.5070   25.6040 C   0  0  0  0  0  1  0  0  0  0  0  0
  2  7  1  0
  3  4  1  0
  3  2  1  0
  5  4  1  0
  5 18  1  0
  5  6  1  0
  7  1  1  0
  7  6  1  0
  8  1  2  0
  9 11  1  0
  9 13  1  0
 11 14  1  0
 12 10  1  0
 13 10  1  0
 14  1  1  0
 14 12  1  0
 15 16  2  0
 16 35  1  0
 17 16  1  0
 17 20  1  0
 18 15  1  0
 18 19  1  0
 19 17  2  0
 20 21  1  0
 21 22  2  0
 23 26  1  0
 23 22  1  0
 24 23  2  0
 25 24  1  0
 25 20  2  0
 26 27  1  0
 27 28  1  0
 28 29  2  0
 30 29  1  0
 30 34  1  0
 31 30  2  0
 32 27  2  0
 32 31  1  0
 33 32  1  0
 35 36  1  0
 36 39  1  0
 36 38  1  0
 37 35  2  0
 40 41  1  0
 40 15  1  0
 42 40  1  0
 44 55  2  0
 45 43  1  0
 45 50  1  0
 46 54  1  0
 46 56  1  0
 47 53  1  0
 47 49  1  0
 48 54  1  0
 49 48  1  0
 50 49  2  0
 51 45  2  0
 52 51  1  0
 52 47  2  0
 53 46  1  0
 54 44  1  0
 56 58  2  0
 57 56  1  0
 59 57  1  0
 60 69  2  0
 60 65  1  0
 61 57  1  0
 61 65  1  0
 62 61  1  0
 63 64  1  0
 63 62  1  0
 64 60  1  0
 65 66  2  0
 66 67  1  0
 68 67  2  0
 69 68  1  0
 70 44  1  0
 70 71  1  0
 70 80  1  0
 71 74  1  0
 72 76  1  0
 72 71  1  0
 73 72  2  0
 76 75  1  0
 78 76  1  0
 78 79  1  0
 78 77  1  0
 80 83  1  1
 80 81  1  0
 82 80  1  0
M  ISO  4   1 100  13 101  14 100  43 101
M  END
>  <TORSDO>  (18) 
F 15

>  <SCORE>  (18) 
-16.160

>  <name>  (18) 
17

>  <ligand_id>  (18) 
17

>  <original_smiles>  (18) 
[H]c1c([H])c([H])c2c(c1[H])C([H])([H])C([H])([H])C([H])([H])C2([H])N([H])C(=O)C1([H])N(C(=O)C([H])(N([H])C(=O)C([H])(N([H])C([H])([H])[H])C([H])([H])[H])C(C([H])([H])[H])(C([H])([H])[H])C([H])([H])[H])C([H])([H])c2c([H])c(OC3([H])C([H])([H])C([H])([H])N(C(=O)N4C([H])([H])C([H])([H])C([H])([H])C([H])(n5nc(-c6c([H])c([H])c(Oc7c([H])c([H])c(F)c([H])c7F)c([H])c6[H])c(C(=O)N([H])[H])c5N([H])[H])C4([H])[H])C([H])([H])C3([H])[H])c([H])c([H])c2C1([H])[H]

>  <smiles>  (18) 
[H]c1c([H])c([H])c2c(c1[H])C([H])([H])C([H])([H])C([H])([H])C2([H])N([H])C(=O)C1([H])N(C(=O)C([H])(N([H])C(=O)C([H])(N([H])C([H])([H])[H])C([H])([H])[H])C(C([H])([H])[H])(C([H])([H])[H])C([H])([H])[H])C([H])([H])c2c([H])c(OC3([H])C([H])([H])C([H])([H])N(C(=O)N4C([H])([H])C([H])([H])C([H])([H])C([H])(n5nc(-c6c([H])c([H])c(Oc7c([H])c([H])c(F)c([H])c7F)c([H])c6[H])c(C(=O)N([H])[H])c5N([H])[H])C4([H])[H])C([H])([H])C3([H])[H])c([H])c([H])c2C1([H])[H]

$$$$
18:0:0
     RDKit          3D

 96105  0  0  1  0  0  0  0  0999 V2000
  -30.7690  -19.8580   21.0320 C   0  0  0  0  0  3  0  0  0  0  0  0
  -31.8800  -19.0790   20.5520 C   0  0  0  0  0  3  0  0  0  0  0  0
  -29.7810  -19.8090   18.8740 C   0  0  0  0  0  3  0  0  0  0  0  0
  -30.8990  -19.0590   18.3600 C   0  0  0  0  0  0  0  0  0  0  0  0
  -29.6650  -20.2540   20.2130 C   0  0  0  0  0  0  0  0  0  0  0  0
  -32.0000  -18.6370   19.2000 C   0  0  0  0  0  0  0  0  0  0  0  0
  -34.4300  -17.5040   19.0820 C   0  0  0  0  0  0  0  0  0  0  0  0
  -36.7690  -17.2810   18.1970 C   0  0  0  0  0  2  0  0  0  0  0  0
  -37.1020  -18.5170   17.3290 C   0  0  0  0  0  2  0  0  0  0  0  0
  -36.6180  -18.3210   15.8800 C   0  0  0  0  0  2  0  0  0  0  0  0
  -35.1660  -17.7800   15.8040 C   0  0  0  0  0  3  0  0  0  0  0  0
  -34.9500  -16.5910   16.7650 C   0  0  0  0  0  2  0  0  0  0  0  0
  -35.3070  -17.0450   18.1190 N   0  0  0  0  0  0  0  0  0  0  0  0
  -34.8340  -17.7160   20.2300 O   0  0  0  0  0  0  0  0  0  0  0  0
  -33.1510  -17.8400   18.6590 N   0  0  0  0  0  0  0  0  0  0  0  0
  -32.9970  -17.4950   17.7240 H   0  0  0  0  0  0  0  0  0  0  0  0
  -33.7240  -17.9510   13.6890 C   0  0  0  0  0  0  0  0  0  0  0  0
  -33.8350  -17.3880   12.4490 C   0  0  0  0  0  0  0  0  0  0  0  0
  -34.9990  -16.5620   12.4960 C   0  0  0  0  0  0  0  0  0  0  0  0
  -34.7810  -17.4540   14.4330 N   0  0  0  0  0  0  0  0  0  0  0  0
  -35.5200  -16.5660   13.7190 N   0  0  0  0  0  0  0  0  0  0  0  0
  -35.6830  -15.8150   11.4310 C   0  0  0  0  0  0  0  0  0  0  0  0
  -36.1400  -14.4950   11.6310 C   0  0  0  0  0  3  0  0  0  0  0  0
  -36.7770  -13.7930   10.5860 C   0  0  0  0  0  3  0  0  0  0  0  0
  -36.9590  -14.4080    9.3250 C   0  0  0  0  0  0  0  0  0  0  0  0
  -36.5250  -15.7330    9.1390 C   0  0  0  0  0  3  0  0  0  0  0  0
  -35.8960  -16.4320   10.1820 C   0  0  0  0  0  3  0  0  0  0  0  0
  -37.5910  -13.8120    8.2600 O   0  0  0  0  0  0  0  0  0  0  0  0
  -37.7600  -12.4520    8.1950 C   0  0  0  0  0  0  0  0  0  0  0  0
  -36.6730  -11.5600    8.3170 C   0  0  0  0  0  3  0  0  0  0  0  0
  -36.8810  -10.1730    8.1740 C   0  0  0  0  0  3  0  0  0  0  0  0
  -38.1700   -9.6790    7.8990 C   0  0  0  0  0  0  0  0  0  0  0  0
  -39.2530  -10.5670    7.7710 C   0  0  0  0  0  3  0  0  0  0  0  0
  -39.0460  -11.9500    7.9150 C   0  0  0  0  0  0  0  0  0  0  0  0
  -40.0890  -12.8020    7.7700 F   0  0  0  0  0  0  0  0  0  0  0  0
  -38.3700   -8.3480    7.7540 F   0  0  0  0  0  0  0  0  0  0  0  0
  -32.9730  -17.6810   11.2550 C   0  0  0  0  0  0  0  0  0  0  0  0
  -32.7950  -16.7040   10.3740 N   0  0  0  0  0  0  0  0  0  0  0  0
  -32.4140  -18.7690   11.1220 O   0  0  0  0  0  0  0  0  0  0  0  0
  -33.2380  -15.8050   10.4950 H   0  0  0  0  0  0  0  0  0  0  0  0
  -32.2050  -16.8540    9.5670 H   0  0  0  0  0  0  0  0  0  0  0  0
  -32.8370  -18.8670   14.2380 N   0  0  0  0  0  0  0  0  0  0  0  0
  -32.1330  -19.3170   13.6650 H   0  0  0  0  0  0  0  0  0  0  0  0
  -33.0080  -19.3480   15.1100 H   0  0  0  0  0  0  0  0  0  0  0  0
  -30.8210  -18.6580   16.9050 C   0  0  0  0  0  0  0  0  0  0  0  0
  -29.7020  -18.9320   14.7370 C   0  0  0  0  0  1  0  0  0  0  0  0
  -29.5760  -20.7660   16.3950 C   0  0  0  0  0  1  0  0  0  0  0  0
  -30.0650  -19.4180   16.0720 N   0  0  0  0  0  0  0  0  0  0  0  0
  -31.4010  -17.6310   16.5340 O   0  0  0  0  0  0  0  0  0  0  0  0
  -28.3240  -20.9130   20.8050 C   0  0  0  0  0  2  0  0  0  0  0  0
  -26.3050  -22.3240   19.8590 C   0  0  0  0  0  2  0  0  0  0  0  0
  -27.2360  -23.1870   21.4100 C   0  0  0  0  0  2  0  0  0  0  0  0
  -26.1620  -23.7690   20.4440 C   0  0  0  0  0  3  0  0  0  0  0  0
  -27.7180  -22.2500   20.3490 N   0  0  1  0  0  4  0  0  0  0  0  0
  -28.3530  -22.7380   19.7380 H   0  0  0  0  0  0  0  0  0  0  0  0
  -24.8740  -24.2810   21.0310 O   0  0  0  0  0  0  0  0  0  0  0  0
  -17.8090  -24.2990   19.3860 C   0  0  0  0  0  0  0  0  0  0  0  0
  -23.8270  -24.8180   20.2410 C   0  0  0  0  0  0  0  0  0  0  0  0
  -19.3220  -25.3780   17.7580 C   0  0  0  0  0  3  0  0  0  0  0  0
  -21.7080  -25.8220   18.5720 C   0  0  0  0  0  0  0  0  0  0  0  0
  -19.9340  -25.3190   20.2480 C   0  0  0  0  0  2  0  0  0  0  0  0
  -21.4070  -25.3220   19.8450 C   0  0  0  0  0  0  0  0  0  0  0  0
  -22.4610  -24.8390   20.6840 C   0  0  0  0  0  3  0  0  0  0  0  0
  -24.0730  -25.3530   18.9550 C   0  0  0  0  0  3  0  0  0  0  0  0
  -23.0400  -25.8480   18.1330 C   0  0  0  0  0  3  0  0  0  0  0  0
  -20.5580  -26.3150   17.7120 C   0  0  0  0  0  2  0  0  0  0  0  0
  -18.9870  -24.9520   19.1560 N   0  0  0  0  0  0  0  0  0  0  0  0
  -17.0030  -24.0810   18.4690 O   0  0  0  0  0  0  0  0  0  0  0  0
  -19.5540  -24.1880   16.7970 C   0  0  0  0  0  0  0  0  0  0  0  0
  -19.3730  -24.4230   15.4860 N   0  0  0  0  0  0  0  0  0  0  0  0
  -19.9130  -23.0910   17.2300 O   0  0  0  0  0  0  0  0  0  0  0  0
  -19.0640  -25.3430   15.2080 H   0  0  0  0  0  0  0  0  0  0  0  0
  -19.2720  -24.0010   11.8950 C   0  0  0  0  0  0  0  0  0  0  0  0
  -19.5810  -23.4590   14.4040 C   0  0  0  0  0  3  0  0  0  0  0  0
  -21.0850  -23.3040   14.0790 C   0  0  0  0  0  2  0  0  0  0  0  0
  -21.5580  -24.2310   12.9540 C   0  0  0  0  0  2  0  0  0  0  0  0
  -20.7740  -23.9580   11.6680 C   0  0  0  0  0  2  0  0  0  0  0  0
  -18.7130  -23.7810   13.1830 C   0  0  0  0  0  0  0  0  0  0  0  0
  -17.3120  -23.8650   13.3430 C   0  0  0  0  0  3  0  0  0  0  0  0
  -16.4770  -24.1550   12.2480 C   0  0  0  0  0  3  0  0  0  0  0  0
  -17.0360  -24.3580   10.9740 C   0  0  0  0  0  3  0  0  0  0  0  0
  -18.4290  -24.2760   10.7990 C   0  0  0  0  0  3  0  0  0  0  0  0
  -17.4060  -23.8200   20.8140 C   0  0  0  0  0  3  0  0  0  0  0  0
  -18.2660  -22.5980   21.3200 C   0  0  1  0  0  0  0  0  0  0  0  0
  -18.3210  -21.4210   20.3180 C   0  0  0  0  0  1  0  0  0  0  0  0
  -19.7180  -23.0390   21.6170 C   0  0  0  0  0  1  0  0  0  0  0  0
  -17.6850  -22.0630   22.6500 C   0  0  0  0  0  1  0  0  0  0  0  0
  -15.9810  -23.4680   20.7820 N   0  0  0  0  0  0  0  0  0  0  0  0
  -15.0000  -24.2130   21.3090 C   0  0  0  0  0  0  0  0  0  0  0  0
  -15.2160  -25.2510   21.9400 O   0  0  0  0  0  0  0  0  0  0  0  0
  -15.7260  -22.6600   20.2330 H   0  0  0  0  0  0  0  0  0  0  0  0
  -12.9300  -24.4600   19.9020 C   0  0  0  0  0  1  0  0  0  0  0  0
  -13.5510  -23.7290   21.1040 C   0  0  0  0  0  3  0  0  0  0  0  0
  -13.0770  -23.0620   23.4210 C   0  0  0  0  0  1  0  0  0  0  0  0
  -12.6930  -23.9120   22.2970 N   0  0  0  0  0  0  0  0  0  0  0  0
  -11.7210  -23.7220   22.0730 H   0  0  0  0  0  0  0  0  0  0  0  0
  2  1  1  0
  3  5  1  0
  4  3  2  0
  4  6  1  0
  5 50  1  0
  5  1  2  0
  6  2  2  0
  7 14  2  0
  9  8  1  0
 10  9  1  0
 11 20  1  0
 11 10  1  0
 11 12  1  0
 12 13  1  0
 13  8  1  0
 13  7  1  0
 15  7  1  0
 15  6  1  0
 16 15  1  0
 17 42  1  0
 17 20  1  0
 18 19  1  0
 18 17  2  0
 19 21  2  0
 21 20  1  0
 22 23  1  0
 22 19  1  0
 24 23  2  0
 25 24  1  0
 26 25  2  0
 26 27  1  0
 27 22  2  0
 28 25  1  0
 29 28  1  0
 29 30  1  0
 31 30  2  0
 32 31  1  0
 33 32  2  0
 33 34  1  0
 34 29  2  0
 35 34  1  0
 36 32  1  0
 37 18  1  0
 38 40  1  0
 38 37  1  0
 39 37  2  0
 41 38  1  0
 42 44  1  0
 43 42  1  0
 45  4  1  0
 46 48  1  0
 48 47  1  0
 48 45  1  0
 49 45  2  0
 51 54  1  0
 51 53  1  0
 53 56  1  0
 53 52  1  0
 54 50  1  0
 54 52  1  0
 54 55  1  6
 58 63  1  0
 58 56  1  0
 59 69  1  0
 59 67  1  0
 60 62  1  0
 62 61  1  0
 62 63  2  0
 64 58  2  0
 65 60  2  0
 65 64  1  0
 66 59  1  0
 66 60  1  0
 67 57  1  0
 67 61  1  0
 68 57  2  0
 69 71  2  0
 70 69  1  0
 72 70  1  0
 73 78  1  0
 74 70  1  0
 75 74  1  0
 76 75  1  0
 77 73  1  0
 77 76  1  0
 78 79  2  0
 78 74  1  0
 80 79  1  0
 81 80  2  0
 82 81  1  0
 82 73  2  0
 83 57  1  0
 83 84  1  0
 84 86  1  1
 84 87  1  0
 85 84  1  0
 88 83  1  0
 88 89  1  0
 89 90  2  0
 91 88  1  0
 93 92  1  0
 93 89  1  0
 93 95  1  0
 95 94  1  0
 96 95  1  0
M  ISO  4   7 100  15 100  53 101  56 101
M  END
>  <TORSDO>  (19) 
F 19

>  <SCORE>  (19) 
-3.735

>  <name>  (19) 
18

>  <ligand_id>  (19) 
18

>  <original_smiles>  (19) 
[H]c1c([H])c([H])c2c(c1[H])C([H])([H])C([H])([H])C([H])([H])C2([H])N([H])C(=O)C1([H])N(C(=O)C([H])(N([H])C(=O)C([H])(N([H])C([H])([H])[H])C([H])([H])[H])C(C([H])([H])[H])(C([H])([H])[H])C([H])([H])[H])C([H])([H])c2c([H])c(OC3([H])C([H])([H])[N+]([H])(C([H])([H])c4c([H])c([H])c(N([H])C(=O)N5C([H])([H])C([H])([H])C([H])([H])C([H])(n6nc(-c7c([H])c([H])c(Oc8c([H])c([H])c(F)c([H])c8F)c([H])c7[H])c(C(=O)N([H])[H])c6N([H])[H])C5([H])[H])c(C(=O)N(C([H])([H])[H])C([H])([H])[H])c4[H])C3([H])[H])c([H])c([H])c2C1([H])[H]

>  <smiles>  (19) 
[H]c1c([H])c([H])c2c(c1[H])C([H])([H])C([H])([H])C([H])([H])C2([H])N([H])C(=O)C1([H])N(C(=O)C([H])(N([H])C(=O)C([H])(N([H])C([H])([H])[H])C([H])([H])[H])C(C([H])([H])[H])(C([H])([H])[H])C([H])([H])[H])C([H])([H])c2c([H])c(OC3([H])C([H])([H])[N+]([H])(C([H])([H])c4c([H])c([H])c(N([H])C(=O)N5C([H])([H])C([H])([H])C([H])([H])C([H])(n6nc(-c7c([H])c([H])c(Oc8c([H])c([H])c(F)c([H])c8F)c([H])c7[H])c(C(=O)N([H])[H])c6N([H])[H])C5([H])[H])c(C(=O)N(C([H])([H])[H])C([H])([H])[H])c4[H])C3([H])[H])c([H])c([H])c2C1([H])[H]

$$$$
20:0:0
     RDKit          3D

100110  0  0  1  0  0  0  0  0999 V2000
  -30.3760  -18.3130   19.5530 C   0  0  0  0  0  3  0  0  0  0  0  0
  -27.8350  -19.3720   19.7690 C   0  0  0  0  0  3  0  0  0  0  0  0
  -30.1410  -19.7570   19.3890 C   0  0  0  0  0  0  0  0  0  0  0  0
  -28.8260  -20.3710   19.4830 C   0  0  0  0  0  0  0  0  0  0  0  0
  -28.0670  -17.9430   19.9210 C   0  0  0  0  0  0  0  0  0  0  0  0
  -29.3600  -17.3230   19.8000 C   0  0  0  0  0  0  0  0  0  0  0  0
  -30.2590  -14.7090   19.3990 C   0  0  0  0  0  0  0  0  0  0  0  0
  -30.1250  -12.3770   18.4070 C   0  0  0  0  0  2  0  0  0  0  0  0
  -29.0610  -12.3530   17.2810 C   0  0  0  0  0  2  0  0  0  0  0  0
  -27.6540  -12.1020   17.8560 C   0  0  0  0  0  2  0  0  0  0  0  0
  -27.3620  -12.9720   19.1070 C   0  0  0  0  0  3  0  0  0  0  0  0
  -28.5330  -12.9530   20.1130 C   0  0  0  0  0  2  0  0  0  0  0  0
  -29.7290  -13.4190   19.3960 N   0  0  0  0  0  0  0  0  0  0  0  0
  -31.3860  -14.8700   18.9180 O   0  0  0  0  0  0  0  0  0  0  0  0
  -29.4410  -15.7850   19.8200 N   0  0  0  0  0  0  0  0  0  0  0  0
  -28.6290  -15.4230   20.3020 H   0  0  0  0  0  0  0  0  0  0  0  0
  -25.0250  -13.4570   20.0350 C   0  0  0  0  0  0  0  0  0  0  0  0
  -24.0380  -12.6450   20.5230 C   0  0  0  0  0  0  0  0  0  0  0  0
  -24.5690  -11.3180   20.4900 C   0  0  0  0  0  0  0  0  0  0  0  0
  -26.0880  -12.6260   19.7310 N   0  0  0  0  0  0  0  0  0  0  0  0
  -25.8270  -11.3340   20.0650 N   0  0  0  0  0  0  0  0  0  0  0  0
  -23.9270  -10.0290   20.7830 C   0  0  0  0  0  0  0  0  0  0  0  0
  -24.4300   -9.1620   21.7780 C   0  0  0  0  0  3  0  0  0  0  0  0
  -23.7820   -7.9380   22.0540 C   0  0  0  0  0  3  0  0  0  0  0  0
  -22.6190   -7.5740   21.3350 C   0  0  0  0  0  0  0  0  0  0  0  0
  -22.1360   -8.4300   20.3300 C   0  0  0  0  0  3  0  0  0  0  0  0
  -22.7840   -9.6460   20.0540 C   0  0  0  0  0  3  0  0  0  0  0  0
  -21.9380   -6.3950   21.5190 O   0  0  0  0  0  0  0  0  0  0  0  0
  -21.8430   -5.8010   22.7530 C   0  0  0  0  0  0  0  0  0  0  0  0
  -21.2960   -6.4790   23.8640 C   0  0  0  0  0  3  0  0  0  0  0  0
  -21.1530   -5.8090   25.0960 C   0  0  0  0  0  3  0  0  0  0  0  0
  -21.5460   -4.4620   25.2150 C   0  0  0  0  0  0  0  0  0  0  0  0
  -22.0840   -3.7850   24.1080 C   0  0  0  0  0  3  0  0  0  0  0  0
  -22.2290   -4.4510   22.8790 C   0  0  0  0  0  0  0  0  0  0  0  0
  -22.7290   -3.7870   21.8100 F   0  0  0  0  0  0  0  0  0  0  0  0
  -21.4010   -3.8160   26.3960 F   0  0  0  0  0  0  0  0  0  0  0  0
  -22.6490  -13.0640   20.9070 C   0  0  0  0  0  0  0  0  0  0  0  0
  -22.0380  -12.3640   21.8570 N   0  0  0  0  0  0  0  0  0  0  0  0
  -22.1140  -14.0490   20.3990 O   0  0  0  0  0  0  0  0  0  0  0  0
  -22.4860  -11.5700   22.2870 H   0  0  0  0  0  0  0  0  0  0  0  0
  -21.1100  -12.6280   22.1550 H   0  0  0  0  0  0  0  0  0  0  0  0
  -25.0950  -14.8260   19.8030 N   0  0  0  0  0  0  0  0  0  0  0  0
  -24.3200  -15.4450   20.0060 H   0  0  0  0  0  0  0  0  0  0  0  0
  -25.9180  -15.3170   19.4730 H   0  0  0  0  0  0  0  0  0  0  0  0
  -28.6640  -23.1270   19.6030 C   0  0  0  0  0  0  0  0  0  0  0  0
  -27.2100  -23.5140   17.8020 C   0  0  0  0  0  2  0  0  0  0  0  0
  -27.3240  -22.0020   18.1570 C   0  0  0  0  0  2  0  0  0  0  0  0
  -27.6670  -24.3010   19.0390 C   0  0  0  0  0  3  0  0  0  0  0  0
  -28.3960  -21.8190   19.1370 N   0  0  0  0  0  0  0  0  0  0  0  0
  -29.5540  -23.3900   20.4160 O   0  0  0  0  0  0  0  0  0  0  0  0
  -28.0210  -25.8340   18.9550 O   0  0  0  0  0  0  0  0  0  0  0  0
  -24.7770  -31.2800   22.7940 C   0  0  0  0  0  0  0  0  0  0  0  0
  -27.0180  -26.8720   19.0940 C   0  0  0  0  0  0  0  0  0  0  0  0
  -23.4550  -30.1500   21.0500 C   0  0  0  0  0  3  0  0  0  0  0  0
  -24.7760  -28.7140   19.3820 C   0  0  0  0  0  0  0  0  0  0  0  0
  -26.0120  -30.3270   20.8120 C   0  0  0  0  0  2  0  0  0  0  0  0
  -25.9970  -29.0230   19.9930 C   0  0  0  0  0  0  0  0  0  0  0  0
  -27.1190  -28.1200   19.8390 C   0  0  0  0  0  3  0  0  0  0  0  0
  -25.7840  -26.7020   18.4290 C   0  0  0  0  0  3  0  0  0  0  0  0
  -24.6830  -27.5660   18.5860 C   0  0  0  0  0  3  0  0  0  0  0  0
  -23.5920  -29.6460   19.5910 C   0  0  0  0  0  2  0  0  0  0  0  0
  -24.7700  -30.6000   21.6070 N   0  0  0  0  0  0  0  0  0  0  0  0
  -23.7250  -31.5390   23.4000 O   0  0  0  0  0  0  0  0  0  0  0  0
  -22.7690  -29.0570   21.9060 C   0  0  0  0  0  0  0  0  0  0  0  0
  -21.4260  -28.9880   21.8560 N   0  0  0  0  0  0  0  0  0  0  0  0
  -23.4450  -28.2770   22.5820 O   0  0  0  0  0  0  0  0  0  0  0  0
  -20.9380  -29.6690   21.2910 H   0  0  0  0  0  0  0  0  0  0  0  0
  -18.0030  -28.0050   22.5310 C   0  0  0  0  0  0  0  0  0  0  0  0
  -20.5900  -28.0010   22.5470 C   0  0  0  0  0  3  0  0  0  0  0  0
  -20.4890  -26.6900   21.7320 C   0  0  0  0  0  2  0  0  0  0  0  0
  -19.2660  -26.6440   20.8110 C   0  0  0  0  0  2  0  0  0  0  0  0
  -17.9750  -26.7880   21.6200 C   0  0  0  0  0  2  0  0  0  0  0  0
  -19.2300  -28.5840   22.9510 C   0  0  0  0  0  0  0  0  0  0  0  0
  -19.1990  -29.7340   23.7700 C   0  0  0  0  0  3  0  0  0  0  0  0
  -17.9740  -30.3030   24.1670 C   0  0  0  0  0  3  0  0  0  0  0  0
  -16.7630  -29.7170   23.7590 C   0  0  0  0  0  3  0  0  0  0  0  0
  -16.7790  -28.5700   22.9470 C   0  0  0  0  0  3  0  0  0  0  0  0
  -26.1060  -31.7830   23.4370 C   0  0  0  0  0  3  0  0  0  0  0  0
  -26.6450  -30.8250   24.5710 C   0  0  1  0  0  0  0  0  0  0  0  0
  -25.5950  -30.4920   25.6570 C   0  0  0  0  0  1  0  0  0  0  0  0
  -27.1440  -29.4900   23.9730 C   0  0  0  0  0  1  0  0  0  0  0  0
  -27.8620  -31.4750   25.2690 C   0  0  0  0  0  1  0  0  0  0  0  0
  -25.8600  -33.1290   23.9790 N   0  0  0  0  0  0  0  0  0  0  0  0
  -26.1760  -34.2720   23.3580 C   0  0  0  0  0  0  0  0  0  0  0  0
  -26.7720  -34.3020   22.2790 O   0  0  0  0  0  0  0  0  0  0  0  0
  -25.3310  -33.1800   24.8370 H   0  0  0  0  0  0  0  0  0  0  0  0
  -24.4830  -36.1340   23.3930 C   0  0  0  0  0  1  0  0  0  0  0  0
  -25.7660  -35.5920   24.0420 C   0  0  0  0  0  3  0  0  0  0  0  0
  -27.9820  -36.3060   24.8230 C   0  0  0  0  0  1  0  0  0  0  0  0
  -26.8190  -36.6310   24.0020 N   0  0  0  0  0  0  0  0  0  0  0  0
  -26.4520  -37.5260   24.3120 H   0  0  0  0  0  0  0  0  0  0  0  0
  -24.7310  -16.3570   20.4650 C   0  0  0  0  0  2  0  0  0  0  0  0
  -25.6500  -15.6460   21.4640 C   0  0  0  0  0  2  0  0  0  0  0  0
  -25.6360  -17.3480   19.7140 C   0  0  0  0  0  2  0  0  0  0  0  0
  -26.8820  -16.5420   21.5310 C   0  0  0  0  0  2  0  0  0  0  0  0
  -26.9900  -17.0700   20.1810 N   0  0  0  0  0  0  0  0  0  0  0  0
  -31.3510  -20.6200   19.0240 C   0  0  2  0  0  0  0  0  0  0  0  0
  -31.0340  -21.5650   18.1350 F   0  0  0  0  0  0  0  0  0  0  0  0
  -32.3190  -19.8880   18.4660 F   0  0  0  0  0  0  0  0  0  0  0  0
  -32.0210  -21.3970   20.4790 Cl  0  0  0  0  0  0  0  0  0  0  0  0
  1  6  1  0
  2  5  1  0
  3  4  1  0
  3  1  2  0
  4  2  2  0
  5 96  1  0
  6 15  1  0
  6  5  2  0
  7 15  1  0
  8 13  1  0
  9 10  1  0
  9  8  1  0
 11 10  1  0
 11 20  1  0
 11 12  1  0
 13  7  1  0
 13 12  1  0
 14  7  2  0
 15 16  1  0
 17 18  2  0
 18 37  1  0
 19 18  1  0
 19 22  1  0
 20 17  1  0
 20 21  1  0
 21 19  2  0
 22 23  1  0
 23 24  2  0
 25 28  1  0
 25 24  1  0
 26 25  2  0
 27 26  1  0
 27 22  2  0
 28 29  1  0
 29 34  2  0
 29 30  1  0
 30 31  2  0
 31 32  1  0
 32 36  1  0
 33 32  2  0
 34 33  1  0
 35 34  1  0
 37 38  1  0
 38 41  1  0
 38 40  1  0
 39 37  2  0
 42 43  1  0
 42 17  1  0
 44 42  1  0
 45 50  2  0
 46 47  1  0
 46 48  1  0
 47 49  1  0
 48 51  1  0
 48 45  1  0
 49  4  1  0
 49 45  1  0
 51 53  1  0
 52 63  2  0
 53 58  1  0
 54 62  1  0
 54 64  1  0
 55 61  1  0
 55 57  1  0
 56 62  1  0
 57 56  1  0
 58 57  2  0
 59 60  1  0
 59 53  2  0
 60 55  2  0
 61 54  1  0
 62 52  1  0
 64 66  2  0
 65 64  1  0
 67 65  1  0
 68 77  2  0
 68 73  1  0
 69 65  1  0
 69 73  1  0
 70 69  1  0
 71 72  1  0
 71 70  1  0
 72 68  1  0
 73 74  2  0
 74 75  1  0
 76 75  2  0
 77 76  1  0
 78 52  1  0
 78 83  1  0
 78 79  1  0
 79 82  1  1
 79 80  1  0
 81 79  1  0
 83 86  1  0
 84 83  1  0
 84 88  1  0
 85 84  2  0
 88 87  1  0
 90 88  1  0
 90 91  1  0
 90 89  1  0
 92 93  1  0
 93 95  1  0
 94 96  1  0
 94 92  1  0
 96 95  1  0
 97  3  1  0
 97100  1  0
 97 98  1  6
 99 97  1  0
M  ISO  4   7 100  15 100  48 101  51 101
M  END
>  <TORSDO>  (20) 
F 19

>  <SCORE>  (20) 
-7.382

>  <name>  (20) 
20

>  <ligand_id>  (20) 
20

>  <original_smiles>  (20) 
[H]c1c([H])c([H])c2c(c1[H])C([H])([H])C([H])([H])C([H])([H])C2([H])N([H])C(=O)C1([H])N(C(=O)C([H])(N([H])C(=O)C([H])(N([H])C([H])([H])[H])C([H])([H])[H])C(C([H])([H])[H])(C([H])([H])[H])C([H])([H])[H])C([H])([H])c2c([H])c(OC3([H])C(=O)N(c4c([H])c(N5C([H])([H])C([H])([H])C([H])([H])C5([H])[H])c(N([H])C(=O)N5C([H])([H])C([H])([H])C([H])([H])C([H])(n6nc(-c7c([H])c([H])c(Oc8c([H])c([H])c(F)c([H])c8F)c([H])c7[H])c(C(=O)N([H])[H])c6N([H])[H])C5([H])[H])c([H])c4C(F)(F)Cl)C([H])([H])C3([H])[H])c([H])c([H])c2C1([H])[H]

>  <smiles>  (20) 
[H]c1c([H])c([H])c2c(c1[H])C([H])([H])C([H])([H])C([H])([H])C2([H])N([H])C(=O)C1([H])N(C(=O)C([H])(N([H])C(=O)C([H])(N([H])C([H])([H])[H])C([H])([H])[H])C(C([H])([H])[H])(C([H])([H])[H])C([H])([H])[H])C([H])([H])c2c([H])c(OC3([H])C(=O)N(c4c([H])c(N5C([H])([H])C([H])([H])C([H])([H])C5([H])[H])c(N([H])C(=O)N5C([H])([H])C([H])([H])C([H])([H])C([H])(n6nc(-c7c([H])c([H])c(Oc8c([H])c([H])c(F)c([H])c8F)c([H])c7[H])c(C(=O)N([H])[H])c6N([H])[H])C5([H])[H])c([H])c4C(F)(F)Cl)C([H])([H])C3([H])[H])c([H])c([H])c2C1([H])[H]

$$$$
21:0:0
     RDKit          3D

 93102  0  0  1  0  0  0  0  0999 V2000
  -30.4160  -23.7000   21.0460 C   0  0  0  0  0  2  0  0  0  0  0  0
  -29.4380  -22.5050   19.7100 C   0  0  0  0  0  2  0  0  0  0  0  0
  -29.6630  -24.0380   19.7510 C   0  0  0  0  0  3  0  0  0  0  0  0
  -30.6350  -22.3280   20.5350 N   0  0  2  0  0  4  0  0  0  0  0  0
  -31.4620  -22.2950   19.9590 H   0  0  0  0  0  0  0  0  0  0  0  0
  -30.6560  -21.2510   21.5780 C   0  0  0  0  0  2  0  0  0  0  0  0
  -31.7750  -18.9700   20.9590 C   0  0  0  0  0  3  0  0  0  0  0  0
  -31.6950  -17.5600   20.7810 C   0  0  0  0  0  3  0  0  0  0  0  0
  -29.3710  -19.0780   21.1620 C   0  0  0  0  0  3  0  0  0  0  0  0
  -30.6120  -19.7540   21.1630 C   0  0  0  0  0  0  0  0  0  0  0  0
  -29.2840  -17.6720   21.0120 C   0  0  0  0  0  0  0  0  0  0  0  0
  -30.4480  -16.8810   20.8210 C   0  0  0  0  0  0  0  0  0  0  0  0
  -27.9150  -17.0180   21.0990 C   0  0  0  0  0  1  0  0  0  0  0  0
  -30.9050  -14.4930   19.9780 C   0  0  0  0  0  0  0  0  0  0  0  0
  -30.4840  -12.3880   18.7340 C   0  0  0  0  0  2  0  0  0  0  0  0
  -29.4760  -12.6680   17.5980 C   0  0  0  0  0  2  0  0  0  0  0  0
  -28.0240  -12.5570   18.1070 C   0  0  0  0  0  2  0  0  0  0  0  0
  -27.7900  -13.3450   19.4220 C   0  0  0  0  0  3  0  0  0  0  0  0
  -28.8980  -13.0270   20.4540 C   0  0  0  0  0  2  0  0  0  0  0  0
  -30.2000  -13.3300   19.8310 N   0  0  0  0  0  0  0  0  0  0  0  0
  -31.9970  -14.6740   19.4320 O   0  0  0  0  0  0  0  0  0  0  0  0
  -30.2650  -15.4530   20.6880 N   0  0  0  0  0  0  0  0  0  0  0  0
  -29.4200  -15.1080   21.1150 H   0  0  0  0  0  0  0  0  0  0  0  0
  -25.4570  -14.0120   20.2870 C   0  0  0  0  0  0  0  0  0  0  0  0
  -24.3820  -13.2680   20.6900 C   0  0  0  0  0  0  0  0  0  0  0  0
  -24.7810  -11.9020   20.5690 C   0  0  0  0  0  0  0  0  0  0  0  0
  -26.4520  -13.1030   19.9630 N   0  0  0  0  0  0  0  0  0  0  0  0
  -26.0490  -11.8250   20.1860 N   0  0  0  0  0  0  0  0  0  0  0  0
  -24.0100  -10.6630   20.7400 C   0  0  0  0  0  0  0  0  0  0  0  0
  -24.4050   -9.6690   21.6620 C   0  0  0  0  0  3  0  0  0  0  0  0
  -23.6380   -8.4960   21.8210 C   0  0  0  0  0  3  0  0  0  0  0  0
  -22.4620   -8.3080   21.0570 C   0  0  0  0  0  0  0  0  0  0  0  0
  -22.0850   -9.2890   20.1240 C   0  0  0  0  0  3  0  0  0  0  0  0
  -22.8530  -10.4550   19.9630 C   0  0  0  0  0  3  0  0  0  0  0  0
  -21.6680   -7.1880   21.1270 O   0  0  0  0  0  0  0  0  0  0  0  0
  -21.5410   -6.4670   22.2870 C   0  0  0  0  0  0  0  0  0  0  0  0
  -21.1000   -7.0600   23.4910 C   0  0  0  0  0  3  0  0  0  0  0  0
  -20.9180   -6.2660   24.6410 C   0  0  0  0  0  3  0  0  0  0  0  0
  -21.1680   -4.8820   24.5890 C   0  0  0  0  0  0  0  0  0  0  0  0
  -21.6010   -4.2880   23.3900 C   0  0  0  0  0  3  0  0  0  0  0  0
  -21.7840   -5.0780   22.2420 C   0  0  0  0  0  0  0  0  0  0  0  0
  -22.1820   -4.4980   21.0850 F   0  0  0  0  0  0  0  0  0  0  0  0
  -20.9850   -4.1180   25.6910 F   0  0  0  0  0  0  0  0  0  0  0  0
  -23.0250  -13.7880   21.0670 C   0  0  0  0  0  0  0  0  0  0  0  0
  -22.3340  -13.1040   21.9720 N   0  0  0  0  0  0  0  0  0  0  0  0
  -22.5890  -14.8370   20.5940 O   0  0  0  0  0  0  0  0  0  0  0  0
  -22.7000  -12.2560   22.3780 H   0  0  0  0  0  0  0  0  0  0  0  0
  -21.4260  -13.4370   22.2660 H   0  0  0  0  0  0  0  0  0  0  0  0
  -25.6600  -15.3810   20.1470 N   0  0  0  0  0  0  0  0  0  0  0  0
  -24.9100  -16.0450   20.3010 H   0  0  0  0  0  0  0  0  0  0  0  0
  -26.4770  -15.7960   19.7180 H   0  0  0  0  0  0  0  0  0  0  0  0
  -28.4160  -24.9610   19.6760 C   0  0  0  0  0  2  0  0  0  0  0  0
  -28.5480  -26.4110   19.7850 O   0  0  0  0  0  0  0  0  0  0  0  0
  -24.4450  -31.4080   22.9170 C   0  0  0  0  0  0  0  0  0  0  0  0
  -27.3530  -27.1380   19.7650 C   0  0  0  0  0  0  0  0  0  0  0  0
  -23.3340  -29.9760   21.2410 C   0  0  0  0  0  3  0  0  0  0  0  0
  -24.8820  -28.5610   19.7920 C   0  0  0  0  0  0  0  0  0  0  0  0
  -25.8460  -30.4690   21.0740 C   0  0  0  0  0  2  0  0  0  0  0  0
  -26.0130  -29.1180   20.3990 C   0  0  0  0  0  0  0  0  0  0  0  0
  -27.2520  -28.4190   20.3770 C   0  0  0  0  0  3  0  0  0  0  0  0
  -26.1850  -26.6200   19.1480 C   0  0  0  0  0  3  0  0  0  0  0  0
  -24.9660  -27.3130   19.1620 C   0  0  0  0  0  3  0  0  0  0  0  0
  -23.5930  -29.3490   19.8470 C   0  0  0  0  0  2  0  0  0  0  0  0
  -24.5590  -30.6330   21.8020 N   0  0  0  0  0  0  0  0  0  0  0  0
  -23.3460  -31.6050   23.4540 O   0  0  0  0  0  0  0  0  0  0  0  0
  -22.7340  -28.8960   22.1720 C   0  0  0  0  0  0  0  0  0  0  0  0
  -21.4260  -28.6310   22.0230 N   0  0  0  0  0  0  0  0  0  0  0  0
  -23.4450  -28.3020   22.9860 O   0  0  0  0  0  0  0  0  0  0  0  0
  -20.9110  -29.1680   21.3390 H   0  0  0  0  0  0  0  0  0  0  0  0
  -18.1290  -27.2050   22.4470 C   0  0  0  0  0  0  0  0  0  0  0  0
  -20.6600  -27.6300   22.7650 C   0  0  0  0  0  3  0  0  0  0  0  0
  -20.8660  -26.2180   22.1700 C   0  0  0  0  0  2  0  0  0  0  0  0
  -19.8050  -25.8370   21.1340 C   0  0  0  0  0  2  0  0  0  0  0  0
  -18.4060  -25.8810   21.7560 C   0  0  0  0  0  2  0  0  0  0  0  0
  -19.1880  -28.0340   22.9070 C   0  0  0  0  0  0  0  0  0  0  0  0
  -18.8760  -29.2710   23.5110 C   0  0  0  0  0  3  0  0  0  0  0  0
  -17.5380  -29.6820   23.6620 C   0  0  0  0  0  3  0  0  0  0  0  0
  -16.4940  -28.8510   23.2200 C   0  0  0  0  0  3  0  0  0  0  0  0
  -16.7910  -27.6150   22.6180 C   0  0  0  0  0  3  0  0  0  0  0  0
  -25.6860  -32.1010   23.5590 C   0  0  0  0  0  3  0  0  0  0  0  0
  -26.2240  -31.3500   24.8390 C   0  0  1  0  0  0  0  0  0  0  0  0
  -25.1280  -31.0420   25.8870 C   0  0  0  0  0  1  0  0  0  0  0  0
  -26.8900  -30.0100   24.4480 C   0  0  0  0  0  1  0  0  0  0  0  0
  -27.3160  -32.2020   25.5250 C   0  0  0  0  0  1  0  0  0  0  0  0
  -25.3010  -33.4790   23.8910 N   0  0  0  0  0  0  0  0  0  0  0  0
  -25.6230  -34.5550   23.1590 C   0  0  0  0  0  0  0  0  0  0  0  0
  -26.3450  -34.4950   22.1610 O   0  0  0  0  0  0  0  0  0  0  0  0
  -24.6670  -33.5960   24.6670 H   0  0  0  0  0  0  0  0  0  0  0  0
  -23.8630  -36.2960   22.7120 C   0  0  0  0  0  1  0  0  0  0  0  0
  -25.0520  -35.9140   23.6080 C   0  0  0  0  0  3  0  0  0  0  0  0
  -27.0860  -36.8500   24.6170 C   0  0  0  0  0  1  0  0  0  0  0  0
  -26.0510  -37.0050   23.5970 N   0  0  0  0  0  0  0  0  0  0  0  0
  -25.6020  -37.9060   23.7360 H   0  0  0  0  0  0  0  0  0  0  0  0
  2  3  1  0
  2  4  1  0
  3 52  1  0
  3  1  1  0
  4  1  1  0
  4  6  1  0
  4  5  1  6
  7 10  1  0
  8 12  1  0
  8  7  2  0
  9 10  2  0
 10  6  1  0
 11 13  1  0
 11  9  1  0
 12 11  2  0
 14 22  1  0
 15 20  1  0
 16 17  1  0
 16 15  1  0
 18 17  1  0
 18 27  1  0
 18 19  1  0
 20 14  1  0
 20 19  1  0
 21 14  2  0
 22 12  1  0
 22 23  1  0
 24 25  2  0
 25 44  1  0
 26 25  1  0
 26 29  1  0
 27 28  1  0
 27 24  1  0
 28 26  2  0
 29 30  1  0
 30 31  2  0
 32 35  1  0
 32 31  1  0
 33 32  2  0
 34 33  1  0
 34 29  2  0
 35 36  1  0
 36 37  1  0
 37 38  2  0
 39 38  1  0
 39 43  1  0
 40 39  2  0
 41 36  2  0
 41 40  1  0
 42 41  1  0
 44 45  1  0
 45 48  1  0
 45 47  1  0
 46 44  2  0
 49 24  1  0
 49 50  1  0
 51 49  1  0
 52 53  1  0
 54 65  2  0
 55 53  1  0
 55 60  1  0
 56 64  1  0
 56 66  1  0
 57 63  1  0
 57 59  1  0
 58 64  1  0
 59 58  1  0
 60 59  2  0
 61 62  1  0
 61 55  2  0
 62 57  2  0
 63 56  1  0
 64 54  1  0
 66 68  2  0
 67 66  1  0
 69 67  1  0
 70 79  2  0
 70 75  1  0
 71 67  1  0
 71 75  1  0
 72 71  1  0
 73 74  1  0
 73 72  1  0
 74 70  1  0
 75 76  2  0
 76 77  1  0
 78 77  2  0
 79 78  1  0
 80 54  1  0
 80 85  1  0
 80 81  1  0
 81 84  1  1
 81 82  1  0
 83 81  1  0
 85 88  1  0
 86 90  1  0
 86 85  1  0
 87 86  2  0
 90 89  1  0
 92 90  1  0
 92 93  1  0
 92 91  1  0
M  ISO  4  14 100  22 100  52 101  53 101
M  END
>  <TORSDO>  (21) 
F 19

>  <SCORE>  (21) 
-11.883

>  <name>  (21) 
21

>  <ligand_id>  (21) 
21

>  <original_smiles>  (21) 
[H]c1c([H])c([H])c2c(c1[H])C([H])([H])C([H])([H])C([H])([H])C2([H])N([H])C(=O)C1([H])N(C(=O)C([H])(N([H])C(=O)C([H])(N([H])C([H])([H])[H])C([H])([H])[H])C(C([H])([H])[H])(C([H])([H])[H])C([H])([H])[H])C([H])([H])c2c([H])c(OC([H])([H])C3([H])C([H])([H])[N+]([H])(C([H])([H])c4c([H])c([H])c(N([H])C(=O)N5C([H])([H])C([H])([H])C([H])([H])C([H])(n6nc(-c7c([H])c([H])c(Oc8c([H])c([H])c(F)c([H])c8F)c([H])c7[H])c(C(=O)N([H])[H])c6N([H])[H])C5([H])[H])c(C([H])([H])[H])c4[H])C3([H])[H])c([H])c([H])c2C1([H])[H]

>  <smiles>  (21) 
[H]c1c([H])c([H])c2c(c1[H])C([H])([H])C([H])([H])C([H])([H])C2([H])N([H])C(=O)C1([H])N(C(=O)C([H])(N([H])C(=O)C([H])(N([H])C([H])([H])[H])C([H])([H])[H])C(C([H])([H])[H])(C([H])([H])[H])C([H])([H])[H])C([H])([H])c2c([H])c(OC([H])([H])C3([H])C([H])([H])[N+]([H])(C([H])([H])c4c([H])c([H])c(N([H])C(=O)N5C([H])([H])C([H])([H])C([H])([H])C([H])(n6nc(-c7c([H])c([H])c(Oc8c([H])c([H])c(F)c([H])c8F)c([H])c7[H])c(C(=O)N([H])[H])c6N([H])[H])C5([H])[H])c(C([H])([H])[H])c4[H])C3([H])[H])c([H])c([H])c2C1([H])[H]

$$$$
22:0:0
     RDKit          3D

 99109  0  0  1  0  0  0  0  0999 V2000
  -31.7260  -22.8590   19.6750 C   0  0  0  0  0  2  0  0  0  0  0  0
  -30.8720  -23.0630   22.0140 C   0  0  0  0  0  2  0  0  0  0  0  0
  -31.1440  -21.4390   19.6010 C   0  0  0  0  0  2  0  0  0  0  0  0
  -30.3130  -21.6330   21.9330 C   0  0  0  0  0  2  0  0  0  0  0  0
  -30.8890  -23.7360   20.6260 C   0  0  0  0  0  3  0  0  0  0  0  0
  -31.0360  -20.8430   20.9350 N   0  0  0  0  0  0  0  0  0  0  0  0
  -31.2050  -18.7100   22.0960 C   0  0  0  0  0  3  0  0  0  0  0  0
  -30.9530  -17.3280   22.1790 C   0  0  0  0  0  3  0  0  0  0  0  0
  -30.0060  -18.8080   19.9810 C   0  0  0  0  0  3  0  0  0  0  0  0
  -30.7490  -19.4650   20.9920 C   0  0  0  0  0  0  0  0  0  0  0  0
  -30.2410  -16.6780   21.1510 C   0  0  0  0  0  0  0  0  0  0  0  0
  -29.7410  -17.4280   20.0590 C   0  0  0  0  0  0  0  0  0  0  0  0
  -28.7930  -16.6940   18.8110 Cl  0  0  0  0  0  0  0  0  0  0  0  0
  -30.6230  -14.3830   20.4730 C   0  0  0  0  0  0  0  0  0  0  0  0
  -30.2780  -12.2930   19.2210 C   0  0  0  0  0  2  0  0  0  0  0  0
  -29.3170  -12.5660   18.0460 C   0  0  0  0  0  2  0  0  0  0  0  0
  -27.8500  -12.4290   18.4940 C   0  0  0  0  0  2  0  0  0  0  0  0
  -27.5430  -13.2200   19.7930 C   0  0  0  0  0  3  0  0  0  0  0  0
  -28.6090  -12.9230   20.8730 C   0  0  0  0  0  2  0  0  0  0  0  0
  -29.9360  -13.2250   20.3040 N   0  0  0  0  0  0  0  0  0  0  0  0
  -31.6980  -14.6260   19.9170 O   0  0  0  0  0  0  0  0  0  0  0  0
  -30.0110  -15.2890   21.2460 N   0  0  0  0  0  0  0  0  0  0  0  0
  -29.1520  -14.9940   21.6840 H   0  0  0  0  0  0  0  0  0  0  0  0
  -25.1500  -13.8360   20.5180 C   0  0  0  0  0  0  0  0  0  0  0  0
  -24.0830  -13.0650   20.8950 C   0  0  0  0  0  0  0  0  0  0  0  0
  -24.5410  -11.7120   20.8540 C   0  0  0  0  0  0  0  0  0  0  0  0
  -26.1910  -12.9530   20.2770 N   0  0  0  0  0  0  0  0  0  0  0  0
  -25.8270  -11.6700   20.5310 N   0  0  0  0  0  0  0  0  0  0  0  0
  -23.8150  -10.4510   21.0440 C   0  0  0  0  0  0  0  0  0  0  0  0
  -24.2520   -9.4810   21.9740 C   0  0  0  0  0  3  0  0  0  0  0  0
  -23.5270   -8.2830   22.1520 C   0  0  0  0  0  3  0  0  0  0  0  0
  -22.3520   -8.0460   21.4020 C   0  0  0  0  0  0  0  0  0  0  0  0
  -21.9330   -9.0050   20.4610 C   0  0  0  0  0  3  0  0  0  0  0  0
  -22.6580  -10.1950   20.2810 C   0  0  0  0  0  3  0  0  0  0  0  0
  -21.5990   -6.9000   21.4890 O   0  0  0  0  0  0  0  0  0  0  0  0
  -21.5600   -6.1510   22.6380 C   0  0  0  0  0  0  0  0  0  0  0  0
  -21.1300   -6.6950   23.8680 C   0  0  0  0  0  3  0  0  0  0  0  0
  -21.0390   -5.8730   25.0080 C   0  0  0  0  0  3  0  0  0  0  0  0
  -21.3660   -4.5070   24.9190 C   0  0  0  0  0  0  0  0  0  0  0  0
  -21.7880   -3.9620   23.6940 C   0  0  0  0  0  3  0  0  0  0  0  0
  -21.8820   -4.7810   22.5550 C   0  0  0  0  0  0  0  0  0  0  0  0
  -22.2690   -4.2460   21.3730 F   0  0  0  0  0  0  0  0  0  0  0  0
  -21.2720   -3.7130   26.0120 F   0  0  0  0  0  0  0  0  0  0  0  0
  -22.6900  -13.5430   21.1860 C   0  0  0  0  0  0  0  0  0  0  0  0
  -21.9680  -12.8370   22.0500 N   0  0  0  0  0  0  0  0  0  0  0  0
  -22.2480  -14.5760   20.6840 O   0  0  0  0  0  0  0  0  0  0  0  0
  -22.3350  -12.0010   22.4780 H   0  0  0  0  0  0  0  0  0  0  0  0
  -21.0330  -13.1390   22.2880 H   0  0  0  0  0  0  0  0  0  0  0  0
  -25.3180  -15.2060   20.3420 N   0  0  0  0  0  0  0  0  0  0  0  0
  -24.5540  -15.8650   20.4480 H   0  0  0  0  0  0  0  0  0  0  0  0
  -26.1640  -15.6350   19.9850 H   0  0  0  0  0  0  0  0  0  0  0  0
  -31.3760  -25.2010   20.7240 C   0  0  0  0  0  2  0  0  0  0  0  0
  -30.4400  -28.1100   19.8760 C   0  0  0  0  0  2  0  0  0  0  0  0
  -31.7650  -27.3740   19.6380 C   0  0  0  0  0  2  0  0  0  0  0  0
  -30.1290  -26.0110   18.6840 C   0  0  0  0  0  2  0  0  0  0  0  0
  -29.3690  -27.2400   19.1970 C   0  0  0  0  0  3  0  0  0  0  0  0
  -31.4040  -25.9560   19.4380 N   0  0  2  0  0  4  0  0  0  0  0  0
  -32.1130  -25.5280   18.8590 H   0  0  0  0  0  0  0  0  0  0  0  0
  -28.3970  -26.7750   20.1300 O   0  0  0  0  0  0  0  0  0  0  0  0
  -24.5630  -31.9030   23.2450 C   0  0  0  0  0  0  0  0  0  0  0  0
  -27.2350  -27.5030   20.1660 C   0  0  0  0  0  0  0  0  0  0  0  0
  -23.3580  -30.4870   21.6090 C   0  0  0  0  0  3  0  0  0  0  0  0
  -24.8190  -28.9500   20.1920 C   0  0  0  0  0  0  0  0  0  0  0  0
  -25.8750  -30.8720   21.3990 C   0  0  0  0  0  2  0  0  0  0  0  0
  -25.9700  -29.4990   20.7690 C   0  0  0  0  0  0  0  0  0  0  0  0
  -27.1820  -28.7800   20.7610 C   0  0  0  0  0  3  0  0  0  0  0  0
  -26.0670  -26.9470   19.6070 C   0  0  0  0  0  3  0  0  0  0  0  0
  -24.8590  -27.6690   19.6120 C   0  0  0  0  0  3  0  0  0  0  0  0
  -23.5670  -29.7970   20.2340 C   0  0  0  0  0  2  0  0  0  0  0  0
  -24.6170  -31.1010   22.1440 N   0  0  0  0  0  0  0  0  0  0  0  0
  -23.4830  -32.1720   23.7870 O   0  0  0  0  0  0  0  0  0  0  0  0
  -22.7150  -29.4690   22.5780 C   0  0  0  0  0  0  0  0  0  0  0  0
  -21.3920  -29.2770   22.4500 N   0  0  0  0  0  0  0  0  0  0  0  0
  -23.4030  -28.8530   23.3970 O   0  0  0  0  0  0  0  0  0  0  0  0
  -20.9000  -29.8270   21.7600 H   0  0  0  0  0  0  0  0  0  0  0  0
  -18.0230  -28.0790   22.9570 C   0  0  0  0  0  0  0  0  0  0  0  0
  -20.5790  -28.3400   23.2240 C   0  0  0  0  0  3  0  0  0  0  0  0
  -20.6840  -26.9080   22.6510 C   0  0  0  0  0  2  0  0  0  0  0  0
  -19.5810  -26.5820   21.6390 C   0  0  0  0  0  2  0  0  0  0  0  0
  -18.2000  -26.7270   22.2860 C   0  0  0  0  0  2  0  0  0  0  0  0
  -19.1400  -28.8430   23.3830 C   0  0  0  0  0  0  0  0  0  0  0  0
  -18.9220  -30.1080   23.9700 C   0  0  0  0  0  3  0  0  0  0  0  0
  -17.6180  -30.6100   24.1350 C   0  0  0  0  0  3  0  0  0  0  0  0
  -16.5130  -29.8430   23.7250 C   0  0  0  0  0  3  0  0  0  0  0  0
  -16.7170  -28.5790   23.1430 C   0  0  0  0  0  3  0  0  0  0  0  0
  -25.8490  -32.5400   23.8570 C   0  0  0  0  0  3  0  0  0  0  0  0
  -26.3750  -31.7760   25.1340 C   0  0  1  0  0  0  0  0  0  0  0  0
  -25.2890  -31.5380   26.2080 C   0  0  0  0  0  1  0  0  0  0  0  0
  -26.9620  -30.4010   24.7420 C   0  0  0  0  0  1  0  0  0  0  0  0
  -27.5260  -32.5780   25.7880 C   0  0  0  0  0  1  0  0  0  0  0  0
  -25.5400  -33.9400   24.1770 N   0  0  0  0  0  0  0  0  0  0  0  0
  -25.8860  -34.9870   23.4170 C   0  0  0  0  0  0  0  0  0  0  0  0
  -26.5710  -34.8780   22.3960 O   0  0  0  0  0  0  0  0  0  0  0  0
  -24.9340  -34.1000   24.9690 H   0  0  0  0  0  0  0  0  0  0  0  0
  -24.1790  -36.7880   23.0130 C   0  0  0  0  0  1  0  0  0  0  0  0
  -25.3950  -36.3770   23.8600 C   0  0  0  0  0  3  0  0  0  0  0  0
  -27.5120  -37.2470   24.7490 C   0  0  0  0  0  1  0  0  0  0  0  0
  -26.4350  -37.4250   23.7780 N   0  0  0  0  0  0  0  0  0  0  0  0
  -26.0290  -38.3460   23.9210 H   0  0  0  0  0  0  0  0  0  0  0  0
  1  5  1  0
  3  1  1  0
  3  6  1  0
  4  2  1  0
  5 52  1  0
  5  2  1  0
  6 10  1  0
  6  4  1  0
  7  8  1  0
  9 12  2  0
  9 10  1  0
 10  7  2  0
 11 22  1  0
 11  8  2  0
 12 11  1  0
 13 12  1  0
 14 22  1  0
 15 20  1  0
 16 17  1  0
 16 15  1  0
 18 17  1  0
 18 27  1  0
 18 19  1  0
 20 14  1  0
 20 19  1  0
 21 14  2  0
 22 23  1  0
 24 25  2  0
 25 44  1  0
 26 25  1  0
 26 29  1  0
 27 24  1  0
 27 28  1  0
 28 26  2  0
 29 30  1  0
 30 31  2  0
 32 35  1  0
 32 31  1  0
 33 32  2  0
 34 33  1  0
 34 29  2  0
 35 36  1  0
 36 37  1  0
 37 38  2  0
 39 38  1  0
 39 43  1  0
 40 39  2  0
 41 36  2  0
 41 40  1  0
 42 41  1  0
 44 45  1  0
 45 48  1  0
 45 47  1  0
 46 44  2  0
 49 50  1  0
 49 24  1  0
 51 49  1  0
 54 53  1  0
 55 56  1  0
 55 57  1  0
 56 53  1  0
 56 59  1  0
 57 54  1  0
 57 52  1  0
 57 58  1  6
 59 61  1  0
 60 71  2  0
 61 66  1  0
 62 70  1  0
 62 72  1  0
 63 69  1  0
 63 65  1  0
 64 70  1  0
 65 64  1  0
 66 65  2  0
 67 68  1  0
 67 61  2  0
 68 63  2  0
 69 62  1  0
 70 60  1  0
 72 74  2  0
 73 72  1  0
 75 73  1  0
 76 85  2  0
 76 81  1  0
 77 73  1  0
 77 81  1  0
 78 77  1  0
 79 80  1  0
 79 78  1  0
 80 76  1  0
 81 82  2  0
 82 83  1  0
 84 83  2  0
 85 84  1  0
 86 60  1  0
 86 91  1  0
 86 87  1  0
 87 90  1  1
 87 88  1  0
 89 87  1  0
 91 94  1  0
 92 96  1  0
 92 91  1  0
 93 92  2  0
 96 95  1  0
 98 96  1  0
 98 99  1  0
 98 97  1  0
M  ISO  4  14 100  22 100  56 101  59 101
M  END
>  <TORSDO>  (22) 
F 19

>  <SCORE>  (22) 
-14.563

>  <name>  (22) 
22

>  <ligand_id>  (22) 
22

>  <original_smiles>  (22) 
[H]c1c([H])c([H])c2c(c1[H])C([H])([H])C([H])([H])C([H])([H])C2([H])N([H])C(=O)C1([H])N(C(=O)C([H])(N([H])C(=O)C([H])(N([H])C([H])([H])[H])C([H])([H])[H])C(C([H])([H])[H])(C([H])([H])[H])C([H])([H])[H])C([H])([H])c2c([H])c(OC3([H])C([H])([H])C([H])([H])[N+]([H])(C([H])([H])C4([H])C([H])([H])C([H])([H])N(c5c([H])c([H])c(N([H])C(=O)N6C([H])([H])C([H])([H])C([H])([H])C([H])(n7nc(-c8c([H])c([H])c(Oc9c([H])c([H])c(F)c([H])c9F)c([H])c8[H])c(C(=O)N([H])[H])c7N([H])[H])C6([H])[H])c(Cl)c5[H])C([H])([H])C4([H])[H])C3([H])[H])c([H])c([H])c2C1([H])[H]

>  <smiles>  (22) 
[H]c1c([H])c([H])c2c(c1[H])C([H])([H])C([H])([H])C([H])([H])C2([H])N([H])C(=O)C1([H])N(C(=O)C([H])(N([H])C(=O)C([H])(N([H])C([H])([H])[H])C([H])([H])[H])C(C([H])([H])[H])(C([H])([H])[H])C([H])([H])[H])C([H])([H])c2c([H])c(OC3([H])C([H])([H])C([H])([H])[N+]([H])(C([H])([H])C4([H])C([H])([H])C([H])([H])N(c5c([H])c([H])c(N([H])C(=O)N6C([H])([H])C([H])([H])C([H])([H])C([H])(n7nc(-c8c([H])c([H])c(Oc9c([H])c([H])c(F)c([H])c9F)c([H])c8[H])c(C(=O)N([H])[H])c7N([H])[H])C6([H])[H])c(Cl)c5[H])C([H])([H])C4([H])[H])C3([H])[H])c([H])c([H])c2C1([H])[H]

$$$$
23:0:0
     RDKit          3D

 95104  0  0  1  0  0  0  0  0999 V2000
  -29.5070  -23.8420   22.6550 C   0  0  0  0  0  2  0  0  0  0  0  0
  -30.3560  -24.7680   21.7720 C   0  0  0  0  0  2  0  0  0  0  0  0
  -29.3450  -22.5450   21.8460 C   0  0  0  0  0  2  0  0  0  0  0  0
  -30.0700  -24.3030   20.3290 C   0  0  1  0  0  0  0  0  0  0  0  0
  -31.2380  -24.6850   19.3970 C   0  0  0  0  0  1  0  0  0  0  0  0
  -30.0410  -22.7830   20.5650 N   0  0  2  0  0  4  0  0  0  0  0  0
  -31.0010  -22.6030   20.8170 H   0  0  0  0  0  0  0  0  0  0  0  0
  -29.8440  -21.7270   19.4940 C   0  0  0  0  0  2  0  0  0  0  0  0
  -31.2150  -19.4620   19.3420 C   0  0  0  0  0  3  0  0  0  0  0  0
  -31.3590  -18.0470   19.5300 C   0  0  0  0  0  3  0  0  0  0  0  0
  -29.1910  -19.4410   20.6240 C   0  0  0  0  0  3  0  0  0  0  0  0
  -30.1120  -20.2030   19.8610 C   0  0  0  0  0  0  0  0  0  0  0  0
  -29.3310  -18.0310   20.8250 C   0  0  0  0  0  0  0  0  0  0  0  0
  -30.4050  -17.2820   20.2570 C   0  0  0  0  0  0  0  0  0  0  0  0
  -28.2840  -17.3190   21.6660 C   0  0  0  0  0  1  0  0  0  0  0  0
  -31.1100  -14.7810   19.8480 C   0  0  0  0  0  0  0  0  0  0  0  0
  -30.7610  -12.5790   18.7340 C   0  0  0  0  0  2  0  0  0  0  0  0
  -29.7560  -12.7820   17.5770 C   0  0  0  0  0  2  0  0  0  0  0  0
  -28.3040  -12.6700   18.0800 C   0  0  0  0  0  2  0  0  0  0  0  0
  -28.0530  -13.5080   19.3630 C   0  0  0  0  0  3  0  0  0  0  0  0
  -29.1620  -13.2620   20.4130 C   0  0  0  0  0  2  0  0  0  0  0  0
  -30.4540  -13.5750   19.7800 N   0  0  0  0  0  0  0  0  0  0  0  0
  -32.2320  -14.9250   19.3530 O   0  0  0  0  0  0  0  0  0  0  0  0
  -30.3980  -15.8170   20.4010 N   0  0  0  0  0  0  0  0  0  0  0  0
  -29.5930  -15.4730   20.9010 H   0  0  0  0  0  0  0  0  0  0  0  0
  -25.7240  -14.1920   20.2050 C   0  0  0  0  0  0  0  0  0  0  0  0
  -24.6470  -13.4580   20.6230 C   0  0  0  0  0  0  0  0  0  0  0  0
  -25.0520  -12.0900   20.5560 C   0  0  0  0  0  0  0  0  0  0  0  0
  -26.7200  -13.2740   19.9110 N   0  0  0  0  0  0  0  0  0  0  0  0
  -26.3220  -12.0030   20.1800 N   0  0  0  0  0  0  0  0  0  0  0  0
  -24.2850  -10.8560   20.7690 C   0  0  0  0  0  0  0  0  0  0  0  0
  -24.6920   -9.8890   21.7140 C   0  0  0  0  0  3  0  0  0  0  0  0
  -23.9280   -8.7180   21.9140 C   0  0  0  0  0  3  0  0  0  0  0  0
  -22.7420   -8.5080   21.1700 C   0  0  0  0  0  0  0  0  0  0  0  0
  -22.3550   -9.4640   20.2150 C   0  0  0  0  0  3  0  0  0  0  0  0
  -23.1190  -10.6250   20.0120 C   0  0  0  0  0  3  0  0  0  0  0  0
  -21.9520   -7.3900   21.2800 O   0  0  0  0  0  0  0  0  0  0  0  0
  -21.8310   -6.7070   22.4630 C   0  0  0  0  0  0  0  0  0  0  0  0
  -21.4090   -7.3420   23.6510 C   0  0  0  0  0  3  0  0  0  0  0  0
  -21.2320   -6.5890   24.8290 C   0  0  0  0  0  3  0  0  0  0  0  0
  -21.4670   -5.2010   24.8180 C   0  0  0  0  0  0  0  0  0  0  0  0
  -21.8830   -4.5650   23.6360 C   0  0  0  0  0  3  0  0  0  0  0  0
  -22.0610   -5.3170   22.4610 C   0  0  0  0  0  0  0  0  0  0  0  0
  -22.4410   -4.6960   21.3180 F   0  0  0  0  0  0  0  0  0  0  0  0
  -21.2890   -4.4750   25.9470 F   0  0  0  0  0  0  0  0  0  0  0  0
  -23.2860  -13.9890   20.9710 C   0  0  0  0  0  0  0  0  0  0  0  0
  -22.5910  -13.3310   21.8930 N   0  0  0  0  0  0  0  0  0  0  0  0
  -22.8520  -15.0200   20.4620 O   0  0  0  0  0  0  0  0  0  0  0  0
  -22.9550  -12.4960   22.3270 H   0  0  0  0  0  0  0  0  0  0  0  0
  -21.6800  -13.6700   22.1700 H   0  0  0  0  0  0  0  0  0  0  0  0
  -25.9330  -15.5570   20.0280 N   0  0  0  0  0  0  0  0  0  0  0  0
  -25.1970  -16.2370   20.1830 H   0  0  0  0  0  0  0  0  0  0  0  0
  -26.7710  -15.9640   19.6350 H   0  0  0  0  0  0  0  0  0  0  0  0
  -28.7480  -25.0800   19.8490 C   0  0  0  0  0  2  0  0  0  0  0  0
  -28.7930  -26.5660   19.9670 O   0  0  0  0  0  0  0  0  0  0  0  0
  -24.6130  -31.5960   23.0410 C   0  0  0  0  0  0  0  0  0  0  0  0
  -27.6020  -27.3100   19.9310 C   0  0  0  0  0  0  0  0  0  0  0  0
  -23.5420  -30.1570   21.3430 C   0  0  0  0  0  3  0  0  0  0  0  0
  -25.1260  -28.7460   19.9140 C   0  0  0  0  0  0  0  0  0  0  0  0
  -26.0550  -30.6590   21.2190 C   0  0  0  0  0  2  0  0  0  0  0  0
  -26.2450  -29.3060   20.5410 C   0  0  0  0  0  0  0  0  0  0  0  0
  -27.4860  -28.6010   20.5370 C   0  0  0  0  0  3  0  0  0  0  0  0
  -26.4540  -26.7980   19.2870 C   0  0  0  0  0  3  0  0  0  0  0  0
  -25.2310  -27.4980   19.2780 C   0  0  0  0  0  3  0  0  0  0  0  0
  -23.8300  -29.5300   19.9530 C   0  0  0  0  0  2  0  0  0  0  0  0
  -24.7530  -30.8210   21.9250 N   0  0  0  0  0  0  0  0  0  0  0  0
  -23.5030  -31.7830   23.5590 O   0  0  0  0  0  0  0  0  0  0  0  0
  -22.9350  -29.0740   22.2660 C   0  0  0  0  0  0  0  0  0  0  0  0
  -21.6250  -28.8160   22.1150 N   0  0  0  0  0  0  0  0  0  0  0  0
  -23.6420  -28.4700   23.0770 O   0  0  0  0  0  0  0  0  0  0  0  0
  -21.1110  -29.3600   21.4360 H   0  0  0  0  0  0  0  0  0  0  0  0
  -18.3230  -27.4000   22.5380 C   0  0  0  0  0  0  0  0  0  0  0  0
  -20.8580  -27.8070   22.8460 C   0  0  0  0  0  3  0  0  0  0  0  0
  -21.0520  -26.4030   22.2290 C   0  0  0  0  0  2  0  0  0  0  0  0
  -19.9830  -26.0450   21.1920 C   0  0  0  0  0  2  0  0  0  0  0  0
  -18.5880  -26.0860   21.8240 C   0  0  0  0  0  2  0  0  0  0  0  0
  -19.3880  -28.2160   23.0040 C   0  0  0  0  0  0  0  0  0  0  0  0
  -19.0860  -29.4440   23.6310 C   0  0  0  0  0  3  0  0  0  0  0  0
  -17.7510  -29.8600   23.7960 C   0  0  0  0  0  3  0  0  0  0  0  0
  -16.7000  -29.0410   23.3470 C   0  0  0  0  0  3  0  0  0  0  0  0
  -16.9870  -27.8140   22.7230 C   0  0  0  0  0  3  0  0  0  0  0  0
  -25.8360  -32.3010   23.7040 C   0  0  0  0  0  3  0  0  0  0  0  0
  -26.3640  -31.5500   24.9890 C   0  0  1  0  0  0  0  0  0  0  0  0
  -25.2600  -31.2310   26.0230 C   0  0  0  0  0  1  0  0  0  0  0  0
  -27.0440  -30.2160   24.6010 C   0  0  0  0  0  1  0  0  0  0  0  0
  -27.4420  -32.4080   25.6910 C   0  0  0  0  0  1  0  0  0  0  0  0
  -25.4300  -33.6730   24.0400 N   0  0  0  0  0  0  0  0  0  0  0  0
  -25.7200  -34.7540   23.3040 C   0  0  0  0  0  0  0  0  0  0  0  0
  -26.4270  -34.7050   22.2940 O   0  0  0  0  0  0  0  0  0  0  0  0
  -24.8020  -33.7800   24.8230 H   0  0  0  0  0  0  0  0  0  0  0  0
  -23.8970  -36.4430   22.9160 C   0  0  0  0  0  1  0  0  0  0  0  0
  -25.1340  -36.1050   23.7620 C   0  0  0  0  0  3  0  0  0  0  0  0
  -27.1860  -37.1060   24.6680 C   0  0  0  0  0  1  0  0  0  0  0  0
  -26.1040  -37.2200   23.6940 N   0  0  0  0  0  0  0  0  0  0  0  0
  -25.6380  -38.1120   23.8390 H   0  0  0  0  0  0  0  0  0  0  0  0
  2  1  1  0
  3  1  1  0
  4  5  1  6
  4  6  1  0
  4  2  1  0
  6  7  1  1
  6  3  1  0
  8 12  1  0
  8  6  1  0
  9 10  2  0
  9 12  1  0
 10 14  1  0
 11 13  1  0
 12 11  2  0
 13 15  1  0
 14 24  1  0
 14 13  2  0
 16 24  1  0
 17 22  1  0
 18 19  1  0
 18 17  1  0
 20 19  1  0
 20 29  1  0
 20 21  1  0
 22 16  1  0
 22 21  1  0
 23 16  2  0
 24 25  1  0
 26 27  2  0
 27 46  1  0
 28 27  1  0
 28 31  1  0
 29 30  1  0
 29 26  1  0
 30 28  2  0
 31 32  1  0
 32 33  2  0
 34 37  1  0
 34 33  1  0
 35 34  2  0
 36 35  1  0
 36 31  2  0
 37 38  1  0
 38 39  1  0
 39 40  2  0
 41 40  1  0
 41 45  1  0
 42 41  2  0
 43 38  2  0
 43 42  1  0
 44 43  1  0
 46 47  1  0
 47 50  1  0
 47 49  1  0
 48 46  2  0
 51 52  1  0
 51 26  1  0
 53 51  1  0
 54 55  1  0
 54  4  1  0
 56 67  2  0
 57 55  1  0
 57 62  1  0
 58 66  1  0
 58 68  1  0
 59 65  1  0
 59 61  1  0
 60 66  1  0
 61 60  1  0
 62 61  2  0
 63 57  2  0
 64 63  1  0
 64 59  2  0
 65 58  1  0
 66 56  1  0
 68 70  2  0
 69 68  1  0
 71 69  1  0
 72 81  2  0
 72 77  1  0
 73 69  1  0
 73 77  1  0
 74 73  1  0
 75 76  1  0
 75 74  1  0
 76 72  1  0
 77 78  2  0
 78 79  1  0
 80 79  2  0
 81 80  1  0
 82 56  1  0
 82 87  1  0
 82 83  1  0
 83 86  1  1
 83 84  1  0
 85 83  1  0
 87 90  1  0
 88 92  1  0
 88 87  1  0
 89 88  2  0
 92 91  1  0
 94 92  1  0
 94 95  1  0
 94 93  1  0
M  ISO  4  16 100  24 100  54 101  55 101
M  END
>  <TORSDO>  (23) 
F 19

>  <SCORE>  (23) 
-11.294

>  <name>  (23) 
23

>  <ligand_id>  (23) 
23

>  <original_smiles>  (23) 
[H]c1c([H])c([H])c2c(c1[H])C([H])([H])C([H])([H])C([H])([H])C2([H])N([H])C(=O)C1([H])N(C(=O)C([H])(N([H])C(=O)C([H])(N([H])C([H])([H])[H])C([H])([H])[H])C(C([H])([H])[H])(C([H])([H])[H])C([H])([H])[H])C([H])([H])c2c([H])c(OC([H])([H])C3(C([H])([H])[H])C([H])([H])C([H])([H])C([H])([H])[N+]3([H])C([H])([H])c3c([H])c([H])c(N([H])C(=O)N4C([H])([H])C([H])([H])C([H])([H])C([H])(n5nc(-c6c([H])c([H])c(Oc7c([H])c([H])c(F)c([H])c7F)c([H])c6[H])c(C(=O)N([H])[H])c5N([H])[H])C4([H])[H])c(C([H])([H])[H])c3[H])c([H])c([H])c2C1([H])[H]

>  <smiles>  (23) 
[H]c1c([H])c([H])c2c(c1[H])C([H])([H])C([H])([H])C([H])([H])C2([H])N([H])C(=O)C1([H])N(C(=O)C([H])(N([H])C(=O)C([H])(N([H])C([H])([H])[H])C([H])([H])[H])C(C([H])([H])[H])(C([H])([H])[H])C([H])([H])[H])C([H])([H])c2c([H])c(OC([H])([H])C3(C([H])([H])[H])C([H])([H])C([H])([H])C([H])([H])[N+]3([H])C([H])([H])c3c([H])c([H])c(N([H])C(=O)N4C([H])([H])C([H])([H])C([H])([H])C([H])(n5nc(-c6c([H])c([H])c(Oc7c([H])c([H])c(F)c([H])c7F)c([H])c6[H])c(C(=O)N([H])[H])c5N([H])[H])C4([H])[H])c(C([H])([H])[H])c3[H])c([H])c([H])c2C1([H])[H]

$$$$
24:0:0
     RDKit          3D

 90 99  0  0  1  0  0  0  0  0999 V2000
  -28.1170  -19.9060   19.9110 C   0  0  0  0  0  3  0  0  0  0  0  0
  -28.3320  -18.4610   19.9040 C   0  0  0  0  0  3  0  0  0  0  0  0
  -30.4390  -18.7660   20.8250 C   0  0  0  0  0  3  0  0  0  0  0  0
  -30.1990  -20.2250   20.8520 C   0  0  0  0  0  0  0  0  0  0  0  0
  -29.0000  -20.9330   20.4080 C   0  0  0  0  0  0  0  0  0  0  0  0
  -29.5060  -17.7660   20.3640 C   0  0  0  0  0  0  0  0  0  0  0  0
  -31.3160  -21.0770   21.4270 C   0  0  0  0  0  1  0  0  0  0  0  0
  -30.4330  -15.0820   20.3030 C   0  0  0  0  0  0  0  0  0  0  0  0
  -30.3770  -12.7140   19.3500 C   0  0  0  0  0  2  0  0  0  0  0  0
  -29.4230  -12.6460   18.1330 C   0  0  0  0  0  2  0  0  0  0  0  0
  -27.9670  -12.4140   18.5830 C   0  0  0  0  0  2  0  0  0  0  0  0
  -27.5650  -13.3290   19.7680 C   0  0  0  0  0  3  0  0  0  0  0  0
  -28.6350  -13.3420   20.8790 C   0  0  0  0  0  2  0  0  0  0  0  0
  -29.8890  -13.7940   20.2580 N   0  0  0  0  0  0  0  0  0  0  0  0
  -31.6360  -15.1870   20.0330 O   0  0  0  0  0  0  0  0  0  0  0  0
  -29.5500  -16.2070   20.4320 N   0  0  0  0  0  0  0  0  0  0  0  0
  -28.6180  -15.8340   20.5250 H   0  0  0  0  0  0  0  0  0  0  0  0
  -25.1940  -13.8970   20.5460 C   0  0  0  0  0  0  0  0  0  0  0  0
  -24.1360  -13.1170   20.9220 C   0  0  0  0  0  0  0  0  0  0  0  0
  -24.6010  -11.7670   20.8690 C   0  0  0  0  0  0  0  0  0  0  0  0
  -26.2340  -13.0230   20.2820 N   0  0  0  0  0  0  0  0  0  0  0  0
  -25.8890  -11.7350   20.5420 N   0  0  0  0  0  0  0  0  0  0  0  0
  -23.8770  -10.5030   21.0510 C   0  0  0  0  0  0  0  0  0  0  0  0
  -24.3080   -9.5310   21.9820 C   0  0  0  0  0  3  0  0  0  0  0  0
  -23.5830   -8.3330   22.1530 C   0  0  0  0  0  3  0  0  0  0  0  0
  -22.4120   -8.0970   21.3940 C   0  0  0  0  0  0  0  0  0  0  0  0
  -22.0000   -9.0560   20.4530 C   0  0  0  0  0  3  0  0  0  0  0  0
  -22.7260  -10.2460   20.2790 C   0  0  0  0  0  3  0  0  0  0  0  0
  -21.6580   -6.9510   21.4750 O   0  0  0  0  0  0  0  0  0  0  0  0
  -21.5890   -6.2150   22.6300 C   0  0  0  0  0  0  0  0  0  0  0  0
  -21.1080   -6.7660   23.8380 C   0  0  0  0  0  3  0  0  0  0  0  0
  -20.9900   -5.9540   24.9850 C   0  0  0  0  0  3  0  0  0  0  0  0
  -21.3430   -4.5930   24.9240 C   0  0  0  0  0  0  0  0  0  0  0  0
  -21.8170   -4.0410   23.7210 C   0  0  0  0  0  3  0  0  0  0  0  0
  -21.9370   -4.8490   22.5760 C   0  0  0  0  0  0  0  0  0  0  0  0
  -22.3750   -4.3080   21.4140 F   0  0  0  0  0  0  0  0  0  0  0  0
  -21.2220   -3.8110   26.0220 F   0  0  0  0  0  0  0  0  0  0  0  0
  -22.7410  -13.5900   21.2120 C   0  0  0  0  0  0  0  0  0  0  0  0
  -22.0220  -12.8830   22.0760 N   0  0  0  0  0  0  0  0  0  0  0  0
  -22.3000  -14.6230   20.7090 O   0  0  0  0  0  0  0  0  0  0  0  0
  -22.3920  -12.0490   22.5040 H   0  0  0  0  0  0  0  0  0  0  0  0
  -21.0860  -13.1820   22.3140 H   0  0  0  0  0  0  0  0  0  0  0  0
  -25.3500  -15.2700   20.3790 N   0  0  0  0  0  0  0  0  0  0  0  0
  -24.5720  -15.9110   20.4970 H   0  0  0  0  0  0  0  0  0  0  0  0
  -26.1650  -15.7110   19.9760 H   0  0  0  0  0  0  0  0  0  0  0  0
  -27.9160  -23.3910   19.5650 C   0  0  0  0  0  2  0  0  0  0  0  0
  -29.2820  -23.6500   21.0970 C   0  0  0  0  0  2  0  0  0  0  0  0
  -28.0950  -24.6240   20.5960 C   0  0  0  0  0  3  0  0  0  0  0  0
  -28.6100  -22.4470   20.5100 N   0  0  0  0  0  0  0  0  0  0  0  0
  -28.2860  -26.1730   20.3270 O   0  0  0  0  0  0  0  0  0  0  0  0
  -24.6120  -31.9380   23.2160 C   0  0  0  0  0  0  0  0  0  0  0  0
  -27.2160  -27.1520   20.2840 C   0  0  0  0  0  0  0  0  0  0  0  0
  -23.4280  -30.5220   21.5820 C   0  0  0  0  0  3  0  0  0  0  0  0
  -24.8890  -28.9150   20.1980 C   0  0  0  0  0  0  0  0  0  0  0  0
  -25.9850  -30.7750   21.4400 C   0  0  0  0  0  2  0  0  0  0  0  0
  -26.0650  -29.3690   20.8090 C   0  0  0  0  0  0  0  0  0  0  0  0
  -27.2300  -28.5070   20.8260 C   0  0  0  0  0  3  0  0  0  0  0  0
  -26.0110  -26.7980   19.6440 C   0  0  0  0  0  3  0  0  0  0  0  0
  -24.8770  -27.6440   19.5990 C   0  0  0  0  0  3  0  0  0  0  0  0
  -23.6640  -29.8200   20.2170 C   0  0  0  0  0  2  0  0  0  0  0  0
  -24.6950  -31.1030   22.1340 N   0  0  0  0  0  0  0  0  0  0  0  0
  -23.5200  -32.2320   23.7270 O   0  0  0  0  0  0  0  0  0  0  0  0
  -22.7340  -29.5330   22.5520 C   0  0  0  0  0  0  0  0  0  0  0  0
  -21.4050  -29.3710   22.4210 N   0  0  0  0  0  0  0  0  0  0  0  0
  -23.3960  -28.9110   23.3880 O   0  0  0  0  0  0  0  0  0  0  0  0
  -20.9280  -29.9230   21.7210 H   0  0  0  0  0  0  0  0  0  0  0  0
  -18.0090  -28.2210   22.9410 C   0  0  0  0  0  0  0  0  0  0  0  0
  -20.5720  -28.4480   23.1960 C   0  0  0  0  0  3  0  0  0  0  0  0
  -20.6500  -27.0140   22.6220 C   0  0  0  0  0  2  0  0  0  0  0  0
  -19.5390  -26.7060   21.6120 C   0  0  0  0  0  2  0  0  0  0  0  0
  -18.1630  -26.8700   22.2620 C   0  0  0  0  0  2  0  0  0  0  0  0
  -19.1400  -28.9680   23.3640 C   0  0  0  0  0  0  0  0  0  0  0  0
  -18.9390  -30.2330   23.9600 C   0  0  0  0  0  3  0  0  0  0  0  0
  -17.6420  -30.7490   24.1350 C   0  0  0  0  0  3  0  0  0  0  0  0
  -16.5260  -30.0000   23.7260 C   0  0  0  0  0  3  0  0  0  0  0  0
  -16.7100  -28.7360   23.1350 C   0  0  0  0  0  3  0  0  0  0  0  0
  -25.8830  -32.5820   23.8490 C   0  0  0  0  0  3  0  0  0  0  0  0
  -26.3810  -31.8240   25.1430 C   0  0  1  0  0  0  0  0  0  0  0  0
  -25.2730  -31.5950   26.1960 C   0  0  0  0  0  1  0  0  0  0  0  0
  -26.9740  -30.4450   24.7770 C   0  0  0  0  0  1  0  0  0  0  0  0
  -27.5200  -32.6290   25.8130 C   0  0  0  0  0  1  0  0  0  0  0  0
  -25.5640  -33.9830   24.1700 N   0  0  0  0  0  0  0  0  0  0  0  0
  -25.8960  -35.0360   23.4120 C   0  0  0  0  0  0  0  0  0  0  0  0
  -26.5680  -34.9300   22.3820 O   0  0  0  0  0  0  0  0  0  0  0  0
  -24.9670  -34.1380   24.9690 H   0  0  0  0  0  0  0  0  0  0  0  0
  -24.1690  -36.8320   23.0530 C   0  0  0  0  0  1  0  0  0  0  0  0
  -25.4090  -36.4270   23.8660 C   0  0  0  0  0  3  0  0  0  0  0  0
  -27.5360  -37.3220   24.7060 C   0  0  0  0  0  1  0  0  0  0  0  0
  -26.4410  -37.4800   23.7530 N   0  0  0  0  0  0  0  0  0  0  0  0
  -26.0340  -38.4010   23.8890 H   0  0  0  0  0  0  0  0  0  0  0  0
  1  5  1  0
  2  1  2  0
  2  6  1  0
  3  4  1  0
  4  7  1  0
  5 49  1  0
  5  4  2  0
  6 16  1  0
  6  3  2  0
  8 16  1  0
  9 14  1  0
 10 11  1  0
 10  9  1  0
 12 11  1  0
 12 21  1  0
 12 13  1  0
 14  8  1  0
 14 13  1  0
 15  8  2  0
 16 17  1  0
 18 19  2  0
 19 38  1  0
 20 19  1  0
 20 23  1  0
 21 22  1  0
 21 18  1  0
 22 20  2  0
 23 24  1  0
 24 25  2  0
 26 29  1  0
 26 25  1  0
 27 26  2  0
 28 27  1  0
 28 23  2  0
 29 30  1  0
 30 31  1  0
 31 32  2  0
 33 32  1  0
 33 37  1  0
 34 33  2  0
 35 30  2  0
 35 34  1  0
 36 35  1  0
 38 39  1  0
 39 42  1  0
 39 41  1  0
 40 38  2  0
 43 44  1  0
 43 18  1  0
 45 43  1  0
 46 49  1  0
 46 48  1  0
 48 50  1  0
 48 47  1  0
 49 47  1  0
 51 62  2  0
 52 50  1  0
 52 57  1  0
 53 61  1  0
 53 63  1  0
 54 60  1  0
 54 56  1  0
 55 61  1  0
 56 57  2  0
 56 55  1  0
 58 52  2  0
 59 58  1  0
 59 54  2  0
 60 53  1  0
 61 51  1  0
 63 65  2  0
 64 63  1  0
 66 64  1  0
 67 76  2  0
 67 72  1  0
 68 64  1  0
 68 72  1  0
 69 68  1  0
 70 71  1  0
 70 69  1  0
 71 67  1  0
 72 73  2  0
 73 74  1  0
 75 74  2  0
 76 75  1  0
 77 51  1  0
 77 82  1  0
 77 78  1  0
 78 81  1  1
 78 79  1  0
 80 78  1  0
 82 85  1  0
 83 87  1  0
 83 82  1  0
 84 83  2  0
 87 86  1  0
 89 87  1  0
 89 90  1  0
 89 88  1  0
M  ISO  4   8 100  16 100  48 101  50 101
M  END
>  <TORSDO>  (24) 
F 17

>  <SCORE>  (24) 
-15.315

>  <name>  (24) 
24

>  <ligand_id>  (24) 
24

>  <original_smiles>  (24) 
[H]c1c([H])c([H])c2c(c1[H])C([H])([H])C([H])([H])C([H])([H])C2([H])N([H])C(=O)C1([H])N(C(=O)C([H])(N([H])C(=O)C([H])(N([H])C([H])([H])[H])C([H])([H])[H])C(C([H])([H])[H])(C([H])([H])[H])C([H])([H])[H])C([H])([H])c2c([H])c(OC3([H])C([H])([H])N(c4c([H])c([H])c(N([H])C(=O)N5C([H])([H])C([H])([H])C([H])([H])C([H])(n6nc(-c7c([H])c([H])c(Oc8c([H])c([H])c(F)c([H])c8F)c([H])c7[H])c(C(=O)N([H])[H])c6N([H])[H])C5([H])[H])c([H])c4C([H])([H])[H])C3([H])[H])c([H])c([H])c2C1([H])[H]

>  <smiles>  (24) 
[H]c1c([H])c([H])c2c(c1[H])C([H])([H])C([H])([H])C([H])([H])C2([H])N([H])C(=O)C1([H])N(C(=O)C([H])(N([H])C(=O)C([H])(N([H])C([H])([H])[H])C([H])([H])[H])C(C([H])([H])[H])(C([H])([H])[H])C([H])([H])[H])C([H])([H])c2c([H])c(OC3([H])C([H])([H])N(c4c([H])c([H])c(N([H])C(=O)N5C([H])([H])C([H])([H])C([H])([H])C([H])(n6nc(-c7c([H])c([H])c(Oc8c([H])c([H])c(F)c([H])c8F)c([H])c7[H])c(C(=O)N([H])[H])c6N([H])[H])C5([H])[H])c([H])c4C([H])([H])[H])C3([H])[H])c([H])c([H])c2C1([H])[H]

$$$$
25:0:0
     RDKit          3D

100109  0  0  1  0  0  0  0  0999 V2000
  -29.0520  -18.2190   19.2590 C   0  0  0  0  0  3  0  0  0  0  0  0
  -27.9300  -18.9830   18.9060 C   0  0  0  0  0  3  0  0  0  0  0  0
  -29.9870  -18.7050   20.1950 C   0  0  0  0  0  0  0  0  0  0  0  0
  -29.8010  -19.9980   20.7570 C   0  0  0  0  0  0  0  0  0  0  0  0
  -27.7200  -20.2570   19.4720 C   0  0  0  0  0  0  0  0  0  0  0  0
  -28.6760  -20.7840   20.3770 C   0  0  0  0  0  0  0  0  0  0  0  0
  -30.7890  -20.5050   21.7980 C   0  0  0  0  0  1  0  0  0  0  0  0
  -26.0700  -21.0360   16.8040 C   0  0  0  0  0  2  0  0  0  0  0  0
  -24.8690  -20.4610   17.5380 C   0  0  0  0  0  2  0  0  0  0  0  0
  -26.8110  -21.7910   17.9010 C   0  0  0  0  0  2  0  0  0  0  0  0
  -25.3410  -20.2920   18.9890 C   0  0  0  0  0  2  0  0  0  0  0  0
  -26.5940  -21.0340   19.1280 N   0  0  0  0  0  0  0  0  0  0  0  0
  -28.4570  -22.0730   20.8890 N   0  0  0  0  0  0  0  0  0  0  0  0
  -27.4470  -22.2020   20.8480 H   0  0  0  0  0  0  0  0  0  0  0  0
  -29.0480  -23.1210   20.0630 C   0  0  0  0  0  2  0  0  0  0  0  0
  -28.7040  -24.5180   20.6040 C   0  0  0  0  0  2  0  0  0  0  0  0
  -28.9390  -25.6230   19.5610 C   0  0  0  0  0  2  0  0  0  0  0  0
  -28.7050  -26.9000   20.1490 O   0  0  0  0  0  0  0  0  0  0  0  0
  -24.5340  -31.7450   23.2140 C   0  0  0  0  0  0  0  0  0  0  0  0
  -27.4540  -27.4800   20.1370 C   0  0  0  0  0  0  0  0  0  0  0  0
  -23.4330  -30.3340   21.5080 C   0  0  0  0  0  3  0  0  0  0  0  0
  -24.9870  -28.8690   20.1160 C   0  0  0  0  0  0  0  0  0  0  0  0
  -25.9490  -30.7860   21.4010 C   0  0  0  0  0  2  0  0  0  0  0  0
  -26.1030  -29.4330   20.7430 C   0  0  0  0  0  0  0  0  0  0  0  0
  -27.3340  -28.7460   20.7510 C   0  0  0  0  0  3  0  0  0  0  0  0
  -26.3090  -26.9090   19.5320 C   0  0  0  0  0  3  0  0  0  0  0  0
  -25.0810  -27.6030   19.5140 C   0  0  0  0  0  3  0  0  0  0  0  0
  -23.7140  -29.6860   20.1260 C   0  0  0  0  0  2  0  0  0  0  0  0
  -24.6550  -30.9690   22.1000 N   0  0  0  0  0  0  0  0  0  0  0  0
  -23.4250  -31.9690   23.7190 O   0  0  0  0  0  0  0  0  0  0  0  0
  -22.7840  -29.2740   22.4270 C   0  0  0  0  0  0  0  0  0  0  0  0
  -21.4690  -29.0630   22.2600 N   0  0  0  0  0  0  0  0  0  0  0  0
  -23.4640  -28.6430   23.2410 O   0  0  0  0  0  0  0  0  0  0  0  0
  -20.9810  -29.6180   21.5710 H   0  0  0  0  0  0  0  0  0  0  0  0
  -18.1080  -27.8080   22.6690 C   0  0  0  0  0  0  0  0  0  0  0  0
  -20.6570  -28.0890   22.9900 C   0  0  0  0  0  3  0  0  0  0  0  0
  -20.7900  -26.6810   22.3650 C   0  0  0  0  0  2  0  0  0  0  0  0
  -19.7060  -26.3800   21.3250 C   0  0  0  0  0  2  0  0  0  0  0  0
  -18.3130  -26.4860   21.9520 C   0  0  0  0  0  2  0  0  0  0  0  0
  -19.2090  -28.5700   23.1420 C   0  0  0  0  0  0  0  0  0  0  0  0
  -18.9630  -29.8140   23.7670 C   0  0  0  0  0  3  0  0  0  0  0  0
  -17.6480  -30.2910   23.9260 C   0  0  0  0  0  3  0  0  0  0  0  0
  -16.5610  -29.5240   23.4700 C   0  0  0  0  0  3  0  0  0  0  0  0
  -16.7920  -28.2860   22.8450 C   0  0  0  0  0  3  0  0  0  0  0  0
  -25.7750  -32.4070   23.8890 C   0  0  0  0  0  3  0  0  0  0  0  0
  -25.4200  -33.7990   24.1960 N   0  0  0  0  0  0  0  0  0  0  0  0
  -25.7620  -34.8550   23.4460 C   0  0  0  0  0  0  0  0  0  0  0  0
  -26.4810  -34.7630   22.4460 O   0  0  0  0  0  0  0  0  0  0  0  0
  -24.7860  -33.9440   24.9680 H   0  0  0  0  0  0  0  0  0  0  0  0
  -24.0080  -36.6010   23.0020 C   0  0  0  0  0  1  0  0  0  0  0  0
  -25.2200  -36.2330   23.8720 C   0  0  0  0  0  3  0  0  0  0  0  0
  -27.2920  -37.1750   24.7980 C   0  0  0  0  0  1  0  0  0  0  0  0
  -26.2330  -37.3100   23.8000 N   0  0  0  0  0  0  0  0  0  0  0  0
  -25.7990  -38.2220   23.9180 H   0  0  0  0  0  0  0  0  0  0  0  0
  -26.2540  -31.6510   25.1880 C   0  0  1  0  0  0  0  0  0  0  0  0
  -25.1210  -31.3920   26.2060 C   0  0  0  0  0  1  0  0  0  0  0  0
  -26.8840  -30.2880   24.8220 C   0  0  0  0  0  1  0  0  0  0  0  0
  -27.3570  -32.4740   25.8940 C   0  0  0  0  0  1  0  0  0  0  0  0
  -31.1930  -17.8200   20.5340 C   0  0  0  0  0  2  0  0  0  0  0  0
  -32.1710  -16.1620   22.4430 O   0  0  0  0  0  0  0  0  0  0  0  0
  -29.9330  -17.2670   22.8770 O   0  0  0  0  0  0  0  0  0  0  0  0
  -30.8750  -16.6470   21.9330 S   0  0  1  0  0  0  0  0  0  0  0  0
  -30.5460  -14.4450   20.2610 C   0  0  0  0  0  0  0  0  0  0  0  0
  -30.1280  -12.4420   18.8880 C   0  0  0  0  0  2  0  0  0  0  0  0
  -29.1090  -12.7410   17.7730 C   0  0  0  0  0  2  0  0  0  0  0  0
  -27.6700  -12.5530   18.2860 C   0  0  0  0  0  2  0  0  0  0  0  0
  -27.4110  -13.3000   19.6200 C   0  0  0  0  0  3  0  0  0  0  0  0
  -28.5310  -12.9920   20.6410 C   0  0  0  0  0  2  0  0  0  0  0  0
  -29.8210  -13.3280   20.0160 N   0  0  0  0  0  0  0  0  0  0  0  0
  -31.5680  -14.7340   19.6270 O   0  0  0  0  0  0  0  0  0  0  0  0
  -30.0630  -15.3000   21.2430 N   0  0  0  0  0  0  0  0  0  0  0  0
  -29.1480  -15.1490   21.6610 H   0  0  0  0  0  0  0  0  0  0  0  0
  -25.0360  -13.8470   20.4540 C   0  0  0  0  0  0  0  0  0  0  0  0
  -24.0090  -13.0440   20.8680 C   0  0  0  0  0  0  0  0  0  0  0  0
  -24.5030  -11.7040   20.8000 C   0  0  0  0  0  0  0  0  0  0  0  0
  -26.0890  -12.9940   20.1600 N   0  0  0  0  0  0  0  0  0  0  0  0
  -25.7750  -11.7010   20.4290 N   0  0  0  0  0  0  0  0  0  0  0  0
  -23.8200  -10.4220   21.0120 C   0  0  0  0  0  0  0  0  0  0  0  0
  -24.2940   -9.4760   21.9480 C   0  0  0  0  0  3  0  0  0  0  0  0
  -23.6100   -8.2570   22.1430 C   0  0  0  0  0  3  0  0  0  0  0  0
  -22.4370   -7.9760   21.4050 C   0  0  0  0  0  0  0  0  0  0  0  0
  -21.9840   -8.9110   20.4570 C   0  0  0  0  0  3  0  0  0  0  0  0
  -22.6680  -10.1210   20.2580 C   0  0  0  0  0  3  0  0  0  0  0  0
  -21.7200   -6.8080   21.5090 O   0  0  0  0  0  0  0  0  0  0  0  0
  -21.6880   -6.0880   22.6750 C   0  0  0  0  0  0  0  0  0  0  0  0
  -21.2190   -6.6480   23.8840 C   0  0  0  0  0  3  0  0  0  0  0  0
  -21.1350   -5.8520   25.0440 C   0  0  0  0  0  3  0  0  0  0  0  0
  -21.5110   -4.4950   24.9960 C   0  0  0  0  0  0  0  0  0  0  0  0
  -21.9760   -3.9360   23.7930 C   0  0  0  0  0  3  0  0  0  0  0  0
  -22.0620   -4.7300   22.6350 C   0  0  0  0  0  0  0  0  0  0  0  0
  -22.4880   -4.1800   21.4730 F   0  0  0  0  0  0  0  0  0  0  0  0
  -21.4290   -3.7280   26.1080 F   0  0  0  0  0  0  0  0  0  0  0  0
  -22.6150  -13.4810   21.2150 C   0  0  0  0  0  0  0  0  0  0  0  0
  -21.9530  -12.7670   22.1170 N   0  0  0  0  0  0  0  0  0  0  0  0
  -22.1170  -14.4900   20.7140 O   0  0  0  0  0  0  0  0  0  0  0  0
  -22.3700  -11.9530   22.5470 H   0  0  0  0  0  0  0  0  0  0  0  0
  -21.0200  -13.0450   22.3880 H   0  0  0  0  0  0  0  0  0  0  0  0
  -25.1560  -15.2230   20.2890 N   0  0  0  0  0  0  0  0  0  0  0  0
  -24.3890  -15.8550   20.4870 H   0  0  0  0  0  0  0  0  0  0  0  0
  -25.9710  -15.6950   19.9210 H   0  0  0  0  0  0  0  0  0  0  0  0
  1  3  1  0
  2  1  2  0
  2  5  1  0
  3 59  1  0
  3  4  2  0
  4  7  1  0
  5  6  2  0
  6  4  1  0
  6 13  1  0
  8  9  1  0
  8 10  1  0
  9 11  1  0
 10 12  1  0
 11 12  1  0
 12  5  1  0
 14 13  1  0
 15 16  1  0
 15 13  1  0
 17 18  1  0
 17 16  1  0
 19 30  2  0
 20 18  1  0
 20 25  1  0
 21 29  1  0
 21 31  1  0
 22 28  1  0
 22 24  1  0
 23 29  1  0
 24 25  2  0
 24 23  1  0
 26 20  2  0
 27 26  1  0
 27 22  2  0
 28 21  1  0
 29 19  1  0
 31 33  2  0
 32 31  1  0
 34 32  1  0
 35 44  2  0
 35 40  1  0
 36 32  1  0
 36 40  1  0
 37 36  1  0
 38 39  1  0
 38 37  1  0
 39 35  1  0
 40 41  2  0
 41 42  1  0
 43 42  2  0
 44 43  1  0
 45 19  1  0
 45 46  1  0
 45 55  1  0
 46 49  1  0
 47 51  1  0
 47 46  1  0
 48 47  2  0
 51 50  1  0
 53 51  1  0
 53 54  1  0
 53 52  1  0
 55 58  1  1
 55 56  1  0
 57 55  1  0
 62 59  1  6
 62 60  2  0
 62 61  2  0
 63 71  1  0
 64 69  1  0
 65 66  1  0
 65 64  1  0
 67 66  1  0
 67 76  1  0
 67 68  1  0
 69 63  1  0
 69 68  1  0
 70 63  2  0
 71 72  1  0
 71 62  1  0
 73 74  2  0
 74 93  1  0
 75 74  1  0
 75 78  1  0
 76 77  1  0
 76 73  1  0
 77 75  2  0
 78 79  1  0
 79 80  2  0
 81 84  1  0
 81 80  1  0
 82 81  2  0
 83 82  1  0
 83 78  2  0
 84 85  1  0
 85 86  1  0
 86 87  2  0
 88 87  1  0
 88 92  1  0
 89 88  2  0
 90 85  2  0
 90 89  1  0
 91 90  1  0
 93 94  1  0
 94 97  1  0
 94 96  1  0
 95 93  2  0
 98 73  1  0
 98 99  1  0
100 98  1  0
M  ISO  4  17 101  18 101  63 100  71 100
M  END
>  <TORSDO>  (25) 
F 23

>  <SCORE>  (25) 
-10.291

>  <name>  (25) 
25

>  <ligand_id>  (25) 
25

>  <original_smiles>  (25) 
[H]c1c([H])c([H])c2c(c1[H])C([H])([H])C([H])([H])C([H])([H])C2([H])N([H])C(=O)C1([H])N(C(=O)C([H])(N([H])C(=O)C([H])(N([H])C([H])([H])[H])C([H])([H])[H])C(C([H])([H])[H])(C([H])([H])[H])C([H])([H])[H])C([H])([H])c2c([H])c(OC([H])([H])C([H])([H])C([H])([H])N([H])c3c(N4C([H])([H])C([H])([H])C([H])([H])C4([H])[H])c([H])c([H])c(C([H])([H])S(=O)(=O)N([H])C(=O)N4C([H])([H])C([H])([H])C([H])([H])C([H])(n5nc(-c6c([H])c([H])c(Oc7c([H])c([H])c(F)c([H])c7F)c([H])c6[H])c(C(=O)N([H])[H])c5N([H])[H])C4([H])[H])c3C([H])([H])[H])c([H])c([H])c2C1([H])[H]

>  <smiles>  (25) 
[H]c1c([H])c([H])c2c(c1[H])C([H])([H])C([H])([H])C([H])([H])C2([H])N([H])C(=O)C1([H])N(C(=O)C([H])(N([H])C(=O)C([H])(N([H])C([H])([H])[H])C([H])([H])[H])C(C([H])([H])[H])(C([H])([H])[H])C([H])([H])[H])C([H])([H])c2c([H])c(OC([H])([H])C([H])([H])C([H])([H])N([H])c3c(N4C([H])([H])C([H])([H])C([H])([H])C4([H])[H])c([H])c([H])c(C([H])([H])S(=O)(=O)N([H])C(=O)N4C([H])([H])C([H])([H])C([H])([H])C([H])(n5nc(-c6c([H])c([H])c(Oc7c([H])c([H])c(F)c([H])c7F)c([H])c6[H])c(C(=O)N([H])[H])c5N([H])[H])C4([H])[H])c3C([H])([H])[H])c([H])c([H])c2C1([H])[H]

$$$$
26:0:0
     RDKit          3D

 97106  0  0  1  0  0  0  0  0999 V2000
  -30.8820  -18.2220   19.3540 C   0  0  0  0  0  3  0  0  0  0  0  0
  -30.8350  -19.3810   18.5550 C   0  0  0  0  0  3  0  0  0  0  0  0
  -29.2830  -19.2400   20.8780 C   0  0  0  0  0  3  0  0  0  0  0  0
  -30.1140  -18.1330   20.5300 C   0  0  0  0  0  0  0  0  0  0  0  0
  -29.2160  -20.4200   20.0750 C   0  0  0  0  0  0  0  0  0  0  0  0
  -30.0090  -20.4770   18.9020 C   0  0  0  0  0  0  0  0  0  0  0  0
  -30.9910  -23.2620   16.7650 C   0  0  0  0  0  2  0  0  0  0  0  0
  -30.2960  -22.2930   15.8080 C   0  0  0  0  0  2  0  0  0  0  0  0
  -31.1470  -22.4330   18.0350 C   0  0  0  0  0  2  0  0  0  0  0  0
  -29.4530  -21.3940   16.7200 C   0  0  0  0  0  2  0  0  0  0  0  0
  -29.9490  -21.6090   18.0770 N   0  0  0  0  0  0  0  0  0  0  0  0
  -30.2890  -16.9090   21.4590 C   0  0  0  0  0  2  0  0  0  0  0  0
  -30.6300  -14.5620   20.4860 C   0  0  0  0  0  0  0  0  0  0  0  0
  -30.3890  -12.3900   19.3170 C   0  0  0  0  0  2  0  0  0  0  0  0
  -29.4380  -12.5570   18.1130 C   0  0  0  0  0  2  0  0  0  0  0  0
  -27.9650  -12.4060   18.5470 C   0  0  0  0  0  2  0  0  0  0  0  0
  -27.6190  -13.2400   19.8080 C   0  0  0  0  0  3  0  0  0  0  0  0
  -28.6760  -13.0270   20.9130 C   0  0  0  0  0  2  0  0  0  0  0  0
  -29.9870  -13.3690   20.3390 N   0  0  0  0  0  0  0  0  0  0  0  0
  -31.7830  -14.7460   20.0890 O   0  0  0  0  0  0  0  0  0  0  0  0
  -29.8710  -15.5730   20.9750 N   0  0  0  0  0  0  0  0  0  0  0  0
  -28.9160  -15.3240   21.1800 H   0  0  0  0  0  0  0  0  0  0  0  0
  -25.2200  -13.8380   20.5130 C   0  0  0  0  0  0  0  0  0  0  0  0
  -24.1550  -13.0620   20.8860 C   0  0  0  0  0  0  0  0  0  0  0  0
  -24.6230  -11.7130   20.8620 C   0  0  0  0  0  0  0  0  0  0  0  0
  -26.2680  -12.9610   20.2880 N   0  0  0  0  0  0  0  0  0  0  0  0
  -25.9140  -11.6780   20.5570 N   0  0  0  0  0  0  0  0  0  0  0  0
  -23.9030  -10.4490   21.0590 C   0  0  0  0  0  0  0  0  0  0  0  0
  -24.3440   -9.4840   21.9910 C   0  0  0  0  0  3  0  0  0  0  0  0
  -23.6250   -8.2830   22.1740 C   0  0  0  0  0  3  0  0  0  0  0  0
  -22.4500   -8.0390   21.4240 C   0  0  0  0  0  0  0  0  0  0  0  0
  -22.0270   -8.9930   20.4800 C   0  0  0  0  0  3  0  0  0  0  0  0
  -22.7470  -10.1850   20.2960 C   0  0  0  0  0  3  0  0  0  0  0  0
  -21.7020   -6.8910   21.5150 O   0  0  0  0  0  0  0  0  0  0  0  0
  -21.6680   -6.1440   22.6650 C   0  0  0  0  0  0  0  0  0  0  0  0
  -21.2580   -6.6940   23.8990 C   0  0  0  0  0  3  0  0  0  0  0  0
  -21.1720   -5.8740   25.0420 C   0  0  0  0  0  3  0  0  0  0  0  0
  -21.4860   -4.5040   24.9520 C   0  0  0  0  0  0  0  0  0  0  0  0
  -21.8890   -3.9540   23.7210 C   0  0  0  0  0  3  0  0  0  0  0  0
  -21.9760   -4.7710   22.5820 C   0  0  0  0  0  0  0  0  0  0  0  0
  -22.3450   -4.2310   21.3950 F   0  0  0  0  0  0  0  0  0  0  0  0
  -21.3960   -3.7140   26.0460 F   0  0  0  0  0  0  0  0  0  0  0  0
  -22.7540  -13.5340   21.1520 C   0  0  0  0  0  0  0  0  0  0  0  0
  -22.0290  -12.8360   22.0180 N   0  0  0  0  0  0  0  0  0  0  0  0
  -22.3130  -14.5550   20.6260 O   0  0  0  0  0  0  0  0  0  0  0  0
  -22.4020  -12.0110   22.4650 H   0  0  0  0  0  0  0  0  0  0  0  0
  -21.0880  -13.1300   22.2400 H   0  0  0  0  0  0  0  0  0  0  0  0
  -25.3760  -15.2090   20.3280 N   0  0  0  0  0  0  0  0  0  0  0  0
  -24.6020  -15.8550   20.4280 H   0  0  0  0  0  0  0  0  0  0  0  0
  -26.2140  -15.6500   19.9710 H   0  0  0  0  0  0  0  0  0  0  0  0
  -28.2240  -21.5700   20.4140 C   0  0  0  0  0  2  0  0  0  0  0  0
  -28.3270  -24.0920   20.2170 C   0  0  0  0  0  0  0  0  0  0  0  0
  -29.6420  -22.9060   21.9540 C   0  0  0  0  0  1  0  0  0  0  0  0
  -28.7530  -22.9170   20.7890 N   0  0  0  0  0  0  0  0  0  0  0  0
  -27.7040  -24.1000   19.1510 O   0  0  0  0  0  0  0  0  0  0  0  0
  -28.5390  -25.4560   20.9650 C   0  0  0  0  0  2  0  0  0  0  0  0
  -28.4480  -26.6480   20.1340 O   0  0  0  0  0  0  0  0  0  0  0  0
  -24.6270  -31.8820   23.2470 C   0  0  0  0  0  0  0  0  0  0  0  0
  -27.2850  -27.3980   20.1970 C   0  0  0  0  0  0  0  0  0  0  0  0
  -23.4320  -30.4750   21.6040 C   0  0  0  0  0  3  0  0  0  0  0  0
  -24.8960  -28.9310   20.1920 C   0  0  0  0  0  0  0  0  0  0  0  0
  -25.9630  -30.8230   21.4240 C   0  0  0  0  0  2  0  0  0  0  0  0
  -26.0530  -29.4460   20.7890 C   0  0  0  0  0  0  0  0  0  0  0  0
  -27.2530  -28.6870   20.7880 C   0  0  0  0  0  3  0  0  0  0  0  0
  -26.1110  -26.9080   19.5910 C   0  0  0  0  0  3  0  0  0  0  0  0
  -24.9220  -27.6630   19.5880 C   0  0  0  0  0  3  0  0  0  0  0  0
  -23.6490  -29.7900   20.2290 C   0  0  0  0  0  2  0  0  0  0  0  0
  -24.6920  -31.0780   22.1480 N   0  0  0  0  0  0  0  0  0  0  0  0
  -23.5430  -32.1550   23.7810 O   0  0  0  0  0  0  0  0  0  0  0  0
  -22.7770  -29.4560   22.5640 C   0  0  0  0  0  0  0  0  0  0  0  0
  -21.4530  -29.2750   22.4330 N   0  0  0  0  0  0  0  0  0  0  0  0
  -23.4570  -28.8290   23.3810 O   0  0  0  0  0  0  0  0  0  0  0  0
  -20.9640  -29.8330   21.7450 H   0  0  0  0  0  0  0  0  0  0  0  0
  -18.0760  -28.0860   22.9310 C   0  0  0  0  0  0  0  0  0  0  0  0
  -20.6340  -28.3370   23.2010 C   0  0  0  0  0  3  0  0  0  0  0  0
  -20.7340  -26.9080   22.6170 C   0  0  0  0  0  2  0  0  0  0  0  0
  -19.6290  -26.5920   21.6040 C   0  0  0  0  0  2  0  0  0  0  0  0
  -18.2480  -26.7400   22.2480 C   0  0  0  0  0  2  0  0  0  0  0  0
  -19.1960  -28.8440   23.3630 C   0  0  0  0  0  0  0  0  0  0  0  0
  -18.9830  -30.1060   23.9580 C   0  0  0  0  0  3  0  0  0  0  0  0
  -17.6800  -30.6120   24.1240 C   0  0  0  0  0  3  0  0  0  0  0  0
  -16.5730  -29.8520   23.7080 C   0  0  0  0  0  3  0  0  0  0  0  0
  -16.7720  -28.5900   23.1190 C   0  0  0  0  0  3  0  0  0  0  0  0
  -25.9100  -32.5170   23.8720 C   0  0  0  0  0  3  0  0  0  0  0  0
  -25.5950  -33.9120   24.2020 N   0  0  0  0  0  0  0  0  0  0  0  0
  -25.9170  -34.9660   23.4400 C   0  0  0  0  0  0  0  0  0  0  0  0
  -26.5830  -34.8650   22.4060 O   0  0  0  0  0  0  0  0  0  0  0  0
  -25.0060  -34.0630   25.0070 H   0  0  0  0  0  0  0  0  0  0  0  0
  -24.1730  -36.7460   23.0950 C   0  0  0  0  0  1  0  0  0  0  0  0
  -25.4220  -36.3510   23.8990 C   0  0  0  0  0  3  0  0  0  0  0  0
  -27.5560  -37.2530   24.7130 C   0  0  0  0  0  1  0  0  0  0  0  0
  -26.4460  -37.4120   23.7770 N   0  0  0  0  0  0  0  0  0  0  0  0
  -26.0340  -38.3290   23.9260 H   0  0  0  0  0  0  0  0  0  0  0  0
  -26.4260  -31.7470   25.1510 C   0  0  1  0  0  0  0  0  0  0  0  0
  -25.3300  -31.5070   26.2150 C   0  0  0  0  0  1  0  0  0  0  0  0
  -27.0170  -30.3710   24.7620 C   0  0  0  0  0  1  0  0  0  0  0  0
  -27.5700  -32.5490   25.8170 C   0  0  0  0  0  1  0  0  0  0  0  0
  1  4  1  0
  2  6  1  0
  2  1  2  0
  4  3  2  0
  4 12  1  0
  5 51  1  0
  5  3  1  0
  6  5  2  0
  7  9  1  0
  8 10  1  0
  8  7  1  0
  9 11  1  0
 10 11  1  0
 11  6  1  0
 13 21  1  0
 14 19  1  0
 15 16  1  0
 15 14  1  0
 17 16  1  0
 17 26  1  0
 17 18  1  0
 19 13  1  0
 19 18  1  0
 20 13  2  0
 21 22  1  0
 21 12  1  0
 23 24  2  0
 24 43  1  0
 25 24  1  0
 25 28  1  0
 26 23  1  0
 26 27  1  0
 27 25  2  0
 28 29  1  0
 29 30  2  0
 31 34  1  0
 31 30  1  0
 32 31  2  0
 33 32  1  0
 33 28  2  0
 34 35  1  0
 35 36  1  0
 36 37  2  0
 38 37  1  0
 38 42  1  0
 39 38  2  0
 40 35  2  0
 40 39  1  0
 41 40  1  0
 43 44  1  0
 44 47  1  0
 44 46  1  0
 45 43  2  0
 48 49  1  0
 48 23  1  0
 50 48  1  0
 51 54  1  0
 52 54  1  0
 52 56  1  0
 54 53  1  0
 55 52  2  0
 57 59  1  0
 57 56  1  0
 58 69  2  0
 59 64  1  0
 60 68  1  0
 60 70  1  0
 61 67  1  0
 61 63  1  0
 62 68  1  0
 63 62  1  0
 64 63  2  0
 65 59  2  0
 66 65  1  0
 66 61  2  0
 67 60  1  0
 68 58  1  0
 70 72  2  0
 71 70  1  0
 73 71  1  0
 74 83  2  0
 74 79  1  0
 75 71  1  0
 75 79  1  0
 76 75  1  0
 77 78  1  0
 77 76  1  0
 78 74  1  0
 79 80  2  0
 80 81  1  0
 82 81  2  0
 83 82  1  0
 84 58  1  0
 84 85  1  0
 84 94  1  0
 85 88  1  0
 86 90  1  0
 86 85  1  0
 87 86  2  0
 90 89  1  0
 92 90  1  0
 92 93  1  0
 92 91  1  0
 94 97  1  1
 94 95  1  0
 96 94  1  0
M  ISO  4  13 100  21 100  56 101  57 101
M  END
>  <TORSDO>  (26) 
F 21

>  <SCORE>  (26) 
-13.820

>  <name>  (26) 
26

>  <ligand_id>  (26) 
26

>  <original_smiles>  (26) 
[H]c1c([H])c([H])c2c(c1[H])C([H])([H])C([H])([H])C([H])([H])C2([H])N([H])C(=O)C1([H])N(C(=O)C([H])(N([H])C(=O)C([H])(N([H])C([H])([H])[H])C([H])([H])[H])C(C([H])([H])[H])(C([H])([H])[H])C([H])([H])[H])C([H])([H])c2c([H])c(OC([H])([H])C(=O)N(C([H])([H])[H])C([H])([H])c3c([H])c(C([H])([H])N([H])C(=O)N4C([H])([H])C([H])([H])C([H])([H])C([H])(n5nc(-c6c([H])c([H])c(Oc7c([H])c([H])c(F)c([H])c7F)c([H])c6[H])c(C(=O)N([H])[H])c5N([H])[H])C4([H])[H])c([H])c([H])c3N3C([H])([H])C([H])([H])C([H])([H])C3([H])[H])c([H])c([H])c2C1([H])[H]

>  <smiles>  (26) 
[H]c1c([H])c([H])c2c(c1[H])C([H])([H])C([H])([H])C([H])([H])C2([H])N([H])C(=O)C1([H])N(C(=O)C([H])(N([H])C(=O)C([H])(N([H])C([H])([H])[H])C([H])([H])[H])C(C([H])([H])[H])(C([H])([H])[H])C([H])([H])[H])C([H])([H])c2c([H])c(OC([H])([H])C(=O)N(C([H])([H])[H])C([H])([H])c3c([H])c(C([H])([H])N([H])C(=O)N4C([H])([H])C([H])([H])C([H])([H])C([H])(n5nc(-c6c([H])c([H])c(Oc7c([H])c([H])c(F)c([H])c7F)c([H])c6[H])c(C(=O)N([H])[H])c5N([H])[H])C4([H])[H])c([H])c([H])c3N3C([H])([H])C([H])([H])C([H])([H])C3([H])[H])c([H])c([H])c2C1([H])[H]

$$$$
27:0:0
     RDKit          3D

 93102  0  0  1  0  0  0  0  0999 V2000
  -28.4180  -23.1540   18.4290 C   0  0  0  0  0  0  0  0  0  0  0  0
  -28.1930  -24.6620   18.4510 C   0  0  0  0  0  2  0  0  0  0  0  0
  -29.0090  -23.8460   20.5350 C   0  0  0  0  0  2  0  0  0  0  0  0
  -28.1100  -24.9990   19.9380 C   0  0  0  0  0  3  0  0  0  0  0  0
  -28.9190  -22.6780   19.5960 N   0  0  0  0  0  0  0  0  0  0  0  0
  -28.1250  -22.5030   17.4230 O   0  0  0  0  0  0  0  0  0  0  0  0
  -30.1050  -19.5080   21.4500 C   0  0  0  0  0  3  0  0  0  0  0  0
  -29.7020  -20.8520   21.1810 C   0  0  0  0  0  3  0  0  0  0  0  0
  -29.3170  -20.2380   18.8930 C   0  0  0  0  0  3  0  0  0  0  0  0
  -30.1360  -18.4950   20.4510 C   0  0  0  0  0  0  0  0  0  0  0  0
  -29.3010  -21.2740   19.8840 C   0  0  0  0  0  0  0  0  0  0  0  0
  -29.7220  -18.8980   19.1590 C   0  0  0  0  0  0  0  0  0  0  0  0
  -29.7630  -18.0080   18.1390 F   0  0  0  0  0  0  0  0  0  0  0  0
  -30.8230  -17.1100   20.7350 C   0  0  0  0  0  2  0  0  0  0  0  0
  -30.8250  -14.6340   20.1360 C   0  0  0  0  0  0  0  0  0  0  0  0
  -30.4880  -12.3950   19.1200 C   0  0  0  0  0  2  0  0  0  0  0  0
  -29.5120  -12.4930   17.9290 C   0  0  0  0  0  2  0  0  0  0  0  0
  -28.0580  -12.3580   18.4130 C   0  0  0  0  0  2  0  0  0  0  0  0
  -27.7440  -13.2660   19.6330 C   0  0  0  0  0  3  0  0  0  0  0  0
  -28.8390  -13.1630   20.7190 C   0  0  0  0  0  2  0  0  0  0  0  0
  -30.1260  -13.4580   20.0780 N   0  0  0  0  0  0  0  0  0  0  0  0
  -31.9860  -14.6940   19.7290 O   0  0  0  0  0  0  0  0  0  0  0  0
  -30.1670  -15.7760   20.5050 N   0  0  0  0  0  0  0  0  0  0  0  0
  -29.1970  -15.6860   20.7680 H   0  0  0  0  0  0  0  0  0  0  0  0
  -25.3940  -13.8920   20.4580 C   0  0  0  0  0  0  0  0  0  0  0  0
  -24.3290  -13.1310   20.8530 C   0  0  0  0  0  0  0  0  0  0  0  0
  -24.7660  -11.7720   20.7880 C   0  0  0  0  0  0  0  0  0  0  0  0
  -26.4140  -12.9980   20.1730 N   0  0  0  0  0  0  0  0  0  0  0  0
  -26.0440  -11.7170   20.4350 N   0  0  0  0  0  0  0  0  0  0  0  0
  -24.0240  -10.5200   20.9880 C   0  0  0  0  0  0  0  0  0  0  0  0
  -24.4630   -9.5390   21.9040 C   0  0  0  0  0  3  0  0  0  0  0  0
  -23.7240   -8.3520   22.0920 C   0  0  0  0  0  3  0  0  0  0  0  0
  -22.5300   -8.1380   21.3640 C   0  0  0  0  0  0  0  0  0  0  0  0
  -22.1080   -9.1070   20.4380 C   0  0  0  0  0  3  0  0  0  0  0  0
  -22.8480  -10.2860   20.2480 C   0  0  0  0  0  3  0  0  0  0  0  0
  -21.7580   -7.0050   21.4630 O   0  0  0  0  0  0  0  0  0  0  0  0
  -21.7080   -6.2670   22.6180 C   0  0  0  0  0  0  0  0  0  0  0  0
  -21.2650   -6.8220   23.8380 C   0  0  0  0  0  3  0  0  0  0  0  0
  -21.1630   -6.0090   24.9850 C   0  0  0  0  0  3  0  0  0  0  0  0
  -21.4960   -4.6440   24.9120 C   0  0  0  0  0  0  0  0  0  0  0  0
  -21.9330   -4.0880   23.6970 C   0  0  0  0  0  3  0  0  0  0  0  0
  -22.0360   -4.8980   22.5530 C   0  0  0  0  0  0  0  0  0  0  0  0
  -22.4370   -4.3540   21.3790 F   0  0  0  0  0  0  0  0  0  0  0  0
  -21.3920   -3.8610   26.0110 F   0  0  0  0  0  0  0  0  0  0  0  0
  -22.9510  -13.6280   21.1800 C   0  0  0  0  0  0  0  0  0  0  0  0
  -22.2460  -12.9370   22.0700 N   0  0  0  0  0  0  0  0  0  0  0  0
  -22.5090  -14.6640   20.6840 O   0  0  0  0  0  0  0  0  0  0  0  0
  -22.6180  -12.0990   22.4920 H   0  0  0  0  0  0  0  0  0  0  0  0
  -21.3220  -13.2500   22.3330 H   0  0  0  0  0  0  0  0  0  0  0  0
  -25.5770  -15.2620   20.2920 N   0  0  0  0  0  0  0  0  0  0  0  0
  -24.8260  -15.9290   20.4370 H   0  0  0  0  0  0  0  0  0  0  0  0
  -26.4210  -15.6890   19.9310 H   0  0  0  0  0  0  0  0  0  0  0  0
  -28.3290  -26.4470   20.2160 O   0  0  0  0  0  0  0  0  0  0  0  0
  -24.6300  -31.8680   23.2390 C   0  0  0  0  0  0  0  0  0  0  0  0
  -27.2250  -27.3190   20.1520 C   0  0  0  0  0  0  0  0  0  0  0  0
  -23.4250  -30.4880   21.5860 C   0  0  0  0  0  3  0  0  0  0  0  0
  -24.8740  -28.9540   20.1510 C   0  0  0  0  0  0  0  0  0  0  0  0
  -25.9710  -30.7930   21.4190 C   0  0  0  0  0  2  0  0  0  0  0  0
  -26.0450  -29.4220   20.7580 C   0  0  0  0  0  0  0  0  0  0  0  0
  -27.2240  -28.6170   20.7530 C   0  0  0  0  0  3  0  0  0  0  0  0
  -26.0260  -26.9160   19.5140 C   0  0  0  0  0  3  0  0  0  0  0  0
  -24.8680  -27.7050   19.5210 C   0  0  0  0  0  3  0  0  0  0  0  0
  -23.6420  -29.8300   20.2000 C   0  0  0  0  0  2  0  0  0  0  0  0
  -24.6940  -31.0660   22.1360 N   0  0  0  0  0  0  0  0  0  0  0  0
  -23.5440  -32.1440   23.7700 O   0  0  0  0  0  0  0  0  0  0  0  0
  -22.7580  -29.4620   22.5330 C   0  0  0  0  0  0  0  0  0  0  0  0
  -21.4330  -29.2840   22.3970 N   0  0  0  0  0  0  0  0  0  0  0  0
  -23.4310  -28.8300   23.3530 O   0  0  0  0  0  0  0  0  0  0  0  0
  -20.9500  -29.8470   21.7090 H   0  0  0  0  0  0  0  0  0  0  0  0
  -18.0490  -28.0920   22.8740 C   0  0  0  0  0  0  0  0  0  0  0  0
  -20.6060  -28.3430   23.1550 C   0  0  0  0  0  3  0  0  0  0  0  0
  -20.7070  -26.9140   22.5720 C   0  0  0  0  0  2  0  0  0  0  0  0
  -19.6090  -26.6010   21.5500 C   0  0  0  0  0  2  0  0  0  0  0  0
  -18.2240  -26.7470   22.1890 C   0  0  0  0  0  2  0  0  0  0  0  0
  -19.1690  -28.8490   23.3130 C   0  0  0  0  0  0  0  0  0  0  0  0
  -18.9510  -30.1080   23.9120 C   0  0  0  0  0  3  0  0  0  0  0  0
  -17.6480  -30.6140   24.0760 C   0  0  0  0  0  3  0  0  0  0  0  0
  -16.5430  -29.8550   23.6520 C   0  0  0  0  0  3  0  0  0  0  0  0
  -16.7440  -28.5960   23.0580 C   0  0  0  0  0  3  0  0  0  0  0  0
  -25.9120  -32.4910   23.8690 C   0  0  0  0  0  3  0  0  0  0  0  0
  -25.6060  -33.8910   24.2010 N   0  0  0  0  0  0  0  0  0  0  0  0
  -25.9230  -34.9420   23.4330 C   0  0  0  0  0  0  0  0  0  0  0  0
  -26.5740  -34.8370   22.3900 O   0  0  0  0  0  0  0  0  0  0  0  0
  -25.0330  -34.0470   25.0170 H   0  0  0  0  0  0  0  0  0  0  0  0
  -24.1820  -36.7270   23.1120 C   0  0  0  0  0  1  0  0  0  0  0  0
  -25.4420  -36.3300   23.8970 C   0  0  0  0  0  3  0  0  0  0  0  0
  -27.5930  -37.2260   24.6760 C   0  0  0  0  0  1  0  0  0  0  0  0
  -26.4680  -37.3870   23.7570 N   0  0  0  0  0  0  0  0  0  0  0  0
  -26.0620  -38.3060   23.9120 H   0  0  0  0  0  0  0  0  0  0  0  0
  -26.4150  -31.7140   25.1480 C   0  0  1  0  0  0  0  0  0  0  0  0
  -25.3120  -31.4780   26.2080 C   0  0  0  0  0  1  0  0  0  0  0  0
  -26.9950  -30.3350   24.7580 C   0  0  0  0  0  1  0  0  0  0  0  0
  -27.5660  -32.5010   25.8160 C   0  0  0  0  0  1  0  0  0  0  0  0
  1  2  1  0
  1  5  1  0
  2  4  1  0
  4 53  1  0
  4  3  1  0
  5 11  1  0
  5  3  1  0
  6  1  2  0
  8  7  1  0
  9 12  2  0
  9 11  1  0
 10 14  1  0
 10  7  2  0
 11  8  2  0
 12 10  1  0
 13 12  1  0
 15 23  1  0
 16 21  1  0
 17 18  1  0
 17 16  1  0
 19 18  1  0
 19 28  1  0
 19 20  1  0
 21 15  1  0
 21 20  1  0
 22 15  2  0
 23 14  1  0
 23 24  1  0
 25 26  2  0
 26 45  1  0
 27 26  1  0
 27 30  1  0
 28 29  1  0
 28 25  1  0
 29 27  2  0
 30 31  1  0
 31 32  2  0
 33 36  1  0
 33 32  1  0
 34 33  2  0
 35 34  1  0
 35 30  2  0
 36 37  1  0
 37 38  1  0
 38 39  2  0
 40 39  1  0
 40 44  1  0
 41 40  2  0
 42 37  2  0
 42 41  1  0
 43 42  1  0
 45 46  1  0
 46 49  1  0
 46 48  1  0
 47 45  2  0
 50 51  1  0
 50 25  1  0
 52 50  1  0
 54 65  2  0
 55 53  1  0
 55 60  1  0
 56 64  1  0
 56 66  1  0
 57 63  1  0
 57 59  1  0
 58 64  1  0
 59 58  1  0
 60 59  2  0
 61 62  1  0
 61 55  2  0
 62 57  2  0
 63 56  1  0
 64 54  1  0
 66 68  2  0
 67 66  1  0
 69 67  1  0
 70 79  2  0
 70 75  1  0
 71 67  1  0
 71 75  1  0
 72 71  1  0
 73 74  1  0
 73 72  1  0
 74 70  1  0
 75 76  2  0
 76 77  1  0
 78 77  2  0
 79 78  1  0
 80 54  1  0
 80 81  1  0
 80 90  1  0
 81 84  1  0
 82 86  1  0
 82 81  1  0
 83 82  2  0
 86 85  1  0
 88 86  1  0
 88 89  1  0
 88 87  1  0
 90 93  1  1
 90 91  1  0
 92 90  1  0
M  ISO  4   4 101  15 100  23 100  53 101
M  END
>  <TORSDO>  (27) 
F 18

>  <SCORE>  (27) 
-14.783

>  <name>  (27) 
27

>  <ligand_id>  (27) 
27

>  <original_smiles>  (27) 
[H]c1c([H])c([H])c2c(c1[H])C([H])([H])C([H])([H])C([H])([H])C2([H])N([H])C(=O)C1([H])N(C(=O)C([H])(N([H])C(=O)C([H])(N([H])C([H])([H])[H])C([H])([H])[H])C(C([H])([H])[H])(C([H])([H])[H])C([H])([H])[H])C([H])([H])c2c([H])c(OC3([H])C([H])([H])C(=O)N(c4c([H])c([H])c(C([H])([H])N([H])C(=O)N5C([H])([H])C([H])([H])C([H])([H])C([H])(n6nc(-c7c([H])c([H])c(Oc8c([H])c([H])c(F)c([H])c8F)c([H])c7[H])c(C(=O)N([H])[H])c6N([H])[H])C5([H])[H])c(F)c4[H])C3([H])[H])c([H])c([H])c2C1([H])[H]

>  <smiles>  (27) 
[H]c1c([H])c([H])c2c(c1[H])C([H])([H])C([H])([H])C([H])([H])C2([H])N([H])C(=O)C1([H])N(C(=O)C([H])(N([H])C(=O)C([H])(N([H])C([H])([H])[H])C([H])([H])[H])C(C([H])([H])[H])(C([H])([H])[H])C([H])([H])[H])C([H])([H])c2c([H])c(OC3([H])C([H])([H])C(=O)N(c4c([H])c([H])c(C([H])([H])N([H])C(=O)N5C([H])([H])C([H])([H])C([H])([H])C([H])(n6nc(-c7c([H])c([H])c(Oc8c([H])c([H])c(F)c([H])c8F)c([H])c7[H])c(C(=O)N([H])[H])c6N([H])[H])C5([H])[H])c(F)c4[H])C3([H])[H])c([H])c([H])c2C1([H])[H]

$$$$
28:0:0
     RDKit          3D

 95104  0  0  1  0  0  0  0  0999 V2000
  -29.2490  -24.0870   23.1930 C   0  0  0  0  0  2  0  0  0  0  0  0
  -28.9670  -25.1780   22.1550 C   0  0  0  0  0  2  0  0  0  0  0  0
  -28.6100  -22.7560   22.7710 C   0  0  0  0  0  2  0  0  0  0  0  0
  -28.9800  -23.3450   20.3830 C   0  0  0  0  0  2  0  0  0  0  0  0
  -29.5480  -24.7560   20.7970 C   0  0  0  0  0  3  0  0  0  0  0  0
  -29.0580  -22.2660   21.4340 N   0  0  2  0  0  4  0  0  0  0  0  0
  -30.0250  -21.9920   21.5320 H   0  0  0  0  0  0  0  0  0  0  0  0
  -28.2850  -21.0230   21.0860 C   0  0  0  0  0  2  0  0  0  0  0  0
  -28.8900  -19.3120   19.2950 C   0  0  0  0  0  3  0  0  0  0  0  0
  -29.3930  -18.0540   18.9070 C   0  0  0  0  0  3  0  0  0  0  0  0
  -29.7580  -18.9440   21.5220 C   0  0  0  0  0  3  0  0  0  0  0  0
  -29.0500  -19.7720   20.6150 C   0  0  0  0  0  0  0  0  0  0  0  0
  -30.1020  -17.2040   19.8030 C   0  0  0  0  0  0  0  0  0  0  0  0
  -30.2730  -17.6780   21.1350 C   0  0  0  0  0  0  0  0  0  0  0  0
  -30.9210  -16.9310   22.0580 F   0  0  0  0  0  0  0  0  0  0  0  0
  -31.2960  -15.0020   20.0320 C   0  0  0  0  0  0  0  0  0  0  0  0
  -31.0570  -12.6720   19.2890 C   0  0  0  0  0  2  0  0  0  0  0  0
  -30.1180  -12.6140   18.0640 C   0  0  0  0  0  2  0  0  0  0  0  0
  -28.6390  -12.5610   18.4910 C   0  0  0  0  0  2  0  0  0  0  0  0
  -28.2680  -13.5670   19.6170 C   0  0  0  0  0  3  0  0  0  0  0  0
  -29.3280  -13.5910   20.7400 C   0  0  0  0  0  2  0  0  0  0  0  0
  -30.6370  -13.8140   20.1130 N   0  0  0  0  0  0  0  0  0  0  0  0
  -32.5260  -15.0600   19.9720 O   0  0  0  0  0  0  0  0  0  0  0  0
  -30.9700  -15.9330   17.8650 C   0  0  0  0  0  1  0  0  0  0  0  0
  -30.6200  -15.9400   19.3050 N   0  0  0  0  0  0  0  0  0  0  0  0
  -25.9030  -14.2130   20.3980 C   0  0  0  0  0  0  0  0  0  0  0  0
  -24.8220  -13.4590   20.7670 C   0  0  0  0  0  0  0  0  0  0  0  0
  -25.2510  -12.0970   20.7110 C   0  0  0  0  0  0  0  0  0  0  0  0
  -26.9240  -13.3130   20.1340 N   0  0  0  0  0  0  0  0  0  0  0  0
  -26.5370  -12.0350   20.3880 N   0  0  0  0  0  0  0  0  0  0  0  0
  -24.4960  -10.8490   20.8870 C   0  0  0  0  0  0  0  0  0  0  0  0
  -24.8770   -9.8860   21.8490 C   0  0  0  0  0  3  0  0  0  0  0  0
  -24.1250   -8.7020   22.0130 C   0  0  0  0  0  3  0  0  0  0  0  0
  -22.9790   -8.4730   21.2150 C   0  0  0  0  0  0  0  0  0  0  0  0
  -22.6170   -9.4240   20.2440 C   0  0  0  0  0  3  0  0  0  0  0  0
  -23.3700  -10.5980   20.0770 C   0  0  0  0  0  3  0  0  0  0  0  0
  -22.2010   -7.3420   21.2890 O   0  0  0  0  0  0  0  0  0  0  0  0
  -21.9920   -6.6880   22.4770 C   0  0  0  0  0  0  0  0  0  0  0  0
  -21.4360   -7.3420   23.5990 C   0  0  0  0  0  3  0  0  0  0  0  0
  -21.1720   -6.6160   24.7780 C   0  0  0  0  0  3  0  0  0  0  0  0
  -21.4540   -5.2380   24.8340 C   0  0  0  0  0  0  0  0  0  0  0  0
  -22.0020   -4.5840   23.7160 C   0  0  0  0  0  3  0  0  0  0  0  0
  -22.2660   -5.3080   22.5400 C   0  0  0  0  0  0  0  0  0  0  0  0
  -22.7760   -4.6680   21.4600 F   0  0  0  0  0  0  0  0  0  0  0  0
  -21.1930   -4.5390   25.9630 F   0  0  0  0  0  0  0  0  0  0  0  0
  -23.4380  -13.9640   21.0600 C   0  0  0  0  0  0  0  0  0  0  0  0
  -22.7120  -13.2880   21.9430 N   0  0  0  0  0  0  0  0  0  0  0  0
  -23.0080  -14.9940   20.5410 O   0  0  0  0  0  0  0  0  0  0  0  0
  -23.0710  -12.4570   22.3900 H   0  0  0  0  0  0  0  0  0  0  0  0
  -21.7820  -13.6080   22.1770 H   0  0  0  0  0  0  0  0  0  0  0  0
  -26.0970  -15.5830   20.2410 N   0  0  0  0  0  0  0  0  0  0  0  0
  -25.3450  -16.2490   20.3720 H   0  0  0  0  0  0  0  0  0  0  0  0
  -26.9560  -16.0110   19.9200 H   0  0  0  0  0  0  0  0  0  0  0  0
  -29.3140  -25.8450   19.6970 C   0  0  0  0  0  2  0  0  0  0  0  0
  -29.1810  -27.2240   20.1560 O   0  0  0  0  0  0  0  0  0  0  0  0
  -24.8340  -31.9240   23.3430 C   0  0  0  0  0  0  0  0  0  0  0  0
  -27.9520  -27.8810   20.1080 C   0  0  0  0  0  0  0  0  0  0  0  0
  -23.8160  -30.5530   21.5570 C   0  0  0  0  0  3  0  0  0  0  0  0
  -25.4490  -29.2410   20.1010 C   0  0  0  0  0  0  0  0  0  0  0  0
  -26.3180  -31.1090   21.5060 C   0  0  0  0  0  2  0  0  0  0  0  0
  -26.5390  -29.7920   20.7830 C   0  0  0  0  0  0  0  0  0  0  0  0
  -27.7890  -29.1210   20.7830 C   0  0  0  0  0  3  0  0  0  0  0  0
  -26.8340  -27.3740   19.3980 C   0  0  0  0  0  3  0  0  0  0  0  0
  -25.5940  -28.0340   19.4060 C   0  0  0  0  0  3  0  0  0  0  0  0
  -24.1400  -30.0000   20.1450 C   0  0  0  0  0  2  0  0  0  0  0  0
  -25.0040  -31.2090   22.1950 N   0  0  0  0  0  0  0  0  0  0  0  0
  -23.7110  -32.0700   23.8480 O   0  0  0  0  0  0  0  0  0  0  0  0
  -23.2120  -29.4150   22.4110 C   0  0  0  0  0  0  0  0  0  0  0  0
  -21.9070  -29.1550   22.2280 N   0  0  0  0  0  0  0  0  0  0  0  0
  -23.9150  -28.7750   23.1980 O   0  0  0  0  0  0  0  0  0  0  0  0
  -21.3960  -29.7260   21.5680 H   0  0  0  0  0  0  0  0  0  0  0  0
  -18.6050  -27.7240   22.5570 C   0  0  0  0  0  0  0  0  0  0  0  0
  -21.1390  -28.1080   22.9000 C   0  0  0  0  0  3  0  0  0  0  0  0
  -21.3360  -26.7420   22.2030 C   0  0  0  0  0  2  0  0  0  0  0  0
  -20.2690  -26.4440   21.1440 C   0  0  0  0  0  2  0  0  0  0  0  0
  -18.8720  -26.4510   21.7710 C   0  0  0  0  0  2  0  0  0  0  0  0
  -19.6690  -28.5090   23.0750 C   0  0  0  0  0  0  0  0  0  0  0  0
  -19.3660  -29.7000   23.7700 C   0  0  0  0  0  3  0  0  0  0  0  0
  -18.0310  -30.1080   23.9530 C   0  0  0  0  0  3  0  0  0  0  0  0
  -16.9810  -29.3190   23.4530 C   0  0  0  0  0  3  0  0  0  0  0  0
  -17.2690  -28.1290   22.7610 C   0  0  0  0  0  3  0  0  0  0  0  0
  -26.0340  -32.6100   24.0640 C   0  0  0  0  0  3  0  0  0  0  0  0
  -26.4770  -31.8650   25.3810 C   0  0  1  0  0  0  0  0  0  0  0  0
  -25.3090  -31.5780   26.3540 C   0  0  0  0  0  1  0  0  0  0  0  0
  -27.1520  -30.5140   25.0440 C   0  0  0  0  0  1  0  0  0  0  0  0
  -27.5310  -32.7110   26.1340 C   0  0  0  0  0  1  0  0  0  0  0  0
  -25.6410  -33.9950   24.3570 N   0  0  0  0  0  0  0  0  0  0  0  0
  -25.9780  -35.0560   23.6120 C   0  0  0  0  0  0  0  0  0  0  0  0
  -26.7250  -34.9770   22.6320 O   0  0  0  0  0  0  0  0  0  0  0  0
  -24.9830  -34.1270   25.1110 H   0  0  0  0  0  0  0  0  0  0  0  0
  -24.1950  -36.7580   23.1210 C   0  0  0  0  0  1  0  0  0  0  0  0
  -25.3970  -36.4230   24.0180 C   0  0  0  0  0  3  0  0  0  0  0  0
  -27.4260  -37.4220   24.9790 C   0  0  0  0  0  1  0  0  0  0  0  0
  -26.3850  -37.5230   23.9590 N   0  0  0  0  0  0  0  0  0  0  0  0
  -25.9260  -38.4260   24.0630 H   0  0  0  0  0  0  0  0  0  0  0  0
  2  1  1  0
  3  1  1  0
  4  5  1  0
  4  6  1  0
  5 54  1  0
  5  2  1  0
  6  7  1  1
  6  3  1  0
  8  6  1  0
  9 12  1  0
 10  9  2  0
 10 13  1  0
 12  8  1  0
 12 11  2  0
 13 14  2  0
 14 11  1  0
 14 15  1  0
 16 22  1  0
 17 22  1  0
 18 19  1  0
 18 17  1  0
 20 19  1  0
 20 29  1  0
 20 21  1  0
 22 21  1  0
 23 16  2  0
 24 25  1  0
 25 13  1  0
 25 16  1  0
 26 27  2  0
 27 46  1  0
 28 27  1  0
 28 31  1  0
 29 30  1  0
 29 26  1  0
 30 28  2  0
 31 32  1  0
 32 33  2  0
 34 37  1  0
 34 33  1  0
 35 34  2  0
 36 35  1  0
 36 31  2  0
 37 38  1  0
 38 43  2  0
 38 39  1  0
 39 40  2  0
 40 41  1  0
 41 45  1  0
 42 41  2  0
 43 42  1  0
 44 43  1  0
 46 47  1  0
 47 50  1  0
 47 49  1  0
 48 46  2  0
 51 52  1  0
 51 26  1  0
 53 51  1  0
 54 55  1  0
 56 67  2  0
 57 55  1  0
 57 62  1  0
 58 66  1  0
 58 68  1  0
 59 65  1  0
 59 61  1  0
 60 66  1  0
 61 62  2  0
 61 60  1  0
 63 64  1  0
 63 57  2  0
 64 59  2  0
 65 58  1  0
 66 56  1  0
 68 70  2  0
 69 68  1  0
 71 69  1  0
 72 81  2  0
 72 77  1  0
 73 69  1  0
 73 77  1  0
 74 73  1  0
 75 76  1  0
 75 74  1  0
 76 72  1  0
 77 78  2  0
 78 79  1  0
 80 79  2  0
 81 80  1  0
 82 56  1  0
 82 87  1  0
 82 83  1  0
 83 86  1  1
 83 84  1  0
 85 83  1  0
 87 90  1  0
 88 92  1  0
 88 87  1  0
 89 88  2  0
 92 91  1  0
 94 92  1  0
 94 95  1  0
 94 93  1  0
M  ISO  4  16 100  25 100  54 101  55 101
M  END
>  <TORSDO>  (28) 
F 19

>  <SCORE>  (28) 
-11.957

>  <name>  (28) 
28

>  <ligand_id>  (28) 
28

>  <original_smiles>  (28) 
[H]c1c([H])c([H])c2c(c1[H])C([H])([H])C([H])([H])C([H])([H])C2([H])N([H])C(=O)C1([H])N(C(=O)C([H])(N([H])C(=O)C([H])(N([H])C([H])([H])[H])C([H])([H])[H])C(C([H])([H])[H])(C([H])([H])[H])C([H])([H])[H])C([H])([H])c2c([H])c(OC([H])([H])C3([H])C([H])([H])C([H])([H])C([H])([H])[N+]([H])(C([H])([H])c4c([H])c([H])c(N(C(=O)N5C([H])([H])C([H])([H])C([H])([H])C([H])(n6nc(-c7c([H])c([H])c(Oc8c([H])c([H])c(F)c([H])c8F)c([H])c7[H])c(C(=O)N([H])[H])c6N([H])[H])C5([H])[H])C([H])([H])[H])c(F)c4[H])C3([H])[H])c([H])c([H])c2C1([H])[H]

>  <smiles>  (28) 
[H]c1c([H])c([H])c2c(c1[H])C([H])([H])C([H])([H])C([H])([H])C2([H])N([H])C(=O)C1([H])N(C(=O)C([H])(N([H])C(=O)C([H])(N([H])C([H])([H])[H])C([H])([H])[H])C(C([H])([H])[H])(C([H])([H])[H])C([H])([H])[H])C([H])([H])c2c([H])c(OC([H])([H])C3([H])C([H])([H])C([H])([H])C([H])([H])[N+]([H])(C([H])([H])c4c([H])c([H])c(N(C(=O)N5C([H])([H])C([H])([H])C([H])([H])C([H])(n6nc(-c7c([H])c([H])c(Oc8c([H])c([H])c(F)c([H])c8F)c([H])c7[H])c(C(=O)N([H])[H])c6N([H])[H])C5([H])[H])C([H])([H])[H])c(F)c4[H])C3([H])[H])c([H])c([H])c2C1([H])[H]

$$$$
29:0:0
     RDKit          3D

 90 99  0  0  1  0  0  0  0  0999 V2000
  -30.1840  -20.2350   20.9770 C   0  0  0  0  0  3  0  0  0  0  0  0
  -30.4220  -18.7790   20.9390 C   0  0  0  0  0  3  0  0  0  0  0  0
  -28.2660  -19.9730   19.7460 C   0  0  0  0  0  3  0  0  0  0  0  0
  -28.4560  -18.5220   19.7060 C   0  0  0  0  0  0  0  0  0  0  0  0
  -29.0680  -20.9720   20.4030 C   0  0  0  0  0  0  0  0  0  0  0  0
  -29.5570  -17.8010   20.3250 C   0  0  0  0  0  0  0  0  0  0  0  0
  -27.3760  -17.7600   18.9480 C   0  0  0  0  0  1  0  0  0  0  0  0
  -30.4600  -15.1040   20.2910 C   0  0  0  0  0  0  0  0  0  0  0  0
  -30.3940  -12.7240   19.3540 C   0  0  0  0  0  2  0  0  0  0  0  0
  -29.4410  -12.6510   18.1380 C   0  0  0  0  0  2  0  0  0  0  0  0
  -27.9900  -12.4090   18.5970 C   0  0  0  0  0  2  0  0  0  0  0  0
  -27.5860  -13.3280   19.7760 C   0  0  0  0  0  3  0  0  0  0  0  0
  -28.6590  -13.3660   20.8830 C   0  0  0  0  0  2  0  0  0  0  0  0
  -29.9080  -13.8130   20.2530 N   0  0  0  0  0  0  0  0  0  0  0  0
  -31.6610  -15.1940   20.0200 O   0  0  0  0  0  0  0  0  0  0  0  0
  -29.5870  -16.2390   20.4260 N   0  0  0  0  0  0  0  0  0  0  0  0
  -28.6550  -15.8800   20.5410 H   0  0  0  0  0  0  0  0  0  0  0  0
  -25.2180  -13.8890   20.5660 C   0  0  0  0  0  0  0  0  0  0  0  0
  -24.1630  -13.1070   20.9420 C   0  0  0  0  0  0  0  0  0  0  0  0
  -24.6300  -11.7570   20.8830 C   0  0  0  0  0  0  0  0  0  0  0  0
  -26.2600  -13.0170   20.2930 N   0  0  0  0  0  0  0  0  0  0  0  0
  -25.9170  -11.7300   20.5520 N   0  0  0  0  0  0  0  0  0  0  0  0
  -23.9080  -10.4920   21.0640 C   0  0  0  0  0  0  0  0  0  0  0  0
  -24.3470   -9.5160   21.9880 C   0  0  0  0  0  3  0  0  0  0  0  0
  -23.6220   -8.3170   22.1570 C   0  0  0  0  0  3  0  0  0  0  0  0
  -22.4460   -8.0860   21.4050 C   0  0  0  0  0  0  0  0  0  0  0  0
  -22.0260   -9.0500   20.4710 C   0  0  0  0  0  3  0  0  0  0  0  0
  -22.7510  -10.2400   20.2970 C   0  0  0  0  0  3  0  0  0  0  0  0
  -21.6930   -6.9390   21.4880 O   0  0  0  0  0  0  0  0  0  0  0  0
  -21.6360   -6.1970   22.6390 C   0  0  0  0  0  0  0  0  0  0  0  0
  -21.1740   -6.7440   23.8560 C   0  0  0  0  0  3  0  0  0  0  0  0
  -21.0620   -5.9290   24.9990 C   0  0  0  0  0  3  0  0  0  0  0  0
  -21.4060   -4.5650   24.9280 C   0  0  0  0  0  0  0  0  0  0  0  0
  -21.8630   -4.0160   23.7170 C   0  0  0  0  0  3  0  0  0  0  0  0
  -21.9740   -4.8280   22.5740 C   0  0  0  0  0  0  0  0  0  0  0  0
  -22.3960   -4.2910   21.4040 F   0  0  0  0  0  0  0  0  0  0  0  0
  -21.2910   -3.7780   26.0220 F   0  0  0  0  0  0  0  0  0  0  0  0
  -22.7690  -13.5780   21.2350 C   0  0  0  0  0  0  0  0  0  0  0  0
  -22.0570  -12.8700   22.1040 N   0  0  0  0  0  0  0  0  0  0  0  0
  -22.3240  -14.6110   20.7330 O   0  0  0  0  0  0  0  0  0  0  0  0
  -22.4360  -12.0350   22.5250 H   0  0  0  0  0  0  0  0  0  0  0  0
  -21.1240  -13.1670   22.3540 H   0  0  0  0  0  0  0  0  0  0  0  0
  -25.3710  -15.2620   20.4030 N   0  0  0  0  0  0  0  0  0  0  0  0
  -24.5800  -15.8900   20.5070 H   0  0  0  0  0  0  0  0  0  0  0  0
  -26.1510  -15.6820   19.9230 H   0  0  0  0  0  0  0  0  0  0  0  0
  -28.2180  -23.4690   19.4660 C   0  0  0  0  0  2  0  0  0  0  0  0
  -29.1520  -23.6440   21.3080 C   0  0  0  0  0  2  0  0  0  0  0  0
  -28.1040  -24.6340   20.5740 C   0  0  0  0  0  3  0  0  0  0  0  0
  -28.6650  -22.4770   20.4980 N   0  0  0  0  0  0  0  0  0  0  0  0
  -28.3090  -26.1910   20.3950 O   0  0  0  0  0  0  0  0  0  0  0  0
  -24.6230  -31.9310   23.2740 C   0  0  0  0  0  0  0  0  0  0  0  0
  -27.2350  -27.1640   20.3330 C   0  0  0  0  0  0  0  0  0  0  0  0
  -23.4380  -30.5200   21.6360 C   0  0  0  0  0  3  0  0  0  0  0  0
  -24.9020  -28.9210   20.2450 C   0  0  0  0  0  0  0  0  0  0  0  0
  -25.9930  -30.7790   21.4900 C   0  0  0  0  0  2  0  0  0  0  0  0
  -26.0760  -29.3750   20.8570 C   0  0  0  0  0  0  0  0  0  0  0  0
  -27.2420  -28.5160   20.8770 C   0  0  0  0  0  3  0  0  0  0  0  0
  -26.0300  -26.8090   19.6870 C   0  0  0  0  0  3  0  0  0  0  0  0
  -24.8920  -27.6520   19.6400 C   0  0  0  0  0  3  0  0  0  0  0  0
  -23.6770  -29.8260   20.2670 C   0  0  0  0  0  2  0  0  0  0  0  0
  -24.7050  -31.0990   22.1900 N   0  0  0  0  0  0  0  0  0  0  0  0
  -23.5330  -32.2220   23.7900 O   0  0  0  0  0  0  0  0  0  0  0  0
  -22.7470  -29.5260   22.6030 C   0  0  0  0  0  0  0  0  0  0  0  0
  -21.4170  -29.3620   22.4720 N   0  0  0  0  0  0  0  0  0  0  0  0
  -23.4080  -28.9040   23.4390 O   0  0  0  0  0  0  0  0  0  0  0  0
  -20.9400  -29.9160   21.7760 H   0  0  0  0  0  0  0  0  0  0  0  0
  -18.0280  -28.1860   22.9720 C   0  0  0  0  0  0  0  0  0  0  0  0
  -20.5880  -28.4370   23.2490 C   0  0  0  0  0  3  0  0  0  0  0  0
  -20.6840  -26.9990   22.6850 C   0  0  0  0  0  2  0  0  0  0  0  0
  -19.5850  -26.6760   21.6670 C   0  0  0  0  0  2  0  0  0  0  0  0
  -18.2010  -26.8320   22.3050 C   0  0  0  0  0  2  0  0  0  0  0  0
  -19.1490  -28.9460   23.4020 C   0  0  0  0  0  0  0  0  0  0  0  0
  -18.9320  -30.2100   23.9900 C   0  0  0  0  0  3  0  0  0  0  0  0
  -17.6280  -30.7160   24.1500 C   0  0  0  0  0  3  0  0  0  0  0  0
  -16.5230  -29.9560   23.7300 C   0  0  0  0  0  3  0  0  0  0  0  0
  -16.7230  -28.6920   23.1490 C   0  0  0  0  0  3  0  0  0  0  0  0
  -25.8960  -32.5720   23.9080 C   0  0  0  0  0  3  0  0  0  0  0  0
  -26.3890  -31.8160   25.2030 C   0  0  1  0  0  0  0  0  0  0  0  0
  -25.2800  -31.5990   26.2590 C   0  0  0  0  0  1  0  0  0  0  0  0
  -26.9740  -30.4320   24.8430 C   0  0  0  0  0  1  0  0  0  0  0  0
  -27.5320  -32.6170   25.8730 C   0  0  0  0  0  1  0  0  0  0  0  0
  -25.5860  -33.9760   24.2210 N   0  0  0  0  0  0  0  0  0  0  0  0
  -25.9150  -35.0220   23.4510 C   0  0  0  0  0  0  0  0  0  0  0  0
  -26.5760  -34.9060   22.4160 O   0  0  0  0  0  0  0  0  0  0  0  0
  -24.9920  -34.1380   25.0210 H   0  0  0  0  0  0  0  0  0  0  0  0
  -24.1770  -36.8130   23.1060 C   0  0  0  0  0  1  0  0  0  0  0  0
  -25.4340  -36.4170   23.8980 C   0  0  0  0  0  3  0  0  0  0  0  0
  -27.5820  -37.3210   24.6750 C   0  0  0  0  0  1  0  0  0  0  0  0
  -26.4610  -37.4720   23.7510 N   0  0  0  0  0  0  0  0  0  0  0  0
  -26.0550  -38.3930   23.8950 H   0  0  0  0  0  0  0  0  0  0  0  0
  2  1  1  0
  3  5  1  0
  4  3  2  0
  4  6  1  0
  5 49  1  0
  5  1  2  0
  6 16  1  0
  6  2  2  0
  7  4  1  0
  8 16  1  0
  9 14  1  0
 10 11  1  0
 10  9  1  0
 12 11  1  0
 12 21  1  0
 12 13  1  0
 14  8  1  0
 14 13  1  0
 15  8  2  0
 16 17  1  0
 18 19  2  0
 19 38  1  0
 20 19  1  0
 20 23  1  0
 21 22  1  0
 21 18  1  0
 22 20  2  0
 23 24  1  0
 24 25  2  0
 26 29  1  0
 26 25  1  0
 27 26  2  0
 28 27  1  0
 28 23  2  0
 29 30  1  0
 30 31  1  0
 31 32  2  0
 33 32  1  0
 33 37  1  0
 34 33  2  0
 35 30  2  0
 35 34  1  0
 36 35  1  0
 38 39  1  0
 39 42  1  0
 39 41  1  0
 40 38  2  0
 43 44  1  0
 43 18  1  0
 45 43  1  0
 46 49  1  0
 46 48  1  0
 48 50  1  0
 48 47  1  0
 49 47  1  0
 51 62  2  0
 52 50  1  0
 52 57  1  0
 53 61  1  0
 53 63  1  0
 54 60  1  0
 54 56  1  0
 55 61  1  0
 56 57  2  0
 56 55  1  0
 58 52  2  0
 59 58  1  0
 59 54  2  0
 60 53  1  0
 61 51  1  0
 63 65  2  0
 64 63  1  0
 66 64  1  0
 67 76  2  0
 67 72  1  0
 68 64  1  0
 68 72  1  0
 69 68  1  0
 70 71  1  0
 70 69  1  0
 71 67  1  0
 72 73  2  0
 73 74  1  0
 75 74  2  0
 76 75  1  0
 77 51  1  0
 77 82  1  0
 77 78  1  0
 78 81  1  1
 78 79  1  0
 80 78  1  0
 82 85  1  0
 83 87  1  0
 83 82  1  0
 84 83  2  0
 87 86  1  0
 89 90  1  0
 89 87  1  0
 89 88  1  0
M  ISO  4   8 100  16 100  48 101  50 101
M  END
>  <TORSDO>  (29) 
F 17

>  <SCORE>  (29) 
-15.266

>  <name>  (29) 
29

>  <ligand_id>  (29) 
29

>  <original_smiles>  (29) 
[H]c1c([H])c([H])c2c(c1[H])C([H])([H])C([H])([H])C([H])([H])C2([H])N([H])C(=O)C1([H])N(C(=O)C([H])(N([H])C(=O)C([H])(N([H])C([H])([H])[H])C([H])([H])[H])C(C([H])([H])[H])(C([H])([H])[H])C([H])([H])[H])C([H])([H])c2c([H])c(OC3([H])C([H])([H])N(c4c([H])c([H])c(N([H])C(=O)N5C([H])([H])C([H])([H])C([H])([H])C([H])(n6nc(-c7c([H])c([H])c(Oc8c([H])c([H])c(F)c([H])c8F)c([H])c7[H])c(C(=O)N([H])[H])c6N([H])[H])C5([H])[H])c(C([H])([H])[H])c4[H])C3([H])[H])c([H])c([H])c2C1([H])[H]

>  <smiles>  (29) 
[H]c1c([H])c([H])c2c(c1[H])C([H])([H])C([H])([H])C([H])([H])C2([H])N([H])C(=O)C1([H])N(C(=O)C([H])(N([H])C(=O)C([H])(N([H])C([H])([H])[H])C([H])([H])[H])C(C([H])([H])[H])(C([H])([H])[H])C([H])([H])[H])C([H])([H])c2c([H])c(OC3([H])C([H])([H])N(c4c([H])c([H])c(N([H])C(=O)N5C([H])([H])C([H])([H])C([H])([H])C([H])(n6nc(-c7c([H])c([H])c(Oc8c([H])c([H])c(F)c([H])c8F)c([H])c7[H])c(C(=O)N([H])[H])c6N([H])[H])C5([H])[H])c(C([H])([H])[H])c4[H])C3([H])[H])c([H])c([H])c2C1([H])[H]

$$$$
30:0:0
     RDKit          3D

 94102  0  0  1  0  0  0  0  0999 V2000
  -28.6550  -20.1570   20.0280 C   0  0  0  0  0  2  0  0  0  0  0  0
  -29.3600  -21.4800   19.9000 N   0  0  0  0  0  4  0  0  0  0  0  0
  -30.1230  -21.3190   19.2630 H   0  0  0  0  0  0  0  0  0  0  0  0
  -29.7640  -21.7250   20.7880 H   0  0  0  0  0  0  0  0  0  0  0  0
  -28.5790  -22.6500   19.3560 C   0  0  0  0  0  2  0  0  0  0  0  0
  -28.6700  -24.0120   20.1540 C   0  0  0  0  0  3  0  0  0  0  0  0
  -28.3700  -25.3120   19.3110 C   0  0  0  0  0  3  0  0  0  0  0  0
  -28.2840  -26.5980   20.0210 O   0  0  0  0  0  0  0  0  0  0  0  0
  -24.6080  -31.9050   23.1890 C   0  0  0  0  0  0  0  0  0  0  0  0
  -27.1220  -27.3770   20.0250 C   0  0  0  0  0  0  0  0  0  0  0  0
  -23.3550  -30.5240   21.5720 C   0  0  0  0  0  3  0  0  0  0  0  0
  -24.7560  -28.9750   20.1070 C   0  0  0  0  0  0  0  0  0  0  0  0
  -25.8900  -30.8330   21.3300 C   0  0  0  0  0  2  0  0  0  0  0  0
  -25.9420  -29.4620   20.6700 C   0  0  0  0  0  0  0  0  0  0  0  0
  -27.1240  -28.6710   20.6230 C   0  0  0  0  0  3  0  0  0  0  0  0
  -25.8970  -26.9210   19.4790 C   0  0  0  0  0  3  0  0  0  0  0  0
  -24.7320  -27.7060   19.5150 C   0  0  0  0  0  3  0  0  0  0  0  0
  -23.5280  -29.8550   20.1850 C   0  0  0  0  0  2  0  0  0  0  0  0
  -24.6370  -31.1050   22.0850 N   0  0  0  0  0  0  0  0  0  0  0  0
  -23.5410  -32.1880   23.7500 O   0  0  0  0  0  0  0  0  0  0  0  0
  -22.7110  -29.5030   22.5400 C   0  0  0  0  0  0  0  0  0  0  0  0
  -21.3850  -29.3210   22.4270 N   0  0  0  0  0  0  0  0  0  0  0  0
  -23.4040  -28.8800   23.3480 O   0  0  0  0  0  0  0  0  0  0  0  0
  -20.8900  -29.8760   21.7430 H   0  0  0  0  0  0  0  0  0  0  0  0
  -18.0180  -28.1180   22.9600 C   0  0  0  0  0  0  0  0  0  0  0  0
  -20.5780  -28.3810   23.2040 C   0  0  0  0  0  3  0  0  0  0  0  0
  -20.6800  -26.9480   22.6290 C   0  0  0  0  0  2  0  0  0  0  0  0
  -19.5640  -26.6090   21.6370 C   0  0  0  0  0  2  0  0  0  0  0  0
  -18.1900  -26.7630   22.2950 C   0  0  0  0  0  2  0  0  0  0  0  0
  -19.1400  -28.8810   23.3760 C   0  0  0  0  0  0  0  0  0  0  0  0
  -18.9250  -30.1450   23.9700 C   0  0  0  0  0  3  0  0  0  0  0  0
  -17.6220  -30.6440   24.1470 C   0  0  0  0  0  3  0  0  0  0  0  0
  -16.5150  -29.8810   23.7430 C   0  0  0  0  0  3  0  0  0  0  0  0
  -16.7130  -28.6180   23.1550 C   0  0  0  0  0  3  0  0  0  0  0  0
  -25.9120  -32.5230   23.7830 C   0  0  0  0  0  3  0  0  0  0  0  0
  -25.6180  -33.9180   24.1400 N   0  0  0  0  0  0  0  0  0  0  0  0
  -25.9470  -34.9820   23.3940 C   0  0  0  0  0  0  0  0  0  0  0  0
  -26.6020  -34.8910   22.3530 O   0  0  0  0  0  0  0  0  0  0  0  0
  -25.0430  -34.0650   24.9570 H   0  0  0  0  0  0  0  0  0  0  0  0
  -24.2340  -36.7950   23.0840 C   0  0  0  0  0  1  0  0  0  0  0  0
  -25.4760  -36.3660   23.8820 C   0  0  0  0  0  3  0  0  0  0  0  0
  -27.6210  -37.2120   24.7190 C   0  0  0  0  0  1  0  0  0  0  0  0
  -26.5190  -37.4100   23.7820 N   0  0  0  0  0  0  0  0  0  0  0  0
  -26.1220  -38.3330   23.9460 H   0  0  0  0  0  0  0  0  0  0  0  0
  -26.4560  -31.7360   25.0370 C   0  0  1  0  0  0  0  0  0  0  0  0
  -25.3830  -31.4910   26.1250 C   0  0  0  0  0  1  0  0  0  0  0  0
  -27.0280  -30.3650   24.6140 C   0  0  0  0  0  1  0  0  0  0  0  0
  -27.6270  -32.5180   25.6810 C   0  0  0  0  0  1  0  0  0  0  0  0
  -29.6080  -18.9210   19.8570 C   0  0  0  0  0  0  0  0  0  0  0  0
  -29.8800  -18.5540   18.7090 O   0  0  0  0  0  0  0  0  0  0  0  0
  -30.9930  -18.6010   23.3820 C   0  0  0  0  0  3  0  0  0  0  0  0
  -31.2990  -17.2430   23.5200 C   0  0  0  0  0  3  0  0  0  0  0  0
  -30.4470  -19.0740   22.1780 C   0  0  0  0  0  3  0  0  0  0  0  0
  -31.0660  -16.3680   22.4480 C   0  0  0  0  0  3  0  0  0  0  0  0
  -30.1670  -18.2170   21.0820 C   0  0  0  0  0  0  0  0  0  0  0  0
  -30.5190  -16.8110   21.2150 C   0  0  0  0  0  0  0  0  0  0  0  0
  -30.9750  -14.6370   20.0440 C   0  0  0  0  0  0  0  0  0  0  0  0
  -30.6260  -12.4260   18.9670 C   0  0  0  0  0  2  0  0  0  0  0  0
  -29.6450  -12.5830   17.7860 C   0  0  0  0  0  2  0  0  0  0  0  0
  -28.1810  -12.4810   18.2660 C   0  0  0  0  0  2  0  0  0  0  0  0
  -27.8970  -13.3710   19.5050 C   0  0  0  0  0  3  0  0  0  0  0  0
  -28.9860  -13.1890   20.5830 C   0  0  0  0  0  2  0  0  0  0  0  0
  -30.2800  -13.4670   19.9470 N   0  0  0  0  0  0  0  0  0  0  0  0
  -32.1520  -14.7320   19.6880 O   0  0  0  0  0  0  0  0  0  0  0  0
  -30.2250  -15.7530   20.2810 N   0  0  0  0  0  0  0  0  0  0  0  0
  -29.2390  -15.5910   20.1510 H   0  0  0  0  0  0  0  0  0  0  0  0
  -25.5590  -14.0700   20.3110 C   0  0  0  0  0  0  0  0  0  0  0  0
  -24.4760  -13.3390   20.7140 C   0  0  0  0  0  0  0  0  0  0  0  0
  -24.8820  -11.9690   20.6640 C   0  0  0  0  0  0  0  0  0  0  0  0
  -26.5580  -13.1480   20.0390 N   0  0  0  0  0  0  0  0  0  0  0  0
  -26.1590  -11.8790   20.3140 N   0  0  0  0  0  0  0  0  0  0  0  0
  -24.1120  -10.7370   20.8720 C   0  0  0  0  0  0  0  0  0  0  0  0
  -24.5180   -9.7610   21.8090 C   0  0  0  0  0  3  0  0  0  0  0  0
  -23.7490   -8.5920   22.0040 C   0  0  0  0  0  3  0  0  0  0  0  0
  -22.5610   -8.3920   21.2620 C   0  0  0  0  0  0  0  0  0  0  0  0
  -22.1760   -9.3550   20.3130 C   0  0  0  0  0  3  0  0  0  0  0  0
  -22.9440  -10.5140   20.1160 C   0  0  0  0  0  3  0  0  0  0  0  0
  -21.7650   -7.2780   21.3670 O   0  0  0  0  0  0  0  0  0  0  0  0
  -21.6710   -6.5690   22.5370 C   0  0  0  0  0  0  0  0  0  0  0  0
  -21.2570   -7.1720   23.7430 C   0  0  0  0  0  3  0  0  0  0  0  0
  -21.1080   -6.3910   24.9070 C   0  0  0  0  0  3  0  0  0  0  0  0
  -21.3620   -5.0070   24.8640 C   0  0  0  0  0  0  0  0  0  0  0  0
  -21.7670   -4.4030   23.6600 C   0  0  0  0  0  3  0  0  0  0  0  0
  -21.9180   -5.1820   22.5000 C   0  0  0  0  0  0  0  0  0  0  0  0
  -22.2890   -4.5900   21.3390 F   0  0  0  0  0  0  0  0  0  0  0  0
  -21.2110   -4.2550   25.9790 F   0  0  0  0  0  0  0  0  0  0  0  0
  -23.1070  -13.8670   21.0300 C   0  0  0  0  0  0  0  0  0  0  0  0
  -22.3880  -13.2050   21.9300 N   0  0  0  0  0  0  0  0  0  0  0  0
  -22.6860  -14.9030   20.5140 O   0  0  0  0  0  0  0  0  0  0  0  0
  -22.7430  -12.3670   22.3670 H   0  0  0  0  0  0  0  0  0  0  0  0
  -21.4670  -13.5340   22.1850 H   0  0  0  0  0  0  0  0  0  0  0  0
  -25.7710  -15.4330   20.1250 N   0  0  0  0  0  0  0  0  0  0  0  0
  -25.0220  -16.1070   20.2460 H   0  0  0  0  0  0  0  0  0  0  0  0
  -26.6050  -15.8390   19.7240 H   0  0  0  0  0  0  0  0  0  0  0  0
  2  1  1  0
  2  4  1  0
  3  2  1  0
  5  2  1  0
  5  6  1  0
  7  8  1  0
  7  6  2  0
  8 10  1  0
  9 20  2  0
 10 15  1  0
 11 19  1  0
 11 21  1  0
 12 18  1  0
 12 14  1  0
 13 19  1  0
 14 13  1  0
 15 14  2  0
 16 17  1  0
 16 10  2  0
 17 12  2  0
 18 11  1  0
 19  9  1  0
 21 23  2  0
 22 21  1  0
 24 22  1  0
 25 34  2  0
 25 30  1  0
 26 22  1  0
 26 30  1  0
 27 26  1  0
 28 29  1  0
 28 27  1  0
 29 25  1  0
 30 31  2  0
 31 32  1  0
 33 32  2  0
 34 33  1  0
 35  9  1  0
 35 36  1  0
 35 45  1  0
 36 39  1  0
 37 41  1  0
 37 36  1  0
 38 37  2  0
 41 40  1  0
 43 41  1  0
 43 44  1  0
 43 42  1  0
 45 48  1  1
 45 46  1  0
 47 45  1  0
 49  1  1  0
 49 55  1  0
 50 49  2  0
 51 52  1  0
 53 51  2  0
 54 52  2  0
 55 56  2  0
 55 53  1  0
 56 54  1  0
 57 65  1  0
 58 63  1  0
 59 60  1  0
 59 58  1  0
 61 60  1  0
 61 70  1  0
 61 62  1  0
 63 57  1  0
 63 62  1  0
 64 57  2  0
 65 56  1  0
 66 65  1  0
 67 68  2  0
 68 87  1  0
 69 68  1  0
 69 72  1  0
 70 67  1  0
 70 71  1  0
 71 69  2  0
 72 73  1  0
 73 74  2  0
 75 78  1  0
 75 74  1  0
 76 75  2  0
 77 76  1  0
 77 72  2  0
 78 79  1  0
 79 80  1  0
 80 81  2  0
 82 81  1  0
 82 86  1  0
 83 82  2  0
 84 79  2  0
 84 83  1  0
 85 84  1  0
 87 88  1  0
 88 91  1  0
 88 90  1  0
 89 87  2  0
 92 93  1  0
 92 67  1  0
 94 92  1  0
M  ISO  4   7 101   8 101  57 100  65 100
M  END
>  <TORSDO>  (30) 
F 22

>  <SCORE>  (30) 
-11.333

>  <name>  (30) 
30

>  <ligand_id>  (30) 
30

>  <original_smiles>  (30) 
[H]c1c([H])c([H])c(N([H])C(=O)N2C([H])([H])C([H])([H])C([H])([H])C([H])(n3nc(-c4c([H])c([H])c(Oc5c([H])c([H])c(F)c([H])c5F)c([H])c4[H])c(C(=O)N([H])[H])c3N([H])[H])C2([H])[H])c(C(=O)C([H])([H])[N+]([H])([H])C([H])([H])C([H])([H])C([H])([H])Oc2c([H])c([H])c3c(c2[H])C([H])([H])N(C(=O)C([H])(N([H])C(=O)C([H])(N([H])C([H])([H])[H])C([H])([H])[H])C(C([H])([H])[H])(C([H])([H])[H])C([H])([H])[H])C([H])(C(=O)N([H])C2([H])c4c([H])c([H])c([H])c([H])c4C([H])([H])C([H])([H])C2([H])[H])C3([H])[H])c1[H]

>  <smiles>  (30) 
[H]c1c([H])c([H])c(N([H])C(=O)N2C([H])([H])C([H])([H])C([H])([H])C([H])(n3nc(-c4c([H])c([H])c(Oc5c([H])c([H])c(F)c([H])c5F)c([H])c4[H])c(C(=O)N([H])[H])c3N([H])[H])C2([H])[H])c(C(=O)C([H])([H])[N+]([H])([H])C([H])([H])C([H])([H])C([H])([H])Oc2c([H])c([H])c3c(c2[H])C([H])([H])N(C(=O)C([H])(N([H])C(=O)C([H])(N([H])C([H])([H])[H])C([H])([H])[H])C(C([H])([H])[H])(C([H])([H])[H])C([H])([H])[H])C([H])(C(=O)N([H])C2([H])c4c([H])c([H])c([H])c([H])c4C([H])([H])C([H])([H])C2([H])[H])C3([H])[H])c1[H]

$$$$
31:0:0
     RDKit          3D

 93102  0  0  1  0  0  0  0  0999 V2000
  -28.0520  -23.2860   18.0290 C   0  0  0  0  0  2  0  0  0  0  0  0
  -28.3260  -24.7710   18.3330 C   0  0  0  0  0  2  0  0  0  0  0  0
  -29.1470  -22.3650   18.6080 C   0  0  0  0  0  2  0  0  0  0  0  0
  -29.4860  -24.0320   20.4350 C   0  0  0  0  0  2  0  0  0  0  0  0
  -28.3690  -25.0050   19.8560 C   0  0  0  0  0  3  0  0  0  0  0  0
  -29.3250  -22.5510   20.0710 N   0  0  2  0  0  4  0  0  0  0  0  0
  -28.4630  -22.2470   20.4990 H   0  0  0  0  0  0  0  0  0  0  0  0
  -28.4770  -26.4590   20.1420 O   0  0  0  0  0  0  0  0  0  0  0  0
  -24.6050  -31.6900   23.2520 C   0  0  0  0  0  0  0  0  0  0  0  0
  -27.3310  -27.2750   20.0910 C   0  0  0  0  0  0  0  0  0  0  0  0
  -23.4430  -30.3280   21.5520 C   0  0  0  0  0  3  0  0  0  0  0  0
  -24.9350  -28.8490   20.0990 C   0  0  0  0  0  0  0  0  0  0  0  0
  -25.9790  -30.6920   21.4130 C   0  0  0  0  0  2  0  0  0  0  0  0
  -26.0890  -29.3370   20.7240 C   0  0  0  0  0  0  0  0  0  0  0  0
  -27.2880  -28.5640   20.7090 C   0  0  0  0  0  3  0  0  0  0  0  0
  -26.1440  -26.8400   19.4500 C   0  0  0  0  0  3  0  0  0  0  0  0
  -24.9650  -27.6040   19.4550 C   0  0  0  0  0  3  0  0  0  0  0  0
  -23.6850  -29.7000   20.1550 C   0  0  0  0  0  2  0  0  0  0  0  0
  -24.6930  -30.9190   22.1300 N   0  0  0  0  0  0  0  0  0  0  0  0
  -23.5110  -31.9360   23.7800 O   0  0  0  0  0  0  0  0  0  0  0  0
  -22.7830  -29.2720   22.4700 C   0  0  0  0  0  0  0  0  0  0  0  0
  -21.4650  -29.0660   22.3060 N   0  0  0  0  0  0  0  0  0  0  0  0
  -23.4560  -28.6420   23.2910 O   0  0  0  0  0  0  0  0  0  0  0  0
  -20.9800  -29.6290   21.6210 H   0  0  0  0  0  0  0  0  0  0  0  0
  -18.1080  -27.7740   22.6810 C   0  0  0  0  0  0  0  0  0  0  0  0
  -20.6500  -28.0910   23.0320 C   0  0  0  0  0  3  0  0  0  0  0  0
  -20.8060  -26.6750   22.4300 C   0  0  0  0  0  2  0  0  0  0  0  0
  -19.7410  -26.3460   21.3780 C   0  0  0  0  0  2  0  0  0  0  0  0
  -18.3380  -26.4430   21.9850 C   0  0  0  0  0  2  0  0  0  0  0  0
  -19.1930  -28.5550   23.1590 C   0  0  0  0  0  0  0  0  0  0  0  0
  -18.9250  -29.7990   23.7700 C   0  0  0  0  0  3  0  0  0  0  0  0
  -17.6040  -30.2620   23.9080 C   0  0  0  0  0  3  0  0  0  0  0  0
  -16.5320  -29.4780   23.4460 C   0  0  0  0  0  3  0  0  0  0  0  0
  -16.7850  -28.2350   22.8390 C   0  0  0  0  0  3  0  0  0  0  0  0
  -25.8700  -32.3200   23.9110 C   0  0  0  0  0  3  0  0  0  0  0  0
  -25.5480  -33.7130   24.2520 N   0  0  0  0  0  0  0  0  0  0  0  0
  -25.8610  -34.7730   23.4950 C   0  0  0  0  0  0  0  0  0  0  0  0
  -26.5220  -34.6830   22.4580 O   0  0  0  0  0  0  0  0  0  0  0  0
  -24.9590  -33.8560   25.0590 H   0  0  0  0  0  0  0  0  0  0  0  0
  -24.0980  -36.5390   23.1810 C   0  0  0  0  0  1  0  0  0  0  0  0
  -25.3620  -36.1530   23.9650 C   0  0  0  0  0  3  0  0  0  0  0  0
  -27.4960  -37.0740   24.7560 C   0  0  0  0  0  1  0  0  0  0  0  0
  -26.3750  -37.2220   23.8310 N   0  0  0  0  0  0  0  0  0  0  0  0
  -25.9570  -38.1370   23.9830 H   0  0  0  0  0  0  0  0  0  0  0  0
  -26.3600  -31.5350   25.1910 C   0  0  1  0  0  0  0  0  0  0  0  0
  -25.2430  -31.2830   26.2310 C   0  0  0  0  0  1  0  0  0  0  0  0
  -26.9560  -30.1630   24.7980 C   0  0  0  0  0  1  0  0  0  0  0  0
  -27.4920  -32.3260   25.8870 C   0  0  0  0  0  1  0  0  0  0  0  0
  -30.3900  -21.6290   20.6370 C   0  0  0  0  0  2  0  0  0  0  0  0
  -29.2410  -19.3120   21.0820 C   0  0  0  0  0  3  0  0  0  0  0  0
  -31.3280  -19.2930   19.8900 C   0  0  0  0  0  3  0  0  0  0  0  0
  -29.2500  -17.8860   21.0980 C   0  0  0  0  0  3  0  0  0  0  0  0
  -31.3410  -17.8630   19.9100 C   0  0  0  0  0  3  0  0  0  0  0  0
  -30.2860  -20.0600   20.4850 C   0  0  0  0  0  0  0  0  0  0  0  0
  -30.3010  -17.1180   20.5270 C   0  0  0  0  0  0  0  0  0  0  0  0
  -30.9650  -14.6300   20.1080 C   0  0  0  0  0  0  0  0  0  0  0  0
  -30.6980  -12.3860   19.0570 C   0  0  0  0  0  2  0  0  0  0  0  0
  -29.7110  -12.5040   17.8730 C   0  0  0  0  0  2  0  0  0  0  0  0
  -28.2530  -12.3650   18.3540 C   0  0  0  0  0  2  0  0  0  0  0  0
  -27.9460  -13.2470   19.5920 C   0  0  0  0  0  3  0  0  0  0  0  0
  -29.0390  -13.0870   20.6730 C   0  0  0  0  0  2  0  0  0  0  0  0
  -30.3340  -13.4120   20.0540 N   0  0  0  0  0  0  0  0  0  0  0  0
  -32.0910  -14.7900   19.6260 O   0  0  0  0  0  0  0  0  0  0  0  0
  -30.2150  -15.6580   20.6120 N   0  0  0  0  0  0  0  0  0  0  0  0
  -29.3680  -15.3230   21.0400 H   0  0  0  0  0  0  0  0  0  0  0  0
  -25.5960  -13.8940   20.4140 C   0  0  0  0  0  0  0  0  0  0  0  0
  -24.5250  -13.1380   20.8110 C   0  0  0  0  0  0  0  0  0  0  0  0
  -24.9510  -11.7760   20.7320 C   0  0  0  0  0  0  0  0  0  0  0  0
  -26.6090  -12.9920   20.1210 N   0  0  0  0  0  0  0  0  0  0  0  0
  -26.2260  -11.7140   20.3710 N   0  0  0  0  0  0  0  0  0  0  0  0
  -24.2010  -10.5280   20.9230 C   0  0  0  0  0  0  0  0  0  0  0  0
  -24.6100   -9.5580   21.8650 C   0  0  0  0  0  3  0  0  0  0  0  0
  -23.8620   -8.3740   22.0450 C   0  0  0  0  0  3  0  0  0  0  0  0
  -22.6920   -8.1520   21.2810 C   0  0  0  0  0  0  0  0  0  0  0  0
  -22.3000   -9.1110   20.3290 C   0  0  0  0  0  3  0  0  0  0  0  0
  -23.0480  -10.2850   20.1480 C   0  0  0  0  0  3  0  0  0  0  0  0
  -21.9180   -7.0200   21.3690 O   0  0  0  0  0  0  0  0  0  0  0  0
  -21.7880   -6.3260   22.5450 C   0  0  0  0  0  0  0  0  0  0  0  0
  -21.2770   -6.9310   23.7150 C   0  0  0  0  0  3  0  0  0  0  0  0
  -21.0940   -6.1640   24.8810 C   0  0  0  0  0  3  0  0  0  0  0  0
  -21.4110   -4.7920   24.8810 C   0  0  0  0  0  0  0  0  0  0  0  0
  -21.9140   -4.1870   23.7170 C   0  0  0  0  0  3  0  0  0  0  0  0
  -22.1000   -4.9500   22.5510 C   0  0  0  0  0  0  0  0  0  0  0  0
  -22.5640   -4.3560   21.4250 F   0  0  0  0  0  0  0  0  0  0  0  0
  -21.2270   -4.0530   26.0010 F   0  0  0  0  0  0  0  0  0  0  0  0
  -23.1520  -13.6430   21.1510 C   0  0  0  0  0  0  0  0  0  0  0  0
  -22.4440  -12.9500   22.0340 N   0  0  0  0  0  0  0  0  0  0  0  0
  -22.7160  -14.6870   20.6650 O   0  0  0  0  0  0  0  0  0  0  0  0
  -22.8080  -12.1060   22.4510 H   0  0  0  0  0  0  0  0  0  0  0  0
  -21.5240  -13.2720   22.3030 H   0  0  0  0  0  0  0  0  0  0  0  0
  -25.7920  -15.2630   20.2600 N   0  0  0  0  0  0  0  0  0  0  0  0
  -25.0500  -15.9390   20.4120 H   0  0  0  0  0  0  0  0  0  0  0  0
  -26.6330  -15.6810   19.8840 H   0  0  0  0  0  0  0  0  0  0  0  0
  1  2  1  0
  1  3  1  0
  2  5  1  0
  3  6  1  0
  5  8  1  0
  5  4  1  0
  6  4  1  0
  6  7  1  1
  6 49  1  0
  9 20  2  0
 10  8  1  0
 10 15  1  0
 11 19  1  0
 11 21  1  0
 12 18  1  0
 12 14  1  0
 13 19  1  0
 14 13  1  0
 15 14  2  0
 16 17  1  0
 16 10  2  0
 17 12  2  0
 18 11  1  0
 19  9  1  0
 21 23  2  0
 22 21  1  0
 24 22  1  0
 25 34  2  0
 25 30  1  0
 26 22  1  0
 26 30  1  0
 27 26  1  0
 28 29  1  0
 28 27  1  0
 29 25  1  0
 30 31  2  0
 31 32  1  0
 33 32  2  0
 34 33  1  0
 35  9  1  0
 35 36  1  0
 35 45  1  0
 36 39  1  0
 37 41  1  0
 37 36  1  0
 38 37  2  0
 41 40  1  0
 43 41  1  0
 43 44  1  0
 43 42  1  0
 45 48  1  1
 45 46  1  0
 47 45  1  0
 50 52  1  0
 51 53  2  0
 51 54  1  0
 53 55  1  0
 54 49  1  0
 54 50  2  0
 55 64  1  0
 55 52  2  0
 56 64  1  0
 57 62  1  0
 58 59  1  0
 58 57  1  0
 60 59  1  0
 60 69  1  0
 60 61  1  0
 62 56  1  0
 62 61  1  0
 63 56  2  0
 64 65  1  0
 66 67  2  0
 67 86  1  0
 68 67  1  0
 68 71  1  0
 69 70  1  0
 69 66  1  0
 70 68  2  0
 71 72  1  0
 72 73  2  0
 74 77  1  0
 74 73  1  0
 75 74  2  0
 76 75  1  0
 76 71  2  0
 77 78  1  0
 78 83  2  0
 78 79  1  0
 79 80  2  0
 80 81  1  0
 81 85  1  0
 82 81  2  0
 83 82  1  0
 84 83  1  0
 86 87  1  0
 87 90  1  0
 87 89  1  0
 88 86  2  0
 91 92  1  0
 91 66  1  0
 93 91  1  0
M  ISO  4   5 101   8 101  56 100  64 100
M  END
>  <TORSDO>  (31) 
F 18

>  <SCORE>  (31) 
-13.977

>  <name>  (31) 
31

>  <ligand_id>  (31) 
31

>  <original_smiles>  (31) 
[H]c1c([H])c([H])c2c(c1[H])C([H])([H])C([H])([H])C([H])([H])C2([H])N([H])C(=O)C1([H])N(C(=O)C([H])(N([H])C(=O)C([H])(N([H])C([H])([H])[H])C([H])([H])[H])C(C([H])([H])[H])(C([H])([H])[H])C([H])([H])[H])C([H])([H])c2c([H])c(OC3([H])C([H])([H])C([H])([H])C([H])([H])[N+]([H])(C([H])([H])c4c([H])c([H])c(N([H])C(=O)N5C([H])([H])C([H])([H])C([H])([H])C([H])(n6nc(-c7c([H])c([H])c(Oc8c([H])c([H])c(F)c([H])c8F)c([H])c7[H])c(C(=O)N([H])[H])c6N([H])[H])C5([H])[H])c([H])c4[H])C3([H])[H])c([H])c([H])c2C1([H])[H]

>  <smiles>  (31) 
[H]c1c([H])c([H])c2c(c1[H])C([H])([H])C([H])([H])C([H])([H])C2([H])N([H])C(=O)C1([H])N(C(=O)C([H])(N([H])C(=O)C([H])(N([H])C([H])([H])[H])C([H])([H])[H])C(C([H])([H])[H])(C([H])([H])[H])C([H])([H])[H])C([H])([H])c2c([H])c(OC3([H])C([H])([H])C([H])([H])C([H])([H])[N+]([H])(C([H])([H])c4c([H])c([H])c(N([H])C(=O)N5C([H])([H])C([H])([H])C([H])([H])C([H])(n6nc(-c7c([H])c([H])c(Oc8c([H])c([H])c(F)c([H])c8F)c([H])c7[H])c(C(=O)N([H])[H])c6N([H])[H])C5([H])[H])c([H])c4[H])C3([H])[H])c([H])c([H])c2C1([H])[H]

$$$$
32:0:0
     RDKit          3D

 93102  0  0  1  0  0  0  0  0999 V2000
  -30.4880  -22.0780   19.8140 C   0  0  0  0  0  2  0  0  0  0  0  0
  -31.0720  -19.6740   18.9150 C   0  0  0  0  0  3  0  0  0  0  0  0
  -31.1660  -18.2470   18.9940 C   0  0  0  0  0  3  0  0  0  0  0  0
  -30.3220  -20.4770   19.8290 C   0  0  0  0  0  0  0  0  0  0  0  0
  -29.6310  -19.7250   20.8370 C   0  0  0  0  0  0  0  0  0  0  0  0
  -29.7060  -18.2780   20.9030 C   0  0  0  0  0  0  0  0  0  0  0  0
  -30.4930  -17.4970   19.9940 C   0  0  0  0  0  0  0  0  0  0  0  0
  -28.8230  -20.4690   21.8960 C   0  0  0  0  0  1  0  0  0  0  0  0
  -28.9350  -17.5160   21.9820 C   0  0  0  0  0  1  0  0  0  0  0  0
  -31.2370  -14.9860   19.5630 C   0  0  0  0  0  0  0  0  0  0  0  0
  -30.9500  -12.7040   18.5800 C   0  0  0  0  0  2  0  0  0  0  0  0
  -29.8250  -12.7700   17.5210 C   0  0  0  0  0  2  0  0  0  0  0  0
  -28.4400  -12.5820   18.1720 C   0  0  0  0  0  2  0  0  0  0  0  0
  -28.2530  -13.4620   19.4360 C   0  0  0  0  0  3  0  0  0  0  0  0
  -29.4720  -13.3550   20.3780 C   0  0  0  0  0  2  0  0  0  0  0  0
  -30.6660  -13.7330   19.6050 N   0  0  0  0  0  0  0  0  0  0  0  0
  -32.3100  -15.1670   18.9780 O   0  0  0  0  0  0  0  0  0  0  0  0
  -30.4850  -16.0170   20.0910 N   0  0  0  0  0  0  0  0  0  0  0  0
  -29.7190  -15.6590   20.6400 H   0  0  0  0  0  0  0  0  0  0  0  0
  -26.1040  -14.0410   20.7180 C   0  0  0  0  0  0  0  0  0  0  0  0
  -25.0580  -13.2720   21.1510 C   0  0  0  0  0  0  0  0  0  0  0  0
  -25.3790  -11.9280   20.7860 C   0  0  0  0  0  0  0  0  0  0  0  0
  -26.9990  -13.1650   20.1230 N   0  0  0  0  0  0  0  0  0  0  0  0
  -26.5790  -11.8790   20.2210 N   0  0  0  0  0  0  0  0  0  0  0  0
  -24.5870  -10.6950   20.8900 C   0  0  0  0  0  0  0  0  0  0  0  0
  -24.9900   -9.6260   21.7190 C   0  0  0  0  0  3  0  0  0  0  0  0
  -24.2020   -8.4590   21.8160 C   0  0  0  0  0  3  0  0  0  0  0  0
  -22.9950   -8.3530   21.0840 C   0  0  0  0  0  0  0  0  0  0  0  0
  -22.6110   -9.4120   20.2420 C   0  0  0  0  0  3  0  0  0  0  0  0
  -23.3990  -10.5710   20.1420 C   0  0  0  0  0  3  0  0  0  0  0  0
  -22.1800   -7.2480   21.0960 O   0  0  0  0  0  0  0  0  0  0  0  0
  -21.9550   -6.5330   22.2450 C   0  0  0  0  0  0  0  0  0  0  0  0
  -21.4170   -7.1330   23.4040 C   0  0  0  0  0  3  0  0  0  0  0  0
  -21.1370   -6.3460   24.5390 C   0  0  0  0  0  3  0  0  0  0  0  0
  -21.3850   -4.9620   24.5150 C   0  0  0  0  0  0  0  0  0  0  0  0
  -21.9160   -4.3610   23.3600 C   0  0  0  0  0  3  0  0  0  0  0  0
  -22.1970   -5.1440   22.2270 C   0  0  0  0  0  0  0  0  0  0  0  0
  -22.6880   -4.5570   21.1090 F   0  0  0  0  0  0  0  0  0  0  0  0
  -21.1090   -4.2040   25.6030 F   0  0  0  0  0  0  0  0  0  0  0  0
  -23.7870  -13.7640   21.7790 C   0  0  0  0  0  0  0  0  0  0  0  0
  -23.2070  -12.9840   22.6830 N   0  0  0  0  0  0  0  0  0  0  0  0
  -23.3260  -14.8720   21.5060 O   0  0  0  0  0  0  0  0  0  0  0  0
  -23.5960  -12.0840   22.9230 H   0  0  0  0  0  0  0  0  0  0  0  0
  -22.3610  -13.2890   23.1440 H   0  0  0  0  0  0  0  0  0  0  0  0
  -26.3570  -15.4090   20.7560 N   0  0  0  0  0  0  0  0  0  0  0  0
  -25.6810  -16.0690   21.1240 H   0  0  0  0  0  0  0  0  0  0  0  0
  -27.1480  -15.8600   20.3140 H   0  0  0  0  0  0  0  0  0  0  0  0
  -29.1600  -24.1490   20.6760 C   0  0  0  0  0  2  0  0  0  0  0  0
  -29.5010  -24.2450   18.7020 C   0  0  0  0  0  2  0  0  0  0  0  0
  -28.5680  -25.1130   19.6070 C   0  0  0  0  0  3  0  0  0  0  0  0
  -29.3410  -23.0870   19.6360 N   0  0  1  0  0  4  0  0  0  0  0  0
  -28.4700  -22.6130   19.4530 H   0  0  0  0  0  0  0  0  0  0  0  0
  -28.7570  -26.6050   19.7280 O   0  0  0  0  0  0  0  0  0  0  0  0
  -24.8600  -31.6660   23.1800 C   0  0  0  0  0  0  0  0  0  0  0  0
  -27.6280  -27.4600   19.7390 C   0  0  0  0  0  0  0  0  0  0  0  0
  -23.7160  -30.4010   21.3980 C   0  0  0  0  0  3  0  0  0  0  0  0
  -25.2260  -29.0360   19.8470 C   0  0  0  0  0  0  0  0  0  0  0  0
  -26.2510  -30.7920   21.2860 C   0  0  0  0  0  2  0  0  0  0  0  0
  -26.3760  -29.4830   20.5100 C   0  0  0  0  0  0  0  0  0  0  0  0
  -27.5780  -28.7070   20.4490 C   0  0  0  0  0  3  0  0  0  0  0  0
  -26.4600  -27.1000   19.0300 C   0  0  0  0  0  3  0  0  0  0  0  0
  -25.2730  -27.8530   19.0960 C   0  0  0  0  0  3  0  0  0  0  0  0
  -23.9660  -29.8710   19.9620 C   0  0  0  0  0  2  0  0  0  0  0  0
  -24.9600  -30.9670   22.0120 N   0  0  0  0  0  0  0  0  0  0  0  0
  -23.7630  -31.8640   23.7230 O   0  0  0  0  0  0  0  0  0  0  0  0
  -23.0700  -29.2790   22.2460 C   0  0  0  0  0  0  0  0  0  0  0  0
  -21.7490  -29.0860   22.0910 N   0  0  0  0  0  0  0  0  0  0  0  0
  -23.7570  -28.5900   23.0040 O   0  0  0  0  0  0  0  0  0  0  0  0
  -21.2510  -29.6980   21.4590 H   0  0  0  0  0  0  0  0  0  0  0  0
  -18.3820  -27.8280   22.5170 C   0  0  0  0  0  0  0  0  0  0  0  0
  -20.9470  -28.0590   22.7590 C   0  0  0  0  0  3  0  0  0  0  0  0
  -21.0350  -26.7080   22.0090 C   0  0  0  0  0  2  0  0  0  0  0  0
  -19.9100  -26.5110   20.9880 C   0  0  0  0  0  2  0  0  0  0  0  0
  -18.5440  -26.5720   21.6750 C   0  0  0  0  0  2  0  0  0  0  0  0
  -19.5110  -28.5340   23.0120 C   0  0  0  0  0  0  0  0  0  0  0  0
  -19.3050  -29.7130   23.7610 C   0  0  0  0  0  3  0  0  0  0  0  0
  -18.0040  -30.1860   24.0170 C   0  0  0  0  0  3  0  0  0  0  0  0
  -16.8910  -29.4750   23.5370 C   0  0  0  0  0  3  0  0  0  0  0  0
  -17.0810  -28.2960   22.7920 C   0  0  0  0  0  3  0  0  0  0  0  0
  -26.1160  -32.2720   23.8780 C   0  0  0  0  0  3  0  0  0  0  0  0
  -25.7780  -33.6410   24.2940 N   0  0  0  0  0  0  0  0  0  0  0  0
  -26.0840  -34.7450   23.5990 C   0  0  0  0  0  0  0  0  0  0  0  0
  -26.7480  -34.7180   22.5590 O   0  0  0  0  0  0  0  0  0  0  0  0
  -25.1850  -33.7340   25.1050 H   0  0  0  0  0  0  0  0  0  0  0  0
  -24.3000  -36.5070   23.3810 C   0  0  0  0  0  1  0  0  0  0  0  0
  -25.5710  -36.0930   24.1420 C   0  0  0  0  0  3  0  0  0  0  0  0
  -27.6890  -37.0020   24.9880 C   0  0  0  0  0  1  0  0  0  0  0  0
  -26.5720  -37.1790   24.0640 N   0  0  0  0  0  0  0  0  0  0  0  0
  -26.1420  -38.0810   24.2550 H   0  0  0  0  0  0  0  0  0  0  0  0
  -26.6080  -31.4240   25.1160 C   0  0  1  0  0  0  0  0  0  0  0  0
  -25.4870  -31.0970   26.1300 C   0  0  0  0  0  1  0  0  0  0  0  0
  -27.2280  -30.0860   24.6530 C   0  0  0  0  0  1  0  0  0  0  0  0
  -27.7220  -32.1910   25.8660 C   0  0  0  0  0  1  0  0  0  0  0  0
  1  4  1  0
  2  3  2  0
  2  4  1  0
  3  7  1  0
  4  5  2  0
  5  6  1  0
  5  8  1  0
  6  9  1  0
  7 18  1  0
  7  6  2  0
 10 16  1  0
 10 18  1  0
 11 16  1  0
 12 13  1  0
 12 11  1  0
 14 13  1  0
 14 23  1  0
 14 15  1  0
 16 15  1  0
 17 10  2  0
 18 19  1  0
 20 45  1  0
 20 21  2  0
 21 40  1  0
 22 25  1  0
 22 21  1  0
 23 24  1  0
 23 20  1  0
 24 22  2  0
 25 26  1  0
 26 27  2  0
 28 31  1  0
 28 27  1  0
 29 28  2  0
 30 29  1  0
 30 25  2  0
 31 32  1  0
 32 33  1  0
 33 34  2  0
 35 34  1  0
 35 39  1  0
 36 35  2  0
 37 32  2  0
 37 36  1  0
 38 37  1  0
 40 41  1  0
 41 43  1  0
 41 44  1  0
 42 40  2  0
 45 46  1  0
 47 45  1  0
 49 50  1  0
 49 51  1  0
 50 53  1  0
 50 48  1  0
 51  1  1  0
 51 48  1  0
 51 52  1  6
 53 55  1  0
 54 65  2  0
 55 60  1  0
 56 64  1  0
 56 66  1  0
 57 63  1  0
 57 59  1  0
 58 64  1  0
 59 58  1  0
 60 59  2  0
 61 62  1  0
 61 55  2  0
 62 57  2  0
 63 56  1  0
 64 54  1  0
 66 68  2  0
 67 66  1  0
 69 67  1  0
 70 79  2  0
 70 75  1  0
 71 67  1  0
 71 75  1  0
 72 71  1  0
 73 74  1  0
 73 72  1  0
 74 70  1  0
 75 76  2  0
 76 77  1  0
 78 77  2  0
 79 78  1  0
 80 54  1  0
 80 81  1  0
 80 90  1  0
 81 84  1  0
 82 86  1  0
 82 81  1  0
 83 82  2  0
 86 85  1  0
 88 86  1  0
 88 89  1  0
 88 87  1  0
 90 93  1  1
 90 91  1  0
 92 90  1  0
M  ISO  4  10 100  18 100  50 101  53 101
M  END
>  <TORSDO>  (32) 
F 18

>  <SCORE>  (32) 
-9.093

>  <name>  (32) 
32

>  <ligand_id>  (32) 
32

>  <original_smiles>  (32) 
[H]c1c([H])c([H])c2c(c1[H])C([H])([H])C([H])([H])C([H])([H])C2([H])N([H])C(=O)C1([H])N(C(=O)C([H])(N([H])C(=O)C([H])(N([H])C([H])([H])[H])C([H])([H])[H])C(C([H])([H])[H])(C([H])([H])[H])C([H])([H])[H])C([H])([H])c2c([H])c(OC3([H])C([H])([H])[N+]([H])(C([H])([H])c4c([H])c([H])c(N([H])C(=O)N5C([H])([H])C([H])([H])C([H])([H])C([H])(n6nc(-c7c([H])c([H])c(Oc8c([H])c([H])c(F)c([H])c8F)c([H])c7[H])c(C(=O)N([H])[H])c6N([H])[H])C5([H])[H])c(C([H])([H])[H])c4C([H])([H])[H])C3([H])[H])c([H])c([H])c2C1([H])[H]

>  <smiles>  (32) 
[H]c1c([H])c([H])c2c(c1[H])C([H])([H])C([H])([H])C([H])([H])C2([H])N([H])C(=O)C1([H])N(C(=O)C([H])(N([H])C(=O)C([H])(N([H])C([H])([H])[H])C([H])([H])[H])C(C([H])([H])[H])(C([H])([H])[H])C([H])([H])[H])C([H])([H])c2c([H])c(OC3([H])C([H])([H])[N+]([H])(C([H])([H])c4c([H])c([H])c(N([H])C(=O)N5C([H])([H])C([H])([H])C([H])([H])C([H])(n6nc(-c7c([H])c([H])c(Oc8c([H])c([H])c(F)c([H])c8F)c([H])c7[H])c(C(=O)N([H])[H])c6N([H])[H])C5([H])[H])c(C([H])([H])[H])c4C([H])([H])[H])C3([H])[H])c([H])c([H])c2C1([H])[H]

$$$$
33:0:0
     RDKit          3D

 92101  0  0  1  0  0  0  0  0999 V2000
  -28.8810  -21.2650   19.6870 C   0  0  0  0  0  2  0  0  0  0  0  0
  -30.9710  -19.2080   22.3580 C   0  0  0  0  0  3  0  0  0  0  0  0
  -30.9670  -17.8780   21.8620 C   0  0  0  0  0  3  0  0  0  0  0  0
  -29.6230  -18.6650   20.0160 C   0  0  0  0  0  3  0  0  0  0  0  0
  -30.3410  -20.2910   21.6920 C   0  0  0  0  0  0  0  0  0  0  0  0
  -29.6430  -20.0670   20.4750 C   0  0  0  0  0  0  0  0  0  0  0  0
  -30.2940  -17.5260   20.6640 C   0  0  0  0  0  0  0  0  0  0  0  0
  -30.4010  -21.6690   22.3460 C   0  0  0  0  0  1  0  0  0  0  0  0
  -30.9480  -14.9180   20.2010 C   0  0  0  0  0  0  0  0  0  0  0  0
  -30.7800  -12.5910   19.2120 C   0  0  0  0  0  2  0  0  0  0  0  0
  -29.8320  -12.5850   17.9920 C   0  0  0  0  0  2  0  0  0  0  0  0
  -28.3590  -12.4370   18.4360 C   0  0  0  0  0  2  0  0  0  0  0  0
  -28.0000  -13.3660   19.6240 C   0  0  0  0  0  3  0  0  0  0  0  0
  -29.0580  -13.2880   20.7400 C   0  0  0  0  0  2  0  0  0  0  0  0
  -30.3380  -13.6740   20.1280 N   0  0  0  0  0  0  0  0  0  0  0  0
  -32.1480  -14.9980   19.9040 O   0  0  0  0  0  0  0  0  0  0  0  0
  -30.1210  -16.0570   20.3160 N   0  0  0  0  0  0  0  0  0  0  0  0
  -29.1500  -15.7890   20.2740 H   0  0  0  0  0  0  0  0  0  0  0  0
  -25.6560  -14.0460   20.3920 C   0  0  0  0  0  0  0  0  0  0  0  0
  -24.5680  -13.3140   20.7790 C   0  0  0  0  0  0  0  0  0  0  0  0
  -24.9710  -11.9450   20.7270 C   0  0  0  0  0  0  0  0  0  0  0  0
  -26.6550  -13.1240   20.1290 N   0  0  0  0  0  0  0  0  0  0  0  0
  -26.2510  -11.8540   20.3930 N   0  0  0  0  0  0  0  0  0  0  0  0
  -24.1940  -10.7130   20.9250 C   0  0  0  0  0  0  0  0  0  0  0  0
  -24.5840   -9.7370   21.8690 C   0  0  0  0  0  3  0  0  0  0  0  0
  -23.8120   -8.5690   22.0520 C   0  0  0  0  0  3  0  0  0  0  0  0
  -22.6330   -8.3700   21.2910 C   0  0  0  0  0  0  0  0  0  0  0  0
  -22.2640   -9.3360   20.3360 C   0  0  0  0  0  3  0  0  0  0  0  0
  -23.0380  -10.4930   20.1530 C   0  0  0  0  0  3  0  0  0  0  0  0
  -21.8350   -7.2560   21.3830 O   0  0  0  0  0  0  0  0  0  0  0  0
  -21.7180   -6.5470   22.5500 C   0  0  0  0  0  0  0  0  0  0  0  0
  -21.2650   -7.1490   23.7450 C   0  0  0  0  0  3  0  0  0  0  0  0
  -21.0920   -6.3670   24.9040 C   0  0  0  0  0  3  0  0  0  0  0  0
  -21.3610   -4.9850   24.8690 C   0  0  0  0  0  0  0  0  0  0  0  0
  -21.8060   -4.3850   23.6820 C   0  0  0  0  0  3  0  0  0  0  0  0
  -21.9790   -5.1620   22.5230 C   0  0  0  0  0  0  0  0  0  0  0  0
  -22.3850   -4.5740   21.3730 F   0  0  0  0  0  0  0  0  0  0  0  0
  -21.1910   -4.2310   25.9820 F   0  0  0  0  0  0  0  0  0  0  0  0
  -23.1930  -13.8460   21.0720 C   0  0  0  0  0  0  0  0  0  0  0  0
  -22.4610  -13.1790   21.9520 N   0  0  0  0  0  0  0  0  0  0  0  0
  -22.7880  -14.8860   20.5530 O   0  0  0  0  0  0  0  0  0  0  0  0
  -22.8110  -12.3340   22.3840 H   0  0  0  0  0  0  0  0  0  0  0  0
  -21.5420  -13.5130   22.2000 H   0  0  0  0  0  0  0  0  0  0  0  0
  -25.8820  -15.4070   20.2160 N   0  0  0  0  0  0  0  0  0  0  0  0
  -25.1700  -16.1060   20.3990 H   0  0  0  0  0  0  0  0  0  0  0  0
  -26.7140  -15.7980   19.7910 H   0  0  0  0  0  0  0  0  0  0  0  0
  -27.6330  -23.6140   20.2490 C   0  0  0  0  0  0  0  0  0  0  0  0
  -29.5910  -24.0130   19.7660 C   0  0  0  0  0  2  0  0  0  0  0  0
  -28.3120  -24.9170   19.6230 C   0  0  0  0  0  3  0  0  0  0  0  0
  -28.7520  -22.7820   20.0230 N   0  0  0  0  0  0  0  0  0  0  0  0
  -26.5230  -23.3130   20.6240 O   0  0  0  0  0  0  0  0  0  0  0  0
  -28.2310  -26.2810   20.3110 O   0  0  0  0  0  0  0  0  0  0  0  0
  -24.5800  -31.8750   23.2460 C   0  0  0  0  0  0  0  0  0  0  0  0
  -27.1450  -27.2010   20.2010 C   0  0  0  0  0  0  0  0  0  0  0  0
  -23.3730  -30.4860   21.6000 C   0  0  0  0  0  3  0  0  0  0  0  0
  -24.8140  -28.9070   20.1730 C   0  0  0  0  0  0  0  0  0  0  0  0
  -25.9220  -30.7500   21.4380 C   0  0  0  0  0  2  0  0  0  0  0  0
  -25.9880  -29.3640   20.7870 C   0  0  0  0  0  0  0  0  0  0  0  0
  -27.1510  -28.5190   20.7890 C   0  0  0  0  0  3  0  0  0  0  0  0
  -25.9480  -26.8230   19.5550 C   0  0  0  0  0  3  0  0  0  0  0  0
  -24.8030  -27.6510   19.5420 C   0  0  0  0  0  3  0  0  0  0  0  0
  -23.5900  -29.8060   20.2210 C   0  0  0  0  0  2  0  0  0  0  0  0
  -24.6440  -31.0580   22.1500 N   0  0  0  0  0  0  0  0  0  0  0  0
  -23.4930  -32.1700   23.7690 O   0  0  0  0  0  0  0  0  0  0  0  0
  -22.6890  -29.4820   22.5600 C   0  0  0  0  0  0  0  0  0  0  0  0
  -21.3670  -29.2880   22.3990 N   0  0  0  0  0  0  0  0  0  0  0  0
  -23.3440  -28.8860   23.4180 O   0  0  0  0  0  0  0  0  0  0  0  0
  -20.8860  -29.8310   21.6950 H   0  0  0  0  0  0  0  0  0  0  0  0
  -18.0120  -27.9970   22.7840 C   0  0  0  0  0  0  0  0  0  0  0  0
  -20.5420  -28.3540   23.1690 C   0  0  0  0  0  3  0  0  0  0  0  0
  -20.7180  -26.9030   22.6600 C   0  0  0  0  0  2  0  0  0  0  0  0
  -19.6880  -26.5110   21.5970 C   0  0  0  0  0  2  0  0  0  0  0  0
  -18.2680  -26.6360   22.1590 C   0  0  0  0  0  2  0  0  0  0  0  0
  -19.0810  -28.8090   23.2420 C   0  0  0  0  0  0  0  0  0  0  0  0
  -18.7870  -30.0830   23.7740 C   0  0  0  0  0  3  0  0  0  0  0  0
  -17.4600  -30.5420   23.8630 C   0  0  0  0  0  3  0  0  0  0  0  0
  -16.4060  -29.7250   23.4210 C   0  0  0  0  0  3  0  0  0  0  0  0
  -16.6820  -28.4540   22.8880 C   0  0  0  0  0  3  0  0  0  0  0  0
  -25.8610  -32.5060   23.8730 C   0  0  0  0  0  3  0  0  0  0  0  0
  -25.5600  -33.9150   24.1900 N   0  0  0  0  0  0  0  0  0  0  0  0
  -25.9030  -34.9590   23.4220 C   0  0  0  0  0  0  0  0  0  0  0  0
  -26.5690  -34.8380   22.3890 O   0  0  0  0  0  0  0  0  0  0  0  0
  -24.9630  -34.0800   24.9880 H   0  0  0  0  0  0  0  0  0  0  0  0
  -24.1860  -36.7660   23.0810 C   0  0  0  0  0  1  0  0  0  0  0  0
  -25.4380  -36.3590   23.8750 C   0  0  0  0  0  3  0  0  0  0  0  0
  -27.5950  -37.2350   24.6580 C   0  0  0  0  0  1  0  0  0  0  0  0
  -26.4810  -37.3990   23.7260 N   0  0  0  0  0  0  0  0  0  0  0  0
  -26.0870  -38.3250   23.8670 H   0  0  0  0  0  0  0  0  0  0  0  0
  -26.3590  -31.7450   25.1620 C   0  0  1  0  0  0  0  0  0  0  0  0
  -25.2620  -31.5250   26.2290 C   0  0  0  0  0  1  0  0  0  0  0  0
  -26.9270  -30.3570   24.7920 C   0  0  0  0  0  1  0  0  0  0  0  0
  -27.5080  -32.5390   25.8290 C   0  0  0  0  0  1  0  0  0  0  0  0
  1 50  1  0
  1  6  1  0
  3  2  1  0
  4  6  2  0
  4  7  1  0
  5  8  1  0
  5  2  2  0
  6  5  1  0
  7  3  2  0
  9 17  1  0
 10 15  1  0
 11 12  1  0
 11 10  1  0
 13 12  1  0
 13 22  1  0
 13 14  1  0
 15  9  1  0
 15 14  1  0
 16  9  2  0
 17  7  1  0
 18 17  1  0
 19 20  2  0
 20 39  1  0
 21 20  1  0
 21 24  1  0
 22 19  1  0
 22 23  1  0
 23 21  2  0
 24 25  1  0
 25 26  2  0
 27 30  1  0
 27 26  1  0
 28 27  2  0
 29 28  1  0
 29 24  2  0
 30 31  1  0
 31 32  1  0
 32 33  2  0
 34 33  1  0
 34 38  1  0
 35 34  2  0
 36 31  2  0
 36 35  1  0
 37 36  1  0
 39 40  1  0
 40 43  1  0
 40 42  1  0
 41 39  2  0
 44 19  1  0
 44 45  1  0
 46 44  1  0
 47 51  2  0
 48 50  1  0
 49 48  1  0
 49 47  1  0
 49 52  1  0
 50 47  1  0
 53 64  2  0
 54 52  1  0
 54 59  1  0
 55 63  1  0
 55 65  1  0
 56 62  1  0
 56 58  1  0
 57 63  1  0
 58 59  2  0
 58 57  1  0
 60 54  2  0
 61 60  1  0
 61 56  2  0
 62 55  1  0
 63 53  1  0
 65 67  2  0
 66 65  1  0
 68 66  1  0
 69 78  2  0
 69 74  1  0
 70 66  1  0
 70 74  1  0
 71 70  1  0
 72 73  1  0
 72 71  1  0
 73 69  1  0
 74 75  2  0
 75 76  1  0
 77 76  2  0
 78 77  1  0
 79 53  1  0
 79 80  1  0
 79 89  1  0
 80 83  1  0
 81 85  1  0
 81 80  1  0
 82 81  2  0
 85 84  1  0
 87 88  1  0
 87 85  1  0
 87 86  1  0
 89 92  1  1
 89 90  1  0
 91 89  1  0
M  ISO  4   9 100  17 100  49 101  52 101
M  END
>  <TORSDO>  (33) 
F 18

>  <SCORE>  (33) 
-14.625

>  <name>  (33) 
33

>  <ligand_id>  (33) 
33

>  <original_smiles>  (33) 
[H]c1c([H])c([H])c2c(c1[H])C([H])([H])C([H])([H])C([H])([H])C2([H])N([H])C(=O)C1([H])N(C(=O)C([H])(N([H])C(=O)C([H])(N([H])C([H])([H])[H])C([H])([H])[H])C(C([H])([H])[H])(C([H])([H])[H])C([H])([H])[H])C([H])([H])c2c([H])c(OC3([H])C(=O)N(C([H])([H])c4c([H])c(N([H])C(=O)N5C([H])([H])C([H])([H])C([H])([H])C([H])(n6nc(-c7c([H])c([H])c(Oc8c([H])c([H])c(F)c([H])c8F)c([H])c7[H])c(C(=O)N([H])[H])c6N([H])[H])C5([H])[H])c([H])c([H])c4C([H])([H])[H])C3([H])[H])c([H])c([H])c2C1([H])[H]

>  <smiles>  (33) 
[H]c1c([H])c([H])c2c(c1[H])C([H])([H])C([H])([H])C([H])([H])C2([H])N([H])C(=O)C1([H])N(C(=O)C([H])(N([H])C(=O)C([H])(N([H])C([H])([H])[H])C([H])([H])[H])C(C([H])([H])[H])(C([H])([H])[H])C([H])([H])[H])C([H])([H])c2c([H])c(OC3([H])C(=O)N(C([H])([H])c4c([H])c(N([H])C(=O)N5C([H])([H])C([H])([H])C([H])([H])C([H])(n6nc(-c7c([H])c([H])c(Oc8c([H])c([H])c(F)c([H])c8F)c([H])c7[H])c(C(=O)N([H])[H])c6N([H])[H])C5([H])[H])c([H])c([H])c4C([H])([H])[H])C3([H])[H])c([H])c([H])c2C1([H])[H]

$$$$
34:0:0
     RDKit          3D

 96105  0  0  1  0  0  0  0  0999 V2000
  -29.2540  -22.7080   20.7320 C   0  0  0  0  0  3  0  0  0  0  0  0
  -29.1670  -23.9450   20.0990 C   0  0  0  0  0  0  0  0  0  0  0  0
  -28.6900  -22.4820   22.1250 C   0  0  0  0  0  2  0  0  0  0  0  0
  -29.8450  -21.7880   22.8650 C   0  0  0  0  0  2  0  0  0  0  0  0
  -30.9410  -21.7040   21.7930 C   0  0  0  0  0  2  0  0  0  0  0  0
  -30.2150  -21.6650   20.5240 N   0  0  0  0  0  0  0  0  0  0  0  0
  -28.8790  -19.4820   20.4940 C   0  0  0  0  0  3  0  0  0  0  0  0
  -31.2000  -18.0080   19.9460 C   0  0  0  0  0  3  0  0  0  0  0  0
  -30.0720  -20.2350   20.2750 C   0  0  0  0  0  0  0  0  0  0  0  0
  -30.0260  -17.2720   20.2420 C   0  0  0  0  0  0  0  0  0  0  0  0
  -28.8590  -18.0510   20.4600 C   0  0  0  0  0  0  0  0  0  0  0  0
  -31.2180  -19.4390   19.9440 C   0  0  0  0  0  0  0  0  0  0  0  0
  -27.6920  -17.3950   20.6630 F   0  0  0  0  0  0  0  0  0  0  0  0
  -32.7170  -20.2110   19.5580 Cl  0  0  0  0  0  0  0  0  0  0  0  0
  -30.7150  -14.7480   20.0290 C   0  0  0  0  0  0  0  0  0  0  0  0
  -30.4420  -12.5180   18.9700 C   0  0  0  0  0  2  0  0  0  0  0  0
  -29.4320  -12.6810   17.8100 C   0  0  0  0  0  2  0  0  0  0  0  0
  -27.9850  -12.5190   18.3210 C   0  0  0  0  0  2  0  0  0  0  0  0
  -27.6990  -13.3550   19.5970 C   0  0  0  0  0  3  0  0  0  0  0  0
  -28.8230  -13.1830   20.6470 C   0  0  0  0  0  2  0  0  0  0  0  0
  -30.0970  -13.5250   19.9940 N   0  0  0  0  0  0  0  0  0  0  0  0
  -31.8710  -14.8930   19.6270 O   0  0  0  0  0  0  0  0  0  0  0  0
  -29.8980  -15.8090   20.3280 N   0  0  0  0  0  0  0  0  0  0  0  0
  -28.9780  -15.5160   20.6200 H   0  0  0  0  0  0  0  0  0  0  0  0
  -25.3520  -13.9570   20.4570 C   0  0  0  0  0  0  0  0  0  0  0  0
  -24.2940  -13.1830   20.8510 C   0  0  0  0  0  0  0  0  0  0  0  0
  -24.7410  -11.8290   20.7620 C   0  0  0  0  0  0  0  0  0  0  0  0
  -26.3750  -13.0740   20.1490 N   0  0  0  0  0  0  0  0  0  0  0  0
  -26.0160  -11.7880   20.3930 N   0  0  0  0  0  0  0  0  0  0  0  0
  -24.0120  -10.5690   20.9560 C   0  0  0  0  0  0  0  0  0  0  0  0
  -24.4620   -9.5860   21.8650 C   0  0  0  0  0  3  0  0  0  0  0  0
  -23.7330   -8.3920   22.0480 C   0  0  0  0  0  3  0  0  0  0  0  0
  -22.5390   -8.1710   21.3220 C   0  0  0  0  0  0  0  0  0  0  0  0
  -22.1060   -9.1430   20.4050 C   0  0  0  0  0  3  0  0  0  0  0  0
  -22.8340  -10.3300   20.2200 C   0  0  0  0  0  3  0  0  0  0  0  0
  -21.7790   -7.0300   21.4160 O   0  0  0  0  0  0  0  0  0  0  0  0
  -21.7430   -6.2830   22.5650 C   0  0  0  0  0  0  0  0  0  0  0  0
  -21.3110   -6.8270   23.7940 C   0  0  0  0  0  3  0  0  0  0  0  0
  -21.2200   -6.0060   24.9350 C   0  0  0  0  0  3  0  0  0  0  0  0
  -21.5500   -4.6410   24.8480 C   0  0  0  0  0  0  0  0  0  0  0  0
  -21.9730   -4.0950   23.6250 C   0  0  0  0  0  3  0  0  0  0  0  0
  -22.0660   -4.9140   22.4860 C   0  0  0  0  0  0  0  0  0  0  0  0
  -22.4530   -4.3770   21.3030 F   0  0  0  0  0  0  0  0  0  0  0  0
  -21.4560   -3.8490   25.9430 F   0  0  0  0  0  0  0  0  0  0  0  0
  -22.9170  -13.6680   21.2020 C   0  0  0  0  0  0  0  0  0  0  0  0
  -22.2220  -12.9520   22.0810 N   0  0  0  0  0  0  0  0  0  0  0  0
  -22.4650  -14.7120   20.7370 O   0  0  0  0  0  0  0  0  0  0  0  0
  -22.5980  -12.1070   22.4810 H   0  0  0  0  0  0  0  0  0  0  0  0
  -21.3010  -13.2600   22.3600 H   0  0  0  0  0  0  0  0  0  0  0  0
  -25.5150  -15.3310   20.3190 N   0  0  0  0  0  0  0  0  0  0  0  0
  -24.7690  -15.9770   20.5560 H   0  0  0  0  0  0  0  0  0  0  0  0
  -26.3770  -15.8090   20.0860 H   0  0  0  0  0  0  0  0  0  0  0  0
  -29.5160  -24.1780   17.5390 C   0  0  0  0  0  1  0  0  0  0  0  0
  -30.1110  -24.3010   18.9510 C   0  0  0  0  0  2  0  0  0  0  0  0
  -28.2240  -25.1320   20.5810 C   0  0  0  0  0  3  0  0  0  0  0  0
  -28.4430  -26.5380   20.1460 O   0  0  0  0  0  0  0  0  0  0  0  0
  -24.5820  -31.8780   23.1840 C   0  0  0  0  0  0  0  0  0  0  0  0
  -27.3150  -27.3760   20.1280 C   0  0  0  0  0  0  0  0  0  0  0  0
  -23.4240  -30.4780   21.5150 C   0  0  0  0  0  3  0  0  0  0  0  0
  -24.9170  -28.9480   20.1080 C   0  0  0  0  0  0  0  0  0  0  0  0
  -25.9600  -30.8230   21.3780 C   0  0  0  0  0  2  0  0  0  0  0  0
  -26.0700  -29.4510   20.7240 C   0  0  0  0  0  0  0  0  0  0  0  0
  -27.2740  -28.6800   20.7170 C   0  0  0  0  0  3  0  0  0  0  0  0
  -26.1420  -26.9360   19.4760 C   0  0  0  0  0  3  0  0  0  0  0  0
  -24.9570  -27.6960   19.4690 C   0  0  0  0  0  3  0  0  0  0  0  0
  -23.6690  -29.8070   20.1390 C   0  0  0  0  0  2  0  0  0  0  0  0
  -24.6730  -31.0750   22.0840 N   0  0  0  0  0  0  0  0  0  0  0  0
  -23.4880  -32.1430   23.7000 O   0  0  0  0  0  0  0  0  0  0  0  0
  -22.7470  -29.4550   22.4590 C   0  0  0  0  0  0  0  0  0  0  0  0
  -21.4260  -29.2680   22.3040 N   0  0  0  0  0  0  0  0  0  0  0  0
  -23.4130  -28.8290   23.2880 O   0  0  0  0  0  0  0  0  0  0  0  0
  -20.9490  -29.8250   21.6080 H   0  0  0  0  0  0  0  0  0  0  0  0
  -18.0550  -28.0270   22.7250 C   0  0  0  0  0  0  0  0  0  0  0  0
  -20.6010  -28.3180   23.0510 C   0  0  0  0  0  3  0  0  0  0  0  0
  -20.7360  -26.8910   22.4740 C   0  0  0  0  0  2  0  0  0  0  0  0
  -19.6610  -26.5580   21.4340 C   0  0  0  0  0  2  0  0  0  0  0  0
  -18.2630  -26.6830   22.0460 C   0  0  0  0  0  2  0  0  0  0  0  0
  -19.1540  -28.8020   23.1830 C   0  0  0  0  0  0  0  0  0  0  0  0
  -18.9090  -30.0580   23.7770 C   0  0  0  0  0  3  0  0  0  0  0  0
  -17.5970  -30.5440   23.9210 C   0  0  0  0  0  3  0  0  0  0  0  0
  -16.5110  -29.7680   23.4780 C   0  0  0  0  0  3  0  0  0  0  0  0
  -16.7400  -28.5130   22.8850 C   0  0  0  0  0  3  0  0  0  0  0  0
  -25.8490  -32.5160   23.8310 C   0  0  0  0  0  3  0  0  0  0  0  0
  -26.3380  -31.7490   25.1220 C   0  0  1  0  0  0  0  0  0  0  0  0
  -25.2130  -31.5070   26.1560 C   0  0  0  0  0  1  0  0  0  0  0  0
  -26.9390  -30.3720   24.7490 C   0  0  0  0  0  1  0  0  0  0  0  0
  -27.4720  -32.5490   25.8020 C   0  0  0  0  0  1  0  0  0  0  0  0
  -25.5270  -33.9140   24.1510 N   0  0  0  0  0  0  0  0  0  0  0  0
  -25.8820  -34.9690   23.4050 C   0  0  0  0  0  0  0  0  0  0  0  0
  -26.5820  -34.8680   22.3940 O   0  0  0  0  0  0  0  0  0  0  0  0
  -24.9120  -34.0700   24.9360 H   0  0  0  0  0  0  0  0  0  0  0  0
  -24.1750  -36.7660   22.9860 C   0  0  0  0  0  1  0  0  0  0  0  0
  -25.3800  -36.3580   23.8460 C   0  0  0  0  0  3  0  0  0  0  0  0
  -27.4810  -37.2340   24.7640 C   0  0  0  0  0  1  0  0  0  0  0  0
  -26.4170  -37.4110   23.7800 N   0  0  0  0  0  0  0  0  0  0  0  0
  -26.0060  -38.3300   23.9200 H   0  0  0  0  0  0  0  0  0  0  0  0
  1  2  1  0
  1  3  1  0
  2 55  2  0
  3  4  1  0
  5  4  1  0
  6  1  1  0
  6  5  1  0
  8 10  1  0
  9  7  2  0
  9  6  1  0
 10 23  1  0
 10 11  2  0
 11  7  1  0
 11 13  1  0
 12  8  2  0
 12  9  1  0
 14 12  1  0
 15 23  1  0
 16 21  1  0
 17 18  1  0
 17 16  1  0
 19 18  1  0
 19 28  1  0
 19 20  1  0
 21 15  1  0
 21 20  1  0
 22 15  2  0
 23 24  1  0
 25 26  2  0
 26 45  1  0
 27 26  1  0
 27 30  1  0
 28 29  1  0
 28 25  1  0
 29 27  2  0
 30 31  1  0
 31 32  2  0
 33 36  1  0
 33 32  1  0
 34 33  2  0
 35 34  1  0
 35 30  2  0
 36 37  1  0
 37 38  1  0
 38 39  2  0
 40 39  1  0
 40 44  1  0
 41 40  2  0
 42 37  2  0
 42 41  1  0
 43 42  1  0
 45 46  1  0
 46 49  1  0
 46 48  1  0
 47 45  2  0
 50 25  1  0
 50 51  1  0
 52 50  1  0
 53 54  1  0
 54  2  1  0
 56 55  1  0
 57 68  2  0
 58 56  1  0
 58 63  1  0
 59 67  1  0
 59 69  1  0
 60 66  1  0
 60 62  1  0
 61 67  1  0
 62 61  1  0
 63 62  2  0
 64 58  2  0
 65 64  1  0
 65 60  2  0
 66 59  1  0
 67 57  1  0
 69 71  2  0
 70 69  1  0
 72 70  1  0
 73 82  2  0
 73 78  1  0
 74 70  1  0
 74 78  1  0
 75 74  1  0
 76 77  1  0
 76 75  1  0
 77 73  1  0
 78 79  2  0
 79 80  1  0
 81 80  2  0
 82 81  1  0
 83 57  1  0
 83 88  1  0
 83 84  1  0
 84 87  1  1
 84 85  1  0
 86 84  1  0
 88 91  1  0
 89 93  1  0
 89 88  1  0
 90 89  2  0
 93 92  1  0
 95 93  1  0
 95 96  1  0
 95 94  1  0
M  ISO  4  15 100  23 100  55 101  56 101
M  END
>  <TORSDO>  (34) 
F 19

>  <SCORE>  (34) 
-14.729

>  <name>  (34) 
34

>  <ligand_id>  (34) 
34

>  <original_smiles>  (34) 
[H]c1c([H])c([H])c2c(c1[H])C([H])([H])C([H])([H])C([H])([H])C2([H])N([H])C(=O)C1([H])N(C(=O)C([H])(N([H])C(=O)C([H])(N([H])C([H])([H])[H])C([H])([H])[H])C(C([H])([H])[H])(C([H])([H])[H])C([H])([H])[H])C([H])([H])c2c([H])c(OC([H])([H])C(=C3N(c4c([H])c(F)c(N([H])C(=O)N5C([H])([H])C([H])([H])C([H])([H])C([H])(n6nc(-c7c([H])c([H])c(Oc8c([H])c([H])c(F)c([H])c8F)c([H])c7[H])c(C(=O)N([H])[H])c6N([H])[H])C5([H])[H])c([H])c4Cl)C([H])([H])C([H])([H])C3([H])[H])C([H])([H])C([H])([H])[H])c([H])c([H])c2C1([H])[H]

>  <smiles>  (34) 
[H]c1c([H])c([H])c2c(c1[H])C([H])([H])C([H])([H])C([H])([H])C2([H])N([H])C(=O)C1([H])N(C(=O)C([H])(N([H])C(=O)C([H])(N([H])C([H])([H])[H])C([H])([H])[H])C(C([H])([H])[H])(C([H])([H])[H])C([H])([H])[H])C([H])([H])c2c([H])c(OC([H])([H])C(=C3N(c4c([H])c(F)c(N([H])C(=O)N5C([H])([H])C([H])([H])C([H])([H])C([H])(n6nc(-c7c([H])c([H])c(Oc8c([H])c([H])c(F)c([H])c8F)c([H])c7[H])c(C(=O)N([H])[H])c6N([H])[H])C5([H])[H])c([H])c4Cl)C([H])([H])C([H])([H])C3([H])[H])C([H])([H])C([H])([H])[H])c([H])c([H])c2C1([H])[H]

$$$$
35:0:0
     RDKit          3D

 93102  0  0  1  0  0  0  0  0999 V2000
  -28.5560  -23.8540   20.0550 C   0  0  0  0  0  0  0  0  0  0  0  0
  -29.7420  -25.2640   18.5760 C   0  0  0  0  0  2  0  0  0  0  0  0
  -30.0360  -23.7750   18.3060 C   0  0  0  0  0  2  0  0  0  0  0  0
  -28.4320  -25.2600   19.3500 C   0  0  0  0  0  3  0  0  0  0  0  0
  -29.4000  -23.0010   19.3780 N   0  0  0  0  0  0  0  0  0  0  0  0
  -27.9300  -23.5800   21.0830 O   0  0  0  0  0  0  0  0  0  0  0  0
  -30.5020  -19.4090   18.5010 C   0  0  0  0  0  3  0  0  0  0  0  0
  -30.0940  -20.7730   18.4070 C   0  0  0  0  0  3  0  0  0  0  0  0
  -29.6900  -20.8340   20.7650 C   0  0  0  0  0  3  0  0  0  0  0  0
  -30.5640  -18.7180   19.7360 C   0  0  0  0  0  0  0  0  0  0  0  0
  -29.7070  -21.5550   19.5360 C   0  0  0  0  0  0  0  0  0  0  0  0
  -30.1120  -19.4650   20.8680 C   0  0  0  0  0  0  0  0  0  0  0  0
  -30.1320  -18.7410   22.4360 Cl  0  0  0  0  0  0  0  0  0  0  0  0
  -31.3540  -17.3490   19.8440 C   0  0  0  0  0  2  0  0  0  0  0  0
  -31.4260  -14.7920   19.6010 C   0  0  0  0  0  0  0  0  0  0  0  0
  -31.1070  -12.4190   18.9210 C   0  0  0  0  0  2  0  0  0  0  0  0
  -30.1120  -12.3470   17.7440 C   0  0  0  0  0  2  0  0  0  0  0  0
  -28.6630  -12.2760   18.2630 C   0  0  0  0  0  2  0  0  0  0  0  0
  -28.3650  -13.3410   19.3530 C   0  0  0  0  0  3  0  0  0  0  0  0
  -29.4750  -13.3920   20.4240 C   0  0  0  0  0  2  0  0  0  0  0  0
  -30.7480  -13.6070   19.7250 N   0  0  0  0  0  0  0  0  0  0  0  0
  -32.5910  -14.8050   19.1970 O   0  0  0  0  0  0  0  0  0  0  0  0
  -30.7370  -15.9710   19.7670 N   0  0  0  0  0  0  0  0  0  0  0  0
  -29.7630  -15.8970   20.0150 H   0  0  0  0  0  0  0  0  0  0  0  0
  -26.1010  -14.1080   20.2880 C   0  0  0  0  0  0  0  0  0  0  0  0
  -25.0040  -13.4150   20.7230 C   0  0  0  0  0  0  0  0  0  0  0  0
  -25.3440  -12.0310   20.6170 C   0  0  0  0  0  0  0  0  0  0  0  0
  -27.0420  -13.1530   19.9450 N   0  0  0  0  0  0  0  0  0  0  0  0
  -26.5990  -11.8960   20.2040 N   0  0  0  0  0  0  0  0  0  0  0  0
  -24.5280  -10.8280   20.8300 C   0  0  0  0  0  0  0  0  0  0  0  0
  -24.8880   -9.8500   21.7820 C   0  0  0  0  0  3  0  0  0  0  0  0
  -24.0760   -8.7120   21.9810 C   0  0  0  0  0  3  0  0  0  0  0  0
  -22.8900   -8.5460   21.2280 C   0  0  0  0  0  0  0  0  0  0  0  0
  -22.5480   -9.5120   20.2650 C   0  0  0  0  0  3  0  0  0  0  0  0
  -23.3600  -10.6400   20.0640 C   0  0  0  0  0  3  0  0  0  0  0  0
  -22.0530   -7.4620   21.3360 O   0  0  0  0  0  0  0  0  0  0  0  0
  -21.8570   -6.8200   22.5330 C   0  0  0  0  0  0  0  0  0  0  0  0
  -21.3640   -7.4970   23.6700 C   0  0  0  0  0  3  0  0  0  0  0  0
  -21.1120   -6.7840   24.8600 C   0  0  0  0  0  3  0  0  0  0  0  0
  -21.3430   -5.3970   24.9120 C   0  0  0  0  0  0  0  0  0  0  0  0
  -21.8300   -4.7210   23.7800 C   0  0  0  0  0  3  0  0  0  0  0  0
  -22.0830   -5.4290   22.5920 C   0  0  0  0  0  0  0  0  0  0  0  0
  -22.5310   -4.7690   21.4980 F   0  0  0  0  0  0  0  0  0  0  0  0
  -21.0950   -4.7110   26.0520 F   0  0  0  0  0  0  0  0  0  0  0  0
  -23.6800  -13.9980   21.1180 C   0  0  0  0  0  0  0  0  0  0  0  0
  -22.9700  -13.3450   22.0320 N   0  0  0  0  0  0  0  0  0  0  0  0
  -23.2870  -15.0670   20.6520 O   0  0  0  0  0  0  0  0  0  0  0  0
  -23.3030  -12.4790   22.4300 H   0  0  0  0  0  0  0  0  0  0  0  0
  -22.0830  -13.7170   22.3400 H   0  0  0  0  0  0  0  0  0  0  0  0
  -26.3670  -15.4660   20.1340 N   0  0  0  0  0  0  0  0  0  0  0  0
  -25.6680  -16.1750   20.3230 H   0  0  0  0  0  0  0  0  0  0  0  0
  -27.2150  -15.8440   19.7310 H   0  0  0  0  0  0  0  0  0  0  0  0
  -28.2910  -26.4890   20.1780 O   0  0  0  0  0  0  0  0  0  0  0  0
  -24.5810  -31.8590   23.2650 C   0  0  0  0  0  0  0  0  0  0  0  0
  -27.1510  -27.3130   20.1360 C   0  0  0  0  0  0  0  0  0  0  0  0
  -23.3590  -30.4840   21.6180 C   0  0  0  0  0  3  0  0  0  0  0  0
  -24.7900  -28.9400   20.1690 C   0  0  0  0  0  0  0  0  0  0  0  0
  -25.8990  -30.7890   21.4220 C   0  0  0  0  0  2  0  0  0  0  0  0
  -25.9660  -29.4160   20.7600 C   0  0  0  0  0  0  0  0  0  0  0  0
  -27.1450  -28.6130   20.7350 C   0  0  0  0  0  3  0  0  0  0  0  0
  -25.9390  -26.8830   19.5460 C   0  0  0  0  0  3  0  0  0  0  0  0
  -24.7780  -27.6790   19.5560 C   0  0  0  0  0  3  0  0  0  0  0  0
  -23.5600  -29.8220   20.2310 C   0  0  0  0  0  2  0  0  0  0  0  0
  -24.6330  -31.0610   22.1580 N   0  0  0  0  0  0  0  0  0  0  0  0
  -23.5020  -32.1370   23.8080 O   0  0  0  0  0  0  0  0  0  0  0  0
  -22.6970  -29.4600   22.5730 C   0  0  0  0  0  0  0  0  0  0  0  0
  -21.3790  -29.2500   22.4130 N   0  0  0  0  0  0  0  0  0  0  0  0
  -23.3690  -28.8590   23.4150 O   0  0  0  0  0  0  0  0  0  0  0  0
  -20.8950  -29.7880   21.7080 H   0  0  0  0  0  0  0  0  0  0  0  0
  -18.0360  -27.9210   22.7840 C   0  0  0  0  0  0  0  0  0  0  0  0
  -20.5630  -28.3010   23.1730 C   0  0  0  0  0  3  0  0  0  0  0  0
  -20.7550  -26.8580   22.6530 C   0  0  0  0  0  2  0  0  0  0  0  0
  -19.7220  -26.4550   21.5950 C   0  0  0  0  0  2  0  0  0  0  0  0
  -18.3040  -26.5590   22.1640 C   0  0  0  0  0  2  0  0  0  0  0  0
  -19.0960  -28.7450   23.2430 C   0  0  0  0  0  0  0  0  0  0  0  0
  -18.7940  -30.0150   23.7800 C   0  0  0  0  0  3  0  0  0  0  0  0
  -17.4610  -30.4620   23.8640 C   0  0  0  0  0  3  0  0  0  0  0  0
  -16.4140  -29.6360   23.4200 C   0  0  0  0  0  3  0  0  0  0  0  0
  -16.7010  -28.3680   22.8860 C   0  0  0  0  0  3  0  0  0  0  0  0
  -25.8700  -32.4780   23.8860 C   0  0  0  0  0  3  0  0  0  0  0  0
  -25.5790  -33.8840   24.2020 N   0  0  0  0  0  0  0  0  0  0  0  0
  -25.9140  -34.9250   23.4280 C   0  0  0  0  0  0  0  0  0  0  0  0
  -26.5690  -34.8010   22.3890 O   0  0  0  0  0  0  0  0  0  0  0  0
  -24.9980  -34.0550   25.0090 H   0  0  0  0  0  0  0  0  0  0  0  0
  -24.1990  -36.7310   23.0770 C   0  0  0  0  0  1  0  0  0  0  0  0
  -25.4490  -36.3240   23.8750 C   0  0  0  0  0  3  0  0  0  0  0  0
  -27.6010  -37.2000   24.6650 C   0  0  0  0  0  1  0  0  0  0  0  0
  -26.4910  -37.3640   23.7310 N   0  0  0  0  0  0  0  0  0  0  0  0
  -26.0960  -38.2900   23.8660 H   0  0  0  0  0  0  0  0  0  0  0  0
  -26.3700  -31.7130   25.1720 C   0  0  1  0  0  0  0  0  0  0  0  0
  -25.2650  -31.4920   26.2340 C   0  0  0  0  0  1  0  0  0  0  0  0
  -26.9440  -30.3270   24.7960 C   0  0  0  0  0  1  0  0  0  0  0  0
  -27.5210  -32.5010   25.8380 C   0  0  0  0  0  1  0  0  0  0  0  0
  1  6  2  0
  2  4  1  0
  3  2  1  0
  3  5  1  0
  4  1  1  0
  4 53  1  0
  5 11  1  0
  5  1  1  0
  7 10  1  0
  8  7  2  0
  8 11  1  0
  9 12  1  0
 10 14  1  0
 10 12  2  0
 11  9  2  0
 12 13  1  0
 15 21  1  0
 15 23  1  0
 16 21  1  0
 17 18  1  0
 17 16  1  0
 19 18  1  0
 19 28  1  0
 19 20  1  0
 21 20  1  0
 22 15  2  0
 23 14  1  0
 23 24  1  0
 25 26  2  0
 26 45  1  0
 27 26  1  0
 27 30  1  0
 28 29  1  0
 28 25  1  0
 29 27  2  0
 30 31  1  0
 31 32  2  0
 33 36  1  0
 33 32  1  0
 34 33  2  0
 35 34  1  0
 35 30  2  0
 36 37  1  0
 37 42  2  0
 37 38  1  0
 38 39  2  0
 39 40  1  0
 40 44  1  0
 41 40  2  0
 42 41  1  0
 43 42  1  0
 45 46  1  0
 46 49  1  0
 46 48  1  0
 47 45  2  0
 50 25  1  0
 50 51  1  0
 52 50  1  0
 54 65  2  0
 55 53  1  0
 55 60  1  0
 56 64  1  0
 56 66  1  0
 57 63  1  0
 57 59  1  0
 58 64  1  0
 59 58  1  0
 60 59  2  0
 61 62  1  0
 61 55  2  0
 62 57  2  0
 63 56  1  0
 64 54  1  0
 66 68  2  0
 67 66  1  0
 69 67  1  0
 70 79  2  0
 70 75  1  0
 71 67  1  0
 71 75  1  0
 72 71  1  0
 73 74  1  0
 73 72  1  0
 74 70  1  0
 75 76  2  0
 76 77  1  0
 78 77  2  0
 79 78  1  0
 80 54  1  0
 80 81  1  0
 80 90  1  0
 81 84  1  0
 82 86  1  0
 82 81  1  0
 83 82  2  0
 86 85  1  0
 88 89  1  0
 88 86  1  0
 88 87  1  0
 90 93  1  1
 90 91  1  0
 92 90  1  0
M  ISO  4   4 101  15 100  23 100  53 101
M  END
>  <TORSDO>  (35) 
F 18

>  <SCORE>  (35) 
-13.145

>  <name>  (35) 
35

>  <ligand_id>  (35) 
35

>  <original_smiles>  (35) 
[H]c1c([H])c([H])c2c(c1[H])C([H])([H])C([H])([H])C([H])([H])C2([H])N([H])C(=O)C1([H])N(C(=O)C([H])(N([H])C(=O)C([H])(N([H])C([H])([H])[H])C([H])([H])[H])C(C([H])([H])[H])(C([H])([H])[H])C([H])([H])[H])C([H])([H])c2c([H])c(OC3([H])C(=O)N(c4c([H])c([H])c(C([H])([H])N([H])C(=O)N5C([H])([H])C([H])([H])C([H])([H])C([H])(n6nc(-c7c([H])c([H])c(Oc8c([H])c([H])c(F)c([H])c8F)c([H])c7[H])c(C(=O)N([H])[H])c6N([H])[H])C5([H])[H])c(Cl)c4[H])C([H])([H])C3([H])[H])c([H])c([H])c2C1([H])[H]

>  <smiles>  (35) 
[H]c1c([H])c([H])c2c(c1[H])C([H])([H])C([H])([H])C([H])([H])C2([H])N([H])C(=O)C1([H])N(C(=O)C([H])(N([H])C(=O)C([H])(N([H])C([H])([H])[H])C([H])([H])[H])C(C([H])([H])[H])(C([H])([H])[H])C([H])([H])[H])C([H])([H])c2c([H])c(OC3([H])C(=O)N(c4c([H])c([H])c(C([H])([H])N([H])C(=O)N5C([H])([H])C([H])([H])C([H])([H])C([H])(n6nc(-c7c([H])c([H])c(Oc8c([H])c([H])c(F)c([H])c8F)c([H])c7[H])c(C(=O)N([H])[H])c6N([H])[H])C5([H])[H])c(Cl)c4[H])C([H])([H])C3([H])[H])c([H])c([H])c2C1([H])[H]

$$$$
36:0:0
     RDKit          3D

 92101  0  0  1  0  0  0  0  0999 V2000
  -29.9790  -21.8610   20.5310 C   0  0  0  0  0  2  0  0  0  0  0  0
  -31.0010  -19.5340   19.6930 C   0  0  0  0  0  3  0  0  0  0  0  0
  -31.0460  -18.0940   19.6660 C   0  0  0  0  0  3  0  0  0  0  0  0
  -28.8720  -19.4640   20.7680 C   0  0  0  0  0  3  0  0  0  0  0  0
  -29.9150  -20.2810   20.2490 C   0  0  0  0  0  0  0  0  0  0  0  0
  -28.9100  -18.0280   20.7510 C   0  0  0  0  0  0  0  0  0  0  0  0
  -30.0020  -17.2830   20.2000 C   0  0  0  0  0  0  0  0  0  0  0  0
  -27.7500  -17.2830   21.3910 C   0  0  0  0  0  1  0  0  0  0  0  0
  -30.6520  -14.7660   19.5980 C   0  0  0  0  0  0  0  0  0  0  0  0
  -30.3040  -12.5640   18.4520 C   0  0  0  0  0  2  0  0  0  0  0  0
  -29.2290  -12.7330   17.3530 C   0  0  0  0  0  2  0  0  0  0  0  0
  -27.8120  -12.5670   17.9370 C   0  0  0  0  0  2  0  0  0  0  0  0
  -27.6070  -13.3790   19.2430 C   0  0  0  0  0  3  0  0  0  0  0  0
  -28.7800  -13.1690   20.2260 C   0  0  0  0  0  2  0  0  0  0  0  0
  -30.0210  -13.5430   19.5270 N   0  0  0  0  0  0  0  0  0  0  0  0
  -31.7530  -14.9320   19.0630 O   0  0  0  0  0  0  0  0  0  0  0  0
  -29.9350  -15.7960   20.1790 N   0  0  0  0  0  0  0  0  0  0  0  0
  -29.1260  -15.4350   20.6580 H   0  0  0  0  0  0  0  0  0  0  0  0
  -25.3070  -13.9750   20.2190 C   0  0  0  0  0  0  0  0  0  0  0  0
  -24.2800  -13.2010   20.6860 C   0  0  0  0  0  0  0  0  0  0  0  0
  -24.7260  -11.8480   20.5820 C   0  0  0  0  0  0  0  0  0  0  0  0
  -26.3150  -13.0930   19.8610 N   0  0  0  0  0  0  0  0  0  0  0  0
  -25.9760  -11.8080   20.1380 N   0  0  0  0  0  0  0  0  0  0  0  0
  -24.0110  -10.5870   20.8220 C   0  0  0  0  0  0  0  0  0  0  0  0
  -24.4660   -9.6490   21.7760 C   0  0  0  0  0  3  0  0  0  0  0  0
  -23.7520   -8.4540   22.0020 C   0  0  0  0  0  3  0  0  0  0  0  0
  -22.5660   -8.1860   21.2760 C   0  0  0  0  0  0  0  0  0  0  0  0
  -22.1310   -9.1110   20.3100 C   0  0  0  0  0  3  0  0  0  0  0  0
  -22.8470  -10.2980   20.0820 C   0  0  0  0  0  3  0  0  0  0  0  0
  -21.8210   -7.0400   21.4100 O   0  0  0  0  0  0  0  0  0  0  0  0
  -21.6990   -6.3980   22.6150 C   0  0  0  0  0  0  0  0  0  0  0  0
  -21.1900   -7.0510   23.7600 C   0  0  0  0  0  3  0  0  0  0  0  0
  -21.0170   -6.3350   24.9600 C   0  0  0  0  0  3  0  0  0  0  0  0
  -21.3430   -4.9660   25.0180 C   0  0  0  0  0  0  0  0  0  0  0  0
  -21.8460   -4.3130   23.8790 C   0  0  0  0  0  3  0  0  0  0  0  0
  -22.0200   -5.0280   22.6800 C   0  0  0  0  0  0  0  0  0  0  0  0
  -22.4860   -4.3890   21.5790 F   0  0  0  0  0  0  0  0  0  0  0  0
  -21.1710   -4.2750   26.1690 F   0  0  0  0  0  0  0  0  0  0  0  0
  -22.9230  -13.6810   21.1140 C   0  0  0  0  0  0  0  0  0  0  0  0
  -22.2940  -12.9830   22.0540 N   0  0  0  0  0  0  0  0  0  0  0  0
  -22.4320  -14.7090   20.6480 O   0  0  0  0  0  0  0  0  0  0  0  0
  -22.7080  -12.1530   22.4510 H   0  0  0  0  0  0  0  0  0  0  0  0
  -21.3880  -13.2840   22.3830 H   0  0  0  0  0  0  0  0  0  0  0  0
  -25.4600  -15.3470   20.0450 N   0  0  0  0  0  0  0  0  0  0  0  0
  -24.6970  -15.9940   20.2120 H   0  0  0  0  0  0  0  0  0  0  0  0
  -26.2480  -15.7780   19.5790 H   0  0  0  0  0  0  0  0  0  0  0  0
  -28.2260  -23.8210   20.5060 C   0  0  0  0  0  2  0  0  0  0  0  0
  -29.8830  -24.2270   19.4520 C   0  0  0  0  0  2  0  0  0  0  0  0
  -28.5340  -25.0040   19.5320 C   0  0  0  0  0  3  0  0  0  0  0  0
  -29.1880  -22.9380   19.7700 N   0  0  1  0  0  4  0  0  0  0  0  0
  -28.7670  -22.5550   18.9390 H   0  0  0  0  0  0  0  0  0  0  0  0
  -28.5290  -26.4400   19.9920 O   0  0  0  0  0  0  0  0  0  0  0  0
  -24.5450  -31.6690   23.0750 C   0  0  0  0  0  0  0  0  0  0  0  0
  -27.3610  -27.2410   19.9570 C   0  0  0  0  0  0  0  0  0  0  0  0
  -23.4090  -30.2510   21.4060 C   0  0  0  0  0  3  0  0  0  0  0  0
  -24.9270  -28.7800   19.9650 C   0  0  0  0  0  0  0  0  0  0  0  0
  -25.9340  -30.6690   21.2370 C   0  0  0  0  0  2  0  0  0  0  0  0
  -26.0760  -29.3010   20.5730 C   0  0  0  0  0  0  0  0  0  0  0  0
  -27.2920  -28.5460   20.5550 C   0  0  0  0  0  3  0  0  0  0  0  0
  -26.1760  -26.7800   19.3360 C   0  0  0  0  0  3  0  0  0  0  0  0
  -24.9820  -27.5260   19.3390 C   0  0  0  0  0  3  0  0  0  0  0  0
  -23.6580  -29.6070   20.0170 C   0  0  0  0  0  2  0  0  0  0  0  0
  -24.6480  -30.8820   21.9630 N   0  0  0  0  0  0  0  0  0  0  0  0
  -23.4490  -31.8930   23.6090 O   0  0  0  0  0  0  0  0  0  0  0  0
  -22.7810  -29.1940   22.3470 C   0  0  0  0  0  0  0  0  0  0  0  0
  -21.4640  -28.9680   22.2140 N   0  0  0  0  0  0  0  0  0  0  0  0
  -23.4810  -28.5820   23.1580 O   0  0  0  0  0  0  0  0  0  0  0  0
  -20.9540  -29.5200   21.5370 H   0  0  0  0  0  0  0  0  0  0  0  0
  -18.1320  -27.6430   22.7000 C   0  0  0  0  0  0  0  0  0  0  0  0
  -20.6820  -27.9840   22.9650 C   0  0  0  0  0  3  0  0  0  0  0  0
  -20.8290  -26.5710   22.3540 C   0  0  0  0  0  2  0  0  0  0  0  0
  -19.7330  -26.2350   21.3370 C   0  0  0  0  0  2  0  0  0  0  0  0
  -18.3510  -26.3180   21.9900 C   0  0  0  0  0  2  0  0  0  0  0  0
  -19.2260  -28.4330   23.1440 C   0  0  0  0  0  0  0  0  0  0  0  0
  -18.9660  -29.6730   23.7670 C   0  0  0  0  0  3  0  0  0  0  0  0
  -17.6450  -30.1230   23.9520 C   0  0  0  0  0  3  0  0  0  0  0  0
  -16.5660  -29.3310   23.5220 C   0  0  0  0  0  3  0  0  0  0  0  0
  -16.8110  -28.0930   22.9020 C   0  0  0  0  0  3  0  0  0  0  0  0
  -25.7970  -32.3450   23.7140 C   0  0  0  0  0  3  0  0  0  0  0  0
  -25.4330  -33.7290   24.0500 N   0  0  0  0  0  0  0  0  0  0  0  0
  -25.7210  -34.7960   23.2930 C   0  0  0  0  0  0  0  0  0  0  0  0
  -26.3890  -34.7220   22.2590 O   0  0  0  0  0  0  0  0  0  0  0  0
  -24.8350  -33.8590   24.8530 H   0  0  0  0  0  0  0  0  0  0  0  0
  -23.9170  -36.5180   22.9610 C   0  0  0  0  0  1  0  0  0  0  0  0
  -25.1830  -36.1650   23.7580 C   0  0  0  0  0  3  0  0  0  0  0  0
  -27.2850  -37.1410   24.5720 C   0  0  0  0  0  1  0  0  0  0  0  0
  -26.1710  -37.2590   23.6340 N   0  0  0  0  0  0  0  0  0  0  0  0
  -25.7280  -38.1620   23.7810 H   0  0  0  0  0  0  0  0  0  0  0  0
  -26.3240  -31.5880   24.9930 C   0  0  1  0  0  0  0  0  0  0  0  0
  -25.2260  -31.3000   26.0440 C   0  0  0  0  0  1  0  0  0  0  0  0
  -26.9670  -30.2370   24.6010 C   0  0  0  0  0  1  0  0  0  0  0  0
  -27.4330  -32.4200   25.6760 C   0  0  0  0  0  1  0  0  0  0  0  0
  2  5  1  0
  3  2  2  0
  3  7  1  0
  5  1  1  0
  5  4  2  0
  6  4  1  0
  6  8  1  0
  7  6  2  0
  9 17  1  0
 10 15  1  0
 11 12  1  0
 11 10  1  0
 13 12  1  0
 13 22  1  0
 13 14  1  0
 15  9  1  0
 15 14  1  0
 16  9  2  0
 17  7  1  0
 17 18  1  0
 19 20  2  0
 20 39  1  0
 21 20  1  0
 21 24  1  0
 22 23  1  0
 22 19  1  0
 23 21  2  0
 24 25  1  0
 25 26  2  0
 27 30  1  0
 27 26  1  0
 28 27  2  0
 29 28  1  0
 29 24  2  0
 30 31  1  0
 31 36  2  0
 31 32  1  0
 32 33  2  0
 33 34  1  0
 34 38  1  0
 35 34  2  0
 36 35  1  0
 37 36  1  0
 39 40  1  0
 40 43  1  0
 40 42  1  0
 41 39  2  0
 44 45  1  0
 44 19  1  0
 46 44  1  0
 48 49  1  0
 48 50  1  0
 49 52  1  0
 49 47  1  0
 50 47  1  0
 50  1  1  0
 50 51  1  6
 53 64  2  0
 54 52  1  0
 54 59  1  0
 55 63  1  0
 55 65  1  0
 56 62  1  0
 56 58  1  0
 57 63  1  0
 58 57  1  0
 59 58  2  0
 60 61  1  0
 60 54  2  0
 61 56  2  0
 62 55  1  0
 63 53  1  0
 65 67  2  0
 66 65  1  0
 68 66  1  0
 69 78  2  0
 69 74  1  0
 70 66  1  0
 70 74  1  0
 71 70  1  0
 72 73  1  0
 72 71  1  0
 73 69  1  0
 74 75  2  0
 75 76  1  0
 77 76  2  0
 78 77  1  0
 79 53  1  0
 79 80  1  0
 79 89  1  0
 80 83  1  0
 81 85  1  0
 81 80  1  0
 82 81  2  0
 85 84  1  0
 87 85  1  0
 87 88  1  0
 87 86  1  0
 89 92  1  1
 89 90  1  0
 91 89  1  0
M  ISO  4   9 100  17 100  49 101  52 101
M  END
>  <TORSDO>  (36) 
F 18

>  <SCORE>  (36) 
-11.510

>  <name>  (36) 
36

>  <ligand_id>  (36) 
36

>  <original_smiles>  (36) 
[H]c1c([H])c([H])c2c(c1[H])C([H])([H])C([H])([H])C([H])([H])C2([H])N([H])C(=O)C1([H])N(C(=O)C([H])(N([H])C(=O)C([H])(N([H])C([H])([H])[H])C([H])([H])[H])C(C([H])([H])[H])(C([H])([H])[H])C([H])([H])[H])C([H])([H])c2c([H])c(OC3([H])C([H])([H])[N+]([H])(C([H])([H])c4c([H])c([H])c(N([H])C(=O)N5C([H])([H])C([H])([H])C([H])([H])C([H])(n6nc(-c7c([H])c([H])c(Oc8c([H])c([H])c(F)c([H])c8F)c([H])c7[H])c(C(=O)N([H])[H])c6N([H])[H])C5([H])[H])c(C([H])([H])[H])c4[H])C3([H])[H])c([H])c([H])c2C1([H])[H]

>  <smiles>  (36) 
[H]c1c([H])c([H])c2c(c1[H])C([H])([H])C([H])([H])C([H])([H])C2([H])N([H])C(=O)C1([H])N(C(=O)C([H])(N([H])C(=O)C([H])(N([H])C([H])([H])[H])C([H])([H])[H])C(C([H])([H])[H])(C([H])([H])[H])C([H])([H])[H])C([H])([H])c2c([H])c(OC3([H])C([H])([H])[N+]([H])(C([H])([H])c4c([H])c([H])c(N([H])C(=O)N5C([H])([H])C([H])([H])C([H])([H])C([H])(n6nc(-c7c([H])c([H])c(Oc8c([H])c([H])c(F)c([H])c8F)c([H])c7[H])c(C(=O)N([H])[H])c6N([H])[H])C5([H])[H])c(C([H])([H])[H])c4[H])C3([H])[H])c([H])c([H])c2C1([H])[H]

$$$$
37:0:0
     RDKit          3D

 89 97  0  0  1  0  0  0  0  0999 V2000
  -29.1370  -21.3200   19.6590 C   0  0  0  0  0  3  0  0  0  0  0  0
  -30.4020  -21.6080   22.0200 C   0  0  0  0  0  3  0  0  0  0  0  0
  -29.8250  -20.0220   20.1860 C   0  0  0  0  0  0  0  0  0  0  0  0
  -29.0550  -22.7580   20.2590 C   0  0  0  0  0  0  0  0  0  0  0  0
  -30.4510  -20.3130   21.4220 C   0  0  0  0  0  0  0  0  0  0  0  0
  -29.7540  -22.7610   21.4910 C   0  0  0  0  0  0  0  0  0  0  0  0
  -31.2310  -19.2230   22.1380 C   0  0  0  0  0  1  0  0  0  0  0  0
  -29.8130  -24.2050   22.4370 Cl  0  0  0  0  0  0  0  0  0  0  0  0
  -30.0850  -18.4010   19.5120 C   0  0  0  0  0  2  0  0  0  0  0  0
  -30.7360  -15.5010   19.9260 C   0  0  0  0  0  0  0  0  0  0  0  0
  -30.6950  -13.0110   19.1570 C   0  0  0  0  0  2  0  0  0  0  0  0
  -29.7600  -12.7540   17.9460 C   0  0  0  0  0  2  0  0  0  0  0  0
  -28.3170  -12.5010   18.4160 C   0  0  0  0  0  2  0  0  0  0  0  0
  -27.8870  -13.5020   19.5160 C   0  0  0  0  0  3  0  0  0  0  0  0
  -28.9510  -13.6950   20.6190 C   0  0  0  0  0  2  0  0  0  0  0  0
  -30.1720  -14.1870   19.9560 N   0  0  0  0  0  0  0  0  0  0  0  0
  -31.9390  -15.4760   19.6230 O   0  0  0  0  0  0  0  0  0  0  0  0
  -29.9890  -16.7940   20.0380 N   0  0  0  0  0  0  0  0  0  0  0  0
  -29.0560  -16.6000   20.3730 H   0  0  0  0  0  0  0  0  0  0  0  0
  -25.5440  -14.0970   20.3230 C   0  0  0  0  0  0  0  0  0  0  0  0
  -24.4770  -13.3400   20.7160 C   0  0  0  0  0  0  0  0  0  0  0  0
  -24.9200  -11.9810   20.6770 C   0  0  0  0  0  0  0  0  0  0  0  0
  -26.5660  -13.2040   20.0570 N   0  0  0  0  0  0  0  0  0  0  0  0
  -26.2050  -11.9240   20.3360 N   0  0  0  0  0  0  0  0  0  0  0  0
  -24.1750  -10.7320   20.8820 C   0  0  0  0  0  0  0  0  0  0  0  0
  -24.5870   -9.7710   21.8310 C   0  0  0  0  0  3  0  0  0  0  0  0
  -23.8390   -8.5900   22.0260 C   0  0  0  0  0  3  0  0  0  0  0  0
  -22.6660   -8.3600   21.2710 C   0  0  0  0  0  0  0  0  0  0  0  0
  -22.2720   -9.3090   20.3100 C   0  0  0  0  0  3  0  0  0  0  0  0
  -23.0200  -10.4810   20.1130 C   0  0  0  0  0  3  0  0  0  0  0  0
  -21.8900   -7.2300   21.3740 O   0  0  0  0  0  0  0  0  0  0  0  0
  -21.7950   -6.5260   22.5470 C   0  0  0  0  0  0  0  0  0  0  0  0
  -21.3310   -7.1240   23.7400 C   0  0  0  0  0  3  0  0  0  0  0  0
  -21.1830   -6.3480   24.9060 C   0  0  0  0  0  3  0  0  0  0  0  0
  -21.4900   -4.9750   24.8820 C   0  0  0  0  0  0  0  0  0  0  0  0
  -21.9460   -4.3750   23.6950 C   0  0  0  0  0  3  0  0  0  0  0  0
  -22.0970   -5.1490   22.5310 C   0  0  0  0  0  0  0  0  0  0  0  0
  -22.5170   -4.5610   21.3850 F   0  0  0  0  0  0  0  0  0  0  0  0
  -21.3400   -4.2260   26.0000 F   0  0  0  0  0  0  0  0  0  0  0  0
  -23.0950  -13.8420   21.0110 C   0  0  0  0  0  0  0  0  0  0  0  0
  -22.3750  -13.1720   21.9030 N   0  0  0  0  0  0  0  0  0  0  0  0
  -22.6630  -14.8660   20.4820 O   0  0  0  0  0  0  0  0  0  0  0  0
  -22.7390  -12.3440   22.3530 H   0  0  0  0  0  0  0  0  0  0  0  0
  -21.4470  -13.4920   22.1400 H   0  0  0  0  0  0  0  0  0  0  0  0
  -25.7240  -15.4650   20.1390 N   0  0  0  0  0  0  0  0  0  0  0  0
  -24.9700  -16.1310   20.2690 H   0  0  0  0  0  0  0  0  0  0  0  0
  -26.5590  -15.8850   19.7530 H   0  0  0  0  0  0  0  0  0  0  0  0
  -28.1610  -24.2320   19.8310 C   0  0  0  0  0  2  0  0  0  0  0  0
  -28.3220  -25.8640   20.1610 O   0  0  0  0  0  0  0  0  0  0  0  0
  -24.6470  -31.7880   23.1610 C   0  0  0  0  0  0  0  0  0  0  0  0
  -27.3070  -26.9740   20.0710 C   0  0  0  0  0  0  0  0  0  0  0  0
  -23.4830  -30.3820   21.5080 C   0  0  0  0  0  3  0  0  0  0  0  0
  -24.9670  -28.8270   20.0570 C   0  0  0  0  0  0  0  0  0  0  0  0
  -26.0470  -30.6440   21.3620 C   0  0  0  0  0  2  0  0  0  0  0  0
  -26.1470  -29.2420   20.6850 C   0  0  0  0  0  0  0  0  0  0  0  0
  -27.3070  -28.3350   20.6710 C   0  0  0  0  0  3  0  0  0  0  0  0
  -26.0970  -26.7290   19.3830 C   0  0  0  0  0  3  0  0  0  0  0  0
  -24.9690  -27.5940   19.3830 C   0  0  0  0  0  3  0  0  0  0  0  0
  -23.7260  -29.7210   20.1220 C   0  0  0  0  0  2  0  0  0  0  0  0
  -24.7480  -30.9670   22.0630 N   0  0  0  0  0  0  0  0  0  0  0  0
  -23.5520  -32.0460   23.6870 O   0  0  0  0  0  0  0  0  0  0  0  0
  -22.8140  -29.3610   22.4650 C   0  0  0  0  0  0  0  0  0  0  0  0
  -21.4940  -29.1410   22.3190 N   0  0  0  0  0  0  0  0  0  0  0  0
  -23.4900  -28.7680   23.3070 O   0  0  0  0  0  0  0  0  0  0  0  0
  -20.9980  -29.6730   21.6160 H   0  0  0  0  0  0  0  0  0  0  0  0
  -18.1660  -27.7510   22.7460 C   0  0  0  0  0  0  0  0  0  0  0  0
  -20.6990  -28.1690   23.0790 C   0  0  0  0  0  3  0  0  0  0  0  0
  -20.8980  -26.7370   22.5280 C   0  0  0  0  0  2  0  0  0  0  0  0
  -19.8470  -26.3380   21.4870 C   0  0  0  0  0  2  0  0  0  0  0  0
  -18.4400  -26.4090   22.0900 C   0  0  0  0  0  2  0  0  0  0  0  0
  -19.2270  -28.5840   23.1960 C   0  0  0  0  0  0  0  0  0  0  0  0
  -18.9150  -29.8350   23.7720 C   0  0  0  0  0  3  0  0  0  0  0  0
  -17.5770  -30.2560   23.9000 C   0  0  0  0  0  3  0  0  0  0  0  0
  -16.5330  -29.4220   23.4640 C   0  0  0  0  0  3  0  0  0  0  0  0
  -16.8270  -28.1710   22.8930 C   0  0  0  0  0  3  0  0  0  0  0  0
  -25.9020  -32.4560   23.7990 C   0  0  0  0  0  3  0  0  0  0  0  0
  -25.5580  -33.8510   24.1280 N   0  0  0  0  0  0  0  0  0  0  0  0
  -25.8910  -34.9200   23.3920 C   0  0  0  0  0  0  0  0  0  0  0  0
  -26.5810  -34.8360   22.3740 O   0  0  0  0  0  0  0  0  0  0  0  0
  -24.9420  -33.9870   24.9160 H   0  0  0  0  0  0  0  0  0  0  0  0
  -24.1430  -36.6990   23.0360 C   0  0  0  0  0  1  0  0  0  0  0  0
  -25.3810  -36.3010   23.8570 C   0  0  0  0  0  3  0  0  0  0  0  0
  -27.4900  -37.2140   24.7230 C   0  0  0  0  0  1  0  0  0  0  0  0
  -26.4010  -37.3680   23.7630 N   0  0  0  0  0  0  0  0  0  0  0  0
  -25.9810  -38.2840   23.9020 H   0  0  0  0  0  0  0  0  0  0  0  0
  -26.4120  -31.7060   25.0920 C   0  0  1  0  0  0  0  0  0  0  0  0
  -25.3080  -31.4640   26.1490 C   0  0  0  0  0  1  0  0  0  0  0  0
  -27.0190  -30.3320   24.7320 C   0  0  0  0  0  1  0  0  0  0  0  0
  -27.5430  -32.5220   25.7590 C   0  0  0  0  0  1  0  0  0  0  0  0
  1  3  2  0
  1  4  1  0
  3  5  1  0
  4  6  2  0
  5  2  2  0
  5  7  1  0
  6  2  1  0
  6  8  1  0
  9 18  1  0
  9  3  1  0
 10 16  1  0
 10 18  1  0
 11 16  1  0
 12 13  1  0
 12 11  1  0
 14 13  1  0
 14 23  1  0
 14 15  1  0
 16 15  1  0
 17 10  2  0
 18 19  1  0
 20 21  2  0
 21 40  1  0
 22 21  1  0
 22 25  1  0
 23 20  1  0
 23 24  1  0
 24 22  2  0
 25 26  1  0
 26 27  2  0
 28 31  1  0
 28 27  1  0
 29 28  2  0
 30 29  1  0
 30 25  2  0
 31 32  1  0
 32 33  1  0
 33 34  2  0
 35 34  1  0
 35 39  1  0
 36 35  2  0
 37 32  2  0
 37 36  1  0
 38 37  1  0
 40 41  1  0
 41 44  1  0
 41 43  1  0
 42 40  2  0
 45 46  1  0
 45 20  1  0
 47 45  1  0
 48 49  1  0
 48  4  1  0
 50 61  2  0
 51 49  1  0
 51 56  1  0
 52 60  1  0
 52 62  1  0
 53 59  1  0
 53 55  1  0
 54 60  1  0
 55 54  1  0
 56 55  2  0
 57 58  1  0
 57 51  2  0
 58 53  2  0
 59 52  1  0
 60 50  1  0
 62 64  2  0
 63 62  1  0
 65 63  1  0
 66 75  2  0
 66 71  1  0
 67 63  1  0
 67 71  1  0
 68 67  1  0
 69 70  1  0
 69 68  1  0
 70 66  1  0
 71 72  2  0
 72 73  1  0
 74 73  2  0
 75 74  1  0
 76 50  1  0
 76 77  1  0
 76 86  1  0
 77 80  1  0
 78 82  1  0
 78 77  1  0
 79 78  2  0
 82 81  1  0
 84 82  1  0
 84 85  1  0
 84 83  1  0
 86 89  1  1
 86 87  1  0
 88 86  1  0
M  ISO  4  10 100  18 100  48 101  49 101
M  END
>  <TORSDO>  (37) 
F 18

>  <SCORE>  (37) 
-16.588

>  <name>  (37) 
37

>  <ligand_id>  (37) 
37

>  <original_smiles>  (37) 
[H]c1c([H])c([H])c2c(c1[H])C([H])([H])C([H])([H])C([H])([H])C2([H])N([H])C(=O)C1([H])N(C(=O)C([H])(N([H])C(=O)C([H])(N([H])C([H])([H])[H])C([H])([H])[H])C(C([H])([H])[H])(C([H])([H])[H])C([H])([H])[H])C([H])([H])c2c([H])c(OC([H])([H])c3c([H])c(C([H])([H])N([H])C(=O)N4C([H])([H])C([H])([H])C([H])([H])C([H])(n5nc(-c6c([H])c([H])c(Oc7c([H])c([H])c(F)c([H])c7F)c([H])c6[H])c(C(=O)N([H])[H])c5N([H])[H])C4([H])[H])c(C([H])([H])[H])c([H])c3Cl)c([H])c([H])c2C1([H])[H]

>  <smiles>  (37) 
[H]c1c([H])c([H])c2c(c1[H])C([H])([H])C([H])([H])C([H])([H])C2([H])N([H])C(=O)C1([H])N(C(=O)C([H])(N([H])C(=O)C([H])(N([H])C([H])([H])[H])C([H])([H])[H])C(C([H])([H])[H])(C([H])([H])[H])C([H])([H])[H])C([H])([H])c2c([H])c(OC([H])([H])c3c([H])c(C([H])([H])N([H])C(=O)N4C([H])([H])C([H])([H])C([H])([H])C([H])(n5nc(-c6c([H])c([H])c(Oc7c([H])c([H])c(F)c([H])c7F)c([H])c6[H])c(C(=O)N([H])[H])c5N([H])[H])C4([H])[H])c(C([H])([H])[H])c([H])c3Cl)c([H])c([H])c2C1([H])[H]

$$$$
38:0:0
     RDKit          3D

 89 98  0  0  1  0  0  0  0  0999 V2000
  -27.8920  -23.3990   19.5080 C   0  0  0  0  0  2  0  0  0  0  0  0
  -29.2590  -23.6490   21.0410 C   0  0  0  0  0  2  0  0  0  0  0  0
  -28.0720  -24.6270   20.5410 C   0  0  0  0  0  3  0  0  0  0  0  0
  -28.5780  -22.4520   20.4550 N   0  0  0  0  0  0  0  0  0  0  0  0
  -28.1190  -19.9090   19.8070 C   0  0  0  0  0  3  0  0  0  0  0  0
  -30.1490  -20.2370   20.8320 C   0  0  0  0  0  3  0  0  0  0  0  0
  -28.3520  -18.4660   19.8020 C   0  0  0  0  0  3  0  0  0  0  0  0
  -30.4160  -18.7850   20.8140 C   0  0  0  0  0  3  0  0  0  0  0  0
  -28.9700  -20.9420   20.3470 C   0  0  0  0  0  0  0  0  0  0  0  0
  -29.5110  -17.7790   20.3100 C   0  0  0  0  0  0  0  0  0  0  0  0
  -30.4440  -15.0950   20.2650 C   0  0  0  0  0  0  0  0  0  0  0  0
  -30.3880  -12.7220   19.3240 C   0  0  0  0  0  2  0  0  0  0  0  0
  -29.4260  -12.6450   18.1130 C   0  0  0  0  0  2  0  0  0  0  0  0
  -27.9730  -12.4150   18.5750 C   0  0  0  0  0  2  0  0  0  0  0  0
  -27.5770  -13.3320   19.7590 C   0  0  0  0  0  3  0  0  0  0  0  0
  -28.6550  -13.3520   20.8620 C   0  0  0  0  0  2  0  0  0  0  0  0
  -29.9010  -13.8040   20.2290 N   0  0  0  0  0  0  0  0  0  0  0  0
  -31.6470  -15.1990   19.9970 O   0  0  0  0  0  0  0  0  0  0  0  0
  -29.5590  -16.2200   20.3830 N   0  0  0  0  0  0  0  0  0  0  0  0
  -28.6270  -15.8450   20.4620 H   0  0  0  0  0  0  0  0  0  0  0  0
  -25.2110  -13.8940   20.5570 C   0  0  0  0  0  0  0  0  0  0  0  0
  -24.1570  -13.1110   20.9370 C   0  0  0  0  0  0  0  0  0  0  0  0
  -24.6220  -11.7620   20.8770 C   0  0  0  0  0  0  0  0  0  0  0  0
  -26.2500  -13.0220   20.2810 N   0  0  0  0  0  0  0  0  0  0  0  0
  -25.9080  -11.7330   20.5410 N   0  0  0  0  0  0  0  0  0  0  0  0
  -23.9000  -10.4960   21.0610 C   0  0  0  0  0  0  0  0  0  0  0  0
  -24.3400   -9.5240   21.9850 C   0  0  0  0  0  3  0  0  0  0  0  0
  -23.6160   -8.3230   22.1590 C   0  0  0  0  0  3  0  0  0  0  0  0
  -22.4400   -8.0890   21.4090 C   0  0  0  0  0  0  0  0  0  0  0  0
  -22.0200   -9.0510   20.4730 C   0  0  0  0  0  3  0  0  0  0  0  0
  -22.7440  -10.2420   20.2970 C   0  0  0  0  0  3  0  0  0  0  0  0
  -21.6890   -6.9410   21.4920 O   0  0  0  0  0  0  0  0  0  0  0  0
  -21.6370   -6.1980   22.6430 C   0  0  0  0  0  0  0  0  0  0  0  0
  -21.1640   -6.7390   23.8590 C   0  0  0  0  0  3  0  0  0  0  0  0
  -21.0600   -5.9200   25.0010 C   0  0  0  0  0  3  0  0  0  0  0  0
  -21.4210   -4.5610   24.9290 C   0  0  0  0  0  0  0  0  0  0  0  0
  -21.8860   -4.0180   23.7180 C   0  0  0  0  0  3  0  0  0  0  0  0
  -21.9910   -4.8340   22.5780 C   0  0  0  0  0  0  0  0  0  0  0  0
  -22.4200   -4.3020   21.4080 F   0  0  0  0  0  0  0  0  0  0  0  0
  -21.3130   -3.7720   26.0230 F   0  0  0  0  0  0  0  0  0  0  0  0
  -22.7640  -13.5830   21.2390 C   0  0  0  0  0  0  0  0  0  0  0  0
  -22.0540  -12.8800   22.1130 N   0  0  0  0  0  0  0  0  0  0  0  0
  -22.3150  -14.6110   20.7330 O   0  0  0  0  0  0  0  0  0  0  0  0
  -22.4320  -12.0490   22.5450 H   0  0  0  0  0  0  0  0  0  0  0  0
  -21.1210  -13.1800   22.3590 H   0  0  0  0  0  0  0  0  0  0  0  0
  -25.3670  -15.2680   20.3940 N   0  0  0  0  0  0  0  0  0  0  0  0
  -24.5930  -15.9110   20.5290 H   0  0  0  0  0  0  0  0  0  0  0  0
  -26.1790  -15.7100   19.9910 H   0  0  0  0  0  0  0  0  0  0  0  0
  -28.2590  -26.1770   20.2710 O   0  0  0  0  0  0  0  0  0  0  0  0
  -24.6220  -31.9110   23.2650 C   0  0  0  0  0  0  0  0  0  0  0  0
  -27.1890  -27.1580   20.2500 C   0  0  0  0  0  0  0  0  0  0  0  0
  -23.4200  -30.5180   21.6250 C   0  0  0  0  0  3  0  0  0  0  0  0
  -24.8650  -28.9270   20.2060 C   0  0  0  0  0  0  0  0  0  0  0  0
  -25.9760  -30.7690   21.4620 C   0  0  0  0  0  2  0  0  0  0  0  0
  -26.0470  -29.3710   20.8120 C   0  0  0  0  0  0  0  0  0  0  0  0
  -27.2100  -28.5060   20.8070 C   0  0  0  0  0  3  0  0  0  0  0  0
  -25.9780  -26.8150   19.6160 C   0  0  0  0  0  3  0  0  0  0  0  0
  -24.8450  -27.6640   19.5900 C   0  0  0  0  0  3  0  0  0  0  0  0
  -23.6420  -29.8340   20.2490 C   0  0  0  0  0  2  0  0  0  0  0  0
  -24.6940  -31.0890   22.1720 N   0  0  0  0  0  0  0  0  0  0  0  0
  -23.5350  -32.1990   23.7920 O   0  0  0  0  0  0  0  0  0  0  0  0
  -22.7350  -29.5170   22.5890 C   0  0  0  0  0  0  0  0  0  0  0  0
  -21.4070  -29.3430   22.4570 N   0  0  0  0  0  0  0  0  0  0  0  0
  -23.4010  -28.8960   23.4220 O   0  0  0  0  0  0  0  0  0  0  0  0
  -20.9250  -29.8970   21.7630 H   0  0  0  0  0  0  0  0  0  0  0  0
  -18.0270  -28.1340   22.9440 C   0  0  0  0  0  0  0  0  0  0  0  0
  -20.5830  -28.4070   23.2270 C   0  0  0  0  0  3  0  0  0  0  0  0
  -20.6920  -26.9730   22.6600 C   0  0  0  0  0  2  0  0  0  0  0  0
  -19.5990  -26.6410   21.6400 C   0  0  0  0  0  2  0  0  0  0  0  0
  -18.2120  -26.7830   22.2740 C   0  0  0  0  0  2  0  0  0  0  0  0
  -19.1390  -28.9030   23.3780 C   0  0  0  0  0  0  0  0  0  0  0  0
  -18.9100  -30.1660   23.9660 C   0  0  0  0  0  3  0  0  0  0  0  0
  -17.6020  -30.6600   24.1240 C   0  0  0  0  0  3  0  0  0  0  0  0
  -16.5040  -29.8890   23.7050 C   0  0  0  0  0  3  0  0  0  0  0  0
  -16.7170  -28.6280   23.1210 C   0  0  0  0  0  3  0  0  0  0  0  0
  -25.9000  -32.5450   23.8940 C   0  0  0  0  0  3  0  0  0  0  0  0
  -26.3980  -31.7830   25.1850 C   0  0  1  0  0  0  0  0  0  0  0  0
  -25.2950  -31.5630   26.2450 C   0  0  0  0  0  1  0  0  0  0  0  0
  -26.9780  -30.3980   24.8160 C   0  0  0  0  0  1  0  0  0  0  0  0
  -27.5480  -32.5770   25.8500 C   0  0  0  0  0  1  0  0  0  0  0  0
  -25.5930  -33.9480   24.2180 N   0  0  0  0  0  0  0  0  0  0  0  0
  -25.9170  -34.9980   23.4510 C   0  0  0  0  0  0  0  0  0  0  0  0
  -26.5700  -34.8880   22.4100 O   0  0  0  0  0  0  0  0  0  0  0  0
  -25.0090  -34.1070   25.0260 H   0  0  0  0  0  0  0  0  0  0  0  0
  -24.1820  -36.7950   23.1290 C   0  0  0  0  0  1  0  0  0  0  0  0
  -25.4430  -36.3920   23.9100 C   0  0  0  0  0  3  0  0  0  0  0  0
  -27.5950  -37.2880   24.6860 C   0  0  0  0  0  1  0  0  0  0  0  0
  -26.4730  -37.4430   23.7640 N   0  0  0  0  0  0  0  0  0  0  0  0
  -26.0700  -38.3650   23.9070 H   0  0  0  0  0  0  0  0  0  0  0  0
  1  4  1  0
  1  3  1  0
  3 49  1  0
  3  2  1  0
  4  2  1  0
  5  9  1  0
  7  5  2  0
  7 10  1  0
  8  6  1  0
  9  4  1  0
  9  6  2  0
 10 19  1  0
 10  8  2  0
 11 19  1  0
 12 17  1  0
 13 14  1  0
 13 12  1  0
 15 14  1  0
 15 24  1  0
 15 16  1  0
 17 11  1  0
 17 16  1  0
 18 11  2  0
 19 20  1  0
 21 22  2  0
 22 41  1  0
 23 22  1  0
 23 26  1  0
 24 25  1  0
 24 21  1  0
 25 23  2  0
 26 27  1  0
 27 28  2  0
 29 32  1  0
 29 28  1  0
 30 29  2  0
 31 30  1  0
 31 26  2  0
 32 33  1  0
 33 34  1  0
 34 35  2  0
 36 35  1  0
 36 40  1  0
 37 36  2  0
 38 33  2  0
 38 37  1  0
 39 38  1  0
 41 42  1  0
 42 45  1  0
 42 44  1  0
 43 41  2  0
 46 47  1  0
 46 21  1  0
 48 46  1  0
 50 61  2  0
 51 49  1  0
 51 56  1  0
 52 60  1  0
 52 62  1  0
 53 59  1  0
 53 55  1  0
 54 60  1  0
 55 54  1  0
 56 55  2  0
 57 51  2  0
 58 57  1  0
 58 53  2  0
 59 52  1  0
 60 50  1  0
 62 64  2  0
 63 62  1  0
 65 63  1  0
 66 75  2  0
 66 71  1  0
 67 63  1  0
 67 71  1  0
 68 67  1  0
 69 70  1  0
 69 68  1  0
 70 66  1  0
 71 72  2  0
 72 73  1  0
 74 73  2  0
 75 74  1  0
 76 50  1  0
 76 81  1  0
 76 77  1  0
 77 80  1  1
 77 78  1  0
 79 77  1  0
 81 84  1  0
 82 86  1  0
 82 81  1  0
 83 82  2  0
 86 85  1  0
 88 89  1  0
 88 86  1  0
 88 87  1  0
M  ISO  4   3 101  11 100  19 100  49 101
M  END
>  <TORSDO>  (38) 
F 17

>  <SCORE>  (38) 
-15.199

>  <name>  (38) 
38

>  <ligand_id>  (38) 
38

>  <original_smiles>  (38) 
[H]c1c([H])c([H])c2c(c1[H])C([H])([H])C([H])([H])C([H])([H])C2([H])N([H])C(=O)C1([H])N(C(=O)C([H])(N([H])C(=O)C([H])(N([H])C([H])([H])[H])C([H])([H])[H])C(C([H])([H])[H])(C([H])([H])[H])C([H])([H])[H])C([H])([H])c2c([H])c(OC3([H])C([H])([H])N(c4c([H])c([H])c(N([H])C(=O)N5C([H])([H])C([H])([H])C([H])([H])C([H])(n6nc(-c7c([H])c([H])c(Oc8c([H])c([H])c(F)c([H])c8F)c([H])c7[H])c(C(=O)N([H])[H])c6N([H])[H])C5([H])[H])c([H])c4[H])C3([H])[H])c([H])c([H])c2C1([H])[H]

>  <smiles>  (38) 
[H]c1c([H])c([H])c2c(c1[H])C([H])([H])C([H])([H])C([H])([H])C2([H])N([H])C(=O)C1([H])N(C(=O)C([H])(N([H])C(=O)C([H])(N([H])C([H])([H])[H])C([H])([H])[H])C(C([H])([H])[H])(C([H])([H])[H])C([H])([H])[H])C([H])([H])c2c([H])c(OC3([H])C([H])([H])N(c4c([H])c([H])c(N([H])C(=O)N5C([H])([H])C([H])([H])C([H])([H])C([H])(n6nc(-c7c([H])c([H])c(Oc8c([H])c([H])c(F)c([H])c8F)c([H])c7[H])c(C(=O)N([H])[H])c6N([H])[H])C5([H])[H])c([H])c4[H])C3([H])[H])c([H])c([H])c2C1([H])[H]

$$$$
39:0:0
     RDKit          3D

 94103  0  0  1  0  0  0  0  0999 V2000
  -28.9730  -18.8550   20.8140 C   0  0  0  0  0  3  0  0  0  0  0  0
  -28.5360  -20.2120   20.8200 C   0  0  0  0  0  3  0  0  0  0  0  0
  -30.2820  -18.5270   20.4150 C   0  0  0  0  0  0  0  0  0  0  0  0
  -30.6660  -20.9740   19.9820 C   0  0  0  0  0  0  0  0  0  0  0  0
  -29.3520  -21.3260   20.4380 C   0  0  0  0  0  0  0  0  0  0  0  0
  -31.1040  -19.6080   20.0020 C   0  0  0  0  0  0  0  0  0  0  0  0
  -31.6780  -21.9950   19.4730 C   0  0  0  0  0  1  0  0  0  0  0  0
  -32.3750  -19.3230   19.6250 F   0  0  0  0  0  0  0  0  0  0  0  0
  -29.5630  -23.8240   22.5200 C   0  0  0  0  0  2  0  0  0  0  0  0
  -30.1320  -24.4990   21.2650 C   0  0  0  0  0  2  0  0  0  0  0  0
  -28.4470  -22.9140   22.0050 C   0  0  0  0  0  2  0  0  0  0  0  0
  -29.2380  -24.0020   20.1180 C   0  0  0  0  0  3  0  0  0  0  0  0
  -28.7790  -22.6530   20.6030 N   0  0  0  0  0  0  0  0  0  0  0  0
  -28.0510  -25.0490   19.8590 C   0  0  0  0  0  2  0  0  0  0  0  0
  -28.3010  -26.4990   19.7110 O   0  0  0  0  0  0  0  0  0  0  0  0
  -24.5120  -31.6410   23.0470 C   0  0  0  0  0  0  0  0  0  0  0  0
  -27.1640  -27.3230   19.7130 C   0  0  0  0  0  0  0  0  0  0  0  0
  -23.3070  -30.3060   21.3570 C   0  0  0  0  0  3  0  0  0  0  0  0
  -24.7620  -28.8730   19.8230 C   0  0  0  0  0  0  0  0  0  0  0  0
  -25.8340  -30.6950   21.1450 C   0  0  0  0  0  2  0  0  0  0  0  0
  -25.9320  -29.3570   20.4240 C   0  0  0  0  0  0  0  0  0  0  0  0
  -27.1360  -28.5960   20.3570 C   0  0  0  0  0  3  0  0  0  0  0  0
  -25.9640  -26.8880   19.0990 C   0  0  0  0  0  3  0  0  0  0  0  0
  -24.7810  -27.6420   19.1540 C   0  0  0  0  0  3  0  0  0  0  0  0
  -23.5080  -29.7130   19.9390 C   0  0  0  0  0  2  0  0  0  0  0  0
  -24.5710  -30.8930   21.9080 N   0  0  0  0  0  0  0  0  0  0  0  0
  -23.4320  -31.8680   23.6120 O   0  0  0  0  0  0  0  0  0  0  0  0
  -22.6850  -29.2240   22.2720 C   0  0  0  0  0  0  0  0  0  0  0  0
  -21.3620  -29.0240   22.1570 N   0  0  0  0  0  0  0  0  0  0  0  0
  -23.3910  -28.5690   23.0430 O   0  0  0  0  0  0  0  0  0  0  0  0
  -20.8500  -29.6020   21.5050 H   0  0  0  0  0  0  0  0  0  0  0  0
  -18.0170  -27.7430   22.6590 C   0  0  0  0  0  0  0  0  0  0  0  0
  -20.5760  -28.0330   22.8930 C   0  0  0  0  0  3  0  0  0  0  0  0
  -20.6920  -26.6380   22.2380 C   0  0  0  0  0  2  0  0  0  0  0  0
  -19.5740  -26.3500   21.2310 C   0  0  0  0  0  2  0  0  0  0  0  0
  -18.2030  -26.4360   21.9080 C   0  0  0  0  0  2  0  0  0  0  0  0
  -19.1320  -28.5010   23.1070 C   0  0  0  0  0  0  0  0  0  0  0  0
  -18.9040  -29.7260   23.7720 C   0  0  0  0  0  3  0  0  0  0  0  0
  -17.5950  -30.1960   23.9880 C   0  0  0  0  0  3  0  0  0  0  0  0
  -16.4950  -29.4350   23.5560 C   0  0  0  0  0  3  0  0  0  0  0  0
  -16.7070  -28.2100   22.8980 C   0  0  0  0  0  3  0  0  0  0  0  0
  -25.7930  -32.2670   23.6790 C   0  0  0  0  0  3  0  0  0  0  0  0
  -26.3430  -31.4440   24.9080 C   0  0  1  0  0  0  0  0  0  0  0  0
  -25.2710  -31.1380   25.9790 C   0  0  0  0  0  1  0  0  0  0  0  0
  -26.9400  -30.0970   24.4400 C   0  0  0  0  0  1  0  0  0  0  0  0
  -27.4940  -32.2230   25.5870 C   0  0  0  0  0  1  0  0  0  0  0  0
  -25.4620  -33.6410   24.0810 N   0  0  0  0  0  0  0  0  0  0  0  0
  -25.7370  -34.7350   23.3570 C   0  0  0  0  0  0  0  0  0  0  0  0
  -26.3680  -34.6940   22.2970 O   0  0  0  0  0  0  0  0  0  0  0  0
  -24.8910  -33.7470   24.9080 H   0  0  0  0  0  0  0  0  0  0  0  0
  -23.9430  -36.4870   23.1610 C   0  0  0  0  0  1  0  0  0  0  0  0
  -25.2340  -36.0890   23.8940 C   0  0  0  0  0  3  0  0  0  0  0  0
  -27.3770  -37.0090   24.6590 C   0  0  0  0  0  1  0  0  0  0  0  0
  -26.2290  -37.1770   23.7730 N   0  0  0  0  0  0  0  0  0  0  0  0
  -25.8030  -38.0770   23.9760 H   0  0  0  0  0  0  0  0  0  0  0  0
  -30.9020  -17.0900   20.4480 C   0  0  0  0  0  2  0  0  0  0  0  0
  -30.7200  -14.6180   20.2320 C   0  0  0  0  0  0  0  0  0  0  0  0
  -30.3290  -12.4110   19.1830 C   0  0  0  0  0  2  0  0  0  0  0  0
  -29.3820  -12.5530   17.9760 C   0  0  0  0  0  2  0  0  0  0  0  0
  -27.9150  -12.4430   18.4310 C   0  0  0  0  0  2  0  0  0  0  0  0
  -27.5950  -13.3190   19.6740 C   0  0  0  0  0  3  0  0  0  0  0  0
  -28.6770  -13.2000   20.7660 C   0  0  0  0  0  2  0  0  0  0  0  0
  -29.9750  -13.4750   20.1430 N   0  0  0  0  0  0  0  0  0  0  0  0
  -31.8990  -14.6250   19.8800 O   0  0  0  0  0  0  0  0  0  0  0  0
  -30.1090  -15.8140   20.5000 N   0  0  0  0  0  0  0  0  0  0  0  0
  -29.1140  -15.8470   20.6590 H   0  0  0  0  0  0  0  0  0  0  0  0
  -25.2370  -13.9300   20.4780 C   0  0  0  0  0  0  0  0  0  0  0  0
  -24.1720  -13.1640   20.8680 C   0  0  0  0  0  0  0  0  0  0  0  0
  -24.6180  -11.8070   20.8070 C   0  0  0  0  0  0  0  0  0  0  0  0
  -26.2610  -13.0410   20.1980 N   0  0  0  0  0  0  0  0  0  0  0  0
  -25.9000  -11.7580   20.4600 N   0  0  0  0  0  0  0  0  0  0  0  0
  -23.8780  -10.5520   20.9980 C   0  0  0  0  0  0  0  0  0  0  0  0
  -24.3150   -9.5720   21.9160 C   0  0  0  0  0  3  0  0  0  0  0  0
  -23.5790   -8.3810   22.0970 C   0  0  0  0  0  3  0  0  0  0  0  0
  -22.3900   -8.1640   21.3620 C   0  0  0  0  0  0  0  0  0  0  0  0
  -21.9720   -9.1290   20.4290 C   0  0  0  0  0  3  0  0  0  0  0  0
  -22.7090  -10.3110   20.2450 C   0  0  0  0  0  3  0  0  0  0  0  0
  -21.6230   -7.0270   21.4530 O   0  0  0  0  0  0  0  0  0  0  0  0
  -21.5720   -6.2830   22.6030 C   0  0  0  0  0  0  0  0  0  0  0  0
  -21.1380   -6.8300   23.8300 C   0  0  0  0  0  3  0  0  0  0  0  0
  -21.0380   -6.0120   24.9720 C   0  0  0  0  0  3  0  0  0  0  0  0
  -21.3620   -4.6440   24.8890 C   0  0  0  0  0  0  0  0  0  0  0  0
  -21.7890   -4.0940   23.6650 C   0  0  0  0  0  3  0  0  0  0  0  0
  -21.8920   -4.9120   22.5270 C   0  0  0  0  0  0  0  0  0  0  0  0
  -22.2830   -4.3740   21.3460 F   0  0  0  0  0  0  0  0  0  0  0  0
  -21.2590   -3.8530   25.9810 F   0  0  0  0  0  0  0  0  0  0  0  0
  -22.7870  -13.6530   21.1800 C   0  0  0  0  0  0  0  0  0  0  0  0
  -22.0730  -12.9610   22.0600 N   0  0  0  0  0  0  0  0  0  0  0  0
  -22.3460  -14.6830   20.6720 O   0  0  0  0  0  0  0  0  0  0  0  0
  -22.4410  -12.1270   22.4930 H   0  0  0  0  0  0  0  0  0  0  0  0
  -21.1400  -13.2640   22.3000 H   0  0  0  0  0  0  0  0  0  0  0  0
  -25.4160  -15.3010   20.3190 N   0  0  0  0  0  0  0  0  0  0  0  0
  -24.6600  -15.9640   20.4610 H   0  0  0  0  0  0  0  0  0  0  0  0
  -26.2650  -15.7330   19.9800 H   0  0  0  0  0  0  0  0  0  0  0  0
  1  2  1  0
  3 56  1  0
  3  1  2  0
  4  6  2  0
  4  5  1  0
  5 13  1  0
  5  2  2  0
  6  3  1  0
  7  4  1  0
  8  6  1  0
 10  9  1  0
 11  9  1  0
 12 14  1  0
 12 13  1  0
 12 10  1  0
 13 11  1  0
 15 17  1  0
 15 14  1  0
 16 27  2  0
 17 22  1  0
 18 26  1  0
 18 28  1  0
 19 25  1  0
 19 21  1  0
 20 26  1  0
 21 20  1  0
 22 21  2  0
 23 24  1  0
 23 17  2  0
 24 19  2  0
 25 18  1  0
 26 16  1  0
 28 30  2  0
 29 28  1  0
 31 29  1  0
 32 41  2  0
 32 37  1  0
 33 29  1  0
 33 37  1  0
 34 33  1  0
 35 36  1  0
 35 34  1  0
 36 32  1  0
 37 38  2  0
 38 39  1  0
 40 39  2  0
 41 40  1  0
 42 16  1  0
 42 47  1  0
 42 43  1  0
 43 46  1  1
 43 44  1  0
 45 43  1  0
 47 50  1  0
 48 52  1  0
 48 47  1  0
 49 48  2  0
 52 51  1  0
 54 52  1  0
 54 55  1  0
 54 53  1  0
 56 65  1  0
 57 65  1  0
 58 63  1  0
 59 60  1  0
 59 58  1  0
 61 60  1  0
 61 70  1  0
 61 62  1  0
 63 57  1  0
 63 62  1  0
 64 57  2  0
 65 66  1  0
 67 68  2  0
 68 87  1  0
 69 68  1  0
 69 72  1  0
 70 71  1  0
 70 67  1  0
 71 69  2  0
 72 73  1  0
 73 74  2  0
 75 78  1  0
 75 74  1  0
 76 75  2  0
 77 76  1  0
 77 72  2  0
 78 79  1  0
 79 80  1  0
 80 81  2  0
 82 81  1  0
 82 86  1  0
 83 82  2  0
 84 79  2  0
 84 83  1  0
 85 84  1  0
 87 88  1  0
 88 91  1  0
 88 90  1  0
 89 87  2  0
 92 93  1  0
 92 67  1  0
 94 92  1  0
M  ISO  4  14 101  15 101  57 100  65 100
M  END
>  <TORSDO>  (39) 
F 19

>  <SCORE>  (39) 
-13.932

>  <name>  (39) 
39

>  <ligand_id>  (39) 
39

>  <original_smiles>  (39) 
[H]c1c([H])c([H])c2c(c1[H])C([H])([H])C([H])([H])C([H])([H])C2([H])N([H])C(=O)C1([H])N(C(=O)C([H])(N([H])C(=O)C([H])(N([H])C([H])([H])[H])C([H])([H])[H])C(C([H])([H])[H])(C([H])([H])[H])C([H])([H])[H])C([H])([H])c2c([H])c(OC([H])([H])C3([H])N(c4c([H])c([H])c(C([H])([H])N([H])C(=O)N5C([H])([H])C([H])([H])C([H])([H])C([H])(n6nc(-c7c([H])c([H])c(Oc8c([H])c([H])c(F)c([H])c8F)c([H])c7[H])c(C(=O)N([H])[H])c6N([H])[H])C5([H])[H])c(F)c4C([H])([H])[H])C([H])([H])C([H])([H])C3([H])[H])c([H])c([H])c2C1([H])[H]

>  <smiles>  (39) 
[H]c1c([H])c([H])c2c(c1[H])C([H])([H])C([H])([H])C([H])([H])C2([H])N([H])C(=O)C1([H])N(C(=O)C([H])(N([H])C(=O)C([H])(N([H])C([H])([H])[H])C([H])([H])[H])C(C([H])([H])[H])(C([H])([H])[H])C([H])([H])[H])C([H])([H])c2c([H])c(OC([H])([H])C3([H])N(c4c([H])c([H])c(C([H])([H])N([H])C(=O)N5C([H])([H])C([H])([H])C([H])([H])C([H])(n6nc(-c7c([H])c([H])c(Oc8c([H])c([H])c(F)c([H])c8F)c([H])c7[H])c(C(=O)N([H])[H])c6N([H])[H])C5([H])[H])c(F)c4C([H])([H])[H])C([H])([H])C([H])([H])C3([H])[H])c([H])c([H])c2C1([H])[H]

$$$$
40:0:0
     RDKit          3D

 91100  0  0  1  0  0  0  0  0999 V2000
  -28.7420  -19.2210   20.1350 C   0  0  0  0  0  3  0  0  0  0  0  0
  -28.3440  -20.6020   20.2440 C   0  0  0  0  0  3  0  0  0  0  0  0
  -30.3570  -21.2800   19.2440 C   0  0  0  0  0  3  0  0  0  0  0  0
  -30.0090  -18.8140   19.6220 C   0  0  0  0  0  0  0  0  0  0  0  0
  -30.7640  -19.9110   19.0840 C   0  0  0  0  0  0  0  0  0  0  0  0
  -29.1630  -21.7190   19.8850 C   0  0  0  0  0  0  0  0  0  0  0  0
  -32.0550  -19.6690   18.3100 C   0  0  0  0  0  1  0  0  0  0  0  0
  -27.6600  -23.9180   20.3670 C   0  0  0  0  0  2  0  0  0  0  0  0
  -29.5680  -24.3140   19.6120 C   0  0  0  0  0  2  0  0  0  0  0  0
  -28.6040  -25.1830   20.5040 C   0  0  0  0  0  3  0  0  0  0  0  0
  -28.9210  -23.1460   20.2260 N   0  0  0  0  0  0  0  0  0  0  0  0
  -28.4300  -26.5900   20.0550 O   0  0  0  0  0  0  0  0  0  0  0  0
  -24.6260  -31.9350   23.2450 C   0  0  0  0  0  0  0  0  0  0  0  0
  -27.2650  -27.3470   20.2140 C   0  0  0  0  0  0  0  0  0  0  0  0
  -23.4320  -30.5090   21.6220 C   0  0  0  0  0  3  0  0  0  0  0  0
  -24.8890  -28.9350   20.2300 C   0  0  0  0  0  0  0  0  0  0  0  0
  -25.9710  -30.8360   21.4320 C   0  0  0  0  0  2  0  0  0  0  0  0
  -26.0590  -29.4430   20.8100 C   0  0  0  0  0  0  0  0  0  0  0  0
  -27.2530  -28.6610   20.7870 C   0  0  0  0  0  3  0  0  0  0  0  0
  -26.0690  -26.8790   19.6410 C   0  0  0  0  0  3  0  0  0  0  0  0
  -24.8920  -27.6550   19.6480 C   0  0  0  0  0  3  0  0  0  0  0  0
  -23.6500  -29.8070   20.2570 C   0  0  0  0  0  2  0  0  0  0  0  0
  -24.6970  -31.1110   22.1550 N   0  0  0  0  0  0  0  0  0  0  0  0
  -23.5390  -32.2110   23.7730 O   0  0  0  0  0  0  0  0  0  0  0  0
  -22.7770  -29.5010   22.5940 C   0  0  0  0  0  0  0  0  0  0  0  0
  -21.4530  -29.3110   22.4670 N   0  0  0  0  0  0  0  0  0  0  0  0
  -23.4610  -28.8830   23.4170 O   0  0  0  0  0  0  0  0  0  0  0  0
  -20.9600  -29.8620   21.7770 H   0  0  0  0  0  0  0  0  0  0  0  0
  -18.0850  -28.0890   22.9570 C   0  0  0  0  0  0  0  0  0  0  0  0
  -20.6390  -28.3710   23.2380 C   0  0  0  0  0  3  0  0  0  0  0  0
  -20.7550  -26.9340   22.6750 C   0  0  0  0  0  2  0  0  0  0  0  0
  -19.6620  -26.5930   21.6590 C   0  0  0  0  0  2  0  0  0  0  0  0
  -18.2750  -26.7330   22.2940 C   0  0  0  0  0  2  0  0  0  0  0  0
  -19.1960  -28.8660   23.3830 C   0  0  0  0  0  0  0  0  0  0  0  0
  -18.9650  -30.1350   23.9550 C   0  0  0  0  0  3  0  0  0  0  0  0
  -17.6560  -30.6270   24.1140 C   0  0  0  0  0  3  0  0  0  0  0  0
  -16.5590  -29.8450   23.7070 C   0  0  0  0  0  3  0  0  0  0  0  0
  -16.7740  -28.5800   23.1310 C   0  0  0  0  0  3  0  0  0  0  0  0
  -25.9030  -32.5800   23.8640 C   0  0  0  0  0  3  0  0  0  0  0  0
  -25.5870  -33.9790   24.1850 N   0  0  0  0  0  0  0  0  0  0  0  0
  -25.9130  -35.0300   23.4180 C   0  0  0  0  0  0  0  0  0  0  0  0
  -26.5830  -34.9250   22.3880 O   0  0  0  0  0  0  0  0  0  0  0  0
  -25.0150  -34.1390   24.9990 H   0  0  0  0  0  0  0  0  0  0  0  0
  -24.1830  -36.8120   23.0440 C   0  0  0  0  0  1  0  0  0  0  0  0
  -25.4160  -36.4170   23.8690 C   0  0  0  0  0  3  0  0  0  0  0  0
  -27.5330  -37.3180   24.7250 C   0  0  0  0  0  1  0  0  0  0  0  0
  -26.4460  -37.4740   23.7620 N   0  0  0  0  0  0  0  0  0  0  0  0
  -26.0320  -38.3920   23.8990 H   0  0  0  0  0  0  0  0  0  0  0  0
  -26.4210  -31.8240   25.1500 C   0  0  1  0  0  0  0  0  0  0  0  0
  -25.3230  -31.5810   26.2130 C   0  0  0  0  0  1  0  0  0  0  0  0
  -27.0200  -30.4540   24.7600 C   0  0  0  0  0  1  0  0  0  0  0  0
  -27.5640  -32.6310   25.8070 C   0  0  0  0  0  1  0  0  0  0  0  0
  -30.6160  -17.3160   19.6030 C   0  0  0  0  0  2  0  0  0  0  0  0
  -30.7080  -14.7980   20.0880 C   0  0  0  0  0  0  0  0  0  0  0  0
  -30.4010  -12.5580   19.0100 C   0  0  0  0  0  2  0  0  0  0  0  0
  -29.4090  -12.6690   17.8300 C   0  0  0  0  0  2  0  0  0  0  0  0
  -27.9570  -12.4890   18.3200 C   0  0  0  0  0  2  0  0  0  0  0  0
  -27.6550  -13.3360   19.5860 C   0  0  0  0  0  3  0  0  0  0  0  0
  -28.7580  -13.1620   20.6400 C   0  0  0  0  0  2  0  0  0  0  0  0
  -30.0230  -13.5930   20.0110 N   0  0  0  0  0  0  0  0  0  0  0  0
  -31.8780  -14.8170   19.6860 O   0  0  0  0  0  0  0  0  0  0  0  0
  -29.1330  -16.2450   21.3880 C   0  0  0  0  0  1  0  0  0  0  0  0
  -30.0460  -16.0310   20.2490 N   0  0  0  0  0  0  0  0  0  0  0  0
  -25.3170  -13.9150   20.4650 C   0  0  0  0  0  0  0  0  0  0  0  0
  -24.2730  -13.1370   20.8720 C   0  0  0  0  0  0  0  0  0  0  0  0
  -24.7340  -11.7840   20.7920 C   0  0  0  0  0  0  0  0  0  0  0  0
  -26.3410  -13.0410   20.1440 N   0  0  0  0  0  0  0  0  0  0  0  0
  -26.0030  -11.7530   20.4080 N   0  0  0  0  0  0  0  0  0  0  0  0
  -24.0220  -10.5190   20.9930 C   0  0  0  0  0  0  0  0  0  0  0  0
  -24.4740   -9.5520   21.9190 C   0  0  0  0  0  3  0  0  0  0  0  0
  -23.7590   -8.3500   22.1030 C   0  0  0  0  0  3  0  0  0  0  0  0
  -22.5790   -8.1050   21.3620 C   0  0  0  0  0  0  0  0  0  0  0  0
  -22.1470   -9.0610   20.4250 C   0  0  0  0  0  3  0  0  0  0  0  0
  -22.8620  -10.2550   20.2380 C   0  0  0  0  0  3  0  0  0  0  0  0
  -21.8340   -6.9550   21.4570 O   0  0  0  0  0  0  0  0  0  0  0  0
  -21.7730   -6.2310   22.6210 C   0  0  0  0  0  0  0  0  0  0  0  0
  -21.2960   -6.7940   23.8250 C   0  0  0  0  0  3  0  0  0  0  0  0
  -21.1830   -5.9950   24.9800 C   0  0  0  0  0  3  0  0  0  0  0  0
  -21.5380   -4.6340   24.9320 C   0  0  0  0  0  0  0  0  0  0  0  0
  -22.0100   -4.0710   23.7320 C   0  0  0  0  0  3  0  0  0  0  0  0
  -22.1230   -4.8670   22.5800 C   0  0  0  0  0  0  0  0  0  0  0  0
  -22.5570   -4.3130   21.4220 F   0  0  0  0  0  0  0  0  0  0  0  0
  -21.4250   -3.8630   26.0390 F   0  0  0  0  0  0  0  0  0  0  0  0
  -22.8890  -13.6040   21.2220 C   0  0  0  0  0  0  0  0  0  0  0  0
  -22.2010  -12.8880   22.1020 N   0  0  0  0  0  0  0  0  0  0  0  0
  -22.4290  -14.6430   20.7460 O   0  0  0  0  0  0  0  0  0  0  0  0
  -22.5850  -12.0470   22.5080 H   0  0  0  0  0  0  0  0  0  0  0  0
  -21.2750  -13.1830   22.3730 H   0  0  0  0  0  0  0  0  0  0  0  0
  -25.4780  -15.2920   20.3170 N   0  0  0  0  0  0  0  0  0  0  0  0
  -24.7330  -15.9480   20.5260 H   0  0  0  0  0  0  0  0  0  0  0  0
  -26.3180  -15.7430   19.9820 H   0  0  0  0  0  0  0  0  0  0  0  0
  1  2  1  0
  3  6  1  0
  4  1  2  0
  5  3  2  0
  5  4  1  0
  6 11  1  0
  6  2  2  0
  7  5  1  0
  8 10  1  0
  9 11  1  0
  9 10  1  0
 10 12  1  0
 11  8  1  0
 12 14  1  0
 13 24  2  0
 14 19  1  0
 15 23  1  0
 15 25  1  0
 16 22  1  0
 16 18  1  0
 17 23  1  0
 18 17  1  0
 19 18  2  0
 20 21  1  0
 20 14  2  0
 21 16  2  0
 22 15  1  0
 23 13  1  0
 25 27  2  0
 26 25  1  0
 28 26  1  0
 29 38  2  0
 29 34  1  0
 30 26  1  0
 30 34  1  0
 31 30  1  0
 32 33  1  0
 32 31  1  0
 33 29  1  0
 34 35  2  0
 35 36  1  0
 37 36  2  0
 38 37  1  0
 39 13  1  0
 39 40  1  0
 39 49  1  0
 40 43  1  0
 41 45  1  0
 41 40  1  0
 42 41  2  0
 45 44  1  0
 47 45  1  0
 47 48  1  0
 47 46  1  0
 49 52  1  1
 49 50  1  0
 51 49  1  0
 53  4  1  0
 53 63  1  0
 54 63  1  0
 55 60  1  0
 56 57  1  0
 56 55  1  0
 58 57  1  0
 58 67  1  0
 58 59  1  0
 60 54  1  0
 60 59  1  0
 61 54  2  0
 63 62  1  0
 64 65  2  0
 65 84  1  0
 66 65  1  0
 66 69  1  0
 67 68  1  0
 67 64  1  0
 68 66  2  0
 69 70  1  0
 70 71  2  0
 72 75  1  0
 72 71  1  0
 73 72  2  0
 74 73  1  0
 74 69  2  0
 75 76  1  0
 76 77  1  0
 77 78  2  0
 79 78  1  0
 79 83  1  0
 80 79  2  0
 81 76  2  0
 81 80  1  0
 82 81  1  0
 84 85  1  0
 85 88  1  0
 85 87  1  0
 86 84  2  0
 89 64  1  0
 89 90  1  0
 91 89  1  0
M  ISO  4  10 101  12 101  54 100  63 100
M  END
>  <TORSDO>  (40) 
F 18

>  <SCORE>  (40) 
-14.463

>  <name>  (40) 
40

>  <ligand_id>  (40) 
40

>  <original_smiles>  (40) 
[H]c1c([H])c([H])c2c(c1[H])C([H])([H])C([H])([H])C([H])([H])C2([H])N([H])C(=O)C1([H])N(C(=O)C([H])(N([H])C(=O)C([H])(N([H])C([H])([H])[H])C([H])([H])[H])C(C([H])([H])[H])(C([H])([H])[H])C([H])([H])[H])C([H])([H])c2c([H])c(OC3([H])C([H])([H])N(c4c([H])c([H])c(C([H])([H])N(C(=O)N5C([H])([H])C([H])([H])C([H])([H])C([H])(n6nc(-c7c([H])c([H])c(Oc8c([H])c([H])c(F)c([H])c8F)c([H])c7[H])c(C(=O)N([H])[H])c6N([H])[H])C5([H])[H])C([H])([H])[H])c(C([H])([H])[H])c4[H])C3([H])[H])c([H])c([H])c2C1([H])[H]

>  <smiles>  (40) 
[H]c1c([H])c([H])c2c(c1[H])C([H])([H])C([H])([H])C([H])([H])C2([H])N([H])C(=O)C1([H])N(C(=O)C([H])(N([H])C(=O)C([H])(N([H])C([H])([H])[H])C([H])([H])[H])C(C([H])([H])[H])(C([H])([H])[H])C([H])([H])[H])C([H])([H])c2c([H])c(OC3([H])C([H])([H])N(c4c([H])c([H])c(C([H])([H])N(C(=O)N5C([H])([H])C([H])([H])C([H])([H])C([H])(n6nc(-c7c([H])c([H])c(Oc8c([H])c([H])c(F)c([H])c8F)c([H])c7[H])c(C(=O)N([H])[H])c6N([H])[H])C5([H])[H])C([H])([H])[H])c(C([H])([H])[H])c4[H])C3([H])[H])c([H])c([H])c2C1([H])[H]

$$$$
41:0:0
     RDKit          3D

 99109  0  0  1  0  0  0  0  0999 V2000
  -31.2670  -21.0520   19.6850 C   0  0  0  0  0  2  0  0  0  0  0  0
  -30.1750  -23.2620   19.4420 C   0  0  0  0  0  0  0  0  0  0  0  0
  -29.7000  -23.3830   22.2600 C   0  0  0  0  0  2  0  0  0  0  0  0
  -29.8500  -24.7480   21.5820 C   0  0  0  0  0  2  0  0  0  0  0  0
  -30.7460  -22.4150   21.7020 C   0  0  0  0  0  2  0  0  0  0  0  0
  -29.9480  -24.6850   20.0350 C   0  0  0  0  0  3  0  0  0  0  0  0
  -30.6100  -22.2510   20.2490 N   0  0  0  0  0  0  0  0  0  0  0  0
  -30.0230  -23.1050   18.2260 O   0  0  0  0  0  0  0  0  0  0  0  0
  -28.7790  -25.4500   19.3620 C   0  0  0  0  0  2  0  0  0  0  0  0
  -28.7960  -26.8310   19.7600 O   0  0  0  0  0  0  0  0  0  0  0  0
  -24.9140  -31.7050   23.1810 C   0  0  0  0  0  0  0  0  0  0  0  0
  -27.6010  -27.5240   19.7830 C   0  0  0  0  0  0  0  0  0  0  0  0
  -23.7190  -30.4110   21.4450 C   0  0  0  0  0  3  0  0  0  0  0  0
  -25.1850  -28.9980   19.9090 C   0  0  0  0  0  0  0  0  0  0  0  0
  -26.2390  -30.8120   21.2680 C   0  0  0  0  0  2  0  0  0  0  0  0
  -26.3380  -29.4890   20.5350 C   0  0  0  0  0  0  0  0  0  0  0  0
  -27.5450  -28.7590   20.4710 C   0  0  0  0  0  3  0  0  0  0  0  0
  -26.4300  -27.0530   19.1460 C   0  0  0  0  0  3  0  0  0  0  0  0
  -25.2260  -27.7800   19.2110 C   0  0  0  0  0  3  0  0  0  0  0  0
  -23.9310  -29.8340   20.0200 C   0  0  0  0  0  2  0  0  0  0  0  0
  -24.9760  -30.9870   22.0240 N   0  0  0  0  0  0  0  0  0  0  0  0
  -23.8310  -31.9250   23.7420 O   0  0  0  0  0  0  0  0  0  0  0  0
  -23.0840  -29.3150   22.3320 C   0  0  0  0  0  0  0  0  0  0  0  0
  -21.7530  -29.1610   22.2290 N   0  0  0  0  0  0  0  0  0  0  0  0
  -23.7820  -28.6120   23.0660 O   0  0  0  0  0  0  0  0  0  0  0  0
  -21.2520  -29.7810   21.6100 H   0  0  0  0  0  0  0  0  0  0  0  0
  -18.3770  -27.9760   22.7260 C   0  0  0  0  0  0  0  0  0  0  0  0
  -20.9460  -28.1690   22.9380 C   0  0  0  0  0  3  0  0  0  0  0  0
  -21.0050  -26.7950   22.2310 C   0  0  0  0  0  2  0  0  0  0  0  0
  -19.8680  -26.5820   21.2280 C   0  0  0  0  0  2  0  0  0  0  0  0
  -18.5090  -26.6900   21.9260 C   0  0  0  0  0  2  0  0  0  0  0  0
  -19.5220  -28.6780   23.1870 C   0  0  0  0  0  0  0  0  0  0  0  0
  -19.3450  -29.8860   23.8960 C   0  0  0  0  0  3  0  0  0  0  0  0
  -18.0560  -30.3910   24.1470 C   0  0  0  0  0  3  0  0  0  0  0  0
  -16.9260  -29.6840   23.7010 C   0  0  0  0  0  3  0  0  0  0  0  0
  -17.0870  -28.4780   22.9970 C   0  0  0  0  0  3  0  0  0  0  0  0
  -26.1940  -32.3050   23.8420 C   0  0  0  0  0  3  0  0  0  0  0  0
  -26.7240  -31.4510   25.0600 C   0  0  1  0  0  0  0  0  0  0  0  0
  -25.6410  -31.1410   26.1180 C   0  0  0  0  0  1  0  0  0  0  0  0
  -27.3050  -30.1040   24.5690 C   0  0  0  0  0  1  0  0  0  0  0  0
  -27.8800  -32.2010   25.7630 C   0  0  0  0  0  1  0  0  0  0  0  0
  -25.8740  -33.6730   24.2660 N   0  0  0  0  0  0  0  0  0  0  0  0
  -26.2170  -34.7780   23.5900 C   0  0  0  0  0  0  0  0  0  0  0  0
  -26.9080  -34.7510   22.5680 O   0  0  0  0  0  0  0  0  0  0  0  0
  -25.2610  -33.7680   25.0620 H   0  0  0  0  0  0  0  0  0  0  0  0
  -24.4880  -36.5850   23.3270 C   0  0  0  0  0  1  0  0  0  0  0  0
  -25.7130  -36.1280   24.1340 C   0  0  0  0  0  3  0  0  0  0  0  0
  -27.8250  -36.9580   25.0730 C   0  0  0  0  0  1  0  0  0  0  0  0
  -26.7430  -37.1890   24.1190 N   0  0  0  0  0  0  0  0  0  0  0  0
  -26.3300  -38.0960   24.3220 H   0  0  0  0  0  0  0  0  0  0  0  0
  -31.6420  -18.9210   20.9810 C   0  0  0  0  0  3  0  0  0  0  0  0
  -31.3600  -17.5770   21.2760 C   0  0  0  0  0  3  0  0  0  0  0  0
  -29.6200  -19.0500   19.6480 C   0  0  0  0  0  3  0  0  0  0  0  0
  -30.8020  -19.6590   20.1270 C   0  0  0  0  0  0  0  0  0  0  0  0
  -29.3200  -17.6860   19.9360 C   0  0  0  0  0  0  0  0  0  0  0  0
  -30.2470  -16.9180   20.6970 C   0  0  0  0  0  0  0  0  0  0  0  0
  -30.6190  -14.5160   20.1100 C   0  0  0  0  0  0  0  0  0  0  0  0
  -30.2590  -12.3860   18.9280 C   0  0  0  0  0  2  0  0  0  0  0  0
  -29.2290  -12.5970   17.7990 C   0  0  0  0  0  2  0  0  0  0  0  0
  -27.8010  -12.3840   18.3350 C   0  0  0  0  0  2  0  0  0  0  0  0
  -27.5280  -13.1720   19.6450 C   0  0  0  0  0  3  0  0  0  0  0  0
  -28.6740  -12.9860   20.6680 C   0  0  0  0  0  2  0  0  0  0  0  0
  -29.9420  -13.3370   20.0080 N   0  0  0  0  0  0  0  0  0  0  0  0
  -31.6770  -14.6980   19.5090 O   0  0  0  0  0  0  0  0  0  0  0  0
  -30.0300  -15.5000   20.8200 N   0  0  0  0  0  0  0  0  0  0  0  0
  -29.1480  -15.2620   21.2470 H   0  0  0  0  0  0  0  0  0  0  0  0
  -25.1750  -13.6430   20.5750 C   0  0  0  0  0  0  0  0  0  0  0  0
  -24.1680  -12.8140   20.9850 C   0  0  0  0  0  0  0  0  0  0  0  0
  -24.6710  -11.4850   20.8450 C   0  0  0  0  0  0  0  0  0  0  0  0
  -26.2300  -12.8170   20.2170 N   0  0  0  0  0  0  0  0  0  0  0  0
  -25.9330  -11.5100   20.4330 N   0  0  0  0  0  0  0  0  0  0  0  0
  -24.0040  -10.1880   21.0250 C   0  0  0  0  0  0  0  0  0  0  0  0
  -24.4990   -9.2220   21.9280 C   0  0  0  0  0  3  0  0  0  0  0  0
  -23.8300   -7.9900   22.0990 C   0  0  0  0  0  3  0  0  0  0  0  0
  -22.6510   -7.7170   21.3650 C   0  0  0  0  0  0  0  0  0  0  0  0
  -22.1760   -8.6710   20.4490 C   0  0  0  0  0  3  0  0  0  0  0  0
  -22.8460   -9.8930   20.2770 C   0  0  0  0  0  3  0  0  0  0  0  0
  -21.9510   -6.5370   21.4440 O   0  0  0  0  0  0  0  0  0  0  0  0
  -21.8790   -5.8190   22.6110 C   0  0  0  0  0  0  0  0  0  0  0  0
  -21.3630   -6.3810   23.7990 C   0  0  0  0  0  3  0  0  0  0  0  0
  -21.2410   -5.5870   24.9570 C   0  0  0  0  0  3  0  0  0  0  0  0
  -21.6260   -4.2330   24.9280 C   0  0  0  0  0  0  0  0  0  0  0  0
  -22.1350   -3.6720   23.7440 C   0  0  0  0  0  3  0  0  0  0  0  0
  -22.2580   -4.4630   22.5880 C   0  0  0  0  0  0  0  0  0  0  0  0
  -22.7300   -3.9120   21.4430 F   0  0  0  0  0  0  0  0  0  0  0  0
  -21.5030   -3.4680   26.0380 F   0  0  0  0  0  0  0  0  0  0  0  0
  -22.7830  -13.2250   21.3990 C   0  0  0  0  0  0  0  0  0  0  0  0
  -22.1560  -12.4640   22.2900 N   0  0  0  0  0  0  0  0  0  0  0  0
  -22.2660  -14.2550   20.9690 O   0  0  0  0  0  0  0  0  0  0  0  0
  -22.5880  -11.6300   22.6610 H   0  0  0  0  0  0  0  0  0  0  0  0
  -21.2320  -12.7210   22.6070 H   0  0  0  0  0  0  0  0  0  0  0  0
  -25.2780  -15.0230   20.4570 N   0  0  0  0  0  0  0  0  0  0  0  0
  -24.5120  -15.6430   20.6920 H   0  0  0  0  0  0  0  0  0  0  0  0
  -26.1270  -15.5140   20.2050 H   0  0  0  0  0  0  0  0  0  0  0  0
  -25.7900  -17.5700   19.8130 C   0  0  0  0  0  2  0  0  0  0  0  0
  -26.3050  -18.2820   18.5670 C   0  0  0  0  0  2  0  0  0  0  0  0
  -27.0600  -17.0610   20.4990 C   0  0  0  0  0  2  0  0  0  0  0  0
  -27.5350  -17.4530   18.2120 C   0  0  0  0  0  2  0  0  0  0  0  0
  -28.1260  -17.0650   19.4920 N   0  0  0  0  0  0  0  0  0  0  0  0
  1 54  1  0
  1  7  1  0
  2  6  1  0
  2  7  1  0
  4  3  1  0
  5  3  1  0
  6  9  1  0
  6  4  1  0
  7  5  1  0
  8  2  2  0
  9 10  1  0
 10 12  1  0
 11 22  2  0
 12 17  1  0
 13 21  1  0
 13 23  1  0
 14 20  1  0
 14 16  1  0
 15 21  1  0
 16 15  1  0
 17 16  2  0
 18 19  1  0
 18 12  2  0
 19 14  2  0
 20 13  1  0
 21 11  1  0
 23 25  2  0
 24 23  1  0
 26 24  1  0
 27 36  2  0
 27 32  1  0
 28 24  1  0
 28 32  1  0
 29 28  1  0
 30 31  1  0
 30 29  1  0
 31 27  1  0
 32 33  2  0
 33 34  1  0
 35 34  2  0
 36 35  1  0
 37 11  1  0
 37 42  1  0
 37 38  1  0
 38 41  1  1
 38 39  1  0
 40 38  1  0
 42 45  1  0
 43 47  1  0
 43 42  1  0
 44 43  2  0
 47 46  1  0
 49 47  1  0
 49 50  1  0
 49 48  1  0
 51 52  1  0
 53 55  2  0
 53 54  1  0
 54 51  2  0
 55 56  1  0
 56 65  1  0
 56 52  2  0
 57 65  1  0
 58 63  1  0
 59 60  1  0
 59 58  1  0
 61 60  1  0
 61 70  1  0
 61 62  1  0
 63 57  1  0
 63 62  1  0
 64 57  2  0
 65 66  1  0
 67 68  2  0
 68 87  1  0
 69 68  1  0
 69 72  1  0
 70 71  1  0
 70 67  1  0
 71 69  2  0
 72 73  1  0
 73 74  2  0
 75 78  1  0
 75 74  1  0
 76 75  2  0
 77 76  1  0
 77 72  2  0
 78 79  1  0
 79 80  1  0
 80 81  2  0
 82 81  1  0
 82 86  1  0
 83 82  2  0
 84 79  2  0
 84 83  1  0
 85 84  1  0
 87 88  1  0
 88 91  1  0
 88 90  1  0
 89 87  2  0
 92 67  1  0
 92 93  1  0
 94 92  1  0
 95 97  1  0
 96 95  1  0
 98 96  1  0
 98 99  1  0
 99 55  1  0
 99 97  1  0
M  ISO  4   9 101  10 101  57 100  65 100
M  END
>  <TORSDO>  (41) 
F 20

>  <SCORE>  (41) 
-12.127

>  <name>  (41) 
41

>  <ligand_id>  (41) 
41

>  <original_smiles>  (41) 
[H]c1c([H])c([H])c2c(c1[H])C([H])([H])C([H])([H])C([H])([H])C2([H])N([H])C(=O)C1([H])N(C(=O)C([H])(N([H])C(=O)C([H])(N([H])C([H])([H])[H])C([H])([H])[H])C(C([H])([H])[H])(C([H])([H])[H])C([H])([H])[H])C([H])([H])c2c([H])c(OC([H])([H])C3([H])C(=O)N(C([H])([H])c4c([H])c([H])c(N([H])C(=O)N5C([H])([H])C([H])([H])C([H])([H])C([H])(n6nc(-c7c([H])c([H])c(Oc8c([H])c([H])c(F)c([H])c8F)c([H])c7[H])c(C(=O)N([H])[H])c6N([H])[H])C5([H])[H])c(N5C([H])([H])C([H])([H])C([H])([H])C5([H])[H])c4[H])C([H])([H])C([H])([H])C3([H])[H])c([H])c([H])c2C1([H])[H]

>  <smiles>  (41) 
[H]c1c([H])c([H])c2c(c1[H])C([H])([H])C([H])([H])C([H])([H])C2([H])N([H])C(=O)C1([H])N(C(=O)C([H])(N([H])C(=O)C([H])(N([H])C([H])([H])[H])C([H])([H])[H])C(C([H])([H])[H])(C([H])([H])[H])C([H])([H])[H])C([H])([H])c2c([H])c(OC([H])([H])C3([H])C(=O)N(C([H])([H])c4c([H])c([H])c(N([H])C(=O)N5C([H])([H])C([H])([H])C([H])([H])C([H])(n6nc(-c7c([H])c([H])c(Oc8c([H])c([H])c(F)c([H])c8F)c([H])c7[H])c(C(=O)N([H])[H])c6N([H])[H])C5([H])[H])c(N5C([H])([H])C([H])([H])C([H])([H])C5([H])[H])c4[H])C([H])([H])C([H])([H])C3([H])[H])c([H])c([H])c2C1([H])[H]

$$$$
42:0:0
     RDKit          3D

 93102  0  0  1  0  0  0  0  0999 V2000
  -29.0620  -20.8100   19.3150 C   0  0  0  0  0  3  0  0  0  0  0  0
  -30.0980  -18.7420   20.2840 C   0  0  0  0  0  0  0  0  0  0  0  0
  -29.2170  -21.6250   20.4750 C   0  0  0  0  0  0  0  0  0  0  0  0
  -29.4770  -19.4420   19.2070 C   0  0  0  0  0  0  0  0  0  0  0  0
  -30.2310  -19.5140   21.4730 C   0  0  0  0  0  0  0  0  0  0  0  0
  -29.8050  -20.8870   21.5600 C   0  0  0  0  0  0  0  0  0  0  0  0
  -29.2320  -18.6500   17.6910 Cl  0  0  0  0  0  0  0  0  0  0  0  0
  -30.9660  -18.7690   22.8550 Cl  0  0  0  0  0  0  0  0  0  0  0  0
  -29.9970  -21.6890   23.0840 Cl  0  0  0  0  0  0  0  0  0  0  0  0
  -28.2690  -23.8950   19.4820 C   0  0  0  0  0  2  0  0  0  0  0  0
  -29.4620  -24.1670   21.1440 C   0  0  0  0  0  2  0  0  0  0  0  0
  -28.3430  -25.0700   20.5240 C   0  0  0  0  0  3  0  0  0  0  0  0
  -28.7140  -23.0210   20.5870 N   0  0  0  0  0  0  0  0  0  0  0  0
  -28.6110  -26.4960   20.1520 O   0  0  0  0  0  0  0  0  0  0  0  0
  -24.6890  -31.7740   23.1710 C   0  0  0  0  0  0  0  0  0  0  0  0
  -27.4960  -27.3510   20.0810 C   0  0  0  0  0  0  0  0  0  0  0  0
  -23.5630  -30.3750   21.4780 C   0  0  0  0  0  3  0  0  0  0  0  0
  -25.0890  -28.9030   20.0450 C   0  0  0  0  0  0  0  0  0  0  0  0
  -26.0960  -30.7740   21.3530 C   0  0  0  0  0  2  0  0  0  0  0  0
  -26.2320  -29.4130   20.6770 C   0  0  0  0  0  0  0  0  0  0  0  0
  -27.4410  -28.6500   20.6810 C   0  0  0  0  0  3  0  0  0  0  0  0
  -26.3330  -26.9040   19.4150 C   0  0  0  0  0  3  0  0  0  0  0  0
  -25.1440  -27.6570   19.4020 C   0  0  0  0  0  3  0  0  0  0  0  0
  -23.8250  -29.7380   20.0880 C   0  0  0  0  0  2  0  0  0  0  0  0
  -24.8000  -30.9910   22.0580 N   0  0  0  0  0  0  0  0  0  0  0  0
  -23.5860  -32.0060   23.6900 O   0  0  0  0  0  0  0  0  0  0  0  0
  -22.9130  -29.3180   22.4030 C   0  0  0  0  0  0  0  0  0  0  0  0
  -21.5930  -29.1140   22.2550 N   0  0  0  0  0  0  0  0  0  0  0  0
  -23.5960  -28.6870   23.2130 O   0  0  0  0  0  0  0  0  0  0  0  0
  -21.0990  -29.6770   21.5760 H   0  0  0  0  0  0  0  0  0  0  0  0
  -18.2350  -27.8410   22.6970 C   0  0  0  0  0  0  0  0  0  0  0  0
  -20.7870  -28.1370   22.9900 C   0  0  0  0  0  3  0  0  0  0  0  0
  -20.9180  -26.7270   22.3710 C   0  0  0  0  0  2  0  0  0  0  0  0
  -19.8280  -26.4170   21.3410 C   0  0  0  0  0  2  0  0  0  0  0  0
  -18.4400  -26.5160   21.9800 C   0  0  0  0  0  2  0  0  0  0  0  0
  -19.3370  -28.6090   23.1570 C   0  0  0  0  0  0  0  0  0  0  0  0
  -19.0920  -29.8480   23.7880 C   0  0  0  0  0  3  0  0  0  0  0  0
  -17.7760  -30.3200   23.9620 C   0  0  0  0  0  3  0  0  0  0  0  0
  -16.6890  -29.5480   23.5170 C   0  0  0  0  0  3  0  0  0  0  0  0
  -16.9190  -28.3100   22.8920 C   0  0  0  0  0  3  0  0  0  0  0  0
  -25.9390  -32.4340   23.8330 C   0  0  0  0  0  3  0  0  0  0  0  0
  -25.5810  -33.8170   24.1770 N   0  0  0  0  0  0  0  0  0  0  0  0
  -25.8760  -34.8890   23.4300 C   0  0  0  0  0  0  0  0  0  0  0  0
  -26.5460  -34.8200   22.3970 O   0  0  0  0  0  0  0  0  0  0  0  0
  -24.9830  -33.9420   24.9820 H   0  0  0  0  0  0  0  0  0  0  0  0
  -24.0700  -36.6140   23.1200 C   0  0  0  0  0  1  0  0  0  0  0  0
  -25.3420  -36.2550   23.9040 C   0  0  0  0  0  3  0  0  0  0  0  0
  -27.4540  -37.2240   24.7000 C   0  0  0  0  0  1  0  0  0  0  0  0
  -26.3290  -37.3490   23.7760 N   0  0  0  0  0  0  0  0  0  0  0  0
  -25.8890  -38.2520   23.9330 H   0  0  0  0  0  0  0  0  0  0  0  0
  -26.4460  -31.6580   25.1100 C   0  0  1  0  0  0  0  0  0  0  0  0
  -25.3370  -31.3760   26.1490 C   0  0  0  0  0  1  0  0  0  0  0  0
  -27.0740  -30.3000   24.7140 C   0  0  0  0  0  1  0  0  0  0  0  0
  -27.5610  -32.4710   25.8080 C   0  0  0  0  0  1  0  0  0  0  0  0
  -30.8310  -17.3370   20.0890 C   0  0  0  0  0  2  0  0  0  0  0  0
  -30.9330  -14.7850   20.0720 C   0  0  0  0  0  0  0  0  0  0  0  0
  -30.6430  -12.5190   19.0870 C   0  0  0  0  0  2  0  0  0  0  0  0
  -29.6580  -12.5990   17.9010 C   0  0  0  0  0  2  0  0  0  0  0  0
  -28.2090  -12.4370   18.3960 C   0  0  0  0  0  2  0  0  0  0  0  0
  -27.8900  -13.3330   19.6220 C   0  0  0  0  0  3  0  0  0  0  0  0
  -28.9960  -13.2580   20.6980 C   0  0  0  0  0  2  0  0  0  0  0  0
  -30.2660  -13.5840   20.0430 N   0  0  0  0  0  0  0  0  0  0  0  0
  -32.1050  -14.8460   19.6940 O   0  0  0  0  0  0  0  0  0  0  0  0
  -30.2330  -15.9550   20.2990 N   0  0  0  0  0  0  0  0  0  0  0  0
  -29.2600  -15.8880   20.5550 H   0  0  0  0  0  0  0  0  0  0  0  0
  -25.5530  -13.9270   20.4980 C   0  0  0  0  0  0  0  0  0  0  0  0
  -24.4970  -13.1540   20.8930 C   0  0  0  0  0  0  0  0  0  0  0  0
  -24.9370  -11.7990   20.7870 C   0  0  0  0  0  0  0  0  0  0  0  0
  -26.5700  -13.0440   20.1740 N   0  0  0  0  0  0  0  0  0  0  0  0
  -26.2090  -11.7560   20.4100 N   0  0  0  0  0  0  0  0  0  0  0  0
  -24.2010  -10.5400   20.9650 C   0  0  0  0  0  0  0  0  0  0  0  0
  -24.6240   -9.5620   21.8920 C   0  0  0  0  0  3  0  0  0  0  0  0
  -23.8880   -8.3690   22.0610 C   0  0  0  0  0  3  0  0  0  0  0  0
  -22.7160   -8.1450   21.2990 C   0  0  0  0  0  0  0  0  0  0  0  0
  -22.3120   -9.1120   20.3610 C   0  0  0  0  0  3  0  0  0  0  0  0
  -23.0490  -10.2960   20.1920 C   0  0  0  0  0  3  0  0  0  0  0  0
  -21.9520   -7.0050   21.3760 O   0  0  0  0  0  0  0  0  0  0  0  0
  -21.8220   -6.3040   22.5480 C   0  0  0  0  0  0  0  0  0  0  0  0
  -21.3120   -6.9000   23.7210 C   0  0  0  0  0  3  0  0  0  0  0  0
  -21.1310   -6.1240   24.8840 C   0  0  0  0  0  3  0  0  0  0  0  0
  -21.4490   -4.7540   24.8740 C   0  0  0  0  0  0  0  0  0  0  0  0
  -21.9530   -4.1570   23.7050 C   0  0  0  0  0  3  0  0  0  0  0  0
  -22.1360   -4.9290   22.5440 C   0  0  0  0  0  0  0  0  0  0  0  0
  -22.6010   -4.3440   21.4140 F   0  0  0  0  0  0  0  0  0  0  0  0
  -21.2680   -4.0060   25.9880 F   0  0  0  0  0  0  0  0  0  0  0  0
  -23.1230  -13.6390   21.2530 C   0  0  0  0  0  0  0  0  0  0  0  0
  -22.4310  -12.9230   22.1330 N   0  0  0  0  0  0  0  0  0  0  0  0
  -22.6730  -14.6870   20.7910 O   0  0  0  0  0  0  0  0  0  0  0  0
  -22.8090  -12.0740   22.5280 H   0  0  0  0  0  0  0  0  0  0  0  0
  -21.5110  -13.2290   22.4170 H   0  0  0  0  0  0  0  0  0  0  0  0
  -25.7280  -15.3020   20.3630 N   0  0  0  0  0  0  0  0  0  0  0  0
  -24.9750  -15.9590   20.5360 H   0  0  0  0  0  0  0  0  0  0  0  0
  -26.5570  -15.7420   19.9840 H   0  0  0  0  0  0  0  0  0  0  0  0
  1  3  1  0
  2  5  2  0
  3 13  1  0
  3  6  2  0
  4  1  2  0
  4  2  1  0
  5  6  1  0
  5  8  1  0
  6  9  1  0
  7  4  1  0
 10 12  1  0
 10 13  1  0
 12 14  1  0
 12 11  1  0
 13 11  1  0
 15 26  2  0
 16 14  1  0
 16 21  1  0
 17 25  1  0
 17 27  1  0
 18 24  1  0
 18 20  1  0
 19 25  1  0
 20 21  2  0
 20 19  1  0
 22 16  2  0
 23 22  1  0
 23 18  2  0
 24 17  1  0
 25 15  1  0
 27 29  2  0
 28 27  1  0
 30 28  1  0
 31 40  2  0
 31 36  1  0
 32 28  1  0
 32 36  1  0
 33 32  1  0
 34 35  1  0
 34 33  1  0
 35 31  1  0
 36 37  2  0
 37 38  1  0
 39 38  2  0
 40 39  1  0
 41 15  1  0
 41 42  1  0
 41 51  1  0
 42 45  1  0
 43 47  1  0
 43 42  1  0
 44 43  2  0
 47 46  1  0
 49 47  1  0
 49 50  1  0
 49 48  1  0
 51 54  1  1
 51 52  1  0
 53 51  1  0
 55  2  1  0
 55 64  1  0
 56 64  1  0
 57 62  1  0
 58 59  1  0
 58 57  1  0
 60 59  1  0
 60 69  1  0
 60 61  1  0
 62 56  1  0
 62 61  1  0
 63 56  2  0
 64 65  1  0
 66 67  2  0
 67 86  1  0
 68 67  1  0
 68 71  1  0
 69 70  1  0
 69 66  1  0
 70 68  2  0
 71 72  1  0
 72 73  2  0
 74 77  1  0
 74 73  1  0
 75 74  2  0
 76 75  1  0
 76 71  2  0
 77 78  1  0
 78 79  1  0
 79 80  2  0
 81 80  1  0
 81 85  1  0
 82 81  2  0
 83 78  2  0
 83 82  1  0
 84 83  1  0
 86 87  1  0
 87 90  1  0
 87 89  1  0
 88 86  2  0
 91 66  1  0
 91 92  1  0
 93 91  1  0
M  ISO  4  12 101  14 101  56 100  64 100
M  END
>  <TORSDO>  (42) 
F 18

>  <SCORE>  (42) 
-14.352

>  <name>  (42) 
42

>  <ligand_id>  (42) 
42

>  <original_smiles>  (42) 
[H]c1c([H])c([H])c2c(c1[H])C([H])([H])C([H])([H])C([H])([H])C2([H])N([H])C(=O)C1([H])N(C(=O)C([H])(N([H])C(=O)C([H])(N([H])C([H])([H])[H])C([H])([H])[H])C(C([H])([H])[H])(C([H])([H])[H])C([H])([H])[H])C([H])([H])c2c([H])c(OC3([H])C([H])([H])N(c4c([H])c(Cl)c(C([H])([H])N([H])C(=O)N5C([H])([H])C([H])([H])C([H])([H])C([H])(n6nc(-c7c([H])c([H])c(Oc8c([H])c([H])c(F)c([H])c8F)c([H])c7[H])c(C(=O)N([H])[H])c6N([H])[H])C5([H])[H])c(Cl)c4Cl)C3([H])[H])c([H])c([H])c2C1([H])[H]

>  <smiles>  (42) 
[H]c1c([H])c([H])c2c(c1[H])C([H])([H])C([H])([H])C([H])([H])C2([H])N([H])C(=O)C1([H])N(C(=O)C([H])(N([H])C(=O)C([H])(N([H])C([H])([H])[H])C([H])([H])[H])C(C([H])([H])[H])(C([H])([H])[H])C([H])([H])[H])C([H])([H])c2c([H])c(OC3([H])C([H])([H])N(c4c([H])c(Cl)c(C([H])([H])N([H])C(=O)N5C([H])([H])C([H])([H])C([H])([H])C([H])(n6nc(-c7c([H])c([H])c(Oc8c([H])c([H])c(F)c([H])c8F)c([H])c7[H])c(C(=O)N([H])[H])c6N([H])[H])C5([H])[H])c(Cl)c4Cl)C3([H])[H])c([H])c([H])c2C1([H])[H]

$$$$
43:0:0
     RDKit          3D

 89 98  0  0  1  0  0  0  0  0999 V2000
  -29.2900  -23.4160   20.7400 C   0  0  0  0  0  2  0  0  0  0  0  0
  -28.2690  -23.1650   18.9610 C   0  0  0  0  0  2  0  0  0  0  0  0
  -28.2230  -24.4100   20.0230 C   0  0  0  0  0  3  0  0  0  0  0  0
  -29.2580  -22.2850   19.7230 N   0  0  0  0  0  0  0  0  0  0  0  0
  -28.6710  -19.0660   21.8390 C   0  0  0  0  0  3  0  0  0  0  0  0
  -28.7050  -20.3750   21.2970 C   0  0  0  0  0  3  0  0  0  0  0  0
  -29.1810  -17.9220   21.1860 C   0  0  0  0  0  3  0  0  0  0  0  0
  -29.7480  -19.4200   19.3750 C   0  0  0  0  0  3  0  0  0  0  0  0
  -29.2580  -20.7180   20.0390 C   0  0  0  0  0  0  0  0  0  0  0  0
  -29.7610  -17.9780   19.9030 C   0  0  0  0  0  0  0  0  0  0  0  0
  -30.7460  -15.3020   19.4350 C   0  0  0  0  0  0  0  0  0  0  0  0
  -30.5480  -12.9180   18.4610 C   0  0  0  0  0  2  0  0  0  0  0  0
  -29.4490  -12.7700   17.3810 C   0  0  0  0  0  2  0  0  0  0  0  0
  -28.0760  -12.5180   18.0330 C   0  0  0  0  0  2  0  0  0  0  0  0
  -27.8020  -13.4650   19.2280 C   0  0  0  0  0  3  0  0  0  0  0  0
  -29.0050  -13.5580   20.1820 C   0  0  0  0  0  2  0  0  0  0  0  0
  -30.1360  -14.0320   19.3720 N   0  0  0  0  0  0  0  0  0  0  0  0
  -31.9670  -15.2930   19.2280 O   0  0  0  0  0  0  0  0  0  0  0  0
  -29.9860  -16.5420   19.2510 N   0  0  0  0  0  0  0  0  0  0  0  0
  -29.1590  -16.2760   18.7400 H   0  0  0  0  0  0  0  0  0  0  0  0
  -25.6220  -14.0400   20.4220 C   0  0  0  0  0  0  0  0  0  0  0  0
  -24.5810  -13.2730   20.8600 C   0  0  0  0  0  0  0  0  0  0  0  0
  -24.9540  -11.9150   20.6070 C   0  0  0  0  0  0  0  0  0  0  0  0
  -26.5570  -13.1520   19.9160 N   0  0  0  0  0  0  0  0  0  0  0  0
  -26.1790  -11.8620   20.0960 N   0  0  0  0  0  0  0  0  0  0  0  0
  -24.1910  -10.6720   20.7640 C   0  0  0  0  0  0  0  0  0  0  0  0
  -24.6190   -9.6400   21.6290 C   0  0  0  0  0  3  0  0  0  0  0  0
  -23.8470   -8.4650   21.7710 C   0  0  0  0  0  3  0  0  0  0  0  0
  -22.6390   -8.3160   21.0520 C   0  0  0  0  0  0  0  0  0  0  0  0
  -22.2330   -9.3370   20.1770 C   0  0  0  0  0  3  0  0  0  0  0  0
  -23.0010  -10.5020   20.0290 C   0  0  0  0  0  3  0  0  0  0  0  0
  -21.8380   -7.1990   21.1130 O   0  0  0  0  0  0  0  0  0  0  0  0
  -21.6980   -6.4760   22.2710 C   0  0  0  0  0  0  0  0  0  0  0  0
  -21.2220   -7.0660   23.4630 C   0  0  0  0  0  3  0  0  0  0  0  0
  -21.0220   -6.2730   24.6120 C   0  0  0  0  0  3  0  0  0  0  0  0
  -21.2910   -4.8910   24.5680 C   0  0  0  0  0  0  0  0  0  0  0  0
  -21.7600   -4.3010   23.3800 C   0  0  0  0  0  3  0  0  0  0  0  0
  -21.9580   -5.0920   22.2350 C   0  0  0  0  0  0  0  0  0  0  0  0
  -22.3890   -4.5140   21.0880 F   0  0  0  0  0  0  0  0  0  0  0  0
  -21.0930   -4.1280   25.6680 F   0  0  0  0  0  0  0  0  0  0  0  0
  -23.2710  -13.7730   21.3930 C   0  0  0  0  0  0  0  0  0  0  0  0
  -22.6440  -13.0260   22.2940 N   0  0  0  0  0  0  0  0  0  0  0  0
  -22.8130  -14.8620   21.0450 O   0  0  0  0  0  0  0  0  0  0  0  0
  -23.0190  -12.1380   22.5960 H   0  0  0  0  0  0  0  0  0  0  0  0
  -21.7690  -13.3440   22.6910 H   0  0  0  0  0  0  0  0  0  0  0  0
  -25.8410  -15.4160   20.3750 N   0  0  0  0  0  0  0  0  0  0  0  0
  -25.1430  -16.0910   20.6720 H   0  0  0  0  0  0  0  0  0  0  0  0
  -26.6790  -15.8500   20.0070 H   0  0  0  0  0  0  0  0  0  0  0  0
  -28.3550  -26.0300   19.8790 O   0  0  0  0  0  0  0  0  0  0  0  0
  -24.4730  -31.6740   22.9760 C   0  0  0  0  0  0  0  0  0  0  0  0
  -27.2690  -27.0260   19.8820 C   0  0  0  0  0  0  0  0  0  0  0  0
  -23.3510  -30.2490   21.3080 C   0  0  0  0  0  3  0  0  0  0  0  0
  -24.8750  -28.7450   19.8690 C   0  0  0  0  0  0  0  0  0  0  0  0
  -25.9010  -30.6050   21.1660 C   0  0  0  0  0  2  0  0  0  0  0  0
  -26.0410  -29.2140   20.4900 C   0  0  0  0  0  0  0  0  0  0  0  0
  -27.2380  -28.3780   20.4650 C   0  0  0  0  0  3  0  0  0  0  0  0
  -26.0680  -26.6810   19.2320 C   0  0  0  0  0  3  0  0  0  0  0  0
  -24.9080  -27.4970   19.2230 C   0  0  0  0  0  3  0  0  0  0  0  0
  -23.6140  -29.5990   19.9230 C   0  0  0  0  0  2  0  0  0  0  0  0
  -24.5950  -30.8670   21.8720 N   0  0  0  0  0  0  0  0  0  0  0  0
  -23.3700  -31.9020   23.5000 O   0  0  0  0  0  0  0  0  0  0  0  0
  -22.7020  -29.2050   22.2550 C   0  0  0  0  0  0  0  0  0  0  0  0
  -21.3770  -28.9960   22.1370 N   0  0  0  0  0  0  0  0  0  0  0  0
  -23.3980  -28.5860   23.0660 O   0  0  0  0  0  0  0  0  0  0  0  0
  -20.8720  -29.5470   21.4560 H   0  0  0  0  0  0  0  0  0  0  0  0
  -18.0340  -27.6910   22.6910 C   0  0  0  0  0  0  0  0  0  0  0  0
  -20.5950  -28.0130   22.8940 C   0  0  0  0  0  3  0  0  0  0  0  0
  -20.7150  -26.6060   22.2650 C   0  0  0  0  0  2  0  0  0  0  0  0
  -19.5930  -26.2930   21.2730 C   0  0  0  0  0  2  0  0  0  0  0  0
  -18.2270  -26.3740   21.9570 C   0  0  0  0  0  2  0  0  0  0  0  0
  -19.1450  -28.4680   23.1190 C   0  0  0  0  0  0  0  0  0  0  0  0
  -18.9060  -29.6960   23.7700 C   0  0  0  0  0  3  0  0  0  0  0  0
  -17.5920  -30.1530   23.9920 C   0  0  0  0  0  3  0  0  0  0  0  0
  -16.4980  -29.3750   23.5730 C   0  0  0  0  0  3  0  0  0  0  0  0
  -16.7200  -28.1450   22.9280 C   0  0  0  0  0  3  0  0  0  0  0  0
  -25.7130  -32.3660   23.6260 C   0  0  0  0  0  3  0  0  0  0  0  0
  -26.2620  -31.5910   24.8860 C   0  0  1  0  0  0  0  0  0  0  0  0
  -25.1790  -31.2660   25.9420 C   0  0  0  0  0  1  0  0  0  0  0  0
  -26.9200  -30.2580   24.4680 C   0  0  0  0  0  1  0  0  0  0  0  0
  -27.3680  -32.4260   25.5740 C   0  0  0  0  0  1  0  0  0  0  0  0
  -25.3180  -33.7340   24.0040 N   0  0  0  0  0  0  0  0  0  0  0  0
  -25.5880  -34.8340   23.2870 C   0  0  0  0  0  0  0  0  0  0  0  0
  -26.2520  -34.8050   22.2470 O   0  0  0  0  0  0  0  0  0  0  0  0
  -24.7190  -33.8250   24.8110 H   0  0  0  0  0  0  0  0  0  0  0  0
  -23.7600  -36.5460   23.0160 C   0  0  0  0  0  1  0  0  0  0  0  0
  -25.0310  -36.1790   23.8000 C   0  0  0  0  0  3  0  0  0  0  0  0
  -27.1220  -37.1500   24.6460 C   0  0  0  0  0  1  0  0  0  0  0  0
  -26.0050  -37.2900   23.7150 N   0  0  0  0  0  0  0  0  0  0  0  0
  -25.5510  -38.1810   23.8990 H   0  0  0  0  0  0  0  0  0  0  0  0
  2  4  1  0
  2  3  1  0
  3 49  1  0
  3  1  1  0
  4  9  1  0
  4  1  1  0
  6  5  1  0
  7  5  2  0
  8 10  2  0
  8  9  1  0
  9  6  2  0
 10  7  1  0
 12 17  1  0
 13 14  1  0
 13 12  1  0
 15 14  1  0
 15 24  1  0
 15 16  1  0
 17 11  1  0
 17 16  1  0
 18 11  2  0
 19 11  1  0
 19 10  1  0
 20 19  1  0
 21 22  2  0
 22 41  1  0
 23 26  1  0
 23 22  1  0
 24 25  1  0
 24 21  1  0
 25 23  2  0
 26 27  1  0
 27 28  2  0
 29 32  1  0
 29 28  1  0
 30 29  2  0
 31 30  1  0
 31 26  2  0
 32 33  1  0
 33 34  1  0
 34 35  2  0
 36 35  1  0
 36 40  1  0
 37 36  2  0
 38 33  2  0
 38 37  1  0
 39 38  1  0
 41 42  1  0
 42 44  1  0
 42 45  1  0
 43 41  2  0
 46 21  1  0
 46 47  1  0
 48 46  1  0
 49 51  1  0
 50 61  2  0
 51 56  1  0
 52 60  1  0
 52 62  1  0
 53 59  1  0
 53 55  1  0
 54 60  1  0
 55 54  1  0
 56 55  2  0
 57 51  2  0
 58 57  1  0
 58 53  2  0
 59 52  1  0
 60 50  1  0
 62 64  2  0
 63 62  1  0
 65 63  1  0
 66 75  2  0
 66 71  1  0
 67 63  1  0
 67 71  1  0
 68 67  1  0
 69 70  1  0
 69 68  1  0
 70 66  1  0
 71 72  2  0
 72 73  1  0
 74 73  2  0
 75 74  1  0
 76 50  1  0
 76 81  1  0
 76 77  1  0
 77 80  1  1
 77 78  1  0
 79 77  1  0
 81 84  1  0
 82 86  1  0
 82 81  1  0
 83 82  2  0
 86 85  1  0
 88 86  1  0
 88 89  1  0
 88 87  1  0
M  ISO  4   3 101  11 100  19 100  49 101
M  END
>  <TORSDO>  (43) 
F 17

>  <SCORE>  (43) 
-10.908

>  <name>  (43) 
43

>  <ligand_id>  (43) 
43

>  <original_smiles>  (43) 
[H]c1c([H])c(N([H])C(=O)N2C([H])([H])C([H])([H])C([H])([H])C([H])(n3nc(-c4c([H])c([H])c(Oc5c([H])c([H])c(F)c([H])c5F)c([H])c4[H])c(C(=O)N([H])[H])c3N([H])[H])C2([H])[H])c([H])c(N2C([H])([H])C([H])(Oc3c([H])c([H])c4c(c3[H])C([H])([H])N(C(=O)C([H])(N([H])C(=O)C([H])(N([H])C([H])([H])[H])C([H])([H])[H])C(C([H])([H])[H])(C([H])([H])[H])C([H])([H])[H])C([H])(C(=O)N([H])C3([H])c5c([H])c([H])c([H])c([H])c5C([H])([H])C([H])([H])C3([H])[H])C4([H])[H])C2([H])[H])c1[H]

>  <smiles>  (43) 
[H]c1c([H])c(N([H])C(=O)N2C([H])([H])C([H])([H])C([H])([H])C([H])(n3nc(-c4c([H])c([H])c(Oc5c([H])c([H])c(F)c([H])c5F)c([H])c4[H])c(C(=O)N([H])[H])c3N([H])[H])C2([H])[H])c([H])c(N2C([H])([H])C([H])(Oc3c([H])c([H])c4c(c3[H])C([H])([H])N(C(=O)C([H])(N([H])C(=O)C([H])(N([H])C([H])([H])[H])C([H])([H])[H])C(C([H])([H])[H])(C([H])([H])[H])C([H])([H])[H])C([H])(C(=O)N([H])C3([H])c5c([H])c([H])c([H])c([H])c5C([H])([H])C([H])([H])C3([H])[H])C4([H])[H])C2([H])[H])c1[H]

$$$$
44:0:0
     RDKit          3D

 91101  0  0  1  0  0  0  0  0999 V2000
  -30.7180  -20.8700   20.4750 C   0  0  0  0  0  3  0  0  0  0  0  0
  -31.2680  -18.4310   20.4910 C   0  0  0  0  0  3  0  0  0  0  0  0
  -29.3130  -20.7270   20.3750 C   0  0  0  0  0  0  0  0  0  0  0  0
  -29.9240  -18.0150   20.3960 C   0  0  0  0  0  0  0  0  0  0  0  0
  -28.9860  -19.2230   20.3430 C   0  0  0  0  0  0  0  0  0  0  0  0
  -31.6440  -19.7960   20.5320 C   0  0  0  0  0  0  0  0  0  0  0  0
  -27.6690  -18.9180   20.2550 F   0  0  0  0  0  0  0  0  0  0  0  0
  -33.3230  -20.1760   20.6650 Cl  0  0  0  0  0  0  0  0  0  0  0  0
  -30.4300  -15.2050   20.2900 C   0  0  0  0  0  0  0  0  0  0  0  0
  -30.3830  -12.7950   19.3750 C   0  0  0  0  0  2  0  0  0  0  0  0
  -29.4500  -12.6390   18.1490 C   0  0  0  0  0  2  0  0  0  0  0  0
  -28.0010  -12.3760   18.5950 C   0  0  0  0  0  2  0  0  0  0  0  0
  -27.5650  -13.3170   19.7470 C   0  0  0  0  0  3  0  0  0  0  0  0
  -28.6230  -13.4260   20.8640 C   0  0  0  0  0  2  0  0  0  0  0  0
  -29.8560  -13.9140   20.2300 N   0  0  0  0  0  0  0  0  0  0  0  0
  -31.6460  -15.2210   20.0550 O   0  0  0  0  0  0  0  0  0  0  0  0
  -29.6480  -16.4430   20.3920 N   0  0  0  0  0  0  0  0  0  0  0  0
  -28.6640  -16.2350   20.4720 H   0  0  0  0  0  0  0  0  0  0  0  0
  -25.1880  -13.8540   20.5050 C   0  0  0  0  0  0  0  0  0  0  0  0
  -24.1370  -13.0640   20.8810 C   0  0  0  0  0  0  0  0  0  0  0  0
  -24.6210  -11.7200   20.8520 C   0  0  0  0  0  0  0  0  0  0  0  0
  -26.2410  -12.9900   20.2600 N   0  0  0  0  0  0  0  0  0  0  0  0
  -25.9110  -11.7010   20.5380 N   0  0  0  0  0  0  0  0  0  0  0  0
  -23.9100  -10.4490   21.0460 C   0  0  0  0  0  0  0  0  0  0  0  0
  -24.3570   -9.4860   21.9770 C   0  0  0  0  0  3  0  0  0  0  0  0
  -23.6420   -8.2810   22.1600 C   0  0  0  0  0  3  0  0  0  0  0  0
  -22.4660   -8.0330   21.4130 C   0  0  0  0  0  0  0  0  0  0  0  0
  -22.0390   -8.9860   20.4710 C   0  0  0  0  0  3  0  0  0  0  0  0
  -22.7530  -10.1800   20.2860 C   0  0  0  0  0  3  0  0  0  0  0  0
  -21.7220   -6.8810   21.5060 O   0  0  0  0  0  0  0  0  0  0  0  0
  -21.6930   -6.1350   22.6570 C   0  0  0  0  0  0  0  0  0  0  0  0
  -21.2680   -6.6810   23.8880 C   0  0  0  0  0  3  0  0  0  0  0  0
  -21.1870   -5.8610   25.0310 C   0  0  0  0  0  3  0  0  0  0  0  0
  -21.5180   -4.4960   24.9440 C   0  0  0  0  0  0  0  0  0  0  0  0
  -21.9350   -3.9490   23.7170 C   0  0  0  0  0  3  0  0  0  0  0  0
  -22.0190   -4.7670   22.5770 C   0  0  0  0  0  0  0  0  0  0  0  0
  -22.4000   -4.2300   21.3930 F   0  0  0  0  0  0  0  0  0  0  0  0
  -21.4330   -3.7050   26.0390 F   0  0  0  0  0  0  0  0  0  0  0  0
  -22.7350  -13.5250   21.1500 C   0  0  0  0  0  0  0  0  0  0  0  0
  -22.0190  -12.8290   22.0250 N   0  0  0  0  0  0  0  0  0  0  0  0
  -22.2830  -14.5390   20.6190 O   0  0  0  0  0  0  0  0  0  0  0  0
  -22.3990  -12.0080   22.4740 H   0  0  0  0  0  0  0  0  0  0  0  0
  -21.0780  -13.1190   22.2490 H   0  0  0  0  0  0  0  0  0  0  0  0
  -25.3290  -15.2260   20.3210 N   0  0  0  0  0  0  0  0  0  0  0  0
  -24.5470  -15.8620   20.4230 H   0  0  0  0  0  0  0  0  0  0  0  0
  -26.1520  -15.6740   19.9370 H   0  0  0  0  0  0  0  0  0  0  0  0
  -28.6470  -23.2390   19.3470 C   0  0  0  0  0  3  0  0  0  0  0  0
  -28.6060  -23.2550   21.3110 C   0  0  0  0  0  3  0  0  0  0  0  0
  -27.9690  -24.3660   20.3080 C   0  0  0  0  0  3  0  0  0  0  0  0
  -28.4720  -22.0870   20.3360 N   0  0  0  0  0  0  0  0  0  0  0  0
  -28.2040  -25.9760   20.3330 O   0  0  0  0  0  0  0  0  0  0  0  0
  -24.6390  -31.8910   23.2540 C   0  0  0  0  0  0  0  0  0  0  0  0
  -27.1750  -27.0340   20.2700 C   0  0  0  0  0  0  0  0  0  0  0  0
  -23.4360  -30.4960   21.6200 C   0  0  0  0  0  3  0  0  0  0  0  0
  -24.8770  -28.8820   20.2090 C   0  0  0  0  0  0  0  0  0  0  0  0
  -26.0000  -30.7090   21.4690 C   0  0  0  0  0  2  0  0  0  0  0  0
  -26.0640  -29.2990   20.8240 C   0  0  0  0  0  0  0  0  0  0  0  0
  -27.2100  -28.3950   20.8290 C   0  0  0  0  0  3  0  0  0  0  0  0
  -25.9610  -26.7520   19.6060 C   0  0  0  0  0  3  0  0  0  0  0  0
  -24.8470  -27.6270   19.5810 C   0  0  0  0  0  3  0  0  0  0  0  0
  -23.6610  -29.8040   20.2470 C   0  0  0  0  0  2  0  0  0  0  0  0
  -24.7130  -31.0570   22.1680 N   0  0  0  0  0  0  0  0  0  0  0  0
  -23.5510  -32.1890   23.7740 O   0  0  0  0  0  0  0  0  0  0  0  0
  -22.7380  -29.5080   22.5880 C   0  0  0  0  0  0  0  0  0  0  0  0
  -21.4070  -29.3500   22.4620 N   0  0  0  0  0  0  0  0  0  0  0  0
  -23.3990  -28.8820   23.4220 O   0  0  0  0  0  0  0  0  0  0  0  0
  -20.9280  -29.9070   21.7680 H   0  0  0  0  0  0  0  0  0  0  0  0
  -18.0160  -28.1670   22.9630 C   0  0  0  0  0  0  0  0  0  0  0  0
  -20.5760  -28.4220   23.2360 C   0  0  0  0  0  3  0  0  0  0  0  0
  -20.6730  -26.9850   22.6730 C   0  0  0  0  0  2  0  0  0  0  0  0
  -19.5750  -26.6600   21.6580 C   0  0  0  0  0  2  0  0  0  0  0  0
  -18.1910  -26.8130   22.2950 C   0  0  0  0  0  2  0  0  0  0  0  0
  -19.1360  -28.9280   23.3910 C   0  0  0  0  0  0  0  0  0  0  0  0
  -18.9180  -30.1930   23.9800 C   0  0  0  0  0  3  0  0  0  0  0  0
  -17.6140  -30.6970   24.1420 C   0  0  0  0  0  3  0  0  0  0  0  0
  -16.5090  -29.9320   23.7290 C   0  0  0  0  0  3  0  0  0  0  0  0
  -16.7110  -28.6690   23.1450 C   0  0  0  0  0  3  0  0  0  0  0  0
  -25.9140  -32.5270   23.8840 C   0  0  0  0  0  3  0  0  0  0  0  0
  -26.4170  -31.7600   25.1690 C   0  0  1  0  0  0  0  0  0  0  0  0
  -25.3160  -31.5400   26.2330 C   0  0  0  0  0  1  0  0  0  0  0  0
  -26.9900  -30.3750   24.7950 C   0  0  0  0  0  1  0  0  0  0  0  0
  -27.5710  -32.5490   25.8330 C   0  0  0  0  0  1  0  0  0  0  0  0
  -25.6040  -33.9280   24.2170 N   0  0  0  0  0  0  0  0  0  0  0  0
  -25.9180  -34.9860   23.4570 C   0  0  0  0  0  0  0  0  0  0  0  0
  -26.5610  -34.8850   22.4100 O   0  0  0  0  0  0  0  0  0  0  0  0
  -25.0300  -34.0790   25.0330 H   0  0  0  0  0  0  0  0  0  0  0  0
  -24.1670  -36.7730   23.1740 C   0  0  0  0  0  1  0  0  0  0  0  0
  -25.4450  -36.3740   23.9310 C   0  0  0  0  0  3  0  0  0  0  0  0
  -27.6080  -37.2770   24.6670 C   0  0  0  0  0  1  0  0  0  0  0  0
  -26.4650  -37.4340   23.7710 N   0  0  0  0  0  0  0  0  0  0  0  0
  -26.0600  -38.3520   23.9320 H   0  0  0  0  0  0  0  0  0  0  0  0
  1  6  1  0
  2  6  2  0
  3  1  2  0
  4  2  1  0
  5  3  1  0
  5  4  2  0
  6  8  1  0
  7  5  1  0
  9 17  1  0
 10 15  1  0
 11 12  1  0
 11 10  1  0
 13 12  1  0
 13 22  1  0
 13 14  1  0
 15  9  1  0
 15 14  1  0
 16  9  2  0
 17  4  1  0
 17 18  1  0
 19 20  2  0
 20 39  1  0
 21 20  1  0
 21 24  1  0
 22 19  1  0
 22 23  1  0
 23 21  2  0
 24 25  1  0
 25 26  2  0
 27 30  1  0
 27 26  1  0
 28 27  2  0
 29 28  1  0
 29 24  2  0
 30 31  1  0
 31 32  1  0
 32 33  2  0
 34 33  1  0
 34 38  1  0
 35 34  2  0
 36 31  2  0
 36 35  1  0
 37 36  1  0
 39 40  1  0
 40 43  1  0
 40 42  1  0
 41 39  2  0
 44 45  1  0
 44 19  1  0
 46 44  1  0
 47 49  1  0
 47 50  1  0
 47 48  1  0
 48 50  1  0
 49 51  1  0
 49 48  1  0
 50  3  1  0
 52 63  2  0
 53 51  1  0
 53 58  1  0
 54 62  1  0
 54 64  1  0
 55 61  1  0
 55 57  1  0
 56 62  1  0
 57 58  2  0
 57 56  1  0
 59 53  2  0
 60 59  1  0
 60 55  2  0
 61 54  1  0
 62 52  1  0
 64 66  2  0
 65 64  1  0
 67 65  1  0
 68 77  2  0
 68 73  1  0
 69 65  1  0
 69 73  1  0
 70 69  1  0
 71 72  1  0
 71 70  1  0
 72 68  1  0
 73 74  2  0
 74 75  1  0
 76 75  2  0
 77 76  1  0
 78 52  1  0
 78 83  1  0
 78 79  1  0
 79 82  1  1
 79 80  1  0
 81 79  1  0
 83 86  1  0
 84 88  1  0
 84 83  1  0
 85 84  2  0
 88 87  1  0
 90 88  1  0
 90 91  1  0
 90 89  1  0
M  ISO  4   9 100  17 100  49 101  51 101
M  END
>  <TORSDO>  (44) 
F 17

>  <SCORE>  (44) 
-15.305

>  <name>  (44) 
44

>  <ligand_id>  (44) 
44

>  <original_smiles>  (44) 
[H]c1c([H])c([H])c2c(c1[H])C([H])([H])C([H])([H])C([H])([H])C2([H])N([H])C(=O)C1([H])N(C(=O)C([H])(N([H])C(=O)C([H])(N([H])C([H])([H])[H])C([H])([H])[H])C(C([H])([H])[H])(C([H])([H])[H])C([H])([H])[H])C([H])([H])c2c([H])c(OC3([H])C([H])([H])N(c4c([H])c(Cl)c([H])c(N([H])C(=O)N5C([H])([H])C([H])([H])C([H])([H])C([H])(n6nc(-c7c([H])c([H])c(Oc8c([H])c([H])c(F)c([H])c8F)c([H])c7[H])c(C(=O)N([H])[H])c6N([H])[H])C5([H])[H])c4F)C3([H])[H])c([H])c([H])c2C1([H])[H]

>  <smiles>  (44) 
[H]c1c([H])c([H])c2c(c1[H])C([H])([H])C([H])([H])C([H])([H])C2([H])N([H])C(=O)C1([H])N(C(=O)C([H])(N([H])C(=O)C([H])(N([H])C([H])([H])[H])C([H])([H])[H])C(C([H])([H])[H])(C([H])([H])[H])C([H])([H])[H])C([H])([H])c2c([H])c(OC3([H])C([H])([H])N(c4c([H])c(Cl)c([H])c(N([H])C(=O)N5C([H])([H])C([H])([H])C([H])([H])C([H])(n6nc(-c7c([H])c([H])c(Oc8c([H])c([H])c(F)c([H])c8F)c([H])c7[H])c(C(=O)N([H])[H])c6N([H])[H])C5([H])[H])c4F)C3([H])[H])c([H])c([H])c2C1([H])[H]

$$$$
45:0:0
     RDKit          3D

 93103  0  0  1  0  0  0  0  0999 V2000
  -30.7010  -15.1990   20.5020 C   0  0  0  0  0  0  0  0  0  0  0  0
  -30.5900  -12.8230   19.5960 C   0  0  0  0  0  2  0  0  0  0  0  0
  -29.6700  -12.6020   18.3680 C   0  0  0  0  0  2  0  0  0  0  0  0
  -28.1780  -12.5450   18.7590 C   0  0  0  0  0  2  0  0  0  0  0  0
  -27.7610  -13.5070   19.9050 C   0  0  0  0  0  3  0  0  0  0  0  0
  -28.8030  -13.5500   21.0380 C   0  0  0  0  0  2  0  0  0  0  0  0
  -30.0710  -13.9520   20.4180 N   0  0  0  0  0  0  0  0  0  0  0  0
  -31.9370  -15.1750   20.5440 O   0  0  0  0  0  0  0  0  0  0  0  0
  -30.0830  -19.9800   21.8250 C   0  0  0  0  0  3  0  0  0  0  0  0
  -30.2640  -18.5480   21.5730 C   0  0  0  0  0  3  0  0  0  0  0  0
  -29.1940  -20.2880   19.6880 C   0  0  0  0  0  3  0  0  0  0  0  0
  -29.3310  -18.8660   19.4390 C   0  0  0  0  0  0  0  0  0  0  0  0
  -29.5450  -20.9520   20.8950 C   0  0  0  0  0  0  0  0  0  0  0  0
  -29.9070  -17.8800   20.3500 C   0  0  0  0  0  0  0  0  0  0  0  0
  -28.7890  -18.4420   18.0890 C   0  0  0  0  0  2  0  0  0  0  0  0
  -28.6200  -16.9400   17.9730 C   0  0  0  0  0  2  0  0  0  0  0  0
  -29.8510  -16.1950   18.4950 C   0  0  0  0  0  3  0  0  0  0  0  0
  -31.1280  -16.5320   17.6840 C   0  0  0  0  0  1  0  0  0  0  0  0
  -30.0460  -16.3730   19.9600 N   0  0  0  0  0  0  0  0  0  0  0  0
  -25.3780  -14.1220   20.6200 C   0  0  0  0  0  0  0  0  0  0  0  0
  -24.2910  -13.3600   20.9480 C   0  0  0  0  0  0  0  0  0  0  0  0
  -24.7340  -12.0010   20.9140 C   0  0  0  0  0  0  0  0  0  0  0  0
  -26.4110  -13.2290   20.3900 N   0  0  0  0  0  0  0  0  0  0  0  0
  -26.0330  -11.9500   20.6430 N   0  0  0  0  0  0  0  0  0  0  0  0
  -23.9850  -10.7470   21.0630 C   0  0  0  0  0  0  0  0  0  0  0  0
  -24.3780   -9.7580   21.9900 C   0  0  0  0  0  3  0  0  0  0  0  0
  -23.6290   -8.5690   22.1280 C   0  0  0  0  0  3  0  0  0  0  0  0
  -22.4740   -8.3630   21.3390 C   0  0  0  0  0  0  0  0  0  0  0  0
  -22.1000   -9.3410   20.4010 C   0  0  0  0  0  3  0  0  0  0  0  0
  -22.8490  -10.5200   20.2600 C   0  0  0  0  0  3  0  0  0  0  0  0
  -21.7000   -7.2280   21.3870 O   0  0  0  0  0  0  0  0  0  0  0  0
  -21.6130   -6.4650   22.5240 C   0  0  0  0  0  0  0  0  0  0  0  0
  -21.1420   -6.9950   23.7450 C   0  0  0  0  0  3  0  0  0  0  0  0
  -21.0020   -6.1570   24.8700 C   0  0  0  0  0  3  0  0  0  0  0  0
  -21.3260   -4.7900   24.7760 C   0  0  0  0  0  0  0  0  0  0  0  0
  -21.7940   -4.2610   23.5590 C   0  0  0  0  0  3  0  0  0  0  0  0
  -21.9340   -5.0950   22.4370 C   0  0  0  0  0  0  0  0  0  0  0  0
  -22.3630   -4.5740   21.2620 F   0  0  0  0  0  0  0  0  0  0  0  0
  -21.1860   -3.9840   25.8520 F   0  0  0  0  0  0  0  0  0  0  0  0
  -22.8920  -13.8540   21.1800 C   0  0  0  0  0  0  0  0  0  0  0  0
  -22.1270  -13.1590   22.0140 N   0  0  0  0  0  0  0  0  0  0  0  0
  -22.4850  -14.8910   20.6570 O   0  0  0  0  0  0  0  0  0  0  0  0
  -22.4660  -12.3210   22.4620 H   0  0  0  0  0  0  0  0  0  0  0  0
  -21.1860  -13.4730   22.2080 H   0  0  0  0  0  0  0  0  0  0  0  0
  -25.5740  -15.4910   20.4690 N   0  0  0  0  0  0  0  0  0  0  0  0
  -24.8280  -16.1650   20.5990 H   0  0  0  0  0  0  0  0  0  0  0  0
  -26.4490  -15.9180   20.1900 H   0  0  0  0  0  0  0  0  0  0  0  0
  -29.4050  -24.5300   22.4140 C   0  0  0  0  0  2  0  0  0  0  0  0
  -29.4660  -22.9670   22.5070 C   0  0  0  0  0  2  0  0  0  0  0  0
  -28.9580  -23.6130   20.2950 C   0  0  0  0  0  2  0  0  0  0  0  0
  -28.5420  -24.9240   21.1970 C   0  0  0  0  0  3  0  0  0  0  0  0
  -29.3520  -22.4080   21.1560 N   0  0  0  0  0  0  0  0  0  0  0  0
  -28.7020  -26.4320   20.8650 O   0  0  0  0  0  0  0  0  0  0  0  0
  -24.7330  -32.0840   23.4300 C   0  0  0  0  0  0  0  0  0  0  0  0
  -27.5940  -27.3390   20.7570 C   0  0  0  0  0  0  0  0  0  0  0  0
  -23.6590  -30.5940   21.7810 C   0  0  0  0  0  3  0  0  0  0  0  0
  -25.2220  -28.9940   20.5130 C   0  0  0  0  0  0  0  0  0  0  0  0
  -26.2080  -30.9230   21.7450 C   0  0  0  0  0  2  0  0  0  0  0  0
  -26.3510  -29.5070   21.1660 C   0  0  0  0  0  0  0  0  0  0  0  0
  -27.5390  -28.6950   21.2670 C   0  0  0  0  0  3  0  0  0  0  0  0
  -26.4420  -26.9140   20.0640 C   0  0  0  0  0  3  0  0  0  0  0  0
  -25.2810  -27.7120   19.9420 C   0  0  0  0  0  3  0  0  0  0  0  0
  -23.9730  -29.8620   20.4470 C   0  0  0  0  0  2  0  0  0  0  0  0
  -24.8830  -31.2250   22.3740 N   0  0  0  0  0  0  0  0  0  0  0  0
  -23.6140  -32.3630   23.8850 O   0  0  0  0  0  0  0  0  0  0  0  0
  -22.9480  -29.6120   22.7460 C   0  0  0  0  0  0  0  0  0  0  0  0
  -21.6310  -29.4100   22.5540 N   0  0  0  0  0  0  0  0  0  0  0  0
  -23.5830  -29.0320   23.6300 O   0  0  0  0  0  0  0  0  0  0  0  0
  -21.1750  -29.9300   21.8170 H   0  0  0  0  0  0  0  0  0  0  0  0
  -18.2360  -28.2180   22.9660 C   0  0  0  0  0  0  0  0  0  0  0  0
  -20.7840  -28.4890   23.3160 C   0  0  0  0  0  3  0  0  0  0  0  0
  -20.9060  -27.0450   22.7760 C   0  0  0  0  0  2  0  0  0  0  0  0
  -19.8390  -26.6990   21.7300 C   0  0  0  0  0  2  0  0  0  0  0  0
  -18.4370  -26.8560   22.3240 C   0  0  0  0  0  2  0  0  0  0  0  0
  -19.3390  -28.9910   23.4180 C   0  0  0  0  0  0  0  0  0  0  0  0
  -19.0980  -30.2630   23.9790 C   0  0  0  0  0  3  0  0  0  0  0  0
  -17.7870  -30.7660   24.0920 C   0  0  0  0  0  3  0  0  0  0  0  0
  -16.6990  -29.9900   23.6570 C   0  0  0  0  0  3  0  0  0  0  0  0
  -16.9240  -28.7180   23.1000 C   0  0  0  0  0  3  0  0  0  0  0  0
  -25.9600  -32.7720   24.1010 C   0  0  0  0  0  3  0  0  0  0  0  0
  -25.6010  -34.1740   24.3660 N   0  0  0  0  0  0  0  0  0  0  0  0
  -25.9260  -35.2080   23.5780 C   0  0  0  0  0  0  0  0  0  0  0  0
  -26.6290  -35.0840   22.5720 O   0  0  0  0  0  0  0  0  0  0  0  0
  -24.9830  -34.3410   25.1470 H   0  0  0  0  0  0  0  0  0  0  0  0
  -24.1470  -36.9290   23.1250 C   0  0  0  0  0  1  0  0  0  0  0  0
  -25.3890  -36.5990   23.9680 C   0  0  0  0  0  3  0  0  0  0  0  0
  -27.4780  -37.5960   24.7880 C   0  0  0  0  0  1  0  0  0  0  0  0
  -26.3890  -37.6800   23.8200 N   0  0  0  0  0  0  0  0  0  0  0  0
  -25.9490  -38.5920   23.9160 H   0  0  0  0  0  0  0  0  0  0  0  0
  -26.4170  -32.0620   25.4360 C   0  0  1  0  0  0  0  0  0  0  0  0
  -25.2600  -31.7880   26.4260 C   0  0  0  0  0  1  0  0  0  0  0  0
  -27.1010  -30.7100   25.1310 C   0  0  0  0  0  1  0  0  0  0  0  0
  -27.4680  -32.9340   26.1620 C   0  0  0  0  0  1  0  0  0  0  0  0
  1  8  2  0
  2  7  1  0
  3  4  1  0
  3  2  1  0
  5  4  1  0
  5 23  1  0
  5  6  1  0
  7  1  1  0
  7  6  1  0
 10  9  1  0
 11 13  1  0
 12 11  2  0
 12 14  1  0
 13 52  1  0
 13  9  2  0
 14 10  2  0
 15 12  1  0
 16 15  1  0
 16 17  1  0
 17 18  1  0
 17 19  1  0
 19 14  1  0
 19  1  1  0
 20 21  2  0
 21 40  1  0
 22 21  1  0
 22 25  1  0
 23 20  1  0
 23 24  1  0
 24 22  2  0
 25 26  1  0
 26 27  2  0
 28 31  1  0
 28 27  1  0
 29 28  2  0
 30 29  1  0
 30 25  2  0
 31 32  1  0
 32 33  1  0
 33 34  2  0
 35 34  1  0
 35 39  1  0
 36 35  2  0
 37 32  2  0
 37 36  1  0
 38 37  1  0
 40 41  1  0
 41 44  1  0
 41 43  1  0
 42 40  2  0
 45 46  1  0
 45 20  1  0
 47 45  1  0
 48 49  1  0
 50 52  1  0
 50 51  1  0
 51 53  1  0
 51 48  1  0
 52 49  1  0
 54 65  2  0
 55 53  1  0
 55 60  1  0
 56 64  1  0
 56 66  1  0
 57 59  1  0
 58 64  1  0
 59 60  2  0
 59 58  1  0
 61 55  2  0
 62 61  1  0
 62 57  2  0
 63 57  1  0
 63 56  1  0
 64 54  1  0
 66 68  2  0
 67 66  1  0
 69 67  1  0
 70 79  2  0
 70 75  1  0
 71 67  1  0
 71 75  1  0
 72 71  1  0
 73 74  1  0
 73 72  1  0
 74 70  1  0
 75 76  2  0
 76 77  1  0
 78 77  2  0
 79 78  1  0
 80 54  1  0
 80 81  1  0
 80 90  1  0
 81 84  1  0
 82 86  1  0
 82 81  1  0
 83 82  2  0
 86 85  1  0
 88 89  1  0
 88 86  1  0
 88 87  1  0
 90 93  1  1
 90 91  1  0
 92 90  1  0
M  ISO  4   1 100  19 100  51 101  53 101
M  END
>  <TORSDO>  (45) 
F 16

>  <SCORE>  (45) 
-13.766

>  <name>  (45) 
45

>  <ligand_id>  (45) 
45

>  <original_smiles>  (45) 
[H]c1c([H])c([H])c2c(c1[H])C([H])([H])C([H])([H])C([H])([H])C2([H])N([H])C(=O)C1([H])N(C(=O)C([H])(N([H])C(=O)C([H])(N([H])C([H])([H])[H])C([H])([H])[H])C(C([H])([H])[H])(C([H])([H])[H])C([H])([H])[H])C([H])([H])c2c([H])c(OC3([H])C([H])([H])N(c4c([H])c([H])c5c(c4[H])C([H])([H])C([H])([H])C([H])(C([H])([H])[H])N5C(=O)N4C([H])([H])C([H])([H])C([H])([H])C([H])(n5nc(-c6c([H])c([H])c(Oc7c([H])c([H])c(F)c([H])c7F)c([H])c6[H])c(C(=O)N([H])[H])c5N([H])[H])C4([H])[H])C([H])([H])C3([H])[H])c([H])c([H])c2C1([H])[H]

>  <smiles>  (45) 
[H]c1c([H])c([H])c2c(c1[H])C([H])([H])C([H])([H])C([H])([H])C2([H])N([H])C(=O)C1([H])N(C(=O)C([H])(N([H])C(=O)C([H])(N([H])C([H])([H])[H])C([H])([H])[H])C(C([H])([H])[H])(C([H])([H])[H])C([H])([H])[H])C([H])([H])c2c([H])c(OC3([H])C([H])([H])N(c4c([H])c([H])c5c(c4[H])C([H])([H])C([H])([H])C([H])(C([H])([H])[H])N5C(=O)N4C([H])([H])C([H])([H])C([H])([H])C([H])(n5nc(-c6c([H])c([H])c(Oc7c([H])c([H])c(F)c([H])c7F)c([H])c6[H])c(C(=O)N([H])[H])c5N([H])[H])C4([H])[H])C([H])([H])C3([H])[H])c([H])c([H])c2C1([H])[H]

$$$$
46:0:0
     RDKit          3D

 93102  0  0  1  0  0  0  0  0999 V2000
  -28.2060  -23.3670   20.6460 C   0  0  0  0  0  2  0  0  0  0  0  0
  -29.9480  -23.2860   18.8770 C   0  0  0  0  0  2  0  0  0  0  0  0
  -28.7390  -22.0040   21.1900 C   0  0  0  0  0  2  0  0  0  0  0  0
  -30.4510  -21.9340   19.4370 C   0  0  0  0  0  2  0  0  0  0  0  0
  -29.2940  -24.2100   19.9330 C   0  0  0  0  0  3  0  0  0  0  0  0
  -29.4020  -21.1930   20.1490 N   0  0  0  0  0  0  0  0  0  0  0  0
  -30.8310  -19.1380   20.1290 C   0  0  0  0  0  3  0  0  0  0  0  0
  -31.0100  -17.7360   20.2610 C   0  0  0  0  0  3  0  0  0  0  0  0
  -28.6820  -17.5180   20.8510 C   0  0  0  0  0  3  0  0  0  0  0  0
  -29.5730  -19.7760   20.3360 C   0  0  0  0  0  0  0  0  0  0  0  0
  -29.9310  -16.8960   20.6240 C   0  0  0  0  0  0  0  0  0  0  0  0
  -28.4970  -18.9160   20.6970 C   0  0  0  0  0  0  0  0  0  0  0  0
  -27.2430  -19.4020   20.8680 F   0  0  0  0  0  0  0  0  0  0  0  0
  -30.6970  -14.5270   20.0820 C   0  0  0  0  0  0  0  0  0  0  0  0
  -30.3630  -12.3930   18.8720 C   0  0  0  0  0  2  0  0  0  0  0  0
  -29.3510  -12.6460   17.7330 C   0  0  0  0  0  2  0  0  0  0  0  0
  -27.8990  -12.5000   18.2360 C   0  0  0  0  0  2  0  0  0  0  0  0
  -27.6450  -13.2810   19.5530 C   0  0  0  0  0  3  0  0  0  0  0  0
  -28.7570  -12.9920   20.5870 C   0  0  0  0  0  2  0  0  0  0  0  0
  -30.0520  -13.3290   19.9660 N   0  0  0  0  0  0  0  0  0  0  0  0
  -31.7790  -14.7530   19.5310 O   0  0  0  0  0  0  0  0  0  0  0  0
  -30.0100  -15.4640   20.7790 N   0  0  0  0  0  0  0  0  0  0  0  0
  -29.2380  -15.0570   21.2850 H   0  0  0  0  0  0  0  0  0  0  0  0
  -25.2920  -13.8900   20.4010 C   0  0  0  0  0  0  0  0  0  0  0  0
  -24.2390  -13.1180   20.8150 C   0  0  0  0  0  0  0  0  0  0  0  0
  -24.6840  -11.7640   20.7240 C   0  0  0  0  0  0  0  0  0  0  0  0
  -26.3140  -13.0050   20.0940 N   0  0  0  0  0  0  0  0  0  0  0  0
  -25.9540  -11.7200   20.3410 N   0  0  0  0  0  0  0  0  0  0  0  0
  -23.9570  -10.5030   20.9210 C   0  0  0  0  0  0  0  0  0  0  0  0
  -24.3900   -9.5400   21.8600 C   0  0  0  0  0  3  0  0  0  0  0  0
  -23.6650   -8.3430   22.0440 C   0  0  0  0  0  3  0  0  0  0  0  0
  -22.4920   -8.1010   21.2900 C   0  0  0  0  0  0  0  0  0  0  0  0
  -22.0780   -9.0520   20.3410 C   0  0  0  0  0  3  0  0  0  0  0  0
  -22.8040  -10.2400   20.1550 C   0  0  0  0  0  3  0  0  0  0  0  0
  -21.7370   -6.9560   21.3850 O   0  0  0  0  0  0  0  0  0  0  0  0
  -21.6260   -6.2630   22.5630 C   0  0  0  0  0  0  0  0  0  0  0  0
  -21.1280   -6.8670   23.7380 C   0  0  0  0  0  3  0  0  0  0  0  0
  -20.9660   -6.0990   24.9080 C   0  0  0  0  0  3  0  0  0  0  0  0
  -21.2880   -4.7280   24.9030 C   0  0  0  0  0  0  0  0  0  0  0  0
  -21.7790   -4.1240   23.7320 C   0  0  0  0  0  3  0  0  0  0  0  0
  -21.9440   -4.8900   22.5640 C   0  0  0  0  0  0  0  0  0  0  0  0
  -22.3960   -4.2980   21.4340 F   0  0  0  0  0  0  0  0  0  0  0  0
  -21.1250   -3.9870   26.0240 F   0  0  0  0  0  0  0  0  0  0  0  0
  -22.8650  -13.6000   21.1810 C   0  0  0  0  0  0  0  0  0  0  0  0
  -22.1840  -12.8900   22.0740 N   0  0  0  0  0  0  0  0  0  0  0  0
  -22.4060  -14.6390   20.7110 O   0  0  0  0  0  0  0  0  0  0  0  0
  -22.5690  -12.0460   22.4720 H   0  0  0  0  0  0  0  0  0  0  0  0
  -21.2670  -13.1970   22.3670 H   0  0  0  0  0  0  0  0  0  0  0  0
  -25.4600  -15.2620   20.2400 N   0  0  0  0  0  0  0  0  0  0  0  0
  -24.6880  -15.9100   20.3440 H   0  0  0  0  0  0  0  0  0  0  0  0
  -26.2720  -15.6820   19.8050 H   0  0  0  0  0  0  0  0  0  0  0  0
  -28.7870  -25.5350   19.2560 C   0  0  0  0  0  2  0  0  0  0  0  0
  -28.4990  -26.6530   20.1360 O   0  0  0  0  0  0  0  0  0  0  0  0
  -24.4810  -31.7410   23.1350 C   0  0  0  0  0  0  0  0  0  0  0  0
  -27.2970  -27.3530   20.0700 C   0  0  0  0  0  0  0  0  0  0  0  0
  -23.3400  -30.3050   21.4770 C   0  0  0  0  0  3  0  0  0  0  0  0
  -24.8560  -28.8180   20.0650 C   0  0  0  0  0  0  0  0  0  0  0  0
  -25.8590  -30.7360   21.3080 C   0  0  0  0  0  2  0  0  0  0  0  0
  -25.9940  -29.3660   20.6660 C   0  0  0  0  0  0  0  0  0  0  0  0
  -27.2130  -28.6400   20.6660 C   0  0  0  0  0  3  0  0  0  0  0  0
  -26.1240  -26.8250   19.4760 C   0  0  0  0  0  3  0  0  0  0  0  0
  -24.9170  -27.5490   19.4690 C   0  0  0  0  0  3  0  0  0  0  0  0
  -23.5880  -29.6410   20.0980 C   0  0  0  0  0  2  0  0  0  0  0  0
  -24.5780  -30.9440   22.0320 N   0  0  0  0  0  0  0  0  0  0  0  0
  -23.3840  -31.9790   23.6600 O   0  0  0  0  0  0  0  0  0  0  0  0
  -22.7100  -29.2610   22.4290 C   0  0  0  0  0  0  0  0  0  0  0  0
  -21.3950  -29.0260   22.2810 N   0  0  0  0  0  0  0  0  0  0  0  0
  -23.4020  -28.6660   23.2590 O   0  0  0  0  0  0  0  0  0  0  0  0
  -20.8950  -29.5630   21.5870 H   0  0  0  0  0  0  0  0  0  0  0  0
  -18.0650  -27.6850   22.7040 C   0  0  0  0  0  0  0  0  0  0  0  0
  -20.6010  -28.0590   23.0390 C   0  0  0  0  0  3  0  0  0  0  0  0
  -20.7810  -26.6290   22.4760 C   0  0  0  0  0  2  0  0  0  0  0  0
  -19.7210  -26.2500   21.4380 C   0  0  0  0  0  2  0  0  0  0  0  0
  -18.3180  -26.3400   22.0430 C   0  0  0  0  0  2  0  0  0  0  0  0
  -19.1370  -28.4990   23.1560 C   0  0  0  0  0  0  0  0  0  0  0  0
  -18.8470  -29.7550   23.7310 C   0  0  0  0  0  3  0  0  0  0  0  0
  -17.5190  -30.2000   23.8580 C   0  0  0  0  0  3  0  0  0  0  0  0
  -16.4600  -29.3830   23.4250 C   0  0  0  0  0  3  0  0  0  0  0  0
  -16.7340  -28.1270   22.8530 C   0  0  0  0  0  3  0  0  0  0  0  0
  -25.7390  -32.4140   23.7720 C   0  0  0  0  0  3  0  0  0  0  0  0
  -25.3820  -33.8000   24.1010 N   0  0  0  0  0  0  0  0  0  0  0  0
  -25.6700  -34.8620   23.3360 C   0  0  0  0  0  0  0  0  0  0  0  0
  -26.3360  -34.7800   22.3000 O   0  0  0  0  0  0  0  0  0  0  0  0
  -24.7910  -33.9350   24.9080 H   0  0  0  0  0  0  0  0  0  0  0  0
  -23.8680  -36.5830   22.9920 C   0  0  0  0  0  1  0  0  0  0  0  0
  -25.1330  -36.2320   23.7910 C   0  0  0  0  0  3  0  0  0  0  0  0
  -27.2430  -37.2050   24.5900 C   0  0  0  0  0  1  0  0  0  0  0  0
  -26.1200  -37.3270   23.6630 N   0  0  0  0  0  0  0  0  0  0  0  0
  -25.6780  -38.2300   23.8160 H   0  0  0  0  0  0  0  0  0  0  0  0
  -26.2690  -31.6550   25.0490 C   0  0  1  0  0  0  0  0  0  0  0  0
  -25.1790  -31.3790   26.1130 C   0  0  0  0  0  1  0  0  0  0  0  0
  -26.8940  -30.2960   24.6550 C   0  0  0  0  0  1  0  0  0  0  0  0
  -27.3940  -32.4790   25.7220 C   0  0  0  0  0  1  0  0  0  0  0  0
  1  3  1  0
  2  4  1  0
  2  5  1  0
  4  6  1  0
  5 52  1  0
  5  1  1  0
  6 10  1  0
  6  3  1  0
  7  8  2  0
  7 10  1  0
  8 11  1  0
 10 12  2  0
 11 22  1  0
 11  9  2  0
 12  9  1  0
 12 13  1  0
 14 22  1  0
 15 20  1  0
 16 17  1  0
 16 15  1  0
 18 17  1  0
 18 27  1  0
 18 19  1  0
 20 14  1  0
 20 19  1  0
 21 14  2  0
 22 23  1  0
 24 25  2  0
 25 44  1  0
 26 25  1  0
 26 29  1  0
 27 28  1  0
 27 24  1  0
 28 26  2  0
 29 30  1  0
 30 31  2  0
 32 35  1  0
 32 31  1  0
 33 32  2  0
 34 33  1  0
 34 29  2  0
 35 36  1  0
 36 41  2  0
 36 37  1  0
 37 38  2  0
 39 38  1  0
 39 43  1  0
 40 39  2  0
 41 40  1  0
 42 41  1  0
 44 45  1  0
 45 48  1  0
 45 47  1  0
 46 44  2  0
 49 50  1  0
 49 24  1  0
 51 49  1  0
 52 53  1  0
 54 65  2  0
 55 53  1  0
 55 60  1  0
 56 64  1  0
 56 66  1  0
 57 63  1  0
 57 59  1  0
 58 64  1  0
 59 58  1  0
 60 59  2  0
 61 55  2  0
 62 61  1  0
 62 57  2  0
 63 56  1  0
 64 54  1  0
 66 68  2  0
 67 66  1  0
 69 67  1  0
 70 79  2  0
 70 75  1  0
 71 67  1  0
 71 75  1  0
 72 71  1  0
 73 74  1  0
 73 72  1  0
 74 70  1  0
 75 76  2  0
 76 77  1  0
 78 77  2  0
 79 78  1  0
 80 54  1  0
 80 81  1  0
 80 90  1  0
 81 84  1  0
 82 86  1  0
 82 81  1  0
 83 82  2  0
 86 85  1  0
 88 86  1  0
 88 89  1  0
 88 87  1  0
 90 93  1  1
 90 91  1  0
 92 90  1  0
M  ISO  4  14 100  22 100  52 101  53 101
M  END
>  <TORSDO>  (46) 
F 18

>  <SCORE>  (46) 
-13.994

>  <name>  (46) 
46

>  <ligand_id>  (46) 
46

>  <original_smiles>  (46) 
[H]c1c([H])c([H])c2c(c1[H])C([H])([H])C([H])([H])C([H])([H])C2([H])N([H])C(=O)C1([H])N(C(=O)C([H])(N([H])C(=O)C([H])(N([H])C([H])([H])[H])C([H])([H])[H])C(C([H])([H])[H])(C([H])([H])[H])C([H])([H])[H])C([H])([H])c2c([H])c(OC([H])([H])C3([H])C([H])([H])C([H])([H])N(c4c([H])c([H])c(N([H])C(=O)N5C([H])([H])C([H])([H])C([H])([H])C([H])(n6nc(-c7c([H])c([H])c(Oc8c([H])c([H])c(F)c([H])c8F)c([H])c7[H])c(C(=O)N([H])[H])c6N([H])[H])C5([H])[H])c([H])c4F)C([H])([H])C3([H])[H])c([H])c([H])c2C1([H])[H]

>  <smiles>  (46) 
[H]c1c([H])c([H])c2c(c1[H])C([H])([H])C([H])([H])C([H])([H])C2([H])N([H])C(=O)C1([H])N(C(=O)C([H])(N([H])C(=O)C([H])(N([H])C([H])([H])[H])C([H])([H])[H])C(C([H])([H])[H])(C([H])([H])[H])C([H])([H])[H])C([H])([H])c2c([H])c(OC([H])([H])C3([H])C([H])([H])C([H])([H])N(c4c([H])c([H])c(N([H])C(=O)N5C([H])([H])C([H])([H])C([H])([H])C([H])(n6nc(-c7c([H])c([H])c(Oc8c([H])c([H])c(F)c([H])c8F)c([H])c7[H])c(C(=O)N([H])[H])c6N([H])[H])C5([H])[H])c([H])c4F)C([H])([H])C3([H])[H])c([H])c([H])c2C1([H])[H]

$$$$
47:0:0
     RDKit          3D

 91 99  0  0  1  0  0  0  0  0999 V2000
  -29.1160  -22.7500   19.9280 C   0  0  0  0  0  0  0  0  0  0  0  0
  -30.2450  -23.1260   19.3170 N   0  0  0  0  0  4  0  0  0  0  0  0
  -28.9570  -21.2630   20.0680 N   0  0  0  0  0  0  0  0  0  0  0  0
  -30.9480  -22.4690   19.0250 H   0  0  0  0  0  0  0  0  0  0  0  0
  -30.4190  -24.1090   19.1600 H   0  0  0  0  0  0  0  0  0  0  0  0
  -28.0850  -21.0570   20.5370 H   0  0  0  0  0  0  0  0  0  0  0  0
  -28.1170  -24.1290   20.3510 C   0  0  0  0  0  2  0  0  0  0  0  0
  -28.4080  -25.7660   20.3720 O   0  0  0  0  0  0  0  0  0  0  0  0
  -24.7110  -31.7900   23.1610 C   0  0  0  0  0  0  0  0  0  0  0  0
  -27.3920  -26.8680   20.3000 C   0  0  0  0  0  0  0  0  0  0  0  0
  -23.5820  -30.3650   21.5020 C   0  0  0  0  0  3  0  0  0  0  0  0
  -25.0870  -28.7480   20.1540 C   0  0  0  0  0  0  0  0  0  0  0  0
  -26.1510  -30.5840   21.4410 C   0  0  0  0  0  2  0  0  0  0  0  0
  -26.2540  -29.1630   20.8090 C   0  0  0  0  0  0  0  0  0  0  0  0
  -27.4020  -28.2460   20.8540 C   0  0  0  0  0  3  0  0  0  0  0  0
  -26.1940  -26.6100   19.5970 C   0  0  0  0  0  3  0  0  0  0  0  0
  -25.0830  -27.4910   19.5290 C   0  0  0  0  0  3  0  0  0  0  0  0
  -23.8640  -29.6650   20.1440 C   0  0  0  0  0  2  0  0  0  0  0  0
  -24.8350  -30.9430   22.0880 N   0  0  0  0  0  0  0  0  0  0  0  0
  -23.6020  -32.0810   23.6390 O   0  0  0  0  0  0  0  0  0  0  0  0
  -22.8570  -29.3800   22.4560 C   0  0  0  0  0  0  0  0  0  0  0  0
  -21.5290  -29.2260   22.3050 N   0  0  0  0  0  0  0  0  0  0  0  0
  -23.5010  -28.7520   23.3000 O   0  0  0  0  0  0  0  0  0  0  0  0
  -21.0630  -29.7850   21.6040 H   0  0  0  0  0  0  0  0  0  0  0  0
  -18.1300  -28.0330   22.7430 C   0  0  0  0  0  0  0  0  0  0  0  0
  -20.6850  -28.2970   23.0620 C   0  0  0  0  0  3  0  0  0  0  0  0
  -20.7950  -26.8590   22.5010 C   0  0  0  0  0  2  0  0  0  0  0  0
  -19.7160  -26.5330   21.4640 C   0  0  0  0  0  2  0  0  0  0  0  0
  -18.3210  -26.6810   22.0750 C   0  0  0  0  0  2  0  0  0  0  0  0
  -19.2400  -28.7970   23.1920 C   0  0  0  0  0  0  0  0  0  0  0  0
  -19.0060  -30.0610   23.7790 C   0  0  0  0  0  3  0  0  0  0  0  0
  -17.6960  -30.5590   23.9170 C   0  0  0  0  0  3  0  0  0  0  0  0
  -16.6020  -29.7930   23.4810 C   0  0  0  0  0  3  0  0  0  0  0  0
  -16.8190  -28.5310   22.9000 C   0  0  0  0  0  3  0  0  0  0  0  0
  -25.9540  -32.4500   23.8300 C   0  0  0  0  0  3  0  0  0  0  0  0
  -25.6110  -33.8460   24.1520 N   0  0  0  0  0  0  0  0  0  0  0  0
  -25.9560  -34.9110   23.4160 C   0  0  0  0  0  0  0  0  0  0  0  0
  -26.6590  -34.8220   22.4080 O   0  0  0  0  0  0  0  0  0  0  0  0
  -24.9870  -33.9870   24.9340 H   0  0  0  0  0  0  0  0  0  0  0  0
  -24.2190  -36.6950   23.0330 C   0  0  0  0  0  1  0  0  0  0  0  0
  -25.4430  -36.2950   23.8710 C   0  0  0  0  0  3  0  0  0  0  0  0
  -27.5490  -37.1990   24.7570 C   0  0  0  0  0  1  0  0  0  0  0  0
  -26.4680  -37.3590   23.7880 N   0  0  0  0  0  0  0  0  0  0  0  0
  -26.0490  -38.2740   23.9310 H   0  0  0  0  0  0  0  0  0  0  0  0
  -26.4280  -31.6940   25.1340 C   0  0  1  0  0  0  0  0  0  0  0  0
  -25.2970  -31.4570   26.1620 C   0  0  0  0  0  1  0  0  0  0  0  0
  -27.0390  -30.3190   24.7860 C   0  0  0  0  0  1  0  0  0  0  0  0
  -27.5450  -32.5070   25.8320 C   0  0  0  0  0  1  0  0  0  0  0  0
  -29.6620  -19.8080   19.5370 C   0  0  0  0  0  2  0  0  0  0  0  0
  -30.6030  -15.3170   19.5420 C   0  0  0  0  0  0  0  0  0  0  0  0
  -30.4550  -12.9250   18.4800 C   0  0  0  0  0  2  0  0  0  0  0  0
  -29.3580  -12.7740   17.3910 C   0  0  0  0  0  2  0  0  0  0  0  0
  -27.9850  -12.4650   18.0150 C   0  0  0  0  0  2  0  0  0  0  0  0
  -27.7140  -13.3490   19.2540 C   0  0  0  0  0  3  0  0  0  0  0  0
  -28.9150  -13.3870   20.2150 C   0  0  0  0  0  2  0  0  0  0  0  0
  -30.0460  -13.9930   19.4750 N   0  0  0  0  0  0  0  0  0  0  0  0
  -31.7080  -15.3840   18.9790 O   0  0  0  0  0  0  0  0  0  0  0  0
  -30.7140  -18.4510   21.5550 C   0  0  0  0  0  2  0  0  0  0  0  0
  -29.7450  -16.2030   21.5680 C   0  0  0  0  0  2  0  0  0  0  0  0
  -30.5490  -17.2080   22.4050 C   0  0  0  0  0  3  0  0  0  0  0  0
  -29.7970  -18.2170   20.3630 C   0  0  0  0  0  3  0  0  0  0  0  0
  -29.9130  -16.5200   20.1270 N   0  0  0  0  0  0  0  0  0  0  0  0
  -29.8830  -17.4870   23.5250 F   0  0  0  0  0  0  0  0  0  0  0  0
  -25.5220  -13.8750   20.4450 C   0  0  0  0  0  0  0  0  0  0  0  0
  -24.5060  -13.0850   20.9060 C   0  0  0  0  0  0  0  0  0  0  0  0
  -24.9130  -11.7370   20.6630 C   0  0  0  0  0  0  0  0  0  0  0  0
  -26.4740  -13.0090   19.9390 N   0  0  0  0  0  0  0  0  0  0  0  0
  -26.1320  -11.7100   20.1360 N   0  0  0  0  0  0  0  0  0  0  0  0
  -24.1800  -10.4770   20.8450 C   0  0  0  0  0  0  0  0  0  0  0  0
  -24.6870   -9.4380   21.6570 C   0  0  0  0  0  3  0  0  0  0  0  0
  -23.9520   -8.2440   21.8320 C   0  0  0  0  0  3  0  0  0  0  0  0
  -22.6990   -8.0810   21.1940 C   0  0  0  0  0  0  0  0  0  0  0  0
  -22.2110   -9.1100   20.3700 C   0  0  0  0  0  3  0  0  0  0  0  0
  -22.9450  -10.2940   20.1910 C   0  0  0  0  0  3  0  0  0  0  0  0
  -21.9300   -6.9470   21.2850 O   0  0  0  0  0  0  0  0  0  0  0  0
  -21.9370   -6.1590   22.4090 C   0  0  0  0  0  0  0  0  0  0  0  0
  -21.6070   -6.6730   23.6830 C   0  0  0  0  0  3  0  0  0  0  0  0
  -21.5610   -5.8140   24.7980 C   0  0  0  0  0  3  0  0  0  0  0  0
  -21.8330   -4.4420   24.6420 C   0  0  0  0  0  0  0  0  0  0  0  0
  -22.1570   -3.9270   23.3740 C   0  0  0  0  0  3  0  0  0  0  0  0
  -22.2060   -4.7830   22.2610 C   0  0  0  0  0  0  0  0  0  0  0  0
  -22.4970   -4.2780   21.0380 F   0  0  0  0  0  0  0  0  0  0  0  0
  -21.7810   -3.6150   25.7130 F   0  0  0  0  0  0  0  0  0  0  0  0
  -23.1900  -13.5590   21.4500 C   0  0  0  0  0  0  0  0  0  0  0  0
  -22.5940  -12.8020   22.3640 N   0  0  0  0  0  0  0  0  0  0  0  0
  -22.7060  -14.6350   21.0980 O   0  0  0  0  0  0  0  0  0  0  0  0
  -23.0040  -11.9310   22.6670 H   0  0  0  0  0  0  0  0  0  0  0  0
  -21.7170  -13.0990   22.7670 H   0  0  0  0  0  0  0  0  0  0  0  0
  -25.7060  -15.2530   20.3870 N   0  0  0  0  0  0  0  0  0  0  0  0
  -24.9990  -15.9080   20.7030 H   0  0  0  0  0  0  0  0  0  0  0  0
  -26.5100  -15.7080   19.9740 H   0  0  0  0  0  0  0  0  0  0  0  0
  1  3  1  0
  1  7  1  0
  2  1  2  0
  3  6  1  0
  4  2  1  0
  5  2  1  0
  7  8  1  0
  9 20  2  0
 10  8  1  0
 10 15  1  0
 11 19  1  0
 11 21  1  0
 12 14  1  0
 13 19  1  0
 14 15  2  0
 14 13  1  0
 16 10  2  0
 17 16  1  0
 17 12  2  0
 18 12  1  0
 18 11  1  0
 19  9  1  0
 21 23  2  0
 22 21  1  0
 24 22  1  0
 25 34  2  0
 25 30  1  0
 26 22  1  0
 26 30  1  0
 27 26  1  0
 28 29  1  0
 28 27  1  0
 29 25  1  0
 30 31  2  0
 31 32  1  0
 33 32  2  0
 34 33  1  0
 35  9  1  0
 35 36  1  0
 35 45  1  0
 36 39  1  0
 37 41  1  0
 37 36  1  0
 38 37  2  0
 41 40  1  0
 43 41  1  0
 43 44  1  0
 43 42  1  0
 45 48  1  1
 45 46  1  0
 47 45  1  0
 49  3  1  0
 50 62  1  0
 51 56  1  0
 52 53  1  0
 52 51  1  0
 54 53  1  0
 54 67  1  0
 54 55  1  0
 56 50  1  0
 56 55  1  0
 57 50  2  0
 58 60  1  0
 59 60  1  0
 60 63  1  0
 61 49  1  0
 61 58  1  0
 62 61  1  0
 62 59  1  0
 64 65  2  0
 65 84  1  0
 66 69  1  0
 66 65  1  0
 67 68  1  0
 67 64  1  0
 68 66  2  0
 69 70  1  0
 70 71  2  0
 72 75  1  0
 72 71  1  0
 73 72  2  0
 74 73  1  0
 74 69  2  0
 75 76  1  0
 76 77  1  0
 77 78  2  0
 79 78  1  0
 79 83  1  0
 80 79  2  0
 81 76  2  0
 81 80  1  0
 82 81  1  0
 84 85  1  0
 85 87  1  0
 85 88  1  0
 86 84  2  0
 89 64  1  0
 89 90  1  0
 91 89  1  0
M  ISO  4   7 101   8 101  50 100  62 100
M  END
>  <TORSDO>  (47) 
F 18

>  <SCORE>  (47) 
-14.445

>  <name>  (47) 
47

>  <ligand_id>  (47) 
47

>  <original_smiles>  (47) 
[H]c1c([H])c([H])c2c(c1[H])C([H])([H])C([H])([H])C([H])([H])C2([H])N([H])C(=O)C1([H])N(C(=O)C([H])(N([H])C(=O)C([H])(N([H])C([H])([H])[H])C([H])([H])[H])C(C([H])([H])[H])(C([H])([H])[H])C([H])([H])[H])C([H])([H])c2c([H])c(OC([H])([H])C(N([H])[H])=[N+]([H])C([H])([H])C3([H])N(C(=O)N4C([H])([H])C([H])([H])C([H])([H])C([H])(n5nc(-c6c([H])c([H])c(Oc7c([H])c([H])c(F)c([H])c7F)c([H])c6[H])c(C(=O)N([H])[H])c5N([H])[H])C4([H])[H])C([H])([H])C([H])(F)C3([H])[H])c([H])c([H])c2C1([H])[H]

>  <smiles>  (47) 
[H]c1c([H])c([H])c2c(c1[H])C([H])([H])C([H])([H])C([H])([H])C2([H])N([H])C(=O)C1([H])N(C(=O)C([H])(N([H])C(=O)C([H])(N([H])C([H])([H])[H])C([H])([H])[H])C(C([H])([H])[H])(C([H])([H])[H])C([H])([H])[H])C([H])([H])c2c([H])c(OC([H])([H])C(N([H])[H])=[N+]([H])C([H])([H])C3([H])N(C(=O)N4C([H])([H])C([H])([H])C([H])([H])C([H])(n5nc(-c6c([H])c([H])c(Oc7c([H])c([H])c(F)c([H])c7F)c([H])c6[H])c(C(=O)N([H])[H])c5N([H])[H])C4([H])[H])C([H])([H])C([H])(F)C3([H])[H])c([H])c([H])c2C1([H])[H]

$$$$
48:0:0
     RDKit          3D

 93102  0  0  1  0  0  0  0  0999 V2000
  -27.7420  -23.6740   17.9750 C   0  0  0  0  0  2  0  0  0  0  0  0
  -27.8480  -22.1710   18.1820 C   0  0  0  0  0  2  0  0  0  0  0  0
  -29.0540  -23.2080   19.9600 C   0  0  0  0  0  2  0  0  0  0  0  0
  -28.1210  -24.2910   19.3300 C   0  0  0  0  0  3  0  0  0  0  0  0
  -28.9450  -22.0020   19.1200 N   0  0  0  0  0  0  0  0  0  0  0  0
  -29.1200  -18.8320   21.1750 C   0  0  0  0  0  3  0  0  0  0  0  0
  -29.0350  -20.2140   20.8690 C   0  0  0  0  0  3  0  0  0  0  0  0
  -29.5060  -19.7030   18.5530 C   0  0  0  0  0  3  0  0  0  0  0  0
  -29.3740  -17.8620   20.1720 C   0  0  0  0  0  0  0  0  0  0  0  0
  -29.6160  -18.3250   18.8530 C   0  0  0  0  0  0  0  0  0  0  0  0
  -29.1790  -20.6660   19.5360 C   0  0  0  0  0  0  0  0  0  0  0  0
  -29.9400  -17.3620   17.7210 C   0  0  0  0  0  1  0  0  0  0  0  0
  -29.2210  -16.3560   20.4920 C   0  0  0  0  0  2  0  0  0  0  0  0
  -30.8790  -14.5270   20.0470 C   0  0  0  0  0  0  0  0  0  0  0  0
  -30.4730  -12.3510   18.9370 C   0  0  0  0  0  2  0  0  0  0  0  0
  -29.4780  -12.4940   17.7700 C   0  0  0  0  0  2  0  0  0  0  0  0
  -28.0330  -12.3260   18.2750 C   0  0  0  0  0  2  0  0  0  0  0  0
  -27.7370  -13.2080   19.5130 C   0  0  0  0  0  3  0  0  0  0  0  0
  -28.8500  -13.0860   20.5830 C   0  0  0  0  0  2  0  0  0  0  0  0
  -30.1440  -13.3790   19.9440 N   0  0  0  0  0  0  0  0  0  0  0  0
  -31.9800  -14.6320   19.4970 O   0  0  0  0  0  0  0  0  0  0  0  0
  -31.3730  -16.2640   21.6790 C   0  0  0  0  0  1  0  0  0  0  0  0
  -30.4190  -15.5490   20.8270 N   0  0  0  0  0  0  0  0  0  0  0  0
  -25.4060  -13.8480   20.3790 C   0  0  0  0  0  0  0  0  0  0  0  0
  -24.3460  -13.0870   20.7920 C   0  0  0  0  0  0  0  0  0  0  0  0
  -24.7810  -11.7290   20.7110 C   0  0  0  0  0  0  0  0  0  0  0  0
  -26.4160  -12.9490   20.0700 N   0  0  0  0  0  0  0  0  0  0  0  0
  -26.0510  -11.6710   20.3320 N   0  0  0  0  0  0  0  0  0  0  0  0
  -24.0450  -10.4760   20.9130 C   0  0  0  0  0  0  0  0  0  0  0  0
  -24.4800   -9.5090   21.8460 C   0  0  0  0  0  3  0  0  0  0  0  0
  -23.7470   -8.3180   22.0340 C   0  0  0  0  0  3  0  0  0  0  0  0
  -22.5660   -8.0870   21.2900 C   0  0  0  0  0  0  0  0  0  0  0  0
  -22.1510   -9.0420   20.3440 C   0  0  0  0  0  3  0  0  0  0  0  0
  -22.8860  -10.2240   20.1540 C   0  0  0  0  0  3  0  0  0  0  0  0
  -21.8030   -6.9490   21.3880 O   0  0  0  0  0  0  0  0  0  0  0  0
  -21.7170   -6.2400   22.5600 C   0  0  0  0  0  0  0  0  0  0  0  0
  -21.2360   -6.8260   23.7520 C   0  0  0  0  0  3  0  0  0  0  0  0
  -21.0990   -6.0420   24.9150 C   0  0  0  0  0  3  0  0  0  0  0  0
  -21.4330   -4.6750   24.8880 C   0  0  0  0  0  0  0  0  0  0  0  0
  -21.9070   -4.0890   23.7010 C   0  0  0  0  0  3  0  0  0  0  0  0
  -22.0460   -4.8700   22.5390 C   0  0  0  0  0  0  0  0  0  0  0  0
  -22.4830   -4.2950   21.3930 F   0  0  0  0  0  0  0  0  0  0  0  0
  -21.2940   -3.9200   26.0030 F   0  0  0  0  0  0  0  0  0  0  0  0
  -22.9730  -13.5810   21.1460 C   0  0  0  0  0  0  0  0  0  0  0  0
  -22.2790  -12.8810   22.0350 N   0  0  0  0  0  0  0  0  0  0  0  0
  -22.5270  -14.6240   20.6670 O   0  0  0  0  0  0  0  0  0  0  0  0
  -22.6520  -12.0360   22.4410 H   0  0  0  0  0  0  0  0  0  0  0  0
  -21.3590  -13.1930   22.3120 H   0  0  0  0  0  0  0  0  0  0  0  0
  -25.5840  -15.2200   20.2190 N   0  0  0  0  0  0  0  0  0  0  0  0
  -24.8310  -15.8790   20.3860 H   0  0  0  0  0  0  0  0  0  0  0  0
  -26.4060  -15.6540   19.8230 H   0  0  0  0  0  0  0  0  0  0  0  0
  -28.6880  -25.7360   19.1300 C   0  0  0  0  0  2  0  0  0  0  0  0
  -28.4270  -26.7280   20.1410 O   0  0  0  0  0  0  0  0  0  0  0  0
  -24.6160  -31.9130   23.2130 C   0  0  0  0  0  0  0  0  0  0  0  0
  -27.2500  -27.4590   20.1050 C   0  0  0  0  0  0  0  0  0  0  0  0
  -23.4070  -30.5180   21.5680 C   0  0  0  0  0  3  0  0  0  0  0  0
  -24.8550  -28.9830   20.1310 C   0  0  0  0  0  0  0  0  0  0  0  0
  -25.9330  -30.8660   21.3720 C   0  0  0  0  0  2  0  0  0  0  0  0
  -26.0140  -29.4950   20.7270 C   0  0  0  0  0  0  0  0  0  0  0  0
  -27.2070  -28.7340   20.7230 C   0  0  0  0  0  3  0  0  0  0  0  0
  -26.0700  -26.9720   19.4950 C   0  0  0  0  0  3  0  0  0  0  0  0
  -24.8790  -27.7210   19.5140 C   0  0  0  0  0  3  0  0  0  0  0  0
  -23.6120  -29.8430   20.1850 C   0  0  0  0  0  2  0  0  0  0  0  0
  -24.6700  -31.1150   22.1080 N   0  0  0  0  0  0  0  0  0  0  0  0
  -23.5360  -32.1860   23.7540 O   0  0  0  0  0  0  0  0  0  0  0  0
  -22.7550  -29.4950   22.5260 C   0  0  0  0  0  0  0  0  0  0  0  0
  -21.4280  -29.3250   22.4090 N   0  0  0  0  0  0  0  0  0  0  0  0
  -23.4410  -28.8580   23.3300 O   0  0  0  0  0  0  0  0  0  0  0  0
  -20.9370  -29.8890   21.7300 H   0  0  0  0  0  0  0  0  0  0  0  0
  -18.0460  -28.1660   22.9350 C   0  0  0  0  0  0  0  0  0  0  0  0
  -20.6100  -28.3870   23.1790 C   0  0  0  0  0  3  0  0  0  0  0  0
  -20.6870  -26.9630   22.5820 C   0  0  0  0  0  2  0  0  0  0  0  0
  -19.5680  -26.6680   21.5780 C   0  0  0  0  0  2  0  0  0  0  0  0
  -18.1960  -26.8240   22.2410 C   0  0  0  0  0  2  0  0  0  0  0  0
  -19.1800  -28.9080   23.3610 C   0  0  0  0  0  0  0  0  0  0  0  0
  -18.9850  -30.1680   23.9690 C   0  0  0  0  0  3  0  0  0  0  0  0
  -17.6900  -30.6840   24.1560 C   0  0  0  0  0  3  0  0  0  0  0  0
  -16.5700  -29.9380   23.7470 C   0  0  0  0  0  3  0  0  0  0  0  0
  -16.7490  -28.6810   23.1440 C   0  0  0  0  0  3  0  0  0  0  0  0
  -25.9050  -32.5410   23.8310 C   0  0  0  0  0  3  0  0  0  0  0  0
  -26.4320  -31.7570   25.0960 C   0  0  1  0  0  0  0  0  0  0  0  0
  -25.3460  -31.5050   26.1680 C   0  0  0  0  0  1  0  0  0  0  0  0
  -27.0150  -30.3840   24.6840 C   0  0  0  0  0  1  0  0  0  0  0  0
  -27.5850  -32.5460   25.7590 C   0  0  0  0  0  1  0  0  0  0  0  0
  -25.5960  -33.9340   24.1770 N   0  0  0  0  0  0  0  0  0  0  0  0
  -25.9150  -34.9940   23.4220 C   0  0  0  0  0  0  0  0  0  0  0  0
  -26.5740  -34.9020   22.3810 O   0  0  0  0  0  0  0  0  0  0  0  0
  -25.0090  -34.0800   24.9850 H   0  0  0  0  0  0  0  0  0  0  0  0
  -24.1740  -36.7800   23.0980 C   0  0  0  0  0  1  0  0  0  0  0  0
  -25.4250  -36.3760   23.8940 C   0  0  0  0  0  3  0  0  0  0  0  0
  -27.5650  -37.2620   24.7110 C   0  0  0  0  0  1  0  0  0  0  0  0
  -26.4520  -37.4360   23.7820 N   0  0  0  0  0  0  0  0  0  0  0  0
  -26.0420  -38.3500   23.9500 H   0  0  0  0  0  0  0  0  0  0  0  0
  1  2  1  0
  1  4  1  0
  2  5  1  0
  4 52  1  0
  4  3  1  0
  5 11  1  0
  5  3  1  0
  7  6  1  0
  8 10  2  0
  8 11  1  0
  9 13  1  0
  9  6  2  0
 10  9  1  0
 11  7  2  0
 12 10  1  0
 13 23  1  0
 14 23  1  0
 15 20  1  0
 16 17  1  0
 16 15  1  0
 18 17  1  0
 18 27  1  0
 18 19  1  0
 20 14  1  0
 20 19  1  0
 21 14  2  0
 23 22  1  0
 24 25  2  0
 25 44  1  0
 26 25  1  0
 26 29  1  0
 27 28  1  0
 27 24  1  0
 28 26  2  0
 29 30  1  0
 30 31  2  0
 32 35  1  0
 32 31  1  0
 33 32  2  0
 34 33  1  0
 34 29  2  0
 35 36  1  0
 36 37  1  0
 37 38  2  0
 39 38  1  0
 39 43  1  0
 40 39  2  0
 41 36  2  0
 41 40  1  0
 42 41  1  0
 44 45  1  0
 45 48  1  0
 45 47  1  0
 46 44  2  0
 49 24  1  0
 49 50  1  0
 51 49  1  0
 52 53  1  0
 54 65  2  0
 55 53  1  0
 55 60  1  0
 56 64  1  0
 56 66  1  0
 57 63  1  0
 57 59  1  0
 58 64  1  0
 59 58  1  0
 60 59  2  0
 61 62  1  0
 61 55  2  0
 62 57  2  0
 63 56  1  0
 64 54  1  0
 66 68  2  0
 67 66  1  0
 69 67  1  0
 70 79  2  0
 70 75  1  0
 71 67  1  0
 71 75  1  0
 72 71  1  0
 73 74  1  0
 73 72  1  0
 74 70  1  0
 75 76  2  0
 76 77  1  0
 78 77  2  0
 79 78  1  0
 80 54  1  0
 80 85  1  0
 80 81  1  0
 81 84  1  1
 81 82  1  0
 83 81  1  0
 85 88  1  0
 86 90  1  0
 86 85  1  0
 87 86  2  0
 90 89  1  0
 92 90  1  0
 92 93  1  0
 92 91  1  0
M  ISO  4  14 100  23 100  52 101  53 101
M  END
>  <TORSDO>  (48) 
F 19

>  <SCORE>  (48) 
-13.542

>  <name>  (48) 
48

>  <ligand_id>  (48) 
48

>  <original_smiles>  (48) 
[H]c1c([H])c([H])c2c(c1[H])C([H])([H])C([H])([H])C([H])([H])C2([H])N([H])C(=O)C1([H])N(C(=O)C([H])(N([H])C(=O)C([H])(N([H])C([H])([H])[H])C([H])([H])[H])C(C([H])([H])[H])(C([H])([H])[H])C([H])([H])[H])C([H])([H])c2c([H])c(OC([H])([H])C3([H])C([H])([H])N(c4c([H])c([H])c(C([H])([H])N(C(=O)N5C([H])([H])C([H])([H])C([H])([H])C([H])(n6nc(-c7c([H])c([H])c(Oc8c([H])c([H])c(F)c([H])c8F)c([H])c7[H])c(C(=O)N([H])[H])c6N([H])[H])C5([H])[H])C([H])([H])[H])c(C([H])([H])[H])c4[H])C([H])([H])C3([H])[H])c([H])c([H])c2C1([H])[H]

>  <smiles>  (48) 
[H]c1c([H])c([H])c2c(c1[H])C([H])([H])C([H])([H])C([H])([H])C2([H])N([H])C(=O)C1([H])N(C(=O)C([H])(N([H])C(=O)C([H])(N([H])C([H])([H])[H])C([H])([H])[H])C(C([H])([H])[H])(C([H])([H])[H])C([H])([H])[H])C([H])([H])c2c([H])c(OC([H])([H])C3([H])C([H])([H])N(c4c([H])c([H])c(C([H])([H])N(C(=O)N5C([H])([H])C([H])([H])C([H])([H])C([H])(n6nc(-c7c([H])c([H])c(Oc8c([H])c([H])c(F)c([H])c8F)c([H])c7[H])c(C(=O)N([H])[H])c6N([H])[H])C5([H])[H])C([H])([H])[H])c(C([H])([H])[H])c4[H])C([H])([H])C3([H])[H])c([H])c([H])c2C1([H])[H]

$$$$
49:0:0
     RDKit          3D

 93102  0  0  1  0  0  0  0  0999 V2000
  -30.3960  -22.0340   20.0320 C   0  0  0  0  0  2  0  0  0  0  0  0
  -31.3520  -19.6320   19.4720 C   0  0  0  0  0  3  0  0  0  0  0  0
  -31.3980  -18.2010   19.5880 C   0  0  0  0  0  3  0  0  0  0  0  0
  -30.2650  -20.4360   19.9460 C   0  0  0  0  0  0  0  0  0  0  0  0
  -29.1950  -19.6830   20.5260 C   0  0  0  0  0  0  0  0  0  0  0  0
  -30.3440  -17.4550   20.1810 C   0  0  0  0  0  0  0  0  0  0  0  0
  -29.2370  -18.2440   20.6130 C   0  0  0  0  0  0  0  0  0  0  0  0
  -27.9830  -20.4010   21.1040 C   0  0  0  0  0  1  0  0  0  0  0  0
  -28.1780  -17.5910   21.1520 F   0  0  0  0  0  0  0  0  0  0  0  0
  -31.0300  -14.9160   19.8990 C   0  0  0  0  0  0  0  0  0  0  0  0
  -30.7690  -12.6400   18.8990 C   0  0  0  0  0  2  0  0  0  0  0  0
  -29.7530  -12.7270   17.7360 C   0  0  0  0  0  2  0  0  0  0  0  0
  -28.3060  -12.5830   18.2510 C   0  0  0  0  0  2  0  0  0  0  0  0
  -28.0240  -13.4730   19.4900 C   0  0  0  0  0  3  0  0  0  0  0  0
  -29.1440  -13.3410   20.5450 C   0  0  0  0  0  2  0  0  0  0  0  0
  -30.4160  -13.6820   19.8890 N   0  0  0  0  0  0  0  0  0  0  0  0
  -32.1620  -15.0530   19.4310 O   0  0  0  0  0  0  0  0  0  0  0  0
  -30.2670  -15.9830   20.3270 N   0  0  0  0  0  0  0  0  0  0  0  0
  -29.4390  -15.6870   20.8200 H   0  0  0  0  0  0  0  0  0  0  0  0
  -25.7120  -14.1190   20.4020 C   0  0  0  0  0  0  0  0  0  0  0  0
  -24.6450  -13.3670   20.8090 C   0  0  0  0  0  0  0  0  0  0  0  0
  -25.0520  -12.0030   20.6840 C   0  0  0  0  0  0  0  0  0  0  0  0
  -26.7040  -13.2140   20.0550 N   0  0  0  0  0  0  0  0  0  0  0  0
  -26.3140  -11.9330   20.2840 N   0  0  0  0  0  0  0  0  0  0  0  0
  -24.2910  -10.7600   20.8660 C   0  0  0  0  0  0  0  0  0  0  0  0
  -24.6980   -9.7720   21.7890 C   0  0  0  0  0  3  0  0  0  0  0  0
  -23.9390   -8.5950   21.9580 C   0  0  0  0  0  3  0  0  0  0  0  0
  -22.7590   -8.3960   21.2030 C   0  0  0  0  0  0  0  0  0  0  0  0
  -22.3720   -9.3710   20.2670 C   0  0  0  0  0  3  0  0  0  0  0  0
  -23.1310  -10.5410   20.0960 C   0  0  0  0  0  3  0  0  0  0  0  0
  -21.9740   -7.2710   21.2820 O   0  0  0  0  0  0  0  0  0  0  0  0
  -21.8260   -6.5760   22.4560 C   0  0  0  0  0  0  0  0  0  0  0  0
  -21.3010   -7.1840   23.6180 C   0  0  0  0  0  3  0  0  0  0  0  0
  -21.0990   -6.4160   24.7840 C   0  0  0  0  0  3  0  0  0  0  0  0
  -21.4110   -5.0440   24.7870 C   0  0  0  0  0  0  0  0  0  0  0  0
  -21.9300   -4.4380   23.6290 C   0  0  0  0  0  3  0  0  0  0  0  0
  -22.1330   -5.2010   22.4660 C   0  0  0  0  0  0  0  0  0  0  0  0
  -22.6130   -4.6060   21.3480 F   0  0  0  0  0  0  0  0  0  0  0  0
  -21.2100   -4.3050   25.9030 F   0  0  0  0  0  0  0  0  0  0  0  0
  -23.2890  -13.8800   21.2000 C   0  0  0  0  0  0  0  0  0  0  0  0
  -22.6040  -13.1860   22.1020 N   0  0  0  0  0  0  0  0  0  0  0  0
  -22.8490  -14.9340   20.7410 O   0  0  0  0  0  0  0  0  0  0  0  0
  -22.9730  -12.3350   22.4980 H   0  0  0  0  0  0  0  0  0  0  0  0
  -21.6970  -13.5150   22.4030 H   0  0  0  0  0  0  0  0  0  0  0  0
  -25.9170  -15.4880   20.2780 N   0  0  0  0  0  0  0  0  0  0  0  0
  -25.1860  -16.1630   20.4790 H   0  0  0  0  0  0  0  0  0  0  0  0
  -26.7550  -15.9170   19.9070 H   0  0  0  0  0  0  0  0  0  0  0  0
  -28.5930  -23.9350   20.3660 C   0  0  0  0  0  2  0  0  0  0  0  0
  -29.9130  -24.3130   18.8970 C   0  0  0  0  0  2  0  0  0  0  0  0
  -28.5940  -25.0520   19.2670 C   0  0  0  0  0  3  0  0  0  0  0  0
  -29.3770  -23.0350   19.4600 N   0  0  1  0  0  4  0  0  0  0  0  0
  -28.7760  -22.5880   18.7850 H   0  0  0  0  0  0  0  0  0  0  0  0
  -28.6300  -26.5240   19.6170 O   0  0  0  0  0  0  0  0  0  0  0  0
  -24.6570  -31.6520   22.9260 C   0  0  0  0  0  0  0  0  0  0  0  0
  -27.4590  -27.3250   19.6370 C   0  0  0  0  0  0  0  0  0  0  0  0
  -23.5060  -30.2620   21.2460 C   0  0  0  0  0  3  0  0  0  0  0  0
  -25.0140  -28.8520   19.7360 C   0  0  0  0  0  0  0  0  0  0  0  0
  -26.0290  -30.7070   21.0500 C   0  0  0  0  0  2  0  0  0  0  0  0
  -26.1710  -29.3600   20.3410 C   0  0  0  0  0  0  0  0  0  0  0  0
  -27.3910  -28.6100   20.2820 C   0  0  0  0  0  3  0  0  0  0  0  0
  -26.2640  -26.8870   19.0140 C   0  0  0  0  0  3  0  0  0  0  0  0
  -25.0670  -27.6220   19.0680 C   0  0  0  0  0  3  0  0  0  0  0  0
  -23.7380  -29.6620   19.8350 C   0  0  0  0  0  2  0  0  0  0  0  0
  -24.7500  -30.8910   21.7970 N   0  0  0  0  0  0  0  0  0  0  0  0
  -23.5680  -31.8490   23.4830 O   0  0  0  0  0  0  0  0  0  0  0  0
  -22.9110  -29.1710   22.1690 C   0  0  0  0  0  0  0  0  0  0  0  0
  -21.5880  -28.9500   22.0750 N   0  0  0  0  0  0  0  0  0  0  0  0
  -23.6390  -28.5270   22.9290 O   0  0  0  0  0  0  0  0  0  0  0  0
  -21.0550  -29.5260   21.4390 H   0  0  0  0  0  0  0  0  0  0  0  0
  -18.2710  -27.6280   22.6550 C   0  0  0  0  0  0  0  0  0  0  0  0
  -20.8320  -27.9420   22.8210 C   0  0  0  0  0  3  0  0  0  0  0  0
  -20.9410  -26.5520   22.1510 C   0  0  0  0  0  2  0  0  0  0  0  0
  -19.8020  -26.2640   21.1700 C   0  0  0  0  0  2  0  0  0  0  0  0
  -18.4490  -26.3290   21.8850 C   0  0  0  0  0  2  0  0  0  0  0  0
  -19.3890  -28.3930   23.0800 C   0  0  0  0  0  0  0  0  0  0  0  0
  -19.1660  -29.6080   23.7640 C   0  0  0  0  0  3  0  0  0  0  0  0
  -17.8590  -30.0600   24.0220 C   0  0  0  0  0  3  0  0  0  0  0  0
  -16.7560  -29.2920   23.6100 C   0  0  0  0  0  3  0  0  0  0  0  0
  -16.9630  -28.0760   22.9340 C   0  0  0  0  0  3  0  0  0  0  0  0
  -25.9120  -32.3290   23.5570 C   0  0  0  0  0  3  0  0  0  0  0  0
  -25.5160  -33.6720   24.0030 N   0  0  0  0  0  0  0  0  0  0  0  0
  -25.7650  -34.8040   23.3280 C   0  0  0  0  0  0  0  0  0  0  0  0
  -26.4200  -34.8280   22.2840 O   0  0  0  0  0  0  0  0  0  0  0  0
  -24.9300  -33.7230   24.8230 H   0  0  0  0  0  0  0  0  0  0  0  0
  -23.9120  -36.4970   23.1450 C   0  0  0  0  0  1  0  0  0  0  0  0
  -25.1950  -36.1160   23.9030 C   0  0  0  0  0  3  0  0  0  0  0  0
  -27.2740  -37.0860   24.7800 C   0  0  0  0  0  1  0  0  0  0  0  0
  -26.1510  -37.2420   23.8580 N   0  0  0  0  0  0  0  0  0  0  0  0
  -25.6860  -38.1190   24.0750 H   0  0  0  0  0  0  0  0  0  0  0  0
  -26.5230  -31.5060   24.7570 C   0  0  1  0  0  0  0  0  0  0  0  0
  -25.4830  -31.1100   25.8310 C   0  0  0  0  0  1  0  0  0  0  0  0
  -27.1930  -30.2070   24.2490 C   0  0  0  0  0  1  0  0  0  0  0  0
  -27.6330  -32.3320   25.4490 C   0  0  0  0  0  1  0  0  0  0  0  0
  2  3  2  0
  2  4  1  0
  3  6  1  0
  4  1  1  0
  4  5  2  0
  5  7  1  0
  5  8  1  0
  6 18  1  0
  6  7  2  0
  7  9  1  0
 10 18  1  0
 11 16  1  0
 12 13  1  0
 12 11  1  0
 14 13  1  0
 14 23  1  0
 14 15  1  0
 16 10  1  0
 16 15  1  0
 17 10  2  0
 18 19  1  0
 20 21  2  0
 21 40  1  0
 22 21  1  0
 22 25  1  0
 23 24  1  0
 23 20  1  0
 24 22  2  0
 25 26  1  0
 26 27  2  0
 28 31  1  0
 28 27  1  0
 29 28  2  0
 30 29  1  0
 30 25  2  0
 31 32  1  0
 32 37  2  0
 32 33  1  0
 33 34  2  0
 34 35  1  0
 35 39  1  0
 36 35  2  0
 37 36  1  0
 38 37  1  0
 40 41  1  0
 41 44  1  0
 41 43  1  0
 42 40  2  0
 45 20  1  0
 45 46  1  0
 47 45  1  0
 49 50  1  0
 49 51  1  0
 50 53  1  0
 50 48  1  0
 51  1  1  0
 51 48  1  0
 51 52  1  6
 53 55  1  0
 54 65  2  0
 55 60  1  0
 56 64  1  0
 56 66  1  0
 57 63  1  0
 57 59  1  0
 58 64  1  0
 59 58  1  0
 60 59  2  0
 61 62  1  0
 61 55  2  0
 62 57  2  0
 63 56  1  0
 64 54  1  0
 66 68  2  0
 67 66  1  0
 69 67  1  0
 70 79  2  0
 70 75  1  0
 71 67  1  0
 71 75  1  0
 72 71  1  0
 73 74  1  0
 73 72  1  0
 74 70  1  0
 75 76  2  0
 76 77  1  0
 78 77  2  0
 79 78  1  0
 80 54  1  0
 80 81  1  0
 80 90  1  0
 81 84  1  0
 82 86  1  0
 82 81  1  0
 83 82  2  0
 86 85  1  0
 88 86  1  0
 88 89  1  0
 88 87  1  0
 90 93  1  1
 90 91  1  0
 92 90  1  0
M  ISO  4  10 100  18 100  50 101  53 101
M  END
>  <TORSDO>  (49) 
F 18

>  <SCORE>  (49) 
-12.948

>  <name>  (49) 
49

>  <ligand_id>  (49) 
49

>  <original_smiles>  (49) 
[H]c1c([H])c([H])c2c(c1[H])C([H])([H])C([H])([H])C([H])([H])C2([H])N([H])C(=O)C1([H])N(C(=O)C([H])(N([H])C(=O)C([H])(N([H])C([H])([H])[H])C([H])([H])[H])C(C([H])([H])[H])(C([H])([H])[H])C([H])([H])[H])C([H])([H])c2c([H])c(OC3([H])C([H])([H])[N+]([H])(C([H])([H])c4c([H])c([H])c(N([H])C(=O)N5C([H])([H])C([H])([H])C([H])([H])C([H])(n6nc(-c7c([H])c([H])c(Oc8c([H])c([H])c(F)c([H])c8F)c([H])c7[H])c(C(=O)N([H])[H])c6N([H])[H])C5([H])[H])c(F)c4C([H])([H])[H])C3([H])[H])c([H])c([H])c2C1([H])[H]

>  <smiles>  (49) 
[H]c1c([H])c([H])c2c(c1[H])C([H])([H])C([H])([H])C([H])([H])C2([H])N([H])C(=O)C1([H])N(C(=O)C([H])(N([H])C(=O)C([H])(N([H])C([H])([H])[H])C([H])([H])[H])C(C([H])([H])[H])(C([H])([H])[H])C([H])([H])[H])C([H])([H])c2c([H])c(OC3([H])C([H])([H])[N+]([H])(C([H])([H])c4c([H])c([H])c(N([H])C(=O)N5C([H])([H])C([H])([H])C([H])([H])C([H])(n6nc(-c7c([H])c([H])c(Oc8c([H])c([H])c(F)c([H])c8F)c([H])c7[H])c(C(=O)N([H])[H])c6N([H])[H])C5([H])[H])c(F)c4C([H])([H])[H])C3([H])[H])c([H])c([H])c2C1([H])[H]

$$$$
50:0:0
     RDKit          3D

 97106  0  0  1  0  0  0  0  0999 V2000
  -31.8480  -21.4750   19.4040 C   0  0  0  0  0  2  0  0  0  0  0  0
  -30.5840  -20.9320   21.5330 C   0  0  0  0  0  2  0  0  0  0  0  0
  -32.4860  -22.6880   20.0990 C   0  0  0  0  0  2  0  0  0  0  0  0
  -31.2340  -22.1470   22.2160 C   0  0  0  0  0  2  0  0  0  0  0  0
  -31.4750  -20.3560   20.4120 C   0  0  0  0  0  3  0  0  0  0  0  0
  -31.5830  -23.2600   21.2090 C   0  0  0  0  0  3  0  0  0  0  0  0
  -30.2100  -19.2180   18.5020 C   0  0  0  0  0  3  0  0  0  0  0  0
  -29.4640  -18.1490   17.9950 C   0  0  0  0  0  3  0  0  0  0  0  0
  -30.6570  -17.9440   20.5320 C   0  0  0  0  0  3  0  0  0  0  0  0
  -30.7920  -19.1410   19.7870 C   0  0  0  0  0  0  0  0  0  0  0  0
  -29.2750  -16.9880   18.7610 C   0  0  0  0  0  0  0  0  0  0  0  0
  -29.8940  -16.8600   20.0380 C   0  0  0  0  0  0  0  0  0  0  0  0
  -28.3850  -15.9240   18.1590 C   0  0  0  0  0  1  0  0  0  0  0  0
  -30.5570  -14.7450   21.1140 C   0  0  0  0  0  0  0  0  0  0  0  0
  -30.5680  -12.3990   20.4150 C   0  0  0  0  0  2  0  0  0  0  0  0
  -29.8040  -12.2900   19.0790 C   0  0  0  0  0  2  0  0  0  0  0  0
  -28.2680  -12.2370   19.2860 C   0  0  0  0  0  2  0  0  0  0  0  0
  -27.7150  -13.1940   20.3870 C   0  0  0  0  0  3  0  0  0  0  0  0
  -28.6310  -13.2100   21.6300 C   0  0  0  0  0  2  0  0  0  0  0  0
  -29.9990  -13.5110   21.1790 N   0  0  0  0  0  0  0  0  0  0  0  0
  -31.7700  -14.9450   21.0090 O   0  0  0  0  0  0  0  0  0  0  0  0
  -29.6640  -15.7210   20.8650 N   0  0  0  0  0  0  0  0  0  0  0  0
  -28.7110  -15.3970   20.9030 H   0  0  0  0  0  0  0  0  0  0  0  0
  -25.2340  -13.7420   20.8280 C   0  0  0  0  0  0  0  0  0  0  0  0
  -24.1570  -12.9400   21.0860 C   0  0  0  0  0  0  0  0  0  0  0  0
  -24.6610  -11.6050   21.1350 C   0  0  0  0  0  0  0  0  0  0  0  0
  -26.3270  -12.8900   20.7310 N   0  0  0  0  0  0  0  0  0  0  0  0
  -25.9770  -11.6040   20.9820 N   0  0  0  0  0  0  0  0  0  0  0  0
  -23.9620  -10.3240   21.2700 C   0  0  0  0  0  0  0  0  0  0  0  0
  -24.3510   -9.3760   22.2420 C   0  0  0  0  0  3  0  0  0  0  0  0
  -23.6590   -8.1530   22.3620 C   0  0  0  0  0  3  0  0  0  0  0  0
  -22.5610   -7.8730   21.5160 C   0  0  0  0  0  0  0  0  0  0  0  0
  -22.1920   -8.8090   20.5340 C   0  0  0  0  0  3  0  0  0  0  0  0
  -22.8850  -10.0250   20.4080 C   0  0  0  0  0  3  0  0  0  0  0  0
  -21.8380   -6.7040   21.5500 O   0  0  0  0  0  0  0  0  0  0  0  0
  -21.7510   -5.9460   22.6890 C   0  0  0  0  0  0  0  0  0  0  0  0
  -21.2480   -6.4730   23.8990 C   0  0  0  0  0  3  0  0  0  0  0  0
  -21.0980   -5.6340   25.0220 C   0  0  0  0  0  3  0  0  0  0  0  0
  -21.4530   -4.2740   24.9370 C   0  0  0  0  0  0  0  0  0  0  0  0
  -21.9520   -3.7490   23.7330 C   0  0  0  0  0  3  0  0  0  0  0  0
  -22.0930   -4.5830   22.6090 C   0  0  0  0  0  0  0  0  0  0  0  0
  -22.5430   -4.0630   21.4420 F   0  0  0  0  0  0  0  0  0  0  0  0
  -21.3120   -3.4650   26.0150 F   0  0  0  0  0  0  0  0  0  0  0  0
  -22.7220  -13.3710   21.1870 C   0  0  0  0  0  0  0  0  0  0  0  0
  -21.9270  -12.6710   21.9890 N   0  0  0  0  0  0  0  0  0  0  0  0
  -22.3080  -14.3650   20.5900 O   0  0  0  0  0  0  0  0  0  0  0  0
  -22.2740  -11.8750   22.5030 H   0  0  0  0  0  0  0  0  0  0  0  0
  -20.9590  -12.9390   22.0980 H   0  0  0  0  0  0  0  0  0  0  0  0
  -25.3680  -15.1180   20.6550 N   0  0  0  0  0  0  0  0  0  0  0  0
  -24.5770  -15.7490   20.7140 H   0  0  0  0  0  0  0  0  0  0  0  0
  -26.2380  -15.6040   20.4890 H   0  0  0  0  0  0  0  0  0  0  0  0
  -29.9950  -25.1470   20.7190 C   0  0  0  0  0  0  0  0  0  0  0  0
  -30.3630  -23.8590   20.6460 N   0  0  0  0  0  0  0  0  0  0  0  0
  -30.6970  -26.0000   21.2750 O   0  0  0  0  0  0  0  0  0  0  0  0
  -29.7370  -23.2300   20.1610 H   0  0  0  0  0  0  0  0  0  0  0  0
  -28.6460  -25.5450   20.0790 C   0  0  0  0  0  2  0  0  0  0  0  0
  -28.5390  -26.9680   20.0930 O   0  0  0  0  0  0  0  0  0  0  0  0
  -24.6300  -31.9450   23.2630 C   0  0  0  0  0  0  0  0  0  0  0  0
  -27.3060  -27.5820   20.1160 C   0  0  0  0  0  0  0  0  0  0  0  0
  -23.4160  -30.5490   21.6140 C   0  0  0  0  0  3  0  0  0  0  0  0
  -24.8720  -29.0260   20.1690 C   0  0  0  0  0  0  0  0  0  0  0  0
  -25.9320  -30.9370   21.3970 C   0  0  0  0  0  2  0  0  0  0  0  0
  -26.0240  -29.5720   20.7460 C   0  0  0  0  0  0  0  0  0  0  0  0
  -27.2380  -28.8570   20.7130 C   0  0  0  0  0  3  0  0  0  0  0  0
  -26.1360  -27.0320   19.5430 C   0  0  0  0  0  3  0  0  0  0  0  0
  -24.9230  -27.7530   19.5670 C   0  0  0  0  0  3  0  0  0  0  0  0
  -23.6190  -29.8690   20.2310 C   0  0  0  0  0  2  0  0  0  0  0  0
  -24.6780  -31.1580   22.1510 N   0  0  0  0  0  0  0  0  0  0  0  0
  -23.5540  -32.2040   23.8200 O   0  0  0  0  0  0  0  0  0  0  0  0
  -22.7790  -29.5200   22.5760 C   0  0  0  0  0  0  0  0  0  0  0  0
  -21.4550  -29.3300   22.4560 N   0  0  0  0  0  0  0  0  0  0  0  0
  -23.4740  -28.8930   23.3800 O   0  0  0  0  0  0  0  0  0  0  0  0
  -20.9580  -29.8890   21.7750 H   0  0  0  0  0  0  0  0  0  0  0  0
  -18.0960  -28.0990   22.9490 C   0  0  0  0  0  0  0  0  0  0  0  0
  -20.6500  -28.3800   23.2220 C   0  0  0  0  0  3  0  0  0  0  0  0
  -20.7690  -26.9550   22.6350 C   0  0  0  0  0  2  0  0  0  0  0  0
  -19.6700  -26.6260   21.6210 C   0  0  0  0  0  2  0  0  0  0  0  0
  -18.2860  -26.7540   22.2660 C   0  0  0  0  0  2  0  0  0  0  0  0
  -19.2080  -28.8690   23.3830 C   0  0  0  0  0  0  0  0  0  0  0  0
  -18.9770  -30.1280   23.9770 C   0  0  0  0  0  3  0  0  0  0  0  0
  -17.6690  -30.6170   24.1450 C   0  0  0  0  0  3  0  0  0  0  0  0
  -16.5720  -29.8420   23.7320 C   0  0  0  0  0  3  0  0  0  0  0  0
  -16.7860  -28.5850   23.1380 C   0  0  0  0  0  3  0  0  0  0  0  0
  -25.9210  -32.5740   23.8790 C   0  0  0  0  0  3  0  0  0  0  0  0
  -26.4670  -31.7810   25.1300 C   0  0  1  0  0  0  0  0  0  0  0  0
  -25.3940  -31.5140   26.2110 C   0  0  0  0  0  1  0  0  0  0  0  0
  -27.0530  -30.4170   24.6990 C   0  0  0  0  0  1  0  0  0  0  0  0
  -27.6250  -32.5690   25.7860 C   0  0  0  0  0  1  0  0  0  0  0  0
  -25.6100  -33.9630   24.2400 N   0  0  0  0  0  0  0  0  0  0  0  0
  -25.9260  -35.0300   23.4960 C   0  0  0  0  0  0  0  0  0  0  0  0
  -26.5810  -34.9510   22.4530 O   0  0  0  0  0  0  0  0  0  0  0  0
  -25.0310  -34.0990   25.0560 H   0  0  0  0  0  0  0  0  0  0  0  0
  -24.1770  -36.8100   23.1950 C   0  0  0  0  0  1  0  0  0  0  0  0
  -25.4320  -36.4060   23.9840 C   0  0  0  0  0  3  0  0  0  0  0  0
  -27.5720  -37.2900   24.7990 C   0  0  0  0  0  1  0  0  0  0  0  0
  -26.4540  -37.4710   23.8760 N   0  0  0  0  0  0  0  0  0  0  0  0
  -26.0440  -38.3840   24.0490 H   0  0  0  0  0  0  0  0  0  0  0  0
  1  3  1  0
  1  5  1  0
  2  4  1  0
  3  6  1  0
  5 10  1  0
  5  2  1  0
  6 53  1  0
  6  4  1  0
  7 10  1  0
  8  7  2  0
  8 11  1  0
 10  9  2  0
 11 12  2  0
 12  9  1  0
 12 22  1  0
 13 11  1  0
 14 20  1  0
 15 20  1  0
 16 17  1  0
 16 15  1  0
 18 17  1  0
 18 27  1  0
 18 19  1  0
 20 19  1  0
 21 14  2  0
 22 23  1  0
 22 14  1  0
 24 25  2  0
 25 26  1  0
 25 44  1  0
 26 29  1  0
 27 24  1  0
 27 28  1  0
 28 26  2  0
 29 30  1  0
 30 31  2  0
 32 35  1  0
 32 31  1  0
 33 32  2  0
 34 33  1  0
 34 29  2  0
 35 36  1  0
 36 37  1  0
 37 38  2  0
 39 38  1  0
 39 43  1  0
 40 39  2  0
 41 36  2  0
 41 40  1  0
 42 41  1  0
 44 45  1  0
 45 48  1  0
 45 47  1  0
 46 44  2  0
 49 50  1  0
 49 24  1  0
 51 49  1  0
 52 54  2  0
 53 52  1  0
 55 53  1  0
 56 57  1  0
 56 52  1  0
 57 59  1  0
 58 69  2  0
 59 64  1  0
 60 68  1  0
 60 70  1  0
 61 67  1  0
 61 63  1  0
 62 68  1  0
 63 62  1  0
 64 63  2  0
 65 66  1  0
 65 59  2  0
 66 61  2  0
 67 60  1  0
 68 58  1  0
 70 72  2  0
 71 70  1  0
 73 71  1  0
 74 83  2  0
 74 79  1  0
 75 71  1  0
 75 79  1  0
 76 75  1  0
 77 78  1  0
 77 76  1  0
 78 74  1  0
 79 80  2  0
 80 81  1  0
 82 81  2  0
 83 82  1  0
 84 58  1  0
 84 89  1  0
 84 85  1  0
 85 88  1  1
 85 86  1  0
 87 85  1  0
 89 92  1  0
 90 94  1  0
 90 89  1  0
 91 90  2  0
 94 93  1  0
 96 94  1  0
 96 97  1  0
 96 95  1  0
M  ISO  4  14 100  22 100  56 101  57 101
M  END
>  <TORSDO>  (50) 
F 19

>  <SCORE>  (50) 
-12.362

>  <name>  (50) 
50

>  <ligand_id>  (50) 
50

>  <original_smiles>  (50) 
[H]c1c([H])c([H])c2c(c1[H])C([H])([H])C([H])([H])C([H])([H])C2([H])N([H])C(=O)C1([H])N(C(=O)C([H])(N([H])C(=O)C([H])(N([H])C([H])([H])[H])C([H])([H])[H])C(C([H])([H])[H])(C([H])([H])[H])C([H])([H])[H])C([H])([H])c2c([H])c(OC([H])([H])C(=O)N([H])C3([H])C([H])([H])C([H])([H])C([H])(c4c([H])c([H])c(C([H])([H])[H])c(N([H])C(=O)N5C([H])([H])C([H])([H])C([H])([H])C([H])(n6nc(-c7c([H])c([H])c(Oc8c([H])c([H])c(F)c([H])c8F)c([H])c7[H])c(C(=O)N([H])[H])c6N([H])[H])C5([H])[H])c4[H])C([H])([H])C3([H])[H])c([H])c([H])c2C1([H])[H]

>  <smiles>  (50) 
[H]c1c([H])c([H])c2c(c1[H])C([H])([H])C([H])([H])C([H])([H])C2([H])N([H])C(=O)C1([H])N(C(=O)C([H])(N([H])C(=O)C([H])(N([H])C([H])([H])[H])C([H])([H])[H])C(C([H])([H])[H])(C([H])([H])[H])C([H])([H])[H])C([H])([H])c2c([H])c(OC([H])([H])C(=O)N([H])C3([H])C([H])([H])C([H])([H])C([H])(c4c([H])c([H])c(C([H])([H])[H])c(N([H])C(=O)N5C([H])([H])C([H])([H])C([H])([H])C([H])(n6nc(-c7c([H])c([H])c(Oc8c([H])c([H])c(F)c([H])c8F)c([H])c7[H])c(C(=O)N([H])[H])c6N([H])[H])C5([H])[H])c4[H])C([H])([H])C3([H])[H])c([H])c([H])c2C1([H])[H]

$$$$
51:0:0
     RDKit          3D

 95103  0  0  1  0  0  0  0  0999 V2000
  -29.3150  -20.4240   20.3500 C   0  0  0  0  0  0  0  0  0  0  0  0
  -28.1930  -20.1400   19.6890 N   0  0  0  0  0  4  0  0  0  0  0  0
  -29.7570  -21.7070   20.3260 N   0  0  0  0  0  0  0  0  0  0  0  0
  -27.8220  -19.2030   19.7430 H   0  0  0  0  0  0  0  0  0  0  0  0
  -27.6640  -20.8290   19.1820 H   0  0  0  0  0  0  0  0  0  0  0  0
  -30.6620  -21.8560   20.7500 H   0  0  0  0  0  0  0  0  0  0  0  0
  -31.1960  -18.4110   23.0300 C   0  0  0  0  0  3  0  0  0  0  0  0
  -31.0460  -17.0980   22.5380 C   0  0  0  0  0  3  0  0  0  0  0  0
  -29.8830  -17.9910   20.5980 C   0  0  0  0  0  3  0  0  0  0  0  0
  -29.9930  -19.3280   21.0990 C   0  0  0  0  0  0  0  0  0  0  0  0
  -30.6600  -19.5270   22.3450 C   0  0  0  0  0  0  0  0  0  0  0  0
  -30.3750  -16.8710   21.3190 C   0  0  0  0  0  0  0  0  0  0  0  0
  -30.7760  -20.8890   23.0310 C   0  0  0  0  0  1  0  0  0  0  0  0
  -30.7240  -14.5380   20.4030 C   0  0  0  0  0  0  0  0  0  0  0  0
  -30.4210  -12.3720   19.2260 C   0  0  0  0  0  2  0  0  0  0  0  0
  -29.4710  -12.5520   18.0230 C   0  0  0  0  0  2  0  0  0  0  0  0
  -27.9960  -12.4190   18.4570 C   0  0  0  0  0  2  0  0  0  0  0  0
  -27.6630  -13.2790   19.7070 C   0  0  0  0  0  3  0  0  0  0  0  0
  -28.7190  -13.0650   20.8150 C   0  0  0  0  0  2  0  0  0  0  0  0
  -30.0450  -13.3640   20.2470 N   0  0  0  0  0  0  0  0  0  0  0  0
  -31.8570  -14.7210   19.9460 O   0  0  0  0  0  0  0  0  0  0  0  0
  -29.9940  -15.5400   20.9460 N   0  0  0  0  0  0  0  0  0  0  0  0
  -29.0390  -15.2910   21.1550 H   0  0  0  0  0  0  0  0  0  0  0  0
  -25.2810  -13.9350   20.4340 C   0  0  0  0  0  0  0  0  0  0  0  0
  -24.2000  -13.1840   20.8100 C   0  0  0  0  0  0  0  0  0  0  0  0
  -24.6350  -11.8240   20.7780 C   0  0  0  0  0  0  0  0  0  0  0  0
  -26.3070  -13.0320   20.1960 N   0  0  0  0  0  0  0  0  0  0  0  0
  -25.9210  -11.7570   20.4620 N   0  0  0  0  0  0  0  0  0  0  0  0
  -23.8860  -10.5760   20.9790 C   0  0  0  0  0  0  0  0  0  0  0  0
  -24.3060   -9.6070   21.9150 C   0  0  0  0  0  3  0  0  0  0  0  0
  -23.5590   -8.4240   22.1050 C   0  0  0  0  0  3  0  0  0  0  0  0
  -22.3780   -8.2050   21.3620 C   0  0  0  0  0  0  0  0  0  0  0  0
  -21.9740   -9.1650   20.4180 C   0  0  0  0  0  3  0  0  0  0  0  0
  -22.7200  -10.3380   20.2240 C   0  0  0  0  0  3  0  0  0  0  0  0
  -21.6020   -7.0750   21.4590 O   0  0  0  0  0  0  0  0  0  0  0  0
  -21.5480   -6.3370   22.6130 C   0  0  0  0  0  0  0  0  0  0  0  0
  -21.1400   -6.9020   23.8410 C   0  0  0  0  0  3  0  0  0  0  0  0
  -21.0320   -6.0900   24.9890 C   0  0  0  0  0  3  0  0  0  0  0  0
  -21.3210   -4.7150   24.9090 C   0  0  0  0  0  0  0  0  0  0  0  0
  -21.7230   -4.1490   23.6840 C   0  0  0  0  0  3  0  0  0  0  0  0
  -21.8320   -4.9580   22.5400 C   0  0  0  0  0  0  0  0  0  0  0  0
  -22.1970   -4.4040   21.3590 F   0  0  0  0  0  0  0  0  0  0  0  0
  -21.2080   -3.9350   26.0090 F   0  0  0  0  0  0  0  0  0  0  0  0
  -22.8140  -13.6910   21.0920 C   0  0  0  0  0  0  0  0  0  0  0  0
  -22.0800  -13.0090   21.9640 N   0  0  0  0  0  0  0  0  0  0  0  0
  -22.3920  -14.7240   20.5740 O   0  0  0  0  0  0  0  0  0  0  0  0
  -22.4360  -12.1730   22.4000 H   0  0  0  0  0  0  0  0  0  0  0  0
  -21.1470  -13.3270   22.1900 H   0  0  0  0  0  0  0  0  0  0  0  0
  -25.4710  -15.3020   20.2550 N   0  0  0  0  0  0  0  0  0  0  0  0
  -24.7120  -15.9650   20.3730 H   0  0  0  0  0  0  0  0  0  0  0  0
  -26.3240  -15.7370   19.9240 H   0  0  0  0  0  0  0  0  0  0  0  0
  -29.1340  -22.8670   19.6220 C   0  0  0  0  0  2  0  0  0  0  0  0
  -29.2900  -24.2570   20.3130 C   0  0  0  0  0  2  0  0  0  0  0  0
  -28.2350  -25.2700   19.7820 C   0  0  0  0  0  2  0  0  0  0  0  0
  -28.3200  -26.6430   20.2400 O   0  0  0  0  0  0  0  0  0  0  0  0
  -24.5850  -31.9240   23.2780 C   0  0  0  0  0  0  0  0  0  0  0  0
  -27.1650  -27.4210   20.1930 C   0  0  0  0  0  0  0  0  0  0  0  0
  -23.3510  -30.5340   21.6460 C   0  0  0  0  0  3  0  0  0  0  0  0
  -24.7860  -28.9830   20.2090 C   0  0  0  0  0  0  0  0  0  0  0  0
  -25.8830  -30.8580   21.4340 C   0  0  0  0  0  2  0  0  0  0  0  0
  -25.9520  -29.4820   20.8020 C   0  0  0  0  0  0  0  0  0  0  0  0
  -27.1390  -28.7050   20.7990 C   0  0  0  0  0  3  0  0  0  0  0  0
  -25.9780  -26.9690   19.5660 C   0  0  0  0  0  3  0  0  0  0  0  0
  -24.7970  -27.7280   19.5860 C   0  0  0  0  0  3  0  0  0  0  0  0
  -23.5440  -29.8470   20.2680 C   0  0  0  0  0  2  0  0  0  0  0  0
  -24.6260  -31.1190   22.1780 N   0  0  0  0  0  0  0  0  0  0  0  0
  -23.5120  -32.2040   23.8290 O   0  0  0  0  0  0  0  0  0  0  0  0
  -22.6950  -29.5250   22.6150 C   0  0  0  0  0  0  0  0  0  0  0  0
  -21.3720  -29.3380   22.4890 N   0  0  0  0  0  0  0  0  0  0  0  0
  -23.3750  -28.9080   23.4380 O   0  0  0  0  0  0  0  0  0  0  0  0
  -20.8780  -29.8870   21.7980 H   0  0  0  0  0  0  0  0  0  0  0  0
  -18.0060  -28.1240   22.9780 C   0  0  0  0  0  0  0  0  0  0  0  0
  -20.5580  -28.4050   23.2670 C   0  0  0  0  0  3  0  0  0  0  0  0
  -20.6760  -26.9660   22.7120 C   0  0  0  0  0  2  0  0  0  0  0  0
  -19.5890  -26.6190   21.6920 C   0  0  0  0  0  2  0  0  0  0  0  0
  -18.2000  -26.7660   22.3210 C   0  0  0  0  0  2  0  0  0  0  0  0
  -19.1140  -28.9010   23.4070 C   0  0  0  0  0  0  0  0  0  0  0  0
  -18.8820  -30.1710   23.9790 C   0  0  0  0  0  3  0  0  0  0  0  0
  -17.5720  -30.6670   24.1240 C   0  0  0  0  0  3  0  0  0  0  0  0
  -16.4770  -29.8860   23.7150 C   0  0  0  0  0  3  0  0  0  0  0  0
  -16.6940  -28.6160   23.1500 C   0  0  0  0  0  3  0  0  0  0  0  0
  -25.8820  -32.5520   23.8800 C   0  0  0  0  0  3  0  0  0  0  0  0
  -26.4070  -31.7810   25.1520 C   0  0  1  0  0  0  0  0  0  0  0  0
  -25.3260  -31.5430   26.2330 C   0  0  0  0  0  1  0  0  0  0  0  0
  -26.9860  -30.4030   24.7600 C   0  0  0  0  0  1  0  0  0  0  0  0
  -27.5710  -32.5700   25.8020 C   0  0  0  0  0  1  0  0  0  0  0  0
  -25.5850  -33.9520   24.2120 N   0  0  0  0  0  0  0  0  0  0  0  0
  -25.9000  -35.0010   23.4380 C   0  0  0  0  0  0  0  0  0  0  0  0
  -26.5490  -34.8900   22.3930 O   0  0  0  0  0  0  0  0  0  0  0  0
  -25.0100  -34.1080   25.0260 H   0  0  0  0  0  0  0  0  0  0  0  0
  -24.1770  -36.8060   23.1030 C   0  0  0  0  0  1  0  0  0  0  0  0
  -25.4280  -36.3940   23.8960 C   0  0  0  0  0  3  0  0  0  0  0  0
  -27.5790  -37.2780   24.6880 C   0  0  0  0  0  1  0  0  0  0  0  0
  -26.4620  -37.4420   23.7590 N   0  0  0  0  0  0  0  0  0  0  0  0
  -26.0610  -38.3630   23.9090 H   0  0  0  0  0  0  0  0  0  0  0  0
  1 10  1  0
  2  4  1  0
  2  1  2  0
  3  1  1  0
  3  6  1  0
  5  2  1  0
  8  7  1  0
  9 10  2  0
  9 12  1  0
 10 11  1  0
 11  7  2  0
 11 13  1  0
 12  8  2  0
 14 22  1  0
 15 20  1  0
 16 17  1  0
 16 15  1  0
 18 17  1  0
 18 27  1  0
 18 19  1  0
 20 14  1  0
 20 19  1  0
 21 14  2  0
 22 23  1  0
 22 12  1  0
 24 25  2  0
 25 44  1  0
 26 25  1  0
 26 29  1  0
 27 24  1  0
 27 28  1  0
 28 26  2  0
 29 30  1  0
 30 31  2  0
 32 35  1  0
 32 31  1  0
 33 32  2  0
 34 33  1  0
 34 29  2  0
 35 36  1  0
 36 37  1  0
 37 38  2  0
 39 38  1  0
 39 43  1  0
 40 39  2  0
 41 36  2  0
 41 40  1  0
 42 41  1  0
 44 45  1  0
 45 48  1  0
 45 47  1  0
 46 44  2  0
 49 50  1  0
 49 24  1  0
 51 49  1  0
 52 53  1  0
 52  3  1  0
 54 55  1  0
 54 53  1  0
 56 67  2  0
 57 55  1  0
 57 62  1  0
 58 66  1  0
 58 68  1  0
 59 65  1  0
 59 61  1  0
 60 66  1  0
 61 60  1  0
 62 61  2  0
 63 64  1  0
 63 57  2  0
 64 59  2  0
 65 58  1  0
 66 56  1  0
 68 70  2  0
 69 68  1  0
 71 69  1  0
 72 81  2  0
 72 77  1  0
 73 69  1  0
 73 77  1  0
 74 73  1  0
 75 76  1  0
 75 74  1  0
 76 72  1  0
 77 78  2  0
 78 79  1  0
 80 79  2  0
 81 80  1  0
 82 56  1  0
 82 87  1  0
 82 83  1  0
 83 86  1  1
 83 84  1  0
 85 83  1  0
 87 90  1  0
 88 92  1  0
 88 87  1  0
 89 88  2  0
 92 91  1  0
 94 92  1  0
 94 95  1  0
 94 93  1  0
M  ISO  4  14 100  22 100  54 101  55 101
M  END
>  <TORSDO>  (51) 
F 20

>  <SCORE>  (51) 
-13.467

>  <name>  (51) 
51

>  <ligand_id>  (51) 
51

>  <original_smiles>  (51) 
[H]c1c([H])c([H])c2c(c1[H])C([H])([H])C([H])([H])C([H])([H])C2([H])N([H])C(=O)C1([H])N(C(=O)C([H])(N([H])C(=O)C([H])(N([H])C([H])([H])[H])C([H])([H])[H])C(C([H])([H])[H])(C([H])([H])[H])C([H])([H])[H])C([H])([H])c2c([H])c(OC([H])([H])C([H])([H])C([H])([H])[N+]([H])=C(c3c([H])c(N([H])C(=O)N4C([H])([H])C([H])([H])C([H])([H])C([H])(n5nc(-c6c([H])c([H])c(Oc7c([H])c([H])c(F)c([H])c7F)c([H])c6[H])c(C(=O)N([H])[H])c5N([H])[H])C4([H])[H])c([H])c([H])c3C([H])([H])[H])N([H])[H])c([H])c([H])c2C1([H])[H]

>  <smiles>  (51) 
[H]c1c([H])c([H])c2c(c1[H])C([H])([H])C([H])([H])C([H])([H])C2([H])N([H])C(=O)C1([H])N(C(=O)C([H])(N([H])C(=O)C([H])(N([H])C([H])([H])[H])C([H])([H])[H])C(C([H])([H])[H])(C([H])([H])[H])C([H])([H])[H])C([H])([H])c2c([H])c(OC([H])([H])C([H])([H])C([H])([H])[N+]([H])=C(c3c([H])c(N([H])C(=O)N4C([H])([H])C([H])([H])C([H])([H])C([H])(n5nc(-c6c([H])c([H])c(Oc7c([H])c([H])c(F)c([H])c7F)c([H])c6[H])c(C(=O)N([H])[H])c5N([H])[H])C4([H])[H])c([H])c([H])c3C([H])([H])[H])N([H])[H])c([H])c([H])c2C1([H])[H]

$$$$
52:0:0
     RDKit          3D

101111  0  0  1  0  0  0  0  0999 V2000
  -31.4750  -21.8780   23.0080 C   0  0  0  0  0  2  0  0  0  0  0  0
  -31.3460  -22.9620   21.9500 C   0  0  0  0  0  2  0  0  0  0  0  0
  -30.2270  -21.0570   22.7680 C   0  0  0  0  0  2  0  0  0  0  0  0
  -30.6280  -22.2990   20.7300 C   0  0  1  0  0  0  0  0  0  0  0  0
  -31.7450  -22.0220   19.6890 C   0  0  0  0  0  1  0  0  0  0  0  0
  -30.0630  -21.0240   21.3110 N   0  0  0  0  0  0  0  0  0  0  0  0
  -29.6410  -23.3980   20.1070 C   0  0  0  0  0  0  0  0  0  0  0  0
  -26.8610  -24.6980   22.1400 C   0  0  0  0  0  2  0  0  0  0  0  0
  -27.8430  -25.8590   22.1850 C   0  0  0  0  0  2  0  0  0  0  0  0
  -27.7260  -23.5410   21.6470 C   0  0  0  0  0  2  0  0  0  0  0  0
  -28.7470  -25.6440   20.9360 C   0  0  1  0  0  0  0  0  0  0  0  0
  -30.1330  -26.2910   21.1270 C   0  0  0  0  0  1  0  0  0  0  0  0
  -28.8200  -24.1530   20.8970 N   0  0  0  0  0  0  0  0  0  0  0  0
  -29.7310  -23.6650   18.9040 O   0  0  0  0  0  0  0  0  0  0  0  0
  -28.2190  -26.1960   19.7210 O   0  0  0  0  0  0  0  0  0  0  0  0
  -24.4670  -31.4540   22.8680 C   0  0  0  0  0  0  0  0  0  0  0  0
  -27.1250  -27.0530   19.7320 C   0  0  0  0  0  0  0  0  0  0  0  0
  -23.2910  -30.1280   21.1470 C   0  0  0  0  0  3  0  0  0  0  0  0
  -24.7630  -28.6230   19.7060 C   0  0  0  0  0  0  0  0  0  0  0  0
  -25.8280  -30.4560   21.0270 C   0  0  0  0  0  2  0  0  0  0  0  0
  -25.9160  -29.1060   20.3400 C   0  0  0  0  0  0  0  0  0  0  0  0
  -27.1080  -28.3360   20.3400 C   0  0  0  0  0  3  0  0  0  0  0  0
  -25.9680  -26.6100   19.0660 C   0  0  0  0  0  3  0  0  0  0  0  0
  -24.7880  -27.3770   19.0570 C   0  0  0  0  0  3  0  0  0  0  0  0
  -23.5300  -29.4960   19.7500 C   0  0  0  0  0  2  0  0  0  0  0  0
  -24.5450  -30.6920   21.7400 N   0  0  0  0  0  0  0  0  0  0  0  0
  -23.3760  -31.7200   23.3870 O   0  0  0  0  0  0  0  0  0  0  0  0
  -22.6000  -29.0840   22.0550 C   0  0  0  0  0  0  0  0  0  0  0  0
  -21.2620  -29.0020   21.9690 N   0  0  0  0  0  0  0  0  0  0  0  0
  -23.2650  -28.3540   22.7950 O   0  0  0  0  0  0  0  0  0  0  0  0
  -20.7880  -29.6350   21.3400 H   0  0  0  0  0  0  0  0  0  0  0  0
  -17.8250  -28.1250   22.6570 C   0  0  0  0  0  0  0  0  0  0  0  0
  -20.4090  -28.0680   22.7040 C   0  0  0  0  0  3  0  0  0  0  0  0
  -20.2940  -26.7180   21.9590 C   0  0  0  0  0  2  0  0  0  0  0  0
  -19.0810  -26.6480   21.0270 C   0  0  0  0  0  2  0  0  0  0  0  0
  -17.7830  -26.8630   21.8140 C   0  0  0  0  0  2  0  0  0  0  0  0
  -19.0590  -28.7000   23.0620 C   0  0  0  0  0  0  0  0  0  0  0  0
  -19.0410  -29.8950   23.8130 C   0  0  0  0  0  3  0  0  0  0  0  0
  -17.8230  -30.5090   24.1620 C   0  0  0  0  0  3  0  0  0  0  0  0
  -16.6050  -29.9250   23.7710 C   0  0  0  0  0  3  0  0  0  0  0  0
  -16.6080  -28.7360   23.0230 C   0  0  0  0  0  3  0  0  0  0  0  0
  -25.7450  -32.0470   23.5410 C   0  0  0  0  0  3  0  0  0  0  0  0
  -25.4240  -33.4190   23.9590 N   0  0  0  0  0  0  0  0  0  0  0  0
  -25.8250  -34.5220   23.3150 C   0  0  0  0  0  0  0  0  0  0  0  0
  -26.5650  -34.4930   22.3270 O   0  0  0  0  0  0  0  0  0  0  0  0
  -24.7810  -33.5190   24.7300 H   0  0  0  0  0  0  0  0  0  0  0  0
  -24.1640  -36.3760   22.9670 C   0  0  0  0  0  1  0  0  0  0  0  0
  -25.3200  -35.8770   23.8480 C   0  0  0  0  0  3  0  0  0  0  0  0
  -27.3860  -36.6330   24.9360 C   0  0  0  0  0  1  0  0  0  0  0  0
  -26.3750  -36.9100   23.9210 N   0  0  0  0  0  0  0  0  0  0  0  0
  -25.9720  -37.8210   24.1170 H   0  0  0  0  0  0  0  0  0  0  0  0
  -26.2560  -31.1930   24.7650 C   0  0  1  0  0  0  0  0  0  0  0  0
  -25.1560  -30.8920   25.8090 C   0  0  0  0  0  1  0  0  0  0  0  0
  -26.8400  -29.8440   24.2820 C   0  0  0  0  0  1  0  0  0  0  0  0
  -27.4040  -31.9410   25.4820 C   0  0  0  0  0  1  0  0  0  0  0  0
  -31.3480  -18.8380   20.9750 C   0  0  0  0  0  3  0  0  0  0  0  0
  -31.3080  -17.4260   20.7850 C   0  0  0  0  0  3  0  0  0  0  0  0
  -28.9080  -17.5420   20.5180 C   0  0  0  0  0  0  0  0  0  0  0  0
  -30.1800  -19.6490   20.9010 C   0  0  0  0  0  0  0  0  0  0  0  0
  -30.0830  -16.7380   20.5700 C   0  0  0  0  0  0  0  0  0  0  0  0
  -28.9690  -18.9560   20.6370 C   0  0  0  0  0  0  0  0  0  0  0  0
  -27.5240  -16.9280   20.3830 C   0  0  0  0  0  1  0  0  0  0  0  0
  -27.8130  -19.6650   20.5790 F   0  0  0  0  0  0  0  0  0  0  0  0
  -30.6170  -14.3400   19.7320 C   0  0  0  0  0  0  0  0  0  0  0  0
  -30.1690  -12.2430   18.4720 C   0  0  0  0  0  2  0  0  0  0  0  0
  -29.0790  -12.5280   17.4140 C   0  0  0  0  0  2  0  0  0  0  0  0
  -27.6680  -12.3780   18.0150 C   0  0  0  0  0  2  0  0  0  0  0  0
  -27.5130  -13.1260   19.3670 C   0  0  0  0  0  3  0  0  0  0  0  0
  -28.6960  -12.8010   20.3090 C   0  0  0  0  0  2  0  0  0  0  0  0
  -29.9410  -13.1560   19.6070 N   0  0  0  0  0  0  0  0  0  0  0  0
  -31.6900  -14.5450   19.1590 O   0  0  0  0  0  0  0  0  0  0  0  0
  -29.9450  -15.2990   20.4240 N   0  0  0  0  0  0  0  0  0  0  0  0
  -29.1040  -14.9270   20.8360 H   0  0  0  0  0  0  0  0  0  0  0  0
  -25.2090  -13.7260   20.3440 C   0  0  0  0  0  0  0  0  0  0  0  0
  -24.1940  -12.9550   20.8390 C   0  0  0  0  0  0  0  0  0  0  0  0
  -24.6440  -11.6040   20.7370 C   0  0  0  0  0  0  0  0  0  0  0  0
  -26.2220  -12.8470   19.9920 N   0  0  0  0  0  0  0  0  0  0  0  0
  -25.8910  -11.5640   20.2830 N   0  0  0  0  0  0  0  0  0  0  0  0
  -23.9390  -10.3420   20.9890 C   0  0  0  0  0  0  0  0  0  0  0  0
  -24.4160   -9.4060   21.9320 C   0  0  0  0  0  3  0  0  0  0  0  0
  -23.7100   -8.2070   22.1700 C   0  0  0  0  0  3  0  0  0  0  0  0
  -22.5120   -7.9380   21.4670 C   0  0  0  0  0  0  0  0  0  0  0  0
  -22.0540   -8.8620   20.5120 C   0  0  0  0  0  3  0  0  0  0  0  0
  -22.7610  -10.0520   20.2720 C   0  0  0  0  0  3  0  0  0  0  0  0
  -21.7730   -6.7890   21.6140 O   0  0  0  0  0  0  0  0  0  0  0  0
  -21.6850   -6.1420   22.8190 C   0  0  0  0  0  0  0  0  0  0  0  0
  -21.2170   -6.7910   23.9820 C   0  0  0  0  0  3  0  0  0  0  0  0
  -21.0760   -6.0680   25.1840 C   0  0  0  0  0  3  0  0  0  0  0  0
  -21.3930   -4.6980   25.2240 C   0  0  0  0  0  0  0  0  0  0  0  0
  -21.8530   -4.0480   24.0650 C   0  0  0  0  0  3  0  0  0  0  0  0
  -21.9980   -4.7680   22.8650 C   0  0  0  0  0  0  0  0  0  0  0  0
  -22.4210   -4.1310   21.7470 F   0  0  0  0  0  0  0  0  0  0  0  0
  -21.2500   -4.0010   26.3750 F   0  0  0  0  0  0  0  0  0  0  0  0
  -22.8400  -13.4340   21.2750 C   0  0  0  0  0  0  0  0  0  0  0  0
  -22.2330  -12.7540   22.2400 N   0  0  0  0  0  0  0  0  0  0  0  0
  -22.3340  -14.4490   20.7970 O   0  0  0  0  0  0  0  0  0  0  0  0
  -22.6590  -11.9330   22.6450 H   0  0  0  0  0  0  0  0  0  0  0  0
  -21.3300  -13.0570   22.5770 H   0  0  0  0  0  0  0  0  0  0  0  0
  -25.3420  -15.0920   20.1390 N   0  0  0  0  0  0  0  0  0  0  0  0
  -24.5490  -15.7130   20.2670 H   0  0  0  0  0  0  0  0  0  0  0  0
  -26.0790  -15.5030   19.5800 H   0  0  0  0  0  0  0  0  0  0  0  0
  2  1  1  0
  3  1  1  0
  4  5  1  6
  4  6  1  0
  4  2  1  0
  6  3  1  0
  7  4  1  0
  7 13  1  0
  8  9  1  0
 10  8  1  0
 11 12  1  1
 11  9  1  0
 13 11  1  0
 13 10  1  0
 14  7  2  0
 15 17  1  0
 15 11  1  0
 16 27  2  0
 17 22  1  0
 18 26  1  0
 18 28  1  0
 19 25  1  0
 19 21  1  0
 20 26  1  0
 21 22  2  0
 21 20  1  0
 23 17  2  0
 24 23  1  0
 24 19  2  0
 25 18  1  0
 26 16  1  0
 28 30  2  0
 29 28  1  0
 31 29  1  0
 32 41  2  0
 32 37  1  0
 33 29  1  0
 33 37  1  0
 34 33  1  0
 35 36  1  0
 35 34  1  0
 36 32  1  0
 37 38  2  0
 38 39  1  0
 40 39  2  0
 41 40  1  0
 42 16  1  0
 42 43  1  0
 42 52  1  0
 43 46  1  0
 44 48  1  0
 44 43  1  0
 45 44  2  0
 48 47  1  0
 48 50  1  0
 50 51  1  0
 50 49  1  0
 52 55  1  1
 52 53  1  0
 54 52  1  0
 57 56  2  0
 58 60  2  0
 58 61  1  0
 59 56  1  0
 59  6  1  0
 60 57  1  0
 61 59  2  0
 62 58  1  0
 63 61  1  0
 64 72  1  0
 65 70  1  0
 66 67  1  0
 66 65  1  0
 68 67  1  0
 68 77  1  0
 68 69  1  0
 70 64  1  0
 70 69  1  0
 71 64  2  0
 72 60  1  0
 72 73  1  0
 74 75  2  0
 75 94  1  0
 76 75  1  0
 76 79  1  0
 77 78  1  0
 77 74  1  0
 78 76  2  0
 79 80  1  0
 80 81  2  0
 82 85  1  0
 82 81  1  0
 83 82  2  0
 84 83  1  0
 84 79  2  0
 85 86  1  0
 86 91  2  0
 86 87  1  0
 87 88  2  0
 88 89  1  0
 89 93  1  0
 90 89  2  0
 91 90  1  0
 92 91  1  0
 94 95  1  0
 95 98  1  0
 95 97  1  0
 96 94  2  0
 99100  1  0
 99 74  1  0
101 99  1  0
M  ISO  4  11 101  15 101  64 100  72 100
M  END
>  <TORSDO>  (52) 
F 18

>  <SCORE>  (52) 
-13.097

>  <name>  (52) 
52

>  <ligand_id>  (52) 
52

>  <original_smiles>  (52) 
[H]c1c([H])c([H])c2c(c1[H])C([H])([H])C([H])([H])C([H])([H])C2([H])N([H])C(=O)C1([H])N(C(=O)C([H])(N([H])C(=O)C([H])(N([H])C([H])([H])[H])C([H])([H])[H])C(C([H])([H])[H])(C([H])([H])[H])C([H])([H])[H])C([H])([H])c2c([H])c(OC3(C([H])([H])[H])N(C(=O)C4(C([H])([H])[H])N(c5c([H])c([H])c(N([H])C(=O)N6C([H])([H])C([H])([H])C([H])([H])C([H])(n7nc(-c8c([H])c([H])c(Oc9c([H])c([H])c(F)c([H])c9F)c([H])c8[H])c(C(=O)N([H])[H])c7N([H])[H])C6([H])[H])c(C([H])([H])[H])c5F)C([H])([H])C([H])([H])C4([H])[H])C([H])([H])C([H])([H])C3([H])[H])c([H])c([H])c2C1([H])[H]

>  <smiles>  (52) 
[H]c1c([H])c([H])c2c(c1[H])C([H])([H])C([H])([H])C([H])([H])C2([H])N([H])C(=O)C1([H])N(C(=O)C([H])(N([H])C(=O)C([H])(N([H])C([H])([H])[H])C([H])([H])[H])C(C([H])([H])[H])(C([H])([H])[H])C([H])([H])[H])C([H])([H])c2c([H])c(OC3(C([H])([H])[H])N(C(=O)C4(C([H])([H])[H])N(c5c([H])c([H])c(N([H])C(=O)N6C([H])([H])C([H])([H])C([H])([H])C([H])(n7nc(-c8c([H])c([H])c(Oc9c([H])c([H])c(F)c([H])c9F)c([H])c8[H])c(C(=O)N([H])[H])c7N([H])[H])C6([H])[H])c(C([H])([H])[H])c5F)C([H])([H])C([H])([H])C4([H])[H])C([H])([H])C([H])([H])C3([H])[H])c([H])c([H])c2C1([H])[H]

$$$$
53:0:0
     RDKit          3D

 88 96  0  0  1  0  0  0  0  0999 V2000
  -30.5040  -20.6120   19.6040 C   0  0  0  0  0  3  0  0  0  0  0  0
  -30.6780  -19.1390   19.6850 C   0  0  0  0  0  3  0  0  0  0  0  0
  -28.4210  -18.9510   20.1040 C   0  0  0  0  0  3  0  0  0  0  0  0
  -29.2860  -21.4050   19.7730 C   0  0  0  0  0  0  0  0  0  0  0  0
  -28.2410  -20.4280   20.0370 C   0  0  0  0  0  0  0  0  0  0  0  0
  -29.6430  -18.1600   19.9570 C   0  0  0  0  0  0  0  0  0  0  0  0
  -26.8520  -20.9800   20.2960 C   0  0  0  0  0  1  0  0  0  0  0  0
  -30.5080  -15.3650   19.8860 C   0  0  0  0  0  0  0  0  0  0  0  0
  -30.4460  -12.9200   19.0550 C   0  0  0  0  0  2  0  0  0  0  0  0
  -29.4700  -12.7440   17.8630 C   0  0  0  0  0  2  0  0  0  0  0  0
  -28.0340  -12.5030   18.3650 C   0  0  0  0  0  2  0  0  0  0  0  0
  -27.6450  -13.4950   19.4910 C   0  0  0  0  0  3  0  0  0  0  0  0
  -28.7340  -13.6050   20.5780 C   0  0  0  0  0  2  0  0  0  0  0  0
  -29.9600  -14.0610   19.9040 N   0  0  0  0  0  0  0  0  0  0  0  0
  -31.7060  -15.4080   19.5720 O   0  0  0  0  0  0  0  0  0  0  0  0
  -29.6740  -16.5580   20.0580 N   0  0  0  0  0  0  0  0  0  0  0  0
  -28.7660  -16.2180   20.3360 H   0  0  0  0  0  0  0  0  0  0  0  0
  -25.3240  -14.1180   20.3520 C   0  0  0  0  0  0  0  0  0  0  0  0
  -24.2570  -13.3670   20.7580 C   0  0  0  0  0  0  0  0  0  0  0  0
  -24.6820  -12.0040   20.6850 C   0  0  0  0  0  0  0  0  0  0  0  0
  -26.3280  -13.2160   20.0490 N   0  0  0  0  0  0  0  0  0  0  0  0
  -25.9560  -11.9380   20.3180 N   0  0  0  0  0  0  0  0  0  0  0  0
  -23.9280  -10.7600   20.8870 C   0  0  0  0  0  0  0  0  0  0  0  0
  -24.3580   -9.7730   21.8000 C   0  0  0  0  0  3  0  0  0  0  0  0
  -23.6040   -8.5950   21.9920 C   0  0  0  0  0  3  0  0  0  0  0  0
  -22.4050   -8.3940   21.2670 C   0  0  0  0  0  0  0  0  0  0  0  0
  -21.9910   -9.3700   20.3420 C   0  0  0  0  0  3  0  0  0  0  0  0
  -22.7470  -10.5390   20.1500 C   0  0  0  0  0  3  0  0  0  0  0  0
  -21.6220   -7.2700   21.3670 O   0  0  0  0  0  0  0  0  0  0  0  0
  -21.5800   -6.5210   22.5170 C   0  0  0  0  0  0  0  0  0  0  0  0
  -21.1840   -7.0750   23.7530 C   0  0  0  0  0  3  0  0  0  0  0  0
  -21.0890   -6.2550   24.8950 C   0  0  0  0  0  3  0  0  0  0  0  0
  -21.3820   -4.8810   24.8010 C   0  0  0  0  0  0  0  0  0  0  0  0
  -21.7740   -4.3270   23.5700 C   0  0  0  0  0  3  0  0  0  0  0  0
  -21.8700   -5.1440   22.4300 C   0  0  0  0  0  0  0  0  0  0  0  0
  -22.2280   -4.6010   21.2420 F   0  0  0  0  0  0  0  0  0  0  0  0
  -21.2850   -4.0910   25.8950 F   0  0  0  0  0  0  0  0  0  0  0  0
  -22.8860  -13.8790   21.0920 C   0  0  0  0  0  0  0  0  0  0  0  0
  -22.1750  -13.1930   21.9800 N   0  0  0  0  0  0  0  0  0  0  0  0
  -22.4580  -14.9230   20.6020 O   0  0  0  0  0  0  0  0  0  0  0  0
  -22.5330  -12.3470   22.3980 H   0  0  0  0  0  0  0  0  0  0  0  0
  -21.2580  -13.5210   22.2460 H   0  0  0  0  0  0  0  0  0  0  0  0
  -25.5160  -15.4860   20.1850 N   0  0  0  0  0  0  0  0  0  0  0  0
  -24.7620  -16.1510   20.3200 H   0  0  0  0  0  0  0  0  0  0  0  0
  -26.3370  -15.9010   19.7650 H   0  0  0  0  0  0  0  0  0  0  0  0
  -29.2620  -23.1400   19.9010 C   0  0  0  0  0  3  0  0  0  0  0  0
  -28.2280  -24.5020   19.4350 C   0  0  0  0  0  3  0  0  0  0  0  0
  -28.3690  -26.1040   19.7160 O   0  0  0  0  0  0  0  0  0  0  0  0
  -24.5580  -31.6770   22.9960 C   0  0  0  0  0  0  0  0  0  0  0  0
  -27.2980  -27.1250   19.7040 C   0  0  0  0  0  0  0  0  0  0  0  0
  -23.4120  -30.3280   21.2840 C   0  0  0  0  0  3  0  0  0  0  0  0
  -24.9160  -28.8700   19.7690 C   0  0  0  0  0  0  0  0  0  0  0  0
  -25.9620  -30.6640   21.1390 C   0  0  0  0  0  2  0  0  0  0  0  0
  -26.0870  -29.3020   20.4040 C   0  0  0  0  0  0  0  0  0  0  0  0
  -27.2730  -28.4500   20.3480 C   0  0  0  0  0  3  0  0  0  0  0  0
  -26.0920  -26.8310   19.0300 C   0  0  0  0  0  3  0  0  0  0  0  0
  -24.9380  -27.6560   19.0640 C   0  0  0  0  0  3  0  0  0  0  0  0
  -23.6610  -29.7340   19.8700 C   0  0  0  0  0  2  0  0  0  0  0  0
  -24.6640  -30.9150   21.8600 N   0  0  0  0  0  0  0  0  0  0  0  0
  -23.4620  -31.8940   23.5360 O   0  0  0  0  0  0  0  0  0  0  0  0
  -22.7640  -29.2510   22.1930 C   0  0  0  0  0  0  0  0  0  0  0  0
  -21.4360  -29.0630   22.0860 N   0  0  0  0  0  0  0  0  0  0  0  0
  -23.4630  -28.5890   22.9650 O   0  0  0  0  0  0  0  0  0  0  0  0
  -20.9250  -29.6550   21.4460 H   0  0  0  0  0  0  0  0  0  0  0  0
  -18.0860  -27.7790   22.6180 C   0  0  0  0  0  0  0  0  0  0  0  0
  -20.6510  -28.0560   22.8070 C   0  0  0  0  0  3  0  0  0  0  0  0
  -20.7450  -26.6760   22.1150 C   0  0  0  0  0  2  0  0  0  0  0  0
  -19.6090  -26.4220   21.1190 C   0  0  0  0  0  2  0  0  0  0  0  0
  -18.2520  -26.4920   21.8250 C   0  0  0  0  0  2  0  0  0  0  0  0
  -19.2130  -28.5200   23.0650 C   0  0  0  0  0  0  0  0  0  0  0  0
  -19.0020  -29.7220   23.7740 C   0  0  0  0  0  3  0  0  0  0  0  0
  -17.7000  -30.1860   24.0350 C   0  0  0  0  0  3  0  0  0  0  0  0
  -16.5880  -29.4430   23.6010 C   0  0  0  0  0  3  0  0  0  0  0  0
  -16.7830  -28.2400   22.8990 C   0  0  0  0  0  3  0  0  0  0  0  0
  -25.8080  -32.3320   23.6600 C   0  0  0  0  0  3  0  0  0  0  0  0
  -25.4450  -33.7060   24.0500 N   0  0  0  0  0  0  0  0  0  0  0  0
  -25.7320  -34.8060   23.3410 C   0  0  0  0  0  0  0  0  0  0  0  0
  -26.3930  -34.7730   22.3000 O   0  0  0  0  0  0  0  0  0  0  0  0
  -24.8550  -33.8010   24.8620 H   0  0  0  0  0  0  0  0  0  0  0  0
  -23.9290  -36.5480   23.1060 C   0  0  0  0  0  1  0  0  0  0  0  0
  -25.2040  -36.1560   23.8680 C   0  0  0  0  0  3  0  0  0  0  0  0
  -27.3200  -37.1020   24.6850 C   0  0  0  0  0  1  0  0  0  0  0  0
  -26.1920  -37.2540   23.7710 N   0  0  0  0  0  0  0  0  0  0  0  0
  -25.7530  -38.1520   23.9550 H   0  0  0  0  0  0  0  0  0  0  0  0
  -26.3320  -31.5310   24.9170 C   0  0  1  0  0  0  0  0  0  0  0  0
  -25.2350  -31.2260   25.9650 C   0  0  0  0  0  1  0  0  0  0  0  0
  -26.9570  -30.1830   24.4910 C   0  0  0  0  0  1  0  0  0  0  0  0
  -27.4530  -32.3330   25.6190 C   0  0  0  0  0  1  0  0  0  0  0  0
  1  2  2  0
  1  4  1  0
  2  6  1  0
  4 46  1  0
  4  5  2  0
  5  3  1  0
  5  7  1  0
  6 16  1  0
  6  3  2  0
  8 14  1  0
  8 16  1  0
  9 14  1  0
 10 11  1  0
 10  9  1  0
 12 11  1  0
 12 21  1  0
 12 13  1  0
 14 13  1  0
 15  8  2  0
 16 17  1  0
 18 19  2  0
 19 38  1  0
 20 19  1  0
 20 23  1  0
 21 22  1  0
 21 18  1  0
 22 20  2  0
 23 24  1  0
 24 25  2  0
 26 29  1  0
 26 25  1  0
 27 26  2  0
 28 27  1  0
 28 23  2  0
 29 30  1  0
 30 31  1  0
 31 32  2  0
 33 32  1  0
 33 37  1  0
 34 33  2  0
 35 30  2  0
 35 34  1  0
 36 35  1  0
 38 39  1  0
 39 42  1  0
 39 41  1  0
 40 38  2  0
 43 44  1  0
 43 18  1  0
 45 43  1  0
 47 48  1  0
 47 46  2  0
 49 60  2  0
 50 48  1  0
 50 55  1  0
 51 59  1  0
 51 61  1  0
 52 58  1  0
 52 54  1  0
 53 59  1  0
 54 53  1  0
 55 54  2  0
 56 57  1  0
 56 50  2  0
 57 52  2  0
 58 51  1  0
 59 49  1  0
 61 63  2  0
 62 61  1  0
 64 62  1  0
 65 74  2  0
 65 70  1  0
 66 62  1  0
 66 70  1  0
 67 66  1  0
 68 69  1  0
 68 67  1  0
 69 65  1  0
 70 71  2  0
 71 72  1  0
 73 72  2  0
 74 73  1  0
 75 49  1  0
 75 76  1  0
 75 85  1  0
 76 79  1  0
 77 81  1  0
 77 76  1  0
 78 77  2  0
 81 80  1  0
 83 81  1  0
 83 84  1  0
 83 82  1  0
 85 88  1  1
 85 86  1  0
 87 85  1  0
M  ISO  4   8 100  16 100  47 101  48 101
M  END
>  <TORSDO>  (53) 
F 18

>  <SCORE>  (53) 
-14.192

>  <name>  (53) 
53

>  <ligand_id>  (53) 
53

>  <original_smiles>  (53) 
[H]c1c([H])c([H])c2c(c1[H])C([H])([H])C([H])([H])C([H])([H])C2([H])N([H])C(=O)C1([H])N(C(=O)C([H])(N([H])C(=O)C([H])(N([H])C([H])([H])[H])C([H])([H])[H])C(C([H])([H])[H])(C([H])([H])[H])C([H])([H])[H])C([H])([H])c2c([H])c(OC([H])([H])C([H])([H])c3c([H])c([H])c(N([H])C(=O)N4C([H])([H])C([H])([H])C([H])([H])C([H])(n5nc(-c6c([H])c([H])c(Oc7c([H])c([H])c(F)c([H])c7F)c([H])c6[H])c(C(=O)N([H])[H])c5N([H])[H])C4([H])[H])c([H])c3C([H])([H])[H])c([H])c([H])c2C1([H])[H]

>  <smiles>  (53) 
[H]c1c([H])c([H])c2c(c1[H])C([H])([H])C([H])([H])C([H])([H])C2([H])N([H])C(=O)C1([H])N(C(=O)C([H])(N([H])C(=O)C([H])(N([H])C([H])([H])[H])C([H])([H])[H])C(C([H])([H])[H])(C([H])([H])[H])C([H])([H])[H])C([H])([H])c2c([H])c(OC([H])([H])C([H])([H])c3c([H])c([H])c(N([H])C(=O)N4C([H])([H])C([H])([H])C([H])([H])C([H])(n5nc(-c6c([H])c([H])c(Oc7c([H])c([H])c(F)c([H])c7F)c([H])c6[H])c(C(=O)N([H])[H])c5N([H])[H])C4([H])[H])c([H])c3C([H])([H])[H])c([H])c([H])c2C1([H])[H]

$$$$
54:0:0
     RDKit          3D

 93102  0  0  1  0  0  0  0  0999 V2000
  -27.9140  -18.1150   18.6190 C   0  0  0  0  0  3  0  0  0  0  0  0
  -28.7230  -17.1010   19.1780 C   0  0  0  0  0  3  0  0  0  0  0  0
  -28.0120  -19.4580   19.0380 C   0  0  0  0  0  0  0  0  0  0  0  0
  -29.7040  -18.7740   20.6620 C   0  0  0  0  0  0  0  0  0  0  0  0
  -28.9500  -19.8610   20.0200 C   0  0  0  0  0  0  0  0  0  0  0  0
  -29.5940  -17.3600   20.2570 C   0  0  0  0  0  0  0  0  0  0  0  0
  -27.0380  -20.5010   18.5010 C   0  0  0  0  0  2  0  0  0  0  0  0
  -26.5000  -21.4220   19.6220 C   0  0  0  0  0  2  0  0  0  0  0  0
  -27.4670  -21.5670   20.8140 C   0  0  0  0  0  2  0  0  0  0  0  0
  -30.5770  -19.1480   21.8480 C   0  0  0  0  0  1  0  0  0  0  0  0
  -28.8410  -21.2660   20.4270 N   0  0  0  0  0  0  0  0  0  0  0  0
  -30.8430  -15.0190   20.4620 C   0  0  0  0  0  0  0  0  0  0  0  0
  -30.6980  -12.7000   19.4880 C   0  0  0  0  0  2  0  0  0  0  0  0
  -29.8010  -12.6800   18.2330 C   0  0  0  0  0  2  0  0  0  0  0  0
  -28.3240  -12.4850   18.6240 C   0  0  0  0  0  2  0  0  0  0  0  0
  -27.8950  -13.4050   19.7940 C   0  0  0  0  0  3  0  0  0  0  0  0
  -28.9180  -13.3990   20.9510 C   0  0  0  0  0  2  0  0  0  0  0  0
  -30.2140  -13.7880   20.3830 N   0  0  0  0  0  0  0  0  0  0  0  0
  -32.0150  -15.1090   20.0840 O   0  0  0  0  0  0  0  0  0  0  0  0
  -30.2030  -16.1670   20.9460 N   0  0  0  0  0  0  0  0  0  0  0  0
  -30.6570  -16.4490   21.8030 H   0  0  0  0  0  0  0  0  0  0  0  0
  -25.4970  -13.9900   20.4700 C   0  0  0  0  0  0  0  0  0  0  0  0
  -24.4230  -13.2170   20.8090 C   0  0  0  0  0  0  0  0  0  0  0  0
  -24.8850  -11.8660   20.7880 C   0  0  0  0  0  0  0  0  0  0  0  0
  -26.5420  -13.1090   20.2490 N   0  0  0  0  0  0  0  0  0  0  0  0
  -26.1800  -11.8260   20.5050 N   0  0  0  0  0  0  0  0  0  0  0  0
  -24.1500  -10.6060   20.9610 C   0  0  0  0  0  0  0  0  0  0  0  0
  -24.5600   -9.6370   21.9040 C   0  0  0  0  0  3  0  0  0  0  0  0
  -23.8300   -8.4410   22.0630 C   0  0  0  0  0  3  0  0  0  0  0  0
  -22.6730   -8.2050   21.2840 C   0  0  0  0  0  0  0  0  0  0  0  0
  -22.2840   -9.1610   20.3290 C   0  0  0  0  0  3  0  0  0  0  0  0
  -23.0150  -10.3510   20.1660 C   0  0  0  0  0  3  0  0  0  0  0  0
  -21.9150   -7.0620   21.3560 O   0  0  0  0  0  0  0  0  0  0  0  0
  -21.8350   -6.3230   22.5100 C   0  0  0  0  0  0  0  0  0  0  0  0
  -21.3730   -6.8800   23.7230 C   0  0  0  0  0  3  0  0  0  0  0  0
  -21.2390   -6.0670   24.8660 C   0  0  0  0  0  3  0  0  0  0  0  0
  -21.5560   -4.6960   24.7980 C   0  0  0  0  0  0  0  0  0  0  0  0
  -22.0100   -4.1400   23.5910 C   0  0  0  0  0  3  0  0  0  0  0  0
  -22.1480   -4.9500   22.4490 C   0  0  0  0  0  0  0  0  0  0  0  0
  -22.5680   -4.4030   21.2830 F   0  0  0  0  0  0  0  0  0  0  0  0
  -21.4210   -3.9120   25.8930 F   0  0  0  0  0  0  0  0  0  0  0  0
  -23.0220  -13.6980   21.0480 C   0  0  0  0  0  0  0  0  0  0  0  0
  -22.2700  -13.0060   21.8980 N   0  0  0  0  0  0  0  0  0  0  0  0
  -22.5950  -14.7170   20.5090 O   0  0  0  0  0  0  0  0  0  0  0  0
  -22.6230  -12.1760   22.3500 H   0  0  0  0  0  0  0  0  0  0  0  0
  -21.3250  -13.3130   22.0880 H   0  0  0  0  0  0  0  0  0  0  0  0
  -25.6680  -15.3620   20.3090 N   0  0  0  0  0  0  0  0  0  0  0  0
  -24.9100  -16.0200   20.4490 H   0  0  0  0  0  0  0  0  0  0  0  0
  -26.5420  -15.8140   20.0740 H   0  0  0  0  0  0  0  0  0  0  0  0
  -29.6860  -22.4640   20.0270 C   0  0  0  0  0  2  0  0  0  0  0  0
  -29.0670  -23.8620   19.4170 C   0  0  0  0  0  2  0  0  0  0  0  0
  -28.5910  -25.1440   20.3010 C   0  0  0  0  0  2  0  0  0  0  0  0
  -28.6470  -26.5680   19.7900 O   0  0  0  0  0  0  0  0  0  0  0  0
  -24.7010  -31.7390   23.0470 C   0  0  0  0  0  0  0  0  0  0  0  0
  -27.4990  -27.3940   19.8210 C   0  0  0  0  0  0  0  0  0  0  0  0
  -23.5550  -30.3630   21.3460 C   0  0  0  0  0  3  0  0  0  0  0  0
  -25.0700  -28.9350   19.8600 C   0  0  0  0  0  0  0  0  0  0  0  0
  -26.0800  -30.7970   21.1700 C   0  0  0  0  0  2  0  0  0  0  0  0
  -26.2210  -29.4460   20.4680 C   0  0  0  0  0  0  0  0  0  0  0  0
  -27.4420  -28.6940   20.4330 C   0  0  0  0  0  3  0  0  0  0  0  0
  -26.3240  -26.9420   19.1880 C   0  0  0  0  0  3  0  0  0  0  0  0
  -25.1260  -27.6900   19.2060 C   0  0  0  0  0  3  0  0  0  0  0  0
  -23.7960  -29.7550   19.9390 C   0  0  0  0  0  2  0  0  0  0  0  0
  -24.7980  -30.9850   21.9110 N   0  0  0  0  0  0  0  0  0  0  0  0
  -23.6090  -31.9410   23.5990 O   0  0  0  0  0  0  0  0  0  0  0  0
  -22.9430  -29.2770   22.2610 C   0  0  0  0  0  0  0  0  0  0  0  0
  -21.6190  -29.0650   22.1530 N   0  0  0  0  0  0  0  0  0  0  0  0
  -23.6560  -28.6280   23.0320 O   0  0  0  0  0  0  0  0  0  0  0  0
  -21.1000  -29.6480   21.5130 H   0  0  0  0  0  0  0  0  0  0  0  0
  -18.2910  -27.7430   22.6530 C   0  0  0  0  0  0  0  0  0  0  0  0
  -20.8460  -28.0610   22.8800 C   0  0  0  0  0  3  0  0  0  0  0  0
  -20.9680  -26.6710   22.2130 C   0  0  0  0  0  2  0  0  0  0  0  0
  -19.8590  -26.4110   21.1900 C   0  0  0  0  0  2  0  0  0  0  0  0
  -18.4880  -26.4500   21.8760 C   0  0  0  0  0  2  0  0  0  0  0  0
  -19.3990  -28.5110   23.1020 C   0  0  0  0  0  0  0  0  0  0  0  0
  -19.1600  -29.7290   23.7750 C   0  0  0  0  0  3  0  0  0  0  0  0
  -17.8460  -30.1740   24.0080 C   0  0  0  0  0  3  0  0  0  0  0  0
  -16.7540  -29.4010   23.5790 C   0  0  0  0  0  3  0  0  0  0  0  0
  -16.9760  -28.1860   22.9070 C   0  0  0  0  0  3  0  0  0  0  0  0
  -25.9560  -32.4010   23.6950 C   0  0  0  0  0  3  0  0  0  0  0  0
  -26.5050  -31.6050   24.9420 C   0  0  1  0  0  0  0  0  0  0  0  0
  -25.4260  -31.2920   26.0040 C   0  0  0  0  0  1  0  0  0  0  0  0
  -27.1370  -30.2670   24.5010 C   0  0  0  0  0  1  0  0  0  0  0  0
  -27.6290  -32.4170   25.6310 C   0  0  0  0  0  1  0  0  0  0  0  0
  -25.5860  -33.7710   24.0850 N   0  0  0  0  0  0  0  0  0  0  0  0
  -25.8760  -34.8690   23.3750 C   0  0  0  0  0  0  0  0  0  0  0  0
  -26.5520  -34.8380   22.3420 O   0  0  0  0  0  0  0  0  0  0  0  0
  -24.9810  -33.8660   24.8880 H   0  0  0  0  0  0  0  0  0  0  0  0
  -24.0730  -36.6000   23.0920 C   0  0  0  0  0  1  0  0  0  0  0  0
  -25.3310  -36.2150   23.8890 C   0  0  0  0  0  3  0  0  0  0  0  0
  -27.4220  -37.1540   24.7630 C   0  0  0  0  0  1  0  0  0  0  0  0
  -26.3170  -37.3160   23.8230 N   0  0  0  0  0  0  0  0  0  0  0  0
  -25.8720  -38.2120   24.0080 H   0  0  0  0  0  0  0  0  0  0  0  0
  1  3  2  0
  1  2  1  0
  2  6  2  0
  3  5  1  0
  4 10  1  0
  5 11  1  0
  5  4  2  0
  6  4  1  0
  6 20  1  0
  7  3  1  0
  7  8  1  0
  8  9  1  0
 11  9  1  0
 12 20  1  0
 13 18  1  0
 14 15  1  0
 14 13  1  0
 16 15  1  0
 16 25  1  0
 16 17  1  0
 18 12  1  0
 18 17  1  0
 19 12  2  0
 20 21  1  0
 22 23  2  0
 23 42  1  0
 24 23  1  0
 24 27  1  0
 25 22  1  0
 25 26  1  0
 26 24  2  0
 27 28  1  0
 28 29  2  0
 30 33  1  0
 30 29  1  0
 31 30  2  0
 32 31  1  0
 32 27  2  0
 33 34  1  0
 34 35  1  0
 35 36  2  0
 37 36  1  0
 37 41  1  0
 38 37  2  0
 39 34  2  0
 39 38  1  0
 40 39  1  0
 42 43  1  0
 43 46  1  0
 43 45  1  0
 44 42  2  0
 47 48  1  0
 47 22  1  0
 49 47  1  0
 50 11  1  0
 51 50  1  0
 51 52  1  0
 53 55  1  0
 53 52  1  0
 54 65  2  0
 55 60  1  0
 56 64  1  0
 56 66  1  0
 57 63  1  0
 57 59  1  0
 58 64  1  0
 59 58  1  0
 60 59  2  0
 61 62  1  0
 61 55  2  0
 62 57  2  0
 63 56  1  0
 64 54  1  0
 66 68  2  0
 67 66  1  0
 69 67  1  0
 70 79  2  0
 70 75  1  0
 71 67  1  0
 71 75  1  0
 72 71  1  0
 73 74  1  0
 73 72  1  0
 74 70  1  0
 75 76  2  0
 76 77  1  0
 78 77  2  0
 79 78  1  0
 80 54  1  0
 80 85  1  0
 80 81  1  0
 81 84  1  1
 81 82  1  0
 83 81  1  0
 85 88  1  0
 86 90  1  0
 86 85  1  0
 87 86  2  0
 90 89  1  0
 92 90  1  0
 92 93  1  0
 92 91  1  0
M  ISO  4  12 100  20 100  52 101  53 101
M  END
>  <TORSDO>  (54) 
F 19

>  <SCORE>  (54) 
-13.321

>  <name>  (54) 
54

>  <ligand_id>  (54) 
54

>  <original_smiles>  (54) 
[H]c1c([H])c([H])c2c(c1[H])C([H])([H])C([H])([H])C([H])([H])C2([H])N([H])C(=O)C1([H])N(C(=O)C([H])(N([H])C(=O)C([H])(N([H])C([H])([H])[H])C([H])([H])[H])C(C([H])([H])[H])(C([H])([H])[H])C([H])([H])[H])C([H])([H])c2c([H])c(OC([H])([H])C([H])([H])C([H])([H])N3c4c(C([H])([H])[H])c(N([H])C(=O)N5C([H])([H])C([H])([H])C([H])([H])C([H])(n6nc(-c7c([H])c([H])c(Oc8c([H])c([H])c(F)c([H])c8F)c([H])c7[H])c(C(=O)N([H])[H])c6N([H])[H])C5([H])[H])c([H])c([H])c4C([H])([H])C([H])([H])C3([H])[H])c([H])c([H])c2C1([H])[H]

>  <smiles>  (54) 
[H]c1c([H])c([H])c2c(c1[H])C([H])([H])C([H])([H])C([H])([H])C2([H])N([H])C(=O)C1([H])N(C(=O)C([H])(N([H])C(=O)C([H])(N([H])C([H])([H])[H])C([H])([H])[H])C(C([H])([H])[H])(C([H])([H])[H])C([H])([H])[H])C([H])([H])c2c([H])c(OC([H])([H])C([H])([H])C([H])([H])N3c4c(C([H])([H])[H])c(N([H])C(=O)N5C([H])([H])C([H])([H])C([H])([H])C([H])(n6nc(-c7c([H])c([H])c(Oc8c([H])c([H])c(F)c([H])c8F)c([H])c7[H])c(C(=O)N([H])[H])c6N([H])[H])C5([H])[H])c([H])c([H])c4C([H])([H])C([H])([H])C3([H])[H])c([H])c([H])c2C1([H])[H]

$$$$
55:0:0
     RDKit          3D

 93102  0  0  1  0  0  0  0  0999 V2000
  -29.2840  -22.9790   18.1550 C   0  0  0  0  0  0  0  0  0  0  0  0
  -28.7370  -24.4410   18.0800 C   0  0  0  0  0  2  0  0  0  0  0  0
  -29.0850  -23.6790   20.3880 C   0  0  0  0  0  2  0  0  0  0  0  0
  -28.3300  -24.8480   19.5500 C   0  0  0  0  0  3  0  0  0  0  0  0
  -29.4730  -22.5570   19.4370 N   0  0  0  0  0  0  0  0  0  0  0  0
  -29.5120  -22.3130   17.1170 O   0  0  0  0  0  0  0  0  0  0  0  0
  -29.6740  -19.9670   19.6580 C   0  0  0  0  0  3  0  0  0  0  0  0
  -31.6460  -18.9470   20.6460 C   0  0  0  0  0  3  0  0  0  0  0  0
  -31.4870  -21.3970   20.3980 C   0  0  0  0  0  3  0  0  0  0  0  0
  -30.3640  -18.7580   20.0770 C   0  0  0  0  0  0  0  0  0  0  0  0
  -30.1930  -21.3140   19.8180 C   0  0  0  0  0  0  0  0  0  0  0  0
  -32.1910  -20.2450   20.8160 C   0  0  0  0  0  0  0  0  0  0  0  0
  -33.7620  -20.4630   21.5280 Cl  0  0  0  0  0  0  0  0  0  0  0  0
  -29.7030  -17.3280   19.7770 C   0  0  0  0  0  2  0  0  0  0  0  0
  -30.5810  -14.8430   20.2770 C   0  0  0  0  0  0  0  0  0  0  0  0
  -30.3720  -12.5280   19.3580 C   0  0  0  0  0  2  0  0  0  0  0  0
  -29.4300  -12.5420   18.1310 C   0  0  0  0  0  2  0  0  0  0  0  0
  -27.9590  -12.3760   18.5650 C   0  0  0  0  0  2  0  0  0  0  0  0
  -27.5790  -13.2990   19.7540 C   0  0  0  0  0  3  0  0  0  0  0  0
  -28.6470  -13.2660   20.8740 C   0  0  0  0  0  2  0  0  0  0  0  0
  -29.9460  -13.6100   20.2740 N   0  0  0  0  0  0  0  0  0  0  0  0
  -31.7450  -14.9170   19.8820 O   0  0  0  0  0  0  0  0  0  0  0  0
  -29.8520  -15.9940   20.5380 N   0  0  0  0  0  0  0  0  0  0  0  0
  -28.9910  -15.7770   21.0220 H   0  0  0  0  0  0  0  0  0  0  0  0
  -25.1900  -13.8800   20.5020 C   0  0  0  0  0  0  0  0  0  0  0  0
  -24.1230  -13.1170   20.8740 C   0  0  0  0  0  0  0  0  0  0  0  0
  -24.5850  -11.7600   20.8440 C   0  0  0  0  0  0  0  0  0  0  0  0
  -26.2380  -13.0060   20.2560 N   0  0  0  0  0  0  0  0  0  0  0  0
  -25.8750  -11.7220   20.5220 N   0  0  0  0  0  0  0  0  0  0  0  0
  -23.8500  -10.4990   21.0250 C   0  0  0  0  0  0  0  0  0  0  0  0
  -24.2780   -9.5280   21.9570 C   0  0  0  0  0  3  0  0  0  0  0  0
  -23.5450   -8.3340   22.1390 C   0  0  0  0  0  3  0  0  0  0  0  0
  -22.3680   -8.0990   21.3890 C   0  0  0  0  0  0  0  0  0  0  0  0
  -21.9550   -9.0610   20.4480 C   0  0  0  0  0  3  0  0  0  0  0  0
  -22.6900  -10.2430   20.2650 C   0  0  0  0  0  3  0  0  0  0  0  0
  -21.6110   -6.9570   21.4730 O   0  0  0  0  0  0  0  0  0  0  0  0
  -21.5610   -6.2130   22.6260 C   0  0  0  0  0  0  0  0  0  0  0  0
  -21.1290   -6.7700   23.8480 C   0  0  0  0  0  3  0  0  0  0  0  0
  -21.0140   -5.9550   24.9930 C   0  0  0  0  0  3  0  0  0  0  0  0
  -21.3330   -4.5860   24.9200 C   0  0  0  0  0  0  0  0  0  0  0  0
  -21.7610   -4.0290   23.7020 C   0  0  0  0  0  3  0  0  0  0  0  0
  -21.8700   -4.8420   22.5590 C   0  0  0  0  0  0  0  0  0  0  0  0
  -22.2620   -4.3030   21.3790 F   0  0  0  0  0  0  0  0  0  0  0  0
  -21.2230   -3.7970   26.0110 F   0  0  0  0  0  0  0  0  0  0  0  0
  -22.7220  -13.5950   21.1470 C   0  0  0  0  0  0  0  0  0  0  0  0
  -21.9930  -12.8990   22.0080 N   0  0  0  0  0  0  0  0  0  0  0  0
  -22.2820  -14.6250   20.6270 O   0  0  0  0  0  0  0  0  0  0  0  0
  -22.3540  -12.0740   22.4630 H   0  0  0  0  0  0  0  0  0  0  0  0
  -21.0580  -13.2000   22.2330 H   0  0  0  0  0  0  0  0  0  0  0  0
  -25.3630  -15.2510   20.3190 N   0  0  0  0  0  0  0  0  0  0  0  0
  -24.6050  -15.9200   20.3990 H   0  0  0  0  0  0  0  0  0  0  0  0
  -26.1980  -15.6550   19.9210 H   0  0  0  0  0  0  0  0  0  0  0  0
  -28.3710  -26.3330   19.9860 O   0  0  0  0  0  0  0  0  0  0  0  0
  -24.6140  -31.8620   23.2330 C   0  0  0  0  0  0  0  0  0  0  0  0
  -27.2330  -27.2190   20.0460 C   0  0  0  0  0  0  0  0  0  0  0  0
  -23.4040  -30.4620   21.6040 C   0  0  0  0  0  3  0  0  0  0  0  0
  -24.8410  -28.8860   20.1680 C   0  0  0  0  0  0  0  0  0  0  0  0
  -25.9540  -30.7320   21.4150 C   0  0  0  0  0  2  0  0  0  0  0  0
  -26.0300  -29.3450   20.7500 C   0  0  0  0  0  0  0  0  0  0  0  0
  -27.2150  -28.5250   20.6740 C   0  0  0  0  0  3  0  0  0  0  0  0
  -26.0040  -26.8430   19.4650 C   0  0  0  0  0  3  0  0  0  0  0  0
  -24.8310  -27.6300   19.5330 C   0  0  0  0  0  3  0  0  0  0  0  0
  -23.6180  -29.7840   20.2260 C   0  0  0  0  0  2  0  0  0  0  0  0
  -24.6790  -31.0420   22.1380 N   0  0  0  0  0  0  0  0  0  0  0  0
  -23.5290  -32.1450   23.7630 O   0  0  0  0  0  0  0  0  0  0  0  0
  -22.7270  -29.4550   22.5710 C   0  0  0  0  0  0  0  0  0  0  0  0
  -21.4000  -29.2880   22.4450 N   0  0  0  0  0  0  0  0  0  0  0  0
  -23.3990  -28.8280   23.3920 O   0  0  0  0  0  0  0  0  0  0  0  0
  -20.9100  -29.8570   21.7690 H   0  0  0  0  0  0  0  0  0  0  0  0
  -18.0200  -28.0830   22.9550 C   0  0  0  0  0  0  0  0  0  0  0  0
  -20.5780  -28.3510   23.2190 C   0  0  0  0  0  3  0  0  0  0  0  0
  -20.6810  -26.9190   22.6430 C   0  0  0  0  0  2  0  0  0  0  0  0
  -19.5780  -26.5900   21.6320 C   0  0  0  0  0  2  0  0  0  0  0  0
  -18.1980  -26.7330   22.2800 C   0  0  0  0  0  2  0  0  0  0  0  0
  -19.1390  -28.8510   23.3810 C   0  0  0  0  0  0  0  0  0  0  0  0
  -18.9150  -30.1130   23.9750 C   0  0  0  0  0  3  0  0  0  0  0  0
  -17.6100  -30.6090   24.1410 C   0  0  0  0  0  3  0  0  0  0  0  0
  -16.5070  -29.8400   23.7300 C   0  0  0  0  0  3  0  0  0  0  0  0
  -16.7130  -28.5770   23.1460 C   0  0  0  0  0  3  0  0  0  0  0  0
  -25.8900  -32.4980   23.8550 C   0  0  0  0  0  3  0  0  0  0  0  0
  -25.5790  -33.8980   24.1800 N   0  0  0  0  0  0  0  0  0  0  0  0
  -25.9070  -34.9540   23.4240 C   0  0  0  0  0  0  0  0  0  0  0  0
  -26.5690  -34.8500   22.3890 O   0  0  0  0  0  0  0  0  0  0  0  0
  -24.9950  -34.0490   24.9860 H   0  0  0  0  0  0  0  0  0  0  0  0
  -24.1810  -36.7610   23.0860 C   0  0  0  0  0  1  0  0  0  0  0  0
  -25.4240  -36.3430   23.8890 C   0  0  0  0  0  3  0  0  0  0  0  0
  -27.5640  -37.2260   24.7110 C   0  0  0  0  0  1  0  0  0  0  0  0
  -26.4570  -37.3930   23.7760 N   0  0  0  0  0  0  0  0  0  0  0  0
  -26.0550  -38.3140   23.9220 H   0  0  0  0  0  0  0  0  0  0  0  0
  -26.4050  -31.7330   25.1390 C   0  0  1  0  0  0  0  0  0  0  0  0
  -25.3170  -31.5060   26.2150 C   0  0  0  0  0  1  0  0  0  0  0  0
  -26.9810  -30.3490   24.7540 C   0  0  0  0  0  1  0  0  0  0  0  0
  -27.5570  -32.5290   25.7980 C   0  0  0  0  0  1  0  0  0  0  0  0
  1  5  1  0
  2  1  1  0
  2  4  1  0
  4 53  1  0
  4  3  1  0
  5 11  1  0
  5  3  1  0
  6  1  2  0
  7 11  2  0
  7 10  1  0
  8 12  1  0
  9 12  2  0
 10  8  2  0
 11  9  1  0
 12 13  1  0
 14 10  1  0
 14 23  1  0
 15 23  1  0
 16 21  1  0
 17 18  1  0
 17 16  1  0
 19 18  1  0
 19 28  1  0
 19 20  1  0
 21 15  1  0
 21 20  1  0
 22 15  2  0
 23 24  1  0
 25 26  2  0
 26 45  1  0
 27 26  1  0
 27 30  1  0
 28 25  1  0
 28 29  1  0
 29 27  2  0
 30 31  1  0
 31 32  2  0
 33 36  1  0
 33 32  1  0
 34 33  2  0
 35 34  1  0
 35 30  2  0
 36 37  1  0
 37 38  1  0
 38 39  2  0
 40 39  1  0
 40 44  1  0
 41 40  2  0
 42 37  2  0
 42 41  1  0
 43 42  1  0
 45 46  1  0
 46 49  1  0
 46 48  1  0
 47 45  2  0
 50 51  1  0
 50 25  1  0
 52 50  1  0
 53 55  1  0
 54 65  2  0
 55 60  1  0
 56 64  1  0
 56 66  1  0
 57 63  1  0
 57 59  1  0
 58 64  1  0
 59 58  1  0
 60 59  2  0
 61 62  1  0
 61 55  2  0
 62 57  2  0
 63 56  1  0
 64 54  1  0
 66 68  2  0
 67 66  1  0
 69 67  1  0
 70 79  2  0
 70 75  1  0
 71 67  1  0
 71 75  1  0
 72 71  1  0
 73 74  1  0
 73 72  1  0
 74 70  1  0
 75 76  2  0
 76 77  1  0
 78 77  2  0
 79 78  1  0
 80 54  1  0
 80 81  1  0
 80 90  1  0
 81 84  1  0
 82 86  1  0
 82 81  1  0
 83 82  2  0
 86 85  1  0
 88 86  1  0
 88 89  1  0
 88 87  1  0
 90 93  1  1
 90 91  1  0
 92 90  1  0
M  ISO  4   4 101  15 100  23 100  53 101
M  END
>  <TORSDO>  (55) 
F 18

>  <SCORE>  (55) 
-14.720

>  <name>  (55) 
55

>  <ligand_id>  (55) 
55

>  <original_smiles>  (55) 
[H]c1c([H])c([H])c2c(c1[H])C([H])([H])C([H])([H])C([H])([H])C2([H])N([H])C(=O)C1([H])N(C(=O)C([H])(N([H])C(=O)C([H])(N([H])C([H])([H])[H])C([H])([H])[H])C(C([H])([H])[H])(C([H])([H])[H])C([H])([H])[H])C([H])([H])c2c([H])c(OC3([H])C([H])([H])C(=O)N(c4c([H])c(Cl)c([H])c(C([H])([H])N([H])C(=O)N5C([H])([H])C([H])([H])C([H])([H])C([H])(n6nc(-c7c([H])c([H])c(Oc8c([H])c([H])c(F)c([H])c8F)c([H])c7[H])c(C(=O)N([H])[H])c6N([H])[H])C5([H])[H])c4[H])C3([H])[H])c([H])c([H])c2C1([H])[H]

>  <smiles>  (55) 
[H]c1c([H])c([H])c2c(c1[H])C([H])([H])C([H])([H])C([H])([H])C2([H])N([H])C(=O)C1([H])N(C(=O)C([H])(N([H])C(=O)C([H])(N([H])C([H])([H])[H])C([H])([H])[H])C(C([H])([H])[H])(C([H])([H])[H])C([H])([H])[H])C([H])([H])c2c([H])c(OC3([H])C([H])([H])C(=O)N(c4c([H])c(Cl)c([H])c(C([H])([H])N([H])C(=O)N5C([H])([H])C([H])([H])C([H])([H])C([H])(n6nc(-c7c([H])c([H])c(Oc8c([H])c([H])c(F)c([H])c8F)c([H])c7[H])c(C(=O)N([H])[H])c6N([H])[H])C5([H])[H])c4[H])C3([H])[H])c([H])c([H])c2C1([H])[H]

$$$$
56:0:0
     RDKit          3D

 97107  0  0  1  0  0  0  0  0999 V2000
  -31.1770  -18.6970   21.9270 C   0  0  0  0  0  3  0  0  0  0  0  0
  -30.8880  -17.4010   21.4570 C   0  0  0  0  0  3  0  0  0  0  0  0
  -29.2680  -19.7080   20.7370 C   0  0  0  0  0  0  0  0  0  0  0  0
  -28.9780  -18.3310   20.2760 C   0  0  0  0  0  0  0  0  0  0  0  0
  -30.3910  -19.8310   21.6000 C   0  0  0  0  0  0  0  0  0  0  0  0
  -29.7740  -17.1420   20.6360 C   0  0  0  0  0  0  0  0  0  0  0  0
  -27.7650  -18.1310   19.3810 C   0  0  0  0  0  1  0  0  0  0  0  0
  -30.2540  -14.5750   20.0560 C   0  0  0  0  0  0  0  0  0  0  0  0
  -30.0230  -12.3490   18.9040 C   0  0  0  0  0  2  0  0  0  0  0  0
  -28.9690  -12.4360   17.7780 C   0  0  0  0  0  2  0  0  0  0  0  0
  -27.5520  -12.1870   18.3320 C   0  0  0  0  0  2  0  0  0  0  0  0
  -27.2680  -12.9940   19.6260 C   0  0  0  0  0  3  0  0  0  0  0  0
  -28.4300  -12.8950   20.6370 C   0  0  0  0  0  2  0  0  0  0  0  0
  -29.6440  -13.3410   19.9420 N   0  0  0  0  0  0  0  0  0  0  0  0
  -31.4280  -14.6920   19.6880 O   0  0  0  0  0  0  0  0  0  0  0  0
  -29.4590  -15.7030   20.3150 N   0  0  0  0  0  0  0  0  0  0  0  0
  -28.4760  -15.4820   20.3370 H   0  0  0  0  0  0  0  0  0  0  0  0
  -24.9270  -13.4690   20.5530 C   0  0  0  0  0  0  0  0  0  0  0  0
  -23.9290  -12.6450   20.9940 C   0  0  0  0  0  0  0  0  0  0  0  0
  -24.4450  -11.3160   20.9060 C   0  0  0  0  0  0  0  0  0  0  0  0
  -25.9850  -12.6400   20.2210 N   0  0  0  0  0  0  0  0  0  0  0  0
  -25.7080  -11.3380   20.4980 N   0  0  0  0  0  0  0  0  0  0  0  0
  -23.7880  -10.0200   21.1310 C   0  0  0  0  0  0  0  0  0  0  0  0
  -24.2930   -9.0880   22.0650 C   0  0  0  0  0  3  0  0  0  0  0  0
  -23.6320   -7.8590   22.2790 C   0  0  0  0  0  3  0  0  0  0  0  0
  -22.4540   -7.5520   21.5570 C   0  0  0  0  0  0  0  0  0  0  0  0
  -21.9680   -8.4740   20.6130 C   0  0  0  0  0  3  0  0  0  0  0  0
  -22.6290   -9.6950   20.3980 C   0  0  0  0  0  3  0  0  0  0  0  0
  -21.7600   -6.3720   21.6790 O   0  0  0  0  0  0  0  0  0  0  0  0
  -21.7290   -5.6750   22.8600 C   0  0  0  0  0  0  0  0  0  0  0  0
  -21.2130   -6.2410   24.0460 C   0  0  0  0  0  3  0  0  0  0  0  0
  -21.1370   -5.4650   25.2200 C   0  0  0  0  0  3  0  0  0  0  0  0
  -21.5660   -4.1250   25.2090 C   0  0  0  0  0  0  0  0  0  0  0  0
  -22.0740   -3.5570   24.0270 C   0  0  0  0  0  3  0  0  0  0  0  0
  -22.1520   -4.3310   22.8550 C   0  0  0  0  0  0  0  0  0  0  0  0
  -22.6230   -3.7740   21.7130 F   0  0  0  0  0  0  0  0  0  0  0  0
  -21.4850   -3.3760   26.3340 F   0  0  0  0  0  0  0  0  0  0  0  0
  -22.5370  -13.0570   21.3770 C   0  0  0  0  0  0  0  0  0  0  0  0
  -21.9080  -12.3210   22.2860 N   0  0  0  0  0  0  0  0  0  0  0  0
  -22.0180  -14.0690   20.9070 O   0  0  0  0  0  0  0  0  0  0  0  0
  -22.3420  -11.5040   22.6870 H   0  0  0  0  0  0  0  0  0  0  0  0
  -20.9800  -12.5820   22.5870 H   0  0  0  0  0  0  0  0  0  0  0  0
  -25.0140  -14.8470   20.3830 N   0  0  0  0  0  0  0  0  0  0  0  0
  -24.2190  -15.4550   20.5510 H   0  0  0  0  0  0  0  0  0  0  0  0
  -25.7930  -15.3270   19.9550 H   0  0  0  0  0  0  0  0  0  0  0  0
  -32.0220  -21.7650   24.0770 C   0  0  0  0  0  2  0  0  0  0  0  0
  -30.5820  -22.2210   24.2940 C   0  0  0  0  0  2  0  0  0  0  0  0
  -32.0570  -21.3420   22.6050 C   0  0  0  0  0  2  0  0  0  0  0  0
  -29.8110  -21.2790   23.3800 C   0  0  0  0  0  2  0  0  0  0  0  0
  -30.6680  -21.0670   22.2130 N   0  0  0  0  0  0  0  0  0  0  0  0
  -28.3690  -21.0290   20.3910 C   0  0  0  0  0  2  0  0  0  0  0  0
  -28.6320  -23.5100   19.4070 C   0  0  0  0  0  2  0  0  0  0  0  0
  -28.2890  -23.5100   21.4450 C   0  0  0  0  0  2  0  0  0  0  0  0
  -27.8300  -24.5020   20.3190 C   0  0  0  0  0  3  0  0  0  0  0  0
  -28.8810  -22.5060   20.4980 N   0  0  1  0  0  4  0  0  0  0  0  0
  -29.8690  -22.4430   20.7070 H   0  0  0  0  0  0  0  0  0  0  0  0
  -28.1310  -26.0080   20.3540 O   0  0  0  0  0  0  0  0  0  0  0  0
  -24.6490  -31.7550   23.2200 C   0  0  0  0  0  0  0  0  0  0  0  0
  -27.0890  -26.9780   20.2610 C   0  0  0  0  0  0  0  0  0  0  0  0
  -23.4090  -30.3780   21.5940 C   0  0  0  0  0  3  0  0  0  0  0  0
  -24.8110  -28.7530   20.1920 C   0  0  0  0  0  0  0  0  0  0  0  0
  -25.9670  -30.5770   21.4310 C   0  0  0  0  0  2  0  0  0  0  0  0
  -25.9960  -29.1820   20.8010 C   0  0  0  0  0  0  0  0  0  0  0  0
  -27.1370  -28.3060   20.8220 C   0  0  0  0  0  3  0  0  0  0  0  0
  -25.8890  -26.6460   19.5910 C   0  0  0  0  0  3  0  0  0  0  0  0
  -24.7670  -27.4970   19.5720 C   0  0  0  0  0  3  0  0  0  0  0  0
  -23.6100  -29.6800   20.2230 C   0  0  0  0  0  2  0  0  0  0  0  0
  -24.6950  -30.9230   22.1370 N   0  0  0  0  0  0  0  0  0  0  0  0
  -23.5710  -32.0800   23.7420 O   0  0  0  0  0  0  0  0  0  0  0  0
  -22.7010  -29.4000   22.5640 C   0  0  0  0  0  0  0  0  0  0  0  0
  -21.3700  -29.2620   22.4270 N   0  0  0  0  0  0  0  0  0  0  0  0
  -23.3480  -28.7680   23.4040 O   0  0  0  0  0  0  0  0  0  0  0  0
  -20.9060  -29.8230   21.7250 H   0  0  0  0  0  0  0  0  0  0  0  0
  -17.9480  -28.1930   22.9300 C   0  0  0  0  0  0  0  0  0  0  0  0
  -20.5140  -28.3630   23.2040 C   0  0  0  0  0  3  0  0  0  0  0  0
  -20.5650  -26.9220   22.6420 C   0  0  0  0  0  2  0  0  0  0  0  0
  -19.4540  -26.6310   21.6280 C   0  0  0  0  0  2  0  0  0  0  0  0
  -18.0760  -26.8320   22.2680 C   0  0  0  0  0  2  0  0  0  0  0  0
  -19.0930  -28.9190   23.3550 C   0  0  0  0  0  0  0  0  0  0  0  0
  -18.9190  -30.1930   23.9360 C   0  0  0  0  0  3  0  0  0  0  0  0
  -17.6320  -30.7410   24.0980 C   0  0  0  0  0  3  0  0  0  0  0  0
  -16.5010  -30.0120   23.6900 C   0  0  0  0  0  3  0  0  0  0  0  0
  -16.6600  -28.7400   23.1110 C   0  0  0  0  0  3  0  0  0  0  0  0
  -25.9460  -32.3550   23.8440 C   0  0  0  0  0  3  0  0  0  0  0  0
  -26.4530  -31.5550   25.1080 C   0  0  1  0  0  0  0  0  0  0  0  0
  -25.3580  -31.3150   26.1730 C   0  0  0  0  0  1  0  0  0  0  0  0
  -27.0180  -30.1770   24.6940 C   0  0  0  0  0  1  0  0  0  0  0  0
  -27.6140  -32.3240   25.7800 C   0  0  0  0  0  1  0  0  0  0  0  0
  -25.6660  -33.7540   24.1980 N   0  0  0  0  0  0  0  0  0  0  0  0
  -25.9750  -34.8120   23.4370 C   0  0  0  0  0  0  0  0  0  0  0  0
  -26.5930  -34.7110   22.3730 O   0  0  0  0  0  0  0  0  0  0  0  0
  -25.1130  -33.9070   25.0290 H   0  0  0  0  0  0  0  0  0  0  0  0
  -24.2400  -36.6200   23.2000 C   0  0  0  0  0  1  0  0  0  0  0  0
  -25.5270  -36.2020   23.9300 C   0  0  0  0  0  3  0  0  0  0  0  0
  -27.7080  -37.0770   24.6420 C   0  0  0  0  0  1  0  0  0  0  0  0
  -26.5570  -37.2480   23.7590 N   0  0  0  0  0  0  0  0  0  0  0  0
  -26.1660  -38.1710   23.9230 H   0  0  0  0  0  0  0  0  0  0  0  0
  2  1  2  0
  3  5  2  0
  4  6  2  0
  4  3  1  0
  5  1  1  0
  5 50  1  0
  6  2  1  0
  7  4  1  0
  8 16  1  0
  9 14  1  0
 10 11  1  0
 10  9  1  0
 12 11  1  0
 12 21  1  0
 12 13  1  0
 14  8  1  0
 14 13  1  0
 15  8  2  0
 16 17  1  0
 16  6  1  0
 18 19  2  0
 19 38  1  0
 20 19  1  0
 20 23  1  0
 21 22  1  0
 21 18  1  0
 22 20  2  0
 23 24  1  0
 24 25  2  0
 26 29  1  0
 26 25  1  0
 27 26  2  0
 28 27  1  0
 28 23  2  0
 29 30  1  0
 30 31  1  0
 31 32  2  0
 33 32  1  0
 33 37  1  0
 34 33  2  0
 35 30  2  0
 35 34  1  0
 36 35  1  0
 38 39  1  0
 39 42  1  0
 39 41  1  0
 40 38  2  0
 43 44  1  0
 43 18  1  0
 45 43  1  0
 46 47  1  0
 48 46  1  0
 49 47  1  0
 50 48  1  0
 50 49  1  0
 51 55  1  0
 51  3  1  0
 52 54  1  0
 52 55  1  0
 54 57  1  0
 54 53  1  0
 55 56  1  1
 55 53  1  0
 58 69  2  0
 59 57  1  0
 59 64  1  0
 60 68  1  0
 60 70  1  0
 61 67  1  0
 61 63  1  0
 62 68  1  0
 63 64  2  0
 63 62  1  0
 65 59  2  0
 66 65  1  0
 66 61  2  0
 67 60  1  0
 68 58  1  0
 70 72  2  0
 71 70  1  0
 73 71  1  0
 74 83  2  0
 74 79  1  0
 75 71  1  0
 75 79  1  0
 76 75  1  0
 77 78  1  0
 77 76  1  0
 78 74  1  0
 79 80  2  0
 80 81  1  0
 82 81  2  0
 83 82  1  0
 84 58  1  0
 84 89  1  0
 84 85  1  0
 85 88  1  1
 85 86  1  0
 87 85  1  0
 89 92  1  0
 90 94  1  0
 90 89  1  0
 91 90  2  0
 94 93  1  0
 96 97  1  0
 96 94  1  0
 96 95  1  0
M  ISO  4   8 100  16 100  54 101  57 101
M  END
>  <TORSDO>  (56) 
F 19

>  <SCORE>  (56) 
-13.746

>  <name>  (56) 
56

>  <ligand_id>  (56) 
56

>  <original_smiles>  (56) 
[H]c1c([H])c([H])c2c(c1[H])C([H])([H])C([H])([H])C([H])([H])C2([H])N([H])C(=O)C1([H])N(C(=O)C([H])(N([H])C(=O)C([H])(N([H])C([H])([H])[H])C([H])([H])[H])C(C([H])([H])[H])(C([H])([H])[H])C([H])([H])[H])C([H])([H])c2c([H])c(OC3([H])C([H])([H])[N+]([H])(C([H])([H])c4c(N5C([H])([H])C([H])([H])C([H])([H])C5([H])[H])c([H])c([H])c(N([H])C(=O)N5C([H])([H])C([H])([H])C([H])([H])C([H])(n6nc(-c7c([H])c([H])c(Oc8c([H])c([H])c(F)c([H])c8F)c([H])c7[H])c(C(=O)N([H])[H])c6N([H])[H])C5([H])[H])c4C([H])([H])[H])C3([H])[H])c([H])c([H])c2C1([H])[H]

>  <smiles>  (56) 
[H]c1c([H])c([H])c2c(c1[H])C([H])([H])C([H])([H])C([H])([H])C2([H])N([H])C(=O)C1([H])N(C(=O)C([H])(N([H])C(=O)C([H])(N([H])C([H])([H])[H])C([H])([H])[H])C(C([H])([H])[H])(C([H])([H])[H])C([H])([H])[H])C([H])([H])c2c([H])c(OC3([H])C([H])([H])[N+]([H])(C([H])([H])c4c(N5C([H])([H])C([H])([H])C([H])([H])C5([H])[H])c([H])c([H])c(N([H])C(=O)N5C([H])([H])C([H])([H])C([H])([H])C([H])(n6nc(-c7c([H])c([H])c(Oc8c([H])c([H])c(F)c([H])c8F)c([H])c7[H])c(C(=O)N([H])[H])c6N([H])[H])C5([H])[H])c4C([H])([H])[H])C3([H])[H])c([H])c([H])c2C1([H])[H]

$$$$
57:0:0
     RDKit          3D

 91 99  0  0  1  0  0  0  0  0999 V2000
  -29.1430  -23.4200   20.0260 C   0  0  0  0  0  0  0  0  0  0  0  0
  -28.7080  -22.0890   19.8110 N   0  0  0  0  0  0  0  0  0  0  0  0
  -30.2410  -23.6400   20.5460 O   0  0  0  0  0  0  0  0  0  0  0  0
  -27.7670  -22.1200   19.4410 H   0  0  0  0  0  0  0  0  0  0  0  0
  -30.7810  -18.6320   20.1680 C   0  0  0  0  0  3  0  0  0  0  0  0
  -30.4890  -20.0690   20.0940 C   0  0  0  0  0  3  0  0  0  0  0  0
  -28.4720  -18.1800   20.1090 C   0  0  0  0  0  3  0  0  0  0  0  0
  -28.1720  -19.5930   20.0280 C   0  0  0  0  0  0  0  0  0  0  0  0
  -29.7750  -17.5980   20.1750 C   0  0  0  0  0  0  0  0  0  0  0  0
  -29.1610  -20.6350   20.0120 C   0  0  0  0  0  0  0  0  0  0  0  0
  -26.7020  -19.9760   19.9490 C   0  0  0  0  0  1  0  0  0  0  0  0
  -30.7210  -14.9910   19.8970 C   0  0  0  0  0  0  0  0  0  0  0  0
  -30.5690  -12.6710   18.8890 C   0  0  0  0  0  2  0  0  0  0  0  0
  -29.5390  -12.6790   17.7340 C   0  0  0  0  0  2  0  0  0  0  0  0
  -28.1090  -12.4580   18.2650 C   0  0  0  0  0  2  0  0  0  0  0  0
  -27.7960  -13.3410   19.5000 C   0  0  0  0  0  3  0  0  0  0  0  0
  -28.9310  -13.2850   20.5450 C   0  0  0  0  0  2  0  0  0  0  0  0
  -30.1670  -13.7150   19.8700 N   0  0  0  0  0  0  0  0  0  0  0  0
  -31.8820  -15.1340   19.4940 O   0  0  0  0  0  0  0  0  0  0  0  0
  -29.8690  -16.0690   20.2260 N   0  0  0  0  0  0  0  0  0  0  0  0
  -29.0000  -15.6690   20.5460 H   0  0  0  0  0  0  0  0  0  0  0  0
  -25.4830  -13.9090   20.4480 C   0  0  0  0  0  0  0  0  0  0  0  0
  -24.4410  -13.1260   20.8620 C   0  0  0  0  0  0  0  0  0  0  0  0
  -24.8840  -11.7740   20.7250 C   0  0  0  0  0  0  0  0  0  0  0  0
  -26.4930  -13.0340   20.0830 N   0  0  0  0  0  0  0  0  0  0  0  0
  -26.1460  -11.7410   20.3130 N   0  0  0  0  0  0  0  0  0  0  0  0
  -24.1580  -10.5090   20.9060 C   0  0  0  0  0  0  0  0  0  0  0  0
  -24.5550   -9.5610   21.8740 C   0  0  0  0  0  3  0  0  0  0  0  0
  -23.8270   -8.3620   22.0420 C   0  0  0  0  0  3  0  0  0  0  0  0
  -22.6910   -8.1030   21.2400 C   0  0  0  0  0  0  0  0  0  0  0  0
  -22.3140   -9.0400   20.2610 C   0  0  0  0  0  3  0  0  0  0  0  0
  -23.0420  -10.2290   20.0920 C   0  0  0  0  0  3  0  0  0  0  0  0
  -21.9420   -6.9530   21.3140 O   0  0  0  0  0  0  0  0  0  0  0  0
  -21.7050   -6.3250   22.5100 C   0  0  0  0  0  0  0  0  0  0  0  0
  -21.0450   -6.9740   23.5760 C   0  0  0  0  0  3  0  0  0  0  0  0
  -20.7600   -6.2690   24.7630 C   0  0  0  0  0  3  0  0  0  0  0  0
  -21.1240   -4.9140   24.8820 C   0  0  0  0  0  0  0  0  0  0  0  0
  -21.7760   -4.2640   23.8200 C   0  0  0  0  0  3  0  0  0  0  0  0
  -22.0620   -4.9660   22.6360 C   0  0  0  0  0  0  0  0  0  0  0  0
  -22.6710   -4.3290   21.6070 F   0  0  0  0  0  0  0  0  0  0  0  0
  -20.8440   -4.2340   26.0180 F   0  0  0  0  0  0  0  0  0  0  0  0
  -23.0730  -13.6000   21.2610 C   0  0  0  0  0  0  0  0  0  0  0  0
  -22.4120  -12.8800   22.1600 N   0  0  0  0  0  0  0  0  0  0  0  0
  -22.6020  -14.6430   20.8100 O   0  0  0  0  0  0  0  0  0  0  0  0
  -22.8070  -12.0350   22.5460 H   0  0  0  0  0  0  0  0  0  0  0  0
  -21.4990  -13.1800   22.4710 H   0  0  0  0  0  0  0  0  0  0  0  0
  -25.6490  -15.2850   20.3250 N   0  0  0  0  0  0  0  0  0  0  0  0
  -24.8910  -15.9320   20.5150 H   0  0  0  0  0  0  0  0  0  0  0  0
  -26.4340  -15.7250   19.8640 H   0  0  0  0  0  0  0  0  0  0  0  0
  -28.2030  -24.7110   19.5760 C   0  0  0  0  0  2  0  0  0  0  0  0
  -28.4740  -26.2070   19.9230 O   0  0  0  0  0  0  0  0  0  0  0  0
  -24.5850  -31.6280   23.0850 C   0  0  0  0  0  0  0  0  0  0  0  0
  -27.3870  -27.1590   19.8860 C   0  0  0  0  0  0  0  0  0  0  0  0
  -23.4600  -30.2560   21.3750 C   0  0  0  0  0  3  0  0  0  0  0  0
  -24.9870  -28.8070   19.9040 C   0  0  0  0  0  0  0  0  0  0  0  0
  -26.0040  -30.6310   21.2540 C   0  0  0  0  0  2  0  0  0  0  0  0
  -26.1410  -29.2730   20.5440 C   0  0  0  0  0  0  0  0  0  0  0  0
  -27.3420  -28.4670   20.5200 C   0  0  0  0  0  3  0  0  0  0  0  0
  -26.1980  -26.7990   19.2100 C   0  0  0  0  0  3  0  0  0  0  0  0
  -25.0270  -27.5840   19.2220 C   0  0  0  0  0  3  0  0  0  0  0  0
  -23.7230  -29.6500   19.9720 C   0  0  0  0  0  2  0  0  0  0  0  0
  -24.7010  -30.8600   21.9600 N   0  0  0  0  0  0  0  0  0  0  0  0
  -23.4830  -31.8470   23.6110 O   0  0  0  0  0  0  0  0  0  0  0  0
  -22.8140  -29.1810   22.2860 C   0  0  0  0  0  0  0  0  0  0  0  0
  -21.4930  -28.9710   22.1450 N   0  0  0  0  0  0  0  0  0  0  0  0
  -23.5030  -28.5420   23.0840 O   0  0  0  0  0  0  0  0  0  0  0  0
  -20.9910  -29.5420   21.4790 H   0  0  0  0  0  0  0  0  0  0  0  0
  -18.1410  -27.6830   22.6330 C   0  0  0  0  0  0  0  0  0  0  0  0
  -20.7010  -27.9730   22.8710 C   0  0  0  0  0  3  0  0  0  0  0  0
  -20.8140  -26.5810   22.2060 C   0  0  0  0  0  2  0  0  0  0  0  0
  -19.6990  -26.3040   21.1930 C   0  0  0  0  0  2  0  0  0  0  0  0
  -18.3280  -26.3820   21.8700 C   0  0  0  0  0  2  0  0  0  0  0  0
  -19.2550  -28.4370   23.0900 C   0  0  0  0  0  0  0  0  0  0  0  0
  -19.0250  -29.6540   23.7670 C   0  0  0  0  0  3  0  0  0  0  0  0
  -17.7140  -30.1170   23.9910 C   0  0  0  0  0  3  0  0  0  0  0  0
  -16.6160  -29.3600   23.5470 C   0  0  0  0  0  3  0  0  0  0  0  0
  -16.8310  -28.1440   22.8740 C   0  0  0  0  0  3  0  0  0  0  0  0
  -25.8300  -32.2890   23.7520 C   0  0  0  0  0  3  0  0  0  0  0  0
  -25.4770  -33.6780   24.0830 N   0  0  0  0  0  0  0  0  0  0  0  0
  -25.7750  -34.7430   23.3270 C   0  0  0  0  0  0  0  0  0  0  0  0
  -26.4440  -34.6610   22.2930 O   0  0  0  0  0  0  0  0  0  0  0  0
  -24.8810  -33.8130   24.8870 H   0  0  0  0  0  0  0  0  0  0  0  0
  -23.9780  -36.4770   23.0060 C   0  0  0  0  0  1  0  0  0  0  0  0
  -25.2500  -36.1170   23.7900 C   0  0  0  0  0  3  0  0  0  0  0  0
  -27.3620  -37.0910   24.5790 C   0  0  0  0  0  1  0  0  0  0  0  0
  -26.2440  -37.2040   23.6470 N   0  0  0  0  0  0  0  0  0  0  0  0
  -25.8060  -38.1120   23.7850 H   0  0  0  0  0  0  0  0  0  0  0  0
  -26.3190  -31.5230   25.0440 C   0  0  1  0  0  0  0  0  0  0  0  0
  -25.1960  -31.2590   26.0750 C   0  0  0  0  0  1  0  0  0  0  0  0
  -26.9440  -30.1590   24.6730 C   0  0  0  0  0  1  0  0  0  0  0  0
  -27.4290  -32.3400   25.7470 C   0  0  0  0  0  1  0  0  0  0  0  0
  1  3  2  0
  2 10  1  0
  2  1  1  0
  4  2  1  0
  5  9  1  0
  6  5  2  0
  7  9  2  0
  8  7  1  0
  9 20  1  0
 10  8  2  0
 10  6  1  0
 11  8  1  0
 12 20  1  0
 13 18  1  0
 14 15  1  0
 14 13  1  0
 16 15  1  0
 16 25  1  0
 16 17  1  0
 18 12  1  0
 18 17  1  0
 19 12  2  0
 20 21  1  0
 22 23  2  0
 23 42  1  0
 24 23  1  0
 24 27  1  0
 25 26  1  0
 25 22  1  0
 26 24  2  0
 27 28  1  0
 28 29  2  0
 30 33  1  0
 30 29  1  0
 31 30  2  0
 32 31  1  0
 32 27  2  0
 33 34  1  0
 34 39  2  0
 34 35  1  0
 35 36  2  0
 36 37  1  0
 37 41  1  0
 38 37  2  0
 39 38  1  0
 40 39  1  0
 42 43  1  0
 43 46  1  0
 43 45  1  0
 44 42  2  0
 47 22  1  0
 47 48  1  0
 49 47  1  0
 50 51  1  0
 50  1  1  0
 52 63  2  0
 53 51  1  0
 53 58  1  0
 54 62  1  0
 54 64  1  0
 55 61  1  0
 55 57  1  0
 56 62  1  0
 57 56  1  0
 58 57  2  0
 59 60  1  0
 59 53  2  0
 60 55  2  0
 61 54  1  0
 62 52  1  0
 64 66  2  0
 65 64  1  0
 67 65  1  0
 68 77  2  0
 68 73  1  0
 69 65  1  0
 69 73  1  0
 70 69  1  0
 71 72  1  0
 71 70  1  0
 72 68  1  0
 73 74  2  0
 74 75  1  0
 76 75  2  0
 77 76  1  0
 78 52  1  0
 78 79  1  0
 78 88  1  0
 79 82  1  0
 80 84  1  0
 80 79  1  0
 81 80  2  0
 84 83  1  0
 86 87  1  0
 86 84  1  0
 86 85  1  0
 88 91  1  1
 88 89  1  0
 90 88  1  0
M  ISO  4  12 100  20 100  50 101  51 101
M  END
>  <TORSDO>  (57) 
F 18

>  <SCORE>  (57) 
-12.932

>  <name>  (57) 
57

>  <ligand_id>  (57) 
57

>  <original_smiles>  (57) 
[H]c1c([H])c([H])c2c(c1[H])C([H])([H])C([H])([H])C([H])([H])C2([H])N([H])C(=O)C1([H])N(C(=O)C([H])(N([H])C(=O)C([H])(N([H])C([H])([H])[H])C([H])([H])[H])C(C([H])([H])[H])(C([H])([H])[H])C([H])([H])[H])C([H])([H])c2c([H])c(OC([H])([H])C(=O)N([H])c3c([H])c([H])c(N([H])C(=O)N4C([H])([H])C([H])([H])C([H])([H])C([H])(n5nc(-c6c([H])c([H])c(Oc7c([H])c([H])c(F)c([H])c7F)c([H])c6[H])c(C(=O)N([H])[H])c5N([H])[H])C4([H])[H])c([H])c3C([H])([H])[H])c([H])c([H])c2C1([H])[H]

>  <smiles>  (57) 
[H]c1c([H])c([H])c2c(c1[H])C([H])([H])C([H])([H])C([H])([H])C2([H])N([H])C(=O)C1([H])N(C(=O)C([H])(N([H])C(=O)C([H])(N([H])C([H])([H])[H])C([H])([H])[H])C(C([H])([H])[H])(C([H])([H])[H])C([H])([H])[H])C([H])([H])c2c([H])c(OC([H])([H])C(=O)N([H])c3c([H])c([H])c(N([H])C(=O)N4C([H])([H])C([H])([H])C([H])([H])C([H])(n5nc(-c6c([H])c([H])c(Oc7c([H])c([H])c(F)c([H])c7F)c([H])c6[H])c(C(=O)N([H])[H])c5N([H])[H])C4([H])[H])c([H])c3C([H])([H])[H])c([H])c([H])c2C1([H])[H]

$$$$
58:0:0
     RDKit          3D

 95104  0  0  1  0  0  0  0  0999 V2000
  -28.5750  -23.0050   20.2870 C   0  0  0  0  0  0  0  0  0  0  0  0
  -26.7670  -22.3380   18.1090 C   0  0  0  0  0  2  0  0  0  0  0  0
  -27.3890  -23.7280   18.1060 C   0  0  0  0  0  2  0  0  0  0  0  0
  -27.8160  -21.3400   18.6020 C   0  0  0  0  0  2  0  0  0  0  0  0
  -27.8620  -24.1740   19.5100 C   0  0  0  0  0  3  0  0  0  0  0  0
  -28.3520  -21.7000   19.9210 N   0  0  0  0  0  0  0  0  0  0  0  0
  -29.2420  -23.2850   21.2880 O   0  0  0  0  0  0  0  0  0  0  0  0
  -28.5560  -20.5190   20.8090 C   0  0  0  0  0  2  0  0  0  0  0  0
  -31.7320  -18.9110   19.3610 C   0  0  0  0  0  3  0  0  0  0  0  0
  -30.7680  -19.8580   19.7410 C   0  0  0  0  0  3  0  0  0  0  0  0
  -31.5170  -17.5370   19.5820 C   0  0  0  0  0  3  0  0  0  0  0  0
  -29.5660  -19.4440   20.3480 C   0  0  0  0  0  0  0  0  0  0  0  0
  -30.3210  -17.0670   20.1910 C   0  0  0  0  0  0  0  0  0  0  0  0
  -29.3520  -18.0460   20.5650 C   0  0  0  0  0  0  0  0  0  0  0  0
  -28.2000  -17.6270   21.1430 F   0  0  0  0  0  0  0  0  0  0  0  0
  -30.7240  -14.5550   20.0390 C   0  0  0  0  0  0  0  0  0  0  0  0
  -30.3360  -12.3880   18.9290 C   0  0  0  0  0  2  0  0  0  0  0  0
  -29.3440  -12.6160   17.7700 C   0  0  0  0  0  2  0  0  0  0  0  0
  -27.8960  -12.4680   18.2760 C   0  0  0  0  0  2  0  0  0  0  0  0
  -27.6220  -13.2910   19.5630 C   0  0  0  0  0  3  0  0  0  0  0  0
  -28.7380  -13.0870   20.6130 C   0  0  0  0  0  2  0  0  0  0  0  0
  -30.0260  -13.3840   19.9700 N   0  0  0  0  0  0  0  0  0  0  0  0
  -31.8740  -14.6300   19.6070 O   0  0  0  0  0  0  0  0  0  0  0  0
  -30.0340  -15.6610   20.4310 N   0  0  0  0  0  0  0  0  0  0  0  0
  -29.1260  -15.4830   20.8320 H   0  0  0  0  0  0  0  0  0  0  0  0
  -25.2690  -13.8790   20.4190 C   0  0  0  0  0  0  0  0  0  0  0  0
  -24.2210  -13.1010   20.8280 C   0  0  0  0  0  0  0  0  0  0  0  0
  -24.6780  -11.7490   20.7460 C   0  0  0  0  0  0  0  0  0  0  0  0
  -26.2980  -13.0040   20.1130 N   0  0  0  0  0  0  0  0  0  0  0  0
  -25.9490  -11.7160   20.3690 N   0  0  0  0  0  0  0  0  0  0  0  0
  -23.9580  -10.4840   20.9490 C   0  0  0  0  0  0  0  0  0  0  0  0
  -24.4080   -9.5180   21.8770 C   0  0  0  0  0  3  0  0  0  0  0  0
  -23.6880   -8.3200   22.0700 C   0  0  0  0  0  3  0  0  0  0  0  0
  -22.5040   -8.0770   21.3330 C   0  0  0  0  0  0  0  0  0  0  0  0
  -22.0730   -9.0300   20.3930 C   0  0  0  0  0  3  0  0  0  0  0  0
  -22.7940  -10.2200   20.2000 C   0  0  0  0  0  3  0  0  0  0  0  0
  -21.7570   -6.9290   21.4330 O   0  0  0  0  0  0  0  0  0  0  0  0
  -21.6940   -6.2090   22.5990 C   0  0  0  0  0  0  0  0  0  0  0  0
  -21.2470   -6.7860   23.8080 C   0  0  0  0  0  3  0  0  0  0  0  0
  -21.1340   -5.9920   24.9660 C   0  0  0  0  0  3  0  0  0  0  0  0
  -21.4560   -4.6240   24.9170 C   0  0  0  0  0  0  0  0  0  0  0  0
  -21.8990   -4.0460   23.7130 C   0  0  0  0  0  3  0  0  0  0  0  0
  -22.0140   -4.8370   22.5570 C   0  0  0  0  0  0  0  0  0  0  0  0
  -22.4200   -4.2720   21.3950 F   0  0  0  0  0  0  0  0  0  0  0  0
  -21.3400   -3.8590   26.0290 F   0  0  0  0  0  0  0  0  0  0  0  0
  -22.8400  -13.5740   21.1800 C   0  0  0  0  0  0  0  0  0  0  0  0
  -22.1570  -12.8630   22.0710 N   0  0  0  0  0  0  0  0  0  0  0  0
  -22.3780  -14.6100   20.7020 O   0  0  0  0  0  0  0  0  0  0  0  0
  -22.5470  -12.0310   22.4860 H   0  0  0  0  0  0  0  0  0  0  0  0
  -21.2320  -13.1610   22.3460 H   0  0  0  0  0  0  0  0  0  0  0  0
  -25.4250  -15.2530   20.2650 N   0  0  0  0  0  0  0  0  0  0  0  0
  -24.6650  -15.9000   20.4450 H   0  0  0  0  0  0  0  0  0  0  0  0
  -26.2630  -15.7140   19.9380 H   0  0  0  0  0  0  0  0  0  0  0  0
  -28.6380  -25.5410   19.3540 C   0  0  0  0  0  2  0  0  0  0  0  0
  -28.3800  -26.6600   20.2360 O   0  0  0  0  0  0  0  0  0  0  0  0
  -24.5780  -31.8940   23.2210 C   0  0  0  0  0  0  0  0  0  0  0  0
  -27.2210  -27.4180   20.1450 C   0  0  0  0  0  0  0  0  0  0  0  0
  -23.3770  -30.4950   21.5740 C   0  0  0  0  0  3  0  0  0  0  0  0
  -24.8330  -28.9630   20.1420 C   0  0  0  0  0  0  0  0  0  0  0  0
  -25.9070  -30.8400   21.3920 C   0  0  0  0  0  2  0  0  0  0  0  0
  -25.9900  -29.4690   20.7470 C   0  0  0  0  0  0  0  0  0  0  0  0
  -27.1780  -28.6970   20.7570 C   0  0  0  0  0  3  0  0  0  0  0  0
  -26.0480  -26.9510   19.5120 C   0  0  0  0  0  3  0  0  0  0  0  0
  -24.8580  -27.7040   19.5220 C   0  0  0  0  0  3  0  0  0  0  0  0
  -23.5890  -29.8220   20.1910 C   0  0  0  0  0  2  0  0  0  0  0  0
  -24.6380  -31.0920   22.1190 N   0  0  0  0  0  0  0  0  0  0  0  0
  -23.4950  -32.1670   23.7570 O   0  0  0  0  0  0  0  0  0  0  0  0
  -22.7240  -29.4710   22.5290 C   0  0  0  0  0  0  0  0  0  0  0  0
  -21.4000  -29.2880   22.3980 N   0  0  0  0  0  0  0  0  0  0  0  0
  -23.4050  -28.8460   23.3470 O   0  0  0  0  0  0  0  0  0  0  0  0
  -20.9120  -29.8460   21.7100 H   0  0  0  0  0  0  0  0  0  0  0  0
  -18.0240  -28.0980   22.8900 C   0  0  0  0  0  0  0  0  0  0  0  0
  -20.5820  -28.3490   23.1640 C   0  0  0  0  0  3  0  0  0  0  0  0
  -20.6800  -26.9200   22.5810 C   0  0  0  0  0  2  0  0  0  0  0  0
  -19.5790  -26.6060   21.5640 C   0  0  0  0  0  2  0  0  0  0  0  0
  -18.1980  -26.7500   22.2080 C   0  0  0  0  0  2  0  0  0  0  0  0
  -19.1440  -28.8550   23.3230 C   0  0  0  0  0  0  0  0  0  0  0  0
  -18.9290  -30.1160   23.9200 C   0  0  0  0  0  3  0  0  0  0  0  0
  -17.6260  -30.6200   24.0870 C   0  0  0  0  0  3  0  0  0  0  0  0
  -16.5200  -29.8610   23.6690 C   0  0  0  0  0  3  0  0  0  0  0  0
  -16.7190  -28.6020   23.0770 C   0  0  0  0  0  3  0  0  0  0  0  0
  -25.8620  -32.5240   23.8440 C   0  0  0  0  0  3  0  0  0  0  0  0
  -26.3770  -31.7540   25.1220 C   0  0  1  0  0  0  0  0  0  0  0  0
  -25.2830  -31.5150   26.1870 C   0  0  0  0  0  1  0  0  0  0  0  0
  -26.9610  -30.3760   24.7290 C   0  0  0  0  0  1  0  0  0  0  0  0
  -27.5260  -32.5490   25.7850 C   0  0  0  0  0  1  0  0  0  0  0  0
  -25.5550  -33.9230   24.1700 N   0  0  0  0  0  0  0  0  0  0  0  0
  -25.8980  -34.9730   23.4130 C   0  0  0  0  0  0  0  0  0  0  0  0
  -26.5790  -34.8680   22.3890 O   0  0  0  0  0  0  0  0  0  0  0  0
  -24.9490  -34.0810   24.9620 H   0  0  0  0  0  0  0  0  0  0  0  0
  -24.1810  -36.7700   23.0340 C   0  0  0  0  0  1  0  0  0  0  0  0
  -25.4080  -36.3630   23.8630 C   0  0  0  0  0  3  0  0  0  0  0  0
  -27.5340  -37.2380   24.7280 C   0  0  0  0  0  1  0  0  0  0  0  0
  -26.4460  -37.4120   23.7680 N   0  0  0  0  0  0  0  0  0  0  0  0
  -26.0410  -38.3330   23.9140 H   0  0  0  0  0  0  0  0  0  0  0  0
  1  7  2  0
  2  4  1  0
  3  2  1  0
  3  5  1  0
  4  6  1  0
  5 54  1  0
  5  1  1  0
  6  1  1  0
  6  8  1  0
  9 11  2  0
  9 10  1  0
 10 12  2  0
 11 13  1  0
 12 14  1  0
 12  8  1  0
 13 24  1  0
 13 14  2  0
 14 15  1  0
 16 24  1  0
 17 22  1  0
 18 19  1  0
 18 17  1  0
 20 19  1  0
 20 29  1  0
 20 21  1  0
 22 16  1  0
 22 21  1  0
 23 16  2  0
 24 25  1  0
 26 27  2  0
 27 46  1  0
 28 27  1  0
 28 31  1  0
 29 30  1  0
 29 26  1  0
 30 28  2  0
 31 32  1  0
 32 33  2  0
 34 37  1  0
 34 33  1  0
 35 34  2  0
 36 35  1  0
 36 31  2  0
 37 38  1  0
 38 39  1  0
 39 40  2  0
 41 40  1  0
 41 45  1  0
 42 41  2  0
 43 38  2  0
 43 42  1  0
 44 43  1  0
 46 47  1  0
 47 50  1  0
 47 49  1  0
 48 46  2  0
 51 26  1  0
 51 52  1  0
 53 51  1  0
 54 55  1  0
 56 67  2  0
 57 55  1  0
 57 62  1  0
 58 66  1  0
 58 68  1  0
 59 65  1  0
 59 61  1  0
 60 66  1  0
 61 62  2  0
 61 60  1  0
 63 64  1  0
 63 57  2  0
 64 59  2  0
 65 58  1  0
 66 56  1  0
 68 70  2  0
 69 68  1  0
 71 69  1  0
 72 81  2  0
 72 77  1  0
 73 69  1  0
 73 77  1  0
 74 73  1  0
 75 76  1  0
 75 74  1  0
 76 72  1  0
 77 78  2  0
 78 79  1  0
 80 79  2  0
 81 80  1  0
 82 56  1  0
 82 87  1  0
 82 83  1  0
 83 86  1  1
 83 84  1  0
 85 83  1  0
 87 90  1  0
 88 92  1  0
 88 87  1  0
 89 88  2  0
 92 91  1  0
 94 92  1  0
 94 95  1  0
 94 93  1  0
M  ISO  4  16 100  24 100  54 101  55 101
M  END
>  <TORSDO>  (58) 
F 19

>  <SCORE>  (58) 
-14.445

>  <name>  (58) 
58

>  <ligand_id>  (58) 
58

>  <original_smiles>  (58) 
[H]c1c([H])c(N([H])C(=O)N2C([H])([H])C([H])([H])C([H])([H])C([H])(n3nc(-c4c([H])c([H])c(Oc5c([H])c([H])c(F)c([H])c5F)c([H])c4[H])c(C(=O)N([H])[H])c3N([H])[H])C2([H])[H])c(F)c(C([H])([H])N2C(=O)C([H])(C([H])([H])Oc3c([H])c([H])c4c(c3[H])C([H])([H])N(C(=O)C([H])(N([H])C(=O)C([H])(N([H])C([H])([H])[H])C([H])([H])[H])C(C([H])([H])[H])(C([H])([H])[H])C([H])([H])[H])C([H])(C(=O)N([H])C3([H])c5c([H])c([H])c([H])c([H])c5C([H])([H])C([H])([H])C3([H])[H])C4([H])[H])C([H])([H])C([H])([H])C2([H])[H])c1[H]

>  <smiles>  (58) 
[H]c1c([H])c(N([H])C(=O)N2C([H])([H])C([H])([H])C([H])([H])C([H])(n3nc(-c4c([H])c([H])c(Oc5c([H])c([H])c(F)c([H])c5F)c([H])c4[H])c(C(=O)N([H])[H])c3N([H])[H])C2([H])[H])c(F)c(C([H])([H])N2C(=O)C([H])(C([H])([H])Oc3c([H])c([H])c4c(c3[H])C([H])([H])N(C(=O)C([H])(N([H])C(=O)C([H])(N([H])C([H])([H])[H])C([H])([H])[H])C(C([H])([H])[H])(C([H])([H])[H])C([H])([H])[H])C([H])(C(=O)N([H])C3([H])c5c([H])c([H])c([H])c([H])c5C([H])([H])C([H])([H])C3([H])[H])C4([H])[H])C([H])([H])C([H])([H])C2([H])[H])c1[H]

$$$$
59:0:0
     RDKit          3D

 96105  0  0  1  0  0  0  0  0999 V2000
  -28.6560  -20.1790   20.8950 C   0  0  0  0  0  3  0  0  0  0  0  0
  -31.0440  -18.7300   21.2320 C   0  0  0  0  0  0  0  0  0  0  0  0
  -29.8120  -18.0280   21.1370 C   0  0  0  0  0  0  0  0  0  0  0  0
  -29.8750  -20.8950   20.9410 C   0  0  0  0  0  0  0  0  0  0  0  0
  -28.6230  -18.7750   20.9860 C   0  0  0  0  0  0  0  0  0  0  0  0
  -31.0710  -20.1440   21.1200 C   0  0  0  0  0  0  0  0  0  0  0  0
  -32.3550  -17.9790   21.4250 C   0  0  0  0  0  1  0  0  0  0  0  0
  -27.4270  -18.1430   20.9090 F   0  0  0  0  0  0  0  0  0  0  0  0
  -32.2730  -20.7680   21.1740 F   0  0  0  0  0  0  0  0  0  0  0  0
  -30.4990  -24.6070   20.8270 C   0  0  0  0  0  2  0  0  0  0  0  0
  -31.0430  -23.1710   20.8080 C   0  0  0  0  0  2  0  0  0  0  0  0
  -28.6540  -23.0890   20.5740 C   0  0  0  0  0  2  0  0  0  0  0  0
  -29.1170  -24.5010   20.1700 C   0  0  0  0  0  3  0  0  0  0  0  0
  -29.8660  -22.3120   20.8070 N   0  0  0  0  0  0  0  0  0  0  0  0
  -28.1020  -25.5880   20.5800 C   0  0  0  0  0  2  0  0  0  0  0  0
  -28.2580  -26.8330   19.8780 O   0  0  0  0  0  0  0  0  0  0  0  0
  -24.5420  -31.9200   23.1750 C   0  0  0  0  0  0  0  0  0  0  0  0
  -27.1110  -27.5940   19.8940 C   0  0  0  0  0  0  0  0  0  0  0  0
  -23.2930  -30.5560   21.5330 C   0  0  0  0  0  3  0  0  0  0  0  0
  -24.7100  -29.0760   20.0160 C   0  0  0  0  0  0  0  0  0  0  0  0
  -25.8080  -30.9430   21.2640 C   0  0  0  0  0  2  0  0  0  0  0  0
  -25.8830  -29.5930   20.5830 C   0  0  0  0  0  0  0  0  0  0  0  0
  -27.0890  -28.8600   20.5190 C   0  0  0  0  0  3  0  0  0  0  0  0
  -25.9280  -27.0990   19.3030 C   0  0  0  0  0  3  0  0  0  0  0  0
  -24.7270  -27.8270   19.3720 C   0  0  0  0  0  3  0  0  0  0  0  0
  -23.4610  -29.9190   20.1280 C   0  0  0  0  0  2  0  0  0  0  0  0
  -24.5680  -31.1520   22.0500 N   0  0  0  0  0  0  0  0  0  0  0  0
  -23.4780  -32.1700   23.7560 O   0  0  0  0  0  0  0  0  0  0  0  0
  -22.6800  -29.5030   22.4840 C   0  0  0  0  0  0  0  0  0  0  0  0
  -21.3550  -29.3040   22.3810 N   0  0  0  0  0  0  0  0  0  0  0  0
  -23.3900  -28.8700   23.2700 O   0  0  0  0  0  0  0  0  0  0  0  0
  -20.8420  -29.8680   21.7190 H   0  0  0  0  0  0  0  0  0  0  0  0
  -18.0110  -28.0460   22.9180 C   0  0  0  0  0  0  0  0  0  0  0  0
  -20.5690  -28.3380   23.1480 C   0  0  0  0  0  3  0  0  0  0  0  0
  -20.6830  -26.9210   22.5420 C   0  0  0  0  0  2  0  0  0  0  0  0
  -19.5680  -26.6010   21.5410 C   0  0  0  0  0  2  0  0  0  0  0  0
  -18.1960  -26.7130   22.2140 C   0  0  0  0  0  2  0  0  0  0  0  0
  -19.1260  -28.8170   23.3430 C   0  0  0  0  0  0  0  0  0  0  0  0
  -18.8990  -30.0660   23.9610 C   0  0  0  0  0  3  0  0  0  0  0  0
  -17.5900  -30.5440   24.1590 C   0  0  0  0  0  3  0  0  0  0  0  0
  -16.4900  -29.7700   23.7510 C   0  0  0  0  0  3  0  0  0  0  0  0
  -16.7020  -28.5230   23.1360 C   0  0  0  0  0  3  0  0  0  0  0  0
  -25.8450  -32.5410   23.7700 C   0  0  0  0  0  3  0  0  0  0  0  0
  -26.4010  -31.7460   25.0150 C   0  0  1  0  0  0  0  0  0  0  0  0
  -25.3400  -31.4780   26.1060 C   0  0  0  0  0  1  0  0  0  0  0  0
  -26.9810  -30.3810   24.5750 C   0  0  0  0  0  1  0  0  0  0  0  0
  -27.5650  -32.5320   25.6630 C   0  0  0  0  0  1  0  0  0  0  0  0
  -25.5450  -33.9330   24.1330 N   0  0  0  0  0  0  0  0  0  0  0  0
  -25.8710  -34.9990   23.3900 C   0  0  0  0  0  0  0  0  0  0  0  0
  -26.5270  -34.9140   22.3480 O   0  0  0  0  0  0  0  0  0  0  0  0
  -24.9620  -34.0730   24.9450 H   0  0  0  0  0  0  0  0  0  0  0  0
  -24.1520  -36.8080   23.0780 C   0  0  0  0  0  1  0  0  0  0  0  0
  -25.3910  -36.3780   23.8800 C   0  0  0  0  0  3  0  0  0  0  0  0
  -27.5280  -37.2320   24.7340 C   0  0  0  0  0  1  0  0  0  0  0  0
  -26.4290  -37.4270   23.7920 N   0  0  0  0  0  0  0  0  0  0  0  0
  -26.0280  -38.3460   23.9600 H   0  0  0  0  0  0  0  0  0  0  0  0
  -29.7390  -16.4890   21.1510 C   0  0  0  0  0  2  0  0  0  0  0  0
  -30.9160  -14.6870   19.9680 C   0  0  0  0  0  0  0  0  0  0  0  0
  -30.5620  -12.5240   18.8710 C   0  0  0  0  0  2  0  0  0  0  0  0
  -29.5760  -12.7530   17.7070 C   0  0  0  0  0  2  0  0  0  0  0  0
  -28.1190  -12.6230   18.1950 C   0  0  0  0  0  2  0  0  0  0  0  0
  -27.8340  -13.4320   19.4920 C   0  0  0  0  0  3  0  0  0  0  0  0
  -28.9440  -13.2190   20.5460 C   0  0  0  0  0  2  0  0  0  0  0  0
  -30.2350  -13.5120   19.9060 N   0  0  0  0  0  0  0  0  0  0  0  0
  -32.0930  -14.7860   19.6110 O   0  0  0  0  0  0  0  0  0  0  0  0
  -30.1270  -15.7890   19.9040 N   0  0  0  0  0  0  0  0  0  0  0  0
  -25.4690  -14.0280   20.3030 C   0  0  0  0  0  0  0  0  0  0  0  0
  -24.4160  -13.2480   20.6990 C   0  0  0  0  0  0  0  0  0  0  0  0
  -24.8780  -11.8990   20.6320 C   0  0  0  0  0  0  0  0  0  0  0  0
  -26.5050  -13.1500   20.0230 N   0  0  0  0  0  0  0  0  0  0  0  0
  -26.1550  -11.8650   20.2770 N   0  0  0  0  0  0  0  0  0  0  0  0
  -24.1620  -10.6320   20.8310 C   0  0  0  0  0  0  0  0  0  0  0  0
  -24.5570   -9.7080   21.8230 C   0  0  0  0  0  3  0  0  0  0  0  0
  -23.8420   -8.5060   22.0070 C   0  0  0  0  0  3  0  0  0  0  0  0
  -22.7170   -8.2190   21.1990 C   0  0  0  0  0  0  0  0  0  0  0  0
  -22.3420   -9.1300   20.1950 C   0  0  0  0  0  3  0  0  0  0  0  0
  -23.0590  -10.3240   20.0100 C   0  0  0  0  0  3  0  0  0  0  0  0
  -21.9770   -7.0650   21.2890 O   0  0  0  0  0  0  0  0  0  0  0  0
  -21.7770   -6.4300   22.4880 C   0  0  0  0  0  0  0  0  0  0  0  0
  -21.1550   -7.0770   23.5790 C   0  0  0  0  0  3  0  0  0  0  0  0
  -20.9070   -6.3660   24.7700 C   0  0  0  0  0  3  0  0  0  0  0  0
  -21.2710   -5.0090   24.8710 C   0  0  0  0  0  0  0  0  0  0  0  0
  -21.8860   -4.3630   23.7840 C   0  0  0  0  0  3  0  0  0  0  0  0
  -22.1360   -5.0710   22.5950 C   0  0  0  0  0  0  0  0  0  0  0  0
  -22.7090   -4.4380   21.5440 F   0  0  0  0  0  0  0  0  0  0  0  0
  -21.0250   -4.3240   26.0110 F   0  0  0  0  0  0  0  0  0  0  0  0
  -23.0290  -13.7180   21.0330 C   0  0  0  0  0  0  0  0  0  0  0  0
  -22.3400  -13.0100   21.9190 N   0  0  0  0  0  0  0  0  0  0  0  0
  -22.5680  -14.7490   20.5440 O   0  0  0  0  0  0  0  0  0  0  0  0
  -22.7270  -12.1770   22.3360 H   0  0  0  0  0  0  0  0  0  0  0  0
  -21.4110  -13.3050   22.1860 H   0  0  0  0  0  0  0  0  0  0  0  0
  -25.6260  -15.4010   20.1400 N   0  0  0  0  0  0  0  0  0  0  0  0
  -24.8710  -16.0550   20.3120 H   0  0  0  0  0  0  0  0  0  0  0  0
  -26.4800  -15.8560   19.8450 H   0  0  0  0  0  0  0  0  0  0  0  0
  -28.7710  -16.9510   18.1300 C   0  0  0  0  0  1  0  0  0  0  0  0
  -30.1690  -16.5910   18.6570 C   0  0  0  0  0  2  0  0  0  0  0  0
  1  4  2  0
  1  5  1  0
  2  7  1  0
  3 57  1  0
  3  2  1  0
  4  6  1  0
  5  3  2  0
  6  9  1  0
  6  2  2  0
  8  5  1  0
 11 10  1  0
 12 14  1  0
 13 12  1  0
 13 15  1  0
 13 10  1  0
 14 11  1  0
 14  4  1  0
 16 18  1  0
 16 15  1  0
 17 28  2  0
 18 23  1  0
 19 27  1  0
 19 29  1  0
 20 26  1  0
 20 22  1  0
 21 27  1  0
 22 21  1  0
 23 22  2  0
 24 25  1  0
 24 18  2  0
 25 20  2  0
 26 19  1  0
 27 17  1  0
 29 31  2  0
 30 29  1  0
 32 30  1  0
 33 42  2  0
 33 38  1  0
 34 30  1  0
 34 38  1  0
 35 34  1  0
 36 37  1  0
 36 35  1  0
 37 33  1  0
 38 39  2  0
 39 40  1  0
 41 40  2  0
 42 41  1  0
 43 17  1  0
 43 48  1  0
 43 44  1  0
 44 47  1  1
 44 45  1  0
 46 44  1  0
 48 51  1  0
 49 53  1  0
 49 48  1  0
 50 49  2  0
 53 52  1  0
 55 53  1  0
 55 56  1  0
 55 54  1  0
 59 64  1  0
 60 61  1  0
 60 59  1  0
 62 61  1  0
 62 70  1  0
 62 63  1  0
 64 58  1  0
 64 63  1  0
 65 58  2  0
 66 58  1  0
 66 57  1  0
 67 68  2  0
 68 87  1  0
 69 68  1  0
 69 72  1  0
 70 71  1  0
 70 67  1  0
 71 69  2  0
 72 73  1  0
 73 74  2  0
 75 78  1  0
 75 74  1  0
 76 75  2  0
 77 76  1  0
 77 72  2  0
 78 79  1  0
 79 84  2  0
 79 80  1  0
 80 81  2  0
 81 82  1  0
 82 86  1  0
 83 82  2  0
 84 83  1  0
 85 84  1  0
 87 88  1  0
 88 91  1  0
 88 90  1  0
 89 87  2  0
 92 67  1  0
 92 93  1  0
 94 92  1  0
 95 96  1  0
 96 66  1  0
M  ISO  4  15 101  16 101  58 100  66 100
M  END
>  <TORSDO>  (59) 
F 20

>  <SCORE>  (59) 
-12.515

>  <name>  (59) 
59

>  <ligand_id>  (59) 
59

>  <original_smiles>  (59) 
[H]c1c([H])c([H])c2c(c1[H])C([H])([H])C([H])([H])C([H])([H])C2([H])N([H])C(=O)C1([H])N(C(=O)C([H])(N([H])C(=O)C([H])(N([H])C([H])([H])[H])C([H])([H])[H])C(C([H])([H])[H])(C([H])([H])[H])C([H])([H])[H])C([H])([H])c2c([H])c(OC([H])([H])C3([H])C([H])([H])N(c4c([H])c(F)c(C([H])([H])N(C(=O)N5C([H])([H])C([H])([H])C([H])([H])C([H])(n6nc(-c7c([H])c([H])c(Oc8c([H])c([H])c(F)c([H])c8F)c([H])c7[H])c(C(=O)N([H])[H])c6N([H])[H])C5([H])[H])C([H])([H])C([H])([H])[H])c(C([H])([H])[H])c4F)C([H])([H])C3([H])[H])c([H])c([H])c2C1([H])[H]

>  <smiles>  (59) 
[H]c1c([H])c([H])c2c(c1[H])C([H])([H])C([H])([H])C([H])([H])C2([H])N([H])C(=O)C1([H])N(C(=O)C([H])(N([H])C(=O)C([H])(N([H])C([H])([H])[H])C([H])([H])[H])C(C([H])([H])[H])(C([H])([H])[H])C([H])([H])[H])C([H])([H])c2c([H])c(OC([H])([H])C3([H])C([H])([H])N(c4c([H])c(F)c(C([H])([H])N(C(=O)N5C([H])([H])C([H])([H])C([H])([H])C([H])(n6nc(-c7c([H])c([H])c(Oc8c([H])c([H])c(F)c([H])c8F)c([H])c7[H])c(C(=O)N([H])[H])c6N([H])[H])C5([H])[H])C([H])([H])C([H])([H])[H])c(C([H])([H])[H])c4F)C([H])([H])C3([H])[H])c([H])c([H])c2C1([H])[H]

$$$$
60:0:0
     RDKit          3D

 94103  0  0  1  0  0  0  0  0999 V2000
  -28.0580  -25.3670   21.1500 C   0  0  0  0  0  0  0  0  0  0  0  0
  -29.5550  -22.2910   19.2090 C   0  0  0  0  0  2  0  0  0  0  0  0
  -28.4150  -21.5150   21.2180 C   0  0  0  0  0  2  0  0  0  0  0  0
  -29.5770  -23.7880   19.7200 C   0  0  0  0  0  2  0  0  0  0  0  0
  -28.5250  -22.9660   21.8040 C   0  0  0  0  0  2  0  0  0  0  0  0
  -29.5810  -21.1410   20.2830 C   0  0  0  0  0  3  0  0  0  0  0  0
  -28.6430  -24.0890   20.8260 N   0  0  0  0  0  0  0  0  0  0  0  0
  -27.3710  -25.5330   22.1640 O   0  0  0  0  0  0  0  0  0  0  0  0
  -29.7680  -18.4550   20.5410 C   0  0  0  0  0  3  0  0  0  0  0  0
  -29.4460  -19.4400   18.3410 C   0  0  0  0  0  3  0  0  0  0  0  0
  -29.7050  -17.0190   18.5690 C   0  0  0  0  0  3  0  0  0  0  0  0
  -29.5810  -19.6470   19.7350 C   0  0  0  0  0  0  0  0  0  0  0  0
  -29.8500  -17.1230   19.9700 C   0  0  0  0  0  0  0  0  0  0  0  0
  -29.5020  -18.1560   17.7690 C   0  0  0  0  0  0  0  0  0  0  0  0
  -29.3570  -18.0140   16.4310 F   0  0  0  0  0  0  0  0  0  0  0  0
  -30.6960  -14.7570   20.3880 C   0  0  0  0  0  0  0  0  0  0  0  0
  -30.4590  -12.5060   19.3700 C   0  0  0  0  0  2  0  0  0  0  0  0
  -29.5440  -12.6450   18.1320 C   0  0  0  0  0  2  0  0  0  0  0  0
  -28.0630  -12.5050   18.5350 C   0  0  0  0  0  2  0  0  0  0  0  0
  -27.6950  -13.3750   19.7670 C   0  0  0  0  0  3  0  0  0  0  0  0
  -28.7330  -13.2320   20.9030 C   0  0  0  0  0  2  0  0  0  0  0  0
  -30.0560  -13.5440   20.3440 N   0  0  0  0  0  0  0  0  0  0  0  0
  -31.8600  -14.8710   19.9950 O   0  0  0  0  0  0  0  0  0  0  0  0
  -29.9610  -15.8690   20.7300 N   0  0  0  0  0  0  0  0  0  0  0  0
  -29.1510  -15.6590   21.2950 H   0  0  0  0  0  0  0  0  0  0  0  0
  -25.2930  -13.9910   20.4340 C   0  0  0  0  0  0  0  0  0  0  0  0
  -24.2170  -13.2280   20.7940 C   0  0  0  0  0  0  0  0  0  0  0  0
  -24.6730  -11.8740   20.7920 C   0  0  0  0  0  0  0  0  0  0  0  0
  -26.3380  -13.1030   20.2310 N   0  0  0  0  0  0  0  0  0  0  0  0
  -25.9690  -11.8250   20.5080 N   0  0  0  0  0  0  0  0  0  0  0  0
  -23.9380  -10.6180   20.9890 C   0  0  0  0  0  0  0  0  0  0  0  0
  -24.3580   -9.6550   21.9320 C   0  0  0  0  0  3  0  0  0  0  0  0
  -23.6230   -8.4640   22.1160 C   0  0  0  0  0  3  0  0  0  0  0  0
  -22.4510   -8.2280   21.3570 C   0  0  0  0  0  0  0  0  0  0  0  0
  -22.0510   -9.1800   20.4020 C   0  0  0  0  0  3  0  0  0  0  0  0
  -22.7870  -10.3610   20.2160 C   0  0  0  0  0  3  0  0  0  0  0  0
  -21.6890   -7.0890   21.4490 O   0  0  0  0  0  0  0  0  0  0  0  0
  -21.6370   -6.3490   22.6030 C   0  0  0  0  0  0  0  0  0  0  0  0
  -21.2300   -6.9120   23.8330 C   0  0  0  0  0  3  0  0  0  0  0  0
  -21.1260   -6.0990   24.9790 C   0  0  0  0  0  3  0  0  0  0  0  0
  -21.4170   -4.7240   24.8970 C   0  0  0  0  0  0  0  0  0  0  0  0
  -21.8160   -4.1610   23.6720 C   0  0  0  0  0  3  0  0  0  0  0  0
  -21.9230   -4.9710   22.5280 C   0  0  0  0  0  0  0  0  0  0  0  0
  -22.2870   -4.4190   21.3460 F   0  0  0  0  0  0  0  0  0  0  0  0
  -21.3090   -3.9410   25.9950 F   0  0  0  0  0  0  0  0  0  0  0  0
  -22.8170  -13.7140   21.0350 C   0  0  0  0  0  0  0  0  0  0  0  0
  -22.0740  -13.0380   21.9020 N   0  0  0  0  0  0  0  0  0  0  0  0
  -22.3920  -14.7320   20.4880 O   0  0  0  0  0  0  0  0  0  0  0  0
  -22.4280  -12.2120   22.3630 H   0  0  0  0  0  0  0  0  0  0  0  0
  -21.1360  -13.3510   22.1120 H   0  0  0  0  0  0  0  0  0  0  0  0
  -25.4680  -15.3590   20.2400 N   0  0  0  0  0  0  0  0  0  0  0  0
  -24.7060  -16.0210   20.3390 H   0  0  0  0  0  0  0  0  0  0  0  0
  -26.3320  -15.7920   19.9390 H   0  0  0  0  0  0  0  0  0  0  0  0
  -28.2500  -26.4550   20.2350 O   0  0  0  0  0  0  0  0  0  0  0  0
  -24.5580  -31.9180   23.2250 C   0  0  0  0  0  0  0  0  0  0  0  0
  -27.2040  -27.3890   20.1650 C   0  0  0  0  0  0  0  0  0  0  0  0
  -23.3670  -30.5100   21.5830 C   0  0  0  0  0  3  0  0  0  0  0  0
  -24.8350  -28.9830   20.1470 C   0  0  0  0  0  0  0  0  0  0  0  0
  -25.9040  -30.8560   21.3990 C   0  0  0  0  0  2  0  0  0  0  0  0
  -26.0000  -29.4810   20.7480 C   0  0  0  0  0  0  0  0  0  0  0  0
  -27.1940  -28.6970   20.7470 C   0  0  0  0  0  3  0  0  0  0  0  0
  -26.0260  -26.9570   19.5200 C   0  0  0  0  0  3  0  0  0  0  0  0
  -24.8500  -27.7280   19.5220 C   0  0  0  0  0  3  0  0  0  0  0  0
  -23.5860  -29.8420   20.2010 C   0  0  0  0  0  2  0  0  0  0  0  0
  -24.6290  -31.1110   22.1260 N   0  0  0  0  0  0  0  0  0  0  0  0
  -23.4730  -32.1850   23.7600 O   0  0  0  0  0  0  0  0  0  0  0  0
  -22.7130  -29.4870   22.5420 C   0  0  0  0  0  0  0  0  0  0  0  0
  -21.3860  -29.3070   22.4230 N   0  0  0  0  0  0  0  0  0  0  0  0
  -23.3980  -28.8590   23.3540 O   0  0  0  0  0  0  0  0  0  0  0  0
  -20.8920  -29.8640   21.7400 H   0  0  0  0  0  0  0  0  0  0  0  0
  -18.0140  -28.1030   22.9440 C   0  0  0  0  0  0  0  0  0  0  0  0
  -20.5740  -28.3640   23.1960 C   0  0  0  0  0  3  0  0  0  0  0  0
  -20.6740  -26.9360   22.6130 C   0  0  0  0  0  2  0  0  0  0  0  0
  -19.5640  -26.6160   21.6050 C   0  0  0  0  0  2  0  0  0  0  0  0
  -18.1870  -26.7560   22.2600 C   0  0  0  0  0  2  0  0  0  0  0  0
  -19.1350  -28.8640   23.3690 C   0  0  0  0  0  0  0  0  0  0  0  0
  -18.9190  -30.1230   23.9700 C   0  0  0  0  0  3  0  0  0  0  0  0
  -17.6150  -30.6220   24.1470 C   0  0  0  0  0  3  0  0  0  0  0  0
  -16.5090  -29.8580   23.7390 C   0  0  0  0  0  3  0  0  0  0  0  0
  -16.7090  -28.5990   23.1430 C   0  0  0  0  0  3  0  0  0  0  0  0
  -25.8350  -32.5610   23.8470 C   0  0  0  0  0  3  0  0  0  0  0  0
  -25.5140  -33.9570   24.1770 N   0  0  0  0  0  0  0  0  0  0  0  0
  -25.8400  -35.0130   23.4200 C   0  0  0  0  0  0  0  0  0  0  0  0
  -26.5120  -34.9150   22.3900 O   0  0  0  0  0  0  0  0  0  0  0  0
  -24.9160  -34.1060   24.9770 H   0  0  0  0  0  0  0  0  0  0  0  0
  -24.0980  -36.7940   23.0640 C   0  0  0  0  0  1  0  0  0  0  0  0
  -25.3410  -36.3970   23.8770 C   0  0  0  0  0  3  0  0  0  0  0  0
  -27.4700  -37.2940   24.7100 C   0  0  0  0  0  1  0  0  0  0  0  0
  -26.3660  -37.4580   23.7680 N   0  0  0  0  0  0  0  0  0  0  0  0
  -25.9530  -38.3750   23.9190 H   0  0  0  0  0  0  0  0  0  0  0  0
  -26.3570  -31.7950   25.1250 C   0  0  1  0  0  0  0  0  0  0  0  0
  -25.2650  -31.5490   26.1910 C   0  0  0  0  0  1  0  0  0  0  0  0
  -26.9510  -30.4210   24.7350 C   0  0  0  0  0  1  0  0  0  0  0  0
  -27.5020  -32.5990   25.7850 C   0  0  0  0  0  1  0  0  0  0  0  0
  1  8  2  0
  2  4  1  0
  2  6  1  0
  3  5  1  0
  4  7  1  0
  6 12  1  0
  6  3  1  0
  7  1  1  0
  7  5  1  0
 10 12  1  0
 11 13  2  0
 12  9  2  0
 13  9  1  0
 13 24  1  0
 14 10  2  0
 14 11  1  0
 15 14  1  0
 16 24  1  0
 17 22  1  0
 18 19  1  0
 18 17  1  0
 20 19  1  0
 20 29  1  0
 20 21  1  0
 22 16  1  0
 22 21  1  0
 23 16  2  0
 24 25  1  0
 26 27  2  0
 27 46  1  0
 28 27  1  0
 28 31  1  0
 29 26  1  0
 29 30  1  0
 30 28  2  0
 31 32  1  0
 32 33  2  0
 34 37  1  0
 34 33  1  0
 35 34  2  0
 36 35  1  0
 36 31  2  0
 37 38  1  0
 38 39  1  0
 39 40  2  0
 41 40  1  0
 41 45  1  0
 42 41  2  0
 43 38  2  0
 43 42  1  0
 44 43  1  0
 46 47  1  0
 47 50  1  0
 47 49  1  0
 48 46  2  0
 51 52  1  0
 51 26  1  0
 53 51  1  0
 54  1  1  0
 55 66  2  0
 56 54  1  0
 56 61  1  0
 57 65  1  0
 57 67  1  0
 58 64  1  0
 58 60  1  0
 59 65  1  0
 60 59  1  0
 61 60  2  0
 62 63  1  0
 62 56  2  0
 63 58  2  0
 64 57  1  0
 65 55  1  0
 67 69  2  0
 68 67  1  0
 70 68  1  0
 71 80  2  0
 71 76  1  0
 72 68  1  0
 72 76  1  0
 73 72  1  0
 74 75  1  0
 74 73  1  0
 75 71  1  0
 76 77  2  0
 77 78  1  0
 79 78  2  0
 80 79  1  0
 81 55  1  0
 81 82  1  0
 81 91  1  0
 82 85  1  0
 83 87  1  0
 83 82  1  0
 84 83  2  0
 87 86  1  0
 89 87  1  0
 89 90  1  0
 89 88  1  0
 91 94  1  1
 91 92  1  0
 93 91  1  0
M  ISO  4   1 101  16 100  24 100  54 101
M  END
>  <TORSDO>  (60) 
F 17

>  <SCORE>  (60) 
-15.090

>  <name>  (60) 
60

>  <ligand_id>  (60) 
60

>  <original_smiles>  (60) 
[H]c1c([H])c([H])c2c(c1[H])C([H])([H])C([H])([H])C([H])([H])C2([H])N([H])C(=O)C1([H])N(C(=O)C([H])(N([H])C(=O)C([H])(N([H])C([H])([H])[H])C([H])([H])[H])C(C([H])([H])[H])(C([H])([H])[H])C([H])([H])[H])C([H])([H])c2c([H])c(OC(=O)N3C([H])([H])C([H])([H])C([H])(c4c([H])c(F)c([H])c(N([H])C(=O)N5C([H])([H])C([H])([H])C([H])([H])C([H])(n6nc(-c7c([H])c([H])c(Oc8c([H])c([H])c(F)c([H])c8F)c([H])c7[H])c(C(=O)N([H])[H])c6N([H])[H])C5([H])[H])c4[H])C([H])([H])C3([H])[H])c([H])c([H])c2C1([H])[H]

>  <smiles>  (60) 
[H]c1c([H])c([H])c2c(c1[H])C([H])([H])C([H])([H])C([H])([H])C2([H])N([H])C(=O)C1([H])N(C(=O)C([H])(N([H])C(=O)C([H])(N([H])C([H])([H])[H])C([H])([H])[H])C(C([H])([H])[H])(C([H])([H])[H])C([H])([H])[H])C([H])([H])c2c([H])c(OC(=O)N3C([H])([H])C([H])([H])C([H])(c4c([H])c(F)c([H])c(N([H])C(=O)N5C([H])([H])C([H])([H])C([H])([H])C([H])(n6nc(-c7c([H])c([H])c(Oc8c([H])c([H])c(F)c([H])c8F)c([H])c7[H])c(C(=O)N([H])[H])c6N([H])[H])C5([H])[H])c4[H])C([H])([H])C3([H])[H])c([H])c([H])c2C1([H])[H]

$$$$
61:0:0
     RDKit          3D

 92101  0  0  1  0  0  0  0  0999 V2000
  -29.8320  -22.9310   18.7530 C   0  0  0  0  0  0  0  0  0  0  0  0
  -29.5700  -24.4600   18.7550 C   0  0  0  0  0  2  0  0  0  0  0  0
  -28.3050  -23.3120   20.3860 C   0  0  0  0  0  2  0  0  0  0  0  0
  -28.2770  -24.7270   19.5360 C   0  0  0  0  0  3  0  0  0  0  0  0
  -29.1640  -22.2230   19.7000 N   0  0  0  0  0  0  0  0  0  0  0  0
  -30.5990  -22.4510   17.9130 O   0  0  0  0  0  0  0  0  0  0  0  0
  -30.5110  -19.9320   19.6310 C   0  0  0  0  0  3  0  0  0  0  0  0
  -30.6720  -18.4880   19.7520 C   0  0  0  0  0  3  0  0  0  0  0  0
  -28.2870  -19.7930   20.3760 C   0  0  0  0  0  3  0  0  0  0  0  0
  -29.3090  -20.6910   19.9150 C   0  0  0  0  0  0  0  0  0  0  0  0
  -29.6310  -17.6020   20.1780 C   0  0  0  0  0  0  0  0  0  0  0  0
  -28.4360  -18.3460   20.4860 C   0  0  0  0  0  0  0  0  0  0  0  0
  -27.3610  -17.6340   20.9010 F   0  0  0  0  0  0  0  0  0  0  0  0
  -30.4660  -14.9700   19.9370 C   0  0  0  0  0  0  0  0  0  0  0  0
  -30.3260  -12.6460   18.9340 C   0  0  0  0  0  2  0  0  0  0  0  0
  -29.3150  -12.6540   17.7620 C   0  0  0  0  0  2  0  0  0  0  0  0
  -27.8780  -12.4290   18.2740 C   0  0  0  0  0  2  0  0  0  0  0  0
  -27.5480  -13.3070   19.5100 C   0  0  0  0  0  3  0  0  0  0  0  0
  -28.6710  -13.2570   20.5690 C   0  0  0  0  0  2  0  0  0  0  0  0
  -29.9100  -13.6930   19.9080 N   0  0  0  0  0  0  0  0  0  0  0  0
  -31.6280  -15.0990   19.5330 O   0  0  0  0  0  0  0  0  0  0  0  0
  -29.6430  -16.0700   20.2810 N   0  0  0  0  0  0  0  0  0  0  0  0
  -28.7750  -15.7340   20.6710 H   0  0  0  0  0  0  0  0  0  0  0  0
  -25.2120  -13.8600   20.4030 C   0  0  0  0  0  0  0  0  0  0  0  0
  -24.1730  -13.0730   20.8110 C   0  0  0  0  0  0  0  0  0  0  0  0
  -24.6340  -11.7240   20.7110 C   0  0  0  0  0  0  0  0  0  0  0  0
  -26.2400  -12.9930   20.0740 N   0  0  0  0  0  0  0  0  0  0  0  0
  -25.9050  -11.7000   20.3230 N   0  0  0  0  0  0  0  0  0  0  0  0
  -23.9200  -10.4560   20.9050 C   0  0  0  0  0  0  0  0  0  0  0  0
  -24.3620   -9.4940   21.8400 C   0  0  0  0  0  3  0  0  0  0  0  0
  -23.6460   -8.2910   22.0230 C   0  0  0  0  0  3  0  0  0  0  0  0
  -22.4760   -8.0400   21.2690 C   0  0  0  0  0  0  0  0  0  0  0  0
  -22.0530   -8.9900   20.3220 C   0  0  0  0  0  3  0  0  0  0  0  0
  -22.7690  -10.1850   20.1380 C   0  0  0  0  0  3  0  0  0  0  0  0
  -21.7310   -6.8890   21.3600 O   0  0  0  0  0  0  0  0  0  0  0  0
  -21.6320   -6.1870   22.5350 C   0  0  0  0  0  0  0  0  0  0  0  0
  -21.1250   -6.7760   23.7130 C   0  0  0  0  0  3  0  0  0  0  0  0
  -20.9740   -5.9990   24.8790 C   0  0  0  0  0  3  0  0  0  0  0  0
  -21.3220   -4.6340   24.8670 C   0  0  0  0  0  0  0  0  0  0  0  0
  -21.8230   -4.0460   23.6930 C   0  0  0  0  0  3  0  0  0  0  0  0
  -21.9740   -4.8190   22.5290 C   0  0  0  0  0  0  0  0  0  0  0  0
  -22.4370   -4.2420   21.3950 F   0  0  0  0  0  0  0  0  0  0  0  0
  -21.1710   -3.8870   25.9860 F   0  0  0  0  0  0  0  0  0  0  0  0
  -22.7940  -13.5380   21.1800 C   0  0  0  0  0  0  0  0  0  0  0  0
  -22.1210  -12.8190   22.0700 N   0  0  0  0  0  0  0  0  0  0  0  0
  -22.3240  -14.5760   20.7140 O   0  0  0  0  0  0  0  0  0  0  0  0
  -22.5140  -11.9800   22.4680 H   0  0  0  0  0  0  0  0  0  0  0  0
  -21.1990  -13.1130   22.3590 H   0  0  0  0  0  0  0  0  0  0  0  0
  -25.3630  -15.2360   20.2590 N   0  0  0  0  0  0  0  0  0  0  0  0
  -24.6070  -15.8830   20.4590 H   0  0  0  0  0  0  0  0  0  0  0  0
  -26.1930  -15.7000   19.9120 H   0  0  0  0  0  0  0  0  0  0  0  0
  -28.2320  -26.2110   20.0290 O   0  0  0  0  0  0  0  0  0  0  0  0
  -24.4380  -31.7400   23.0570 C   0  0  0  0  0  0  0  0  0  0  0  0
  -27.1240  -27.1340   19.9490 C   0  0  0  0  0  0  0  0  0  0  0  0
  -23.2660  -30.3360   21.4030 C   0  0  0  0  0  3  0  0  0  0  0  0
  -24.7470  -28.8180   19.9510 C   0  0  0  0  0  0  0  0  0  0  0  0
  -25.8120  -30.6670   21.2340 C   0  0  0  0  0  2  0  0  0  0  0  0
  -25.9160  -29.2870   20.5630 C   0  0  0  0  0  0  0  0  0  0  0  0
  -27.1000  -28.4600   20.5460 C   0  0  0  0  0  3  0  0  0  0  0  0
  -25.9220  -26.7660   19.3020 C   0  0  0  0  0  3  0  0  0  0  0  0
  -24.7630  -27.5720   19.3080 C   0  0  0  0  0  3  0  0  0  0  0  0
  -23.4980  -29.6820   20.0150 C   0  0  0  0  0  2  0  0  0  0  0  0
  -24.5250  -30.9370   21.9530 N   0  0  0  0  0  0  0  0  0  0  0  0
  -23.3480  -31.9910   23.5920 O   0  0  0  0  0  0  0  0  0  0  0  0
  -22.6170  -29.3000   22.3550 C   0  0  0  0  0  0  0  0  0  0  0  0
  -21.2930  -29.1020   22.2340 N   0  0  0  0  0  0  0  0  0  0  0  0
  -23.3080  -28.6770   23.1660 O   0  0  0  0  0  0  0  0  0  0  0  0
  -20.7910  -29.6570   21.5550 H   0  0  0  0  0  0  0  0  0  0  0  0
  -17.9380  -27.8360   22.7530 C   0  0  0  0  0  0  0  0  0  0  0  0
  -20.4950  -28.1380   22.9970 C   0  0  0  0  0  3  0  0  0  0  0  0
  -20.6140  -26.7180   22.3930 C   0  0  0  0  0  2  0  0  0  0  0  0
  -19.5060  -26.3960   21.3860 C   0  0  0  0  0  2  0  0  0  0  0  0
  -18.1290  -26.5040   22.0480 C   0  0  0  0  0  2  0  0  0  0  0  0
  -19.0490  -28.6100   23.1840 C   0  0  0  0  0  0  0  0  0  0  0  0
  -18.8140  -29.8560   23.8050 C   0  0  0  0  0  3  0  0  0  0  0  0
  -17.5020  -30.3300   23.9980 C   0  0  0  0  0  3  0  0  0  0  0  0
  -16.4080  -29.5530   23.5820 C   0  0  0  0  0  3  0  0  0  0  0  0
  -16.6260  -28.3090   22.9660 C   0  0  0  0  0  3  0  0  0  0  0  0
  -25.7020  -32.3990   23.6880 C   0  0  0  0  0  3  0  0  0  0  0  0
  -25.3530  -33.7810   24.0520 N   0  0  0  0  0  0  0  0  0  0  0  0
  -25.6430  -34.8620   23.3180 C   0  0  0  0  0  0  0  0  0  0  0  0
  -26.3000  -34.8030   22.2750 O   0  0  0  0  0  0  0  0  0  0  0  0
  -24.7650  -33.8980   24.8650 H   0  0  0  0  0  0  0  0  0  0  0  0
  -23.8540  -36.6110   23.0430 C   0  0  0  0  0  1  0  0  0  0  0  0
  -25.1240  -36.2260   23.8170 C   0  0  0  0  0  3  0  0  0  0  0  0
  -27.2450  -37.1640   24.6260 C   0  0  0  0  0  1  0  0  0  0  0  0
  -26.1220  -37.3130   23.7060 N   0  0  0  0  0  0  0  0  0  0  0  0
  -25.6890  -38.2170   23.8760 H   0  0  0  0  0  0  0  0  0  0  0  0
  -26.2450  -31.6180   24.9490 C   0  0  1  0  0  0  0  0  0  0  0  0
  -25.1630  -31.3330   26.0170 C   0  0  0  0  0  1  0  0  0  0  0  0
  -26.8630  -30.2640   24.5350 C   0  0  0  0  0  1  0  0  0  0  0  0
  -27.3760  -32.4320   25.6210 C   0  0  0  0  0  1  0  0  0  0  0  0
  1  2  1  0
  1  5  1  0
  2  4  1  0
  4 52  1  0
  4  3  1  0
  5 10  1  0
  5  3  1  0
  6  1  2  0
  7  8  2  0
  7 10  1  0
  8 11  1  0
  9 12  1  0
 10  9  2  0
 11 22  1  0
 11 12  2  0
 12 13  1  0
 14 22  1  0
 15 20  1  0
 16 17  1  0
 16 15  1  0
 18 17  1  0
 18 27  1  0
 18 19  1  0
 20 14  1  0
 20 19  1  0
 21 14  2  0
 22 23  1  0
 24 25  2  0
 25 44  1  0
 26 25  1  0
 26 29  1  0
 27 28  1  0
 27 24  1  0
 28 26  2  0
 29 30  1  0
 30 31  2  0
 32 35  1  0
 32 31  1  0
 33 32  2  0
 34 33  1  0
 34 29  2  0
 35 36  1  0
 36 37  1  0
 37 38  2  0
 39 38  1  0
 39 43  1  0
 40 39  2  0
 41 36  2  0
 41 40  1  0
 42 41  1  0
 44 45  1  0
 45 48  1  0
 45 47  1  0
 46 44  2  0
 49 24  1  0
 49 50  1  0
 51 49  1  0
 53 64  2  0
 54 52  1  0
 54 59  1  0
 55 63  1  0
 55 65  1  0
 56 62  1  0
 56 58  1  0
 57 63  1  0
 58 57  1  0
 59 58  2  0
 60 61  1  0
 60 54  2  0
 61 56  2  0
 62 55  1  0
 63 53  1  0
 65 67  2  0
 66 65  1  0
 68 66  1  0
 69 78  2  0
 69 74  1  0
 70 66  1  0
 70 74  1  0
 71 70  1  0
 72 73  1  0
 72 71  1  0
 73 69  1  0
 74 75  2  0
 75 76  1  0
 77 76  2  0
 78 77  1  0
 79 53  1  0
 79 80  1  0
 79 89  1  0
 80 83  1  0
 81 85  1  0
 81 80  1  0
 82 81  2  0
 85 84  1  0
 87 85  1  0
 87 88  1  0
 87 86  1  0
 89 92  1  1
 89 90  1  0
 91 89  1  0
M  ISO  4   4 101  14 100  22 100  52 101
M  END
>  <TORSDO>  (61) 
F 17

>  <SCORE>  (61) 
-14.700

>  <name>  (61) 
61

>  <ligand_id>  (61) 
61

>  <original_smiles>  (61) 
[H]c1c([H])c([H])c2c(c1[H])C([H])([H])C([H])([H])C([H])([H])C2([H])N([H])C(=O)C1([H])N(C(=O)C([H])(N([H])C(=O)C([H])(N([H])C([H])([H])[H])C([H])([H])[H])C(C([H])([H])[H])(C([H])([H])[H])C([H])([H])[H])C([H])([H])c2c([H])c(OC3([H])C([H])([H])C(=O)N(c4c([H])c([H])c(N([H])C(=O)N5C([H])([H])C([H])([H])C([H])([H])C([H])(n6nc(-c7c([H])c([H])c(Oc8c([H])c([H])c(F)c([H])c8F)c([H])c7[H])c(C(=O)N([H])[H])c6N([H])[H])C5([H])[H])c(F)c4[H])C3([H])[H])c([H])c([H])c2C1([H])[H]

>  <smiles>  (61) 
[H]c1c([H])c([H])c2c(c1[H])C([H])([H])C([H])([H])C([H])([H])C2([H])N([H])C(=O)C1([H])N(C(=O)C([H])(N([H])C(=O)C([H])(N([H])C([H])([H])[H])C([H])([H])[H])C(C([H])([H])[H])(C([H])([H])[H])C([H])([H])[H])C([H])([H])c2c([H])c(OC3([H])C([H])([H])C(=O)N(c4c([H])c([H])c(N([H])C(=O)N5C([H])([H])C([H])([H])C([H])([H])C([H])(n6nc(-c7c([H])c([H])c(Oc8c([H])c([H])c(F)c([H])c8F)c([H])c7[H])c(C(=O)N([H])[H])c6N([H])[H])C5([H])[H])c(F)c4[H])C3([H])[H])c([H])c([H])c2C1([H])[H]

$$$$
62:0:0
     RDKit          3D

 95104  0  0  1  0  0  0  0  0999 V2000
  -29.8970  -20.6250   20.8790 N   0  0  0  0  0  0  0  0  0  0  0  0
  -29.3980  -20.8340   21.7400 H   0  0  0  0  0  0  0  0  0  0  0  0
  -30.7910  -18.7880   19.4540 C   0  0  0  0  0  3  0  0  0  0  0  0
  -31.0210  -17.4000   19.2860 C   0  0  0  0  0  3  0  0  0  0  0  0
  -29.4880  -18.3090   21.4310 C   0  0  0  0  0  3  0  0  0  0  0  0
  -29.7030  -16.9180   21.2690 C   0  0  0  0  0  0  0  0  0  0  0  0
  -30.0540  -19.2600   20.5580 C   0  0  0  0  0  0  0  0  0  0  0  0
  -30.5230  -16.4390   20.2100 C   0  0  0  0  0  0  0  0  0  0  0  0
  -29.0590  -15.9750   22.2730 C   0  0  0  0  0  1  0  0  0  0  0  0
  -30.9520  -14.3280   19.0220 C   0  0  0  0  0  0  0  0  0  0  0  0
  -30.2060  -12.3040   17.8140 C   0  0  0  0  0  2  0  0  0  0  0  0
  -29.0190  -12.5890   16.8790 C   0  0  0  0  0  2  0  0  0  0  0  0
  -27.6930  -12.4410   17.6400 C   0  0  0  0  0  2  0  0  0  0  0  0
  -27.6830  -13.2230   18.9780 C   0  0  0  0  0  3  0  0  0  0  0  0
  -28.9650  -12.9540   19.8000 C   0  0  0  0  0  2  0  0  0  0  0  0
  -30.1390  -13.2340   18.9560 N   0  0  0  0  0  0  0  0  0  0  0  0
  -31.7870  -14.5750   18.1440 O   0  0  0  0  0  0  0  0  0  0  0  0
  -30.9460  -15.0520   20.1730 N   0  0  0  0  0  0  0  0  0  0  0  0
  -25.5750  -13.8240   20.3250 C   0  0  0  0  0  0  0  0  0  0  0  0
  -24.5770  -13.0520   20.8560 C   0  0  0  0  0  0  0  0  0  0  0  0
  -24.9270  -11.6980   20.5680 C   0  0  0  0  0  0  0  0  0  0  0  0
  -26.4750  -12.9390   19.7500 N   0  0  0  0  0  0  0  0  0  0  0  0
  -26.1020  -11.6470   19.9490 N   0  0  0  0  0  0  0  0  0  0  0  0
  -24.1840  -10.4510   20.7930 C   0  0  0  0  0  0  0  0  0  0  0  0
  -24.6490   -9.4670   21.6940 C   0  0  0  0  0  3  0  0  0  0  0  0
  -23.9090   -8.2860   21.9090 C   0  0  0  0  0  3  0  0  0  0  0  0
  -22.6860   -8.0790   21.2260 C   0  0  0  0  0  0  0  0  0  0  0  0
  -22.2380   -9.0520   20.3140 C   0  0  0  0  0  3  0  0  0  0  0  0
  -22.9790  -10.2260   20.0990 C   0  0  0  0  0  3  0  0  0  0  0  0
  -21.9140   -6.9520   21.3550 O   0  0  0  0  0  0  0  0  0  0  0  0
  -21.7690   -6.3130   22.5610 C   0  0  0  0  0  0  0  0  0  0  0  0
  -21.2760   -6.9820   23.7030 C   0  0  0  0  0  3  0  0  0  0  0  0
  -21.0750   -6.2710   24.9040 C   0  0  0  0  0  3  0  0  0  0  0  0
  -21.3530   -4.8930   24.9600 C   0  0  0  0  0  0  0  0  0  0  0  0
  -21.8360   -4.2230   23.8220 C   0  0  0  0  0  3  0  0  0  0  0  0
  -22.0430   -4.9310   22.6250 C   0  0  0  0  0  0  0  0  0  0  0  0
  -22.4920   -4.2780   21.5280 F   0  0  0  0  0  0  0  0  0  0  0  0
  -21.1550   -4.2080   26.1120 F   0  0  0  0  0  0  0  0  0  0  0  0
  -23.3180  -13.5440   21.5130 C   0  0  0  0  0  0  0  0  0  0  0  0
  -22.8110  -12.8080   22.4950 N   0  0  0  0  0  0  0  0  0  0  0  0
  -22.8030  -14.6100   21.1860 O   0  0  0  0  0  0  0  0  0  0  0  0
  -23.2400  -11.9370   22.7710 H   0  0  0  0  0  0  0  0  0  0  0  0
  -21.9710  -13.1110   22.9690 H   0  0  0  0  0  0  0  0  0  0  0  0
  -25.7830  -15.1990   20.2710 N   0  0  0  0  0  0  0  0  0  0  0  0
  -25.1190  -15.8540   20.6730 H   0  0  0  0  0  0  0  0  0  0  0  0
  -26.5910  -15.6490   19.8590 H   0  0  0  0  0  0  0  0  0  0  0  0
  -31.9200  -13.3210   21.7300 C   0  0  0  0  0  1  0  0  0  0  0  0
  -32.0460  -14.7210   21.1010 C   0  0  0  0  0  2  0  0  0  0  0  0
  -29.9700  -21.7280   19.9150 C   0  0  0  0  0  2  0  0  0  0  0  0
  -28.6420  -23.2780   21.5210 C   0  0  0  0  0  2  0  0  0  0  0  0
  -28.2910  -24.7650   21.4610 C   0  0  0  0  0  2  0  0  0  0  0  0
  -29.8980  -24.3580   19.7100 C   0  0  0  0  0  2  0  0  0  0  0  0
  -29.8940  -23.1080   20.6350 C   0  0  0  0  0  3  0  0  0  0  0  0
  -28.6040  -25.1460   20.0160 C   0  0  0  0  0  3  0  0  0  0  0  0
  -28.6980  -26.5810   19.8600 O   0  0  0  0  0  0  0  0  0  0  0  0
  -24.7080  -31.5980   23.0250 C   0  0  0  0  0  0  0  0  0  0  0  0
  -27.5040  -27.2830   19.8760 C   0  0  0  0  0  0  0  0  0  0  0  0
  -23.5520  -30.1710   21.3720 C   0  0  0  0  0  3  0  0  0  0  0  0
  -25.0560  -28.7140   19.9210 C   0  0  0  0  0  0  0  0  0  0  0  0
  -26.0670  -30.6260   21.1700 C   0  0  0  0  0  2  0  0  0  0  0  0
  -26.2000  -29.2670   20.5100 C   0  0  0  0  0  0  0  0  0  0  0  0
  -27.4280  -28.5610   20.4820 C   0  0  0  0  0  3  0  0  0  0  0  0
  -26.3390  -26.7570   19.2710 C   0  0  0  0  0  3  0  0  0  0  0  0
  -25.1230  -27.4600   19.2950 C   0  0  0  0  0  3  0  0  0  0  0  0
  -23.7810  -29.5240   19.9820 C   0  0  0  0  0  2  0  0  0  0  0  0
  -24.7940  -30.8140   21.9130 N   0  0  0  0  0  0  0  0  0  0  0  0
  -23.6190  -31.8210   23.5730 O   0  0  0  0  0  0  0  0  0  0  0  0
  -22.9460  -29.1100   22.3180 C   0  0  0  0  0  0  0  0  0  0  0  0
  -21.6380  -28.8480   22.1650 N   0  0  0  0  0  0  0  0  0  0  0  0
  -23.6500  -28.5260   23.1460 O   0  0  0  0  0  0  0  0  0  0  0  0
  -21.1300  -29.3730   21.4680 H   0  0  0  0  0  0  0  0  0  0  0  0
  -18.3260  -27.4780   22.6150 C   0  0  0  0  0  0  0  0  0  0  0  0
  -20.8630  -27.8640   22.9220 C   0  0  0  0  0  3  0  0  0  0  0  0
  -21.0480  -26.4440   22.3370 C   0  0  0  0  0  2  0  0  0  0  0  0
  -19.9760  -26.0730   21.3090 C   0  0  0  0  0  2  0  0  0  0  0  0
  -18.5810  -26.1430   21.9350 C   0  0  0  0  0  2  0  0  0  0  0  0
  -19.3980  -28.2920   23.0640 C   0  0  0  0  0  0  0  0  0  0  0  0
  -19.1050  -29.5390   23.6590 C   0  0  0  0  0  3  0  0  0  0  0  0
  -17.7730  -29.9690   23.8110 C   0  0  0  0  0  3  0  0  0  0  0  0
  -16.7160  -29.1490   23.3810 C   0  0  0  0  0  3  0  0  0  0  0  0
  -16.9930  -27.9060   22.7880 C   0  0  0  0  0  3  0  0  0  0  0  0
  -25.9710  -32.2680   23.6490 C   0  0  0  0  0  3  0  0  0  0  0  0
  -26.5580  -31.4700   24.8780 C   0  0  1  0  0  0  0  0  0  0  0  0
  -25.4860  -31.0400   25.9070 C   0  0  0  0  0  1  0  0  0  0  0  0
  -27.2920  -30.1960   24.4010 C   0  0  0  0  0  1  0  0  0  0  0  0
  -27.6090  -32.3360   25.6120 C   0  0  0  0  0  1  0  0  0  0  0  0
  -25.5990  -33.6320   24.0480 N   0  0  0  0  0  0  0  0  0  0  0  0
  -25.8580  -34.7320   23.3290 C   0  0  0  0  0  0  0  0  0  0  0  0
  -26.5070  -34.7090   22.2810 O   0  0  0  0  0  0  0  0  0  0  0  0
  -25.0160  -33.7210   24.8670 H   0  0  0  0  0  0  0  0  0  0  0  0
  -24.0160  -36.4310   23.0990 C   0  0  0  0  0  1  0  0  0  0  0  0
  -25.3050  -36.0700   23.8560 C   0  0  0  0  0  3  0  0  0  0  0  0
  -27.4170  -37.0390   24.6460 C   0  0  0  0  0  1  0  0  0  0  0  0
  -26.2700  -37.1860   23.7550 N   0  0  0  0  0  0  0  0  0  0  0  0
  -25.8190  -38.0730   23.9610 H   0  0  0  0  0  0  0  0  0  0  0  0
  1  2  1  0
  3  7  1  0
  4  3  2  0
  4  8  1  0
  6  5  1  0
  6  9  1  0
  7  1  1  0
  7  5  2  0
  8  6  2  0
 10 18  1  0
 11 16  1  0
 12 13  1  0
 12 11  1  0
 14 13  1  0
 14 22  1  0
 14 15  1  0
 16 10  1  0
 16 15  1  0
 17 10  2  0
 18  8  1  0
 18 48  1  0
 19 20  2  0
 20 39  1  0
 21 24  1  0
 21 20  1  0
 22 23  1  0
 22 19  1  0
 23 21  2  0
 24 25  1  0
 25 26  2  0
 27 30  1  0
 27 26  1  0
 28 27  2  0
 29 28  1  0
 29 24  2  0
 30 31  1  0
 31 36  2  0
 31 32  1  0
 32 33  2  0
 33 34  1  0
 34 38  1  0
 35 34  2  0
 36 35  1  0
 37 36  1  0
 39 40  1  0
 40 42  1  0
 40 43  1  0
 41 39  2  0
 44 19  1  0
 44 45  1  0
 46 44  1  0
 48 47  1  0
 49  1  1  0
 51 50  1  0
 52 54  1  0
 52 53  1  0
 53 49  1  0
 53 50  1  0
 54 55  1  0
 54 51  1  0
 55 57  1  0
 56 67  2  0
 57 62  1  0
 58 66  1  0
 58 68  1  0
 59 65  1  0
 59 61  1  0
 60 66  1  0
 61 60  1  0
 62 61  2  0
 63 64  1  0
 63 57  2  0
 64 59  2  0
 65 58  1  0
 66 56  1  0
 68 70  2  0
 69 68  1  0
 71 69  1  0
 72 81  2  0
 72 77  1  0
 73 69  1  0
 73 77  1  0
 74 73  1  0
 75 76  1  0
 75 74  1  0
 76 72  1  0
 77 78  2  0
 78 79  1  0
 80 79  2  0
 81 80  1  0
 82 56  1  0
 82 87  1  0
 82 83  1  0
 83 86  1  1
 83 84  1  0
 85 83  1  0
 87 90  1  0
 88 92  1  0
 88 87  1  0
 89 88  2  0
 92 91  1  0
 94 92  1  0
 94 95  1  0
 94 93  1  0
M  ISO  4  10 100  18 100  54 101  55 101
M  END
>  <TORSDO>  (62) 
F 20

>  <SCORE>  (62) 
-8.547

>  <name>  (62) 
62

>  <ligand_id>  (62) 
62

>  <original_smiles>  (62) 
[H]c1c([H])c([H])c2c(c1[H])C([H])([H])C([H])([H])C([H])([H])C2([H])N([H])C(=O)C1([H])N(C(=O)C([H])(N([H])C(=O)C([H])(N([H])C([H])([H])[H])C([H])([H])[H])C(C([H])([H])[H])(C([H])([H])[H])C([H])([H])[H])C([H])([H])c2c([H])c(OC3([H])C([H])([H])C([H])([H])C([H])(C([H])([H])N([H])c4c([H])c([H])c(N(C(=O)N5C([H])([H])C([H])([H])C([H])([H])C([H])(n6nc(-c7c([H])c([H])c(Oc8c([H])c([H])c(F)c([H])c8F)c([H])c7[H])c(C(=O)N([H])[H])c6N([H])[H])C5([H])[H])C([H])([H])C([H])([H])[H])c(C([H])([H])[H])c4[H])C3([H])[H])c([H])c([H])c2C1([H])[H]

>  <smiles>  (62) 
[H]c1c([H])c([H])c2c(c1[H])C([H])([H])C([H])([H])C([H])([H])C2([H])N([H])C(=O)C1([H])N(C(=O)C([H])(N([H])C(=O)C([H])(N([H])C([H])([H])[H])C([H])([H])[H])C(C([H])([H])[H])(C([H])([H])[H])C([H])([H])[H])C([H])([H])c2c([H])c(OC3([H])C([H])([H])C([H])([H])C([H])(C([H])([H])N([H])c4c([H])c([H])c(N(C(=O)N5C([H])([H])C([H])([H])C([H])([H])C([H])(n6nc(-c7c([H])c([H])c(Oc8c([H])c([H])c(F)c([H])c8F)c([H])c7[H])c(C(=O)N([H])[H])c6N([H])[H])C5([H])[H])C([H])([H])C([H])([H])[H])c(C([H])([H])[H])c4[H])C3([H])[H])c([H])c([H])c2C1([H])[H]

$$$$
63:0:0
     RDKit          3D

 98108  0  0  1  0  0  0  0  0999 V2000
  -29.5320  -19.4490   20.9720 C   0  0  0  0  0  3  0  0  0  0  0  0
  -30.9430  -17.9720   19.1060 C   0  0  0  0  0  3  0  0  0  0  0  0
  -29.5960  -18.0210   21.0710 C   0  0  0  0  0  0  0  0  0  0  0  0
  -30.8430  -19.4060   18.9990 C   0  0  0  0  0  0  0  0  0  0  0  0
  -30.1480  -20.2350   19.9530 C   0  0  0  0  0  0  0  0  0  0  0  0
  -30.3300  -17.2270   20.1450 C   0  0  0  0  0  0  0  0  0  0  0  0
  -28.8670  -17.3450   22.2220 C   0  0  0  0  0  1  0  0  0  0  0  0
  -31.0270  -14.7320   19.6560 C   0  0  0  0  0  0  0  0  0  0  0  0
  -30.6980  -12.5120   18.5650 C   0  0  0  0  0  2  0  0  0  0  0  0
  -29.6050  -12.6630   17.4830 C   0  0  0  0  0  2  0  0  0  0  0  0
  -28.2000  -12.4850   18.0900 C   0  0  0  0  0  2  0  0  0  0  0  0
  -28.0060  -13.3120   19.3890 C   0  0  0  0  0  3  0  0  0  0  0  0
  -29.1960  -13.1250   20.3570 C   0  0  0  0  0  2  0  0  0  0  0  0
  -30.4210  -13.4980   19.6310 N   0  0  0  0  0  0  0  0  0  0  0  0
  -32.1060  -14.9170   19.0820 O   0  0  0  0  0  0  0  0  0  0  0  0
  -30.3140  -15.7520   20.2470 N   0  0  0  0  0  0  0  0  0  0  0  0
  -29.5650  -15.3970   20.8210 H   0  0  0  0  0  0  0  0  0  0  0  0
  -25.7600  -13.9030   20.4860 C   0  0  0  0  0  0  0  0  0  0  0  0
  -24.7270  -13.1260   20.9380 C   0  0  0  0  0  0  0  0  0  0  0  0
  -25.1320  -11.7710   20.7310 C   0  0  0  0  0  0  0  0  0  0  0  0
  -26.7280  -13.0200   20.0340 N   0  0  0  0  0  0  0  0  0  0  0  0
  -26.3640  -11.7290   20.2380 N   0  0  0  0  0  0  0  0  0  0  0  0
  -24.3940  -10.5150   20.9180 C   0  0  0  0  0  0  0  0  0  0  0  0
  -24.8360   -9.5280   21.8270 C   0  0  0  0  0  3  0  0  0  0  0  0
  -24.1000   -8.3360   22.0030 C   0  0  0  0  0  3  0  0  0  0  0  0
  -22.9080   -8.1240   21.2720 C   0  0  0  0  0  0  0  0  0  0  0  0
  -22.4840   -9.1000   20.3530 C   0  0  0  0  0  3  0  0  0  0  0  0
  -23.2200  -10.2830   20.1750 C   0  0  0  0  0  3  0  0  0  0  0  0
  -22.1420   -6.9860   21.3600 O   0  0  0  0  0  0  0  0  0  0  0  0
  -21.9490   -6.3390   22.5540 C   0  0  0  0  0  0  0  0  0  0  0  0
  -21.3450   -6.9780   23.6580 C   0  0  0  0  0  3  0  0  0  0  0  0
  -21.1010   -6.2540   24.8420 C   0  0  0  0  0  3  0  0  0  0  0  0
  -21.4520   -4.8940   24.9230 C   0  0  0  0  0  0  0  0  0  0  0  0
  -22.0480   -4.2540   23.8220 C   0  0  0  0  0  3  0  0  0  0  0  0
  -22.2930   -4.9750   22.6390 C   0  0  0  0  0  0  0  0  0  0  0  0
  -22.8490   -4.3480   21.5740 F   0  0  0  0  0  0  0  0  0  0  0  0
  -21.2110   -4.1960   26.0570 F   0  0  0  0  0  0  0  0  0  0  0  0
  -23.3990  -13.6110   21.4430 C   0  0  0  0  0  0  0  0  0  0  0  0
  -22.7840  -12.8700   22.3580 N   0  0  0  0  0  0  0  0  0  0  0  0
  -22.9230  -14.6790   21.0630 O   0  0  0  0  0  0  0  0  0  0  0  0
  -23.1850  -12.0040   22.6860 H   0  0  0  0  0  0  0  0  0  0  0  0
  -21.8970  -13.1740   22.7370 H   0  0  0  0  0  0  0  0  0  0  0  0
  -25.9480  -15.2790   20.4040 N   0  0  0  0  0  0  0  0  0  0  0  0
  -25.2270  -15.9370   20.6760 H   0  0  0  0  0  0  0  0  0  0  0  0
  -26.7580  -15.7260   19.9930 H   0  0  0  0  0  0  0  0  0  0  0  0
  -29.8100  -22.6400   18.8990 C   0  0  0  0  0  2  0  0  0  0  0  0
  -29.2880  -22.5320   20.8890 C   0  0  0  0  0  2  0  0  0  0  0  0
  -29.5720  -23.7730   19.9620 C   0  0  0  0  0  3  0  0  0  0  0  0
  -30.1430  -21.7220   20.0010 N   0  0  0  0  0  0  0  0  0  0  0  0
  -28.5240  -24.9590   19.7070 C   0  0  0  0  0  2  0  0  0  0  0  0
  -28.7630  -26.3960   20.0710 O   0  0  0  0  0  0  0  0  0  0  0  0
  -24.9150  -31.6040   23.3400 C   0  0  0  0  0  0  0  0  0  0  0  0
  -27.6590  -27.2790   20.0350 C   0  0  0  0  0  0  0  0  0  0  0  0
  -23.7750  -30.3170   21.5680 C   0  0  0  0  0  3  0  0  0  0  0  0
  -25.2830  -28.8970   20.0720 C   0  0  0  0  0  0  0  0  0  0  0  0
  -26.3190  -30.6650   21.4870 C   0  0  0  0  0  2  0  0  0  0  0  0
  -26.4330  -29.3400   20.7390 C   0  0  0  0  0  0  0  0  0  0  0  0
  -27.6230  -28.5440   20.7110 C   0  0  0  0  0  3  0  0  0  0  0  0
  -26.4840  -26.9110   19.3380 C   0  0  0  0  0  3  0  0  0  0  0  0
  -25.3140  -27.6890   19.3620 C   0  0  0  0  0  3  0  0  0  0  0  0
  -24.0360  -29.7520   20.1500 C   0  0  0  0  0  2  0  0  0  0  0  0
  -25.0200  -30.8770   22.1890 N   0  0  0  0  0  0  0  0  0  0  0  0
  -23.8120  -31.8320   23.8590 O   0  0  0  0  0  0  0  0  0  0  0  0
  -23.0970  -29.2250   22.4310 C   0  0  0  0  0  0  0  0  0  0  0  0
  -21.7810  -29.0300   22.2370 N   0  0  0  0  0  0  0  0  0  0  0  0
  -23.7550  -28.5580   23.2350 O   0  0  0  0  0  0  0  0  0  0  0  0
  -21.3080  -29.6250   21.5720 H   0  0  0  0  0  0  0  0  0  0  0  0
  -18.4080  -27.7470   22.5300 C   0  0  0  0  0  0  0  0  0  0  0  0
  -20.9510  -28.0270   22.9080 C   0  0  0  0  0  3  0  0  0  0  0  0
  -21.0980  -26.6410   22.2380 C   0  0  0  0  0  2  0  0  0  0  0  0
  -20.0370  -26.3740   21.1650 C   0  0  0  0  0  2  0  0  0  0  0  0
  -18.6320  -26.4520   21.7670 C   0  0  0  0  0  2  0  0  0  0  0  0
  -19.4980  -28.4950   23.0500 C   0  0  0  0  0  0  0  0  0  0  0  0
  -19.2370  -29.7090   23.7200 C   0  0  0  0  0  3  0  0  0  0  0  0
  -17.9200  -30.1770   23.8780 C   0  0  0  0  0  3  0  0  0  0  0  0
  -16.8440  -29.4250   23.3730 C   0  0  0  0  0  3  0  0  0  0  0  0
  -17.0880  -28.2130   22.7050 C   0  0  0  0  0  3  0  0  0  0  0  0
  -26.1710  -32.2030   24.0430 C   0  0  0  0  0  3  0  0  0  0  0  0
  -26.6170  -31.3870   25.3180 C   0  0  1  0  0  0  0  0  0  0  0  0
  -25.4710  -31.1210   26.3200 C   0  0  0  0  0  1  0  0  0  0  0  0
  -27.2170  -30.0200   24.9150 C   0  0  0  0  0  1  0  0  0  0  0  0
  -27.7350  -32.1540   26.0640 C   0  0  0  0  0  1  0  0  0  0  0  0
  -25.8570  -33.5930   24.4040 N   0  0  0  0  0  0  0  0  0  0  0  0
  -26.1820  -34.6650   23.6700 C   0  0  0  0  0  0  0  0  0  0  0  0
  -26.8490  -34.5890   22.6350 O   0  0  0  0  0  0  0  0  0  0  0  0
  -25.2680  -33.7280   25.2130 H   0  0  0  0  0  0  0  0  0  0  0  0
  -24.4240  -36.4430   23.3880 C   0  0  0  0  0  1  0  0  0  0  0  0
  -25.6900  -36.0400   24.1620 C   0  0  0  0  0  3  0  0  0  0  0  0
  -27.8260  -36.9460   24.9650 C   0  0  0  0  0  1  0  0  0  0  0  0
  -26.7070  -37.1080   24.0400 N   0  0  0  0  0  0  0  0  0  0  0  0
  -26.2900  -38.0200   24.2040 H   0  0  0  0  0  0  0  0  0  0  0  0
  -31.5560  -20.0390   17.8060 C   0  0  0  0  0  2  0  0  0  0  0  0
  -29.8730  -18.9210   14.6380 C   0  0  0  0  0  2  0  0  0  0  0  0
  -30.7830  -20.0500   14.1460 C   0  0  0  0  0  2  0  0  0  0  0  0
  -30.3340  -18.6760   16.0760 C   0  0  0  0  0  2  0  0  0  0  0  0
  -31.3170  -20.7320   15.4190 C   0  0  0  0  0  2  0  0  0  0  0  0
  -30.7300  -20.0100   16.5710 N   0  0  2  0  0  4  0  0  0  0  0  0
  -29.8690  -20.4850   16.7940 H   0  0  0  0  0  0  0  0  0  0  0  0
  1  3  1  0
  2  6  1  0
  3  7  1  0
  4  2  2  0
  4  5  1  0
  5 49  1  0
  5  1  2  0
  6 16  1  0
  6  3  2  0
  8 16  1  0
  9 14  1  0
 10 11  1  0
 10  9  1  0
 12 11  1  0
 12 21  1  0
 12 13  1  0
 14  8  1  0
 14 13  1  0
 15  8  2  0
 16 17  1  0
 18 19  2  0
 19 38  1  0
 20 23  1  0
 20 19  1  0
 21 22  1  0
 21 18  1  0
 22 20  2  0
 23 24  1  0
 24 25  2  0
 26 29  1  0
 26 25  1  0
 27 26  2  0
 28 27  1  0
 28 23  2  0
 29 30  1  0
 30 35  2  0
 30 31  1  0
 31 32  2  0
 32 33  1  0
 33 37  1  0
 34 33  2  0
 35 34  1  0
 36 35  1  0
 38 39  1  0
 39 41  1  0
 39 42  1  0
 40 38  2  0
 43 18  1  0
 43 44  1  0
 45 43  1  0
 46 48  1  0
 46 49  1  0
 48 50  1  0
 48 47  1  0
 49 47  1  0
 50 51  1  0
 52 63  2  0
 53 51  1  0
 53 58  1  0
 54 62  1  0
 54 64  1  0
 55 61  1  0
 55 57  1  0
 56 62  1  0
 57 56  1  0
 58 57  2  0
 59 60  1  0
 59 53  2  0
 60 55  2  0
 61 54  1  0
 62 52  1  0
 64 66  2  0
 65 64  1  0
 67 65  1  0
 68 77  2  0
 68 73  1  0
 69 65  1  0
 69 73  1  0
 70 69  1  0
 71 72  1  0
 71 70  1  0
 72 68  1  0
 73 74  2  0
 74 75  1  0
 76 75  2  0
 77 76  1  0
 78 52  1  0
 78 83  1  0
 78 79  1  0
 79 82  1  1
 79 80  1  0
 81 79  1  0
 83 86  1  0
 84 88  1  0
 84 83  1  0
 85 84  2  0
 88 87  1  0
 90 88  1  0
 90 91  1  0
 90 89  1  0
 92  4  1  0
 93 95  1  0
 94 93  1  0
 94 96  1  0
 95 97  1  0
 96 97  1  0
 97 98  1  1
 97 92  1  0
M  ISO  4   8 100  16 100  50 101  51 101
M  END
>  <TORSDO>  (63) 
F 20

>  <SCORE>  (63) 
-10.115

>  <name>  (63) 
63

>  <ligand_id>  (63) 
63

>  <original_smiles>  (63) 
[H]c1c([H])c([H])c2c(c1[H])C([H])([H])C([H])([H])C([H])([H])C2([H])N([H])C(=O)C1([H])N(C(=O)C([H])(N([H])C(=O)C([H])(N([H])C([H])([H])[H])C([H])([H])[H])C(C([H])([H])[H])(C([H])([H])[H])C([H])([H])[H])C([H])([H])c2c([H])c(OC([H])([H])C3([H])C([H])([H])N(c4c([H])c(C([H])([H])[H])c(N([H])C(=O)N5C([H])([H])C([H])([H])C([H])([H])C([H])(n6nc(-c7c([H])c([H])c(Oc8c([H])c([H])c(F)c([H])c8F)c([H])c7[H])c(C(=O)N([H])[H])c6N([H])[H])C5([H])[H])c([H])c4C([H])([H])[N+]4([H])C([H])([H])C([H])([H])C([H])([H])C4([H])[H])C3([H])[H])c([H])c([H])c2C1([H])[H]

>  <smiles>  (63) 
[H]c1c([H])c([H])c2c(c1[H])C([H])([H])C([H])([H])C([H])([H])C2([H])N([H])C(=O)C1([H])N(C(=O)C([H])(N([H])C(=O)C([H])(N([H])C([H])([H])[H])C([H])([H])[H])C(C([H])([H])[H])(C([H])([H])[H])C([H])([H])[H])C([H])([H])c2c([H])c(OC([H])([H])C3([H])C([H])([H])N(c4c([H])c(C([H])([H])[H])c(N([H])C(=O)N5C([H])([H])C([H])([H])C([H])([H])C([H])(n6nc(-c7c([H])c([H])c(Oc8c([H])c([H])c(F)c([H])c8F)c([H])c7[H])c(C(=O)N([H])[H])c6N([H])[H])C5([H])[H])c([H])c4C([H])([H])[N+]4([H])C([H])([H])C([H])([H])C([H])([H])C4([H])[H])C3([H])[H])c([H])c([H])c2C1([H])[H]

$$$$
64:0:0
     RDKit          3D

 91100  0  0  1  0  0  0  0  0999 V2000
  -30.8650  -15.0590   19.9180 C   0  0  0  0  0  0  0  0  0  0  0  0
  -30.7550  -12.6050   19.1960 C   0  0  0  0  0  2  0  0  0  0  0  0
  -29.8190  -12.3910   17.9820 C   0  0  0  0  0  2  0  0  0  0  0  0
  -28.3650  -12.1850   18.4420 C   0  0  0  0  0  2  0  0  0  0  0  0
  -27.9470  -13.2190   19.5180 C   0  0  0  0  0  3  0  0  0  0  0  0
  -29.0040  -13.3670   20.6260 C   0  0  0  0  0  2  0  0  0  0  0  0
  -30.2600  -13.7870   19.9800 N   0  0  0  0  0  0  0  0  0  0  0  0
  -32.0370  -15.0560   19.5180 O   0  0  0  0  0  0  0  0  0  0  0  0
  -30.8280  -18.9560   17.3930 C   0  0  0  0  0  3  0  0  0  0  0  0
  -30.7750  -17.7440   18.1220 C   0  0  0  0  0  3  0  0  0  0  0  0
  -30.2800  -20.1770   17.8590 C   0  0  0  0  0  3  0  0  0  0  0  0
  -29.5830  -18.9800   19.8470 C   0  0  0  0  0  0  0  0  0  0  0  0
  -30.1730  -17.6700   19.3970 C   0  0  0  0  0  0  0  0  0  0  0  0
  -29.6120  -20.2910   19.0970 C   0  0  0  0  0  0  0  0  0  0  0  0
  -28.9090  -18.9500   21.2080 C   0  0  0  0  0  2  0  0  0  0  0  0
  -28.6390  -17.5210   21.7360 C   0  0  0  0  0  2  0  0  0  0  0  0
  -29.8440  -16.5650   21.5820 C   0  0  0  0  0  2  0  0  0  0  0  0
  -30.1840  -16.3200   20.1720 N   0  0  0  0  0  0  0  0  0  0  0  0
  -25.5990  -13.8510   20.3050 C   0  0  0  0  0  0  0  0  0  0  0  0
  -24.5360  -13.1040   20.7290 C   0  0  0  0  0  0  0  0  0  0  0  0
  -24.9820  -11.7460   20.7320 C   0  0  0  0  0  0  0  0  0  0  0  0
  -26.6210  -12.9510   20.0620 N   0  0  0  0  0  0  0  0  0  0  0  0
  -26.2630  -11.6820   20.3880 N   0  0  0  0  0  0  0  0  0  0  0  0
  -24.2440  -10.5010   20.9840 C   0  0  0  0  0  0  0  0  0  0  0  0
  -24.6540   -9.5860   21.9780 C   0  0  0  0  0  3  0  0  0  0  0  0
  -23.9140   -8.4070   22.2140 C   0  0  0  0  0  3  0  0  0  0  0  0
  -22.7510   -8.1350   21.4560 C   0  0  0  0  0  0  0  0  0  0  0  0
  -22.3600   -9.0380   20.4520 C   0  0  0  0  0  3  0  0  0  0  0  0
  -23.1000  -10.2090   20.2150 C   0  0  0  0  0  3  0  0  0  0  0  0
  -21.9840   -7.0030   21.5970 O   0  0  0  0  0  0  0  0  0  0  0  0
  -21.8560   -6.3680   22.8070 C   0  0  0  0  0  0  0  0  0  0  0  0
  -21.3290   -7.0240   23.9400 C   0  0  0  0  0  3  0  0  0  0  0  0
  -21.1480   -6.3140   25.1450 C   0  0  0  0  0  3  0  0  0  0  0  0
  -21.4830   -4.9500   25.2150 C   0  0  0  0  0  0  0  0  0  0  0  0
  -22.0030   -4.2930   24.0850 C   0  0  0  0  0  3  0  0  0  0  0  0
  -22.1850   -4.9990   22.8830 C   0  0  0  0  0  0  0  0  0  0  0  0
  -22.6650   -4.3570   21.7920 F   0  0  0  0  0  0  0  0  0  0  0  0
  -21.3030   -4.2650   26.3680 F   0  0  0  0  0  0  0  0  0  0  0  0
  -23.1530  -13.6100   21.0180 C   0  0  0  0  0  0  0  0  0  0  0  0
  -22.4400  -12.9600   21.9310 N   0  0  0  0  0  0  0  0  0  0  0  0
  -22.7130  -14.6180   20.4660 O   0  0  0  0  0  0  0  0  0  0  0  0
  -22.8090  -12.1450   22.3990 H   0  0  0  0  0  0  0  0  0  0  0  0
  -21.5130  -13.2830   22.1670 H   0  0  0  0  0  0  0  0  0  0  0  0
  -25.7780  -15.2130   20.0800 N   0  0  0  0  0  0  0  0  0  0  0  0
  -25.0280  -15.8840   20.1970 H   0  0  0  0  0  0  0  0  0  0  0  0
  -26.6290  -15.6270   19.7230 H   0  0  0  0  0  0  0  0  0  0  0  0
  -29.0350  -21.6400   19.4500 N   0  0  0  0  0  0  0  0  0  0  0  0
  -28.6660  -21.7030   20.3960 H   0  0  0  0  0  0  0  0  0  0  0  0
  -29.0720  -23.0460   18.7030 C   0  0  0  0  0  3  0  0  0  0  0  0
  -28.1130  -24.4320   19.0600 C   0  0  0  0  0  3  0  0  0  0  0  0
  -28.2900  -25.9520   18.6330 O   0  0  0  0  0  0  0  0  0  0  0  0
  -25.2320  -31.4070   22.6640 C   0  0  0  0  0  0  0  0  0  0  0  0
  -27.2840  -26.9840   18.8390 C   0  0  0  0  0  0  0  0  0  0  0  0
  -23.8170  -30.2570   21.0080 C   0  0  0  0  0  3  0  0  0  0  0  0
  -25.0460  -28.8210   19.2610 C   0  0  0  0  0  0  0  0  0  0  0  0
  -26.3520  -30.4550   20.6080 C   0  0  0  0  0  2  0  0  0  0  0  0
  -26.3010  -29.1460   19.7890 C   0  0  0  0  0  0  0  0  0  0  0  0
  -27.4200  -28.2490   19.5590 C   0  0  0  0  0  3  0  0  0  0  0  0
  -26.0010  -26.7830   18.2830 C   0  0  0  0  0  3  0  0  0  0  0  0
  -24.9110  -27.6570   18.4910 C   0  0  0  0  0  3  0  0  0  0  0  0
  -23.8690  -29.7470   19.5440 C   0  0  0  0  0  2  0  0  0  0  0  0
  -25.1600  -30.7210   21.4810 N   0  0  0  0  0  0  0  0  0  0  0  0
  -24.2180  -31.6550   23.3340 O   0  0  0  0  0  0  0  0  0  0  0  0
  -23.1970  -29.1610   21.9120 C   0  0  0  0  0  0  0  0  0  0  0  0
  -21.8580  -29.0280   21.8890 N   0  0  0  0  0  0  0  0  0  0  0  0
  -23.9200  -28.4360   22.5980 O   0  0  0  0  0  0  0  0  0  0  0  0
  -21.3280  -29.6650   21.3110 H   0  0  0  0  0  0  0  0  0  0  0  0
  -18.5020  -27.8520   22.5910 C   0  0  0  0  0  0  0  0  0  0  0  0
  -21.0830  -28.0230   22.6230 C   0  0  0  0  0  3  0  0  0  0  0  0
  -21.0760  -26.6690   21.8750 C   0  0  0  0  0  2  0  0  0  0  0  0
  -19.8680  -26.4980   20.9470 C   0  0  0  0  0  2  0  0  0  0  0  0
  -18.5640  -26.5930   21.7430 C   0  0  0  0  0  2  0  0  0  0  0  0
  -19.6840  -28.5320   22.9910 C   0  0  0  0  0  0  0  0  0  0  0  0
  -19.5660  -29.7150   23.7530 C   0  0  0  0  0  3  0  0  0  0  0  0
  -18.3030  -30.2170   24.1140 C   0  0  0  0  0  3  0  0  0  0  0  0
  -17.1370  -29.5340   23.7260 C   0  0  0  0  0  3  0  0  0  0  0  0
  -17.2380  -28.3510   22.9710 C   0  0  0  0  0  3  0  0  0  0  0  0
  -26.5910  -31.9270   23.2250 C   0  0  0  0  0  3  0  0  0  0  0  0
  -26.3440  -33.2290   23.8650 N   0  0  0  0  0  0  0  0  0  0  0  0
  -26.5940  -34.4180   23.3020 C   0  0  0  0  0  0  0  0  0  0  0  0
  -27.1240  -34.5320   22.1930 O   0  0  0  0  0  0  0  0  0  0  0  0
  -25.8570  -33.2120   24.7500 H   0  0  0  0  0  0  0  0  0  0  0  0
  -24.8670  -36.2340   23.5490 C   0  0  0  0  0  1  0  0  0  0  0  0
  -26.1960  -35.6820   24.0910 C   0  0  0  0  0  3  0  0  0  0  0  0
  -28.4340  -36.4040   24.8020 C   0  0  0  0  0  1  0  0  0  0  0  0
  -27.2240  -36.7450   24.0590 N   0  0  0  0  0  0  0  0  0  0  0  0
  -26.8560  -37.6150   24.4350 H   0  0  0  0  0  0  0  0  0  0  0  0
  -27.2580  -30.9310   24.2520 C   0  0  1  0  0  0  0  0  0  0  0  0
  -26.3150  -30.4870   25.3950 C   0  0  0  0  0  1  0  0  0  0  0  0
  -27.7580  -29.6540   23.5370 C   0  0  0  0  0  1  0  0  0  0  0  0
  -28.5030  -31.5930   24.8880 C   0  0  0  0  0  1  0  0  0  0  0  0
  1  7  1  0
  1 18  1  0
  2  7  1  0
  3  4  1  0
  3  2  1  0
  5  4  1  0
  5 22  1  0
  5  6  1  0
  7  6  1  0
  8  1  2  0
  9 11  2  0
  9 10  1  0
 10 13  2  0
 11 14  1  0
 12 15  1  0
 13 12  1  0
 13 18  1  0
 14 47  1  0
 14 12  2  0
 15 16  1  0
 17 16  1  0
 18 17  1  0
 19 20  2  0
 20 21  1  0
 20 39  1  0
 21 24  1  0
 22 19  1  0
 22 23  1  0
 23 21  2  0
 24 25  1  0
 25 26  2  0
 27 30  1  0
 27 26  1  0
 28 27  2  0
 29 28  1  0
 29 24  2  0
 30 31  1  0
 31 36  2  0
 31 32  1  0
 32 33  2  0
 33 34  1  0
 34 38  1  0
 35 34  2  0
 36 35  1  0
 37 36  1  0
 39 40  1  0
 40 43  1  0
 40 42  1  0
 41 39  2  0
 44 45  1  0
 44 19  1  0
 46 44  1  0
 47 48  1  0
 49 50  2  0
 49 47  1  0
 51 53  1  0
 51 50  1  0
 52 63  2  0
 53 58  1  0
 54 62  1  0
 54 64  1  0
 55 61  1  0
 55 57  1  0
 56 62  1  0
 57 56  1  0
 58 57  2  0
 59 60  1  0
 59 53  2  0
 60 55  2  0
 61 54  1  0
 62 52  1  0
 64 66  2  0
 65 64  1  0
 67 65  1  0
 68 77  2  0
 68 73  1  0
 69 65  1  0
 69 73  1  0
 70 69  1  0
 71 72  1  0
 71 70  1  0
 72 68  1  0
 73 74  2  0
 74 75  1  0
 76 75  2  0
 77 76  1  0
 78 52  1  0
 78 79  1  0
 78 88  1  0
 79 82  1  0
 80 79  1  0
 80 84  1  0
 81 80  2  0
 84 83  1  0
 86 84  1  0
 86 87  1  0
 86 85  1  0
 88 91  1  1
 88 89  1  0
 90 88  1  0
M  ISO  4   1 100  18 100  50 101  51 101
M  END
>  <TORSDO>  (64) 
F 18

>  <SCORE>  (64) 
-10.333

>  <name>  (64) 
64

>  <ligand_id>  (64) 
64

>  <original_smiles>  (64) 
[H]c1c([H])c(N([H])C([H])([H])C([H])([H])Oc2c([H])c([H])c3c(c2[H])C([H])([H])N(C(=O)C([H])(N([H])C(=O)C([H])(N([H])C([H])([H])[H])C([H])([H])[H])C(C([H])([H])[H])(C([H])([H])[H])C([H])([H])[H])C([H])(C(=O)N([H])C2([H])c4c([H])c([H])c([H])c([H])c4C([H])([H])C([H])([H])C2([H])[H])C3([H])[H])c2c(c1[H])N(C(=O)N1C([H])([H])C([H])([H])C([H])([H])C([H])(n3nc(-c4c([H])c([H])c(Oc5c([H])c([H])c(F)c([H])c5F)c([H])c4[H])c(C(=O)N([H])[H])c3N([H])[H])C1([H])[H])C([H])([H])C([H])([H])C2([H])[H]

>  <smiles>  (64) 
[H]c1c([H])c(N([H])C([H])([H])C([H])([H])Oc2c([H])c([H])c3c(c2[H])C([H])([H])N(C(=O)C([H])(N([H])C(=O)C([H])(N([H])C([H])([H])[H])C([H])([H])[H])C(C([H])([H])[H])(C([H])([H])[H])C([H])([H])[H])C([H])(C(=O)N([H])C2([H])c4c([H])c([H])c([H])c([H])c4C([H])([H])C([H])([H])C2([H])[H])C3([H])[H])c2c(c1[H])N(C(=O)N1C([H])([H])C([H])([H])C([H])([H])C([H])(n3nc(-c4c([H])c([H])c(Oc5c([H])c([H])c(F)c([H])c5F)c([H])c4[H])c(C(=O)N([H])[H])c3N([H])[H])C1([H])[H])C([H])([H])C([H])([H])C2([H])[H]

$$$$
65:0:0
     RDKit          3D

 90 99  0  0  1  0  0  0  0  0999 V2000
  -30.1450  -20.2150   20.8830 C   0  0  0  0  0  3  0  0  0  0  0  0
  -30.4120  -18.7640   20.8680 C   0  0  0  0  0  3  0  0  0  0  0  0
  -28.3820  -18.4560   19.7880 C   0  0  0  0  0  3  0  0  0  0  0  0
  -28.9850  -20.9240   20.3640 C   0  0  0  0  0  0  0  0  0  0  0  0
  -29.5230  -17.7630   20.3300 C   0  0  0  0  0  0  0  0  0  0  0  0
  -28.1400  -19.8990   19.7880 C   0  0  0  0  0  0  0  0  0  0  0  0
  -26.9780  -20.3160   19.2300 F   0  0  0  0  0  0  0  0  0  0  0  0
  -30.4540  -15.0770   20.3020 C   0  0  0  0  0  0  0  0  0  0  0  0
  -30.4060  -12.7030   19.3590 C   0  0  0  0  0  2  0  0  0  0  0  0
  -29.4600  -12.6290   18.1360 C   0  0  0  0  0  2  0  0  0  0  0  0
  -28.0000  -12.4020   18.5760 C   0  0  0  0  0  2  0  0  0  0  0  0
  -27.5900  -13.3190   19.7550 C   0  0  0  0  0  3  0  0  0  0  0  0
  -28.6530  -13.3380   20.8730 C   0  0  0  0  0  2  0  0  0  0  0  0
  -29.9100  -13.7870   20.2570 N   0  0  0  0  0  0  0  0  0  0  0  0
  -31.6600  -15.1790   20.0520 O   0  0  0  0  0  0  0  0  0  0  0  0
  -29.5690  -16.2020   20.4040 N   0  0  0  0  0  0  0  0  0  0  0  0
  -28.6350  -15.8270   20.4650 H   0  0  0  0  0  0  0  0  0  0  0  0
  -25.2120  -13.8880   20.5080 C   0  0  0  0  0  0  0  0  0  0  0  0
  -24.1520  -13.1070   20.8790 C   0  0  0  0  0  0  0  0  0  0  0  0
  -24.6220  -11.7580   20.8420 C   0  0  0  0  0  0  0  0  0  0  0  0
  -26.2570  -13.0130   20.2600 N   0  0  0  0  0  0  0  0  0  0  0  0
  -25.9130  -11.7270   20.5290 N   0  0  0  0  0  0  0  0  0  0  0  0
  -23.8990  -10.4930   21.0290 C   0  0  0  0  0  0  0  0  0  0  0  0
  -24.3270   -9.5290   21.9680 C   0  0  0  0  0  3  0  0  0  0  0  0
  -23.6040   -8.3300   22.1430 C   0  0  0  0  0  3  0  0  0  0  0  0
  -22.4390   -8.0860   21.3770 C   0  0  0  0  0  0  0  0  0  0  0  0
  -22.0300   -9.0380   20.4280 C   0  0  0  0  0  3  0  0  0  0  0  0
  -22.7540  -10.2290   20.2510 C   0  0  0  0  0  3  0  0  0  0  0  0
  -21.6870   -6.9390   21.4620 O   0  0  0  0  0  0  0  0  0  0  0  0
  -21.6170   -6.2070   22.6210 C   0  0  0  0  0  0  0  0  0  0  0  0
  -21.1360   -6.7670   23.8260 C   0  0  0  0  0  3  0  0  0  0  0  0
  -21.0130   -5.9620   24.9760 C   0  0  0  0  0  3  0  0  0  0  0  0
  -21.3630   -4.5980   24.9220 C   0  0  0  0  0  0  0  0  0  0  0  0
  -21.8370   -4.0390   23.7230 C   0  0  0  0  0  3  0  0  0  0  0  0
  -21.9600   -4.8410   22.5750 C   0  0  0  0  0  0  0  0  0  0  0  0
  -22.3970   -4.2930   21.4150 F   0  0  0  0  0  0  0  0  0  0  0  0
  -21.2370   -3.8230   26.0240 F   0  0  0  0  0  0  0  0  0  0  0  0
  -22.7540  -13.5790   21.1530 C   0  0  0  0  0  0  0  0  0  0  0  0
  -22.0280  -12.8790   22.0170 N   0  0  0  0  0  0  0  0  0  0  0  0
  -22.3140  -14.6050   20.6350 O   0  0  0  0  0  0  0  0  0  0  0  0
  -22.3990  -12.0490   22.4570 H   0  0  0  0  0  0  0  0  0  0  0  0
  -21.0910  -13.1790   22.2430 H   0  0  0  0  0  0  0  0  0  0  0  0
  -25.3670  -15.2600   20.3320 N   0  0  0  0  0  0  0  0  0  0  0  0
  -24.5890  -15.9020   20.4420 H   0  0  0  0  0  0  0  0  0  0  0  0
  -26.1840  -15.6980   19.9310 H   0  0  0  0  0  0  0  0  0  0  0  0
  -27.9050  -23.3850   19.5320 C   0  0  0  0  0  2  0  0  0  0  0  0
  -29.2920  -23.6360   21.0510 C   0  0  0  0  0  2  0  0  0  0  0  0
  -28.1030  -24.6160   20.5600 C   0  0  0  0  0  3  0  0  0  0  0  0
  -28.6060  -22.4400   20.4700 N   0  0  0  0  0  0  0  0  0  0  0  0
  -28.2920  -26.1640   20.2820 O   0  0  0  0  0  0  0  0  0  0  0  0
  -24.6080  -31.9030   23.2060 C   0  0  0  0  0  0  0  0  0  0  0  0
  -27.2230  -27.1440   20.2430 C   0  0  0  0  0  0  0  0  0  0  0  0
  -23.4310  -30.5020   21.5540 C   0  0  0  0  0  3  0  0  0  0  0  0
  -24.8980  -28.9090   20.1610 C   0  0  0  0  0  0  0  0  0  0  0  0
  -25.9890  -30.7570   21.4260 C   0  0  0  0  0  2  0  0  0  0  0  0
  -26.0710  -29.3570   20.7820 C   0  0  0  0  0  0  0  0  0  0  0  0
  -27.2360  -28.4930   20.7960 C   0  0  0  0  0  3  0  0  0  0  0  0
  -26.0200  -26.7970   19.5930 C   0  0  0  0  0  3  0  0  0  0  0  0
  -24.8880  -27.6440   19.5490 C   0  0  0  0  0  3  0  0  0  0  0  0
  -23.6730  -29.8140   20.1830 C   0  0  0  0  0  2  0  0  0  0  0  0
  -24.6960  -31.0770   22.1180 N   0  0  0  0  0  0  0  0  0  0  0  0
  -23.5140  -32.1910   23.7170 O   0  0  0  0  0  0  0  0  0  0  0  0
  -22.7340  -29.5040   22.5120 C   0  0  0  0  0  0  0  0  0  0  0  0
  -21.4050  -29.3470   22.3780 N   0  0  0  0  0  0  0  0  0  0  0  0
  -23.3920  -28.8710   23.3400 O   0  0  0  0  0  0  0  0  0  0  0  0
  -20.9290  -29.9100   21.6870 H   0  0  0  0  0  0  0  0  0  0  0  0
  -18.0030  -28.2020   22.8830 C   0  0  0  0  0  0  0  0  0  0  0  0
  -20.5690  -28.4160   23.1410 C   0  0  0  0  0  3  0  0  0  0  0  0
  -20.6410  -26.9890   22.5490 C   0  0  0  0  0  2  0  0  0  0  0  0
  -19.5300  -26.6980   21.5370 C   0  0  0  0  0  2  0  0  0  0  0  0
  -18.1530  -26.8590   22.1890 C   0  0  0  0  0  2  0  0  0  0  0  0
  -19.1380  -28.9390   23.3170 C   0  0  0  0  0  0  0  0  0  0  0  0
  -18.9430  -30.1970   23.9280 C   0  0  0  0  0  3  0  0  0  0  0  0
  -17.6470  -30.7160   24.1100 C   0  0  0  0  0  3  0  0  0  0  0  0
  -16.5280  -29.9760   23.6900 C   0  0  0  0  0  3  0  0  0  0  0  0
  -16.7070  -28.7200   23.0840 C   0  0  0  0  0  3  0  0  0  0  0  0
  -25.8770  -32.5400   23.8520 C   0  0  0  0  0  3  0  0  0  0  0  0
  -26.3700  -31.7710   25.1400 C   0  0  1  0  0  0  0  0  0  0  0  0
  -25.2590  -31.5350   26.1890 C   0  0  0  0  0  1  0  0  0  0  0  0
  -26.9610  -30.3930   24.7640 C   0  0  0  0  0  1  0  0  0  0  0  0
  -27.5070  -32.5670   25.8210 C   0  0  0  0  0  1  0  0  0  0  0  0
  -25.5570  -33.9390   24.1840 N   0  0  0  0  0  0  0  0  0  0  0  0
  -25.8820  -34.9980   23.4310 C   0  0  0  0  0  0  0  0  0  0  0  0
  -26.5460  -34.9010   22.3960 O   0  0  0  0  0  0  0  0  0  0  0  0
  -24.9630  -34.0870   24.9870 H   0  0  0  0  0  0  0  0  0  0  0  0
  -24.1380  -36.7850   23.1060 C   0  0  0  0  0  1  0  0  0  0  0  0
  -25.3940  -36.3840   23.8970 C   0  0  0  0  0  3  0  0  0  0  0  0
  -27.5340  -37.2870   24.6980 C   0  0  0  0  0  1  0  0  0  0  0  0
  -26.4180  -37.4440   23.7690 N   0  0  0  0  0  0  0  0  0  0  0  0
  -26.0080  -38.3620   23.9190 H   0  0  0  0  0  0  0  0  0  0  0  0
  2  1  1  0
  3  6  2  0
  3  5  1  0
  4 49  1  0
  4  1  2  0
  5 16  1  0
  5  2  2  0
  6  4  1  0
  7  6  1  0
  8 16  1  0
  9 14  1  0
 10 11  1  0
 10  9  1  0
 12 11  1  0
 12 21  1  0
 12 13  1  0
 14  8  1  0
 14 13  1  0
 15  8  2  0
 16 17  1  0
 18 19  2  0
 19 38  1  0
 20 19  1  0
 20 23  1  0
 21 18  1  0
 21 22  1  0
 22 20  2  0
 23 24  1  0
 24 25  2  0
 26 29  1  0
 26 25  1  0
 27 26  2  0
 28 27  1  0
 28 23  2  0
 29 30  1  0
 30 31  1  0
 31 32  2  0
 33 32  1  0
 33 37  1  0
 34 33  2  0
 35 30  2  0
 35 34  1  0
 36 35  1  0
 38 39  1  0
 39 42  1  0
 39 41  1  0
 40 38  2  0
 43 44  1  0
 43 18  1  0
 45 43  1  0
 46 49  1  0
 46 48  1  0
 48 50  1  0
 48 47  1  0
 49 47  1  0
 51 62  2  0
 52 50  1  0
 52 57  1  0
 53 61  1  0
 53 63  1  0
 54 60  1  0
 54 56  1  0
 55 61  1  0
 56 57  2  0
 56 55  1  0
 58 52  2  0
 59 58  1  0
 59 54  2  0
 60 53  1  0
 61 51  1  0
 63 65  2  0
 64 63  1  0
 66 64  1  0
 67 76  2  0
 67 72  1  0
 68 64  1  0
 68 72  1  0
 69 68  1  0
 70 71  1  0
 70 69  1  0
 71 67  1  0
 72 73  2  0
 73 74  1  0
 75 74  2  0
 76 75  1  0
 77 51  1  0
 77 82  1  0
 77 78  1  0
 78 81  1  1
 78 79  1  0
 80 78  1  0
 82 85  1  0
 83 87  1  0
 83 82  1  0
 84 83  2  0
 87 86  1  0
 89 87  1  0
 89 90  1  0
 89 88  1  0
M  ISO  4   8 100  16 100  48 101  50 101
M  END
>  <TORSDO>  (65) 
F 17

>  <SCORE>  (65) 
-15.268

>  <name>  (65) 
65

>  <ligand_id>  (65) 
65

>  <original_smiles>  (65) 
[H]c1c([H])c([H])c2c(c1[H])C([H])([H])C([H])([H])C([H])([H])C2([H])N([H])C(=O)C1([H])N(C(=O)C([H])(N([H])C(=O)C([H])(N([H])C([H])([H])[H])C([H])([H])[H])C(C([H])([H])[H])(C([H])([H])[H])C([H])([H])[H])C([H])([H])c2c([H])c(OC3([H])C([H])([H])N(c4c([H])c([H])c(N([H])C(=O)N5C([H])([H])C([H])([H])C([H])([H])C([H])(n6nc(-c7c([H])c([H])c(Oc8c([H])c([H])c(F)c([H])c8F)c([H])c7[H])c(C(=O)N([H])[H])c6N([H])[H])C5([H])[H])c([H])c4F)C3([H])[H])c([H])c([H])c2C1([H])[H]

>  <smiles>  (65) 
[H]c1c([H])c([H])c2c(c1[H])C([H])([H])C([H])([H])C([H])([H])C2([H])N([H])C(=O)C1([H])N(C(=O)C([H])(N([H])C(=O)C([H])(N([H])C([H])([H])[H])C([H])([H])[H])C(C([H])([H])[H])(C([H])([H])[H])C([H])([H])[H])C([H])([H])c2c([H])c(OC3([H])C([H])([H])N(c4c([H])c([H])c(N([H])C(=O)N5C([H])([H])C([H])([H])C([H])([H])C([H])(n6nc(-c7c([H])c([H])c(Oc8c([H])c([H])c(F)c([H])c8F)c([H])c7[H])c(C(=O)N([H])[H])c6N([H])[H])C5([H])[H])c([H])c4F)C3([H])[H])c([H])c([H])c2C1([H])[H]

$$$$
66:0:0
     RDKit          3D

 99109  0  0  1  0  0  0  0  0999 V2000
  -28.2960  -17.7150   20.3900 C   0  0  0  0  0  3  0  0  0  0  0  0
  -27.3670  -18.6460   19.9100 C   0  0  0  0  0  3  0  0  0  0  0  0
  -29.5510  -18.1250   20.8580 C   0  0  0  0  0  0  0  0  0  0  0  0
  -29.8130  -19.5380   20.9050 C   0  0  0  0  0  0  0  0  0  0  0  0
  -28.8200  -20.5170   20.4880 C   0  0  0  0  0  0  0  0  0  0  0  0
  -27.6000  -20.0410   19.8780 C   0  0  0  0  0  0  0  0  0  0  0  0
  -31.1680  -19.9780   21.4620 C   0  0  0  0  0  1  0  0  0  0  0  0
  -25.1950  -22.5370   18.3210 C   0  0  0  0  0  2  0  0  0  0  0  0
  -25.3210  -21.4310   17.2900 C   0  0  0  0  0  2  0  0  0  0  0  0
  -26.3840  -22.2650   19.2440 C   0  0  0  0  0  2  0  0  0  0  0  0
  -25.8130  -20.2580   18.1280 C   0  0  0  0  0  2  0  0  0  0  0  0
  -26.5580  -20.8150   19.2670 N   0  0  0  0  0  0  0  0  0  0  0  0
  -30.5550  -17.0330   21.3490 C   0  0  0  0  0  2  0  0  0  0  0  0
  -30.8500  -14.5950   20.6500 C   0  0  0  0  0  0  0  0  0  0  0  0
  -30.5180  -12.5480   19.2980 C   0  0  0  0  0  2  0  0  0  0  0  0
  -29.6040  -12.8920   18.0980 C   0  0  0  0  0  2  0  0  0  0  0  0
  -28.1200  -12.7660   18.5000 C   0  0  0  0  0  2  0  0  0  0  0  0
  -27.7930  -13.5030   19.8280 C   0  0  0  0  0  3  0  0  0  0  0  0
  -28.8120  -13.1280   20.9260 C   0  0  0  0  0  2  0  0  0  0  0  0
  -30.1550  -13.4460   20.4100 N   0  0  0  0  0  0  0  0  0  0  0  0
  -31.9980  -14.7730   20.2260 O   0  0  0  0  0  0  0  0  0  0  0  0
  -30.1470  -15.6040   21.2260 N   0  0  0  0  0  0  0  0  0  0  0  0
  -29.2240  -15.3680   21.5550 H   0  0  0  0  0  0  0  0  0  0  0  0
  -25.3840  -14.1560   20.4440 C   0  0  0  0  0  0  0  0  0  0  0  0
  -24.2940  -13.4080   20.7850 C   0  0  0  0  0  0  0  0  0  0  0  0
  -24.7340  -12.0470   20.7820 C   0  0  0  0  0  0  0  0  0  0  0  0
  -26.4200  -13.2560   20.2590 N   0  0  0  0  0  0  0  0  0  0  0  0
  -26.0300  -11.9820   20.5170 N   0  0  0  0  0  0  0  0  0  0  0  0
  -23.9820  -10.7990   20.9540 C   0  0  0  0  0  0  0  0  0  0  0  0
  -24.4030   -9.8010   21.8620 C   0  0  0  0  0  3  0  0  0  0  0  0
  -23.6530   -8.6170   22.0210 C   0  0  0  0  0  3  0  0  0  0  0  0
  -22.4680   -8.4200   21.2730 C   0  0  0  0  0  0  0  0  0  0  0  0
  -22.0650   -9.4070   20.3550 C   0  0  0  0  0  3  0  0  0  0  0  0
  -22.8160  -10.5820   20.1930 C   0  0  0  0  0  3  0  0  0  0  0  0
  -21.6900   -7.2910   21.3420 O   0  0  0  0  0  0  0  0  0  0  0  0
  -21.6790   -6.4940   22.4590 C   0  0  0  0  0  0  0  0  0  0  0  0
  -21.3750   -7.0070   23.7390 C   0  0  0  0  0  3  0  0  0  0  0  0
  -21.3060   -6.1400   24.8460 C   0  0  0  0  0  3  0  0  0  0  0  0
  -21.5310   -4.7600   24.6760 C   0  0  0  0  0  0  0  0  0  0  0  0
  -21.8290   -4.2470   23.4010 C   0  0  0  0  0  3  0  0  0  0  0  0
  -21.8980   -5.1120   22.2960 C   0  0  0  0  0  0  0  0  0  0  0  0
  -22.1630   -4.6090   21.0660 F   0  0  0  0  0  0  0  0  0  0  0  0
  -21.4610   -3.9250   25.7390 F   0  0  0  0  0  0  0  0  0  0  0  0
  -22.8990  -13.9110   21.0080 C   0  0  0  0  0  0  0  0  0  0  0  0
  -22.1570  -13.2760   21.9050 N   0  0  0  0  0  0  0  0  0  0  0  0
  -22.4780  -14.9100   20.4230 O   0  0  0  0  0  0  0  0  0  0  0  0
  -22.5180  -12.4700   22.3940 H   0  0  0  0  0  0  0  0  0  0  0  0
  -21.2200  -13.5940   22.1050 H   0  0  0  0  0  0  0  0  0  0  0  0
  -25.5750  -15.5240   20.2530 N   0  0  0  0  0  0  0  0  0  0  0  0
  -24.7920  -16.1660   20.2930 H   0  0  0  0  0  0  0  0  0  0  0  0
  -26.4100  -15.9400   19.8630 H   0  0  0  0  0  0  0  0  0  0  0  0
  -28.9640  -22.0070   20.9380 C   0  0  0  0  0  2  0  0  0  0  0  0
  -29.7800  -24.9610   18.7130 C   0  0  0  0  0  2  0  0  0  0  0  0
  -29.8820  -23.4510   19.0200 C   0  0  0  0  0  2  0  0  0  0  0  0
  -28.3750  -24.4390   20.6040 C   0  0  0  0  0  2  0  0  0  0  0  0
  -29.3280  -25.5220   20.0600 C   0  0  0  0  0  3  0  0  0  0  0  0
  -28.7740  -23.1380   19.9620 N   0  0  2  0  0  4  0  0  0  0  0  0
  -27.9940  -22.8570   19.3870 H   0  0  0  0  0  0  0  0  0  0  0  0
  -29.0370  -26.9370   20.2080 O   0  0  0  0  0  0  0  0  0  0  0  0
  -24.6410  -31.6520   23.2210 C   0  0  0  0  0  0  0  0  0  0  0  0
  -27.7760  -27.5000   20.1640 C   0  0  0  0  0  0  0  0  0  0  0  0
  -23.6240  -30.1920   21.5000 C   0  0  0  0  0  3  0  0  0  0  0  0
  -25.2590  -28.8070   20.1040 C   0  0  0  0  0  0  0  0  0  0  0  0
  -26.1130  -30.7620   21.4140 C   0  0  0  0  0  2  0  0  0  0  0  0
  -26.3380  -29.4130   20.7560 C   0  0  0  0  0  0  0  0  0  0  0  0
  -27.5950  -28.7620   20.7840 C   0  0  0  0  0  3  0  0  0  0  0  0
  -26.6780  -26.9110   19.5000 C   0  0  0  0  0  3  0  0  0  0  0  0
  -25.4250  -27.5600   19.4720 C   0  0  0  0  0  3  0  0  0  0  0  0
  -23.9440  -29.5560   20.1170 C   0  0  0  0  0  2  0  0  0  0  0  0
  -24.8060  -30.8860   22.1050 N   0  0  0  0  0  0  0  0  0  0  0  0
  -23.5180  -31.8200   23.7220 O   0  0  0  0  0  0  0  0  0  0  0  0
  -23.0210  -29.1010   22.4150 C   0  0  0  0  0  0  0  0  0  0  0  0
  -21.7230  -28.8150   22.2310 N   0  0  0  0  0  0  0  0  0  0  0  0
  -23.7220  -28.5140   23.2430 O   0  0  0  0  0  0  0  0  0  0  0  0
  -21.2130  -29.3470   21.5390 H   0  0  0  0  0  0  0  0  0  0  0  0
  -18.4560  -27.3050   22.5440 C   0  0  0  0  0  0  0  0  0  0  0  0
  -20.9600  -27.7930   22.9460 C   0  0  0  0  0  3  0  0  0  0  0  0
  -21.2260  -26.3890   22.3580 C   0  0  0  0  0  2  0  0  0  0  0  0
  -20.2100  -25.9840   21.2850 C   0  0  0  0  0  2  0  0  0  0  0  0
  -18.7930  -25.9920   21.8570 C   0  0  0  0  0  2  0  0  0  0  0  0
  -19.4750  -28.1600   23.0400 C   0  0  0  0  0  0  0  0  0  0  0  0
  -19.1100  -29.3860   23.6380 C   0  0  0  0  0  3  0  0  0  0  0  0
  -17.7570  -29.7620   23.7410 C   0  0  0  0  0  3  0  0  0  0  0  0
  -16.7520  -28.9050   23.2590 C   0  0  0  0  0  3  0  0  0  0  0  0
  -17.1020  -27.6780   22.6680 C   0  0  0  0  0  3  0  0  0  0  0  0
  -25.8430  -32.3730   23.9090 C   0  0  0  0  0  3  0  0  0  0  0  0
  -26.2930  -31.6860   25.2570 C   0  0  1  0  0  0  0  0  0  0  0  0
  -25.1340  -31.4600   26.2570 C   0  0  0  0  0  1  0  0  0  0  0  0
  -26.9500  -30.3150   24.9770 C   0  0  0  0  0  1  0  0  0  0  0  0
  -27.3690  -32.5510   25.9560 C   0  0  0  0  0  1  0  0  0  0  0  0
  -25.4480  -33.7680   24.1480 N   0  0  0  0  0  0  0  0  0  0  0  0
  -25.8410  -34.8080   23.3990 C   0  0  0  0  0  0  0  0  0  0  0  0
  -26.6420  -34.6960   22.4660 O   0  0  0  0  0  0  0  0  0  0  0  0
  -24.7470  -33.9250   24.8580 H   0  0  0  0  0  0  0  0  0  0  0  0
  -24.1170  -36.5230   22.7530 C   0  0  0  0  0  1  0  0  0  0  0  0
  -25.2520  -36.1930   23.7360 C   0  0  0  0  0  3  0  0  0  0  0  0
  -27.2360  -37.1760   24.7990 C   0  0  0  0  0  1  0  0  0  0  0  0
  -26.2570  -37.2790   23.7190 N   0  0  0  0  0  0  0  0  0  0  0  0
  -25.8060  -38.1880   23.7840 H   0  0  0  0  0  0  0  0  0  0  0  0
  1  3  1  0
  2  1  2  0
  3  4  2  0
  3 13  1  0
  4  7  1  0
  5  4  1  0
  5 52  1  0
  6  2  1  0
  6  5  2  0
  8 10  1  0
  9 11  1  0
  9  8  1  0
 10 12  1  0
 11 12  1  0
 12  6  1  0
 14 22  1  0
 15 20  1  0
 16 17  1  0
 16 15  1  0
 18 17  1  0
 18 27  1  0
 18 19  1  0
 20 14  1  0
 20 19  1  0
 21 14  2  0
 22 13  1  0
 22 23  1  0
 24 25  2  0
 25 44  1  0
 26 25  1  0
 26 29  1  0
 27 24  1  0
 27 28  1  0
 28 26  2  0
 29 30  1  0
 30 31  2  0
 32 35  1  0
 32 31  1  0
 33 32  2  0
 34 33  1  0
 34 29  2  0
 35 36  1  0
 36 37  1  0
 37 38  2  0
 39 38  1  0
 39 43  1  0
 40 39  2  0
 41 36  2  0
 41 40  1  0
 42 41  1  0
 44 45  1  0
 45 48  1  0
 45 47  1  0
 46 44  2  0
 49 50  1  0
 49 24  1  0
 51 49  1  0
 53 54  1  0
 53 56  1  0
 54 57  1  0
 56 59  1  0
 56 55  1  0
 57 55  1  0
 57 52  1  0
 57 58  1  6
 60 71  2  0
 61 59  1  0
 61 66  1  0
 62 70  1  0
 62 72  1  0
 63 69  1  0
 63 65  1  0
 64 70  1  0
 65 66  2  0
 65 64  1  0
 67 61  2  0
 68 67  1  0
 68 63  2  0
 69 62  1  0
 70 60  1  0
 72 74  2  0
 73 72  1  0
 75 73  1  0
 76 85  2  0
 76 81  1  0
 77 73  1  0
 77 81  1  0
 78 77  1  0
 79 80  1  0
 79 78  1  0
 80 76  1  0
 81 82  2  0
 82 83  1  0
 84 83  2  0
 85 84  1  0
 86 60  1  0
 86 91  1  0
 86 87  1  0
 87 90  1  1
 87 88  1  0
 89 87  1  0
 91 94  1  0
 92 96  1  0
 92 91  1  0
 93 92  2  0
 96 95  1  0
 98 96  1  0
 98 99  1  0
 98 97  1  0
M  ISO  4  14 100  22 100  56 101  59 101
M  END
>  <TORSDO>  (66) 
F 20

>  <SCORE>  (66) 
-13.219

>  <name>  (66) 
66

>  <ligand_id>  (66) 
66

>  <original_smiles>  (66) 
[H]c1c([H])c([H])c2c(c1[H])C([H])([H])C([H])([H])C([H])([H])C2([H])N([H])C(=O)C1([H])N(C(=O)C([H])(N([H])C(=O)C([H])(N([H])C([H])([H])[H])C([H])([H])[H])C(C([H])([H])[H])(C([H])([H])[H])C([H])([H])[H])C([H])([H])c2c([H])c(OC3([H])C([H])([H])C([H])([H])[N+]([H])(C([H])([H])c4c(N5C([H])([H])C([H])([H])C([H])([H])C5([H])[H])c([H])c([H])c(C([H])([H])N([H])C(=O)N5C([H])([H])C([H])([H])C([H])([H])C([H])(n6nc(-c7c([H])c([H])c(Oc8c([H])c([H])c(F)c([H])c8F)c([H])c7[H])c(C(=O)N([H])[H])c6N([H])[H])C5([H])[H])c4C([H])([H])[H])C3([H])[H])c([H])c([H])c2C1([H])[H]

>  <smiles>  (66) 
[H]c1c([H])c([H])c2c(c1[H])C([H])([H])C([H])([H])C([H])([H])C2([H])N([H])C(=O)C1([H])N(C(=O)C([H])(N([H])C(=O)C([H])(N([H])C([H])([H])[H])C([H])([H])[H])C(C([H])([H])[H])(C([H])([H])[H])C([H])([H])[H])C([H])([H])c2c([H])c(OC3([H])C([H])([H])C([H])([H])[N+]([H])(C([H])([H])c4c(N5C([H])([H])C([H])([H])C([H])([H])C5([H])[H])c([H])c([H])c(C([H])([H])N([H])C(=O)N5C([H])([H])C([H])([H])C([H])([H])C([H])(n6nc(-c7c([H])c([H])c(Oc8c([H])c([H])c(F)c([H])c8F)c([H])c7[H])c(C(=O)N([H])[H])c6N([H])[H])C5([H])[H])c4C([H])([H])[H])C3([H])[H])c([H])c([H])c2C1([H])[H]

$$$$
67:0:0
     RDKit          3D

 94103  0  0  1  0  0  0  0  0999 V2000
  -30.7700  -19.6710   21.0480 C   0  0  0  0  0  3  0  0  0  0  0  0
  -30.2850  -21.0010   20.9480 C   0  0  0  0  0  3  0  0  0  0  0  0
  -30.0610  -18.5450   20.5540 C   0  0  0  0  0  0  0  0  0  0  0  0
  -28.8220  -18.8210   19.9060 C   0  0  0  0  0  0  0  0  0  0  0  0
  -28.3170  -20.1700   19.8170 C   0  0  0  0  0  0  0  0  0  0  0  0
  -29.0370  -21.2910   20.3520 C   0  0  0  0  0  0  0  0  0  0  0  0
  -28.0480  -17.6530   19.3090 C   0  0  0  0  0  1  0  0  0  0  0  0
  -26.9710  -20.4060   19.1280 C   0  0  0  0  0  1  0  0  0  0  0  0
  -28.3640  -23.6570   22.5450 C   0  0  0  0  0  2  0  0  0  0  0  0
  -29.4640  -24.3160   21.7040 C   0  0  0  0  0  2  0  0  0  0  0  0
  -27.6110  -22.7310   21.5830 C   0  0  0  0  0  2  0  0  0  0  0  0
  -29.1400  -23.9280   20.2570 C   0  0  0  0  0  3  0  0  0  0  0  0
  -28.4510  -22.6040   20.3910 N   0  0  0  0  0  0  0  0  0  0  0  0
  -28.2120  -25.0400   19.5870 C   0  0  0  0  0  2  0  0  0  0  0  0
  -28.4580  -26.4910   19.7390 O   0  0  0  0  0  0  0  0  0  0  0  0
  -24.6000  -31.6310   23.0000 C   0  0  0  0  0  0  0  0  0  0  0  0
  -27.3250  -27.3220   19.7090 C   0  0  0  0  0  0  0  0  0  0  0  0
  -23.4270  -30.2720   21.3060 C   0  0  0  0  0  3  0  0  0  0  0  0
  -24.9120  -28.8500   19.7920 C   0  0  0  0  0  0  0  0  0  0  0  0
  -25.9520  -30.6860   21.1180 C   0  0  0  0  0  2  0  0  0  0  0  0
  -26.0700  -29.3460   20.4050 C   0  0  0  0  0  0  0  0  0  0  0  0
  -27.2800  -28.5920   20.3590 C   0  0  0  0  0  3  0  0  0  0  0  0
  -26.1460  -26.8930   19.0530 C   0  0  0  0  0  3  0  0  0  0  0  0
  -24.9510  -27.6290   19.1080 C   0  0  0  0  0  3  0  0  0  0  0  0
  -23.6470  -29.6760   19.8920 C   0  0  0  0  0  2  0  0  0  0  0  0
  -24.6780  -30.8770   21.8650 N   0  0  0  0  0  0  0  0  0  0  0  0
  -23.5140  -31.8480   23.5540 O   0  0  0  0  0  0  0  0  0  0  0  0
  -22.8080  -29.1880   22.2190 C   0  0  0  0  0  0  0  0  0  0  0  0
  -21.4830  -28.9920   22.1110 N   0  0  0  0  0  0  0  0  0  0  0  0
  -23.5170  -28.5300   22.9840 O   0  0  0  0  0  0  0  0  0  0  0  0
  -20.9690  -29.5770   21.4670 H   0  0  0  0  0  0  0  0  0  0  0  0
  -18.1350  -27.7270   22.6380 C   0  0  0  0  0  0  0  0  0  0  0  0
  -20.6980  -27.9990   22.8460 C   0  0  0  0  0  3  0  0  0  0  0  0
  -20.7960  -26.6070   22.1810 C   0  0  0  0  0  2  0  0  0  0  0  0
  -19.6660  -26.3350   21.1820 C   0  0  0  0  0  2  0  0  0  0  0  0
  -18.3040  -26.4240   21.8760 C   0  0  0  0  0  2  0  0  0  0  0  0
  -19.2590  -28.4740   23.0810 C   0  0  0  0  0  0  0  0  0  0  0  0
  -19.0470  -29.6950   23.7560 C   0  0  0  0  0  3  0  0  0  0  0  0
  -17.7430  -30.1700   23.9920 C   0  0  0  0  0  3  0  0  0  0  0  0
  -16.6340  -29.4200   23.5660 C   0  0  0  0  0  3  0  0  0  0  0  0
  -16.8310  -28.2000   22.8950 C   0  0  0  0  0  3  0  0  0  0  0  0
  -25.8690  -32.2740   23.6400 C   0  0  0  0  0  3  0  0  0  0  0  0
  -26.4270  -31.4550   24.8680 C   0  0  1  0  0  0  0  0  0  0  0  0
  -25.3570  -31.1290   25.9370 C   0  0  0  0  0  1  0  0  0  0  0  0
  -27.0460  -30.1170   24.3990 C   0  0  0  0  0  1  0  0  0  0  0  0
  -27.5620  -32.2500   25.5550 C   0  0  0  0  0  1  0  0  0  0  0  0
  -25.5150  -33.6410   24.0470 N   0  0  0  0  0  0  0  0  0  0  0  0
  -25.7910  -34.7430   23.3360 C   0  0  0  0  0  0  0  0  0  0  0  0
  -26.4430  -34.7160   22.2880 O   0  0  0  0  0  0  0  0  0  0  0  0
  -24.9300  -33.7320   24.8640 H   0  0  0  0  0  0  0  0  0  0  0  0
  -23.9830  -36.4770   23.1180 C   0  0  0  0  0  1  0  0  0  0  0  0
  -25.2630  -36.0860   23.8730 C   0  0  0  0  0  3  0  0  0  0  0  0
  -27.3850  -37.0180   24.6840 C   0  0  0  0  0  1  0  0  0  0  0  0
  -26.2500  -37.1850   23.7820 N   0  0  0  0  0  0  0  0  0  0  0  0
  -25.8120  -38.0800   23.9850 H   0  0  0  0  0  0  0  0  0  0  0  0
  -30.7740  -17.1450   20.6810 C   0  0  0  0  0  2  0  0  0  0  0  0
  -30.7350  -14.6400   20.4150 C   0  0  0  0  0  0  0  0  0  0  0  0
  -30.4020  -12.4170   19.3740 C   0  0  0  0  0  2  0  0  0  0  0  0
  -29.4790  -12.5540   18.1470 C   0  0  0  0  0  2  0  0  0  0  0  0
  -28.0050  -12.4250   18.5710 C   0  0  0  0  0  2  0  0  0  0  0  0
  -27.6520  -13.3160   19.7930 C   0  0  0  0  0  3  0  0  0  0  0  0
  -28.7050  -13.1950   20.9190 C   0  0  0  0  0  2  0  0  0  0  0  0
  -30.0210  -13.4750   20.3320 N   0  0  0  0  0  0  0  0  0  0  0  0
  -31.9090  -14.6850   20.0410 O   0  0  0  0  0  0  0  0  0  0  0  0
  -30.0900  -15.8050   20.7310 N   0  0  0  0  0  0  0  0  0  0  0  0
  -29.1230  -15.7650   21.0100 H   0  0  0  0  0  0  0  0  0  0  0  0
  -25.2690  -13.9430   20.5150 C   0  0  0  0  0  0  0  0  0  0  0  0
  -24.1900  -13.1860   20.8800 C   0  0  0  0  0  0  0  0  0  0  0  0
  -24.6300  -11.8280   20.8390 C   0  0  0  0  0  0  0  0  0  0  0  0
  -26.3010  -13.0500   20.2770 N   0  0  0  0  0  0  0  0  0  0  0  0
  -25.9210  -11.7700   20.5340 N   0  0  0  0  0  0  0  0  0  0  0  0
  -23.8810  -10.5770   21.0160 C   0  0  0  0  0  0  0  0  0  0  0  0
  -24.3040   -9.5850   21.9280 C   0  0  0  0  0  3  0  0  0  0  0  0
  -23.5550   -8.4010   22.0950 C   0  0  0  0  0  3  0  0  0  0  0  0
  -22.3680   -8.2000   21.3490 C   0  0  0  0  0  0  0  0  0  0  0  0
  -21.9640   -9.1810   20.4270 C   0  0  0  0  0  3  0  0  0  0  0  0
  -22.7130  -10.3570   20.2590 C   0  0  0  0  0  3  0  0  0  0  0  0
  -21.5910   -7.0700   21.4280 O   0  0  0  0  0  0  0  0  0  0  0  0
  -21.5540   -6.2980   22.5610 C   0  0  0  0  0  0  0  0  0  0  0  0
  -21.1830   -6.8320   23.8140 C   0  0  0  0  0  3  0  0  0  0  0  0
  -21.0920   -5.9880   24.9390 C   0  0  0  0  0  3  0  0  0  0  0  0
  -21.3620   -4.6120   24.8120 C   0  0  0  0  0  0  0  0  0  0  0  0
  -21.7260   -4.0780   23.5640 C   0  0  0  0  0  3  0  0  0  0  0  0
  -21.8190   -4.9190   22.4410 C   0  0  0  0  0  0  0  0  0  0  0  0
  -22.1510   -4.3960   21.2360 F   0  0  0  0  0  0  0  0  0  0  0  0
  -21.2660   -3.8000   25.8910 F   0  0  0  0  0  0  0  0  0  0  0  0
  -22.8010  -13.6870   21.1510 C   0  0  0  0  0  0  0  0  0  0  0  0
  -22.0610  -13.0020   22.0150 N   0  0  0  0  0  0  0  0  0  0  0  0
  -22.3820  -14.7210   20.6330 O   0  0  0  0  0  0  0  0  0  0  0  0
  -22.4120  -12.1660   22.4570 H   0  0  0  0  0  0  0  0  0  0  0  0
  -21.1280  -13.3200   22.2390 H   0  0  0  0  0  0  0  0  0  0  0  0
  -25.4490  -15.3110   20.3400 N   0  0  0  0  0  0  0  0  0  0  0  0
  -24.6820  -15.9660   20.4310 H   0  0  0  0  0  0  0  0  0  0  0  0
  -26.2830  -15.7250   19.9480 H   0  0  0  0  0  0  0  0  0  0  0  0
  2  1  1  0
  3 56  1  0
  3  1  2  0
  4  3  1  0
  5  4  2  0
  5  6  1  0
  6 13  1  0
  6  2  2  0
  7  4  1  0
  8  5  1  0
 10  9  1  0
 11  9  1  0
 12 14  1  0
 12 13  1  0
 12 10  1  0
 13 11  1  0
 14 15  1  0
 16 27  2  0
 17 15  1  0
 17 22  1  0
 18 26  1  0
 18 28  1  0
 19 25  1  0
 19 21  1  0
 20 26  1  0
 21 20  1  0
 22 21  2  0
 23 24  1  0
 23 17  2  0
 24 19  2  0
 25 18  1  0
 26 16  1  0
 28 30  2  0
 29 28  1  0
 31 29  1  0
 32 41  2  0
 32 37  1  0
 33 29  1  0
 33 37  1  0
 34 33  1  0
 35 36  1  0
 35 34  1  0
 36 32  1  0
 37 38  2  0
 38 39  1  0
 40 39  2  0
 41 40  1  0
 42 16  1  0
 42 47  1  0
 42 43  1  0
 43 46  1  1
 43 44  1  0
 45 43  1  0
 47 50  1  0
 48 52  1  0
 48 47  1  0
 49 48  2  0
 52 51  1  0
 54 52  1  0
 54 55  1  0
 54 53  1  0
 56 65  1  0
 57 65  1  0
 58 63  1  0
 59 60  1  0
 59 58  1  0
 61 60  1  0
 61 70  1  0
 61 62  1  0
 63 57  1  0
 63 62  1  0
 64 57  2  0
 65 66  1  0
 67 68  2  0
 68 87  1  0
 69 68  1  0
 69 72  1  0
 70 67  1  0
 70 71  1  0
 71 69  2  0
 72 73  1  0
 73 74  2  0
 75 78  1  0
 75 74  1  0
 76 75  2  0
 77 76  1  0
 77 72  2  0
 78 79  1  0
 79 80  1  0
 80 81  2  0
 82 81  1  0
 82 86  1  0
 83 82  2  0
 84 79  2  0
 84 83  1  0
 85 84  1  0
 87 88  1  0
 88 91  1  0
 88 90  1  0
 89 87  2  0
 92 93  1  0
 92 67  1  0
 94 92  1  0
M  ISO  4  14 101  15 101  57 100  65 100
M  END
>  <TORSDO>  (67) 
F 19

>  <SCORE>  (67) 
-13.813

>  <name>  (67) 
67

>  <ligand_id>  (67) 
67

>  <original_smiles>  (67) 
[H]c1c([H])c([H])c2c(c1[H])C([H])([H])C([H])([H])C([H])([H])C2([H])N([H])C(=O)C1([H])N(C(=O)C([H])(N([H])C(=O)C([H])(N([H])C([H])([H])[H])C([H])([H])[H])C(C([H])([H])[H])(C([H])([H])[H])C([H])([H])[H])C([H])([H])c2c([H])c(OC([H])([H])C3([H])N(c4c([H])c([H])c(C([H])([H])N([H])C(=O)N5C([H])([H])C([H])([H])C([H])([H])C([H])(n6nc(-c7c([H])c([H])c(Oc8c([H])c([H])c(F)c([H])c8F)c([H])c7[H])c(C(=O)N([H])[H])c6N([H])[H])C5([H])[H])c(C([H])([H])[H])c4C([H])([H])[H])C([H])([H])C([H])([H])C3([H])[H])c([H])c([H])c2C1([H])[H]

>  <smiles>  (67) 
[H]c1c([H])c([H])c2c(c1[H])C([H])([H])C([H])([H])C([H])([H])C2([H])N([H])C(=O)C1([H])N(C(=O)C([H])(N([H])C(=O)C([H])(N([H])C([H])([H])[H])C([H])([H])[H])C(C([H])([H])[H])(C([H])([H])[H])C([H])([H])[H])C([H])([H])c2c([H])c(OC([H])([H])C3([H])N(c4c([H])c([H])c(C([H])([H])N([H])C(=O)N5C([H])([H])C([H])([H])C([H])([H])C([H])(n6nc(-c7c([H])c([H])c(Oc8c([H])c([H])c(F)c([H])c8F)c([H])c7[H])c(C(=O)N([H])[H])c6N([H])[H])C5([H])[H])c(C([H])([H])[H])c4C([H])([H])[H])C([H])([H])C([H])([H])C3([H])[H])c([H])c([H])c2C1([H])[H]

$$$$
68:0:0
     RDKit          3D

 93102  0  0  1  0  0  0  0  0999 V2000
  -30.8080  -22.3800   19.6380 C   0  0  0  0  0  0  0  0  0  0  0  0
  -30.4210  -23.8650   19.6040 C   0  0  0  0  0  2  0  0  0  0  0  0
  -28.6450  -22.4510   20.3740 C   0  0  0  0  0  2  0  0  0  0  0  0
  -29.1190  -23.9590   20.4000 C   0  0  0  0  0  3  0  0  0  0  0  0
  -29.8280  -21.5820   20.1270 N   0  0  0  0  0  0  0  0  0  0  0  0
  -31.9150  -22.0200   19.2270 O   0  0  0  0  0  0  0  0  0  0  0  0
  -31.0600  -19.3340   20.2880 C   0  0  0  0  0  3  0  0  0  0  0  0
  -31.0740  -17.9090   20.3800 C   0  0  0  0  0  3  0  0  0  0  0  0
  -28.6610  -19.3400   20.3450 C   0  0  0  0  0  3  0  0  0  0  0  0
  -29.8560  -20.1050   20.2510 C   0  0  0  0  0  0  0  0  0  0  0  0
  -29.8730  -17.1600   20.4550 C   0  0  0  0  0  0  0  0  0  0  0  0
  -28.6720  -17.9170   20.4410 C   0  0  0  0  0  0  0  0  0  0  0  0
  -27.4920  -17.2540   20.5110 F   0  0  0  0  0  0  0  0  0  0  0  0
  -30.5620  -14.6690   20.1750 C   0  0  0  0  0  0  0  0  0  0  0  0
  -30.3000  -12.4630   19.0630 C   0  0  0  0  0  2  0  0  0  0  0  0
  -29.3060  -12.6290   17.8920 C   0  0  0  0  0  2  0  0  0  0  0  0
  -27.8510  -12.4650   18.3760 C   0  0  0  0  0  2  0  0  0  0  0  0
  -27.5480  -13.2990   19.6500 C   0  0  0  0  0  3  0  0  0  0  0  0
  -28.6500  -13.1020   20.7160 C   0  0  0  0  0  2  0  0  0  0  0  0
  -29.9390  -13.4510   20.0960 N   0  0  0  0  0  0  0  0  0  0  0  0
  -31.7100  -14.8320   19.7530 O   0  0  0  0  0  0  0  0  0  0  0  0
  -29.7670  -15.7070   20.5740 N   0  0  0  0  0  0  0  0  0  0  0  0
  -28.8510  -15.4050   20.8670 H   0  0  0  0  0  0  0  0  0  0  0  0
  -25.1860  -13.8960   20.4690 C   0  0  0  0  0  0  0  0  0  0  0  0
  -24.1280  -13.1200   20.8600 C   0  0  0  0  0  0  0  0  0  0  0  0
  -24.5830  -11.7680   20.7850 C   0  0  0  0  0  0  0  0  0  0  0  0
  -26.2170  -13.0150   20.1800 N   0  0  0  0  0  0  0  0  0  0  0  0
  -25.8610  -11.7300   20.4300 N   0  0  0  0  0  0  0  0  0  0  0  0
  -23.8580  -10.5050   20.9760 C   0  0  0  0  0  0  0  0  0  0  0  0
  -24.2880   -9.5410   21.9130 C   0  0  0  0  0  3  0  0  0  0  0  0
  -23.5620   -8.3430   22.0910 C   0  0  0  0  0  3  0  0  0  0  0  0
  -22.3920   -8.1020   21.3330 C   0  0  0  0  0  0  0  0  0  0  0  0
  -21.9820   -9.0560   20.3840 C   0  0  0  0  0  3  0  0  0  0  0  0
  -22.7080  -10.2450   20.2040 C   0  0  0  0  0  3  0  0  0  0  0  0
  -21.6380   -6.9570   21.4190 O   0  0  0  0  0  0  0  0  0  0  0  0
  -21.5460   -6.2440   22.5880 C   0  0  0  0  0  0  0  0  0  0  0  0
  -21.0470   -6.8200   23.7760 C   0  0  0  0  0  3  0  0  0  0  0  0
  -20.9050   -6.0310   24.9350 C   0  0  0  0  0  3  0  0  0  0  0  0
  -21.2500   -4.6670   24.9060 C   0  0  0  0  0  0  0  0  0  0  0  0
  -21.7420   -4.0900   23.7220 C   0  0  0  0  0  3  0  0  0  0  0  0
  -21.8870   -4.8760   22.5660 C   0  0  0  0  0  0  0  0  0  0  0  0
  -22.3410   -4.3100   21.4220 F   0  0  0  0  0  0  0  0  0  0  0  0
  -21.1060   -3.9070   26.0170 F   0  0  0  0  0  0  0  0  0  0  0  0
  -22.7450  -13.5990   21.1940 C   0  0  0  0  0  0  0  0  0  0  0  0
  -22.0470  -12.8890   22.0730 N   0  0  0  0  0  0  0  0  0  0  0  0
  -22.2930  -14.6370   20.7140 O   0  0  0  0  0  0  0  0  0  0  0  0
  -22.4250  -12.0480   22.4840 H   0  0  0  0  0  0  0  0  0  0  0  0
  -21.1200  -13.1900   22.3390 H   0  0  0  0  0  0  0  0  0  0  0  0
  -25.3470  -15.2700   20.3200 N   0  0  0  0  0  0  0  0  0  0  0  0
  -24.5910  -15.9170   20.5100 H   0  0  0  0  0  0  0  0  0  0  0  0
  -26.2110  -15.7430   20.0870 H   0  0  0  0  0  0  0  0  0  0  0  0
  -28.0840  -25.0640   19.9150 C   0  0  0  0  0  2  0  0  0  0  0  0
  -28.3140  -26.5070   20.1600 O   0  0  0  0  0  0  0  0  0  0  0  0
  -24.5570  -31.8400   23.2430 C   0  0  0  0  0  0  0  0  0  0  0  0
  -27.1930  -27.3540   20.1110 C   0  0  0  0  0  0  0  0  0  0  0  0
  -23.3590  -30.4610   21.5840 C   0  0  0  0  0  3  0  0  0  0  0  0
  -24.8170  -28.9480   20.1310 C   0  0  0  0  0  0  0  0  0  0  0  0
  -25.8950  -30.8010   21.4000 C   0  0  0  0  0  2  0  0  0  0  0  0
  -25.9830  -29.4330   20.7350 C   0  0  0  0  0  0  0  0  0  0  0  0
  -27.1740  -28.6470   20.7170 C   0  0  0  0  0  3  0  0  0  0  0  0
  -26.0020  -26.9290   19.4750 C   0  0  0  0  0  3  0  0  0  0  0  0
  -24.8280  -27.7000   19.4920 C   0  0  0  0  0  3  0  0  0  0  0  0
  -23.5730  -29.8100   20.1930 C   0  0  0  0  0  2  0  0  0  0  0  0
  -24.6230  -31.0490   22.1330 N   0  0  0  0  0  0  0  0  0  0  0  0
  -23.4730  -32.1020   23.7830 O   0  0  0  0  0  0  0  0  0  0  0  0
  -22.7050  -29.4250   22.5280 C   0  0  0  0  0  0  0  0  0  0  0  0
  -21.3780  -29.2460   22.4040 N   0  0  0  0  0  0  0  0  0  0  0  0
  -23.3880  -28.7850   23.3300 O   0  0  0  0  0  0  0  0  0  0  0  0
  -20.8850  -29.8130   21.7280 H   0  0  0  0  0  0  0  0  0  0  0  0
  -18.0020  -28.0540   22.9130 C   0  0  0  0  0  0  0  0  0  0  0  0
  -20.5640  -28.2940   23.1620 C   0  0  0  0  0  3  0  0  0  0  0  0
  -20.6530  -26.8760   22.5540 C   0  0  0  0  0  2  0  0  0  0  0  0
  -19.5390  -26.5810   21.5450 C   0  0  0  0  0  2  0  0  0  0  0  0
  -18.1640  -26.7190   22.2060 C   0  0  0  0  0  2  0  0  0  0  0  0
  -19.1290  -28.8010   23.3480 C   0  0  0  0  0  0  0  0  0  0  0  0
  -18.9220  -30.0520   23.9700 C   0  0  0  0  0  3  0  0  0  0  0  0
  -17.6220  -30.5560   24.1590 C   0  0  0  0  0  3  0  0  0  0  0  0
  -16.5100  -29.8050   23.7400 C   0  0  0  0  0  3  0  0  0  0  0  0
  -16.7000  -28.5570   23.1230 C   0  0  0  0  0  3  0  0  0  0  0  0
  -25.8380  -32.4710   23.8720 C   0  0  0  0  0  3  0  0  0  0  0  0
  -25.5230  -33.8640   24.2150 N   0  0  0  0  0  0  0  0  0  0  0  0
  -25.8310  -34.9240   23.4560 C   0  0  0  0  0  0  0  0  0  0  0  0
  -26.4810  -34.8300   22.4100 O   0  0  0  0  0  0  0  0  0  0  0  0
  -24.9420  -34.0100   25.0280 H   0  0  0  0  0  0  0  0  0  0  0  0
  -24.0730  -36.6970   23.1570 C   0  0  0  0  0  1  0  0  0  0  0  0
  -25.3420  -36.3060   23.9300 C   0  0  0  0  0  3  0  0  0  0  0  0
  -27.4870  -37.2170   24.7050 C   0  0  0  0  0  1  0  0  0  0  0  0
  -26.3590  -37.3700   23.7880 N   0  0  0  0  0  0  0  0  0  0  0  0
  -25.9460  -38.2850   23.9440 H   0  0  0  0  0  0  0  0  0  0  0  0
  -26.3540  -31.6870   25.1410 C   0  0  1  0  0  0  0  0  0  0  0  0
  -25.2580  -31.4340   26.2020 C   0  0  0  0  0  1  0  0  0  0  0  0
  -26.9440  -30.3170   24.7350 C   0  0  0  0  0  1  0  0  0  0  0  0
  -27.4970  -32.4800   25.8160 C   0  0  0  0  0  1  0  0  0  0  0  0
  1  5  1  0
  2  1  1  0
  2  4  1  0
  3  4  1  0
  4 52  1  0
  5 10  1  0
  5  3  1  0
  6  1  2  0
  7  8  1  0
  8 11  2  0
  9 12  2  0
 10  7  2  0
 10  9  1  0
 11 22  1  0
 12 11  1  0
 12 13  1  0
 14 22  1  0
 15 20  1  0
 16 17  1  0
 16 15  1  0
 18 17  1  0
 18 27  1  0
 18 19  1  0
 20 14  1  0
 20 19  1  0
 21 14  2  0
 22 23  1  0
 24 25  2  0
 25 44  1  0
 26 25  1  0
 26 29  1  0
 27 28  1  0
 27 24  1  0
 28 26  2  0
 29 30  1  0
 30 31  2  0
 32 35  1  0
 32 31  1  0
 33 32  2  0
 34 33  1  0
 34 29  2  0
 35 36  1  0
 36 37  1  0
 37 38  2  0
 39 38  1  0
 39 43  1  0
 40 39  2  0
 41 36  2  0
 41 40  1  0
 42 41  1  0
 44 45  1  0
 45 48  1  0
 45 47  1  0
 46 44  2  0
 49 24  1  0
 49 50  1  0
 51 49  1  0
 52 53  1  0
 54 65  2  0
 55 53  1  0
 55 60  1  0
 56 64  1  0
 56 66  1  0
 57 63  1  0
 57 59  1  0
 58 64  1  0
 59 58  1  0
 60 59  2  0
 61 62  1  0
 61 55  2  0
 62 57  2  0
 63 56  1  0
 64 54  1  0
 66 68  2  0
 67 66  1  0
 69 67  1  0
 70 79  2  0
 70 75  1  0
 71 67  1  0
 71 75  1  0
 72 71  1  0
 73 74  1  0
 73 72  1  0
 74 70  1  0
 75 76  2  0
 76 77  1  0
 78 77  2  0
 79 78  1  0
 80 54  1  0
 80 81  1  0
 80 90  1  0
 81 84  1  0
 82 86  1  0
 82 81  1  0
 83 82  2  0
 86 85  1  0
 88 86  1  0
 88 89  1  0
 88 87  1  0
 90 93  1  1
 90 91  1  0
 92 90  1  0
M  ISO  4  14 100  22 100  52 101  53 101
M  END
>  <TORSDO>  (68) 
F 18

>  <SCORE>  (68) 
-14.880

>  <name>  (68) 
68

>  <ligand_id>  (68) 
68

>  <original_smiles>  (68) 
[H]c1c([H])c([H])c2c(c1[H])C([H])([H])C([H])([H])C([H])([H])C2([H])N([H])C(=O)C1([H])N(C(=O)C([H])(N([H])C(=O)C([H])(N([H])C([H])([H])[H])C([H])([H])[H])C(C([H])([H])[H])(C([H])([H])[H])C([H])([H])[H])C([H])([H])c2c([H])c(OC([H])([H])C3([H])C([H])([H])C(=O)N(c4c([H])c([H])c(N([H])C(=O)N5C([H])([H])C([H])([H])C([H])([H])C([H])(n6nc(-c7c([H])c([H])c(Oc8c([H])c([H])c(F)c([H])c8F)c([H])c7[H])c(C(=O)N([H])[H])c6N([H])[H])C5([H])[H])c(F)c4[H])C3([H])[H])c([H])c([H])c2C1([H])[H]

>  <smiles>  (68) 
[H]c1c([H])c([H])c2c(c1[H])C([H])([H])C([H])([H])C([H])([H])C2([H])N([H])C(=O)C1([H])N(C(=O)C([H])(N([H])C(=O)C([H])(N([H])C([H])([H])[H])C([H])([H])[H])C(C([H])([H])[H])(C([H])([H])[H])C([H])([H])[H])C([H])([H])c2c([H])c(OC([H])([H])C3([H])C([H])([H])C(=O)N(c4c([H])c([H])c(N([H])C(=O)N5C([H])([H])C([H])([H])C([H])([H])C([H])(n6nc(-c7c([H])c([H])c(Oc8c([H])c([H])c(F)c([H])c8F)c([H])c7[H])c(C(=O)N([H])[H])c6N([H])[H])C5([H])[H])c(F)c4[H])C3([H])[H])c([H])c([H])c2C1([H])[H]

$$$$
69:0:0
     RDKit          3D

 93102  0  0  1  0  0  0  0  0999 V2000
  -30.4350  -20.2730   20.5000 C   0  0  0  0  0  3  0  0  0  0  0  0
  -30.6680  -18.8130   20.4660 C   0  0  0  0  0  3  0  0  0  0  0  0
  -28.2440  -19.9740   19.9130 C   0  0  0  0  0  3  0  0  0  0  0  0
  -28.4290  -18.5250   19.9080 C   0  0  0  0  0  0  0  0  0  0  0  0
  -29.1970  -20.9920   20.2320 C   0  0  0  0  0  0  0  0  0  0  0  0
  -29.6630  -17.8130   20.1800 C   0  0  0  0  0  0  0  0  0  0  0  0
  -30.5270  -15.0920   19.9430 C   0  0  0  0  0  0  0  0  0  0  0  0
  -30.3780  -12.7420   18.9390 C   0  0  0  0  0  2  0  0  0  0  0  0
  -29.3560  -12.6970   17.7760 C   0  0  0  0  0  2  0  0  0  0  0  0
  -27.9310  -12.4470   18.3040 C   0  0  0  0  0  2  0  0  0  0  0  0
  -27.5920  -13.3340   19.5290 C   0  0  0  0  0  3  0  0  0  0  0  0
  -28.7310  -13.3440   20.5760 C   0  0  0  0  0  2  0  0  0  0  0  0
  -29.9510  -13.8110   19.8950 N   0  0  0  0  0  0  0  0  0  0  0  0
  -31.7060  -15.1780   19.5810 O   0  0  0  0  0  0  0  0  0  0  0  0
  -29.7050  -16.2380   20.2150 N   0  0  0  0  0  0  0  0  0  0  0  0
  -28.7840  -15.8840   20.4290 H   0  0  0  0  0  0  0  0  0  0  0  0
  -25.2510  -13.8480   20.4380 C   0  0  0  0  0  0  0  0  0  0  0  0
  -24.2270  -13.0620   20.8700 C   0  0  0  0  0  0  0  0  0  0  0  0
  -24.7010  -11.7210   20.7630 C   0  0  0  0  0  0  0  0  0  0  0  0
  -26.2940  -12.9990   20.1100 N   0  0  0  0  0  0  0  0  0  0  0  0
  -25.9710  -11.7050   20.3660 N   0  0  0  0  0  0  0  0  0  0  0  0
  -23.9890  -10.4550   20.9540 C   0  0  0  0  0  0  0  0  0  0  0  0
  -24.4430   -9.4870   21.8750 C   0  0  0  0  0  3  0  0  0  0  0  0
  -23.7260   -8.2860   22.0560 C   0  0  0  0  0  3  0  0  0  0  0  0
  -22.5420   -8.0460   21.3180 C   0  0  0  0  0  0  0  0  0  0  0  0
  -22.1080   -9.0050   20.3860 C   0  0  0  0  0  3  0  0  0  0  0  0
  -22.8260  -10.1970   20.2020 C   0  0  0  0  0  3  0  0  0  0  0  0
  -21.7950   -6.8980   21.4110 O   0  0  0  0  0  0  0  0  0  0  0  0
  -21.7140   -6.1880   22.5820 C   0  0  0  0  0  0  0  0  0  0  0  0
  -21.2260   -6.7690   23.7730 C   0  0  0  0  0  3  0  0  0  0  0  0
  -21.0930   -5.9850   24.9360 C   0  0  0  0  0  3  0  0  0  0  0  0
  -21.4390   -4.6210   24.9090 C   0  0  0  0  0  0  0  0  0  0  0  0
  -21.9210   -4.0390   23.7230 C   0  0  0  0  0  3  0  0  0  0  0  0
  -22.0560   -4.8220   22.5630 C   0  0  0  0  0  0  0  0  0  0  0  0
  -22.5010   -4.2520   21.4170 F   0  0  0  0  0  0  0  0  0  0  0  0
  -21.3040   -3.8640   26.0230 F   0  0  0  0  0  0  0  0  0  0  0  0
  -22.8530  -13.5300   21.2500 C   0  0  0  0  0  0  0  0  0  0  0  0
  -22.1920  -12.8160   22.1520 N   0  0  0  0  0  0  0  0  0  0  0  0
  -22.3780  -14.5680   20.7860 O   0  0  0  0  0  0  0  0  0  0  0  0
  -22.5910  -11.9790   22.5490 H   0  0  0  0  0  0  0  0  0  0  0  0
  -21.2730  -13.1120   22.4520 H   0  0  0  0  0  0  0  0  0  0  0  0
  -25.3440  -15.2120   20.2630 N   0  0  0  0  0  0  0  0  0  0  0  0
  -24.5580  -15.8260   20.4410 H   0  0  0  0  0  0  0  0  0  0  0  0
  -26.1130  -15.6810   19.8030 H   0  0  0  0  0  0  0  0  0  0  0  0
  -27.1920  -17.6960   19.6520 C   0  0  1  0  0  0  0  0  0  0  0  0
  -26.0880  -18.4060   19.4150 F   0  0  0  0  0  0  0  0  0  0  0  0
  -27.4140  -16.9050   18.6010 F   0  0  0  0  0  0  0  0  0  0  0  0
  -26.9950  -16.9570   20.7430 F   0  0  0  0  0  0  0  0  0  0  0  0
  -29.5320  -23.7340   20.7660 C   0  0  0  0  0  2  0  0  0  0  0  0
  -27.9190  -23.3830   19.5080 C   0  0  0  0  0  2  0  0  0  0  0  0
  -28.2350  -24.6490   20.4540 C   0  0  0  0  0  3  0  0  0  0  0  0
  -28.8060  -22.4990   20.3400 N   0  0  0  0  0  0  0  0  0  0  0  0
  -28.3240  -26.1880   20.1210 O   0  0  0  0  0  0  0  0  0  0  0  0
  -24.6260  -31.8400   23.1850 C   0  0  0  0  0  0  0  0  0  0  0  0
  -27.2230  -27.1320   20.1360 C   0  0  0  0  0  0  0  0  0  0  0  0
  -23.4260  -30.4490   21.5400 C   0  0  0  0  0  3  0  0  0  0  0  0
  -24.8770  -28.8700   20.1130 C   0  0  0  0  0  0  0  0  0  0  0  0
  -25.9780  -30.7190   21.3690 C   0  0  0  0  0  2  0  0  0  0  0  0
  -26.0570  -29.3240   20.7150 C   0  0  0  0  0  0  0  0  0  0  0  0
  -27.2300  -28.4760   20.6980 C   0  0  0  0  0  3  0  0  0  0  0  0
  -26.0100  -26.7710   19.5130 C   0  0  0  0  0  3  0  0  0  0  0  0
  -24.8670  -27.6070   19.4970 C   0  0  0  0  0  3  0  0  0  0  0  0
  -23.6470  -29.7680   20.1610 C   0  0  0  0  0  2  0  0  0  0  0  0
  -24.6970  -31.0250   22.0870 N   0  0  0  0  0  0  0  0  0  0  0  0
  -23.5400  -32.1200   23.7170 O   0  0  0  0  0  0  0  0  0  0  0  0
  -22.7470  -29.4410   22.5020 C   0  0  0  0  0  0  0  0  0  0  0  0
  -21.4180  -29.2750   22.3810 N   0  0  0  0  0  0  0  0  0  0  0  0
  -23.4210  -28.8090   23.3210 O   0  0  0  0  0  0  0  0  0  0  0  0
  -20.9310  -29.8360   21.6960 H   0  0  0  0  0  0  0  0  0  0  0  0
  -18.0340  -28.0940   22.9130 C   0  0  0  0  0  0  0  0  0  0  0  0
  -20.5980  -28.3330   23.1500 C   0  0  0  0  0  3  0  0  0  0  0  0
  -20.6810  -26.9080   22.5540 C   0  0  0  0  0  2  0  0  0  0  0  0
  -19.5630  -26.6090   21.5490 C   0  0  0  0  0  2  0  0  0  0  0  0
  -18.1920  -26.7540   22.2130 C   0  0  0  0  0  2  0  0  0  0  0  0
  -19.1630  -28.8420   23.3370 C   0  0  0  0  0  0  0  0  0  0  0  0
  -18.9600  -30.0970   23.9540 C   0  0  0  0  0  3  0  0  0  0  0  0
  -17.6600  -30.6010   24.1480 C   0  0  0  0  0  3  0  0  0  0  0  0
  -16.5460  -29.8510   23.7370 C   0  0  0  0  0  3  0  0  0  0  0  0
  -16.7330  -28.5970   23.1250 C   0  0  0  0  0  3  0  0  0  0  0  0
  -25.9030  -32.4750   23.8150 C   0  0  0  0  0  3  0  0  0  0  0  0
  -26.4240  -31.6940   25.0830 C   0  0  1  0  0  0  0  0  0  0  0  0
  -25.3330  -31.4420   26.1520 C   0  0  0  0  0  1  0  0  0  0  0  0
  -27.0100  -30.3210   24.6810 C   0  0  0  0  0  1  0  0  0  0  0  0
  -27.5740  -32.4840   25.7520 C   0  0  0  0  0  1  0  0  0  0  0  0
  -25.5850  -33.8680   24.1680 N   0  0  0  0  0  0  0  0  0  0  0  0
  -25.8920  -34.9370   23.4200 C   0  0  0  0  0  0  0  0  0  0  0  0
  -26.5350  -34.8530   22.3720 O   0  0  0  0  0  0  0  0  0  0  0  0
  -25.0080  -34.0050   24.9860 H   0  0  0  0  0  0  0  0  0  0  0  0
  -24.1330  -36.7180   23.1510 C   0  0  0  0  0  1  0  0  0  0  0  0
  -25.4080  -36.3160   23.9110 C   0  0  0  0  0  3  0  0  0  0  0  0
  -27.5570  -37.2210   24.6790 C   0  0  0  0  0  1  0  0  0  0  0  0
  -26.4230  -37.3820   23.7720 N   0  0  0  0  0  0  0  0  0  0  0  0
  -26.0130  -38.2960   23.9380 H   0  0  0  0  0  0  0  0  0  0  0  0
  2  1  1  0
  3  5  1  0
  4  3  2  0
  4  6  1  0
  5 52  1  0
  5  1  2  0
  6 15  1  0
  6  2  2  0
  7 15  1  0
  8 13  1  0
  9 10  1  0
  9  8  1  0
 11 10  1  0
 11 20  1  0
 11 12  1  0
 13  7  1  0
 13 12  1  0
 14  7  2  0
 15 16  1  0
 17 18  2  0
 18 37  1  0
 19 18  1  0
 19 22  1  0
 20 21  1  0
 20 17  1  0
 21 19  2  0
 22 23  1  0
 23 24  2  0
 25 28  1  0
 25 24  1  0
 26 25  2  0
 27 26  1  0
 27 22  2  0
 28 29  1  0
 29 30  1  0
 30 31  2  0
 32 31  1  0
 32 36  1  0
 33 32  2  0
 34 29  2  0
 34 33  1  0
 35 34  1  0
 37 38  1  0
 38 41  1  0
 38 40  1  0
 39 37  2  0
 42 17  1  0
 42 43  1  0
 44 42  1  0
 45  4  1  0
 45 48  1  1
 46 45  1  0
 47 45  1  0
 50 52  1  0
 50 51  1  0
 51 53  1  0
 51 49  1  0
 52 49  1  0
 53 55  1  0
 54 65  2  0
 55 60  1  0
 56 64  1  0
 56 66  1  0
 57 63  1  0
 57 59  1  0
 58 64  1  0
 59 58  1  0
 60 59  2  0
 61 55  2  0
 62 61  1  0
 62 57  2  0
 63 56  1  0
 64 54  1  0
 66 68  2  0
 67 66  1  0
 69 67  1  0
 70 79  2  0
 70 75  1  0
 71 67  1  0
 71 75  1  0
 72 71  1  0
 73 74  1  0
 73 72  1  0
 74 70  1  0
 75 76  2  0
 76 77  1  0
 78 77  2  0
 79 78  1  0
 80 54  1  0
 80 85  1  0
 80 81  1  0
 81 84  1  1
 81 82  1  0
 83 81  1  0
 85 88  1  0
 86 90  1  0
 86 85  1  0
 87 86  2  0
 90 89  1  0
 92 90  1  0
 92 93  1  0
 92 91  1  0
M  ISO  4   7 100  15 100  51 101  53 101
M  END
>  <TORSDO>  (69) 
F 18

>  <SCORE>  (69) 
-14.872

>  <name>  (69) 
69

>  <ligand_id>  (69) 
69

>  <original_smiles>  (69) 
[H]c1c([H])c([H])c2c(c1[H])C([H])([H])C([H])([H])C([H])([H])C2([H])N([H])C(=O)C1([H])N(C(=O)C([H])(N([H])C(=O)C([H])(N([H])C([H])([H])[H])C([H])([H])[H])C(C([H])([H])[H])(C([H])([H])[H])C([H])([H])[H])C([H])([H])c2c([H])c(OC3([H])C([H])([H])N(c4c([H])c([H])c(N([H])C(=O)N5C([H])([H])C([H])([H])C([H])([H])C([H])(n6nc(-c7c([H])c([H])c(Oc8c([H])c([H])c(F)c([H])c8F)c([H])c7[H])c(C(=O)N([H])[H])c6N([H])[H])C5([H])[H])c(C(F)(F)F)c4[H])C3([H])[H])c([H])c([H])c2C1([H])[H]

>  <smiles>  (69) 
[H]c1c([H])c([H])c2c(c1[H])C([H])([H])C([H])([H])C([H])([H])C2([H])N([H])C(=O)C1([H])N(C(=O)C([H])(N([H])C(=O)C([H])(N([H])C([H])([H])[H])C([H])([H])[H])C(C([H])([H])[H])(C([H])([H])[H])C([H])([H])[H])C([H])([H])c2c([H])c(OC3([H])C([H])([H])N(c4c([H])c([H])c(N([H])C(=O)N5C([H])([H])C([H])([H])C([H])([H])C([H])(n6nc(-c7c([H])c([H])c(Oc8c([H])c([H])c(F)c([H])c8F)c([H])c7[H])c(C(=O)N([H])[H])c6N([H])[H])C5([H])[H])c(C(F)(F)F)c4[H])C3([H])[H])c([H])c([H])c2C1([H])[H]

$$$$
70:0:0
     RDKit          3D

100110  0  0  1  0  0  0  0  0999 V2000
  -29.4930  -19.2290   19.6360 C   0  0  0  0  0  3  0  0  0  0  0  0
  -31.3610  -20.3200   21.4190 C   0  0  0  0  0  3  0  0  0  0  0  0
  -29.5510  -20.6390   19.7940 C   0  0  0  0  0  0  0  0  0  0  0  0
  -30.4190  -18.3710   20.2760 C   0  0  0  0  0  0  0  0  0  0  0  0
  -30.5590  -21.1950   20.6400 C   0  0  0  0  0  0  0  0  0  0  0  0
  -31.3250  -18.9200   21.2130 C   0  0  0  0  0  0  0  0  0  0  0  0
  -32.2230  -18.1230   21.8600 F   0  0  0  0  0  0  0  0  0  0  0  0
  -31.5470  -23.3310   19.7700 C   0  0  0  0  0  0  0  0  0  0  0  0
  -32.1860  -22.8870   18.6710 C   0  0  0  0  0  2  0  0  0  0  0  0
  -31.5500  -24.7750   20.2020 C   0  0  0  0  0  2  0  0  0  0  0  0
  -30.7800  -24.8170   21.5240 C   0  0  0  0  0  2  0  0  0  0  0  0
  -30.5280  -23.3440   21.8880 C   0  0  0  0  0  2  0  0  0  0  0  0
  -30.8460  -22.5790   20.6900 N   0  0  0  0  0  0  0  0  0  0  0  0
  -28.5600  -21.4730   18.9550 C   0  0  0  0  0  2  0  0  0  0  0  0
  -27.4550  -23.0670   20.5610 C   0  0  0  0  0  0  0  0  0  0  0  0
  -27.2280  -24.5730   20.7050 C   0  0  0  0  0  2  0  0  0  0  0  0
  -28.3090  -23.9880   18.5910 C   0  0  0  0  0  2  0  0  0  0  0  0
  -27.3930  -25.0280   19.2550 C   0  0  0  0  0  3  0  0  0  0  0  0
  -28.1720  -22.8060   19.4550 N   0  0  0  0  0  0  0  0  0  0  0  0
  -26.9730  -22.2260   21.3240 O   0  0  0  0  0  0  0  0  0  0  0  0
  -27.7380  -26.4530   19.1370 O   0  0  0  0  0  0  0  0  0  0  0  0
  -24.5260  -31.6530   22.9840 C   0  0  0  0  0  0  0  0  0  0  0  0
  -26.6760  -27.3330   19.3000 C   0  0  0  0  0  0  0  0  0  0  0  0
  -23.1500  -30.4170   21.3760 C   0  0  0  0  0  3  0  0  0  0  0  0
  -24.4020  -29.0000   19.6670 C   0  0  0  0  0  0  0  0  0  0  0  0
  -25.6780  -30.6780   20.9890 C   0  0  0  0  0  2  0  0  0  0  0  0
  -25.6440  -29.3830   20.1960 C   0  0  0  0  0  0  0  0  0  0  0  0
  -26.7910  -28.5590   20.0170 C   0  0  0  0  0  3  0  0  0  0  0  0
  -25.4220  -27.0440   18.7160 C   0  0  0  0  0  3  0  0  0  0  0  0
  -24.2860  -27.8200   18.9260 C   0  0  0  0  0  3  0  0  0  0  0  0
  -23.2080  -29.8860   19.9270 C   0  0  0  0  0  2  0  0  0  0  0  0
  -24.4790  -30.9160   21.8390 N   0  0  0  0  0  0  0  0  0  0  0  0
  -23.4950  -31.9390   23.6130 O   0  0  0  0  0  0  0  0  0  0  0  0
  -22.5480  -29.3310   22.2910 C   0  0  0  0  0  0  0  0  0  0  0  0
  -21.2190  -29.1580   22.2190 N   0  0  0  0  0  0  0  0  0  0  0  0
  -23.2710  -28.6510   23.0270 O   0  0  0  0  0  0  0  0  0  0  0  0
  -20.6870  -29.7460   21.5920 H   0  0  0  0  0  0  0  0  0  0  0  0
  -17.8700  -27.9590   22.8030 C   0  0  0  0  0  0  0  0  0  0  0  0
  -20.4360  -28.1890   22.9810 C   0  0  0  0  0  3  0  0  0  0  0  0
  -20.5190  -26.7990   22.3170 C   0  0  0  0  0  2  0  0  0  0  0  0
  -19.3730  -26.5340   21.3380 C   0  0  0  0  0  2  0  0  0  0  0  0
  -18.0200  -26.6440   22.0500 C   0  0  0  0  0  2  0  0  0  0  0  0
  -19.0090  -28.6940   23.2250 C   0  0  0  0  0  0  0  0  0  0  0  0
  -18.8190  -29.9270   23.8860 C   0  0  0  0  0  3  0  0  0  0  0  0
  -17.5250  -30.4170   24.1430 C   0  0  0  0  0  3  0  0  0  0  0  0
  -16.4010  -29.6750   23.7430 C   0  0  0  0  0  3  0  0  0  0  0  0
  -16.5740  -28.4540   23.0690 C   0  0  0  0  0  3  0  0  0  0  0  0
  -25.8780  -32.2030   23.5270 C   0  0  0  0  0  3  0  0  0  0  0  0
  -26.5040  -31.2870   24.6500 C   0  0  1  0  0  0  0  0  0  0  0  0
  -25.4960  -30.9400   25.7680 C   0  0  0  0  0  1  0  0  0  0  0  0
  -27.0180  -29.9540   24.0560 C   0  0  0  0  0  1  0  0  0  0  0  0
  -27.7310  -31.9860   25.2720 C   0  0  0  0  0  1  0  0  0  0  0  0
  -25.6280  -33.5560   24.0420 N   0  0  0  0  0  0  0  0  0  0  0  0
  -25.9510  -34.6880   23.4000 C   0  0  0  0  0  0  0  0  0  0  0  0
  -26.5670  -34.7020   22.3340 O   0  0  0  0  0  0  0  0  0  0  0  0
  -25.0510  -33.6230   24.8620 H   0  0  0  0  0  0  0  0  0  0  0  0
  -24.2480  -36.5380   23.3640 C   0  0  0  0  0  1  0  0  0  0  0  0
  -25.5150  -36.0130   24.0540 C   0  0  0  0  0  3  0  0  0  0  0  0
  -27.7050  -36.7380   24.8960 C   0  0  0  0  0  1  0  0  0  0  0  0
  -26.5730  -37.0470   24.0270 N   0  0  0  0  0  0  0  0  0  0  0  0
  -26.2000  -37.9510   24.3030 H   0  0  0  0  0  0  0  0  0  0  0  0
  -30.5610  -16.9260   19.7640 C   0  0  0  0  0  2  0  0  0  0  0  0
  -30.8070  -14.6230   20.5480 C   0  0  0  0  0  0  0  0  0  0  0  0
  -30.4780  -12.3870   19.6060 C   0  0  0  0  0  2  0  0  0  0  0  0
  -29.5950  -12.5080   18.3500 C   0  0  0  0  0  2  0  0  0  0  0  0
  -28.1130  -12.3930   18.7360 C   0  0  0  0  0  2  0  0  0  0  0  0
  -27.7200  -13.3220   19.9190 C   0  0  0  0  0  3  0  0  0  0  0  0
  -28.7450  -13.2440   21.0820 C   0  0  0  0  0  2  0  0  0  0  0  0
  -30.0830  -13.4700   20.5220 N   0  0  0  0  0  0  0  0  0  0  0  0
  -31.9970  -14.6540   20.2410 O   0  0  0  0  0  0  0  0  0  0  0  0
  -30.1120  -15.7760   20.5800 N   0  0  0  0  0  0  0  0  0  0  0  0
  -29.1240  -15.6980   20.7650 H   0  0  0  0  0  0  0  0  0  0  0  0
  -25.3060  -13.9410   20.5650 C   0  0  0  0  0  0  0  0  0  0  0  0
  -24.2210  -13.1760   20.9000 C   0  0  0  0  0  0  0  0  0  0  0  0
  -24.6730  -11.8200   20.8810 C   0  0  0  0  0  0  0  0  0  0  0  0
  -26.3520  -13.0540   20.3660 N   0  0  0  0  0  0  0  0  0  0  0  0
  -25.9730  -11.7740   20.6160 N   0  0  0  0  0  0  0  0  0  0  0  0
  -23.9300  -10.5620   21.0420 C   0  0  0  0  0  0  0  0  0  0  0  0
  -24.3370   -9.5800   21.9720 C   0  0  0  0  0  3  0  0  0  0  0  0
  -23.5950   -8.3890   22.1250 C   0  0  0  0  0  3  0  0  0  0  0  0
  -22.4340   -8.1710   21.3480 C   0  0  0  0  0  0  0  0  0  0  0  0
  -22.0470   -9.1400   20.4070 C   0  0  0  0  0  3  0  0  0  0  0  0
  -22.7890  -10.3240   20.2500 C   0  0  0  0  0  3  0  0  0  0  0  0
  -21.6670   -7.0330   21.4110 O   0  0  0  0  0  0  0  0  0  0  0  0
  -21.5940   -6.2730   22.5510 C   0  0  0  0  0  0  0  0  0  0  0  0
  -21.1540   -6.8140   23.7780 C   0  0  0  0  0  3  0  0  0  0  0  0
  -21.0290   -5.9850   24.9100 C   0  0  0  0  0  3  0  0  0  0  0  0
  -21.3330   -4.6130   24.8150 C   0  0  0  0  0  0  0  0  0  0  0  0
  -21.7670   -4.0720   23.5930 C   0  0  0  0  0  3  0  0  0  0  0  0
  -21.8930   -4.8990   22.4630 C   0  0  0  0  0  0  0  0  0  0  0  0
  -22.2910   -4.3670   21.2820 F   0  0  0  0  0  0  0  0  0  0  0  0
  -21.2070   -3.8130   25.8990 F   0  0  0  0  0  0  0  0  0  0  0  0
  -22.8210  -13.6630   21.1320 C   0  0  0  0  0  0  0  0  0  0  0  0
  -22.0620  -12.9690   21.9760 N   0  0  0  0  0  0  0  0  0  0  0  0
  -22.4020  -14.6890   20.5990 O   0  0  0  0  0  0  0  0  0  0  0  0
  -22.4140  -12.1360   22.4240 H   0  0  0  0  0  0  0  0  0  0  0  0
  -21.1230  -13.2810   22.1780 H   0  0  0  0  0  0  0  0  0  0  0  0
  -25.4800  -15.3110   20.3950 N   0  0  0  0  0  0  0  0  0  0  0  0
  -24.7130  -15.9660   20.4960 H   0  0  0  0  0  0  0  0  0  0  0  0
  -26.3300  -15.7530   20.0720 H   0  0  0  0  0  0  0  0  0  0  0  0
  1  3  2  0
  1  4  1  0
  3  5  1  0
  4  6  2  0
  5 13  1  0
  5  2  2  0
  6  2  1  0
  6  7  1  0
  8 10  1  0
  8 13  1  0
  9  8  2  0
 10 11  1  0
 11 12  1  0
 13 12  1  0
 14 19  1  0
 14  3  1  0
 15 16  1  0
 15 20  2  0
 17 18  1  0
 17 19  1  0
 18 21  1  0
 18 16  1  0
 19 15  1  0
 21 23  1  0
 22 33  2  0
 23 28  1  0
 24 32  1  0
 24 34  1  0
 25 31  1  0
 25 27  1  0
 26 32  1  0
 27 26  1  0
 28 27  2  0
 29 30  1  0
 29 23  2  0
 30 25  2  0
 31 24  1  0
 32 22  1  0
 34 36  2  0
 35 34  1  0
 37 35  1  0
 38 47  2  0
 38 43  1  0
 39 35  1  0
 39 43  1  0
 40 39  1  0
 41 42  1  0
 41 40  1  0
 42 38  1  0
 43 44  2  0
 44 45  1  0
 46 45  2  0
 47 46  1  0
 48 22  1  0
 48 53  1  0
 48 49  1  0
 49 52  1  1
 49 50  1  0
 51 49  1  0
 53 56  1  0
 54 53  1  0
 54 58  1  0
 55 54  2  0
 58 57  1  0
 60 58  1  0
 60 61  1  0
 60 59  1  0
 62  4  1  0
 62 71  1  0
 63 71  1  0
 64 69  1  0
 65 66  1  0
 65 64  1  0
 67 66  1  0
 67 76  1  0
 67 68  1  0
 69 63  1  0
 69 68  1  0
 70 63  2  0
 71 72  1  0
 73 74  2  0
 74 93  1  0
 75 74  1  0
 75 78  1  0
 76 73  1  0
 76 77  1  0
 77 75  2  0
 78 79  1  0
 79 80  2  0
 81 84  1  0
 81 80  1  0
 82 81  2  0
 83 82  1  0
 83 78  2  0
 84 85  1  0
 85 86  1  0
 86 87  2  0
 88 87  1  0
 88 92  1  0
 89 88  2  0
 90 85  2  0
 90 89  1  0
 91 90  1  0
 93 94  1  0
 94 97  1  0
 94 96  1  0
 95 93  2  0
 98 99  1  0
 98 73  1  0
100 98  1  0
M  ISO  4  18 101  21 101  63 100  71 100
M  END
>  <TORSDO>  (70) 
F 20

>  <SCORE>  (70) 
-13.510

>  <name>  (70) 
70

>  <ligand_id>  (70) 
70

>  <original_smiles>  (70) 
[H]C([H])=C1N(c2c([H])c(F)c(C([H])([H])N([H])C(=O)N3C([H])([H])C([H])([H])C([H])([H])C([H])(n4nc(-c5c([H])c([H])c(Oc6c([H])c([H])c(F)c([H])c6F)c([H])c5[H])c(C(=O)N([H])[H])c4N([H])[H])C3([H])[H])c([H])c2C([H])([H])N2C(=O)C([H])([H])C([H])(Oc3c([H])c([H])c4c(c3[H])C([H])([H])N(C(=O)C([H])(N([H])C(=O)C([H])(N([H])C([H])([H])[H])C([H])([H])[H])C(C([H])([H])[H])(C([H])([H])[H])C([H])([H])[H])C([H])(C(=O)N([H])C3([H])c5c([H])c([H])c([H])c([H])c5C([H])([H])C([H])([H])C3([H])[H])C4([H])[H])C2([H])[H])C([H])([H])C([H])([H])C1([H])[H]

>  <smiles>  (70) 
[H]C([H])=C1N(c2c([H])c(F)c(C([H])([H])N([H])C(=O)N3C([H])([H])C([H])([H])C([H])([H])C([H])(n4nc(-c5c([H])c([H])c(Oc6c([H])c([H])c(F)c([H])c6F)c([H])c5[H])c(C(=O)N([H])[H])c4N([H])[H])C3([H])[H])c([H])c2C([H])([H])N2C(=O)C([H])([H])C([H])(Oc3c([H])c([H])c4c(c3[H])C([H])([H])N(C(=O)C([H])(N([H])C(=O)C([H])(N([H])C([H])([H])[H])C([H])([H])[H])C(C([H])([H])[H])(C([H])([H])[H])C([H])([H])[H])C([H])(C(=O)N([H])C3([H])c5c([H])c([H])c([H])c([H])c5C([H])([H])C([H])([H])C3([H])[H])C4([H])[H])C2([H])[H])C([H])([H])C([H])([H])C1([H])[H]

$$$$
71:0:0
     RDKit          3D

 93101  0  0  1  0  0  0  0  0999 V2000
  -29.6120  -21.7290   18.9380 O   0  0  0  0  0  0  0  0  0  0  0  0
  -27.1890  -21.0070   19.2060 O   0  0  0  0  0  0  0  0  0  0  0  0
  -28.5710  -21.0380   19.7200 S   0  0  1  0  0  0  0  0  0  0  0  0
  -30.3020  -17.7240   21.4720 C   0  0  0  0  0  3  0  0  0  0  0  0
  -29.9220  -19.0480   21.1610 C   0  0  0  0  0  3  0  0  0  0  0  0
  -29.1640  -16.9410   19.4680 C   0  0  0  0  0  3  0  0  0  0  0  0
  -28.7540  -18.2580   19.1610 C   0  0  0  0  0  0  0  0  0  0  0  0
  -29.9170  -16.6620   20.6300 C   0  0  0  0  0  0  0  0  0  0  0  0
  -29.1130  -19.3240   20.0320 C   0  0  0  0  0  0  0  0  0  0  0  0
  -27.9230  -18.4720   17.9050 C   0  0  0  0  0  1  0  0  0  0  0  0
  -30.7730  -14.4180   20.2070 C   0  0  0  0  0  0  0  0  0  0  0  0
  -30.4050  -12.3160   18.9740 C   0  0  0  0  0  2  0  0  0  0  0  0
  -29.4080  -12.5850   17.8280 C   0  0  0  0  0  2  0  0  0  0  0  0
  -27.9520  -12.4470   18.3170 C   0  0  0  0  0  2  0  0  0  0  0  0
  -27.6880  -13.2360   19.6270 C   0  0  0  0  0  3  0  0  0  0  0  0
  -28.7870  -12.9360   20.6730 C   0  0  0  0  0  2  0  0  0  0  0  0
  -30.0970  -13.2460   20.0710 N   0  0  0  0  0  0  0  0  0  0  0  0
  -31.8220  -14.6730   19.6060 O   0  0  0  0  0  0  0  0  0  0  0  0
  -30.1870  -15.3200   21.0080 N   0  0  0  0  0  0  0  0  0  0  0  0
  -29.4970  -14.9190   21.6250 H   0  0  0  0  0  0  0  0  0  0  0  0
  -25.3200  -13.8570   20.4330 C   0  0  0  0  0  0  0  0  0  0  0  0
  -24.2620  -13.0870   20.8330 C   0  0  0  0  0  0  0  0  0  0  0  0
  -24.7100  -11.7320   20.7610 C   0  0  0  0  0  0  0  0  0  0  0  0
  -26.3490  -12.9710   20.1510 N   0  0  0  0  0  0  0  0  0  0  0  0
  -25.9850  -11.6880   20.4020 N   0  0  0  0  0  0  0  0  0  0  0  0
  -23.9830  -10.4700   20.9600 C   0  0  0  0  0  0  0  0  0  0  0  0
  -24.4260   -9.5020   21.8860 C   0  0  0  0  0  3  0  0  0  0  0  0
  -23.7010   -8.3060   22.0750 C   0  0  0  0  0  3  0  0  0  0  0  0
  -22.5190   -8.0690   21.3330 C   0  0  0  0  0  0  0  0  0  0  0  0
  -22.0950   -9.0260   20.3960 C   0  0  0  0  0  3  0  0  0  0  0  0
  -22.8210  -10.2130   20.2060 C   0  0  0  0  0  3  0  0  0  0  0  0
  -21.7640   -6.9250   21.4300 O   0  0  0  0  0  0  0  0  0  0  0  0
  -21.7010   -6.1990   22.5930 C   0  0  0  0  0  0  0  0  0  0  0  0
  -21.2220   -6.7620   23.7960 C   0  0  0  0  0  3  0  0  0  0  0  0
  -21.1090   -5.9620   24.9500 C   0  0  0  0  0  3  0  0  0  0  0  0
  -21.4640   -4.6020   24.9020 C   0  0  0  0  0  0  0  0  0  0  0  0
  -21.9380   -4.0390   23.7040 C   0  0  0  0  0  3  0  0  0  0  0  0
  -22.0520   -4.8350   22.5520 C   0  0  0  0  0  0  0  0  0  0  0  0
  -22.4870   -4.2830   21.3940 F   0  0  0  0  0  0  0  0  0  0  0  0
  -21.3470   -3.8300   26.0090 F   0  0  0  0  0  0  0  0  0  0  0  0
  -22.8800  -13.5670   21.1740 C   0  0  0  0  0  0  0  0  0  0  0  0
  -22.1860  -12.8590   22.0580 N   0  0  0  0  0  0  0  0  0  0  0  0
  -22.4260  -14.6040   20.6920 O   0  0  0  0  0  0  0  0  0  0  0  0
  -22.5650  -12.0180   22.4690 H   0  0  0  0  0  0  0  0  0  0  0  0
  -21.2610  -13.1610   22.3300 H   0  0  0  0  0  0  0  0  0  0  0  0
  -25.4900  -15.2290   20.2720 N   0  0  0  0  0  0  0  0  0  0  0  0
  -24.7410  -15.8940   20.4300 H   0  0  0  0  0  0  0  0  0  0  0  0
  -26.3410  -15.6640   19.9390 H   0  0  0  0  0  0  0  0  0  0  0  0
  -28.6390  -23.1540   21.5880 C   0  0  0  0  0  3  0  0  0  0  0  0
  -28.4630  -21.8370   21.3470 C   0  0  0  0  0  3  0  0  0  0  0  0
  -28.8610  -24.2840   20.5880 C   0  0  0  0  0  2  0  0  0  0  0  0
  -28.4290  -25.6390   21.1820 C   0  0  0  0  0  2  0  0  0  0  0  0
  -28.5040  -26.7120   20.2380 O   0  0  0  0  0  0  0  0  0  0  0  0
  -24.5860  -31.8570   23.2040 C   0  0  0  0  0  0  0  0  0  0  0  0
  -27.3510  -27.4560   20.1930 C   0  0  0  0  0  0  0  0  0  0  0  0
  -23.4320  -30.4330   21.5430 C   0  0  0  0  0  3  0  0  0  0  0  0
  -24.9380  -28.9120   20.1540 C   0  0  0  0  0  0  0  0  0  0  0  0
  -25.9540  -30.8330   21.3930 C   0  0  0  0  0  2  0  0  0  0  0  0
  -26.0750  -29.4610   20.7610 C   0  0  0  0  0  0  0  0  0  0  0  0
  -27.2890  -28.7390   20.7780 C   0  0  0  0  0  3  0  0  0  0  0  0
  -26.2010  -26.9130   19.5850 C   0  0  0  0  0  3  0  0  0  0  0  0
  -24.9930  -27.6360   19.5650 C   0  0  0  0  0  3  0  0  0  0  0  0
  -23.6800  -29.7500   20.1720 C   0  0  0  0  0  2  0  0  0  0  0  0
  -24.6750  -31.0550   22.1070 N   0  0  0  0  0  0  0  0  0  0  0  0
  -23.4900  -32.1170   23.7200 O   0  0  0  0  0  0  0  0  0  0  0  0
  -22.7740  -29.4070   22.4940 C   0  0  0  0  0  0  0  0  0  0  0  0
  -21.4460  -29.2420   22.3680 N   0  0  0  0  0  0  0  0  0  0  0  0
  -23.4520  -28.7650   23.3000 O   0  0  0  0  0  0  0  0  0  0  0  0
  -20.9630  -29.8110   21.6880 H   0  0  0  0  0  0  0  0  0  0  0  0
  -18.0510  -28.1220   22.8930 C   0  0  0  0  0  0  0  0  0  0  0  0
  -20.6190  -28.3060   23.1280 C   0  0  0  0  0  3  0  0  0  0  0  0
  -20.6750  -26.8880   22.5150 C   0  0  0  0  0  2  0  0  0  0  0  0
  -19.5480  -26.6200   21.5120 C   0  0  0  0  0  2  0  0  0  0  0  0
  -18.1820  -26.7850   22.1840 C   0  0  0  0  0  2  0  0  0  0  0  0
  -19.1960  -28.8440   23.3240 C   0  0  0  0  0  0  0  0  0  0  0  0
  -19.0210  -30.0980   23.9480 C   0  0  0  0  0  3  0  0  0  0  0  0
  -17.7320  -30.6290   24.1460 C   0  0  0  0  0  3  0  0  0  0  0  0
  -16.6020  -29.9020   23.7340 C   0  0  0  0  0  3  0  0  0  0  0  0
  -16.7620  -28.6510   23.1130 C   0  0  0  0  0  3  0  0  0  0  0  0
  -25.8500  -32.5080   23.8490 C   0  0  0  0  0  3  0  0  0  0  0  0
  -26.3560  -31.7430   25.1340 C   0  0  1  0  0  0  0  0  0  0  0  0
  -25.2460  -31.4850   26.1800 C   0  0  0  0  0  1  0  0  0  0  0  0
  -26.9670  -30.3770   24.7470 C   0  0  0  0  0  1  0  0  0  0  0  0
  -27.4810  -32.5540   25.8180 C   0  0  0  0  0  1  0  0  0  0  0  0
  -25.5170  -33.9020   24.1690 N   0  0  0  0  0  0  0  0  0  0  0  0
  -25.8490  -34.9550   23.4110 C   0  0  0  0  0  0  0  0  0  0  0  0
  -26.5390  -34.8560   22.3920 O   0  0  0  0  0  0  0  0  0  0  0  0
  -24.9070  -34.0520   24.9590 H   0  0  0  0  0  0  0  0  0  0  0  0
  -24.1100  -36.7260   23.0100 C   0  0  0  0  0  1  0  0  0  0  0  0
  -25.3350  -36.3380   23.8530 C   0  0  0  0  0  3  0  0  0  0  0  0
  -27.4340  -37.2520   24.7410 C   0  0  0  0  0  1  0  0  0  0  0  0
  -26.3580  -37.4030   23.7640 N   0  0  0  0  0  0  0  0  0  0  0  0
  -25.9380  -38.3190   23.8970 H   0  0  0  0  0  0  0  0  0  0  0  0
  1  3  2  0
  2  3  2  0
  3  9  1  0
  3 50  1  1
  5  4  1  0
  6  8  1  0
  7  6  2  0
  7  9  1  0
  8 19  1  0
  8  4  2  0
  9  5  2  0
 10  7  1  0
 11 19  1  0
 12 17  1  0
 13 14  1  0
 13 12  1  0
 15 14  1  0
 15 24  1  0
 15 16  1  0
 17 11  1  0
 17 16  1  0
 18 11  2  0
 19 20  1  0
 21 22  2  0
 22 41  1  0
 23 22  1  0
 23 26  1  0
 24 25  1  0
 24 21  1  0
 25 23  2  0
 26 27  1  0
 27 28  2  0
 29 32  1  0
 29 28  1  0
 30 29  2  0
 31 30  1  0
 31 26  2  0
 32 33  1  0
 33 34  1  0
 34 35  2  0
 36 35  1  0
 36 40  1  0
 37 36  2  0
 38 33  2  0
 38 37  1  0
 39 38  1  0
 41 42  1  0
 42 45  1  0
 42 44  1  0
 43 41  2  0
 46 47  1  0
 46 21  1  0
 48 46  1  0
 50 49  2  0
 51 52  1  0
 51 49  1  0
 53 52  1  0
 54 65  2  0
 55 53  1  0
 55 60  1  0
 56 64  1  0
 56 66  1  0
 57 63  1  0
 57 59  1  0
 58 64  1  0
 59 60  2  0
 59 58  1  0
 61 55  2  0
 62 61  1  0
 62 57  2  0
 63 56  1  0
 64 54  1  0
 66 68  2  0
 67 66  1  0
 69 67  1  0
 70 79  2  0
 70 75  1  0
 71 67  1  0
 71 75  1  0
 72 71  1  0
 73 74  1  0
 73 72  1  0
 74 70  1  0
 75 76  2  0
 76 77  1  0
 78 77  2  0
 79 78  1  0
 80 54  1  0
 80 85  1  0
 80 81  1  0
 81 84  1  1
 81 82  1  0
 83 81  1  0
 85 88  1  0
 86 90  1  0
 86 85  1  0
 87 86  2  0
 90 89  1  0
 92 90  1  0
 92 93  1  0
 92 91  1  0
M  ISO  4  11 100  19 100  52 101  53 101
M  END
>  <TORSDO>  (71) 
F 20

>  <SCORE>  (71) 
-14.202

>  <name>  (71) 
71

>  <ligand_id>  (71) 
71

>  <original_smiles>  (71) 
[H]C(=C([H])S(=O)(=O)c1c([H])c([H])c(N([H])C(=O)N2C([H])([H])C([H])([H])C([H])([H])C([H])(n3nc(-c4c([H])c([H])c(Oc5c([H])c([H])c(F)c([H])c5F)c([H])c4[H])c(C(=O)N([H])[H])c3N([H])[H])C2([H])[H])c([H])c1C([H])([H])[H])C([H])([H])C([H])([H])Oc1c([H])c([H])c2c(c1[H])C([H])([H])N(C(=O)C([H])(N([H])C(=O)C([H])(N([H])C([H])([H])[H])C([H])([H])[H])C(C([H])([H])[H])(C([H])([H])[H])C([H])([H])[H])C([H])(C(=O)N([H])C1([H])c3c([H])c([H])c([H])c([H])c3C([H])([H])C([H])([H])C1([H])[H])C2([H])[H]

>  <smiles>  (71) 
[H]C(=C([H])S(=O)(=O)c1c([H])c([H])c(N([H])C(=O)N2C([H])([H])C([H])([H])C([H])([H])C([H])(n3nc(-c4c([H])c([H])c(Oc5c([H])c([H])c(F)c([H])c5F)c([H])c4[H])c(C(=O)N([H])[H])c3N([H])[H])C2([H])[H])c([H])c1C([H])([H])[H])C([H])([H])C([H])([H])Oc1c([H])c([H])c2c(c1[H])C([H])([H])N(C(=O)C([H])(N([H])C(=O)C([H])(N([H])C([H])([H])[H])C([H])([H])[H])C(C([H])([H])[H])(C([H])([H])[H])C([H])([H])[H])C([H])(C(=O)N([H])C1([H])c3c([H])c([H])c([H])c([H])c3C([H])([H])C([H])([H])C1([H])[H])C2([H])[H]

$$$$
72:0:0
     RDKit          3D

 93102  0  0  1  0  0  0  0  0999 V2000
  -29.3590  -22.9690   20.9940 C   0  0  0  0  0  0  0  0  0  0  0  0
  -28.7040  -24.3300   21.2820 C   0  0  0  0  0  2  0  0  0  0  0  0
  -28.7760  -23.7870   18.9370 C   0  0  0  0  0  2  0  0  0  0  0  0
  -28.1920  -24.8750   19.9420 C   0  0  0  0  0  3  0  0  0  0  0  0
  -29.2210  -22.5750   19.7150 N   0  0  0  0  0  0  0  0  0  0  0  0
  -29.8910  -22.3090   21.8890 O   0  0  0  0  0  0  0  0  0  0  0  0
  -28.4070  -26.3700   19.8030 O   0  0  0  0  0  0  0  0  0  0  0  0
  -24.4920  -31.6290   22.9980 C   0  0  0  0  0  0  0  0  0  0  0  0
  -27.2840  -27.2270   19.8210 C   0  0  0  0  0  0  0  0  0  0  0  0
  -23.3590  -30.2170   21.3290 C   0  0  0  0  0  3  0  0  0  0  0  0
  -24.8700  -28.7730   19.8630 C   0  0  0  0  0  0  0  0  0  0  0  0
  -25.8830  -30.6500   21.1470 C   0  0  0  0  0  2  0  0  0  0  0  0
  -26.0260  -29.2860   20.4700 C   0  0  0  0  0  0  0  0  0  0  0  0
  -27.2400  -28.5230   20.4420 C   0  0  0  0  0  3  0  0  0  0  0  0
  -26.1040  -26.7880   19.1880 C   0  0  0  0  0  3  0  0  0  0  0  0
  -24.9140  -27.5300   19.2210 C   0  0  0  0  0  3  0  0  0  0  0  0
  -23.6030  -29.6040   19.9270 C   0  0  0  0  0  2  0  0  0  0  0  0
  -24.6000  -30.8480   21.8850 N   0  0  0  0  0  0  0  0  0  0  0  0
  -23.3930  -31.8390   23.5360 O   0  0  0  0  0  0  0  0  0  0  0  0
  -22.7480  -29.1400   22.2590 C   0  0  0  0  0  0  0  0  0  0  0  0
  -21.4300  -28.9130   22.1380 N   0  0  0  0  0  0  0  0  0  0  0  0
  -23.4610  -28.5110   23.0440 O   0  0  0  0  0  0  0  0  0  0  0  0
  -20.9090  -29.4790   21.4840 H   0  0  0  0  0  0  0  0  0  0  0  0
  -18.1000  -27.5970   22.6590 C   0  0  0  0  0  0  0  0  0  0  0  0
  -20.6560  -27.9190   22.8850 C   0  0  0  0  0  3  0  0  0  0  0  0
  -20.7850  -26.5170   22.2450 C   0  0  0  0  0  2  0  0  0  0  0  0
  -19.6710  -26.2060   21.2420 C   0  0  0  0  0  2  0  0  0  0  0  0
  -18.3000  -26.2850   21.9210 C   0  0  0  0  0  2  0  0  0  0  0  0
  -19.2050  -28.3710   23.0980 C   0  0  0  0  0  0  0  0  0  0  0  0
  -18.9650  -29.6010   23.7480 C   0  0  0  0  0  3  0  0  0  0  0  0
  -17.6510  -30.0550   23.9660 C   0  0  0  0  0  3  0  0  0  0  0  0
  -16.5600  -29.2780   23.5410 C   0  0  0  0  0  3  0  0  0  0  0  0
  -16.7860  -28.0510   22.8930 C   0  0  0  0  0  3  0  0  0  0  0  0
  -25.7380  -32.3110   23.6380 C   0  0  0  0  0  3  0  0  0  0  0  0
  -25.3460  -33.6740   24.0270 N   0  0  0  0  0  0  0  0  0  0  0  0
  -25.6170  -34.7780   23.3170 C   0  0  0  0  0  0  0  0  0  0  0  0
  -26.2960  -34.7580   22.2860 O   0  0  0  0  0  0  0  0  0  0  0  0
  -24.7320  -33.7590   24.8240 H   0  0  0  0  0  0  0  0  0  0  0  0
  -23.7920  -36.4900   23.0330 C   0  0  0  0  0  1  0  0  0  0  0  0
  -25.0500  -36.1150   23.8340 C   0  0  0  0  0  3  0  0  0  0  0  0
  -27.1290  -37.0790   24.7170 C   0  0  0  0  0  1  0  0  0  0  0  0
  -26.0220  -37.2290   23.7770 N   0  0  0  0  0  0  0  0  0  0  0  0
  -25.5640  -38.1160   23.9670 H   0  0  0  0  0  0  0  0  0  0  0  0
  -26.3030  -31.5220   24.8830 C   0  0  1  0  0  0  0  0  0  0  0  0
  -25.2290  -31.1750   25.9420 C   0  0  0  0  0  1  0  0  0  0  0  0
  -26.9650  -30.1990   24.4320 C   0  0  0  0  0  1  0  0  0  0  0  0
  -27.4020  -32.3590   25.5810 C   0  0  0  0  0  1  0  0  0  0  0  0
  -29.6450  -21.2260   19.1080 C   0  0  0  0  0  2  0  0  0  0  0  0
  -29.6550  -17.2870   21.3010 C   0  0  0  0  0  3  0  0  0  0  0  0
  -29.1130  -18.4520   21.8720 C   0  0  0  0  0  3  0  0  0  0  0  0
  -30.0270  -18.5480   19.2560 C   0  0  0  0  0  3  0  0  0  0  0  0
  -29.5700  -19.8020   19.8600 C   0  0  0  0  0  0  0  0  0  0  0  0
  -30.0610  -17.2660   19.9560 C   0  0  0  0  0  0  0  0  0  0  0  0
  -28.9930  -19.6590   21.1550 C   0  0  0  0  0  0  0  0  0  0  0  0
  -27.9880  -20.8520   21.8950 Cl  0  0  0  0  0  0  0  0  0  0  0  0
  -31.0050  -14.8180   19.5800 C   0  0  0  0  0  0  0  0  0  0  0  0
  -30.6680  -12.5620   18.5610 C   0  0  0  0  0  2  0  0  0  0  0  0
  -29.6120  -12.6870   17.4400 C   0  0  0  0  0  2  0  0  0  0  0  0
  -28.1830  -12.5640   18.0170 C   0  0  0  0  0  2  0  0  0  0  0  0
  -27.9580  -13.4540   19.2700 C   0  0  0  0  0  3  0  0  0  0  0  0
  -29.1180  -13.3030   20.2750 C   0  0  0  0  0  2  0  0  0  0  0  0
  -30.3550  -13.6090   19.5500 N   0  0  0  0  0  0  0  0  0  0  0  0
  -32.2190  -14.8820   19.3690 O   0  0  0  0  0  0  0  0  0  0  0  0
  -30.1920  -15.9210   19.3470 N   0  0  0  0  0  0  0  0  0  0  0  0
  -29.3080  -15.5910   18.9990 H   0  0  0  0  0  0  0  0  0  0  0  0
  -25.7270  -14.1630   20.3150 C   0  0  0  0  0  0  0  0  0  0  0  0
  -24.6430  -13.4400   20.7390 C   0  0  0  0  0  0  0  0  0  0  0  0
  -24.9890  -12.0690   20.5590 C   0  0  0  0  0  0  0  0  0  0  0  0
  -26.6610  -13.2280   19.8940 N   0  0  0  0  0  0  0  0  0  0  0  0
  -26.2340  -11.9590   20.1080 N   0  0  0  0  0  0  0  0  0  0  0  0
  -24.1850  -10.8500   20.7300 C   0  0  0  0  0  0  0  0  0  0  0  0
  -24.5990   -9.8120   21.5920 C   0  0  0  0  0  3  0  0  0  0  0  0
  -23.8040   -8.6550   21.7540 C   0  0  0  0  0  3  0  0  0  0  0  0
  -22.5810   -8.5330   21.0500 C   0  0  0  0  0  0  0  0  0  0  0  0
  -22.1860   -9.5590   20.1750 C   0  0  0  0  0  3  0  0  0  0  0  0
  -22.9790  -10.7060   20.0120 C   0  0  0  0  0  3  0  0  0  0  0  0
  -21.7570   -7.4360   21.1250 O   0  0  0  0  0  0  0  0  0  0  0  0
  -21.6660   -6.6800   22.2660 C   0  0  0  0  0  0  0  0  0  0  0  0
  -21.3050   -7.2440   23.5100 C   0  0  0  0  0  3  0  0  0  0  0  0
  -21.1580   -6.4190   24.6430 C   0  0  0  0  0  3  0  0  0  0  0  0
  -21.3550   -5.0290   24.5310 C   0  0  0  0  0  0  0  0  0  0  0  0
  -21.7060   -4.4640   23.2920 C   0  0  0  0  0  3  0  0  0  0  0  0
  -21.8590   -5.2890   22.1630 C   0  0  0  0  0  0  0  0  0  0  0  0
  -22.1770   -4.7360   20.9660 F   0  0  0  0  0  0  0  0  0  0  0  0
  -21.2060   -4.2320   25.6140 F   0  0  0  0  0  0  0  0  0  0  0  0
  -23.3230  -13.9970   21.1870 C   0  0  0  0  0  0  0  0  0  0  0  0
  -22.6370  -13.3040   22.0920 N   0  0  0  0  0  0  0  0  0  0  0  0
  -22.9100  -15.0770   20.7730 O   0  0  0  0  0  0  0  0  0  0  0  0
  -22.9860  -12.4320   22.4580 H   0  0  0  0  0  0  0  0  0  0  0  0
  -21.7480  -13.6550   22.4200 H   0  0  0  0  0  0  0  0  0  0  0  0
  -25.9790  -15.5270   20.2290 N   0  0  0  0  0  0  0  0  0  0  0  0
  -25.2680  -16.2100   20.4630 H   0  0  0  0  0  0  0  0  0  0  0  0
  -26.8240  -15.9470   19.8670 H   0  0  0  0  0  0  0  0  0  0  0  0
  1  2  1  0
  1  6  2  0
  3  5  1  0
  3  4  1  0
  4  7  1  0
  4  2  1  0
  5  1  1  0
  7  9  1  0
  8 19  2  0
  9 14  1  0
 10 18  1  0
 10 20  1  0
 11 17  1  0
 11 13  1  0
 12 18  1  0
 13 12  1  0
 14 13  2  0
 15 16  1  0
 15  9  2  0
 16 11  2  0
 17 10  1  0
 18  8  1  0
 20 22  2  0
 21 20  1  0
 23 21  1  0
 24 33  2  0
 24 29  1  0
 25 21  1  0
 25 29  1  0
 26 25  1  0
 27 28  1  0
 27 26  1  0
 28 24  1  0
 29 30  2  0
 30 31  1  0
 32 31  2  0
 33 32  1  0
 34  8  1  0
 34 35  1  0
 34 44  1  0
 35 38  1  0
 36 40  1  0
 36 35  1  0
 37 36  2  0
 40 39  1  0
 42 40  1  0
 42 43  1  0
 42 41  1  0
 44 47  1  1
 44 45  1  0
 46 44  1  0
 48  5  1  0
 48 52  1  0
 49 50  1  0
 51 52  2  0
 51 53  1  0
 52 54  1  0
 53 49  2  0
 54 50  2  0
 54 55  1  0
 57 62  1  0
 58 59  1  0
 58 57  1  0
 60 59  1  0
 60 69  1  0
 60 61  1  0
 62 56  1  0
 62 61  1  0
 63 56  2  0
 64 56  1  0
 64 53  1  0
 65 64  1  0
 66 67  2  0
 67 86  1  0
 68 71  1  0
 68 67  1  0
 69 70  1  0
 69 66  1  0
 70 68  2  0
 71 72  1  0
 72 73  2  0
 74 77  1  0
 74 73  1  0
 75 74  2  0
 76 75  1  0
 76 71  2  0
 77 78  1  0
 78 79  1  0
 79 80  2  0
 81 80  1  0
 81 85  1  0
 82 81  2  0
 83 78  2  0
 83 82  1  0
 84 83  1  0
 86 87  1  0
 87 90  1  0
 87 89  1  0
 88 86  2  0
 91 66  1  0
 91 92  1  0
 93 91  1  0
M  ISO  4   4 101   7 101  56 100  64 100
M  END
>  <TORSDO>  (72) 
F 18

>  <SCORE>  (72) 
-10.847

>  <name>  (72) 
72

>  <ligand_id>  (72) 
72

>  <original_smiles>  (72) 
[H]c1c([H])c([H])c2c(c1[H])C([H])([H])C([H])([H])C([H])([H])C2([H])N([H])C(=O)C1([H])N(C(=O)C([H])(N([H])C(=O)C([H])(N([H])C([H])([H])[H])C([H])([H])[H])C(C([H])([H])[H])(C([H])([H])[H])C([H])([H])[H])C([H])([H])c2c([H])c(OC3([H])C([H])([H])C(=O)N(C([H])([H])c4c([H])c(N([H])C(=O)N5C([H])([H])C([H])([H])C([H])([H])C([H])(n6nc(-c7c([H])c([H])c(Oc8c([H])c([H])c(F)c([H])c8F)c([H])c7[H])c(C(=O)N([H])[H])c6N([H])[H])C5([H])[H])c([H])c([H])c4Cl)C3([H])[H])c([H])c([H])c2C1([H])[H]

>  <smiles>  (72) 
[H]c1c([H])c([H])c2c(c1[H])C([H])([H])C([H])([H])C([H])([H])C2([H])N([H])C(=O)C1([H])N(C(=O)C([H])(N([H])C(=O)C([H])(N([H])C([H])([H])[H])C([H])([H])[H])C(C([H])([H])[H])(C([H])([H])[H])C([H])([H])[H])C([H])([H])c2c([H])c(OC3([H])C([H])([H])C(=O)N(C([H])([H])c4c([H])c(N([H])C(=O)N5C([H])([H])C([H])([H])C([H])([H])C([H])(n6nc(-c7c([H])c([H])c(Oc8c([H])c([H])c(F)c([H])c8F)c([H])c7[H])c(C(=O)N([H])[H])c6N([H])[H])C5([H])[H])c([H])c([H])c4Cl)C3([H])[H])c([H])c([H])c2C1([H])[H]

$$$$
73:0:0
     RDKit          3D

 95104  0  0  1  0  0  0  0  0999 V2000
  -30.8120  -18.6740   22.3870 C   0  0  0  0  0  3  0  0  0  0  0  0
  -30.6150  -17.4010   21.8150 C   0  0  0  0  0  3  0  0  0  0  0  0
  -29.4330  -18.4950   20.0000 C   0  0  0  0  0  3  0  0  0  0  0  0
  -30.3730  -19.8740   21.7750 C   0  0  0  0  0  0  0  0  0  0  0  0
  -29.6590  -19.8510   20.5450 C   0  0  0  0  0  0  0  0  0  0  0  0
  -29.9170  -17.2400   20.6030 C   0  0  0  0  0  0  0  0  0  0  0  0
  -30.4550  -14.6850   20.0350 C   0  0  0  0  0  0  0  0  0  0  0  0
  -30.2400  -12.4280   18.9350 C   0  0  0  0  0  2  0  0  0  0  0  0
  -29.2180  -12.4900   17.7780 C   0  0  0  0  0  2  0  0  0  0  0  0
  -27.7850  -12.2680   18.3030 C   0  0  0  0  0  2  0  0  0  0  0  0
  -27.4730  -13.1170   19.5630 C   0  0  0  0  0  3  0  0  0  0  0  0
  -28.6060  -13.0340   20.6070 C   0  0  0  0  0  2  0  0  0  0  0  0
  -29.8380  -13.4520   19.9280 N   0  0  0  0  0  0  0  0  0  0  0  0
  -31.6500  -14.7790   19.7400 O   0  0  0  0  0  0  0  0  0  0  0  0
  -29.6480  -15.8310   20.1500 N   0  0  0  0  0  0  0  0  0  0  0  0
  -28.6710  -15.6270   20.0090 H   0  0  0  0  0  0  0  0  0  0  0  0
  -25.1310  -13.6530   20.4550 C   0  0  0  0  0  0  0  0  0  0  0  0
  -24.1010  -12.8550   20.8700 C   0  0  0  0  0  0  0  0  0  0  0  0
  -24.5810  -11.5120   20.7820 C   0  0  0  0  0  0  0  0  0  0  0  0
  -26.1700  -12.7950   20.1340 N   0  0  0  0  0  0  0  0  0  0  0  0
  -25.8520  -11.5010   20.3970 N   0  0  0  0  0  0  0  0  0  0  0  0
  -23.8850  -10.2350   20.9840 C   0  0  0  0  0  0  0  0  0  0  0  0
  -24.3400   -9.2860   21.9260 C   0  0  0  0  0  3  0  0  0  0  0  0
  -23.6410   -8.0750   22.1160 C   0  0  0  0  0  3  0  0  0  0  0  0
  -22.4740   -7.8030   21.3640 C   0  0  0  0  0  0  0  0  0  0  0  0
  -22.0380   -8.7410   20.4110 C   0  0  0  0  0  3  0  0  0  0  0  0
  -22.7370   -9.9440   20.2190 C   0  0  0  0  0  3  0  0  0  0  0  0
  -21.7450   -6.6420   21.4620 O   0  0  0  0  0  0  0  0  0  0  0  0
  -21.6600   -5.9440   22.6410 C   0  0  0  0  0  0  0  0  0  0  0  0
  -21.1220   -6.5220   23.8110 C   0  0  0  0  0  3  0  0  0  0  0  0
  -20.9890   -5.7470   24.9810 C   0  0  0  0  0  3  0  0  0  0  0  0
  -21.3830   -4.3960   24.9810 C   0  0  0  0  0  0  0  0  0  0  0  0
  -21.9140   -3.8180   23.8140 C   0  0  0  0  0  3  0  0  0  0  0  0
  -22.0490   -4.5890   22.6460 C   0  0  0  0  0  0  0  0  0  0  0  0
  -22.5410   -4.0220   21.5190 F   0  0  0  0  0  0  0  0  0  0  0  0
  -21.2480   -3.6490   26.1010 F   0  0  0  0  0  0  0  0  0  0  0  0
  -22.7150  -13.3040   21.2300 C   0  0  0  0  0  0  0  0  0  0  0  0
  -22.0490  -12.5800   22.1220 N   0  0  0  0  0  0  0  0  0  0  0  0
  -22.2330  -14.3330   20.7560 O   0  0  0  0  0  0  0  0  0  0  0  0
  -22.4530  -11.7480   22.5250 H   0  0  0  0  0  0  0  0  0  0  0  0
  -21.1210  -12.8630   22.4070 H   0  0  0  0  0  0  0  0  0  0  0  0
  -25.2620  -15.0300   20.2990 N   0  0  0  0  0  0  0  0  0  0  0  0
  -24.4870  -15.6630   20.4690 H   0  0  0  0  0  0  0  0  0  0  0  0
  -26.0710  -15.4950   19.9080 H   0  0  0  0  0  0  0  0  0  0  0  0
  -30.6910  -21.1320   22.4630 C   0  0  0  0  0  3  0  0  0  0  0  0
  -30.3130  -21.4140   23.7230 C   0  0  0  0  0  3  0  0  0  0  0  0
  -31.2950  -22.4330   25.8140 C   0  0  0  0  0  1  0  0  0  0  0  0
  -30.6440  -22.6990   24.4530 C   0  0  0  0  0  2  0  0  0  0  0  0
  -29.3040  -21.2530   19.7790 C   0  0  0  0  0  2  0  0  0  0  0  0
  -29.3290  -23.7360   20.8690 C   0  0  0  0  0  2  0  0  0  0  0  0
  -27.9630  -23.5140   19.4350 C   0  0  0  0  0  2  0  0  0  0  0  0
  -28.1270  -24.6780   20.4780 C   0  0  0  0  0  3  0  0  0  0  0  0
  -28.5940  -22.5170   20.3770 N   0  0  1  0  0  4  0  0  0  0  0  0
  -27.9040  -22.2250   21.0510 H   0  0  0  0  0  0  0  0  0  0  0  0
  -28.3550  -26.1550   20.1560 O   0  0  0  0  0  0  0  0  0  0  0  0
  -24.6130  -31.6980   23.1080 C   0  0  0  0  0  0  0  0  0  0  0  0
  -27.2630  -27.0640   20.1120 C   0  0  0  0  0  0  0  0  0  0  0  0
  -23.4380  -30.2930   21.4560 C   0  0  0  0  0  3  0  0  0  0  0  0
  -24.9120  -28.7320   20.0510 C   0  0  0  0  0  0  0  0  0  0  0  0
  -25.9840  -30.5980   21.3090 C   0  0  0  0  0  2  0  0  0  0  0  0
  -26.0770  -29.2110   20.6640 C   0  0  0  0  0  0  0  0  0  0  0  0
  -27.2580  -28.3930   20.6730 C   0  0  0  0  0  3  0  0  0  0  0  0
  -26.0720  -26.6570   19.4740 C   0  0  0  0  0  3  0  0  0  0  0  0
  -24.9180  -27.4680   19.4410 C   0  0  0  0  0  3  0  0  0  0  0  0
  -23.6750  -29.6140   20.0810 C   0  0  0  0  0  2  0  0  0  0  0  0
  -24.6980  -30.8840   22.0130 N   0  0  0  0  0  0  0  0  0  0  0  0
  -23.5200  -31.9750   23.6270 O   0  0  0  0  0  0  0  0  0  0  0  0
  -22.7590  -29.2820   22.4110 C   0  0  0  0  0  0  0  0  0  0  0  0
  -21.4330  -29.1080   22.2730 N   0  0  0  0  0  0  0  0  0  0  0  0
  -23.4270  -28.6540   23.2370 O   0  0  0  0  0  0  0  0  0  0  0  0
  -20.9530  -29.6640   21.5800 H   0  0  0  0  0  0  0  0  0  0  0  0
  -18.0430  -27.9360   22.7720 C   0  0  0  0  0  0  0  0  0  0  0  0
  -20.6060  -28.1700   23.0360 C   0  0  0  0  0  3  0  0  0  0  0  0
  -20.6920  -26.7440   22.4440 C   0  0  0  0  0  2  0  0  0  0  0  0
  -19.5840  -26.4430   21.4290 C   0  0  0  0  0  2  0  0  0  0  0  0
  -18.2060  -26.5930   22.0790 C   0  0  0  0  0  2  0  0  0  0  0  0
  -19.1710  -28.6830   23.2050 C   0  0  0  0  0  0  0  0  0  0  0  0
  -18.9650  -29.9410   23.8140 C   0  0  0  0  0  3  0  0  0  0  0  0
  -17.6650  -30.4500   23.9930 C   0  0  0  0  0  3  0  0  0  0  0  0
  -16.5530  -29.7000   23.5740 C   0  0  0  0  0  3  0  0  0  0  0  0
  -16.7430  -28.4460   22.9680 C   0  0  0  0  0  3  0  0  0  0  0  0
  -25.8830  -32.3400   23.7490 C   0  0  0  0  0  3  0  0  0  0  0  0
  -26.4000  -31.5550   25.0170 C   0  0  1  0  0  0  0  0  0  0  0  0
  -25.2990  -31.2760   26.0690 C   0  0  0  0  0  1  0  0  0  0  0  0
  -27.0160  -30.1970   24.6100 C   0  0  0  0  0  1  0  0  0  0  0  0
  -27.5250  -32.3620   25.7060 C   0  0  0  0  0  1  0  0  0  0  0  0
  -25.5510  -33.7280   24.1020 N   0  0  0  0  0  0  0  0  0  0  0  0
  -25.8720  -34.8010   23.3660 C   0  0  0  0  0  0  0  0  0  0  0  0
  -26.5460  -34.7260   22.3350 O   0  0  0  0  0  0  0  0  0  0  0  0
  -24.9500  -33.8570   24.9030 H   0  0  0  0  0  0  0  0  0  0  0  0
  -24.1280  -36.5860   23.0380 C   0  0  0  0  0  1  0  0  0  0  0  0
  -25.3660  -36.1740   23.8500 C   0  0  0  0  0  3  0  0  0  0  0  0
  -27.4790  -37.0710   24.7260 C   0  0  0  0  0  1  0  0  0  0  0  0
  -26.3890  -37.2400   23.7690 N   0  0  0  0  0  0  0  0  0  0  0  0
  -25.9700  -38.1540   23.9220 H   0  0  0  0  0  0  0  0  0  0  0  0
  2  1  1  0
  3  5  2  0
  3  6  1  0
  4  1  2  0
  4 45  1  0
  5  4  1  0
  6  2  2  0
  7 15  1  0
  8 13  1  0
  9 10  1  0
  9  8  1  0
 11 10  1  0
 11 20  1  0
 11 12  1  0
 13  7  1  0
 13 12  1  0
 14  7  2  0
 15  6  1  0
 16 15  1  0
 17 18  2  0
 18 37  1  0
 19 18  1  0
 19 22  1  0
 20 21  1  0
 20 17  1  0
 21 19  2  0
 22 23  1  0
 23 24  2  0
 25 28  1  0
 25 24  1  0
 26 25  2  0
 27 26  1  0
 27 22  2  0
 28 29  1  0
 29 34  2  0
 29 30  1  0
 30 31  2  0
 32 31  1  0
 32 36  1  0
 33 32  2  0
 34 33  1  0
 35 34  1  0
 37 38  1  0
 38 41  1  0
 38 40  1  0
 39 37  2  0
 42 17  1  0
 42 43  1  0
 44 42  1  0
 45 46  2  0
 46 48  1  0
 48 47  1  0
 49 53  1  0
 49  5  1  0
 51 53  1  0
 51 52  1  0
 52 55  1  0
 52 50  1  0
 53 50  1  0
 53 54  1  1
 56 67  2  0
 57 55  1  0
 57 62  1  0
 58 66  1  0
 58 68  1  0
 59 65  1  0
 59 61  1  0
 60 66  1  0
 61 62  2  0
 61 60  1  0
 63 57  2  0
 64 63  1  0
 64 59  2  0
 65 58  1  0
 66 56  1  0
 68 70  2  0
 69 68  1  0
 71 69  1  0
 72 81  2  0
 72 77  1  0
 73 69  1  0
 73 77  1  0
 74 73  1  0
 75 76  1  0
 75 74  1  0
 76 72  1  0
 77 78  2  0
 78 79  1  0
 80 79  2  0
 81 80  1  0
 82 56  1  0
 82 87  1  0
 82 83  1  0
 83 86  1  1
 83 84  1  0
 85 83  1  0
 87 90  1  0
 88 92  1  0
 88 87  1  0
 89 88  2  0
 92 91  1  0
 94 92  1  0
 94 95  1  0
 94 93  1  0
M  ISO  4   7 100  15 100  52 101  55 101
M  END
>  <TORSDO>  (73) 
F 20

>  <SCORE>  (73) 
-12.320

>  <name>  (73) 
73

>  <ligand_id>  (73) 
73

>  <original_smiles>  (73) 
[H]C(=C([H])C([H])([H])C([H])([H])[H])c1c([H])c([H])c(N([H])C(=O)N2C([H])([H])C([H])([H])C([H])([H])C([H])(n3nc(-c4c([H])c([H])c(Oc5c([H])c([H])c(F)c([H])c5F)c([H])c4[H])c(C(=O)N([H])[H])c3N([H])[H])C2([H])[H])c([H])c1C([H])([H])[N+]1([H])C([H])([H])C([H])(Oc2c([H])c([H])c3c(c2[H])C([H])([H])N(C(=O)C([H])(N([H])C(=O)C([H])(N([H])C([H])([H])[H])C([H])([H])[H])C(C([H])([H])[H])(C([H])([H])[H])C([H])([H])[H])C([H])(C(=O)N([H])C2([H])c4c([H])c([H])c([H])c([H])c4C([H])([H])C([H])([H])C2([H])[H])C3([H])[H])C1([H])[H]

>  <smiles>  (73) 
[H]C(=C([H])C([H])([H])C([H])([H])[H])c1c([H])c([H])c(N([H])C(=O)N2C([H])([H])C([H])([H])C([H])([H])C([H])(n3nc(-c4c([H])c([H])c(Oc5c([H])c([H])c(F)c([H])c5F)c([H])c4[H])c(C(=O)N([H])[H])c3N([H])[H])C2([H])[H])c([H])c1C([H])([H])[N+]1([H])C([H])([H])C([H])(Oc2c([H])c([H])c3c(c2[H])C([H])([H])N(C(=O)C([H])(N([H])C(=O)C([H])(N([H])C([H])([H])[H])C([H])([H])[H])C(C([H])([H])[H])(C([H])([H])[H])C([H])([H])[H])C([H])(C(=O)N([H])C2([H])c4c([H])c([H])c([H])c([H])c4C([H])([H])C([H])([H])C2([H])[H])C3([H])[H])C1([H])[H]

$$$$
74:0:0
     RDKit          3D

 98107  0  0  1  0  0  0  0  0999 V2000
  -29.3490  -23.4930   20.5410 C   0  0  0  0  0  3  0  0  0  0  0  0
  -27.3290  -22.1390   20.5910 C   0  0  0  0  0  3  0  0  0  0  0  0
  -27.1990  -24.5510   20.9680 C   0  0  0  0  0  3  0  0  0  0  0  0
  -28.7380  -22.2030   20.4330 C   0  0  0  0  0  0  0  0  0  0  0  0
  -28.5930  -24.6740   20.8130 C   0  0  0  0  0  0  0  0  0  0  0  0
  -26.5710  -23.3000   20.8460 C   0  0  0  0  0  0  0  0  0  0  0  0
  -24.8590  -23.1860   21.0330 Cl  0  0  0  0  0  0  0  0  0  0  0  0
  -29.6080  -20.9320   20.1730 C   0  0  0  0  0  2  0  0  0  0  0  0
  -30.1080  -18.4570   20.7600 C   0  0  0  0  0  0  0  0  0  0  0  0
  -31.0530  -18.4770   21.7350 C   0  0  0  0  0  0  0  0  0  0  0  0
  -27.6500  -18.0500   19.2190 C   0  0  0  0  0  2  0  0  0  0  0  0
  -28.9830  -17.7380   18.5520 C   0  0  0  0  0  2  0  0  0  0  0  0
  -27.7300  -19.2880   20.1280 C   0  0  0  0  0  2  0  0  0  0  0  0
  -30.0230  -17.3860   19.6290 C   0  0  0  0  0  3  0  0  0  0  0  0
  -31.1330  -19.5320   22.8310 C   0  0  0  0  0  1  0  0  0  0  0  0
  -32.1850  -17.4660   21.8300 C   0  0  0  0  0  1  0  0  0  0  0  0
  -29.0880  -19.6030   20.6690 N   0  0  2  0  0  4  0  0  0  0  0  0
  -28.8940  -19.8280   21.6330 H   0  0  0  0  0  0  0  0  0  0  0  0
  -30.5870  -14.9140   19.8170 C   0  0  0  0  0  0  0  0  0  0  0  0
  -30.3820  -12.6110   18.9530 C   0  0  0  0  0  2  0  0  0  0  0  0
  -29.3770  -12.6180   17.7810 C   0  0  0  0  0  2  0  0  0  0  0  0
  -27.9400  -12.4350   18.3040 C   0  0  0  0  0  2  0  0  0  0  0  0
  -27.6050  -13.3890   19.4820 C   0  0  0  0  0  3  0  0  0  0  0  0
  -28.7220  -13.3760   20.5510 C   0  0  0  0  0  2  0  0  0  0  0  0
  -29.9920  -13.6890   19.8800 N   0  0  0  0  0  0  0  0  0  0  0  0
  -31.7040  -15.0750   19.3180 O   0  0  0  0  0  0  0  0  0  0  0  0
  -29.8000  -15.9840   20.1050 N   0  0  0  0  0  0  0  0  0  0  0  0
  -28.9090  -15.7760   20.5290 H   0  0  0  0  0  0  0  0  0  0  0  0
  -25.2800  -13.9640   20.4210 C   0  0  0  0  0  0  0  0  0  0  0  0
  -24.2430  -13.1760   20.8420 C   0  0  0  0  0  0  0  0  0  0  0  0
  -24.6920  -11.8260   20.7060 C   0  0  0  0  0  0  0  0  0  0  0  0
  -26.2970  -13.0920   20.0600 N   0  0  0  0  0  0  0  0  0  0  0  0
  -25.9520  -11.8000   20.2900 N   0  0  0  0  0  0  0  0  0  0  0  0
  -23.9780  -10.5570   20.8930 C   0  0  0  0  0  0  0  0  0  0  0  0
  -24.3940   -9.6090   21.8530 C   0  0  0  0  0  3  0  0  0  0  0  0
  -23.6760   -8.4050   22.0270 C   0  0  0  0  0  3  0  0  0  0  0  0
  -22.5310   -8.1410   21.2390 C   0  0  0  0  0  0  0  0  0  0  0  0
  -22.1360   -9.0780   20.2680 C   0  0  0  0  0  3  0  0  0  0  0  0
  -22.8520  -10.2730   20.0930 C   0  0  0  0  0  3  0  0  0  0  0  0
  -21.7890   -6.9870   21.3210 O   0  0  0  0  0  0  0  0  0  0  0  0
  -21.6080   -6.3310   22.5120 C   0  0  0  0  0  0  0  0  0  0  0  0
  -20.9920   -6.9530   23.6200 C   0  0  0  0  0  3  0  0  0  0  0  0
  -20.7630   -6.2200   24.8010 C   0  0  0  0  0  3  0  0  0  0  0  0
  -21.1410   -4.8660   24.8750 C   0  0  0  0  0  0  0  0  0  0  0  0
  -21.7490   -4.2440   23.7710 C   0  0  0  0  0  3  0  0  0  0  0  0
  -21.9790   -4.9740   22.5920 C   0  0  0  0  0  0  0  0  0  0  0  0
  -22.5480   -4.3640   21.5240 F   0  0  0  0  0  0  0  0  0  0  0  0
  -20.9130   -4.1580   26.0070 F   0  0  0  0  0  0  0  0  0  0  0  0
  -22.8760  -13.6430   21.2510 C   0  0  0  0  0  0  0  0  0  0  0  0
  -22.2240  -12.9150   22.1520 N   0  0  0  0  0  0  0  0  0  0  0  0
  -22.3970  -14.6860   20.8070 O   0  0  0  0  0  0  0  0  0  0  0  0
  -22.6230  -12.0690   22.5280 H   0  0  0  0  0  0  0  0  0  0  0  0
  -21.3120  -13.2110   22.4700 H   0  0  0  0  0  0  0  0  0  0  0  0
  -25.4390  -15.3400   20.2930 N   0  0  0  0  0  0  0  0  0  0  0  0
  -24.6750  -15.9840   20.4670 H   0  0  0  0  0  0  0  0  0  0  0  0
  -26.2330  -15.7740   19.8450 H   0  0  0  0  0  0  0  0  0  0  0  0
  -29.2600  -26.0430   21.0790 C   0  0  0  0  0  2  0  0  0  0  0  0
  -29.0250  -27.1020   20.1260 O   0  0  0  0  0  0  0  0  0  0  0  0
  -24.7810  -31.9270   23.3390 C   0  0  0  0  0  0  0  0  0  0  0  0
  -27.8240  -27.7820   20.1870 C   0  0  0  0  0  0  0  0  0  0  0  0
  -23.7390  -30.5410   21.5750 C   0  0  0  0  0  3  0  0  0  0  0  0
  -25.3490  -29.1620   20.1520 C   0  0  0  0  0  0  0  0  0  0  0  0
  -26.2470  -31.0510   21.5200 C   0  0  0  0  0  2  0  0  0  0  0  0
  -26.4460  -29.7150   20.8260 C   0  0  0  0  0  0  0  0  0  0  0  0
  -27.6870  -29.0290   20.8470 C   0  0  0  0  0  3  0  0  0  0  0  0
  -26.7180  -27.2610   19.4880 C   0  0  0  0  0  3  0  0  0  0  0  0
  -25.4810  -27.9330   19.4820 C   0  0  0  0  0  3  0  0  0  0  0  0
  -24.0530  -29.9440   20.1770 C   0  0  0  0  0  2  0  0  0  0  0  0
  -24.9360  -31.1870   22.2040 N   0  0  0  0  0  0  0  0  0  0  0  0
  -23.6620  -32.1060   23.8380 O   0  0  0  0  0  0  0  0  0  0  0  0
  -23.1090  -29.4360   22.4530 C   0  0  0  0  0  0  0  0  0  0  0  0
  -21.8040  -29.1840   22.2580 N   0  0  0  0  0  0  0  0  0  0  0  0
  -23.7940  -28.8100   23.2670 O   0  0  0  0  0  0  0  0  0  0  0  0
  -21.3110  -29.7470   21.5780 H   0  0  0  0  0  0  0  0  0  0  0  0
  -18.4790  -27.8070   22.5810 C   0  0  0  0  0  0  0  0  0  0  0  0
  -21.0140  -28.1610   22.9420 C   0  0  0  0  0  3  0  0  0  0  0  0
  -21.1990  -26.7780   22.2760 C   0  0  0  0  0  2  0  0  0  0  0  0
  -20.1400  -26.4740   21.2130 C   0  0  0  0  0  2  0  0  0  0  0  0
  -18.7360  -26.5140   21.8250 C   0  0  0  0  0  2  0  0  0  0  0  0
  -19.5500  -28.5880   23.0910 C   0  0  0  0  0  0  0  0  0  0  0  0
  -19.2580  -29.7960   23.7580 C   0  0  0  0  0  3  0  0  0  0  0  0
  -17.9280  -30.2290   23.9190 C   0  0  0  0  0  3  0  0  0  0  0  0
  -16.8720  -29.4440   23.4270 C   0  0  0  0  0  3  0  0  0  0  0  0
  -17.1480  -28.2360   22.7620 C   0  0  0  0  0  3  0  0  0  0  0  0
  -25.9970  -32.6000   24.0490 C   0  0  0  0  0  3  0  0  0  0  0  0
  -26.4380  -31.8550   25.3700 C   0  0  1  0  0  0  0  0  0  0  0  0
  -25.2710  -31.5850   26.3480 C   0  0  0  0  0  1  0  0  0  0  0  0
  -27.1030  -30.5000   25.0360 C   0  0  0  0  0  1  0  0  0  0  0  0
  -27.5010  -32.6970   26.1150 C   0  0  0  0  0  1  0  0  0  0  0  0
  -25.6250  -33.9900   24.3370 N   0  0  0  0  0  0  0  0  0  0  0  0
  -25.9610  -35.0420   23.5770 C   0  0  0  0  0  0  0  0  0  0  0  0
  -26.6860  -34.9450   22.5820 O   0  0  0  0  0  0  0  0  0  0  0  0
  -24.9850  -34.1370   25.1050 H   0  0  0  0  0  0  0  0  0  0  0  0
  -24.1870  -36.7640   23.1080 C   0  0  0  0  0  1  0  0  0  0  0  0
  -25.4020  -36.4190   23.9850 C   0  0  0  0  0  3  0  0  0  0  0  0
  -27.4560  -37.4020   24.9030 C   0  0  0  0  0  1  0  0  0  0  0  0
  -26.4000  -37.5080   23.8980 N   0  0  0  0  0  0  0  0  0  0  0  0
  -25.9550  -38.4150   24.0000 H   0  0  0  0  0  0  0  0  0  0  0  0
  1  5  1  0
  2  6  2  0
  4  1  2  0
  4  2  1  0
  5  3  2  0
  5 57  1  0
  6  3  1  0
  6  7  1  0
  8  4  1  0
  8 17  1  0
  9 10  2  0
 10 16  1  0
 10 15  1  0
 11 13  1  0
 12 11  1  0
 12 14  1  0
 13 17  1  0
 14 27  1  0
 14  9  1  0
 17  9  1  0
 17 18  1  1
 19 25  1  0
 19 27  1  0
 20 25  1  0
 21 22  1  0
 21 20  1  0
 23 22  1  0
 23 32  1  0
 23 24  1  0
 25 24  1  0
 26 19  2  0
 27 28  1  0
 29 30  2  0
 30 49  1  0
 31 30  1  0
 31 34  1  0
 32 33  1  0
 32 29  1  0
 33 31  2  0
 34 35  1  0
 35 36  2  0
 37 40  1  0
 37 36  1  0
 38 37  2  0
 39 38  1  0
 39 34  2  0
 40 41  1  0
 41 46  2  0
 41 42  1  0
 42 43  2  0
 43 44  1  0
 44 48  1  0
 45 44  2  0
 46 45  1  0
 47 46  1  0
 49 50  1  0
 50 53  1  0
 50 52  1  0
 51 49  2  0
 54 29  1  0
 54 55  1  0
 56 54  1  0
 58 60  1  0
 58 57  1  0
 59 70  2  0
 60 65  1  0
 61 69  1  0
 61 71  1  0
 62 68  1  0
 62 64  1  0
 63 69  1  0
 64 65  2  0
 64 63  1  0
 66 60  2  0
 67 66  1  0
 67 62  2  0
 68 61  1  0
 69 59  1  0
 71 73  2  0
 72 71  1  0
 74 72  1  0
 75 84  2  0
 75 80  1  0
 76 72  1  0
 76 80  1  0
 77 76  1  0
 78 79  1  0
 78 77  1  0
 79 75  1  0
 80 81  2  0
 81 82  1  0
 83 82  2  0
 84 83  1  0
 85 59  1  0
 85 90  1  0
 85 86  1  0
 86 89  1  1
 86 87  1  0
 88 86  1  0
 90 93  1  0
 91 95  1  0
 91 90  1  0
 92 91  2  0
 95 94  1  0
 97 95  1  0
 97 98  1  0
 97 96  1  0
M  ISO  4  19 100  27 100  57 101  58 101
M  END
>  <TORSDO>  (74) 
F 19

>  <SCORE>  (74) 
-13.159

>  <name>  (74) 
74

>  <ligand_id>  (74) 
74

>  <original_smiles>  (74) 
[H]c1c([H])c([H])c2c(c1[H])C([H])([H])C([H])([H])C([H])([H])C2([H])N([H])C(=O)C1([H])N(C(=O)C([H])(N([H])C(=O)C([H])(N([H])C([H])([H])[H])C([H])([H])[H])C(C([H])([H])[H])(C([H])([H])[H])C([H])([H])[H])C([H])([H])c2c([H])c(OC([H])([H])c3c([H])c(Cl)c([H])c(C([H])([H])[N+]4([H])C(=C(C([H])([H])[H])C([H])([H])[H])C([H])(N([H])C(=O)N5C([H])([H])C([H])([H])C([H])([H])C([H])(n6nc(-c7c([H])c([H])c(Oc8c([H])c([H])c(F)c([H])c8F)c([H])c7[H])c(C(=O)N([H])[H])c6N([H])[H])C5([H])[H])C([H])([H])C([H])([H])C4([H])[H])c3[H])c([H])c([H])c2C1([H])[H]

>  <smiles>  (74) 
[H]c1c([H])c([H])c2c(c1[H])C([H])([H])C([H])([H])C([H])([H])C2([H])N([H])C(=O)C1([H])N(C(=O)C([H])(N([H])C(=O)C([H])(N([H])C([H])([H])[H])C([H])([H])[H])C(C([H])([H])[H])(C([H])([H])[H])C([H])([H])[H])C([H])([H])c2c([H])c(OC([H])([H])c3c([H])c(Cl)c([H])c(C([H])([H])[N+]4([H])C(=C(C([H])([H])[H])C([H])([H])[H])C([H])(N([H])C(=O)N5C([H])([H])C([H])([H])C([H])([H])C([H])(n6nc(-c7c([H])c([H])c(Oc8c([H])c([H])c(F)c([H])c8F)c([H])c7[H])c(C(=O)N([H])[H])c6N([H])[H])C5([H])[H])C([H])([H])C([H])([H])C4([H])[H])c3[H])c([H])c([H])c2C1([H])[H]

$$$$
75:0:0
     RDKit          3D

 93102  0  0  1  0  0  0  0  0999 V2000
  -28.4850  -18.8710   20.0150 C   0  0  0  0  0  3  0  0  0  0  0  0
  -28.2460  -20.2400   19.7070 C   0  0  0  0  0  3  0  0  0  0  0  0
  -30.3650  -19.5190   21.3570 C   0  0  0  0  0  3  0  0  0  0  0  0
  -29.5720  -18.4610   20.8260 C   0  0  0  0  0  0  0  0  0  0  0  0
  -29.0440  -21.3040   20.2180 C   0  0  0  0  0  0  0  0  0  0  0  0
  -30.1080  -20.8990   21.0760 C   0  0  0  0  0  0  0  0  0  0  0  0
  -30.9220  -21.8360   21.6210 F   0  0  0  0  0  0  0  0  0  0  0  0
  -28.1550  -24.4950   18.4030 C   0  0  0  0  0  2  0  0  0  0  0  0
  -28.0830  -22.9690   18.5820 C   0  0  0  0  0  2  0  0  0  0  0  0
  -29.0570  -23.9580   20.5260 C   0  0  0  0  0  2  0  0  0  0  0  0
  -28.1260  -25.0370   19.8400 C   0  0  0  0  0  3  0  0  0  0  0  0
  -28.7720  -22.6710   19.8340 N   0  0  0  0  0  0  0  0  0  0  0  0
  -28.3560  -26.5050   19.9220 O   0  0  0  0  0  0  0  0  0  0  0  0
  -24.5640  -31.7660   23.0890 C   0  0  0  0  0  0  0  0  0  0  0  0
  -27.2330  -27.3540   19.8780 C   0  0  0  0  0  0  0  0  0  0  0  0
  -23.3790  -30.4070   21.4060 C   0  0  0  0  0  3  0  0  0  0  0  0
  -24.8480  -28.9390   19.9230 C   0  0  0  0  0  0  0  0  0  0  0  0
  -25.9140  -30.7710   21.2290 C   0  0  0  0  0  2  0  0  0  0  0  0
  -26.0130  -29.4190   20.5340 C   0  0  0  0  0  0  0  0  0  0  0  0
  -27.2090  -28.6410   20.5020 C   0  0  0  0  0  3  0  0  0  0  0  0
  -26.0400  -26.9370   19.2390 C   0  0  0  0  0  3  0  0  0  0  0  0
  -24.8640  -27.7030   19.2660 C   0  0  0  0  0  3  0  0  0  0  0  0
  -23.5990  -29.7900   20.0020 C   0  0  0  0  0  2  0  0  0  0  0  0
  -24.6370  -30.9960   21.9650 N   0  0  0  0  0  0  0  0  0  0  0  0
  -23.4770  -32.0090   23.6330 O   0  0  0  0  0  0  0  0  0  0  0  0
  -22.7360  -29.3430   22.3290 C   0  0  0  0  0  0  0  0  0  0  0  0
  -21.4120  -29.1520   22.2010 N   0  0  0  0  0  0  0  0  0  0  0  0
  -23.4270  -28.6970   23.1210 O   0  0  0  0  0  0  0  0  0  0  0  0
  -20.9130  -29.7260   21.5360 H   0  0  0  0  0  0  0  0  0  0  0  0
  -18.0520  -27.8970   22.6730 C   0  0  0  0  0  0  0  0  0  0  0  0
  -20.6080  -28.1780   22.9420 C   0  0  0  0  0  3  0  0  0  0  0  0
  -20.7240  -26.7680   22.3170 C   0  0  0  0  0  2  0  0  0  0  0  0
  -19.6230  -26.4670   21.2970 C   0  0  0  0  0  2  0  0  0  0  0  0
  -18.2420  -26.5730   21.9510 C   0  0  0  0  0  2  0  0  0  0  0  0
  -19.1620  -28.6580   23.1240 C   0  0  0  0  0  0  0  0  0  0  0  0
  -18.9310  -29.8970   23.7590 C   0  0  0  0  0  3  0  0  0  0  0  0
  -17.6200  -30.3760   23.9470 C   0  0  0  0  0  3  0  0  0  0  0  0
  -16.5250  -29.6120   23.5120 C   0  0  0  0  0  3  0  0  0  0  0  0
  -16.7410  -28.3750   22.8800 C   0  0  0  0  0  3  0  0  0  0  0  0
  -25.8380  -32.3980   23.7290 C   0  0  0  0  0  3  0  0  0  0  0  0
  -26.3760  -31.5850   24.9700 C   0  0  1  0  0  0  0  0  0  0  0  0
  -25.2940  -31.2830   26.0330 C   0  0  0  0  0  1  0  0  0  0  0  0
  -26.9820  -30.2350   24.5200 C   0  0  0  0  0  1  0  0  0  0  0  0
  -27.5160  -32.3730   25.6570 C   0  0  0  0  0  1  0  0  0  0  0  0
  -25.5030  -33.7750   24.1180 N   0  0  0  0  0  0  0  0  0  0  0  0
  -25.8370  -34.8670   23.4170 C   0  0  0  0  0  0  0  0  0  0  0  0
  -26.5310  -34.8200   22.3980 O   0  0  0  0  0  0  0  0  0  0  0  0
  -24.8890  -33.8830   24.9120 H   0  0  0  0  0  0  0  0  0  0  0  0
  -24.1220  -36.6740   23.0800 C   0  0  0  0  0  1  0  0  0  0  0  0
  -25.3210  -36.2250   23.9290 C   0  0  0  0  0  3  0  0  0  0  0  0
  -27.4010  -37.0690   24.9250 C   0  0  0  0  0  1  0  0  0  0  0  0
  -26.3540  -37.2840   23.9300 N   0  0  0  0  0  0  0  0  0  0  0  0
  -25.9370  -38.1950   24.1020 H   0  0  0  0  0  0  0  0  0  0  0  0
  -29.8380  -16.9380   21.1730 C   0  0  0  0  0  2  0  0  0  0  0  0
  -30.9950  -14.7820   20.5220 C   0  0  0  0  0  0  0  0  0  0  0  0
  -30.7460  -12.5040   19.5720 C   0  0  0  0  0  2  0  0  0  0  0  0
  -29.8620  -12.5140   18.3090 C   0  0  0  0  0  2  0  0  0  0  0  0
  -28.3710  -12.4170   18.6780 C   0  0  0  0  0  2  0  0  0  0  0  0
  -27.9570  -13.3600   19.8410 C   0  0  0  0  0  3  0  0  0  0  0  0
  -28.9700  -13.3210   21.0050 C   0  0  0  0  0  2  0  0  0  0  0  0
  -30.2890  -13.6110   20.4340 N   0  0  0  0  0  0  0  0  0  0  0  0
  -32.2250  -14.7560   20.4340 O   0  0  0  0  0  0  0  0  0  0  0  0
  -30.3560  -15.9570   20.1440 N   0  0  0  0  0  0  0  0  0  0  0  0
  -25.5420  -13.9740   20.4580 C   0  0  0  0  0  0  0  0  0  0  0  0
  -24.4570  -13.2090   20.7880 C   0  0  0  0  0  0  0  0  0  0  0  0
  -24.9150  -11.8560   20.8050 C   0  0  0  0  0  0  0  0  0  0  0  0
  -26.5930  -13.0870   20.2870 N   0  0  0  0  0  0  0  0  0  0  0  0
  -26.2190  -11.8110   20.5640 N   0  0  0  0  0  0  0  0  0  0  0  0
  -24.1770  -10.5980   20.9800 C   0  0  0  0  0  0  0  0  0  0  0  0
  -24.5590   -9.6440   21.9500 C   0  0  0  0  0  3  0  0  0  0  0  0
  -23.8200   -8.4530   22.1130 C   0  0  0  0  0  3  0  0  0  0  0  0
  -22.6850   -8.2060   21.3050 C   0  0  0  0  0  0  0  0  0  0  0  0
  -22.3220   -9.1460   20.3250 C   0  0  0  0  0  3  0  0  0  0  0  0
  -23.0620  -10.3290   20.1600 C   0  0  0  0  0  3  0  0  0  0  0  0
  -21.9230   -7.0640   21.3740 O   0  0  0  0  0  0  0  0  0  0  0  0
  -21.8010   -6.3490   22.5390 C   0  0  0  0  0  0  0  0  0  0  0  0
  -21.2870   -6.9300   23.7180 C   0  0  0  0  0  3  0  0  0  0  0  0
  -21.1130   -6.1430   24.8740 C   0  0  0  0  0  3  0  0  0  0  0  0
  -21.4440   -4.7740   24.8500 C   0  0  0  0  0  0  0  0  0  0  0  0
  -21.9510   -4.1930   23.6750 C   0  0  0  0  0  3  0  0  0  0  0  0
  -22.1250   -4.9780   22.5220 C   0  0  0  0  0  0  0  0  0  0  0  0
  -22.5950   -4.4070   21.3850 F   0  0  0  0  0  0  0  0  0  0  0  0
  -21.2710   -4.0160   25.9570 F   0  0  0  0  0  0  0  0  0  0  0  0
  -23.0480  -13.6940   20.9800 C   0  0  0  0  0  0  0  0  0  0  0  0
  -22.2850  -13.0320   21.8420 N   0  0  0  0  0  0  0  0  0  0  0  0
  -22.6330  -14.6950   20.3980 O   0  0  0  0  0  0  0  0  0  0  0  0
  -22.6330  -12.2230   22.3350 H   0  0  0  0  0  0  0  0  0  0  0  0
  -21.3390  -13.3410   22.0140 H   0  0  0  0  0  0  0  0  0  0  0  0
  -25.7220  -15.3390   20.2640 N   0  0  0  0  0  0  0  0  0  0  0  0
  -24.9570  -16.0020   20.3260 H   0  0  0  0  0  0  0  0  0  0  0  0
  -26.5930  -15.7660   19.9770 H   0  0  0  0  0  0  0  0  0  0  0  0
  -31.2820  -15.8240   17.7400 C   0  0  0  0  0  1  0  0  0  0  0  0
  -30.9320  -16.6760   18.9740 C   0  0  0  0  0  2  0  0  0  0  0  0
  1  4  1  0
  2  1  2  0
  2  5  1  0
  4 54  1  0
  4  3  2  0
  5  6  2  0
  6  3  1  0
  6  7  1  0
  8  9  1  0
  8 11  1  0
  9 12  1  0
 11 13  1  0
 11 10  1  0
 12  5  1  0
 12 10  1  0
 14 25  2  0
 15 13  1  0
 15 20  1  0
 16 24  1  0
 16 26  1  0
 17 23  1  0
 17 19  1  0
 18 24  1  0
 19 18  1  0
 20 19  2  0
 21 22  1  0
 21 15  2  0
 22 17  2  0
 23 16  1  0
 24 14  1  0
 26 28  2  0
 27 26  1  0
 29 27  1  0
 30 39  2  0
 30 35  1  0
 31 27  1  0
 31 35  1  0
 32 31  1  0
 33 34  1  0
 33 32  1  0
 34 30  1  0
 35 36  2  0
 36 37  1  0
 38 37  2  0
 39 38  1  0
 40 14  1  0
 40 45  1  0
 40 41  1  0
 41 44  1  1
 41 42  1  0
 43 41  1  0
 45 48  1  0
 46 50  1  0
 46 45  1  0
 47 46  2  0
 50 49  1  0
 50 52  1  0
 52 53  1  0
 52 51  1  0
 56 61  1  0
 57 58  1  0
 57 56  1  0
 59 58  1  0
 59 67  1  0
 59 60  1  0
 61 55  1  0
 61 60  1  0
 62 55  2  0
 63 55  1  0
 63 54  1  0
 64 65  2  0
 65 66  1  0
 65 84  1  0
 66 69  1  0
 67 64  1  0
 67 68  1  0
 68 66  2  0
 69 70  1  0
 70 71  2  0
 72 75  1  0
 72 71  1  0
 73 72  2  0
 74 73  1  0
 74 69  2  0
 75 76  1  0
 76 77  1  0
 77 78  2  0
 79 78  1  0
 79 83  1  0
 80 79  2  0
 81 76  2  0
 81 80  1  0
 82 81  1  0
 84 85  1  0
 85 88  1  0
 85 87  1  0
 86 84  2  0
 89 90  1  0
 89 64  1  0
 91 89  1  0
 92 93  1  0
 93 63  1  0
M  ISO  4  11 101  13 101  55 100  63 100
M  END
>  <TORSDO>  (75) 
F 19

>  <SCORE>  (75) 
-13.966

>  <name>  (75) 
75

>  <ligand_id>  (75) 
75

>  <original_smiles>  (75) 
[H]c1c([H])c([H])c2c(c1[H])C([H])([H])C([H])([H])C([H])([H])C2([H])N([H])C(=O)C1([H])N(C(=O)C([H])(N([H])C(=O)C([H])(N([H])C([H])([H])[H])C([H])([H])[H])C(C([H])([H])[H])(C([H])([H])[H])C([H])([H])[H])C([H])([H])c2c([H])c(OC3([H])C([H])([H])N(c4c([H])c([H])c(C([H])([H])N(C(=O)N5C([H])([H])C([H])([H])C([H])([H])C([H])(n6nc(-c7c([H])c([H])c(Oc8c([H])c([H])c(F)c([H])c8F)c([H])c7[H])c(C(=O)N([H])[H])c6N([H])[H])C5([H])[H])C([H])([H])C([H])([H])[H])c([H])c4F)C([H])([H])C3([H])[H])c([H])c([H])c2C1([H])[H]

>  <smiles>  (75) 
[H]c1c([H])c([H])c2c(c1[H])C([H])([H])C([H])([H])C([H])([H])C2([H])N([H])C(=O)C1([H])N(C(=O)C([H])(N([H])C(=O)C([H])(N([H])C([H])([H])[H])C([H])([H])[H])C(C([H])([H])[H])(C([H])([H])[H])C([H])([H])[H])C([H])([H])c2c([H])c(OC3([H])C([H])([H])N(c4c([H])c([H])c(C([H])([H])N(C(=O)N5C([H])([H])C([H])([H])C([H])([H])C([H])(n6nc(-c7c([H])c([H])c(Oc8c([H])c([H])c(F)c([H])c8F)c([H])c7[H])c(C(=O)N([H])[H])c6N([H])[H])C5([H])[H])C([H])([H])C([H])([H])[H])c([H])c4F)C([H])([H])C3([H])[H])c([H])c([H])c2C1([H])[H]

$$$$
76:0:0
     RDKit          3D

 95104  0  0  1  0  0  0  0  0999 V2000
  -30.8200  -25.0210   20.3560 C   0  0  0  0  0  2  0  0  0  0  0  0
  -31.0460  -23.6300   19.7250 C   0  0  0  0  0  2  0  0  0  0  0  0
  -28.8090  -23.7050   20.4770 C   0  0  0  0  0  2  0  0  0  0  0  0
  -29.5210  -24.8840   21.1600 C   0  0  0  0  0  3  0  0  0  0  0  0
  -29.9130  -22.7740   20.1570 N   0  0  1  0  0  4  0  0  0  0  0  0
  -30.1760  -22.3620   21.0380 H   0  0  0  0  0  0  0  0  0  0  0  0
  -29.5920  -21.6300   19.2580 C   0  0  0  0  0  2  0  0  0  0  0  0
  -28.9380  -19.2670   19.9810 C   0  0  0  0  0  3  0  0  0  0  0  0
  -29.2360  -18.0190   20.5720 C   0  0  0  0  0  3  0  0  0  0  0  0
  -31.2250  -19.9960   20.3720 C   0  0  0  0  0  3  0  0  0  0  0  0
  -29.9260  -20.2750   19.8910 C   0  0  0  0  0  0  0  0  0  0  0  0
  -30.5220  -17.7590   21.0940 C   0  0  0  0  0  0  0  0  0  0  0  0
  -31.5180  -18.7570   20.9800 C   0  0  0  0  0  0  0  0  0  0  0  0
  -32.7610  -18.5390   21.4720 F   0  0  0  0  0  0  0  0  0  0  0  0
  -30.8230  -16.4580   21.8390 C   0  0  0  0  0  2  0  0  0  0  0  0
  -30.7050  -14.4080   20.4120 C   0  0  0  0  0  0  0  0  0  0  0  0
  -30.3290  -12.3260   19.1350 C   0  0  0  0  0  2  0  0  0  0  0  0
  -29.3620  -12.5620   17.9580 C   0  0  0  0  0  2  0  0  0  0  0  0
  -27.8970  -12.4320   18.4160 C   0  0  0  0  0  2  0  0  0  0  0  0
  -27.5960  -13.2580   19.6940 C   0  0  0  0  0  3  0  0  0  0  0  0
  -28.6600  -12.9770   20.7790 C   0  0  0  0  0  2  0  0  0  0  0  0
  -29.9860  -13.2750   20.2050 N   0  0  0  0  0  0  0  0  0  0  0  0
  -31.7610  -14.6550   19.8230 O   0  0  0  0  0  0  0  0  0  0  0  0
  -30.1810  -15.2540   21.3080 N   0  0  0  0  0  0  0  0  0  0  0  0
  -29.3030  -14.9840   21.7280 H   0  0  0  0  0  0  0  0  0  0  0  0
  -25.2150  -13.8950   20.4370 C   0  0  0  0  0  0  0  0  0  0  0  0
  -24.1440  -13.1360   20.8270 C   0  0  0  0  0  0  0  0  0  0  0  0
  -24.5920  -11.7790   20.7960 C   0  0  0  0  0  0  0  0  0  0  0  0
  -26.2460  -13.0010   20.1910 N   0  0  0  0  0  0  0  0  0  0  0  0
  -25.8760  -11.7240   20.4640 N   0  0  0  0  0  0  0  0  0  0  0  0
  -23.8580  -10.5250   21.0050 C   0  0  0  0  0  0  0  0  0  0  0  0
  -24.3040   -9.5520   21.9250 C   0  0  0  0  0  3  0  0  0  0  0  0
  -23.5720   -8.3600   22.1180 C   0  0  0  0  0  3  0  0  0  0  0  0
  -22.3790   -8.1350   21.3920 C   0  0  0  0  0  0  0  0  0  0  0  0
  -21.9500   -9.0980   20.4610 C   0  0  0  0  0  3  0  0  0  0  0  0
  -22.6820  -10.2810   20.2650 C   0  0  0  0  0  3  0  0  0  0  0  0
  -21.6160   -6.9990   21.4960 O   0  0  0  0  0  0  0  0  0  0  0  0
  -21.5990   -6.2460   22.6430 C   0  0  0  0  0  0  0  0  0  0  0  0
  -21.2370   -6.7980   23.8920 C   0  0  0  0  0  3  0  0  0  0  0  0
  -21.1660   -5.9720   25.0310 C   0  0  0  0  0  3  0  0  0  0  0  0
  -21.4480   -4.5970   24.9240 C   0  0  0  0  0  0  0  0  0  0  0  0
  -21.8040   -4.0460   23.6810 C   0  0  0  0  0  3  0  0  0  0  0  0
  -21.8780   -4.8680   22.5430 C   0  0  0  0  0  0  0  0  0  0  0  0
  -22.2030   -4.3280   21.3440 F   0  0  0  0  0  0  0  0  0  0  0  0
  -21.3720   -3.8030   26.0170 F   0  0  0  0  0  0  0  0  0  0  0  0
  -22.7570  -13.6290   21.1210 C   0  0  0  0  0  0  0  0  0  0  0  0
  -22.0350  -12.9450   22.0010 N   0  0  0  0  0  0  0  0  0  0  0  0
  -22.3200  -14.6560   20.6020 O   0  0  0  0  0  0  0  0  0  0  0  0
  -22.4000  -12.1150   22.4450 H   0  0  0  0  0  0  0  0  0  0  0  0
  -21.1050  -13.2570   22.2360 H   0  0  0  0  0  0  0  0  0  0  0  0
  -25.3880  -15.2630   20.2530 N   0  0  0  0  0  0  0  0  0  0  0  0
  -24.6220  -15.9180   20.3710 H   0  0  0  0  0  0  0  0  0  0  0  0
  -26.2280  -15.6930   19.8890 H   0  0  0  0  0  0  0  0  0  0  0  0
  -28.7200  -26.1910   21.3260 C   0  0  0  0  0  2  0  0  0  0  0  0
  -28.3700  -26.7320   20.0580 O   0  0  0  0  0  0  0  0  0  0  0  0
  -24.6200  -31.8980   23.2260 C   0  0  0  0  0  0  0  0  0  0  0  0
  -27.2340  -27.4940   20.0950 C   0  0  0  0  0  0  0  0  0  0  0  0
  -23.3970  -30.5010   21.5910 C   0  0  0  0  0  3  0  0  0  0  0  0
  -24.8380  -28.9730   20.1460 C   0  0  0  0  0  0  0  0  0  0  0  0
  -25.9190  -30.8670   21.3710 C   0  0  0  0  0  2  0  0  0  0  0  0
  -26.0000  -29.5000   20.7280 C   0  0  0  0  0  0  0  0  0  0  0  0
  -27.2030  -28.7630   20.7120 C   0  0  0  0  0  3  0  0  0  0  0  0
  -26.0680  -26.9740   19.5060 C   0  0  0  0  0  3  0  0  0  0  0  0
  -24.8650  -27.7040   19.5370 C   0  0  0  0  0  3  0  0  0  0  0  0
  -23.5940  -29.8280   20.2050 C   0  0  0  0  0  2  0  0  0  0  0  0
  -24.6640  -31.1030   22.1210 N   0  0  0  0  0  0  0  0  0  0  0  0
  -23.5450  -32.1670   23.7800 O   0  0  0  0  0  0  0  0  0  0  0  0
  -22.7590  -29.4760   22.5540 C   0  0  0  0  0  0  0  0  0  0  0  0
  -21.4330  -29.2910   22.4380 N   0  0  0  0  0  0  0  0  0  0  0  0
  -23.4500  -28.8490   23.3610 O   0  0  0  0  0  0  0  0  0  0  0  0
  -20.9360  -29.8470   21.7560 H   0  0  0  0  0  0  0  0  0  0  0  0
  -18.0660  -28.0870   22.9550 C   0  0  0  0  0  0  0  0  0  0  0  0
  -20.6240  -28.3530   23.2140 C   0  0  0  0  0  3  0  0  0  0  0  0
  -20.7280  -26.9210   22.6410 C   0  0  0  0  0  2  0  0  0  0  0  0
  -19.6230  -26.5930   21.6310 C   0  0  0  0  0  2  0  0  0  0  0  0
  -18.2430  -26.7370   22.2810 C   0  0  0  0  0  2  0  0  0  0  0  0
  -19.1840  -28.8530   23.3790 C   0  0  0  0  0  0  0  0  0  0  0  0
  -18.9680  -30.1170   23.9700 C   0  0  0  0  0  3  0  0  0  0  0  0
  -17.6620  -30.6150   24.1430 C   0  0  0  0  0  3  0  0  0  0  0  0
  -16.5580  -29.8470   23.7340 C   0  0  0  0  0  3  0  0  0  0  0  0
  -16.7600  -28.5860   23.1460 C   0  0  0  0  0  3  0  0  0  0  0  0
  -25.9150  -32.5260   23.8330 C   0  0  0  0  0  3  0  0  0  0  0  0
  -26.4520  -31.7420   25.0920 C   0  0  1  0  0  0  0  0  0  0  0  0
  -25.3760  -31.4920   26.1750 C   0  0  0  0  0  1  0  0  0  0  0  0
  -27.0280  -30.3690   24.6770 C   0  0  0  0  0  1  0  0  0  0  0  0
  -27.6110  -32.5310   25.7490 C   0  0  0  0  0  1  0  0  0  0  0  0
  -25.6100  -33.9200   24.1780 N   0  0  0  0  0  0  0  0  0  0  0  0
  -25.9260  -34.9770   23.4180 C   0  0  0  0  0  0  0  0  0  0  0  0
  -26.5800  -34.8810   22.3760 O   0  0  0  0  0  0  0  0  0  0  0  0
  -25.0310  -34.0690   24.9910 H   0  0  0  0  0  0  0  0  0  0  0  0
  -24.1920  -36.7700   23.0980 C   0  0  0  0  0  1  0  0  0  0  0  0
  -25.4430  -36.3610   23.8910 C   0  0  0  0  0  3  0  0  0  0  0  0
  -27.5860  -37.2460   24.6980 C   0  0  0  0  0  1  0  0  0  0  0  0
  -26.4710  -37.4160   23.7720 N   0  0  0  0  0  0  0  0  0  0  0  0
  -26.0630  -38.3330   23.9330 H   0  0  0  0  0  0  0  0  0  0  0  0
  1  4  1  0
  2  5  1  0
  2  1  1  0
  3  4  1  0
  4 54  1  0
  5  3  1  0
  5  6  1  1
  7 11  1  0
  7  5  1  0
  8  9  1  0
  9 12  2  0
 10 13  2  0
 11  8  2  0
 11 10  1  0
 12 15  1  0
 13 12  1  0
 13 14  1  0
 16 24  1  0
 17 22  1  0
 18 19  1  0
 18 17  1  0
 20 19  1  0
 20 29  1  0
 20 21  1  0
 22 16  1  0
 22 21  1  0
 23 16  2  0
 24 25  1  0
 24 15  1  0
 26 27  2  0
 27 46  1  0
 28 27  1  0
 28 31  1  0
 29 26  1  0
 29 30  1  0
 30 28  2  0
 31 32  1  0
 32 33  2  0
 34 37  1  0
 34 33  1  0
 35 34  2  0
 36 35  1  0
 36 31  2  0
 37 38  1  0
 38 39  1  0
 39 40  2  0
 41 40  1  0
 41 45  1  0
 42 41  2  0
 43 38  2  0
 43 42  1  0
 44 43  1  0
 46 47  1  0
 47 50  1  0
 47 49  1  0
 48 46  2  0
 51 52  1  0
 51 26  1  0
 53 51  1  0
 55 57  1  0
 55 54  1  0
 56 67  2  0
 57 62  1  0
 58 66  1  0
 58 68  1  0
 59 65  1  0
 59 61  1  0
 60 66  1  0
 61 60  1  0
 62 61  2  0
 63 64  1  0
 63 57  2  0
 64 59  2  0
 65 58  1  0
 66 56  1  0
 68 70  2  0
 69 68  1  0
 71 69  1  0
 72 81  2  0
 72 77  1  0
 73 69  1  0
 73 77  1  0
 74 73  1  0
 75 76  1  0
 75 74  1  0
 76 72  1  0
 77 78  2  0
 78 79  1  0
 80 79  2  0
 81 80  1  0
 82 56  1  0
 82 87  1  0
 82 83  1  0
 83 86  1  1
 83 84  1  0
 85 83  1  0
 87 90  1  0
 88 92  1  0
 88 87  1  0
 89 88  2  0
 92 91  1  0
 94 92  1  0
 94 95  1  0
 94 93  1  0
M  ISO  4  16 100  24 100  54 101  55 101
M  END
>  <TORSDO>  (76) 
F 20

>  <SCORE>  (76) 
-14.275

>  <name>  (76) 
76

>  <ligand_id>  (76) 
76

>  <original_smiles>  (76) 
[H]c1c([H])c([H])c2c(c1[H])C([H])([H])C([H])([H])C([H])([H])C2([H])N([H])C(=O)C1([H])N(C(=O)C([H])(N([H])C(=O)C([H])(N([H])C([H])([H])[H])C([H])([H])[H])C(C([H])([H])[H])(C([H])([H])[H])C([H])([H])[H])C([H])([H])c2c([H])c(OC([H])([H])C3([H])C([H])([H])C([H])([H])[N+]([H])(C([H])([H])c4c([H])c([H])c(C([H])([H])N([H])C(=O)N5C([H])([H])C([H])([H])C([H])([H])C([H])(n6nc(-c7c([H])c([H])c(Oc8c([H])c([H])c(F)c([H])c8F)c([H])c7[H])c(C(=O)N([H])[H])c6N([H])[H])C5([H])[H])c(F)c4[H])C3([H])[H])c([H])c([H])c2C1([H])[H]

>  <smiles>  (76) 
[H]c1c([H])c([H])c2c(c1[H])C([H])([H])C([H])([H])C([H])([H])C2([H])N([H])C(=O)C1([H])N(C(=O)C([H])(N([H])C(=O)C([H])(N([H])C([H])([H])[H])C([H])([H])[H])C(C([H])([H])[H])(C([H])([H])[H])C([H])([H])[H])C([H])([H])c2c([H])c(OC([H])([H])C3([H])C([H])([H])C([H])([H])[N+]([H])(C([H])([H])c4c([H])c([H])c(C([H])([H])N([H])C(=O)N5C([H])([H])C([H])([H])C([H])([H])C([H])(n6nc(-c7c([H])c([H])c(Oc8c([H])c([H])c(F)c([H])c8F)c([H])c7[H])c(C(=O)N([H])[H])c6N([H])[H])C5([H])[H])c(F)c4[H])C3([H])[H])c([H])c([H])c2C1([H])[H]

$$$$
77:0:0
     RDKit          3D

 95104  0  0  1  0  0  0  0  0999 V2000
  -29.4240  -19.7890   18.8490 C   0  0  0  0  0  3  0  0  0  0  0  0
  -29.6630  -18.3650   19.0240 C   0  0  0  0  0  3  0  0  0  0  0  0
  -30.1350  -18.7640   21.2810 C   0  0  0  0  0  3  0  0  0  0  0  0
  -29.9280  -20.2060   21.1160 C   0  0  0  0  0  0  0  0  0  0  0  0
  -29.4880  -20.8170   19.8730 C   0  0  0  0  0  0  0  0  0  0  0  0
  -30.0140  -17.7550   20.2650 C   0  0  0  0  0  0  0  0  0  0  0  0
  -30.8370  -15.1270   20.3190 C   0  0  0  0  0  0  0  0  0  0  0  0
  -30.7830  -12.7390   19.4860 C   0  0  0  0  0  2  0  0  0  0  0  0
  -29.8740  -12.6690   18.2360 C   0  0  0  0  0  2  0  0  0  0  0  0
  -28.4000  -12.4590   18.6400 C   0  0  0  0  0  2  0  0  0  0  0  0
  -27.9650  -13.4040   19.7910 C   0  0  0  0  0  3  0  0  0  0  0  0
  -29.0020  -13.4430   20.9360 C   0  0  0  0  0  2  0  0  0  0  0  0
  -30.2870  -13.8470   20.3490 N   0  0  0  0  0  0  0  0  0  0  0  0
  -32.0190  -15.2380   19.9770 O   0  0  0  0  0  0  0  0  0  0  0  0
  -30.0090  -16.2500   20.5610 N   0  0  0  0  0  0  0  0  0  0  0  0
  -29.1510  -15.9500   21.0000 H   0  0  0  0  0  0  0  0  0  0  0  0
  -25.5810  -13.9820   20.5320 C   0  0  0  0  0  0  0  0  0  0  0  0
  -24.5090  -13.2060   20.8760 C   0  0  0  0  0  0  0  0  0  0  0  0
  -24.9600  -11.8530   20.8020 C   0  0  0  0  0  0  0  0  0  0  0  0
  -26.6190  -13.1030   20.2700 N   0  0  0  0  0  0  0  0  0  0  0  0
  -26.2540  -11.8140   20.4970 N   0  0  0  0  0  0  0  0  0  0  0  0
  -24.2220  -10.5910   20.9490 C   0  0  0  0  0  0  0  0  0  0  0  0
  -24.6340   -9.5940   21.8620 C   0  0  0  0  0  3  0  0  0  0  0  0
  -23.8950   -8.4000   21.9980 C   0  0  0  0  0  3  0  0  0  0  0  0
  -22.7290   -8.1930   21.2230 C   0  0  0  0  0  0  0  0  0  0  0  0
  -22.3350   -9.1790   20.3010 C   0  0  0  0  0  3  0  0  0  0  0  0
  -23.0740  -10.3650   20.1630 C   0  0  0  0  0  3  0  0  0  0  0  0
  -21.9610   -7.0540   21.2720 O   0  0  0  0  0  0  0  0  0  0  0  0
  -21.8540   -6.3070   22.4180 C   0  0  0  0  0  0  0  0  0  0  0  0
  -21.3560   -6.8530   23.6210 C   0  0  0  0  0  3  0  0  0  0  0  0
  -21.1970   -6.0320   24.7560 C   0  0  0  0  0  3  0  0  0  0  0  0
  -21.5250   -4.6650   24.6860 C   0  0  0  0  0  0  0  0  0  0  0  0
  -22.0140   -4.1170   23.4880 C   0  0  0  0  0  3  0  0  0  0  0  0
  -22.1750   -4.9350   22.3560 C   0  0  0  0  0  0  0  0  0  0  0  0
  -22.6280   -4.3990   21.1970 F   0  0  0  0  0  0  0  0  0  0  0  0
  -21.3650   -3.8740   25.7730 F   0  0  0  0  0  0  0  0  0  0  0  0
  -23.1150  -13.6880   21.1550 C   0  0  0  0  0  0  0  0  0  0  0  0
  -22.3780  -12.9760   22.0010 N   0  0  0  0  0  0  0  0  0  0  0  0
  -22.6870  -14.7290   20.6580 O   0  0  0  0  0  0  0  0  0  0  0  0
  -22.7360  -12.1350   22.4300 H   0  0  0  0  0  0  0  0  0  0  0  0
  -21.4410  -13.2780   22.2280 H   0  0  0  0  0  0  0  0  0  0  0  0
  -25.7570  -15.3550   20.3920 N   0  0  0  0  0  0  0  0  0  0  0  0
  -24.9880  -16.0070   20.5000 H   0  0  0  0  0  0  0  0  0  0  0  0
  -26.5900  -15.7880   20.0160 H   0  0  0  0  0  0  0  0  0  0  0  0
  -28.7070  -22.8320   18.4120 C   0  0  0  0  0  0  0  0  0  0  0  0
  -28.5110  -24.3750   18.3740 C   0  0  0  0  0  2  0  0  0  0  0  0
  -29.0770  -23.5800   20.5040 C   0  0  0  0  0  2  0  0  0  0  0  0
  -28.2790  -24.8370   19.8150 C   0  0  0  0  0  3  0  0  0  0  0  0
  -29.1160  -22.3180   19.6080 N   0  0  0  0  0  0  0  0  0  0  0  0
  -28.4660  -22.1800   17.3930 O   0  0  0  0  0  0  0  0  0  0  0  0
  -28.4660  -26.3660   20.0640 O   0  0  0  0  0  0  0  0  0  0  0  0
  -24.6880  -31.8590   23.2100 C   0  0  0  0  0  0  0  0  0  0  0  0
  -27.3840  -27.3190   20.0190 C   0  0  0  0  0  0  0  0  0  0  0  0
  -23.5310  -30.5120   21.4960 C   0  0  0  0  0  3  0  0  0  0  0  0
  -25.0230  -29.0180   20.0340 C   0  0  0  0  0  0  0  0  0  0  0  0
  -26.0830  -30.8220   21.3840 C   0  0  0  0  0  2  0  0  0  0  0  0
  -26.1870  -29.4600   20.6770 C   0  0  0  0  0  0  0  0  0  0  0  0
  -27.3670  -28.6240   20.6560 C   0  0  0  0  0  3  0  0  0  0  0  0
  -26.1950  -26.9830   19.3350 C   0  0  0  0  0  3  0  0  0  0  0  0
  -25.0390  -27.7930   19.3510 C   0  0  0  0  0  3  0  0  0  0  0  0
  -23.7810  -29.8910   20.0980 C   0  0  0  0  0  2  0  0  0  0  0  0
  -24.7850  -31.0840   22.0860 N   0  0  0  0  0  0  0  0  0  0  0  0
  -23.5890  -32.1090   23.7300 O   0  0  0  0  0  0  0  0  0  0  0  0
  -22.8510  -29.4610   22.4090 C   0  0  0  0  0  0  0  0  0  0  0  0
  -21.5260  -29.2810   22.2580 N   0  0  0  0  0  0  0  0  0  0  0  0
  -23.5170  -28.8070   23.2160 O   0  0  0  0  0  0  0  0  0  0  0  0
  -21.0440  -29.8600   21.5850 H   0  0  0  0  0  0  0  0  0  0  0  0
  -18.1510  -28.0300   22.6680 C   0  0  0  0  0  0  0  0  0  0  0  0
  -20.7040  -28.3060   22.9800 C   0  0  0  0  0  3  0  0  0  0  0  0
  -20.8280  -26.9000   22.3500 C   0  0  0  0  0  2  0  0  0  0  0  0
  -19.7430  -26.6060   21.3090 C   0  0  0  0  0  2  0  0  0  0  0  0
  -18.3510  -26.7110   21.9390 C   0  0  0  0  0  2  0  0  0  0  0  0
  -19.2560  -28.7860   23.1420 C   0  0  0  0  0  0  0  0  0  0  0  0
  -19.0160  -30.0200   23.7850 C   0  0  0  0  0  3  0  0  0  0  0  0
  -17.7030  -30.4980   23.9570 C   0  0  0  0  0  3  0  0  0  0  0  0
  -16.6120  -29.7400   23.4970 C   0  0  0  0  0  3  0  0  0  0  0  0
  -16.8370  -28.5070   22.8590 C   0  0  0  0  0  3  0  0  0  0  0  0
  -25.9480  -32.4840   23.8810 C   0  0  0  0  0  3  0  0  0  0  0  0
  -26.4000  -31.7190   25.1850 C   0  0  1  0  0  0  0  0  0  0  0  0
  -25.2640  -31.5120   26.2130 C   0  0  0  0  0  1  0  0  0  0  0  0
  -26.9730  -30.3260   24.8350 C   0  0  0  0  0  1  0  0  0  0  0  0
  -27.5410  -32.4990   25.8810 C   0  0  0  0  0  1  0  0  0  0  0  0
  -25.6390  -33.8890   24.1940 N   0  0  0  0  0  0  0  0  0  0  0  0
  -25.9940  -34.9360   23.4380 C   0  0  0  0  0  0  0  0  0  0  0  0
  -26.6840  -34.8230   22.4220 O   0  0  0  0  0  0  0  0  0  0  0  0
  -25.0300  -34.0530   24.9830 H   0  0  0  0  0  0  0  0  0  0  0  0
  -24.2820  -36.7390   23.0470 C   0  0  0  0  0  1  0  0  0  0  0  0
  -25.5080  -36.3310   23.8790 C   0  0  0  0  0  3  0  0  0  0  0  0
  -27.6300  -37.2150   24.7410 C   0  0  0  0  0  1  0  0  0  0  0  0
  -26.5460  -37.3790   23.7760 N   0  0  0  0  0  0  0  0  0  0  0  0
  -26.1400  -38.3010   23.9120 H   0  0  0  0  0  0  0  0  0  0  0  0
  -30.1810  -21.0680   22.3510 C   0  0  1  0  0  0  0  0  0  0  0  0
  -30.6820  -20.3660   23.3680 F   0  0  0  0  0  0  0  0  0  0  0  0
  -31.0700  -22.0240   22.0810 F   0  0  0  0  0  0  0  0  0  0  0  0
  -29.0370  -21.6130   22.7590 F   0  0  0  0  0  0  0  0  0  0  0  0
  1  2  2  0
  1  5  1  0
  2  6  1  0
  4  3  1  0
  4 92  1  0
  5  4  2  0
  6 15  1  0
  6  3  2  0
  7 13  1  0
  7 15  1  0
  8 13  1  0
  9 10  1  0
  9  8  1  0
 11 10  1  0
 11 20  1  0
 11 12  1  0
 13 12  1  0
 14  7  2  0
 15 16  1  0
 17 18  2  0
 18 37  1  0
 19 18  1  0
 19 22  1  0
 20 21  1  0
 20 17  1  0
 21 19  2  0
 22 23  1  0
 23 24  2  0
 25 28  1  0
 25 24  1  0
 26 25  2  0
 27 26  1  0
 27 22  2  0
 28 29  1  0
 29 30  1  0
 30 31  2  0
 32 31  1  0
 32 36  1  0
 33 32  2  0
 34 29  2  0
 34 33  1  0
 35 34  1  0
 37 38  1  0
 38 41  1  0
 38 40  1  0
 39 37  2  0
 42 43  1  0
 42 17  1  0
 44 42  1  0
 45 49  1  0
 46 45  1  0
 46 48  1  0
 48 51  1  0
 48 47  1  0
 49  5  1  0
 49 47  1  0
 50 45  2  0
 52 63  2  0
 53 51  1  0
 53 58  1  0
 54 62  1  0
 54 64  1  0
 55 61  1  0
 55 57  1  0
 56 62  1  0
 57 56  1  0
 58 57  2  0
 59 60  1  0
 59 53  2  0
 60 55  2  0
 61 54  1  0
 62 52  1  0
 64 66  2  0
 65 64  1  0
 67 65  1  0
 68 77  2  0
 68 73  1  0
 69 65  1  0
 69 73  1  0
 70 69  1  0
 71 72  1  0
 71 70  1  0
 72 68  1  0
 73 74  2  0
 74 75  1  0
 76 75  2  0
 77 76  1  0
 78 52  1  0
 78 83  1  0
 78 79  1  0
 79 82  1  1
 79 80  1  0
 81 79  1  0
 83 86  1  0
 84 88  1  0
 84 83  1  0
 85 84  2  0
 88 87  1  0
 90 88  1  0
 90 91  1  0
 90 89  1  0
 92 95  1  1
 92 93  1  0
 94 92  1  0
M  ISO  4   7 100  15 100  48 101  51 101
M  END
>  <TORSDO>  (77) 
F 18

>  <SCORE>  (77) 
-14.753

>  <name>  (77) 
77

>  <ligand_id>  (77) 
77

>  <original_smiles>  (77) 
[H]c1c([H])c([H])c2c(c1[H])C([H])([H])C([H])([H])C([H])([H])C2([H])N([H])C(=O)C1([H])N(C(=O)C([H])(N([H])C(=O)C([H])(N([H])C([H])([H])[H])C([H])([H])[H])C(C([H])([H])[H])(C([H])([H])[H])C([H])([H])[H])C([H])([H])c2c([H])c(OC3([H])C([H])([H])C(=O)N(c4c([H])c([H])c(N([H])C(=O)N5C([H])([H])C([H])([H])C([H])([H])C([H])(n6nc(-c7c([H])c([H])c(Oc8c([H])c([H])c(F)c([H])c8F)c([H])c7[H])c(C(=O)N([H])[H])c6N([H])[H])C5([H])[H])c([H])c4C(F)(F)F)C3([H])[H])c([H])c([H])c2C1([H])[H]

>  <smiles>  (77) 
[H]c1c([H])c([H])c2c(c1[H])C([H])([H])C([H])([H])C([H])([H])C2([H])N([H])C(=O)C1([H])N(C(=O)C([H])(N([H])C(=O)C([H])(N([H])C([H])([H])[H])C([H])([H])[H])C(C([H])([H])[H])(C([H])([H])[H])C([H])([H])[H])C([H])([H])c2c([H])c(OC3([H])C([H])([H])C(=O)N(c4c([H])c([H])c(N([H])C(=O)N5C([H])([H])C([H])([H])C([H])([H])C([H])(n6nc(-c7c([H])c([H])c(Oc8c([H])c([H])c(F)c([H])c8F)c([H])c7[H])c(C(=O)N([H])[H])c6N([H])[H])C5([H])[H])c([H])c4C(F)(F)F)C3([H])[H])c([H])c([H])c2C1([H])[H]

$$$$
78:0:0
     RDKit          3D

101111  0  0  1  0  0  0  0  0999 V2000
  -30.0440  -18.5810   20.8470 C   0  0  0  0  0  3  0  0  0  0  0  0
  -28.9690  -19.6180   18.9450 C   0  0  0  0  0  3  0  0  0  0  0  0
  -29.3970  -19.7500   20.2780 C   0  0  0  0  0  0  0  0  0  0  0  0
  -30.2470  -17.5370   18.6500 C   0  0  0  0  0  0  0  0  0  0  0  0
  -30.4300  -17.4120   20.0710 C   0  0  0  0  0  0  0  0  0  0  0  0
  -29.3710  -18.5370   18.1500 C   0  0  0  0  0  0  0  0  0  0  0  0
  -28.7280  -18.4710   16.5450 Cl  0  0  0  0  0  0  0  0  0  0  0  0
  -31.4050  -14.9490   20.3950 C   0  0  0  0  0  0  0  0  0  0  0  0
  -31.1560  -12.6680   19.4080 C   0  0  0  0  0  2  0  0  0  0  0  0
  -30.2520  -12.7620   18.1600 C   0  0  0  0  0  2  0  0  0  0  0  0
  -28.7570  -12.7420   18.5360 C   0  0  0  0  0  2  0  0  0  0  0  0
  -28.4010  -13.6180   19.7680 C   0  0  0  0  0  3  0  0  0  0  0  0
  -29.4230  -13.4390   20.9100 C   0  0  0  0  0  2  0  0  0  0  0  0
  -30.7560  -13.7340   20.3570 N   0  0  0  0  0  0  0  0  0  0  0  0
  -32.5880  -15.0310   20.0510 O   0  0  0  0  0  0  0  0  0  0  0  0
  -30.6410  -16.0670   20.6920 N   0  0  0  0  0  0  0  0  0  0  0  0
  -29.8320  -15.7810   21.2230 H   0  0  0  0  0  0  0  0  0  0  0  0
  -26.0190  -14.3470   20.3960 C   0  0  0  0  0  0  0  0  0  0  0  0
  -24.8960  -13.6320   20.7170 C   0  0  0  0  0  0  0  0  0  0  0  0
  -25.2830  -12.2580   20.6940 C   0  0  0  0  0  0  0  0  0  0  0  0
  -27.0220  -13.4090   20.2040 N   0  0  0  0  0  0  0  0  0  0  0  0
  -26.5810  -12.1490   20.4360 N   0  0  0  0  0  0  0  0  0  0  0  0
  -24.4810  -11.0360   20.8390 C   0  0  0  0  0  0  0  0  0  0  0  0
  -24.8230  -10.0300   21.7680 C   0  0  0  0  0  3  0  0  0  0  0  0
  -24.0230   -8.8750   21.9000 C   0  0  0  0  0  3  0  0  0  0  0  0
  -22.8660   -8.7190   21.1000 C   0  0  0  0  0  0  0  0  0  0  0  0
  -22.5420   -9.7130   20.1600 C   0  0  0  0  0  3  0  0  0  0  0  0
  -23.3440  -10.8590   20.0270 C   0  0  0  0  0  3  0  0  0  0  0  0
  -22.0470   -7.6170   21.1440 O   0  0  0  0  0  0  0  0  0  0  0  0
  -21.8740   -6.8930   22.2960 C   0  0  0  0  0  0  0  0  0  0  0  0
  -21.4280   -7.4940   23.4920 C   0  0  0  0  0  3  0  0  0  0  0  0
  -21.1970   -6.7040   24.6350 C   0  0  0  0  0  3  0  0  0  0  0  0
  -21.4030   -5.3130   24.5810 C   0  0  0  0  0  0  0  0  0  0  0  0
  -21.8420   -4.7080   23.3890 C   0  0  0  0  0  3  0  0  0  0  0  0
  -22.0750   -5.4980   22.2510 C   0  0  0  0  0  0  0  0  0  0  0  0
  -22.4860   -4.9120   21.0980 F   0  0  0  0  0  0  0  0  0  0  0  0
  -21.1710   -4.5510   25.6770 F   0  0  0  0  0  0  0  0  0  0  0  0
  -23.5210  -14.1940   20.9390 C   0  0  0  0  0  0  0  0  0  0  0  0
  -22.7290  -13.5610   21.7930 N   0  0  0  0  0  0  0  0  0  0  0  0
  -23.1590  -15.2330   20.3910 O   0  0  0  0  0  0  0  0  0  0  0  0
  -23.0260  -12.7170   22.2570 H   0  0  0  0  0  0  0  0  0  0  0  0
  -21.8130  -13.9400   21.9900 H   0  0  0  0  0  0  0  0  0  0  0  0
  -26.2620  -15.7050   20.2290 N   0  0  0  0  0  0  0  0  0  0  0  0
  -25.4970  -16.3710   20.2250 H   0  0  0  0  0  0  0  0  0  0  0  0
  -27.1490  -16.1240   19.9930 H   0  0  0  0  0  0  0  0  0  0  0  0
  -29.0270  -21.0940   21.0490 C   0  0  0  0  0  2  0  0  0  0  0  0
  -29.3350  -23.5940   18.1240 C   0  0  0  0  0  2  0  0  0  0  0  0
  -29.2920  -24.9760   18.7910 C   0  0  0  0  0  2  0  0  0  0  0  0
  -29.7870  -22.4980   19.1040 C   0  0  0  0  0  2  0  0  0  0  0  0
  -28.7620  -23.7420   20.9750 C   0  0  0  0  0  2  0  0  0  0  0  0
  -28.3980  -25.0110   20.0450 C   0  0  0  0  0  3  0  0  0  0  0  0
  -28.8360  -22.3900   20.2400 N   0  0  2  0  0  4  0  0  0  0  0  0
  -27.9210  -22.2740   19.8280 H   0  0  0  0  0  0  0  0  0  0  0  0
  -28.4630  -26.4240   20.5500 O   0  0  0  0  0  0  0  0  0  0  0  0
  -24.6590  -31.9410   23.2630 C   0  0  0  0  0  0  0  0  0  0  0  0
  -27.3630  -27.3010   20.3880 C   0  0  0  0  0  0  0  0  0  0  0  0
  -23.5050  -30.4940   21.6300 C   0  0  0  0  0  3  0  0  0  0  0  0
  -25.0020  -28.9320   20.2630 C   0  0  0  0  0  0  0  0  0  0  0  0
  -26.0490  -30.8200   21.5060 C   0  0  0  0  0  2  0  0  0  0  0  0
  -26.1520  -29.4260   20.8890 C   0  0  0  0  0  0  0  0  0  0  0  0
  -27.3320  -28.6220   20.9480 C   0  0  0  0  0  3  0  0  0  0  0  0
  -26.1990  -26.8890   19.6960 C   0  0  0  0  0  3  0  0  0  0  0  0
  -25.0320  -27.6690   19.6540 C   0  0  0  0  0  3  0  0  0  0  0  0
  -23.7590  -29.7990   20.2660 C   0  0  0  0  0  2  0  0  0  0  0  0
  -24.7540  -31.1050   22.1880 N   0  0  0  0  0  0  0  0  0  0  0  0
  -23.5600  -32.2220   23.7630 O   0  0  0  0  0  0  0  0  0  0  0  0
  -22.8300  -29.4880   22.5950 C   0  0  0  0  0  0  0  0  0  0  0  0
  -21.5130  -29.2840   22.4340 N   0  0  0  0  0  0  0  0  0  0  0  0
  -23.4950  -28.8960   23.4490 O   0  0  0  0  0  0  0  0  0  0  0  0
  -21.0340  -29.8160   21.7200 H   0  0  0  0  0  0  0  0  0  0  0  0
  -18.1340  -28.0740   22.9010 C   0  0  0  0  0  0  0  0  0  0  0  0
  -20.6860  -28.3530   23.2060 C   0  0  0  0  0  3  0  0  0  0  0  0
  -20.8050  -26.9130   22.6560 C   0  0  0  0  0  2  0  0  0  0  0  0
  -19.7220  -26.5670   21.6310 C   0  0  0  0  0  2  0  0  0  0  0  0
  -18.3280  -26.7150   22.2490 C   0  0  0  0  0  2  0  0  0  0  0  0
  -19.2410  -28.8500   23.3350 C   0  0  0  0  0  0  0  0  0  0  0  0
  -19.0070  -30.1210   23.9060 C   0  0  0  0  0  3  0  0  0  0  0  0
  -17.6970  -30.6160   24.0410 C   0  0  0  0  0  3  0  0  0  0  0  0
  -16.6040  -29.8380   23.6220 C   0  0  0  0  0  3  0  0  0  0  0  0
  -16.8220  -28.5680   23.0600 C   0  0  0  0  0  3  0  0  0  0  0  0
  -25.9220  -32.6000   23.8970 C   0  0  0  0  0  3  0  0  0  0  0  0
  -26.4250  -31.8520   25.1910 C   0  0  1  0  0  0  0  0  0  0  0  0
  -25.3050  -31.5700   26.2180 C   0  0  0  0  0  1  0  0  0  0  0  0
  -27.0850  -30.5010   24.8270 C   0  0  0  0  0  1  0  0  0  0  0  0
  -27.5160  -32.6970   25.8920 C   0  0  0  0  0  1  0  0  0  0  0  0
  -25.5850  -33.9970   24.2070 N   0  0  0  0  0  0  0  0  0  0  0  0
  -25.9140  -35.0470   23.4410 C   0  0  0  0  0  0  0  0  0  0  0  0
  -26.6020  -34.9410   22.4220 O   0  0  0  0  0  0  0  0  0  0  0  0
  -24.9810  -34.1530   24.9990 H   0  0  0  0  0  0  0  0  0  0  0  0
  -24.1650  -36.8070   23.0330 C   0  0  0  0  0  1  0  0  0  0  0  0
  -25.3970  -36.4320   23.8730 C   0  0  0  0  0  3  0  0  0  0  0  0
  -27.5070  -37.3530   24.7270 C   0  0  0  0  0  1  0  0  0  0  0  0
  -26.4140  -37.5010   23.7680 N   0  0  0  0  0  0  0  0  0  0  0  0
  -25.9930  -38.4160   23.9040 H   0  0  0  0  0  0  0  0  0  0  0  0
  -30.9730  -16.6560   17.6190 C   0  0  0  0  0  2  0  0  0  0  0  0
  -33.6990  -18.1790   15.4890 C   0  0  0  0  0  2  0  0  0  0  0  0
  -34.1210  -16.7220   15.6190 C   0  0  0  0  0  2  0  0  0  0  0  0
  -32.3010  -18.1940   16.0930 C   0  0  0  0  0  2  0  0  0  0  0  0
  -33.3040  -16.1710   16.8010 C   0  0  0  0  0  2  0  0  0  0  0  0
  -32.3050  -17.1980   17.1920 N   0  0  2  0  0  4  0  0  0  0  0  0
  -32.7000  -17.6630   17.9990 H   0  0  0  0  0  0  0  0  0  0  0  0
  2  3  2  0
  3  1  1  0
  3 46  1  0
  4  5  1  0
  5 16  1  0
  5  1  2  0
  6  4  2  0
  6  2  1  0
  7  6  1  0
  8 16  1  0
  9 14  1  0
 10 11  1  0
 10  9  1  0
 12 11  1  0
 12 21  1  0
 12 13  1  0
 14  8  1  0
 14 13  1  0
 15  8  2  0
 16 17  1  0
 18 19  2  0
 19 38  1  0
 20 19  1  0
 20 23  1  0
 21 18  1  0
 21 22  1  0
 22 20  2  0
 23 24  1  0
 24 25  2  0
 26 29  1  0
 26 25  1  0
 27 26  2  0
 28 27  1  0
 28 23  2  0
 29 30  1  0
 30 31  1  0
 31 32  2  0
 33 32  1  0
 33 37  1  0
 34 33  2  0
 35 30  2  0
 35 34  1  0
 36 35  1  0
 38 39  1  0
 39 42  1  0
 39 41  1  0
 40 38  2  0
 43 18  1  0
 44 43  1  0
 45 43  1  0
 47 48  1  0
 47 49  1  0
 48 51  1  0
 49 52  1  0
 51 54  1  0
 51 50  1  0
 52 50  1  0
 52 46  1  0
 52 53  1  6
 55 66  2  0
 56 54  1  0
 56 61  1  0
 57 65  1  0
 57 67  1  0
 58 64  1  0
 58 60  1  0
 59 65  1  0
 60 61  2  0
 60 59  1  0
 62 56  2  0
 63 62  1  0
 63 58  2  0
 64 57  1  0
 65 55  1  0
 67 69  2  0
 68 67  1  0
 70 68  1  0
 71 80  2  0
 71 76  1  0
 72 68  1  0
 72 76  1  0
 73 72  1  0
 74 75  1  0
 74 73  1  0
 75 71  1  0
 76 77  2  0
 77 78  1  0
 79 78  2  0
 80 79  1  0
 81 55  1  0
 81 86  1  0
 81 82  1  0
 82 85  1  1
 82 83  1  0
 84 82  1  0
 86 89  1  0
 87 91  1  0
 87 86  1  0
 88 87  2  0
 91 90  1  0
 93 91  1  0
 93 94  1  0
 93 92  1  0
 95  4  1  0
 96 97  1  0
 96 98  1  0
 97 99  1  0
 98100  1  0
 99100  1  0
100 95  1  0
100101  1  1
M  ISO  4   8 100  16 100  51 101  54 101
M  END
>  <TORSDO>  (78) 
F 20

>  <SCORE>  (78) 
-13.245

>  <name>  (78) 
78

>  <ligand_id>  (78) 
78

>  <original_smiles>  (78) 
[H]c1c([H])c([H])c2c(c1[H])C([H])([H])C([H])([H])C([H])([H])C2([H])N([H])C(=O)C1([H])N(C(=O)C([H])(N([H])C(=O)C([H])(N([H])C([H])([H])[H])C([H])([H])[H])C(C([H])([H])[H])(C([H])([H])[H])C([H])([H])[H])C([H])([H])c2c([H])c(OC3([H])C([H])([H])C([H])([H])C([H])([H])[N+]([H])(C([H])([H])c4c([H])c(Cl)c(C([H])([H])[N+]5([H])C([H])([H])C([H])([H])C([H])([H])C5([H])[H])c(N([H])C(=O)N5C([H])([H])C([H])([H])C([H])([H])C([H])(n6nc(-c7c([H])c([H])c(Oc8c([H])c([H])c(F)c([H])c8F)c([H])c7[H])c(C(=O)N([H])[H])c6N([H])[H])C5([H])[H])c4[H])C3([H])[H])c([H])c([H])c2C1([H])[H]

>  <smiles>  (78) 
[H]c1c([H])c([H])c2c(c1[H])C([H])([H])C([H])([H])C([H])([H])C2([H])N([H])C(=O)C1([H])N(C(=O)C([H])(N([H])C(=O)C([H])(N([H])C([H])([H])[H])C([H])([H])[H])C(C([H])([H])[H])(C([H])([H])[H])C([H])([H])[H])C([H])([H])c2c([H])c(OC3([H])C([H])([H])C([H])([H])C([H])([H])[N+]([H])(C([H])([H])c4c([H])c(Cl)c(C([H])([H])[N+]5([H])C([H])([H])C([H])([H])C([H])([H])C5([H])[H])c(N([H])C(=O)N5C([H])([H])C([H])([H])C([H])([H])C([H])(n6nc(-c7c([H])c([H])c(Oc8c([H])c([H])c(F)c([H])c8F)c([H])c7[H])c(C(=O)N([H])[H])c6N([H])[H])C5([H])[H])c4[H])C3([H])[H])c([H])c([H])c2C1([H])[H]

$$$$
79:0:0
     RDKit          3D

 95105  0  0  1  0  0  0  0  0999 V2000
  -30.3830  -18.4960   17.7940 C   0  0  0  0  0  3  0  0  0  0  0  0
  -30.4010  -17.3300   18.5800 C   0  0  0  0  0  3  0  0  0  0  0  0
  -29.8110  -18.7020   20.4890 C   0  0  0  0  0  3  0  0  0  0  0  0
  -30.1100  -19.7860   18.3140 C   0  0  0  0  0  0  0  0  0  0  0  0
  -29.8510  -19.9610   19.7150 C   0  0  0  0  0  0  0  0  0  0  0  0
  -30.0880  -17.3530   19.9500 C   0  0  0  0  0  0  0  0  0  0  0  0
  -30.6940  -14.8170   20.4030 C   0  0  0  0  0  0  0  0  0  0  0  0
  -30.4870  -12.5090   19.4520 C   0  0  0  0  0  2  0  0  0  0  0  0
  -29.5830  -12.5600   18.2020 C   0  0  0  0  0  2  0  0  0  0  0  0
  -28.1030  -12.3920   18.5980 C   0  0  0  0  0  2  0  0  0  0  0  0
  -27.7000  -13.2860   19.8040 C   0  0  0  0  0  3  0  0  0  0  0  0
  -28.7420  -13.2310   20.9460 C   0  0  0  0  0  2  0  0  0  0  0  0
  -30.0450  -13.5880   20.3740 N   0  0  0  0  0  0  0  0  0  0  0  0
  -31.8820  -14.8550   20.0820 O   0  0  0  0  0  0  0  0  0  0  0  0
  -29.9890  -16.0130   20.6380 N   0  0  0  0  0  0  0  0  0  0  0  0
  -29.1400  -15.8870   21.1700 H   0  0  0  0  0  0  0  0  0  0  0  0
  -25.2950  -13.8700   20.4850 C   0  0  0  0  0  0  0  0  0  0  0  0
  -24.2220  -13.0990   20.8390 C   0  0  0  0  0  0  0  0  0  0  0  0
  -24.6880  -11.7490   20.8360 C   0  0  0  0  0  0  0  0  0  0  0  0
  -26.3470  -12.9930   20.2760 N   0  0  0  0  0  0  0  0  0  0  0  0
  -25.9880  -11.7120   20.5540 N   0  0  0  0  0  0  0  0  0  0  0  0
  -23.9570  -10.4890   21.0290 C   0  0  0  0  0  0  0  0  0  0  0  0
  -24.3590   -9.5370   21.9920 C   0  0  0  0  0  3  0  0  0  0  0  0
  -23.6260   -8.3420   22.1700 C   0  0  0  0  0  3  0  0  0  0  0  0
  -22.4770   -8.0900   21.3830 C   0  0  0  0  0  0  0  0  0  0  0  0
  -22.0940   -9.0310   20.4110 C   0  0  0  0  0  3  0  0  0  0  0  0
  -22.8270  -10.2160   20.2320 C   0  0  0  0  0  3  0  0  0  0  0  0
  -21.7190   -6.9480   21.4690 O   0  0  0  0  0  0  0  0  0  0  0  0
  -21.6410   -6.2200   22.6300 C   0  0  0  0  0  0  0  0  0  0  0  0
  -21.1650   -6.7860   23.8320 C   0  0  0  0  0  3  0  0  0  0  0  0
  -21.0350   -5.9840   24.9840 C   0  0  0  0  0  3  0  0  0  0  0  0
  -21.3730   -4.6180   24.9330 C   0  0  0  0  0  0  0  0  0  0  0  0
  -21.8390   -4.0520   23.7340 C   0  0  0  0  0  3  0  0  0  0  0  0
  -21.9690   -4.8500   22.5840 C   0  0  0  0  0  0  0  0  0  0  0  0
  -22.4020   -4.2940   21.4260 F   0  0  0  0  0  0  0  0  0  0  0  0
  -21.2400   -3.8450   26.0360 F   0  0  0  0  0  0  0  0  0  0  0  0
  -22.8160  -13.5800   21.0630 C   0  0  0  0  0  0  0  0  0  0  0  0
  -22.0610  -12.9030   21.9190 N   0  0  0  0  0  0  0  0  0  0  0  0
  -22.3950  -14.5980   20.5160 O   0  0  0  0  0  0  0  0  0  0  0  0
  -22.4090  -12.0860   22.3970 H   0  0  0  0  0  0  0  0  0  0  0  0
  -21.1190  -13.2160   22.1020 H   0  0  0  0  0  0  0  0  0  0  0  0
  -25.4610  -15.2380   20.2950 N   0  0  0  0  0  0  0  0  0  0  0  0
  -24.6970  -15.8940   20.4200 H   0  0  0  0  0  0  0  0  0  0  0  0
  -26.3150  -15.6790   19.9780 H   0  0  0  0  0  0  0  0  0  0  0  0
  -29.8200  -21.8350   15.4020 C   0  0  0  0  0  2  0  0  0  0  0  0
  -30.9370  -20.9600   15.9820 C   0  0  0  0  0  2  0  0  0  0  0  0
  -28.8830  -21.1510   16.4080 C   0  0  0  0  0  2  0  0  0  0  0  0
  -30.1200  -20.9480   17.3070 C   0  0  0  0  0  3  0  0  0  0  0  0
  -29.9470  -21.4640   20.3630 C   0  0  0  0  0  2  0  0  0  0  0  0
  -29.3300  -23.8320   21.2580 C   0  0  0  0  0  2  0  0  0  0  0  0
  -28.4600  -23.6030   19.4800 C   0  0  0  0  0  2  0  0  0  0  0  0
  -28.2320  -24.7280   20.5850 C   0  0  0  0  0  3  0  0  0  0  0  0
  -28.8740  -22.5950   20.5270 N   0  0  1  0  0  4  0  0  0  0  0  0
  -28.0650  -22.2210   21.0010 H   0  0  0  0  0  0  0  0  0  0  0  0
  -28.4590  -26.2440   20.4380 O   0  0  0  0  0  0  0  0  0  0  0  0
  -24.6400  -31.8410   23.2850 C   0  0  0  0  0  0  0  0  0  0  0  0
  -27.3660  -27.1650   20.3760 C   0  0  0  0  0  0  0  0  0  0  0  0
  -23.5040  -30.4220   21.6200 C   0  0  0  0  0  3  0  0  0  0  0  0
  -25.0110  -28.8420   20.2660 C   0  0  0  0  0  0  0  0  0  0  0  0
  -26.0580  -30.7170   21.5350 C   0  0  0  0  0  2  0  0  0  0  0  0
  -26.1640  -29.3220   20.8980 C   0  0  0  0  0  0  0  0  0  0  0  0
  -27.3470  -28.4990   20.9320 C   0  0  0  0  0  3  0  0  0  0  0  0
  -26.1850  -26.7650   19.7180 C   0  0  0  0  0  3  0  0  0  0  0  0
  -25.0310  -27.5760   19.6600 C   0  0  0  0  0  3  0  0  0  0  0  0
  -23.7730  -29.7260   20.2590 C   0  0  0  0  0  2  0  0  0  0  0  0
  -24.7500  -31.0140   22.2030 N   0  0  0  0  0  0  0  0  0  0  0  0
  -23.5350  -32.1260   23.7720 O   0  0  0  0  0  0  0  0  0  0  0  0
  -22.7980  -29.4220   22.5680 C   0  0  0  0  0  0  0  0  0  0  0  0
  -21.4810  -29.2300   22.3810 N   0  0  0  0  0  0  0  0  0  0  0  0
  -23.4380  -28.8180   23.4320 O   0  0  0  0  0  0  0  0  0  0  0  0
  -21.0220  -29.7690   21.6590 H   0  0  0  0  0  0  0  0  0  0  0  0
  -18.0910  -28.0020   22.7480 C   0  0  0  0  0  0  0  0  0  0  0  0
  -20.6330  -28.2980   23.1270 C   0  0  0  0  0  3  0  0  0  0  0  0
  -20.7740  -26.8580   22.5820 C   0  0  0  0  0  2  0  0  0  0  0  0
  -19.7230  -26.5060   21.5260 C   0  0  0  0  0  2  0  0  0  0  0  0
  -18.3130  -26.6430   22.1050 C   0  0  0  0  0  2  0  0  0  0  0  0
  -19.1810  -28.7860   23.2130 C   0  0  0  0  0  0  0  0  0  0  0  0
  -18.9210  -30.0540   23.7750 C   0  0  0  0  0  3  0  0  0  0  0  0
  -17.6030  -30.5410   23.8770 C   0  0  0  0  0  3  0  0  0  0  0  0
  -16.5280  -29.7550   23.4270 C   0  0  0  0  0  3  0  0  0  0  0  0
  -16.7720  -28.4880   22.8670 C   0  0  0  0  0  3  0  0  0  0  0  0
  -25.8940  -32.4850   23.9540 C   0  0  0  0  0  3  0  0  0  0  0  0
  -26.3430  -31.7430   25.2730 C   0  0  1  0  0  0  0  0  0  0  0  0
  -25.2000  -31.5410   26.2960 C   0  0  0  0  0  1  0  0  0  0  0  0
  -26.9340  -30.3520   24.9500 C   0  0  0  0  0  1  0  0  0  0  0  0
  -27.4700  -32.5470   25.9660 C   0  0  0  0  0  1  0  0  0  0  0  0
  -25.5750  -33.8930   24.2380 N   0  0  0  0  0  0  0  0  0  0  0  0
  -25.9370  -34.9290   23.4680 C   0  0  0  0  0  0  0  0  0  0  0  0
  -26.6430  -34.7980   22.4640 O   0  0  0  0  0  0  0  0  0  0  0  0
  -24.9500  -34.0680   25.0110 H   0  0  0  0  0  0  0  0  0  0  0  0
  -24.2280  -36.7220   23.0160 C   0  0  0  0  0  1  0  0  0  0  0  0
  -25.4410  -36.3310   23.8750 C   0  0  0  0  0  3  0  0  0  0  0  0
  -27.5460  -37.2350   24.7590 C   0  0  0  0  0  1  0  0  0  0  0  0
  -26.4820  -37.3770   23.7690 N   0  0  0  0  0  0  0  0  0  0  0  0
  -26.0740  -38.3030   23.8690 H   0  0  0  0  0  0  0  0  0  0  0  0
  1  4  2  0
  1  2  1  0
  2  6  2  0
  4  5  1  0
  5 49  1  0
  5  3  2  0
  6  3  1  0
  6 15  1  0
  7 15  1  0
  8 13  1  0
  9 10  1  0
  9  8  1  0
 11 10  1  0
 11 20  1  0
 11 12  1  0
 13  7  1  0
 13 12  1  0
 14  7  2  0
 15 16  1  0
 17 18  2  0
 18 37  1  0
 19 18  1  0
 19 22  1  0
 20 17  1  0
 20 21  1  0
 21 19  2  0
 22 23  1  0
 23 24  2  0
 25 28  1  0
 25 24  1  0
 26 25  2  0
 27 26  1  0
 27 22  2  0
 28 29  1  0
 29 30  1  0
 30 31  2  0
 32 31  1  0
 32 36  1  0
 33 32  2  0
 34 29  2  0
 34 33  1  0
 35 34  1  0
 37 38  1  0
 38 41  1  0
 38 40  1  0
 39 37  2  0
 42 43  1  0
 42 17  1  0
 44 42  1  0
 45 46  1  0
 45 47  1  0
 46 48  1  0
 47 48  1  0
 48  4  1  0
 49 53  1  0
 51 53  1  0
 51 52  1  0
 52 55  1  0
 52 50  1  0
 53 54  1  1
 53 50  1  0
 56 67  2  0
 57 55  1  0
 57 62  1  0
 58 66  1  0
 58 68  1  0
 59 61  1  0
 60 66  1  0
 61 62  2  0
 61 60  1  0
 63 57  2  0
 64 63  1  0
 64 59  2  0
 65 59  1  0
 65 58  1  0
 66 56  1  0
 68 70  2  0
 69 68  1  0
 71 69  1  0
 72 81  2  0
 72 77  1  0
 73 69  1  0
 73 77  1  0
 74 73  1  0
 75 76  1  0
 75 74  1  0
 76 72  1  0
 77 78  2  0
 78 79  1  0
 80 79  2  0
 81 80  1  0
 82 56  1  0
 82 87  1  0
 82 83  1  0
 83 86  1  1
 83 84  1  0
 85 83  1  0
 87 90  1  0
 88 92  1  0
 88 87  1  0
 89 88  2  0
 92 91  1  0
 94 95  1  0
 94 92  1  0
 94 93  1  0
M  ISO  4   7 100  15 100  52 101  55 101
M  END
>  <TORSDO>  (79) 
F 19

>  <SCORE>  (79) 
-13.847

>  <name>  (79) 
79

>  <ligand_id>  (79) 
79

>  <original_smiles>  (79) 
[H]c1c([H])c([H])c2c(c1[H])C([H])([H])C([H])([H])C([H])([H])C2([H])N([H])C(=O)C1([H])N(C(=O)C([H])(N([H])C(=O)C([H])(N([H])C([H])([H])[H])C([H])([H])[H])C(C([H])([H])[H])(C([H])([H])[H])C([H])([H])[H])C([H])([H])c2c([H])c(OC3([H])C([H])([H])[N+]([H])(C([H])([H])c4c([H])c(N([H])C(=O)N5C([H])([H])C([H])([H])C([H])([H])C([H])(n6nc(-c7c([H])c([H])c(Oc8c([H])c([H])c(F)c([H])c8F)c([H])c7[H])c(C(=O)N([H])[H])c6N([H])[H])C5([H])[H])c([H])c([H])c4C4([H])C([H])([H])C([H])([H])C4([H])[H])C3([H])[H])c([H])c([H])c2C1([H])[H]

>  <smiles>  (79) 
[H]c1c([H])c([H])c2c(c1[H])C([H])([H])C([H])([H])C([H])([H])C2([H])N([H])C(=O)C1([H])N(C(=O)C([H])(N([H])C(=O)C([H])(N([H])C([H])([H])[H])C([H])([H])[H])C(C([H])([H])[H])(C([H])([H])[H])C([H])([H])[H])C([H])([H])c2c([H])c(OC3([H])C([H])([H])[N+]([H])(C([H])([H])c4c([H])c(N([H])C(=O)N5C([H])([H])C([H])([H])C([H])([H])C([H])(n6nc(-c7c([H])c([H])c(Oc8c([H])c([H])c(F)c([H])c8F)c([H])c7[H])c(C(=O)N([H])[H])c6N([H])[H])C5([H])[H])c([H])c([H])c4C4([H])C([H])([H])C([H])([H])C4([H])[H])C3([H])[H])c([H])c([H])c2C1([H])[H]

$$$$
80:0:0
     RDKit          3D

 93 94  0  0  1  0  0  0  0  0999 V2000
  -26.7110  -17.3310   18.9220 C   0  0  0  0  0 15  0  0  0  0  0  0
  -23.4110  -12.6280   20.1770 C   0  0  0  0  0 15  0  0  0  0  0  0
  -24.3780  -14.1450   18.7780 C   0  0  0  0  0 15  0  0  0  0  0  0
  -26.7190  -12.8650   21.9590 C   0  0  2  0  0  0  0  0  0  0  0  0
  -25.1200  -12.2910   22.2550 C   0  0  0  0  0  1  0  0  0  0  0  0
  -26.4010  -15.1840   19.0650 C   0  0  0  0  0 15  0  0  0  0  0  0
  -27.5620  -14.0860   20.7040 C   0  0  0  0  0  1  0  0  0  0  0  0
  -27.9360  -12.2030   21.1860 C   0  0  0  0  0  1  0  0  0  0  0  0
  -26.9260  -13.4020   23.0820 C   0  0  0  0  0  1  0  0  0  0  0  0
  -30.1830  -13.6150   21.3460 C   0  0  0  0  0  0  0  0  0  0  0  0
  -30.8940  -12.6660   18.7530 C   0  0  0  0  0  2  0  0  0  0  0  0
  -29.9840  -12.4830   17.3380 C   0  0  0  0  0  2  0  0  0  0  0  0
  -28.4180  -11.9780   17.4270 C   0  0  0  0  0  2  0  0  0  0  0  0
  -27.9480  -12.3620   18.7800 C   0  0  0  0  0  3  0  0  0  0  0  0
  -29.3090  -11.6660   19.4700 C   0  0  0  0  0  2  0  0  0  0  0  0
  -30.1650  -12.7400   20.0960 N   0  0  0  0  0  0  0  0  0  0  0  0
  -31.2690  -14.2380   21.1070 O   0  0  0  0  0  0  0  0  0  0  0  0
  -29.0100  -13.7500   22.6410 N   0  0  0  0  0  2  0  0  0  0  0  0
  -29.4000  -14.3380   23.3620 H   0  0  0  0  0  0  0  0  0  0  0  0
  -25.5100  -14.2200   20.6840 C   0  0  0  0  0  2  0  0  0  0  0  0
  -24.8520  -13.8690   20.9100 C   0  0  0  0  0  2  0  0  0  0  0  0
  -25.5800  -11.8290   20.1330 C   0  0  0  0  0  3  0  0  0  0  0  0
  -26.3370  -12.5830   19.4910 N   0  0  0  0  0  0  0  0  0  0  0  0
  -26.0330  -11.4550   19.1240 N   0  0  0  0  0  2  0  0  0  0  0  0
  -24.7510  -10.2700   20.5280 C   0  0  0  0  0  0  0  0  0  0  0  0
  -24.9270   -9.3490   21.6490 C   0  0  0  0  0  3  0  0  0  0  0  0
  -24.0860   -8.2030   21.9790 C   0  0  0  0  0  3  0  0  0  0  0  0
  -22.8930   -7.8870   21.2710 C   0  0  0  0  0  0  0  0  0  0  0  0
  -22.6310   -8.7550   20.2020 C   0  0  0  0  0  3  0  0  0  0  0  0
  -23.5510   -9.7880   19.8250 C   0  0  0  0  0  3  0  0  0  0  0  0
  -22.0310   -6.7900   21.4470 O   0  0  0  0  0  0  0  0  0  0  0  0
  -21.8780   -6.0670   22.6200 C   0  0  0  0  0  0  0  0  0  0  0  0
  -21.3860   -6.6770   23.7940 C   0  0  0  0  0  3  0  0  0  0  0  0
  -21.1840   -5.9200   24.9690 C   0  0  0  0  0  3  0  0  0  0  0  0
  -21.4530   -4.5380   24.9810 C   0  0  0  0  0  0  0  0  0  0  0  0
  -21.9010   -3.9110   23.8070 C   0  0  0  0  0  3  0  0  0  0  0  0
  -22.1010   -4.6640   22.6320 C   0  0  0  0  0  0  0  0  0  0  0  0
  -22.4990   -4.0220   21.5060 F   0  0  0  0  0  0  0  0  0  0  0  0
  -21.2840   -3.8200   26.1180 F   0  0  0  0  0  0  0  0  0  0  0  0
  -23.4310  -14.4060   21.5640 C   0  0  0  0  0  0  0  0  0  0  0  0
  -22.7110  -13.5310   22.3280 N   0  0  0  0  0  0  0  0  0  0  0  0
  -22.7350  -15.1040   20.8330 O   0  0  0  0  0  0  0  0  0  0  0  0
  -23.1650  -12.6960   22.6670 H   0  0  0  0  0  0  0  0  0  0  0  0
  -21.7350  -13.6880   22.5240 H   0  0  0  0  0  0  0  0  0  0  0  0
  -25.7950  -15.5760   21.1030 N   0  0  0  0  0  0  0  0  0  0  0  0
  -25.2360  -16.0680   21.7830 H   0  0  0  0  0  0  0  0  0  0  0  0
  -26.7590  -15.8830   21.0700 H   0  0  0  0  0  0  0  0  0  0  0  0
  -27.7570  -20.5700   19.8480 C   0  0  0  0  0  3  0  0  0  0  0  0
  -26.1310  -20.8050   19.0890 C   0  0  0  0  0  3  0  0  0  0  0  0
  -26.9510  -22.2580   19.9320 C   0  0  0  0  0  2  0  0  0  0  0  0
  -26.6740  -19.2350   19.6160 N   0  0  0  0  0  0  0  0  0  0  0  0
  -26.2290  -19.1010   20.5110 H   0  0  0  0  0  0  0  0  0  0  0  0
  -27.4030  -24.2820   19.9810 O   0  0  0  0  0  1  0  0  0  0  0  0
  -24.6380  -31.5620   22.9400 C   0  0  0  0  0  0  0  0  0  0  0  0
  -26.8080  -25.8720   20.0390 C   0  0  0  0  0  0  0  0  0  0  0  0
  -23.5010  -30.1480   21.3140 C   0  0  0  0  0  3  0  0  0  0  0  0
  -24.9040  -28.4000   19.9360 C   0  0  0  0  0  0  0  0  0  0  0  0
  -26.0950  -30.0520   21.3230 C   0  0  0  0  0  2  0  0  0  0  0  0
  -26.0880  -28.5630   20.6530 C   0  0  0  0  0  0  0  0  0  0  0  0
  -27.0330  -27.3300   20.6650 C   0  0  0  0  0  3  0  0  0  0  0  0
  -25.6790  -26.1060   19.2310 C   0  0  0  0  0  3  0  0  0  0  0  0
  -24.7820  -27.2170   19.1970 C   0  0  0  0  0  3  0  0  0  0  0  0
  -23.7760  -29.4530   19.9500 C   0  0  0  0  0  2  0  0  0  0  0  0
  -24.7830  -30.6410   21.9060 N   0  0  0  0  0  0  0  0  0  0  0  0
  -23.5210  -31.8860   23.3890 O   0  0  0  0  0  0  0  0  0  0  0  0
  -22.7430  -29.1910   22.2770 C   0  0  0  0  0  0  0  0  0  0  0  0
  -21.4080  -29.0690   22.1490 N   0  0  0  0  0  0  0  0  0  0  0  0
  -23.3750  -28.5590   23.1280 O   0  0  0  0  0  0  0  0  0  0  0  0
  -20.9400  -29.6300   21.4510 H   0  0  0  0  0  0  0  0  0  0  0  0
  -17.9960  -27.9150   22.6850 C   0  0  0  0  0  0  0  0  0  0  0  0
  -20.5650  -28.1420   22.9190 C   0  0  0  0  0  3  0  0  0  0  0  0
  -20.6340  -26.7130   22.3320 C   0  0  0  0  0  2  0  0  0  0  0  0
  -19.5190  -26.4230   21.3210 C   0  0  0  0  0  2  0  0  0  0  0  0
  -18.1460  -26.5770   21.9810 C   0  0  0  0  0  2  0  0  0  0  0  0
  -19.1310  -28.6570   23.1110 C   0  0  0  0  0  0  0  0  0  0  0  0
  -18.9320  -29.9070   23.7360 C   0  0  0  0  0  3  0  0  0  0  0  0
  -17.6350  -30.4160   23.9340 C   0  0  0  0  0  3  0  0  0  0  0  0
  -16.5160  -29.6730   23.5190 C   0  0  0  0  0  3  0  0  0  0  0  0
  -16.6990  -28.4230   22.9000 C   0  0  0  0  0  3  0  0  0  0  0  0
  -25.8520  -32.2680   23.6170 C   0  0  0  0  0  3  0  0  0  0  0  0
  -26.3630  -31.5090   24.9060 C   0  0  1  0  0  0  0  0  0  0  0  0
  -25.2530  -31.2080   25.9430 C   0  0  0  0  0  1  0  0  0  0  0  0
  -27.0210  -30.1640   24.5370 C   0  0  0  0  0  1  0  0  0  0  0  0
  -27.4560  -32.3470   25.6110 C   0  0  0  0  0  1  0  0  0  0  0  0
  -25.4500  -33.6440   24.0030 N   0  0  0  0  0  0  0  0  0  0  0  0
  -25.7240  -34.7640   23.3190 C   0  0  0  0  0  0  0  0  0  0  0  0
  -26.3870  -34.7550   22.2800 O   0  0  0  0  0  0  0  0  0  0  0  0
  -24.8510  -33.7190   24.8110 H   0  0  0  0  0  0  0  0  0  0  0  0
  -23.9010  -36.5030   23.1170 C   0  0  0  0  0  1  0  0  0  0  0  0
  -25.1850  -36.1070   23.8670 C   0  0  0  0  0  3  0  0  0  0  0  0
  -27.2920  -37.0720   24.6900 C   0  0  0  0  0  1  0  0  0  0  0  0
  -26.1590  -37.2200   23.7810 N   0  0  0  0  0  0  0  0  0  0  0  0
  -25.7080  -38.1090   23.9790 H   0  0  0  0  0  0  0  0  0  0  0  0
  4  5  1  6
  4  9  1  0
  7  4  1  0
  8  4  1  0
 10 18  1  0
 11 16  1  0
 12 13  1  0
 12 11  1  0
 14 13  1  0
 14 15  1  0
 14 23  1  0
 15 16  1  0
 16 10  1  0
 17 10  2  0
 18 19  1  0
 20 21  1  0
 20 45  1  0
 21 40  1  0
 22 25  1  0
 23 24  1  0
 23 22  1  0
 24 22  1  0
 25 26  1  0
 26 27  2  0
 28 31  1  0
 28 27  1  0
 29 28  2  0
 30 29  1  0
 30 25  2  0
 31 32  1  0
 32 37  2  0
 32 33  1  0
 33 34  2  0
 34 35  1  0
 35 39  1  0
 36 35  2  0
 37 36  1  0
 38 37  1  0
 40 41  1  0
 41 44  1  0
 41 43  1  0
 42 40  2  0
 45 46  1  0
 47 45  1  0
 48 50  1  0
 49 51  1  0
 49 48  1  0
 49 50  1  0
 51 48  1  0
 51 52  1  0
 53 55  1  0
 54 65  2  0
 55 60  1  0
 56 64  1  0
 56 66  1  0
 57 63  1  0
 57 59  1  0
 58 64  1  0
 59 60  2  0
 59 58  1  0
 61 55  2  0
 62 61  1  0
 62 57  2  0
 63 56  1  0
 64 54  1  0
 66 68  2  0
 67 66  1  0
 69 67  1  0
 70 79  2  0
 70 75  1  0
 71 67  1  0
 71 75  1  0
 72 71  1  0
 73 74  1  0
 73 72  1  0
 74 70  1  0
 75 76  2  0
 76 77  1  0
 78 77  2  0
 79 78  1  0
 80 54  1  0
 80 85  1  0
 80 81  1  0
 81 84  1  1
 81 82  1  0
 83 81  1  0
 85 88  1  0
 86 90  1  0
 86 85  1  0
 87 86  2  0
 90 89  1  0
 92 90  1  0
 92 93  1  0
 92 91  1  0
M  ISO  4  10 100  18 100  50 101  53 101
M  END
>  <TORSDO>  (80) 
F 19

>  <SCORE>  (80) 
-1.697

>  <name>  (80) 
80

>  <ligand_id>  (80) 
80

>  <original_smiles>  (80) 
[H]c1c([H])c([H])c2c(c1[H])C([H])([H])C([H])([H])C([H])([H])C2([H])N([H])C(=O)C1([H])N(C(=O)C([H])(N([H])C(=O)C([H])(N([H])C([H])([H])[H])C([H])([H])[H])C(C([H])([H])[H])(C([H])([H])[H])C([H])([H])[H])C([H])([H])c2c([H])c(OC3([H])C([H])([H])[N+]([H])(C([H])([H])c4c([H])c([H])c(C([H])([H])N([H])C(=O)N5C([H])([H])C([H])([H])C([H])([H])C([H])(n6nc(-c7c([H])c([H])c(Oc8c([H])c([H])c(F)c([H])c8F)c([H])c7[H])c(C(=O)N([H])[H])c6N([H])[H])C5([H])[H])c([H])c4C([H])([H])[H])C3([H])[H])c([H])c([H])c2C1([H])[H]

>  <smiles>  (80) 
[H]c1c([H])c([H])c2c(c1[H])C([H])([H])C([H])([H])C([H])([H])C2([H])N([H])C(=O)C1([H])N(C(=O)C([H])(N([H])C(=O)C([H])(N([H])C([H])([H])[H])C([H])([H])[H])C(C([H])([H])[H])(C([H])([H])[H])C([H])([H])[H])C([H])([H])c2c([H])c(OC3([H])C([H])([H])[N+]([H])(C([H])([H])c4c([H])c([H])c(C([H])([H])N([H])C(=O)N5C([H])([H])C([H])([H])C([H])([H])C([H])(n6nc(-c7c([H])c([H])c(Oc8c([H])c([H])c(F)c([H])c8F)c([H])c7[H])c(C(=O)N([H])[H])c6N([H])[H])C5([H])[H])c([H])c4C([H])([H])[H])C3([H])[H])c([H])c([H])c2C1([H])[H]

$$$$
81:0:0
     RDKit          3D

 92101  0  0  1  0  0  0  0  0999 V2000
  -27.5690  -21.0520   20.4270 C   0  0  0  0  0  3  0  0  0  0  0  0
  -26.6300  -22.0570   20.7250 C   0  0  0  0  0  3  0  0  0  0  0  0
  -29.2760  -22.7770   20.3330 C   0  0  0  0  0  3  0  0  0  0  0  0
  -28.9320  -21.3620   20.2550 C   0  0  0  0  0  0  0  0  0  0  0  0
  -26.9890  -23.4160   20.8640 C   0  0  0  0  0  0  0  0  0  0  0  0
  -28.3260  -23.8480   20.6190 C   0  0  0  0  0  0  0  0  0  0  0  0
  -25.8930  -24.3440   21.3600 C   0  0  0  0  0  1  0  0  0  0  0  0
  -29.9490  -20.1740   19.9180 C   0  0  0  0  0  2  0  0  0  0  0  0
  -30.5860  -16.8910   21.8090 C   0  0  0  0  0  2  0  0  0  0  0  0
  -30.1630  -18.3990   21.7820 C   0  0  0  0  0  2  0  0  0  0  0  0
  -30.1460  -17.5450   19.5860 C   0  0  0  0  0  2  0  0  0  0  0  0
  -30.1050  -16.2400   20.4970 C   0  0  0  0  0  3  0  0  0  0  0  0
  -29.6890  -18.7340   20.4140 N   0  0  2  0  0  4  0  0  0  0  0  0
  -28.6850  -18.6510   20.4400 H   0  0  0  0  0  0  0  0  0  0  0  0
  -30.8870  -14.9030   20.0470 C   0  0  0  0  0  0  0  0  0  0  0  0
  -30.6190  -12.6730   18.9360 C   0  0  0  0  0  2  0  0  0  0  0  0
  -29.6080  -12.8230   17.7750 C   0  0  0  0  0  2  0  0  0  0  0  0
  -28.1620  -12.6470   18.2810 C   0  0  0  0  0  2  0  0  0  0  0  0
  -27.8750  -13.4820   19.5560 C   0  0  0  0  0  3  0  0  0  0  0  0
  -28.9950  -13.3130   20.6060 C   0  0  0  0  0  2  0  0  0  0  0  0
  -30.2670  -13.6740   19.9680 N   0  0  0  0  0  0  0  0  0  0  0  0
  -32.0390  -15.0190   19.6170 O   0  0  0  0  0  0  0  0  0  0  0  0
  -25.5440  -14.0800   20.4490 C   0  0  0  0  0  0  0  0  0  0  0  0
  -24.4910  -13.3070   20.8560 C   0  0  0  0  0  0  0  0  0  0  0  0
  -24.9320  -11.9510   20.7480 C   0  0  0  0  0  0  0  0  0  0  0  0
  -26.5580  -13.1960   20.1160 N   0  0  0  0  0  0  0  0  0  0  0  0
  -26.2000  -11.9090   20.3590 N   0  0  0  0  0  0  0  0  0  0  0  0
  -24.1990  -10.6920   20.9340 C   0  0  0  0  0  0  0  0  0  0  0  0
  -24.6110   -9.7320   21.8850 C   0  0  0  0  0  3  0  0  0  0  0  0
  -23.8790   -8.5370   22.0590 C   0  0  0  0  0  3  0  0  0  0  0  0
  -22.7200   -8.2950   21.2830 C   0  0  0  0  0  0  0  0  0  0  0  0
  -22.3280   -9.2440   20.3220 C   0  0  0  0  0  3  0  0  0  0  0  0
  -23.0610  -10.4290   20.1460 C   0  0  0  0  0  3  0  0  0  0  0  0
  -21.9620   -7.1530   21.3660 O   0  0  0  0  0  0  0  0  0  0  0  0
  -21.8090   -6.4750   22.5490 C   0  0  0  0  0  0  0  0  0  0  0  0
  -21.2580   -7.0890   23.6950 C   0  0  0  0  0  3  0  0  0  0  0  0
  -21.0550   -6.3360   24.8680 C   0  0  0  0  0  3  0  0  0  0  0  0
  -21.3920   -4.9700   24.8960 C   0  0  0  0  0  0  0  0  0  0  0  0
  -21.9350   -4.3550   23.7540 C   0  0  0  0  0  3  0  0  0  0  0  0
  -22.1400   -5.1050   22.5830 C   0  0  0  0  0  0  0  0  0  0  0  0
  -22.6440   -4.5030   21.4790 F   0  0  0  0  0  0  0  0  0  0  0  0
  -21.1890   -4.2440   26.0200 F   0  0  0  0  0  0  0  0  0  0  0  0
  -23.1190  -13.7910   21.2260 C   0  0  0  0  0  0  0  0  0  0  0  0
  -22.4390  -13.0830   22.1200 N   0  0  0  0  0  0  0  0  0  0  0  0
  -22.6610  -14.8320   20.7560 O   0  0  0  0  0  0  0  0  0  0  0  0
  -22.8250  -12.2390   22.5200 H   0  0  0  0  0  0  0  0  0  0  0  0
  -21.5200  -13.3880   22.4100 H   0  0  0  0  0  0  0  0  0  0  0  0
  -25.7170  -15.4530   20.3090 N   0  0  0  0  0  0  0  0  0  0  0  0
  -24.9580  -16.1060   20.4730 H   0  0  0  0  0  0  0  0  0  0  0  0
  -26.5320  -15.8880   19.8970 H   0  0  0  0  0  0  0  0  0  0  0  0
  -28.7620  -25.3630   20.9130 C   0  0  0  0  0  2  0  0  0  0  0  0
  -28.5430  -26.5260   19.9980 O   0  0  0  0  0  0  0  0  0  0  0  0
  -24.6940  -31.8270   23.2100 C   0  0  0  0  0  0  0  0  0  0  0  0
  -27.4200  -27.3690   20.0810 C   0  0  0  0  0  0  0  0  0  0  0  0
  -23.5420  -30.4600   21.5060 C   0  0  0  0  0  3  0  0  0  0  0  0
  -25.0420  -28.9690   20.0630 C   0  0  0  0  0  0  0  0  0  0  0  0
  -26.0800  -30.8110   21.3860 C   0  0  0  0  0  2  0  0  0  0  0  0
  -26.1910  -29.4460   20.7080 C   0  0  0  0  0  0  0  0  0  0  0  0
  -27.3850  -28.6570   20.7110 C   0  0  0  0  0  3  0  0  0  0  0  0
  -26.2640  -26.9690   19.3870 C   0  0  0  0  0  3  0  0  0  0  0  0
  -25.0810  -27.7360   19.3930 C   0  0  0  0  0  3  0  0  0  0  0  0
  -23.7920  -29.8270   20.1130 C   0  0  0  0  0  2  0  0  0  0  0  0
  -24.7890  -31.0510   22.0910 N   0  0  0  0  0  0  0  0  0  0  0  0
  -23.5970  -32.0740   23.7310 O   0  0  0  0  0  0  0  0  0  0  0  0
  -22.8740  -29.4080   22.4240 C   0  0  0  0  0  0  0  0  0  0  0  0
  -21.5480  -29.2400   22.2900 N   0  0  0  0  0  0  0  0  0  0  0  0
  -23.5510  -28.7460   23.2160 O   0  0  0  0  0  0  0  0  0  0  0  0
  -21.0600  -29.8300   21.6300 H   0  0  0  0  0  0  0  0  0  0  0  0
  -18.1610  -28.0610   22.7710 C   0  0  0  0  0  0  0  0  0  0  0  0
  -20.7260  -28.2730   23.0190 C   0  0  0  0  0  3  0  0  0  0  0  0
  -20.8000  -26.8740   22.3640 C   0  0  0  0  0  2  0  0  0  0  0  0
  -19.6810  -26.6210   21.3500 C   0  0  0  0  0  2  0  0  0  0  0  0
  -18.3100  -26.7480   22.0200 C   0  0  0  0  0  2  0  0  0  0  0  0
  -19.2960  -28.7840   23.2260 C   0  0  0  0  0  0  0  0  0  0  0  0
  -19.1010  -30.0150   23.8890 C   0  0  0  0  0  3  0  0  0  0  0  0
  -17.8060  -30.5240   24.1000 C   0  0  0  0  0  3  0  0  0  0  0  0
  -16.6860  -29.7960   23.6620 C   0  0  0  0  0  3  0  0  0  0  0  0
  -16.8640  -28.5650   23.0040 C   0  0  0  0  0  3  0  0  0  0  0  0
  -25.9550  -32.4590   23.8750 C   0  0  0  0  0  3  0  0  0  0  0  0
  -26.4570  -31.6600   25.1410 C   0  0  1  0  0  0  0  0  0  0  0  0
  -25.3440  -31.3820   26.1790 C   0  0  0  0  0  1  0  0  0  0  0  0
  -27.0670  -30.3010   24.7280 C   0  0  0  0  0  1  0  0  0  0  0  0
  -27.5840  -32.4510   25.8460 C   0  0  0  0  0  1  0  0  0  0  0  0
  -25.6200  -33.8430   24.2390 N   0  0  0  0  0  0  0  0  0  0  0  0
  -25.9450  -34.9210   23.5130 C   0  0  0  0  0  0  0  0  0  0  0  0
  -26.6260  -34.8550   22.4860 O   0  0  0  0  0  0  0  0  0  0  0  0
  -25.0170  -33.9690   25.0380 H   0  0  0  0  0  0  0  0  0  0  0  0
  -24.1940  -36.7000   23.1920 C   0  0  0  0  0  1  0  0  0  0  0  0
  -25.4330  -36.2900   24.0030 C   0  0  0  0  0  3  0  0  0  0  0  0
  -27.5450  -37.1850   24.8810 C   0  0  0  0  0  1  0  0  0  0  0  0
  -26.4520  -37.3600   23.9280 N   0  0  0  0  0  0  0  0  0  0  0  0
  -26.0300  -38.2700   24.0920 H   0  0  0  0  0  0  0  0  0  0  0  0
  1  2  1  0
  2  5  2  0
  3  6  2  0
  4  3  1  0
  4  1  2  0
  5  7  1  0
  6  5  1  0
  6 51  1  0
  8  4  1  0
  8 13  1  0
 10  9  1  0
 11 13  1  0
 11 12  1  0
 12 15  1  0
 12  9  1  0
 13 14  1  1
 13 10  1  0
 16 21  1  0
 17 18  1  0
 17 16  1  0
 19 18  1  0
 19 26  1  0
 19 20  1  0
 21 15  1  0
 21 20  1  0
 22 15  2  0
 23 24  2  0
 24 43  1  0
 25 24  1  0
 25 28  1  0
 26 27  1  0
 26 23  1  0
 27 25  2  0
 28 29  1  0
 29 30  2  0
 31 34  1  0
 31 30  1  0
 32 31  2  0
 33 32  1  0
 33 28  2  0
 34 35  1  0
 35 40  2  0
 35 36  1  0
 36 37  2  0
 37 38  1  0
 38 42  1  0
 39 38  2  0
 40 39  1  0
 41 40  1  0
 43 44  1  0
 44 47  1  0
 44 46  1  0
 45 43  2  0
 48 23  1  0
 48 49  1  0
 50 48  1  0
 52 54  1  0
 52 51  1  0
 53 64  2  0
 54 59  1  0
 55 63  1  0
 55 65  1  0
 56 62  1  0
 56 58  1  0
 57 63  1  0
 58 59  2  0
 58 57  1  0
 60 61  1  0
 60 54  2  0
 61 56  2  0
 62 55  1  0
 63 53  1  0
 65 67  2  0
 66 65  1  0
 68 66  1  0
 69 78  2  0
 69 74  1  0
 70 66  1  0
 70 74  1  0
 71 70  1  0
 72 73  1  0
 72 71  1  0
 73 69  1  0
 74 75  2  0
 75 76  1  0
 77 76  2  0
 78 77  1  0
 79 53  1  0
 79 84  1  0
 79 80  1  0
 80 83  1  1
 80 81  1  0
 82 80  1  0
 84 87  1  0
 85 89  1  0
 85 84  1  0
 86 85  2  0
 89 88  1  0
 91 89  1  0
 91 92  1  0
 91 90  1  0
M  ISO  4  12 100  15 100  51 101  52 101
M  END
>  <TORSDO>  (81) 
F 19

>  <SCORE>  (81) 
-13.129

>  <name>  (81) 
81

>  <ligand_id>  (81) 
81

>  <original_smiles>  (81) 
[H]c1c([H])c([H])c2c(c1[H])C([H])([H])C([H])([H])C([H])([H])C2([H])N([H])C(=O)C1([H])N(C(=O)C([H])(N([H])C(=O)C([H])(N([H])C([H])([H])[H])C([H])([H])[H])C(C([H])([H])[H])(C([H])([H])[H])C([H])([H])[H])C([H])([H])c2c([H])c(OC([H])([H])c3c([H])c(C([H])([H])[N+]4([H])C([H])([H])C([H])([H])C([H])(C(=O)N5C([H])([H])C([H])([H])C([H])([H])C([H])(n6nc(-c7c([H])c([H])c(Oc8c([H])c([H])c(F)c([H])c8F)c([H])c7[H])c(C(=O)N([H])[H])c6N([H])[H])C5([H])[H])C4([H])[H])c([H])c([H])c3C([H])([H])[H])c([H])c([H])c2C1([H])[H]

>  <smiles>  (81) 
[H]c1c([H])c([H])c2c(c1[H])C([H])([H])C([H])([H])C([H])([H])C2([H])N([H])C(=O)C1([H])N(C(=O)C([H])(N([H])C(=O)C([H])(N([H])C([H])([H])[H])C([H])([H])[H])C(C([H])([H])[H])(C([H])([H])[H])C([H])([H])[H])C([H])([H])c2c([H])c(OC([H])([H])c3c([H])c(C([H])([H])[N+]4([H])C([H])([H])C([H])([H])C([H])(C(=O)N5C([H])([H])C([H])([H])C([H])([H])C([H])(n6nc(-c7c([H])c([H])c(Oc8c([H])c([H])c(F)c([H])c8F)c([H])c7[H])c(C(=O)N([H])[H])c6N([H])[H])C5([H])[H])C4([H])[H])c([H])c([H])c3C([H])([H])[H])c([H])c([H])c2C1([H])[H]

$$$$
82:0:0
     RDKit          3D

 98105  0  0  1  0  0  0  0  0999 V2000
  -32.0850  -15.6400   17.8920 C   0  0  0  0  0  0  0  0  0  0  0  0
  -31.5890  -12.9610   17.3060 C   0  0  0  0  0  2  0  0  0  0  0  0
  -30.3000  -12.5220   16.5230 C   0  0  0  0  0  2  0  0  0  0  0  0
  -29.1130  -12.3640   17.4730 C   0  0  0  0  0  2  0  0  0  0  0  0
  -29.1240  -13.5160   18.5010 C   0  0  0  0  0  3  0  0  0  0  0  0
  -30.4940  -13.7910   19.1790 C   0  0  0  0  0  2  0  0  0  0  0  0
  -31.4220  -14.2960   18.1300 N   0  0  0  0  0  0  0  0  0  0  0  0
  -33.0590  -15.2890   17.1760 O   0  0  0  0  0  0  0  0  0  0  0  0
  -31.7660  -17.2320   18.2830 N   0  0  0  0  0  0  0  0  0  0  0  0
  -29.8220  -17.8320   21.4970 C   0  0  0  0  0  3  0  0  0  0  0  0
  -30.1520  -17.3800   20.1910 C   0  0  0  0  0  3  0  0  0  0  0  0
  -32.4410  -18.0200   20.5570 C   0  0  0  0  0  3  0  0  0  0  0  0
  -32.0840  -18.5440   21.8380 C   0  0  0  0  0  0  0  0  0  0  0  0
  -30.7720  -18.4280   22.3750 C   0  0  0  0  0  0  0  0  0  0  0  0
  -31.4790  -17.4400   19.6920 C   0  0  0  0  0  0  0  0  0  0  0  0
  -29.7260  -18.0210   25.3320 C   0  0  0  0  0  2  0  0  0  0  0  0
  -29.1440  -18.9240   24.2460 C   0  0  0  0  0  2  0  0  0  0  0  0
  -31.1230  -18.4090   24.8410 C   0  0  0  0  0  2  0  0  0  0  0  0
  -30.4840  -19.0130   23.6670 N   0  0  0  0  0  0  0  0  0  0  0  0
  -33.1090  -19.3900   22.6070 C   0  0  0  0  0  2  0  0  0  0  0  0
  -36.0030  -19.5080   20.1890 C   0  0  0  0  0  2  0  0  0  0  0  0
  -36.5720  -20.2680   21.3960 C   0  0  0  0  0  2  0  0  0  0  0  0
  -34.6980  -18.8870   20.6940 C   0  0  0  0  0  2  0  0  0  0  0  0
  -35.4270  -20.3350   22.4190 C   0  0  0  0  0  2  0  0  0  0  0  0
  -34.2230  -19.8300   21.7280 N   0  0  2  0  0  4  0  0  0  0  0  0
  -33.8310  -20.6040   21.2040 H   0  0  0  0  0  0  0  0  0  0  0  0
  -27.6620  -14.4570   20.3300 C   0  0  0  0  0  0  0  0  0  0  0  0
  -26.5540  -13.9980   20.9770 C   0  0  0  0  0  0  0  0  0  0  0  0
  -26.3110  -12.6870   20.4610 C   0  0  0  0  0  0  0  0  0  0  0  0
  -28.0410  -13.4550   19.4630 N   0  0  0  0  0  0  0  0  0  0  0  0
  -27.2600  -12.3490   19.5890 N   0  0  0  0  0  0  0  0  0  0  0  0
  -25.1980  -11.7640   20.7120 C   0  0  0  0  0  0  0  0  0  0  0  0
  -25.4120  -10.4490   21.1820 C   0  0  0  0  0  3  0  0  0  0  0  0
  -24.3180   -9.5950   21.4440 C   0  0  0  0  0  3  0  0  0  0  0  0
  -22.9940  -10.0540   21.2400 C   0  0  0  0  0  0  0  0  0  0  0  0
  -22.7900  -11.3570   20.7510 C   0  0  0  0  0  3  0  0  0  0  0  0
  -23.8760  -12.2030   20.4840 C   0  0  0  0  0  3  0  0  0  0  0  0
  -21.8710   -9.2850   21.4370 O   0  0  0  0  0  0  0  0  0  0  0  0
  -21.8720   -8.2130   22.2960 C   0  0  0  0  0  0  0  0  0  0  0  0
  -21.8760   -8.3890   23.6970 C   0  0  0  0  0  3  0  0  0  0  0  0
  -21.7990   -7.2690   24.5470 C   0  0  0  0  0  3  0  0  0  0  0  0
  -21.7140   -5.9730   24.0020 C   0  0  0  0  0  0  0  0  0  0  0  0
  -21.7090   -5.7960   22.6090 C   0  0  0  0  0  3  0  0  0  0  0  0
  -21.7830   -6.9140   21.7570 C   0  0  0  0  0  0  0  0  0  0  0  0
  -21.7520   -6.7370   20.4140 F   0  0  0  0  0  0  0  0  0  0  0  0
  -21.6360   -4.8990   24.8220 F   0  0  0  0  0  0  0  0  0  0  0  0
  -25.7120  -14.7830   21.9380 C   0  0  0  0  0  0  0  0  0  0  0  0
  -25.0250  -14.1040   22.8520 N   0  0  0  0  0  0  0  0  0  0  0  0
  -25.6960  -16.0110   21.9110 O   0  0  0  0  0  0  0  0  0  0  0  0
  -25.0610  -13.0970   22.8910 H   0  0  0  0  0  0  0  0  0  0  0  0
  -24.4640  -14.6050   23.5260 H   0  0  0  0  0  0  0  0  0  0  0  0
  -28.3590  -15.6610   20.3830 N   0  0  0  0  0  0  0  0  0  0  0  0
  -28.0640  -16.4200   20.9890 H   0  0  0  0  0  0  0  0  0  0  0  0
  -29.1730  -15.8960   19.8310 H   0  0  0  0  0  0  0  0  0  0  0  0
  -31.9350  -19.0280   17.6670 C   0  0  0  0  0  1  0  0  0  0  0  0
  -31.5390  -21.0530   18.0530 C   0  0  0  0  0 15  0  0  0  0  0  0
  -31.0950  -22.9540   17.2920 C   0  0  0  0  0 15  0  0  0  0  0  0
  -30.8960  -24.8200   17.5360 O   0  0  0  0  0  1  0  0  0  0  0  0
  -27.4470  -29.6400   22.8510 C   0  0  0  0  0  0  0  0  0  0  0  0
  -29.8610  -25.9900   17.9770 C   0  0  0  0  0  0  0  0  0  0  0  0
  -26.1430  -28.6760   21.0090 C   0  0  0  0  0  3  0  0  0  0  0  0
  -27.4750  -27.7590   18.9300 C   0  0  0  0  0  0  0  0  0  0  0  0
  -28.6570  -29.1540   20.6030 C   0  0  0  0  0  2  0  0  0  0  0  0
  -28.7330  -28.0060   19.4900 C   0  0  0  0  0  0  0  0  0  0  0  0
  -29.8890  -27.1590   18.9930 C   0  0  0  0  0  3  0  0  0  0  0  0
  -28.5410  -26.0350   17.4350 C   0  0  0  0  0  3  0  0  0  0  0  0
  -27.4240  -26.8260   17.8800 C   0  0  0  0  0  3  0  0  0  0  0  0
  -26.2180  -28.4840   19.4620 C   0  0  0  0  0  2  0  0  0  0  0  0
  -27.4490  -29.1870   21.5460 N   0  0  0  0  0  0  0  0  0  0  0  0
  -26.4290  -29.6020   23.5670 O   0  0  0  0  0  0  0  0  0  0  0  0
  -25.6880  -27.3580   21.6920 C   0  0  0  0  0  0  0  0  0  0  0  0
  -24.4370  -26.9070   21.4590 N   0  0  0  0  0  0  0  0  0  0  0  0
  -26.4780  -26.7380   22.4100 O   0  0  0  0  0  0  0  0  0  0  0  0
  -23.8300  -27.4650   20.8720 H   0  0  0  0  0  0  0  0  0  0  0  0
  -21.5990  -24.6440   21.2610 C   0  0  0  0  0  0  0  0  0  0  0  0
  -23.8890  -25.6370   21.9490 C   0  0  0  0  0  3  0  0  0  0  0  0
  -24.5110  -24.4410   21.1900 C   0  0  0  0  0  2  0  0  0  0  0  0
  -23.6830  -23.9970   19.9790 C   0  0  0  0  0  2  0  0  0  0  0  0
  -22.2770  -23.5790   20.4150 C   0  0  0  0  0  2  0  0  0  0  0  0
  -22.3530  -25.6200   21.9660 C   0  0  0  0  0  0  0  0  0  0  0  0
  -21.6670  -26.6020   22.7150 C   0  0  0  0  0  3  0  0  0  0  0  0
  -20.2610  -26.6210   22.7620 C   0  0  0  0  0  3  0  0  0  0  0  0
  -19.5210  -25.6490   22.0670 C   0  0  0  0  0  3  0  0  0  0  0  0
  -20.1890  -24.6610   21.3230 C   0  0  0  0  0  3  0  0  0  0  0  0
  -28.7220  -30.2430   23.5200 C   0  0  0  0  0  3  0  0  0  0  0  0
  -28.3560  -31.5290   24.1580 N   0  0  0  0  0  0  0  0  0  0  0  0
  -28.7090  -32.7440   23.7120 C   0  0  0  0  0  0  0  0  0  0  0  0
  -29.4230  -32.9050   22.7210 O   0  0  0  0  0  0  0  0  0  0  0  0
  -27.7270  -31.4720   24.9430 H   0  0  0  0  0  0  0  0  0  0  0  0
  -27.0390  -34.6350   23.7060 C   0  0  0  0  0  1  0  0  0  0  0  0
  -28.1880  -33.9760   24.4870 C   0  0  0  0  0  3  0  0  0  0  0  0
  -30.2300  -34.5400   25.7370 C   0  0  0  0  0  1  0  0  0  0  0  0
  -29.2360  -34.9850   24.7640 N   0  0  0  0  0  0  0  0  0  0  0  0
  -28.8210  -35.8490   25.1060 H   0  0  0  0  0  0  0  0  0  0  0  0
  -29.3630  -29.2840   24.5960 C   0  0  1  0  0  0  0  0  0  0  0  0
  -28.3670  -28.8090   25.6820 C   0  0  0  0  0  1  0  0  0  0  0  0
  -29.9580  -28.0200   23.9370 C   0  0  0  0  0  1  0  0  0  0  0  0
  -30.5330  -30.0010   25.3040 C   0  0  0  0  0  1  0  0  0  0  0  0
  1  7  1  0
  1  9  1  0
  2  7  1  0
  3  2  1  0
  3  4  1  0
  5  4  1  0
  5  6  1  0
  5 30  1  0
  7  6  1  0
  8  1  2  0
  9 15  1  0
 10 14  1  0
 11 10  2  0
 12 13  1  0
 13 14  2  0
 13 20  1  0
 14 19  1  0
 15 11  1  0
 15 12  2  0
 17 16  1  0
 18 16  1  0
 19 17  1  0
 19 18  1  0
 21 23  1  0
 21 22  1  0
 22 24  1  0
 23 25  1  0
 25 24  1  0
 25 20  1  0
 25 26  1  6
 27 52  1  0
 27 28  2  0
 28 47  1  0
 29 32  1  0
 29 28  1  0
 30 31  1  0
 30 27  1  0
 31 29  2  0
 32 33  1  0
 33 34  2  0
 35 38  1  0
 35 34  1  0
 36 35  2  0
 37 32  2  0
 37 36  1  0
 38 39  1  0
 39 40  1  0
 40 41  2  0
 42 41  1  0
 42 46  1  0
 43 42  2  0
 44 39  2  0
 44 43  1  0
 45 44  1  0
 47 48  1  0
 48 50  1  0
 48 51  1  0
 49 47  2  0
 52 53  1  0
 54 52  1  0
 55  9  1  0
 58 60  1  0
 59 70  2  0
 60 65  1  0
 61 69  1  0
 61 71  1  0
 62 68  1  0
 62 64  1  0
 63 69  1  0
 64 63  1  0
 65 64  2  0
 66 67  1  0
 66 60  2  0
 67 62  2  0
 68 61  1  0
 69 59  1  0
 71 73  2  0
 72 71  1  0
 74 72  1  0
 75 84  2  0
 75 80  1  0
 76 72  1  0
 76 80  1  0
 77 76  1  0
 78 79  1  0
 78 77  1  0
 79 75  1  0
 80 81  2  0
 81 82  1  0
 83 82  2  0
 84 83  1  0
 85 59  1  0
 85 86  1  0
 85 95  1  0
 86 89  1  0
 87 86  1  0
 87 91  1  0
 88 87  2  0
 91 90  1  0
 91 93  1  0
 93 94  1  0
 93 92  1  0
 95 98  1  1
 95 96  1  0
 97 95  1  0
M  ISO  4   1 100   9 100  57 101  58 101
M  END
>  <TORSDO>  (82) 
F 22

>  <SCORE>  (82) 
8.001

>  <name>  (82) 
82

>  <ligand_id>  (82) 
82

>  <original_smiles>  (82) 
[H]c1c([H])c([H])c2c(c1[H])C([H])([H])C([H])([H])C([H])([H])C2([H])N([H])C(=O)C1([H])N(C(=O)C([H])(N([H])C(=O)C([H])(N([H])C([H])([H])[H])C([H])([H])[H])C(C([H])([H])[H])(C([H])([H])[H])C([H])([H])[H])C([H])([H])c2c([H])c(OC([H])([H])C([H])([H])C([H])([H])N(C(=O)N3C([H])([H])C([H])([H])C([H])([H])C([H])(n4nc(-c5c([H])c([H])c(Oc6c([H])c([H])c(F)c([H])c6F)c([H])c5[H])c(C(=O)N([H])[H])c4N([H])[H])C3([H])[H])c3c([H])c([H])c(N4C([H])([H])C([H])([H])C4([H])[H])c(C([H])([H])[N+]4([H])C([H])([H])C([H])([H])C([H])([H])C4([H])[H])c3[H])c([H])c([H])c2C1([H])[H]

>  <smiles>  (82) 
[H]c1c([H])c([H])c2c(c1[H])C([H])([H])C([H])([H])C([H])([H])C2([H])N([H])C(=O)C1([H])N(C(=O)C([H])(N([H])C(=O)C([H])(N([H])C([H])([H])[H])C([H])([H])[H])C(C([H])([H])[H])(C([H])([H])[H])C([H])([H])[H])C([H])([H])c2c([H])c(OC([H])([H])C([H])([H])C([H])([H])N(C(=O)N3C([H])([H])C([H])([H])C([H])([H])C([H])(n4nc(-c5c([H])c([H])c(Oc6c([H])c([H])c(F)c([H])c6F)c([H])c5[H])c(C(=O)N([H])[H])c4N([H])[H])C3([H])[H])c3c([H])c([H])c(N4C([H])([H])C([H])([H])C4([H])[H])c(C([H])([H])[N+]4([H])C([H])([H])C([H])([H])C([H])([H])C4([H])[H])c3[H])c([H])c([H])c2C1([H])[H]

$$$$
83:0:0
     RDKit          3D

 93102  0  0  1  0  0  0  0  0999 V2000
  -28.4650  -18.4450   19.4040 C   0  0  0  0  0  3  0  0  0  0  0  0
  -27.9300  -20.8450   19.3230 C   0  0  0  0  0  3  0  0  0  0  0  0
  -29.4980  -18.6580   20.3360 C   0  0  0  0  0  0  0  0  0  0  0  0
  -29.7240  -20.0490   20.7540 C   0  0  0  0  0  0  0  0  0  0  0  0
  -28.9320  -21.1840   20.2620 C   0  0  0  0  0  0  0  0  0  0  0  0
  -27.6990  -19.5170   18.9090 C   0  0  0  0  0  0  0  0  0  0  0  0
  -30.8740  -20.3330   21.7080 C   0  0  0  0  0  1  0  0  0  0  0  0
  -26.7190  -19.2700   18.0090 F   0  0  0  0  0  0  0  0  0  0  0  0
  -29.1440  -24.5910   22.0210 C   0  0  0  0  0  2  0  0  0  0  0  0
  -29.1690  -23.0360   22.0190 C   0  0  0  0  0  2  0  0  0  0  0  0
  -28.6070  -23.8090   19.8500 C   0  0  0  0  0  2  0  0  0  0  0  0
  -28.2650  -25.0150   20.8380 C   0  0  0  0  0  3  0  0  0  0  0  0
  -29.0800  -22.5980   20.6230 N   0  0  0  0  0  0  0  0  0  0  0  0
  -28.4670  -26.4640   20.4830 O   0  0  0  0  0  0  0  0  0  0  0  0
  -24.6390  -31.9590   23.2740 C   0  0  0  0  0  0  0  0  0  0  0  0
  -27.3540  -27.3280   20.4070 C   0  0  0  0  0  0  0  0  0  0  0  0
  -23.4900  -30.5220   21.6280 C   0  0  0  0  0  3  0  0  0  0  0  0
  -24.9890  -28.9470   20.2740 C   0  0  0  0  0  0  0  0  0  0  0  0
  -26.0320  -30.8480   21.5090 C   0  0  0  0  0  2  0  0  0  0  0  0
  -26.1390  -29.4530   20.8930 C   0  0  0  0  0  0  0  0  0  0  0  0
  -27.3280  -28.6590   20.9420 C   0  0  0  0  0  3  0  0  0  0  0  0
  -26.1840  -26.8800   19.7600 C   0  0  0  0  0  3  0  0  0  0  0  0
  -25.0170  -27.6690   19.6920 C   0  0  0  0  0  3  0  0  0  0  0  0
  -23.7470  -29.8180   20.2680 C   0  0  0  0  0  2  0  0  0  0  0  0
  -24.7370  -31.1290   22.1940 N   0  0  0  0  0  0  0  0  0  0  0  0
  -23.5400  -32.2430   23.7720 O   0  0  0  0  0  0  0  0  0  0  0  0
  -22.8030  -29.5240   22.5900 C   0  0  0  0  0  0  0  0  0  0  0  0
  -21.4790  -29.3500   22.4420 N   0  0  0  0  0  0  0  0  0  0  0  0
  -23.4640  -28.9070   23.4320 O   0  0  0  0  0  0  0  0  0  0  0  0
  -21.0070  -29.8970   21.7360 H   0  0  0  0  0  0  0  0  0  0  0  0
  -18.0790  -28.2220   22.9440 C   0  0  0  0  0  0  0  0  0  0  0  0
  -20.6430  -28.4270   23.2100 C   0  0  0  0  0  3  0  0  0  0  0  0
  -20.7140  -26.9960   22.6280 C   0  0  0  0  0  2  0  0  0  0  0  0
  -19.6040  -26.7010   21.6140 C   0  0  0  0  0  2  0  0  0  0  0  0
  -18.2270  -26.8720   22.2610 C   0  0  0  0  0  2  0  0  0  0  0  0
  -19.2140  -28.9580   23.3750 C   0  0  0  0  0  0  0  0  0  0  0  0
  -19.0230  -30.2230   23.9750 C   0  0  0  0  0  3  0  0  0  0  0  0
  -17.7280  -30.7500   24.1460 C   0  0  0  0  0  3  0  0  0  0  0  0
  -16.6090  -30.0090   23.7310 C   0  0  0  0  0  3  0  0  0  0  0  0
  -16.7850  -28.7480   23.1350 C   0  0  0  0  0  3  0  0  0  0  0  0
  -25.9000  -32.6120   23.9200 C   0  0  0  0  0  3  0  0  0  0  0  0
  -25.5720  -34.0130   24.2200 N   0  0  0  0  0  0  0  0  0  0  0  0
  -25.9080  -35.0570   23.4500 C   0  0  0  0  0  0  0  0  0  0  0  0
  -26.5950  -34.9430   22.4320 O   0  0  0  0  0  0  0  0  0  0  0  0
  -24.9620  -34.1750   25.0080 H   0  0  0  0  0  0  0  0  0  0  0  0
  -24.1800  -36.8360   23.0270 C   0  0  0  0  0  1  0  0  0  0  0  0
  -25.4010  -36.4500   23.8760 C   0  0  0  0  0  3  0  0  0  0  0  0
  -27.5020  -37.3660   24.7580 C   0  0  0  0  0  1  0  0  0  0  0  0
  -26.4300  -37.5070   23.7750 N   0  0  0  0  0  0  0  0  0  0  0  0
  -26.0150  -38.4270   23.8880 H   0  0  0  0  0  0  0  0  0  0  0  0
  -26.3870  -31.8660   25.2230 C   0  0  1  0  0  0  0  0  0  0  0  0
  -25.2630  -31.6300   26.2590 C   0  0  0  0  0  1  0  0  0  0  0  0
  -27.0000  -30.4920   24.8720 C   0  0  0  0  0  1  0  0  0  0  0  0
  -27.5030  -32.6860   25.9100 C   0  0  0  0  0  1  0  0  0  0  0  0
  -30.3640  -17.3870   20.7850 C   0  0  0  0  0  2  0  0  0  0  0  0
  -30.6500  -14.8000   20.3110 C   0  0  0  0  0  0  0  0  0  0  0  0
  -30.4070  -12.5520   19.2400 C   0  0  0  0  0  2  0  0  0  0  0  0
  -29.4380  -12.6500   18.0400 C   0  0  0  0  0  2  0  0  0  0  0  0
  -27.9810  -12.4660   18.5040 C   0  0  0  0  0  2  0  0  0  0  0  0
  -27.6380  -13.3290   19.7480 C   0  0  0  0  0  3  0  0  0  0  0  0
  -28.7260  -13.2250   20.8400 C   0  0  0  0  0  2  0  0  0  0  0  0
  -30.0040  -13.5870   20.2180 N   0  0  0  0  0  0  0  0  0  0  0  0
  -31.8340  -14.8890   19.9740 O   0  0  0  0  0  0  0  0  0  0  0  0
  -29.9060  -15.9360   20.5980 N   0  0  0  0  0  0  0  0  0  0  0  0
  -28.9340  -15.7650   20.7990 H   0  0  0  0  0  0  0  0  0  0  0  0
  -25.2690  -13.9080   20.5470 C   0  0  0  0  0  0  0  0  0  0  0  0
  -24.2110  -13.1300   20.9250 C   0  0  0  0  0  0  0  0  0  0  0  0
  -24.6730  -11.7790   20.8610 C   0  0  0  0  0  0  0  0  0  0  0  0
  -26.3070  -13.0340   20.2680 N   0  0  0  0  0  0  0  0  0  0  0  0
  -25.9560  -11.7460   20.5230 N   0  0  0  0  0  0  0  0  0  0  0  0
  -23.9500  -10.5150   21.0440 C   0  0  0  0  0  0  0  0  0  0  0  0
  -24.3850   -9.5420   21.9720 C   0  0  0  0  0  3  0  0  0  0  0  0
  -23.6600   -8.3430   22.1440 C   0  0  0  0  0  3  0  0  0  0  0  0
  -22.4870   -8.1080   21.3880 C   0  0  0  0  0  0  0  0  0  0  0  0
  -22.0730   -9.0690   20.4500 C   0  0  0  0  0  3  0  0  0  0  0  0
  -22.7970  -10.2590   20.2760 C   0  0  0  0  0  3  0  0  0  0  0  0
  -21.7340   -6.9620   21.4690 O   0  0  0  0  0  0  0  0  0  0  0  0
  -21.6560   -6.2310   22.6280 C   0  0  0  0  0  0  0  0  0  0  0  0
  -21.1500   -6.7840   23.8240 C   0  0  0  0  0  3  0  0  0  0  0  0
  -21.0220   -5.9780   24.9730 C   0  0  0  0  0  3  0  0  0  0  0  0
  -21.3930   -4.6200   24.9260 C   0  0  0  0  0  0  0  0  0  0  0  0
  -21.8920   -4.0680   23.7340 C   0  0  0  0  0  3  0  0  0  0  0  0
  -22.0200   -4.8700   22.5870 C   0  0  0  0  0  0  0  0  0  0  0  0
  -22.4830   -4.3270   21.4350 F   0  0  0  0  0  0  0  0  0  0  0  0
  -21.2640   -3.8430   26.0270 F   0  0  0  0  0  0  0  0  0  0  0  0
  -22.8210  -13.6040   21.2340 C   0  0  0  0  0  0  0  0  0  0  0  0
  -22.1070  -12.8870   22.0930 N   0  0  0  0  0  0  0  0  0  0  0  0
  -22.3790  -14.6460   20.7500 O   0  0  0  0  0  0  0  0  0  0  0  0
  -22.4790  -12.0460   22.5060 H   0  0  0  0  0  0  0  0  0  0  0  0
  -21.1750  -13.1860   22.3440 H   0  0  0  0  0  0  0  0  0  0  0  0
  -25.4280  -15.2830   20.3920 N   0  0  0  0  0  0  0  0  0  0  0  0
  -24.6550  -15.9250   20.5350 H   0  0  0  0  0  0  0  0  0  0  0  0
  -26.2550  -15.7360   20.0300 H   0  0  0  0  0  0  0  0  0  0  0  0
  1  3  1  0
  2  5  2  0
  3  4  2  0
  3 55  1  0
  4  7  1  0
  5 13  1  0
  5  4  1  0
  6  2  1  0
  6  1  2  0
  8  6  1  0
 10  9  1  0
 11 13  1  0
 11 12  1  0
 12 14  1  0
 12  9  1  0
 13 10  1  0
 15 26  2  0
 16 14  1  0
 16 21  1  0
 17 25  1  0
 17 27  1  0
 18 20  1  0
 19 25  1  0
 20 21  2  0
 20 19  1  0
 22 16  2  0
 23 22  1  0
 23 18  2  0
 24 18  1  0
 24 17  1  0
 25 15  1  0
 27 29  2  0
 28 27  1  0
 30 28  1  0
 31 40  2  0
 31 36  1  0
 32 28  1  0
 32 36  1  0
 33 32  1  0
 34 35  1  0
 34 33  1  0
 35 31  1  0
 36 37  2  0
 37 38  1  0
 39 38  2  0
 40 39  1  0
 41 15  1  0
 41 42  1  0
 41 51  1  0
 42 45  1  0
 43 47  1  0
 43 42  1  0
 44 43  2  0
 47 46  1  0
 49 47  1  0
 49 50  1  0
 49 48  1  0
 51 54  1  1
 51 52  1  0
 53 51  1  0
 56 64  1  0
 57 62  1  0
 58 59  1  0
 58 57  1  0
 60 59  1  0
 60 69  1  0
 60 61  1  0
 62 56  1  0
 62 61  1  0
 63 56  2  0
 64 55  1  0
 64 65  1  0
 66 67  2  0
 67 86  1  0
 68 67  1  0
 68 71  1  0
 69 70  1  0
 69 66  1  0
 70 68  2  0
 71 72  1  0
 72 73  2  0
 74 77  1  0
 74 73  1  0
 75 74  2  0
 76 75  1  0
 76 71  2  0
 77 78  1  0
 78 79  1  0
 79 80  2  0
 81 80  1  0
 81 85  1  0
 82 81  2  0
 83 78  2  0
 83 82  1  0
 84 83  1  0
 86 87  1  0
 87 90  1  0
 87 89  1  0
 88 86  2  0
 91 92  1  0
 91 66  1  0
 93 91  1  0
M  ISO  4  12 101  14 101  56 100  64 100
M  END
>  <TORSDO>  (83) 
F 18

>  <SCORE>  (83) 
-15.104

>  <name>  (83) 
83

>  <ligand_id>  (83) 
83

>  <original_smiles>  (83) 
[H]c1c([H])c([H])c2c(c1[H])C([H])([H])C([H])([H])C([H])([H])C2([H])N([H])C(=O)C1([H])N(C(=O)C([H])(N([H])C(=O)C([H])(N([H])C([H])([H])[H])C([H])([H])[H])C(C([H])([H])[H])(C([H])([H])[H])C([H])([H])[H])C([H])([H])c2c([H])c(OC3([H])C([H])([H])N(c4c([H])c(F)c([H])c(C([H])([H])N([H])C(=O)N5C([H])([H])C([H])([H])C([H])([H])C([H])(n6nc(-c7c([H])c([H])c(Oc8c([H])c([H])c(F)c([H])c8F)c([H])c7[H])c(C(=O)N([H])[H])c6N([H])[H])C5([H])[H])c4C([H])([H])[H])C([H])([H])C3([H])[H])c([H])c([H])c2C1([H])[H]

>  <smiles>  (83) 
[H]c1c([H])c([H])c2c(c1[H])C([H])([H])C([H])([H])C([H])([H])C2([H])N([H])C(=O)C1([H])N(C(=O)C([H])(N([H])C(=O)C([H])(N([H])C([H])([H])[H])C([H])([H])[H])C(C([H])([H])[H])(C([H])([H])[H])C([H])([H])[H])C([H])([H])c2c([H])c(OC3([H])C([H])([H])N(c4c([H])c(F)c([H])c(C([H])([H])N([H])C(=O)N5C([H])([H])C([H])([H])C([H])([H])C([H])(n6nc(-c7c([H])c([H])c(Oc8c([H])c([H])c(F)c([H])c8F)c([H])c7[H])c(C(=O)N([H])[H])c6N([H])[H])C5([H])[H])c4C([H])([H])[H])C([H])([H])C3([H])[H])c([H])c([H])c2C1([H])[H]

$$$$
84:0:0
     RDKit          3D

 95105  0  0  1  0  0  0  0  0999 V2000
  -29.3870  -20.0770   20.2010 C   0  0  0  0  0  3  0  0  0  0  0  0
  -30.4890  -22.0910   21.7650 C   0  0  0  0  0  3  0  0  0  0  0  0
  -28.7310  -21.3250   20.3100 C   0  0  0  0  0  0  0  0  0  0  0  0
  -30.5800  -19.8110   20.8990 C   0  0  0  0  0  0  0  0  0  0  0  0
  -29.2730  -22.3850   21.0970 C   0  0  0  0  0  0  0  0  0  0  0  0
  -31.1350  -20.8430   21.6860 C   0  0  0  0  0  0  0  0  0  0  0  0
  -27.3990  -21.4590   19.5890 C   0  0  0  0  0  1  0  0  0  0  0  0
  -32.5880  -20.6100   22.5950 Cl  0  0  0  0  0  0  0  0  0  0  0  0
  -29.5050  -24.8360   21.4760 C   0  0  0  0  0  2  0  0  0  0  0  0
  -27.8570  -24.3270   20.3210 C   0  0  0  0  0  2  0  0  0  0  0  0
  -28.2450  -25.6070   21.0730 C   0  0  0  0  0  3  0  0  0  0  0  0
  -28.6530  -23.6520   21.3410 N   0  0  0  0  0  0  0  0  0  0  0  0
  -28.4350  -26.7760   20.2700 O   0  0  0  0  0  0  0  0  0  0  0  0
  -24.6070  -31.9430   23.2670 C   0  0  0  0  0  0  0  0  0  0  0  0
  -27.2880  -27.5270   20.2080 C   0  0  0  0  0  0  0  0  0  0  0  0
  -23.4160  -30.5360   21.6170 C   0  0  0  0  0  3  0  0  0  0  0  0
  -24.8860  -29.0040   20.2020 C   0  0  0  0  0  0  0  0  0  0  0  0
  -25.9390  -30.9090   21.4350 C   0  0  0  0  0  2  0  0  0  0  0  0
  -26.0370  -29.5410   20.7950 C   0  0  0  0  0  0  0  0  0  0  0  0
  -27.2430  -28.8090   20.7950 C   0  0  0  0  0  3  0  0  0  0  0  0
  -26.1250  -27.0000   19.6060 C   0  0  0  0  0  3  0  0  0  0  0  0
  -24.9240  -27.7320   19.6050 C   0  0  0  0  0  3  0  0  0  0  0  0
  -23.6360  -29.8540   20.2400 C   0  0  0  0  0  2  0  0  0  0  0  0
  -24.6720  -31.1430   22.1660 N   0  0  0  0  0  0  0  0  0  0  0  0
  -23.5210  -32.2130   23.7990 O   0  0  0  0  0  0  0  0  0  0  0  0
  -22.7610  -29.5140   22.5740 C   0  0  0  0  0  0  0  0  0  0  0  0
  -21.4370  -29.3350   22.4410 N   0  0  0  0  0  0  0  0  0  0  0  0
  -23.4400  -28.8850   23.3890 O   0  0  0  0  0  0  0  0  0  0  0  0
  -20.9500  -29.8950   21.7540 H   0  0  0  0  0  0  0  0  0  0  0  0
  -18.0530  -28.1770   22.9450 C   0  0  0  0  0  0  0  0  0  0  0  0
  -20.6140  -28.3990   23.2070 C   0  0  0  0  0  3  0  0  0  0  0  0
  -20.6970  -26.9740   22.6140 C   0  0  0  0  0  2  0  0  0  0  0  0
  -19.5850  -26.6750   21.6020 C   0  0  0  0  0  2  0  0  0  0  0  0
  -18.2090  -26.8320   22.2560 C   0  0  0  0  0  2  0  0  0  0  0  0
  -19.1830  -28.9200   23.3770 C   0  0  0  0  0  0  0  0  0  0  0  0
  -18.9830  -30.1800   23.9810 C   0  0  0  0  0  3  0  0  0  0  0  0
  -17.6860  -30.6980   24.1570 C   0  0  0  0  0  3  0  0  0  0  0  0
  -16.5700  -29.9500   23.7420 C   0  0  0  0  0  3  0  0  0  0  0  0
  -16.7540  -28.6920   23.1420 C   0  0  0  0  0  3  0  0  0  0  0  0
  -25.8880  -32.5760   23.8940 C   0  0  0  0  0  3  0  0  0  0  0  0
  -26.3970  -31.8080   25.1760 C   0  0  1  0  0  0  0  0  0  0  0  0
  -25.2970  -31.5670   26.2340 C   0  0  0  0  0  1  0  0  0  0  0  0
  -26.9880  -30.4320   24.7870 C   0  0  0  0  0  1  0  0  0  0  0  0
  -27.5410  -32.6060   25.8450 C   0  0  0  0  0  1  0  0  0  0  0  0
  -25.5770  -33.9750   24.2160 N   0  0  0  0  0  0  0  0  0  0  0  0
  -25.9120  -35.0220   23.4510 C   0  0  0  0  0  0  0  0  0  0  0  0
  -26.5860  -34.9130   22.4230 O   0  0  0  0  0  0  0  0  0  0  0  0
  -24.9780  -34.1340   25.0120 H   0  0  0  0  0  0  0  0  0  0  0  0
  -24.1830  -36.8090   23.0750 C   0  0  0  0  0  1  0  0  0  0  0  0
  -25.4200  -36.4130   23.8960 C   0  0  0  0  0  3  0  0  0  0  0  0
  -27.5470  -37.3070   24.7340 C   0  0  0  0  0  1  0  0  0  0  0  0
  -26.4520  -37.4650   23.7810 N   0  0  0  0  0  0  0  0  0  0  0  0
  -26.0430  -38.3870   23.9160 H   0  0  0  0  0  0  0  0  0  0  0  0
  -31.2270  -18.4290   20.8060 C   0  0  0  0  0  2  0  0  0  0  0  0
  -29.4730  -16.6540   21.1290 C   0  0  0  0  0  2  0  0  0  0  0  0
  -31.3360  -16.2460   22.0320 C   0  0  0  0  0  2  0  0  0  0  0  0
  -30.1840  -15.3570   21.5330 C   0  0  0  0  0  3  0  0  0  0  0  0
  -30.5660  -17.4470   21.7040 N   0  0  1  0  0  4  0  0  0  0  0  0
  -30.2750  -17.8970   22.5590 H   0  0  0  0  0  0  0  0  0  0  0  0
  -30.5330  -14.4390   20.3400 C   0  0  0  0  0  0  0  0  0  0  0  0
  -30.1300  -12.4060   18.9920 C   0  0  0  0  0  2  0  0  0  0  0  0
  -29.1180  -12.6660   17.8610 C   0  0  0  0  0  2  0  0  0  0  0  0
  -27.6780  -12.4680   18.3690 C   0  0  0  0  0  2  0  0  0  0  0  0
  -27.4030  -13.2370   19.6870 C   0  0  0  0  0  3  0  0  0  0  0  0
  -28.5180  -12.9760   20.7250 C   0  0  0  0  0  2  0  0  0  0  0  0
  -29.8150  -13.3080   20.1110 N   0  0  0  0  0  0  0  0  0  0  0  0
  -31.4920  -14.7550   19.6290 O   0  0  0  0  0  0  0  0  0  0  0  0
  -25.0230  -13.7680   20.5180 C   0  0  0  0  0  0  0  0  0  0  0  0
  -23.9950  -12.9600   20.9260 C   0  0  0  0  0  0  0  0  0  0  0  0
  -24.4910  -11.6220   20.8470 C   0  0  0  0  0  0  0  0  0  0  0  0
  -26.0810  -12.9210   20.2230 N   0  0  0  0  0  0  0  0  0  0  0  0
  -25.7640  -11.6240   20.4760 N   0  0  0  0  0  0  0  0  0  0  0  0
  -23.8100  -10.3370   21.0490 C   0  0  0  0  0  0  0  0  0  0  0  0
  -24.2930   -9.3830   21.9710 C   0  0  0  0  0  3  0  0  0  0  0  0
  -23.6110   -8.1610   22.1600 C   0  0  0  0  0  3  0  0  0  0  0  0
  -22.4310   -7.8860   21.4280 C   0  0  0  0  0  0  0  0  0  0  0  0
  -21.9670   -8.8300   20.4960 C   0  0  0  0  0  3  0  0  0  0  0  0
  -22.6510  -10.0430   20.3040 C   0  0  0  0  0  3  0  0  0  0  0  0
  -21.7170   -6.7170   21.5280 O   0  0  0  0  0  0  0  0  0  0  0  0
  -21.7030   -5.9790   22.6840 C   0  0  0  0  0  0  0  0  0  0  0  0
  -21.2480   -6.5170   23.9070 C   0  0  0  0  0  3  0  0  0  0  0  0
  -21.1850   -5.7030   25.0560 C   0  0  0  0  0  3  0  0  0  0  0  0
  -21.5650   -4.3490   24.9820 C   0  0  0  0  0  0  0  0  0  0  0  0
  -22.0140   -3.8100   23.7630 C   0  0  0  0  0  3  0  0  0  0  0  0
  -22.0790   -4.6210   22.6160 C   0  0  0  0  0  0  0  0  0  0  0  0
  -22.4910   -4.0910   21.4400 F   0  0  0  0  0  0  0  0  0  0  0  0
  -21.4980   -3.5650   26.0820 F   0  0  0  0  0  0  0  0  0  0  0  0
  -22.6010  -13.3930   21.2760 C   0  0  0  0  0  0  0  0  0  0  0  0
  -21.9380  -12.6640   22.1670 N   0  0  0  0  0  0  0  0  0  0  0  0
  -22.1080  -14.4120   20.7940 O   0  0  0  0  0  0  0  0  0  0  0  0
  -22.3500  -11.8390   22.5780 H   0  0  0  0  0  0  0  0  0  0  0  0
  -21.0050  -12.9350   22.4430 H   0  0  0  0  0  0  0  0  0  0  0  0
  -25.1420  -15.1450   20.3580 N   0  0  0  0  0  0  0  0  0  0  0  0
  -24.3610  -15.7740   20.5050 H   0  0  0  0  0  0  0  0  0  0  0  0
  -25.9560  -15.6100   19.9760 H   0  0  0  0  0  0  0  0  0  0  0  0
  1  3  2  0
  1  4  1  0
  3  5  1  0
  4  6  2  0
  5 12  1  0
  5  2  2  0
  6  2  1  0
  6  8  1  0
  7  3  1  0
 10 11  1  0
 10 12  1  0
 11 13  1  0
 11  9  1  0
 12  9  1  0
 14 25  2  0
 15 13  1  0
 15 20  1  0
 16 24  1  0
 16 26  1  0
 17 23  1  0
 17 19  1  0
 18 24  1  0
 19 20  2  0
 19 18  1  0
 21 15  2  0
 22 21  1  0
 22 17  2  0
 23 16  1  0
 24 14  1  0
 26 28  2  0
 27 26  1  0
 29 27  1  0
 30 39  2  0
 30 35  1  0
 31 27  1  0
 31 35  1  0
 32 31  1  0
 33 34  1  0
 33 32  1  0
 34 30  1  0
 35 36  2  0
 36 37  1  0
 38 37  2  0
 39 38  1  0
 40 14  1  0
 40 45  1  0
 40 41  1  0
 41 44  1  1
 41 42  1  0
 43 41  1  0
 45 48  1  0
 46 50  1  0
 46 45  1  0
 47 46  2  0
 50 49  1  0
 52 50  1  0
 52 53  1  0
 52 51  1  0
 54  4  1  0
 54 58  1  0
 55 57  1  0
 55 58  1  0
 57 60  1  0
 57 56  1  0
 58 56  1  0
 58 59  1  1
 61 66  1  0
 62 63  1  0
 62 61  1  0
 64 63  1  0
 64 71  1  0
 64 65  1  0
 66 60  1  0
 66 65  1  0
 67 60  2  0
 68 69  2  0
 69 88  1  0
 70 69  1  0
 70 73  1  0
 71 72  1  0
 71 68  1  0
 72 70  2  0
 73 74  1  0
 74 75  2  0
 76 79  1  0
 76 75  1  0
 77 76  2  0
 78 77  1  0
 78 73  2  0
 79 80  1  0
 80 81  1  0
 81 82  2  0
 83 82  1  0
 83 87  1  0
 84 83  2  0
 85 80  2  0
 85 84  1  0
 86 85  1  0
 88 89  1  0
 89 92  1  0
 89 91  1  0
 90 88  2  0
 93 94  1  0
 93 68  1  0
 95 93  1  0
M  ISO  4  11 101  13 101  57 100  60 100
M  END
>  <TORSDO>  (84) 
F 19

>  <SCORE>  (84) 
-14.460

>  <name>  (84) 
84

>  <ligand_id>  (84) 
84

>  <original_smiles>  (84) 
[H]c1c([H])c([H])c2c(c1[H])C([H])([H])C([H])([H])C([H])([H])C2([H])N([H])C(=O)C1([H])N(C(=O)C([H])(N([H])C(=O)C([H])(N([H])C([H])([H])[H])C([H])([H])[H])C(C([H])([H])[H])(C([H])([H])[H])C([H])([H])[H])C([H])([H])c2c([H])c(OC3([H])C([H])([H])N(c4c([H])c(Cl)c(C([H])([H])[N+]5([H])C([H])([H])C([H])(C(=O)N6C([H])([H])C([H])([H])C([H])([H])C([H])(n7nc(-c8c([H])c([H])c(Oc9c([H])c([H])c(F)c([H])c9F)c([H])c8[H])c(C(=O)N([H])[H])c7N([H])[H])C6([H])[H])C5([H])[H])c([H])c4C([H])([H])[H])C3([H])[H])c([H])c([H])c2C1([H])[H]

>  <smiles>  (84) 
[H]c1c([H])c([H])c2c(c1[H])C([H])([H])C([H])([H])C([H])([H])C2([H])N([H])C(=O)C1([H])N(C(=O)C([H])(N([H])C(=O)C([H])(N([H])C([H])([H])[H])C([H])([H])[H])C(C([H])([H])[H])(C([H])([H])[H])C([H])([H])[H])C([H])([H])c2c([H])c(OC3([H])C([H])([H])N(c4c([H])c(Cl)c(C([H])([H])[N+]5([H])C([H])([H])C([H])(C(=O)N6C([H])([H])C([H])([H])C([H])([H])C([H])(n7nc(-c8c([H])c([H])c(Oc9c([H])c([H])c(F)c([H])c9F)c([H])c8[H])c(C(=O)N([H])[H])c7N([H])[H])C6([H])[H])C5([H])[H])c([H])c4C([H])([H])[H])C3([H])[H])c([H])c([H])c2C1([H])[H]

$$$$
85:0:0
     RDKit          3D

102112  0  0  1  0  0  0  0  0999 V2000
  -35.9000  -18.6940    5.5540 C   0  0  0  0  0  3  0  0  0  0  0  0
  -35.2990  -17.3730    5.6260 C   0  0  0  0  0  3  0  0  0  0  0  0
  -37.1230  -19.0100    4.8680 C   0  0  0  0  0  0  0  0  0  0  0  0
  -37.6620  -17.8240    4.2480 C   0  0  0  0  0  0  0  0  0  0  0  0
  -37.3110  -16.5010    4.7140 C   0  0  0  0  0  0  0  0  0  0  0  0
  -36.0010  -16.1930    5.2090 C   0  0  0  0  0  0  0  0  0  0  0  0
  -38.3850  -17.8210    2.8910 C   0  0  0  0  0  1  0  0  0  0  0  0
  -34.9260  -13.8660    4.3680 C   0  0  0  0  0  0  0  0  0  0  0  0
  -33.2980  -11.9260    4.3510 C   0  0  0  0  0  2  0  0  0  0  0  0
  -32.0800  -12.3190    5.2190 C   0  0  0  0  0  2  0  0  0  0  0  0
  -32.3420  -12.0090    6.7070 C   0  0  0  0  0  2  0  0  0  0  0  0
  -33.7350  -12.4980    7.1800 C   0  0  0  0  0  3  0  0  0  0  0  0
  -34.8430  -12.0800    6.1890 C   0  0  0  0  0  2  0  0  0  0  0  0
  -34.4860  -12.6550    4.8800 N   0  0  0  0  0  0  0  0  0  0  0  0
  -34.6780  -14.1650    3.1970 O   0  0  0  0  0  0  0  0  0  0  0  0
  -35.4990  -14.7670    5.2640 N   0  0  0  0  0  0  0  0  0  0  0  0
  -35.6920  -14.2730    6.1290 H   0  0  0  0  0  0  0  0  0  0  0  0
  -33.9330  -12.7750    9.7230 C   0  0  0  0  0  0  0  0  0  0  0  0
  -34.2820  -11.9180   10.7160 C   0  0  0  0  0  0  0  0  0  0  0  0
  -34.5850  -10.6740   10.0710 C   0  0  0  0  0  0  0  0  0  0  0  0
  -34.0390  -12.0650    8.5350 N   0  0  0  0  0  0  0  0  0  0  0  0
  -34.4990  -10.8060    8.7510 N   0  0  0  0  0  0  0  0  0  0  0  0
  -34.9040   -9.3670   10.6440 C   0  0  0  0  0  0  0  0  0  0  0  0
  -35.8140   -9.2280   11.7190 C   0  0  0  0  0  3  0  0  0  0  0  0
  -36.0990   -7.9520   12.2580 C   0  0  0  0  0  3  0  0  0  0  0  0
  -35.4700   -6.8010   11.7280 C   0  0  0  0  0  0  0  0  0  0  0  0
  -34.5870   -6.9390   10.6420 C   0  0  0  0  0  3  0  0  0  0  0  0
  -34.3100   -8.2060   10.1030 C   0  0  0  0  0  3  0  0  0  0  0  0
  -35.7030   -5.5220   12.1740 O   0  0  0  0  0  0  0  0  0  0  0  0
  -34.8920   -4.9290   13.1080 C   0  0  0  0  0  0  0  0  0  0  0  0
  -33.8060   -4.1080   12.7350 C   0  0  0  0  0  3  0  0  0  0  0  0
  -33.0430   -3.4580   13.7240 C   0  0  0  0  0  3  0  0  0  0  0  0
  -33.3700   -3.6180   15.0840 C   0  0  0  0  0  0  0  0  0  0  0  0
  -34.4540   -4.4300   15.4570 C   0  0  0  0  0  3  0  0  0  0  0  0
  -35.2150   -5.0810   14.4710 C   0  0  0  0  0  0  0  0  0  0  0  0
  -36.2720   -5.8460   14.8360 F   0  0  0  0  0  0  0  0  0  0  0  0
  -32.6400   -2.9870   16.0350 F   0  0  0  0  0  0  0  0  0  0  0  0
  -34.2250  -12.1810   12.1930 C   0  0  0  0  0  0  0  0  0  0  0  0
  -35.3380  -12.5620   12.7960 N   0  0  0  0  0  0  0  0  0  0  0  0
  -33.1570  -12.1030   12.8090 O   0  0  0  0  0  0  0  0  0  0  0  0
  -36.2080  -12.6470   12.2900 H   0  0  0  0  0  0  0  0  0  0  0  0
  -35.3320  -12.7760   13.7840 H   0  0  0  0  0  0  0  0  0  0  0  0
  -33.4930  -14.0990    9.7250 N   0  0  0  0  0  0  0  0  0  0  0  0
  -33.1700  -14.4010   10.6390 H   0  0  0  0  0  0  0  0  0  0  0  0
  -32.8140  -14.3150    9.0060 H   0  0  0  0  0  0  0  0  0  0  0  0
  -37.5830  -20.5600    4.6360 C   0  0  0  0  0  2  0  0  0  0  0  0
  -37.0030  -24.2440    4.7960 C   0  0  0  0  0  2  0  0  0  0  0  0
  -35.8730  -23.6300    3.9930 C   0  0  0  0  0  2  0  0  0  0  0  0
  -37.8040  -22.9770    5.0970 C   0  0  0  0  0  2  0  0  0  0  0  0
  -35.5440  -22.3360    4.7510 C   0  0  0  0  0  3  0  0  0  0  0  0
  -36.9060  -21.8050    5.3060 N   0  0  1  0  0  4  0  0  0  0  0  0
  -36.7970  -21.5840    6.2840 H   0  0  0  0  0  0  0  0  0  0  0  0
  -34.1330  -22.4900    5.5600 C   0  0  0  0  0  2  0  0  0  0  0  0
  -33.9420  -22.9350    6.9550 O   0  0  0  0  0  0  0  0  0  0  0  0
  -29.8520  -28.7650    8.8850 C   0  0  0  0  0  0  0  0  0  0  0  0
  -33.6440  -24.1870    7.5300 C   0  0  0  0  0  0  0  0  0  0  0  0
  -32.3090  -28.9860    8.9830 C   0  0  0  0  0  3  0  0  0  0  0  0
  -33.6230  -26.7870    8.7640 C   0  0  0  0  0  0  0  0  0  0  0  0
  -31.1980  -26.6880    9.2960 C   0  0  0  0  0  2  0  0  0  0  0  0
  -32.4430  -26.0350    8.6950 C   0  0  0  0  0  0  0  0  0  0  0  0
  -32.4380  -24.7370    8.0650 C   0  0  0  0  0  3  0  0  0  0  0  0
  -34.7940  -24.9790    7.6320 C   0  0  0  0  0  3  0  0  0  0  0  0
  -34.8000  -26.2610    8.2140 C   0  0  0  0  0  3  0  0  0  0  0  0
  -33.5680  -28.1720    9.3860 C   0  0  0  0  0  2  0  0  0  0  0  0
  -31.0620  -28.1470    9.0330 N   0  0  0  0  0  0  0  0  0  0  0  0
  -29.7770  -29.9960    8.7410 O   0  0  0  0  0  0  0  0  0  0  0  0
  -32.5690  -29.5990    7.5900 C   0  0  0  0  0  0  0  0  0  0  0  0
  -32.9960  -30.8730    7.5670 N   0  0  0  0  0  0  0  0  0  0  0  0
  -32.4370  -28.9060    6.5770 O   0  0  0  0  0  0  0  0  0  0  0  0
  -33.0470  -31.3850    8.4360 H   0  0  0  0  0  0  0  0  0  0  0  0
  -32.7530  -34.0150    5.7500 C   0  0  0  0  0  0  0  0  0  0  0  0
  -33.4280  -31.6020    6.3750 C   0  0  0  0  0  3  0  0  0  0  0  0
  -34.8900  -32.0890    6.5190 C   0  0  0  0  0  2  0  0  0  0  0  0
  -35.1510  -33.5940    6.6800 C   0  0  0  0  0  2  0  0  0  0  0  0
  -34.1390  -34.5620    6.0450 C   0  0  0  0  0  2  0  0  0  0  0  0
  -32.4120  -32.6490    5.9310 C   0  0  0  0  0  0  0  0  0  0  0  0
  -31.0850  -32.2420    5.6990 C   0  0  0  0  0  3  0  0  0  0  0  0
  -30.0900  -33.1750    5.3390 C   0  0  0  0  0  3  0  0  0  0  0  0
  -30.4390  -34.5320    5.1670 C   0  0  0  0  0  3  0  0  0  0  0  0
  -31.7720  -34.9470    5.3360 C   0  0  0  0  0  3  0  0  0  0  0  0
  -28.5030  -27.9740    8.9330 C   0  0  0  0  0  3  0  0  0  0  0  0
  -27.6800  -28.6090    9.9590 N   0  0  0  0  0  0  0  0  0  0  0  0
  -27.8110  -28.4010   11.2740 C   0  0  0  0  0  0  0  0  0  0  0  0
  -28.6120  -27.5890   11.7550 O   0  0  0  0  0  0  0  0  0  0  0  0
  -27.0140  -29.2960    9.6350 H   0  0  0  0  0  0  0  0  0  0  0  0
  -27.7150  -30.1440   13.0540 C   0  0  0  0  0  1  0  0  0  0  0  0
  -26.8730  -29.1900   12.2040 C   0  0  0  0  0  3  0  0  0  0  0  0
  -25.0580  -27.5490   12.3490 C   0  0  0  0  0  1  0  0  0  0  0  0
  -26.0670  -28.3150   13.0730 N   0  0  0  0  0  0  0  0  0  0  0  0
  -25.6020  -28.8610   13.7870 H   0  0  0  0  0  0  0  0  0  0  0  0
  -27.7400  -27.9580    7.5510 C   0  0  1  0  0  0  0  0  0  0  0  0
  -26.9600  -29.2650    7.2640 C   0  0  0  0  0  1  0  0  0  0  0  0
  -28.7360  -27.7230    6.3930 C   0  0  0  0  0  1  0  0  0  0  0  0
  -26.7560  -26.7710    7.4950 C   0  0  0  0  0  1  0  0  0  0  0  0
  -38.4840  -15.4920    4.7900 C   0  0  0  0  0  2  0  0  0  0  0  0
  -39.8020  -15.5430    8.3680 C   0  0  0  0  0  2  0  0  0  0  0  0
  -39.7080  -16.1510    6.9500 C   0  0  0  0  0  2  0  0  0  0  0  0
  -39.2330  -13.8900    6.6450 C   0  0  0  0  0  2  0  0  0  0  0  0
  -39.5440  -14.0320    8.1550 C   0  0  0  0  0  3  0  0  0  0  0  0
  -38.7990  -15.2390    6.2390 N   0  0  2  0  0  4  0  0  0  0  0  0
  -40.6070  -13.3180    8.4970 F   0  0  0  0  0  0  0  0  0  0  0  0
  -37.8970  -15.3680    6.6840 H   0  0  0  0  0  0  0  0  0  0  0  0
  1  2  1  0
  3  1  2  0
  4  5  2  0
  4  3  1  0
  5 95  1  0
  5  6  1  0
  6 16  1  0
  6  2  2  0
  7  4  1  0
  8 14  1  0
  8 16  1  0
  9 14  1  0
  9 10  1  0
 10 11  1  0
 11 12  1  0
 12 13  1  0
 12 21  1  0
 14 13  1  0
 15  8  2  0
 16 17  1  0
 18 43  1  0
 18 19  2  0
 19 38  1  0
 20 23  1  0
 20 19  1  0
 21 22  1  0
 21 18  1  0
 22 20  2  0
 23 24  1  0
 24 25  2  0
 26 29  1  0
 26 25  1  0
 27 26  2  0
 28 27  1  0
 28 23  2  0
 29 30  1  0
 30 35  1  0
 31 30  2  0
 31 32  1  0
 32 33  2  0
 33 34  1  0
 33 37  1  0
 35 36  1  0
 35 34  2  0
 38 39  1  0
 38 40  2  0
 39 42  1  0
 41 39  1  0
 43 44  1  0
 45 43  1  0
 46  3  1  0
 46 51  1  0
 47 49  1  0
 48 50  1  0
 48 47  1  0
 49 51  1  0
 50 51  1  0
 50 53  1  0
 51 52  1  1
 53 54  1  0
 54 56  1  0
 55 65  1  0
 56 62  2  0
 56 61  1  0
 57 67  1  0
 57 65  1  0
 57 64  1  0
 58 64  1  0
 60 58  1  0
 60 59  1  0
 61 60  2  0
 62 63  1  0
 63 58  2  0
 65 59  1  0
 66 55  2  0
 68 67  1  0
 68 70  1  0
 69 67  2  0
 71 76  1  0
 71 75  1  0
 72 73  1  0
 72 68  1  0
 73 74  1  0
 75 74  1  0
 76 72  1  0
 77 76  2  0
 78 77  1  0
 79 80  1  0
 79 78  2  0
 80 71  2  0
 81 55  1  0
 81 82  1  0
 82 83  1  0
 83 84  2  0
 83 87  1  0
 85 82  1  0
 87 86  1  0
 87 89  1  0
 88 89  1  0
 89 90  1  0
 91 81  1  0
 91 92  1  6
 93 91  1  0
 94 91  1  0
 95100  1  0
 97 96  1  0
 98 99  1  0
 99 96  1  0
 99101  1  0
100 98  1  0
100102  1  1
100 97  1  0
M  ISO  4   8 100  16 100  53 101  54 101
M  END
>  <TORSDO>  (85) 
F 21

>  <SCORE>  (85) 
-4.159

>  <name>  (85) 
85

>  <ligand_id>  (85) 
85

>  <original_smiles>  (85) 
[H]c1c([H])c([H])c2c(c1[H])C([H])([H])C([H])([H])C([H])([H])C2([H])N([H])C(=O)C1([H])N(C(=O)C([H])(N([H])C(=O)C([H])(N([H])C([H])([H])[H])C([H])([H])[H])C(C([H])([H])[H])(C([H])([H])[H])C([H])([H])[H])C([H])([H])c2c([H])c(OC([H])([H])C3([H])C([H])([H])C([H])([H])C([H])([H])[N+]3([H])C([H])([H])c3c([H])c([H])c(N([H])C(=O)N4C([H])([H])C([H])([H])C([H])([H])C([H])(n5nc(-c6c([H])c([H])c(Oc7c([H])c([H])c(F)c([H])c7F)c([H])c6[H])c(C(=O)N([H])[H])c5N([H])[H])C4([H])[H])c(C([H])([H])[N+]4([H])C([H])([H])C([H])([H])C([H])(F)C4([H])[H])c3C([H])([H])[H])c([H])c([H])c2C1([H])[H]

>  <smiles>  (85) 
[H]c1c([H])c([H])c2c(c1[H])C([H])([H])C([H])([H])C([H])([H])C2([H])N([H])C(=O)C1([H])N(C(=O)C([H])(N([H])C(=O)C([H])(N([H])C([H])([H])[H])C([H])([H])[H])C(C([H])([H])[H])(C([H])([H])[H])C([H])([H])[H])C([H])([H])c2c([H])c(OC([H])([H])C3([H])C([H])([H])C([H])([H])C([H])([H])[N+]3([H])C([H])([H])c3c([H])c([H])c(N([H])C(=O)N4C([H])([H])C([H])([H])C([H])([H])C([H])(n5nc(-c6c([H])c([H])c(Oc7c([H])c([H])c(F)c([H])c7F)c([H])c6[H])c(C(=O)N([H])[H])c5N([H])[H])C4([H])[H])c(C([H])([H])[N+]4([H])C([H])([H])C([H])([H])C([H])(F)C4([H])[H])c3C([H])([H])[H])c([H])c([H])c2C1([H])[H]

$$$$
86:0:0
     RDKit          3D

 98108  0  0  1  0  0  0  0  0999 V2000
  -30.3260  -20.1320   18.4730 C   0  0  0  0  0  3  0  0  0  0  0  0
  -29.8820  -20.0650   19.8090 C   0  0  0  0  0  0  0  0  0  0  0  0
  -29.8610  -18.7070   20.3910 C   0  0  0  0  0  0  0  0  0  0  0  0
  -30.6880  -18.9860   17.7150 C   0  0  0  0  0  0  0  0  0  0  0  0
  -30.2460  -17.4850   19.6610 C   0  0  0  0  0  0  0  0  0  0  0  0
  -30.6140  -17.6860   18.3040 C   0  0  0  0  0  0  0  0  0  0  0  0
  -29.4270  -18.5600   21.8410 C   0  0  0  0  0  1  0  0  0  0  0  0
  -30.8300  -16.5950   17.5280 F   0  0  0  0  0  0  0  0  0  0  0  0
  -30.9180  -14.9120   19.8660 C   0  0  0  0  0  0  0  0  0  0  0  0
  -30.6680  -12.6120   18.8950 C   0  0  0  0  0  2  0  0  0  0  0  0
  -29.6460  -12.6800   17.7370 C   0  0  0  0  0  2  0  0  0  0  0  0
  -28.2110  -12.5020   18.2690 C   0  0  0  0  0  2  0  0  0  0  0  0
  -27.9250  -13.3810   19.5150 C   0  0  0  0  0  3  0  0  0  0  0  0
  -29.0610  -13.2980   20.5580 C   0  0  0  0  0  2  0  0  0  0  0  0
  -30.3050  -13.6700   19.8730 N   0  0  0  0  0  0  0  0  0  0  0  0
  -32.0860  -14.9870   19.4710 O   0  0  0  0  0  0  0  0  0  0  0  0
  -30.1700  -16.0620   20.1750 N   0  0  0  0  0  0  0  0  0  0  0  0
  -29.3300  -15.8590   20.6930 H   0  0  0  0  0  0  0  0  0  0  0  0
  -25.6190  -13.9740   20.4640 C   0  0  0  0  0  0  0  0  0  0  0  0
  -24.5720  -13.2030   20.8850 C   0  0  0  0  0  0  0  0  0  0  0  0
  -25.0010  -11.8460   20.7570 C   0  0  0  0  0  0  0  0  0  0  0  0
  -26.6210  -13.0890   20.1020 N   0  0  0  0  0  0  0  0  0  0  0  0
  -26.2620  -11.8000   20.3420 N   0  0  0  0  0  0  0  0  0  0  0  0
  -24.2650  -10.5910   20.9500 C   0  0  0  0  0  0  0  0  0  0  0  0
  -24.6960   -9.6150   21.8760 C   0  0  0  0  0  3  0  0  0  0  0  0
  -23.9580   -8.4250   22.0570 C   0  0  0  0  0  3  0  0  0  0  0  0
  -22.7760   -8.2010   21.3120 C   0  0  0  0  0  0  0  0  0  0  0  0
  -22.3640   -9.1660   20.3750 C   0  0  0  0  0  3  0  0  0  0  0  0
  -23.1020  -10.3470   20.1920 C   0  0  0  0  0  3  0  0  0  0  0  0
  -22.0110   -7.0640   21.4020 O   0  0  0  0  0  0  0  0  0  0  0  0
  -21.8900   -6.3680   22.5780 C   0  0  0  0  0  0  0  0  0  0  0  0
  -21.3140   -6.9460   23.7300 C   0  0  0  0  0  3  0  0  0  0  0  0
  -21.1480   -6.1730   24.8980 C   0  0  0  0  0  3  0  0  0  0  0  0
  -21.5470   -4.8230   24.9120 C   0  0  0  0  0  0  0  0  0  0  0  0
  -22.1160   -4.2450   23.7630 C   0  0  0  0  0  3  0  0  0  0  0  0
  -22.2840   -5.0150   22.5990 C   0  0  0  0  0  0  0  0  0  0  0  0
  -22.8130   -4.4460   21.4880 F   0  0  0  0  0  0  0  0  0  0  0  0
  -21.3810   -4.0790   26.0290 F   0  0  0  0  0  0  0  0  0  0  0  0
  -23.2110  -13.6920   21.2890 C   0  0  0  0  0  0  0  0  0  0  0  0
  -22.5400  -12.9750   22.1810 N   0  0  0  0  0  0  0  0  0  0  0  0
  -22.7550  -14.7470   20.8480 O   0  0  0  0  0  0  0  0  0  0  0  0
  -22.9220  -12.1190   22.5590 H   0  0  0  0  0  0  0  0  0  0  0  0
  -21.6310  -13.2830   22.4940 H   0  0  0  0  0  0  0  0  0  0  0  0
  -25.7960  -15.3490   20.3330 N   0  0  0  0  0  0  0  0  0  0  0  0
  -25.0420  -16.0020   20.5220 H   0  0  0  0  0  0  0  0  0  0  0  0
  -26.6040  -15.7880   19.9130 H   0  0  0  0  0  0  0  0  0  0  0  0
  -31.7110  -20.1920   14.3250 C   0  0  0  0  0  2  0  0  0  0  0  0
  -32.6250  -18.9880   14.5400 C   0  0  0  0  0  2  0  0  0  0  0  0
  -31.1600  -20.4660   15.7210 C   0  0  0  0  0  2  0  0  0  0  0  0
  -31.9510  -18.2030   15.6690 C   0  0  0  0  0  2  0  0  0  0  0  0
  -31.0910  -19.1590   16.3630 N   0  0  0  0  0  0  0  0  0  0  0  0
  -29.5210  -21.4670   20.5670 C   0  0  0  0  0  2  0  0  0  0  0  0
  -28.0300  -23.6760   20.5630 C   0  0  0  0  0  2  0  0  0  0  0  0
  -29.8450  -24.0360   19.8110 C   0  0  0  0  0  2  0  0  0  0  0  0
  -28.5480  -24.9370   19.7780 C   0  0  0  0  0  3  0  0  0  0  0  0
  -29.0230  -22.7780   19.8660 N   0  0  1  0  0  4  0  0  0  0  0  0
  -28.6570  -22.5570   18.9530 H   0  0  0  0  0  0  0  0  0  0  0  0
  -28.5570  -26.3650   20.3230 O   0  0  0  0  0  0  0  0  0  0  0  0
  -24.7000  -31.8360   23.2420 C   0  0  0  0  0  0  0  0  0  0  0  0
  -27.4470  -27.2550   20.2300 C   0  0  0  0  0  0  0  0  0  0  0  0
  -23.5640  -30.4310   21.5630 C   0  0  0  0  0  3  0  0  0  0  0  0
  -25.0740  -28.9030   20.1610 C   0  0  0  0  0  0  0  0  0  0  0  0
  -26.1100  -30.7630   21.4570 C   0  0  0  0  0  2  0  0  0  0  0  0
  -26.2240  -29.3830   20.7990 C   0  0  0  0  0  0  0  0  0  0  0  0
  -27.4100  -28.5730   20.8200 C   0  0  0  0  0  3  0  0  0  0  0  0
  -26.2690  -26.8520   19.5650 C   0  0  0  0  0  3  0  0  0  0  0  0
  -25.1050  -27.6480   19.5330 C   0  0  0  0  0  3  0  0  0  0  0  0
  -23.8260  -29.7670   20.1850 C   0  0  0  0  0  2  0  0  0  0  0  0
  -24.8100  -31.0310   22.1420 N   0  0  0  0  0  0  0  0  0  0  0  0
  -23.5970  -32.0940   23.7470 O   0  0  0  0  0  0  0  0  0  0  0  0
  -22.8860  -29.4020   22.5000 C   0  0  0  0  0  0  0  0  0  0  0  0
  -21.5680  -29.1960   22.3280 N   0  0  0  0  0  0  0  0  0  0  0  0
  -23.5480  -28.7920   23.3440 O   0  0  0  0  0  0  0  0  0  0  0  0
  -21.0920  -29.7390   21.6220 H   0  0  0  0  0  0  0  0  0  0  0  0
  -18.1960  -27.9410   22.7380 C   0  0  0  0  0  0  0  0  0  0  0  0
  -20.7440  -28.2380   23.0700 C   0  0  0  0  0  3  0  0  0  0  0  0
  -20.8820  -26.8150   22.4840 C   0  0  0  0  0  2  0  0  0  0  0  0
  -19.8090  -26.4860   21.4400 C   0  0  0  0  0  2  0  0  0  0  0  0
  -18.4100  -26.6030   22.0510 C   0  0  0  0  0  2  0  0  0  0  0  0
  -19.2920  -28.7170   23.2020 C   0  0  0  0  0  0  0  0  0  0  0  0
  -19.0390  -29.9690   23.8010 C   0  0  0  0  0  3  0  0  0  0  0  0
  -17.7220  -30.4470   23.9420 C   0  0  0  0  0  3  0  0  0  0  0  0
  -16.6410  -29.6700   23.4930 C   0  0  0  0  0  3  0  0  0  0  0  0
  -16.8780  -28.4170   22.8980 C   0  0  0  0  0  3  0  0  0  0  0  0
  -25.9530  -32.4870   23.9040 C   0  0  0  0  0  3  0  0  0  0  0  0
  -26.4250  -31.7340   25.2090 C   0  0  1  0  0  0  0  0  0  0  0  0
  -25.2900  -31.4920   26.2320 C   0  0  0  0  0  1  0  0  0  0  0  0
  -27.0440  -30.3610   24.8580 C   0  0  0  0  0  1  0  0  0  0  0  0
  -27.5350  -32.5510   25.9120 C   0  0  0  0  0  1  0  0  0  0  0  0
  -25.6200  -33.8860   24.2110 N   0  0  0  0  0  0  0  0  0  0  0  0
  -25.9470  -34.9330   23.4420 C   0  0  0  0  0  0  0  0  0  0  0  0
  -26.6270  -34.8240   22.4190 O   0  0  0  0  0  0  0  0  0  0  0  0
  -25.0150  -34.0440   25.0030 H   0  0  0  0  0  0  0  0  0  0  0  0
  -24.1950  -36.6980   23.0580 C   0  0  0  0  0  1  0  0  0  0  0  0
  -25.4400  -36.3230   23.8770 C   0  0  0  0  0  3  0  0  0  0  0  0
  -27.5480  -37.2640   24.7140 C   0  0  0  0  0  1  0  0  0  0  0  0
  -26.4570  -37.3890   23.7500 N   0  0  0  0  0  0  0  0  0  0  0  0
  -26.0330  -38.3060   23.8680 H   0  0  0  0  0  0  0  0  0  0  0  0
  1  2  1  0
  2  3  2  0
  2 52  1  0
  3  7  1  0
  4  6  1  0
  4  1  2  0
  5 17  1  0
  5  3  1  0
  6  5  2  0
  8  6  1  0
  9 15  1  0
  9 17  1  0
 10 15  1  0
 11 12  1  0
 11 10  1  0
 13 12  1  0
 13 22  1  0
 13 14  1  0
 15 14  1  0
 16  9  2  0
 17 18  1  0
 19 20  2  0
 20 39  1  0
 21 20  1  0
 21 24  1  0
 22 23  1  0
 22 19  1  0
 23 21  2  0
 24 25  1  0
 25 26  2  0
 27 30  1  0
 27 26  1  0
 28 27  2  0
 29 28  1  0
 29 24  2  0
 30 31  1  0
 31 36  2  0
 31 32  1  0
 32 33  2  0
 33 34  1  0
 34 38  1  0
 35 34  2  0
 36 35  1  0
 37 36  1  0
 39 40  1  0
 40 43  1  0
 40 42  1  0
 41 39  2  0
 44 19  1  0
 44 45  1  0
 46 44  1  0
 47 48  1  0
 47 49  1  0
 48 50  1  0
 49 51  1  0
 50 51  1  0
 51  4  1  0
 54 56  1  0
 55 54  1  0
 55 58  1  0
 55 53  1  0
 56 53  1  0
 56 52  1  0
 56 57  1  6
 59 70  2  0
 60 58  1  0
 60 65  1  0
 61 69  1  0
 61 71  1  0
 62 68  1  0
 62 64  1  0
 63 69  1  0
 64 65  2  0
 64 63  1  0
 66 60  2  0
 67 66  1  0
 67 62  2  0
 68 61  1  0
 69 59  1  0
 71 73  2  0
 72 71  1  0
 74 72  1  0
 75 84  2  0
 75 80  1  0
 76 72  1  0
 76 80  1  0
 77 76  1  0
 78 79  1  0
 78 77  1  0
 79 75  1  0
 80 81  2  0
 81 82  1  0
 83 82  2  0
 84 83  1  0
 85 59  1  0
 85 90  1  0
 85 86  1  0
 86 89  1  1
 86 87  1  0
 88 86  1  0
 90 93  1  0
 91 95  1  0
 91 90  1  0
 92 91  2  0
 95 94  1  0
 97 98  1  0
 97 95  1  0
 97 96  1  0
M  ISO  4   9 100  17 100  55 101  58 101
M  END
>  <TORSDO>  (86) 
F 19

>  <SCORE>  (86) 
-13.009

>  <name>  (86) 
86

>  <ligand_id>  (86) 
86

>  <original_smiles>  (86) 
[H]c1c([H])c([H])c2c(c1[H])C([H])([H])C([H])([H])C([H])([H])C2([H])N([H])C(=O)C1([H])N(C(=O)C([H])(N([H])C(=O)C([H])(N([H])C([H])([H])[H])C([H])([H])[H])C(C([H])([H])[H])(C([H])([H])[H])C([H])([H])[H])C([H])([H])c2c([H])c(OC3([H])C([H])([H])[N+]([H])(C([H])([H])c4c([H])c(N5C([H])([H])C([H])([H])C([H])([H])C5([H])[H])c(F)c(N([H])C(=O)N5C([H])([H])C([H])([H])C([H])([H])C([H])(n6nc(-c7c([H])c([H])c(Oc8c([H])c([H])c(F)c([H])c8F)c([H])c7[H])c(C(=O)N([H])[H])c6N([H])[H])C5([H])[H])c4C([H])([H])[H])C3([H])[H])c([H])c([H])c2C1([H])[H]

>  <smiles>  (86) 
[H]c1c([H])c([H])c2c(c1[H])C([H])([H])C([H])([H])C([H])([H])C2([H])N([H])C(=O)C1([H])N(C(=O)C([H])(N([H])C(=O)C([H])(N([H])C([H])([H])[H])C([H])([H])[H])C(C([H])([H])[H])(C([H])([H])[H])C([H])([H])[H])C([H])([H])c2c([H])c(OC3([H])C([H])([H])[N+]([H])(C([H])([H])c4c([H])c(N5C([H])([H])C([H])([H])C([H])([H])C5([H])[H])c(F)c(N([H])C(=O)N5C([H])([H])C([H])([H])C([H])([H])C([H])(n6nc(-c7c([H])c([H])c(Oc8c([H])c([H])c(F)c([H])c8F)c([H])c7[H])c(C(=O)N([H])[H])c6N([H])[H])C5([H])[H])c4C([H])([H])[H])C3([H])[H])c([H])c([H])c2C1([H])[H]

$$$$
87:0:0
     RDKit          3D

 93102  0  0  1  0  0  0  0  0999 V2000
  -30.5330  -23.8020   20.4710 C   0  0  0  0  0  2  0  0  0  0  0  0
  -31.0090  -22.3520   20.2190 C   0  0  0  0  0  2  0  0  0  0  0  0
  -28.6250  -22.4140   20.1440 C   0  0  0  0  0  2  0  0  0  0  0  0
  -29.1260  -23.8860   19.8600 C   0  0  0  0  0  3  0  0  0  0  0  0
  -29.8090  -21.5200   20.1910 N   0  0  0  0  0  0  0  0  0  0  0  0
  -31.0980  -19.3680   20.2490 C   0  0  0  0  0  3  0  0  0  0  0  0
  -31.1900  -17.9440   20.3290 C   0  0  0  0  0  3  0  0  0  0  0  0
  -29.8580  -20.0770   20.2900 C   0  0  0  0  0  0  0  0  0  0  0  0
  -30.0320  -17.1370   20.4760 C   0  0  0  0  0  0  0  0  0  0  0  0
  -28.7040  -19.2580   20.4480 C   0  0  0  0  0  0  0  0  0  0  0  0
  -28.7970  -17.8360   20.5470 C   0  0  0  0  0  0  0  0  0  0  0  0
  -27.4740  -19.8260   20.5210 F   0  0  0  0  0  0  0  0  0  0  0  0
  -27.6600  -17.1160   20.7090 F   0  0  0  0  0  0  0  0  0  0  0  0
  -30.7670  -14.6720   20.0410 C   0  0  0  0  0  0  0  0  0  0  0  0
  -30.4900  -12.4760   18.9040 C   0  0  0  0  0  2  0  0  0  0  0  0
  -29.4560  -12.6500   17.7680 C   0  0  0  0  0  2  0  0  0  0  0  0
  -28.0160  -12.4750   18.2970 C   0  0  0  0  0  2  0  0  0  0  0  0
  -27.7530  -13.2860   19.5940 C   0  0  0  0  0  3  0  0  0  0  0  0
  -28.8900  -13.0780   20.6210 C   0  0  0  0  0  2  0  0  0  0  0  0
  -30.1570  -13.4460   19.9670 N   0  0  0  0  0  0  0  0  0  0  0  0
  -31.8780  -14.8670   19.5400 O   0  0  0  0  0  0  0  0  0  0  0  0
  -30.0020  -15.6770   20.5730 N   0  0  0  0  0  0  0  0  0  0  0  0
  -29.1490  -15.3250   20.9800 H   0  0  0  0  0  0  0  0  0  0  0  0
  -25.4270  -13.8660   20.5230 C   0  0  0  0  0  0  0  0  0  0  0  0
  -24.3810  -13.0840   20.9290 C   0  0  0  0  0  0  0  0  0  0  0  0
  -24.8200  -11.7320   20.7870 C   0  0  0  0  0  0  0  0  0  0  0  0
  -26.4400  -12.9910   20.1610 N   0  0  0  0  0  0  0  0  0  0  0  0
  -26.0820  -11.6980   20.3780 N   0  0  0  0  0  0  0  0  0  0  0  0
  -24.0940  -10.4680   20.9650 C   0  0  0  0  0  0  0  0  0  0  0  0
  -24.5350   -9.4850   21.8790 C   0  0  0  0  0  3  0  0  0  0  0  0
  -23.8090   -8.2850   22.0440 C   0  0  0  0  0  3  0  0  0  0  0  0
  -22.6310   -8.0580   21.2950 C   0  0  0  0  0  0  0  0  0  0  0  0
  -22.2090   -9.0310   20.3710 C   0  0  0  0  0  3  0  0  0  0  0  0
  -22.9340  -10.2230   20.2030 C   0  0  0  0  0  3  0  0  0  0  0  0
  -21.8750   -6.9130   21.3710 O   0  0  0  0  0  0  0  0  0  0  0  0
  -21.7700   -6.1980   22.5370 C   0  0  0  0  0  0  0  0  0  0  0  0
  -21.2720   -6.7760   23.7240 C   0  0  0  0  0  3  0  0  0  0  0  0
  -21.1160   -5.9860   24.8810 C   0  0  0  0  0  3  0  0  0  0  0  0
  -21.4450   -4.6180   24.8490 C   0  0  0  0  0  0  0  0  0  0  0  0
  -21.9360   -4.0390   23.6660 C   0  0  0  0  0  3  0  0  0  0  0  0
  -22.0960   -4.8270   22.5130 C   0  0  0  0  0  0  0  0  0  0  0  0
  -22.5490   -4.2590   21.3680 F   0  0  0  0  0  0  0  0  0  0  0  0
  -21.2880   -3.8560   25.9570 F   0  0  0  0  0  0  0  0  0  0  0  0
  -23.0160  -13.5590   21.3380 C   0  0  0  0  0  0  0  0  0  0  0  0
  -22.3550  -12.8280   22.2300 N   0  0  0  0  0  0  0  0  0  0  0  0
  -22.5480  -14.6110   20.9060 O   0  0  0  0  0  0  0  0  0  0  0  0
  -22.7480  -11.9770   22.6030 H   0  0  0  0  0  0  0  0  0  0  0  0
  -21.4440  -13.1280   22.5480 H   0  0  0  0  0  0  0  0  0  0  0  0
  -25.5970  -15.2430   20.4150 N   0  0  0  0  0  0  0  0  0  0  0  0
  -24.8620  -15.8980   20.6540 H   0  0  0  0  0  0  0  0  0  0  0  0
  -26.4510  -15.7000   20.1280 H   0  0  0  0  0  0  0  0  0  0  0  0
  -28.2110  -25.0900   20.3640 C   0  0  0  0  0  2  0  0  0  0  0  0
  -28.4320  -26.4800   19.8920 O   0  0  0  0  0  0  0  0  0  0  0  0
  -24.7000  -31.7880   23.0590 C   0  0  0  0  0  0  0  0  0  0  0  0
  -27.3190  -27.3310   19.8820 C   0  0  0  0  0  0  0  0  0  0  0  0
  -23.4950  -30.4380   21.3780 C   0  0  0  0  0  3  0  0  0  0  0  0
  -24.9500  -28.9290   19.9080 C   0  0  0  0  0  0  0  0  0  0  0  0
  -26.0330  -30.7650   21.2060 C   0  0  0  0  0  2  0  0  0  0  0  0
  -26.1170  -29.4040   20.5230 C   0  0  0  0  0  0  0  0  0  0  0  0
  -27.3050  -28.6170   20.5020 C   0  0  0  0  0  3  0  0  0  0  0  0
  -26.1360  -26.9140   19.2310 C   0  0  0  0  0  3  0  0  0  0  0  0
  -24.9620  -27.6890   19.2520 C   0  0  0  0  0  3  0  0  0  0  0  0
  -23.7110  -29.7980   19.9800 C   0  0  0  0  0  2  0  0  0  0  0  0
  -24.7610  -31.0130   21.9370 N   0  0  0  0  0  0  0  0  0  0  0  0
  -23.6170  -32.0520   23.6020 O   0  0  0  0  0  0  0  0  0  0  0  0
  -22.8340  -29.3940   22.3090 C   0  0  0  0  0  0  0  0  0  0  0  0
  -21.5030  -29.2450   22.2020 N   0  0  0  0  0  0  0  0  0  0  0  0
  -23.5170  -28.7200   23.0860 O   0  0  0  0  0  0  0  0  0  0  0  0
  -21.0140  -29.8350   21.5420 H   0  0  0  0  0  0  0  0  0  0  0  0
  -18.1040  -28.1490   22.7850 C   0  0  0  0  0  0  0  0  0  0  0  0
  -20.6810  -28.2930   22.9500 C   0  0  0  0  0  3  0  0  0  0  0  0
  -20.6980  -26.8980   22.2820 C   0  0  0  0  0  2  0  0  0  0  0  0
  -19.5390  -26.6830   21.3020 C   0  0  0  0  0  2  0  0  0  0  0  0
  -18.1940  -26.8390   22.0170 C   0  0  0  0  0  2  0  0  0  0  0  0
  -19.2720  -28.8390   23.2080 C   0  0  0  0  0  0  0  0  0  0  0  0
  -19.1320  -30.0680   23.8870 C   0  0  0  0  0  3  0  0  0  0  0  0
  -17.8580  -30.6100   24.1430 C   0  0  0  0  0  3  0  0  0  0  0  0
  -16.7060  -29.9170   23.7350 C   0  0  0  0  0  3  0  0  0  0  0  0
  -16.8290  -28.6880   23.0640 C   0  0  0  0  0  3  0  0  0  0  0  0
  -25.9830  -32.4020   23.6980 C   0  0  0  0  0  3  0  0  0  0  0  0
  -25.6720  -33.7880   24.0740 N   0  0  0  0  0  0  0  0  0  0  0  0
  -26.0050  -34.8670   23.3500 C   0  0  0  0  0  0  0  0  0  0  0  0
  -26.6820  -34.7980   22.3200 O   0  0  0  0  0  0  0  0  0  0  0  0
  -25.0740  -33.9150   24.8770 H   0  0  0  0  0  0  0  0  0  0  0  0
  -24.2880  -36.6770   23.0350 C   0  0  0  0  0  1  0  0  0  0  0  0
  -25.5150  -36.2390   23.8500 C   0  0  0  0  0  3  0  0  0  0  0  0
  -27.6370  -37.0890   24.7500 C   0  0  0  0  0  1  0  0  0  0  0  0
  -26.5530  -37.2920   23.7920 N   0  0  0  0  0  0  0  0  0  0  0  0
  -26.1460  -38.2080   23.9600 H   0  0  0  0  0  0  0  0  0  0  0  0
  -26.5030  -31.5900   24.9490 C   0  0  1  0  0  0  0  0  0  0  0  0
  -25.4080  -31.3130   26.0070 C   0  0  0  0  0  1  0  0  0  0  0  0
  -27.0900  -30.2270   24.5150 C   0  0  0  0  0  1  0  0  0  0  0  0
  -27.6520  -32.3660   25.6340 C   0  0  0  0  0  1  0  0  0  0  0  0
  2  1  1  0
  3  5  1  0
  4  3  1  0
  4 52  1  0
  4  1  1  0
  5  2  1  0
  5  8  1  0
  6  8  2  0
  6  7  1  0
  7  9  2  0
  8 10  1  0
  9 11  1  0
  9 22  1  0
 10 12  1  0
 10 11  2  0
 11 13  1  0
 14 22  1  0
 15 20  1  0
 16 17  1  0
 16 15  1  0
 18 17  1  0
 18 27  1  0
 18 19  1  0
 20 14  1  0
 20 19  1  0
 21 14  2  0
 22 23  1  0
 24 25  2  0
 25 44  1  0
 26 25  1  0
 26 29  1  0
 27 28  1  0
 27 24  1  0
 28 26  2  0
 29 30  1  0
 30 31  2  0
 32 35  1  0
 32 31  1  0
 33 32  2  0
 34 33  1  0
 34 29  2  0
 35 36  1  0
 36 37  1  0
 37 38  2  0
 39 38  1  0
 39 43  1  0
 40 39  2  0
 41 36  2  0
 41 40  1  0
 42 41  1  0
 44 45  1  0
 45 48  1  0
 45 47  1  0
 46 44  2  0
 49 24  1  0
 49 50  1  0
 51 49  1  0
 53 52  1  0
 54 65  2  0
 55 53  1  0
 55 60  1  0
 56 64  1  0
 56 66  1  0
 57 63  1  0
 57 59  1  0
 58 64  1  0
 59 58  1  0
 60 59  2  0
 61 62  1  0
 61 55  2  0
 62 57  2  0
 63 56  1  0
 64 54  1  0
 66 68  2  0
 67 66  1  0
 69 67  1  0
 70 79  2  0
 70 75  1  0
 71 67  1  0
 71 75  1  0
 72 71  1  0
 73 74  1  0
 73 72  1  0
 74 70  1  0
 75 76  2  0
 76 77  1  0
 78 77  2  0
 79 78  1  0
 80 54  1  0
 80 81  1  0
 80 90  1  0
 81 84  1  0
 82 86  1  0
 82 81  1  0
 83 82  2  0
 86 85  1  0
 88 86  1  0
 88 89  1  0
 88 87  1  0
 90 93  1  1
 90 91  1  0
 92 90  1  0
M  ISO  4  14 100  22 100  52 101  53 101
M  END
>  <TORSDO>  (87) 
F 18

>  <SCORE>  (87) 
-14.294

>  <name>  (87) 
87

>  <ligand_id>  (87) 
87

>  <original_smiles>  (87) 
[H]c1c([H])c([H])c2c(c1[H])C([H])([H])C([H])([H])C([H])([H])C2([H])N([H])C(=O)C1([H])N(C(=O)C([H])(N([H])C(=O)C([H])(N([H])C([H])([H])[H])C([H])([H])[H])C(C([H])([H])[H])(C([H])([H])[H])C([H])([H])[H])C([H])([H])c2c([H])c(OC([H])([H])C3([H])C([H])([H])N(c4c([H])c([H])c(N([H])C(=O)N5C([H])([H])C([H])([H])C([H])([H])C([H])(n6nc(-c7c([H])c([H])c(Oc8c([H])c([H])c(F)c([H])c8F)c([H])c7[H])c(C(=O)N([H])[H])c6N([H])[H])C5([H])[H])c(F)c4F)C([H])([H])C3([H])[H])c([H])c([H])c2C1([H])[H]

>  <smiles>  (87) 
[H]c1c([H])c([H])c2c(c1[H])C([H])([H])C([H])([H])C([H])([H])C2([H])N([H])C(=O)C1([H])N(C(=O)C([H])(N([H])C(=O)C([H])(N([H])C([H])([H])[H])C([H])([H])[H])C(C([H])([H])[H])(C([H])([H])[H])C([H])([H])[H])C([H])([H])c2c([H])c(OC([H])([H])C3([H])C([H])([H])N(c4c([H])c([H])c(N([H])C(=O)N5C([H])([H])C([H])([H])C([H])([H])C([H])(n6nc(-c7c([H])c([H])c(Oc8c([H])c([H])c(F)c([H])c8F)c([H])c7[H])c(C(=O)N([H])[H])c6N([H])[H])C5([H])[H])c(F)c4F)C([H])([H])C3([H])[H])c([H])c([H])c2C1([H])[H]

$$$$
88:0:0
     RDKit          3D

 94103  0  0  1  0  0  0  0  0999 V2000
  -29.5380  -20.2480   21.5180 C   0  0  0  0  0  3  0  0  0  0  0  0
  -29.8290  -18.8150   21.5670 C   0  0  0  0  0  3  0  0  0  0  0  0
  -28.8830  -20.0600   19.3080 C   0  0  0  0  0  0  0  0  0  0  0  0
  -29.1630  -18.5930   19.3250 C   0  0  0  0  0  0  0  0  0  0  0  0
  -29.0210  -21.0090   20.4060 C   0  0  0  0  0  0  0  0  0  0  0  0
  -29.6690  -17.8740   20.4890 C   0  0  0  0  0  0  0  0  0  0  0  0
  -28.3270  -20.7080   18.0420 C   0  0  0  0  0  1  0  0  0  0  0  0
  -30.5790  -15.2070   20.4310 C   0  0  0  0  0  0  0  0  0  0  0  0
  -30.5630  -12.8290   19.5030 C   0  0  0  0  0  2  0  0  0  0  0  0
  -29.6440  -12.7690   18.2590 C   0  0  0  0  0  2  0  0  0  0  0  0
  -28.1790  -12.5240   18.6690 C   0  0  0  0  0  2  0  0  0  0  0  0
  -27.7430  -13.4270   19.8520 C   0  0  0  0  0  3  0  0  0  0  0  0
  -28.7870  -13.4480   20.9900 C   0  0  0  0  0  2  0  0  0  0  0  0
  -30.0520  -13.9090   20.4030 N   0  0  0  0  0  0  0  0  0  0  0  0
  -31.7650  -15.3280   20.1050 O   0  0  0  0  0  0  0  0  0  0  0  0
  -29.7250  -16.3280   20.7090 N   0  0  0  0  0  0  0  0  0  0  0  0
  -28.8390  -15.9800   21.0430 H   0  0  0  0  0  0  0  0  0  0  0  0
  -25.3490  -13.9610   20.5780 C   0  0  0  0  0  0  0  0  0  0  0  0
  -24.2920  -13.1690   20.9310 C   0  0  0  0  0  0  0  0  0  0  0  0
  -24.7740  -11.8250   20.8850 C   0  0  0  0  0  0  0  0  0  0  0  0
  -26.4060  -13.1020   20.3340 N   0  0  0  0  0  0  0  0  0  0  0  0
  -26.0680  -11.8090   20.5820 N   0  0  0  0  0  0  0  0  0  0  0  0
  -24.0610  -10.5510   21.0540 C   0  0  0  0  0  0  0  0  0  0  0  0
  -24.4660   -9.5970   22.0130 C   0  0  0  0  0  3  0  0  0  0  0  0
  -23.7490   -8.3910   22.1710 C   0  0  0  0  0  3  0  0  0  0  0  0
  -22.6120   -8.1300   21.3700 C   0  0  0  0  0  0  0  0  0  0  0  0
  -22.2260   -9.0730   20.4010 C   0  0  0  0  0  3  0  0  0  0  0  0
  -22.9430  -10.2710   20.2420 C   0  0  0  0  0  3  0  0  0  0  0  0
  -21.8730   -6.9730   21.4330 O   0  0  0  0  0  0  0  0  0  0  0  0
  -21.7340   -6.2710   22.6030 C   0  0  0  0  0  0  0  0  0  0  0  0
  -21.1470   -6.8460   23.7520 C   0  0  0  0  0  3  0  0  0  0  0  0
  -20.9590   -6.0690   24.9120 C   0  0  0  0  0  3  0  0  0  0  0  0
  -21.3500   -4.7160   24.9240 C   0  0  0  0  0  0  0  0  0  0  0  0
  -21.9320   -4.1410   23.7810 C   0  0  0  0  0  3  0  0  0  0  0  0
  -22.1210   -4.9150   22.6240 C   0  0  0  0  0  0  0  0  0  0  0  0
  -22.6610   -4.3510   21.5170 F   0  0  0  0  0  0  0  0  0  0  0  0
  -21.1630   -3.9660   26.0360 F   0  0  0  0  0  0  0  0  0  0  0  0
  -22.8880  -13.6280   21.1980 C   0  0  0  0  0  0  0  0  0  0  0  0
  -22.1630  -12.9160   22.0520 N   0  0  0  0  0  0  0  0  0  0  0  0
  -22.4430  -14.6550   20.6860 O   0  0  0  0  0  0  0  0  0  0  0  0
  -22.5340  -12.0860   22.4880 H   0  0  0  0  0  0  0  0  0  0  0  0
  -21.2210  -13.2060   22.2740 H   0  0  0  0  0  0  0  0  0  0  0  0
  -25.4920  -15.3360   20.4210 N   0  0  0  0  0  0  0  0  0  0  0  0
  -24.6970  -15.9600   20.5090 H   0  0  0  0  0  0  0  0  0  0  0  0
  -26.3180  -15.7960   20.0650 H   0  0  0  0  0  0  0  0  0  0  0  0
  -28.8490  -17.7880   18.0440 C   0  0  1  0  0  0  0  0  0  0  0  0
  -27.5700  -17.9460   17.6970 F   0  0  0  0  0  0  0  0  0  0  0  0
  -29.6330  -18.1970   17.0470 F   0  0  0  0  0  0  0  0  0  0  0  0
  -29.0360  -16.4750   18.1410 F   0  0  0  0  0  0  0  0  0  0  0  0
  -28.7480  -23.6310   21.4180 C   0  0  0  0  0  2  0  0  0  0  0  0
  -28.4880  -23.5860   19.3650 C   0  0  0  0  0  2  0  0  0  0  0  0
  -28.0080  -24.6880   20.4370 C   0  0  0  0  0  3  0  0  0  0  0  0
  -28.5840  -22.5190   20.4230 N   0  0  0  0  0  0  0  0  0  0  0  0
  -28.2590  -26.2550   20.3650 O   0  0  0  0  0  0  0  0  0  0  0  0
  -24.6170  -31.9890   23.3130 C   0  0  0  0  0  0  0  0  0  0  0  0
  -27.2060  -27.2560   20.2920 C   0  0  0  0  0  0  0  0  0  0  0  0
  -23.4230  -30.5970   21.6660 C   0  0  0  0  0  3  0  0  0  0  0  0
  -24.8800  -29.0250   20.2380 C   0  0  0  0  0  0  0  0  0  0  0  0
  -25.9780  -30.8610   21.5090 C   0  0  0  0  0  2  0  0  0  0  0  0
  -26.0580  -29.4660   20.8540 C   0  0  0  0  0  0  0  0  0  0  0  0
  -27.2200  -28.6000   20.8600 C   0  0  0  0  0  3  0  0  0  0  0  0
  -26.0060  -26.9290   19.6270 C   0  0  0  0  0  3  0  0  0  0  0  0
  -24.8720  -27.7720   19.6040 C   0  0  0  0  0  3  0  0  0  0  0  0
  -23.6500  -29.9210   20.2870 C   0  0  0  0  0  2  0  0  0  0  0  0
  -24.6930  -31.1730   22.2160 N   0  0  0  0  0  0  0  0  0  0  0  0
  -23.5290  -32.2690   23.8400 O   0  0  0  0  0  0  0  0  0  0  0  0
  -22.7440  -29.5880   22.6250 C   0  0  0  0  0  0  0  0  0  0  0  0
  -21.4200  -29.3970   22.4820 N   0  0  0  0  0  0  0  0  0  0  0  0
  -23.4120  -28.9750   23.4620 O   0  0  0  0  0  0  0  0  0  0  0  0
  -20.9350  -29.9410   21.7810 H   0  0  0  0  0  0  0  0  0  0  0  0
  -18.0480  -28.1590   22.9580 C   0  0  0  0  0  0  0  0  0  0  0  0
  -20.6010  -28.4520   23.2480 C   0  0  0  0  0  3  0  0  0  0  0  0
  -20.7250  -27.0200   22.6770 C   0  0  0  0  0  2  0  0  0  0  0  0
  -19.6360  -26.6840   21.6520 C   0  0  0  0  0  2  0  0  0  0  0  0
  -18.2470  -26.8130   22.2830 C   0  0  0  0  0  2  0  0  0  0  0  0
  -19.1540  -28.9370   23.3960 C   0  0  0  0  0  0  0  0  0  0  0  0
  -18.9130  -30.1950   23.9890 C   0  0  0  0  0  3  0  0  0  0  0  0
  -17.6000  -30.6770   24.1470 C   0  0  0  0  0  3  0  0  0  0  0  0
  -16.5090  -29.8980   23.7230 C   0  0  0  0  0  3  0  0  0  0  0  0
  -16.7350  -28.6420   23.1330 C   0  0  0  0  0  3  0  0  0  0  0  0
  -25.8920  -32.6270   23.9470 C   0  0  0  0  0  3  0  0  0  0  0  0
  -26.3920  -31.8640   25.2360 C   0  0  1  0  0  0  0  0  0  0  0  0
  -25.2780  -31.6050   26.2780 C   0  0  0  0  0  1  0  0  0  0  0  0
  -27.0110  -30.4970   24.8610 C   0  0  0  0  0  1  0  0  0  0  0  0
  -27.5130  -32.6770   25.9240 C   0  0  0  0  0  1  0  0  0  0  0  0
  -25.5780  -34.0270   24.2720 N   0  0  0  0  0  0  0  0  0  0  0  0
  -25.8770  -35.0790   23.4970 C   0  0  0  0  0  0  0  0  0  0  0  0
  -26.5100  -34.9710   22.4440 O   0  0  0  0  0  0  0  0  0  0  0  0
  -25.0080  -34.1840   25.0910 H   0  0  0  0  0  0  0  0  0  0  0  0
  -24.1020  -36.8430   23.2300 C   0  0  0  0  0  1  0  0  0  0  0  0
  -25.3990  -36.4680   23.9640 C   0  0  0  0  0  3  0  0  0  0  0  0
  -27.5640  -37.4090   24.6470 C   0  0  0  0  0  1  0  0  0  0  0  0
  -26.4050  -37.5350   23.7650 N   0  0  0  0  0  0  0  0  0  0  0  0
  -25.9920  -38.4520   23.9110 H   0  0  0  0  0  0  0  0  0  0  0  0
  1  2  1  0
  3  4  2  0
  3  5  1  0
  4  6  1  0
  5 53  1  0
  5  1  2  0
  6 16  1  0
  6  2  2  0
  7  3  1  0
  8 16  1  0
  9 14  1  0
 10 11  1  0
 10  9  1  0
 12 11  1  0
 12 21  1  0
 12 13  1  0
 14  8  1  0
 14 13  1  0
 15  8  2  0
 16 17  1  0
 18 19  2  0
 19 38  1  0
 20 19  1  0
 20 23  1  0
 21 18  1  0
 21 22  1  0
 22 20  2  0
 23 24  1  0
 24 25  2  0
 26 29  1  0
 26 25  1  0
 27 26  2  0
 28 27  1  0
 28 23  2  0
 29 30  1  0
 30 35  2  0
 30 31  1  0
 31 32  2  0
 32 33  1  0
 33 37  1  0
 34 33  2  0
 35 34  1  0
 36 35  1  0
 38 39  1  0
 39 42  1  0
 39 41  1  0
 40 38  2  0
 43 44  1  0
 43 18  1  0
 45 43  1  0
 46 49  1  1
 46  4  1  0
 47 46  1  0
 48 46  1  0
 51 53  1  0
 51 52  1  0
 52 54  1  0
 52 50  1  0
 53 50  1  0
 55 66  2  0
 56 54  1  0
 56 61  1  0
 57 65  1  0
 57 67  1  0
 58 64  1  0
 58 60  1  0
 59 65  1  0
 60 61  2  0
 60 59  1  0
 62 56  2  0
 63 62  1  0
 63 58  2  0
 64 57  1  0
 65 55  1  0
 67 69  2  0
 68 67  1  0
 70 68  1  0
 71 80  2  0
 71 76  1  0
 72 68  1  0
 72 76  1  0
 73 72  1  0
 74 75  1  0
 74 73  1  0
 75 71  1  0
 76 77  2  0
 77 78  1  0
 79 78  2  0
 80 79  1  0
 81 55  1  0
 81 86  1  0
 81 82  1  0
 82 85  1  1
 82 83  1  0
 84 82  1  0
 86 89  1  0
 87 91  1  0
 87 86  1  0
 88 87  2  0
 91 90  1  0
 93 94  1  0
 93 91  1  0
 93 92  1  0
M  ISO  4   8 100  16 100  52 101  54 101
M  END
>  <TORSDO>  (88) 
F 18

>  <SCORE>  (88) 
-14.017

>  <name>  (88) 
88

>  <ligand_id>  (88) 
88

>  <original_smiles>  (88) 
[H]c1c([H])c([H])c2c(c1[H])C([H])([H])C([H])([H])C([H])([H])C2([H])N([H])C(=O)C1([H])N(C(=O)C([H])(N([H])C(=O)C([H])(N([H])C([H])([H])[H])C([H])([H])[H])C(C([H])([H])[H])(C([H])([H])[H])C([H])([H])[H])C([H])([H])c2c([H])c(OC3([H])C([H])([H])N(c4c([H])c([H])c(N([H])C(=O)N5C([H])([H])C([H])([H])C([H])([H])C([H])(n6nc(-c7c([H])c([H])c(Oc8c([H])c([H])c(F)c([H])c8F)c([H])c7[H])c(C(=O)N([H])[H])c6N([H])[H])C5([H])[H])c(C(F)(F)F)c4C([H])([H])[H])C3([H])[H])c([H])c([H])c2C1([H])[H]

>  <smiles>  (88) 
[H]c1c([H])c([H])c2c(c1[H])C([H])([H])C([H])([H])C([H])([H])C2([H])N([H])C(=O)C1([H])N(C(=O)C([H])(N([H])C(=O)C([H])(N([H])C([H])([H])[H])C([H])([H])[H])C(C([H])([H])[H])(C([H])([H])[H])C([H])([H])[H])C([H])([H])c2c([H])c(OC3([H])C([H])([H])N(c4c([H])c([H])c(N([H])C(=O)N5C([H])([H])C([H])([H])C([H])([H])C([H])(n6nc(-c7c([H])c([H])c(Oc8c([H])c([H])c(F)c([H])c8F)c([H])c7[H])c(C(=O)N([H])[H])c6N([H])[H])C5([H])[H])c(C(F)(F)F)c4C([H])([H])[H])C3([H])[H])c([H])c([H])c2C1([H])[H]

$$$$
89:0:0
     RDKit          3D

 94103  0  0  1  0  0  0  0  0999 V2000
  -30.9710  -18.2670   18.6600 C   0  0  0  0  0  3  0  0  0  0  0  0
  -31.1220  -20.3050   17.3950 C   0  0  0  0  0  3  0  0  0  0  0  0
  -30.0870  -18.8290   19.6100 C   0  0  0  0  0  0  0  0  0  0  0  0
  -30.2170  -20.9820   18.2450 C   0  0  0  0  0  0  0  0  0  0  0  0
  -29.7520  -20.3090   19.4410 C   0  0  0  0  0  0  0  0  0  0  0  0
  -31.5160  -18.9900   17.6040 C   0  0  0  0  0  0  0  0  0  0  0  0
  -32.6690  -18.2500   16.5520 Cl  0  0  0  0  0  0  0  0  0  0  0  0
  -30.2480  -23.8090   16.5030 C   0  0  0  0  0  2  0  0  0  0  0  0
  -30.8760  -23.3080   17.7940 C   0  0  0  0  0  2  0  0  0  0  0  0
  -29.4440  -22.5160   16.4560 C   0  0  0  0  0  2  0  0  0  0  0  0
  -29.8040  -22.3140   17.8670 N   0  0  0  0  0  0  0  0  0  0  0  0
  -29.7680  -17.6690   20.7060 C   0  0  0  0  0  2  0  0  0  0  0  0
  -30.4720  -14.9410   20.3450 C   0  0  0  0  0  0  0  0  0  0  0  0
  -30.3510  -12.6060   19.3740 C   0  0  0  0  0  2  0  0  0  0  0  0
  -29.4160  -12.5950   18.1460 C   0  0  0  0  0  2  0  0  0  0  0  0
  -27.9460  -12.3960   18.5670 C   0  0  0  0  0  2  0  0  0  0  0  0
  -27.5500  -13.2960   19.7700 C   0  0  0  0  0  3  0  0  0  0  0  0
  -28.6120  -13.2620   20.8900 C   0  0  0  0  0  2  0  0  0  0  0  0
  -29.8800  -13.6850   20.2810 N   0  0  0  0  0  0  0  0  0  0  0  0
  -31.6870  -15.0150   20.1300 O   0  0  0  0  0  0  0  0  0  0  0  0
  -29.6550  -16.1020   20.4430 N   0  0  0  0  0  0  0  0  0  0  0  0
  -28.6890  -15.8190   20.5020 H   0  0  0  0  0  0  0  0  0  0  0  0
  -25.1700  -13.8780   20.5100 C   0  0  0  0  0  0  0  0  0  0  0  0
  -24.1050  -13.1070   20.8840 C   0  0  0  0  0  0  0  0  0  0  0  0
  -24.5680  -11.7550   20.8570 C   0  0  0  0  0  0  0  0  0  0  0  0
  -26.2120  -13.0000   20.2710 N   0  0  0  0  0  0  0  0  0  0  0  0
  -25.8600  -11.7170   20.5490 N   0  0  0  0  0  0  0  0  0  0  0  0
  -23.8390  -10.4940   21.0440 C   0  0  0  0  0  0  0  0  0  0  0  0
  -24.2710   -9.5240   21.9730 C   0  0  0  0  0  3  0  0  0  0  0  0
  -23.5410   -8.3280   22.1520 C   0  0  0  0  0  3  0  0  0  0  0  0
  -22.3630   -8.0950   21.4040 C   0  0  0  0  0  0  0  0  0  0  0  0
  -21.9530   -9.0520   20.4620 C   0  0  0  0  0  3  0  0  0  0  0  0
  -22.6830  -10.2390   20.2810 C   0  0  0  0  0  3  0  0  0  0  0  0
  -21.6050   -6.9530   21.4930 O   0  0  0  0  0  0  0  0  0  0  0  0
  -21.5630   -6.2070   22.6440 C   0  0  0  0  0  0  0  0  0  0  0  0
  -21.1620   -6.7600   23.8810 C   0  0  0  0  0  3  0  0  0  0  0  0
  -21.0690   -5.9390   25.0230 C   0  0  0  0  0  3  0  0  0  0  0  0
  -21.3680   -4.5650   24.9280 C   0  0  0  0  0  0  0  0  0  0  0  0
  -21.7580   -4.0110   23.6950 C   0  0  0  0  0  3  0  0  0  0  0  0
  -21.8540   -4.8310   22.5570 C   0  0  0  0  0  0  0  0  0  0  0  0
  -22.2120   -4.2900   21.3680 F   0  0  0  0  0  0  0  0  0  0  0  0
  -21.2660   -3.7720   26.0200 F   0  0  0  0  0  0  0  0  0  0  0  0
  -22.7080  -13.5850   21.1460 C   0  0  0  0  0  0  0  0  0  0  0  0
  -21.9740  -12.8960   22.0120 N   0  0  0  0  0  0  0  0  0  0  0  0
  -22.2790  -14.6100   20.6170 O   0  0  0  0  0  0  0  0  0  0  0  0
  -22.3360  -12.0720   22.4700 H   0  0  0  0  0  0  0  0  0  0  0  0
  -21.0340  -13.1980   22.2170 H   0  0  0  0  0  0  0  0  0  0  0  0
  -25.3370  -15.2500   20.3220 N   0  0  0  0  0  0  0  0  0  0  0  0
  -24.5640  -15.8990   20.4030 H   0  0  0  0  0  0  0  0  0  0  0  0
  -26.1680  -15.6730   19.9280 H   0  0  0  0  0  0  0  0  0  0  0  0
  -28.7540  -21.4960   20.5570 S   0  0  0  0  0  0  0  0  0  0  0  0
  -29.0830  -23.4730   20.6740 C   0  0  0  0  0  3  0  0  0  0  0  0
  -28.0610  -24.6930   20.1630 C   0  0  0  0  0  3  0  0  0  0  0  0
  -28.2970  -26.2120   20.3420 O   0  0  0  0  0  0  0  0  0  0  0  0
  -24.6390  -31.8650   23.2530 C   0  0  0  0  0  0  0  0  0  0  0  0
  -27.2280  -27.1670   20.2520 C   0  0  0  0  0  0  0  0  0  0  0  0
  -23.4410  -30.4610   21.6180 C   0  0  0  0  0  3  0  0  0  0  0  0
  -24.8920  -28.8860   20.2040 C   0  0  0  0  0  0  0  0  0  0  0  0
  -25.9930  -30.7310   21.4600 C   0  0  0  0  0  2  0  0  0  0  0  0
  -26.0680  -29.3430   20.8100 C   0  0  0  0  0  0  0  0  0  0  0  0
  -27.2380  -28.5010   20.8180 C   0  0  0  0  0  3  0  0  0  0  0  0
  -26.0270  -26.8010   19.6060 C   0  0  0  0  0  3  0  0  0  0  0  0
  -24.8840  -27.6270   19.5850 C   0  0  0  0  0  3  0  0  0  0  0  0
  -23.6610  -29.7730   20.2460 C   0  0  0  0  0  2  0  0  0  0  0  0
  -24.7090  -31.0430   22.1630 N   0  0  0  0  0  0  0  0  0  0  0  0
  -23.5530  -32.1520   23.7790 O   0  0  0  0  0  0  0  0  0  0  0  0
  -22.7640  -29.4600   22.5860 C   0  0  0  0  0  0  0  0  0  0  0  0
  -21.4390  -29.2830   22.4540 N   0  0  0  0  0  0  0  0  0  0  0  0
  -23.4340  -28.8400   23.4170 O   0  0  0  0  0  0  0  0  0  0  0  0
  -20.9530  -29.8280   21.7530 H   0  0  0  0  0  0  0  0  0  0  0  0
  -18.0580  -28.0820   22.9450 C   0  0  0  0  0  0  0  0  0  0  0  0
  -20.6130  -28.3530   23.2280 C   0  0  0  0  0  3  0  0  0  0  0  0
  -20.7230  -26.9160   22.6690 C   0  0  0  0  0  2  0  0  0  0  0  0
  -19.6310  -26.5810   21.6500 C   0  0  0  0  0  2  0  0  0  0  0  0
  -18.2430  -26.7270   22.2810 C   0  0  0  0  0  2  0  0  0  0  0  0
  -19.1700  -28.8530   23.3740 C   0  0  0  0  0  0  0  0  0  0  0  0
  -18.9410  -30.1190   23.9530 C   0  0  0  0  0  3  0  0  0  0  0  0
  -17.6320  -30.6140   24.1080 C   0  0  0  0  0  3  0  0  0  0  0  0
  -16.5340  -29.8380   23.6980 C   0  0  0  0  0  3  0  0  0  0  0  0
  -16.7480  -28.5740   23.1200 C   0  0  0  0  0  3  0  0  0  0  0  0
  -25.9180  -32.5030   23.8800 C   0  0  0  0  0  3  0  0  0  0  0  0
  -25.6070  -33.9030   24.2070 N   0  0  0  0  0  0  0  0  0  0  0  0
  -25.9360  -34.9570   23.4460 C   0  0  0  0  0  0  0  0  0  0  0  0
  -26.5980  -34.8520   22.4100 O   0  0  0  0  0  0  0  0  0  0  0  0
  -25.0210  -34.0600   25.0130 H   0  0  0  0  0  0  0  0  0  0  0  0
  -24.1980  -36.7480   23.1110 C   0  0  0  0  0  1  0  0  0  0  0  0
  -25.4540  -36.3460   23.9040 C   0  0  0  0  0  3  0  0  0  0  0  0
  -27.5980  -37.2410   24.7010 C   0  0  0  0  0  1  0  0  0  0  0  0
  -26.4820  -37.4010   23.7710 N   0  0  0  0  0  0  0  0  0  0  0  0
  -26.0770  -38.3210   23.9240 H   0  0  0  0  0  0  0  0  0  0  0  0
  -26.4280  -31.7400   25.1680 C   0  0  1  0  0  0  0  0  0  0  0  0
  -25.3290  -31.5180   26.2340 C   0  0  0  0  0  1  0  0  0  0  0  0
  -27.0080  -30.3550   24.7990 C   0  0  0  0  0  1  0  0  0  0  0  0
  -27.5760  -32.5400   25.8290 C   0  0  0  0  0  1  0  0  0  0  0  0
  1  3  1  0
  2  6  1  0
  2  4  2  0
  3 12  1  0
  4  5  1  0
  5  3  2  0
  5 51  1  0
  6  1  2  0
  7  6  1  0
  8  9  1  0
  9 11  1  0
 10  8  1  0
 10 11  1  0
 11  4  1  0
 13 21  1  0
 14 19  1  0
 15 16  1  0
 15 14  1  0
 17 16  1  0
 17 26  1  0
 17 18  1  0
 19 13  1  0
 19 18  1  0
 20 13  2  0
 21 22  1  0
 21 12  1  0
 23 24  2  0
 24 43  1  0
 25 24  1  0
 25 28  1  0
 26 23  1  0
 26 27  1  0
 27 25  2  0
 28 29  1  0
 29 30  2  0
 31 34  1  0
 31 30  1  0
 32 31  2  0
 33 32  1  0
 33 28  2  0
 34 35  1  0
 35 36  1  0
 36 37  2  0
 38 37  1  0
 38 42  1  0
 39 38  2  0
 40 35  2  0
 40 39  1  0
 41 40  1  0
 43 44  1  0
 44 47  1  0
 44 46  1  0
 45 43  2  0
 48 49  1  0
 48 23  1  0
 50 48  1  0
 51 52  1  0
 53 54  1  0
 53 52  2  0
 55 66  2  0
 56 54  1  0
 56 61  1  0
 57 65  1  0
 57 67  1  0
 58 64  1  0
 58 60  1  0
 59 65  1  0
 60 61  2  0
 60 59  1  0
 62 56  2  0
 63 62  1  0
 63 58  2  0
 64 57  1  0
 65 55  1  0
 67 69  2  0
 68 67  1  0
 70 68  1  0
 71 80  2  0
 71 76  1  0
 72 68  1  0
 72 76  1  0
 73 72  1  0
 74 75  1  0
 74 73  1  0
 75 71  1  0
 76 77  2  0
 77 78  1  0
 79 78  2  0
 80 79  1  0
 81 55  1  0
 81 82  1  0
 81 91  1  0
 82 85  1  0
 83 87  1  0
 83 82  1  0
 84 83  2  0
 87 86  1  0
 89 87  1  0
 89 90  1  0
 89 88  1  0
 91 94  1  1
 91 92  1  0
 93 91  1  0
M  ISO  4  13 100  21 100  53 101  54 101
M  END
>  <TORSDO>  (89) 
F 21

>  <SCORE>  (89) 
-14.139

>  <name>  (89) 
89

>  <ligand_id>  (89) 
89

>  <original_smiles>  (89) 
[H]c1c([H])c([H])c2c(c1[H])C([H])([H])C([H])([H])C([H])([H])C2([H])N([H])C(=O)C1([H])N(C(=O)C([H])(N([H])C(=O)C([H])(N([H])C([H])([H])[H])C([H])([H])[H])C(C([H])([H])[H])(C([H])([H])[H])C([H])([H])[H])C([H])([H])c2c([H])c(OC([H])([H])C([H])([H])Sc3c(N4C([H])([H])C([H])([H])C4([H])[H])c([H])c(Cl)c([H])c3C([H])([H])N([H])C(=O)N3C([H])([H])C([H])([H])C([H])([H])C([H])(n4nc(-c5c([H])c([H])c(Oc6c([H])c([H])c(F)c([H])c6F)c([H])c5[H])c(C(=O)N([H])[H])c4N([H])[H])C3([H])[H])c([H])c([H])c2C1([H])[H]

>  <smiles>  (89) 
[H]c1c([H])c([H])c2c(c1[H])C([H])([H])C([H])([H])C([H])([H])C2([H])N([H])C(=O)C1([H])N(C(=O)C([H])(N([H])C(=O)C([H])(N([H])C([H])([H])[H])C([H])([H])[H])C(C([H])([H])[H])(C([H])([H])[H])C([H])([H])[H])C([H])([H])c2c([H])c(OC([H])([H])C([H])([H])Sc3c(N4C([H])([H])C([H])([H])C4([H])[H])c([H])c(Cl)c([H])c3C([H])([H])N([H])C(=O)N3C([H])([H])C([H])([H])C([H])([H])C([H])(n4nc(-c5c([H])c([H])c(Oc6c([H])c([H])c(F)c([H])c6F)c([H])c5[H])c(C(=O)N([H])[H])c4N([H])[H])C3([H])[H])c([H])c([H])c2C1([H])[H]

$$$$
90:0:0
     RDKit          3D

 97107  0  0  1  0  0  0  0  0999 V2000
  -30.4670  -18.2400   21.6100 C   0  0  0  0  0  3  0  0  0  0  0  0
  -30.7260  -19.4260   22.3070 C   0  0  0  0  0  3  0  0  0  0  0  0
  -29.6800  -18.2410   20.4540 C   0  0  0  0  0  0  0  0  0  0  0  0
  -30.2550  -20.6920   21.8790 C   0  0  0  0  0  0  0  0  0  0  0  0
  -29.5260  -20.8380   20.6460 C   0  0  0  0  0  0  0  0  0  0  0  0
  -29.2420  -19.5550   19.9660 C   0  0  0  0  0  0  0  0  0  0  0  0
  -28.5020  -19.5720   18.8300 F   0  0  0  0  0  0  0  0  0  0  0  0
  -28.4820  -24.0140   18.6760 C   0  0  0  0  0  2  0  0  0  0  0  0
  -28.5570  -22.4610   18.8540 C   0  0  0  0  0  2  0  0  0  0  0  0
  -29.2150  -23.5410   20.8490 C   0  0  0  0  0  2  0  0  0  0  0  0
  -28.3360  -24.6260   20.0820 C   0  0  0  0  0  3  0  0  0  0  0  0
  -29.0990  -22.1830   20.1850 N   0  0  0  0  0  0  0  0  0  0  0  0
  -28.5770  -26.1230   20.2070 O   0  0  0  0  0  0  0  0  0  0  0  0
  -24.7970  -31.5730   23.2100 C   0  0  0  0  0  0  0  0  0  0  0  0
  -27.4890  -27.0320   20.1290 C   0  0  0  0  0  0  0  0  0  0  0  0
  -23.6420  -30.2010   21.5160 C   0  0  0  0  0  3  0  0  0  0  0  0
  -25.1330  -28.6850   20.0900 C   0  0  0  0  0  0  0  0  0  0  0  0
  -26.1880  -30.5210   21.4020 C   0  0  0  0  0  2  0  0  0  0  0  0
  -26.2910  -29.1520   20.7260 C   0  0  0  0  0  0  0  0  0  0  0  0
  -27.4720  -28.3380   20.7340 C   0  0  0  0  0  3  0  0  0  0  0  0
  -26.3110  -26.6480   19.4540 C   0  0  0  0  0  3  0  0  0  0  0  0
  -25.1500  -27.4420   19.4410 C   0  0  0  0  0  3  0  0  0  0  0  0
  -23.8930  -29.5560   20.1300 C   0  0  0  0  0  2  0  0  0  0  0  0
  -24.8930  -30.7830   22.0990 N   0  0  0  0  0  0  0  0  0  0  0  0
  -23.6990  -31.8320   23.7250 O   0  0  0  0  0  0  0  0  0  0  0  0
  -22.9620  -29.1610   22.4420 C   0  0  0  0  0  0  0  0  0  0  0  0
  -21.6370  -28.9890   22.2930 N   0  0  0  0  0  0  0  0  0  0  0  0
  -23.6270  -28.5140   23.2550 O   0  0  0  0  0  0  0  0  0  0  0  0
  -21.1570  -29.5650   21.6150 H   0  0  0  0  0  0  0  0  0  0  0  0
  -18.2470  -27.8050   22.7490 C   0  0  0  0  0  0  0  0  0  0  0  0
  -20.8070  -28.0320   23.0300 C   0  0  0  0  0  3  0  0  0  0  0  0
  -20.8950  -26.6210   22.4040 C   0  0  0  0  0  2  0  0  0  0  0  0
  -19.7920  -26.3440   21.3780 C   0  0  0  0  0  2  0  0  0  0  0  0
  -18.4110  -26.4800   22.0250 C   0  0  0  0  0  2  0  0  0  0  0  0
  -19.3720  -28.5410   23.2070 C   0  0  0  0  0  0  0  0  0  0  0  0
  -19.1650  -29.7830   23.8470 C   0  0  0  0  0  3  0  0  0  0  0  0
  -17.8630  -30.2900   24.0300 C   0  0  0  0  0  3  0  0  0  0  0  0
  -16.7520  -29.5510   23.5880 C   0  0  0  0  0  3  0  0  0  0  0  0
  -16.9450  -28.3100   22.9540 C   0  0  0  0  0  3  0  0  0  0  0  0
  -26.0580  -32.2050   23.8750 C   0  0  0  0  0  3  0  0  0  0  0  0
  -26.5300  -31.4350   25.1690 C   0  0  1  0  0  0  0  0  0  0  0  0
  -25.4000  -31.2030   26.2000 C   0  0  0  0  0  1  0  0  0  0  0  0
  -27.1190  -30.0540   24.8000 C   0  0  0  0  0  1  0  0  0  0  0  0
  -27.6620  -32.2250   25.8660 C   0  0  0  0  0  1  0  0  0  0  0  0
  -25.7390  -33.6040   24.1960 N   0  0  0  0  0  0  0  0  0  0  0  0
  -26.0760  -34.6570   23.4390 C   0  0  0  0  0  0  0  0  0  0  0  0
  -26.7560  -34.5530   22.4150 O   0  0  0  0  0  0  0  0  0  0  0  0
  -25.1360  -33.7580   24.9920 H   0  0  0  0  0  0  0  0  0  0  0  0
  -24.3380  -36.4390   23.0750 C   0  0  0  0  0  1  0  0  0  0  0  0
  -25.5800  -36.0460   23.8880 C   0  0  0  0  0  3  0  0  0  0  0  0
  -27.7010  -36.9560   24.7260 C   0  0  0  0  0  1  0  0  0  0  0  0
  -26.6070  -37.1040   23.7710 N   0  0  0  0  0  0  0  0  0  0  0  0
  -26.1930  -38.0230   23.9000 H   0  0  0  0  0  0  0  0  0  0  0  0
  -30.1970  -22.7190   24.9080 C   0  0  0  0  0  2  0  0  0  0  0  0
  -31.6840  -22.4100   24.7430 C   0  0  0  0  0  2  0  0  0  0  0  0
  -29.5330  -21.8240   23.8690 C   0  0  0  0  0  2  0  0  0  0  0  0
  -31.8340  -21.9370   23.2890 C   0  0  0  0  0  2  0  0  0  0  0  0
  -30.4810  -21.7670   22.7630 N   0  0  0  0  0  0  0  0  0  0  0  0
  -29.2370  -16.7810   19.9550 C   0  0  0  0  0  2  0  0  0  0  0  0
  -30.7590  -14.5380   19.7630 C   0  0  0  0  0  0  0  0  0  0  0  0
  -30.3210  -12.3180   18.7150 C   0  0  0  0  0  2  0  0  0  0  0  0
  -29.2890  -12.4180   17.5770 C   0  0  0  0  0  2  0  0  0  0  0  0
  -27.8610  -12.2780   18.1370 C   0  0  0  0  0  2  0  0  0  0  0  0
  -27.6120  -13.1520   19.3990 C   0  0  0  0  0  3  0  0  0  0  0  0
  -28.7710  -13.0700   20.4140 C   0  0  0  0  0  2  0  0  0  0  0  0
  -29.9930  -13.3970   19.6740 N   0  0  0  0  0  0  0  0  0  0  0  0
  -31.9740  -14.4060   19.5840 O   0  0  0  0  0  0  0  0  0  0  0  0
  -30.9280  -16.4410   18.2460 C   0  0  0  0  0  1  0  0  0  0  0  0
  -30.2250  -15.7780   19.3600 N   0  0  0  0  0  0  0  0  0  0  0  0
  -25.3180  -13.7640   20.3490 C   0  0  0  0  0  0  0  0  0  0  0  0
  -24.2670  -13.0010   20.7850 C   0  0  0  0  0  0  0  0  0  0  0  0
  -24.6980  -11.6420   20.6860 C   0  0  0  0  0  0  0  0  0  0  0  0
  -26.3170  -12.8700   20.0070 N   0  0  0  0  0  0  0  0  0  0  0  0
  -25.9610  -11.5870   20.2780 N   0  0  0  0  0  0  0  0  0  0  0  0
  -23.9600  -10.3900   20.9020 C   0  0  0  0  0  0  0  0  0  0  0  0
  -24.4080   -9.4170   21.8230 C   0  0  0  0  0  3  0  0  0  0  0  0
  -23.6680   -8.2320   22.0240 C   0  0  0  0  0  3  0  0  0  0  0  0
  -22.4670   -8.0140   21.3100 C   0  0  0  0  0  0  0  0  0  0  0  0
  -22.0380   -8.9760   20.3790 C   0  0  0  0  0  3  0  0  0  0  0  0
  -22.7760  -10.1530   20.1740 C   0  0  0  0  0  3  0  0  0  0  0  0
  -21.6920   -6.8840   21.4270 O   0  0  0  0  0  0  0  0  0  0  0  0
  -21.6630   -6.1510   22.5860 C   0  0  0  0  0  0  0  0  0  0  0  0
  -21.2230   -6.7060   23.8070 C   0  0  0  0  0  3  0  0  0  0  0  0
  -21.1410   -5.8970   24.9580 C   0  0  0  0  0  3  0  0  0  0  0  0
  -21.4870   -4.5340   24.8880 C   0  0  0  0  0  0  0  0  0  0  0  0
  -21.9170   -3.9770   23.6690 C   0  0  0  0  0  3  0  0  0  0  0  0
  -22.0010   -4.7830   22.5200 C   0  0  0  0  0  0  0  0  0  0  0  0
  -22.3930   -4.2380   21.3440 F   0  0  0  0  0  0  0  0  0  0  0  0
  -21.4020   -3.7540   25.9910 F   0  0  0  0  0  0  0  0  0  0  0  0
  -22.9060  -13.5000   21.1680 C   0  0  0  0  0  0  0  0  0  0  0  0
  -22.2230  -12.7930   22.0640 N   0  0  0  0  0  0  0  0  0  0  0  0
  -22.4580  -14.5490   20.7070 O   0  0  0  0  0  0  0  0  0  0  0  0
  -22.5980  -11.9440   22.4640 H   0  0  0  0  0  0  0  0  0  0  0  0
  -21.3120  -13.1140   22.3590 H   0  0  0  0  0  0  0  0  0  0  0  0
  -25.4940  -15.1350   20.1800 N   0  0  0  0  0  0  0  0  0  0  0  0
  -24.7500  -15.8010   20.3640 H   0  0  0  0  0  0  0  0  0  0  0  0
  -26.3140  -15.5640   19.7720 H   0  0  0  0  0  0  0  0  0  0  0  0
  1  2  1  0
  3  1  2  0
  4  2  2  0
  4 58  1  0
  5  4  1  0
  6  3  1  0
  6  5  2  0
  7  6  1  0
  8  9  1  0
  8 11  1  0
  9 12  1  0
 11 13  1  0
 11 10  1  0
 12  5  1  0
 12 10  1  0
 14 25  2  0
 15 13  1  0
 15 20  1  0
 16 24  1  0
 16 26  1  0
 17 23  1  0
 17 19  1  0
 18 24  1  0
 19 20  2  0
 19 18  1  0
 21 15  2  0
 22 21  1  0
 22 17  2  0
 23 16  1  0
 24 14  1  0
 26 28  2  0
 27 26  1  0
 29 27  1  0
 30 39  2  0
 30 35  1  0
 31 27  1  0
 31 35  1  0
 32 31  1  0
 33 34  1  0
 33 32  1  0
 34 30  1  0
 35 36  2  0
 36 37  1  0
 38 37  2  0
 39 38  1  0
 40 14  1  0
 40 45  1  0
 40 41  1  0
 41 44  1  1
 41 42  1  0
 43 41  1  0
 45 48  1  0
 46 50  1  0
 46 45  1  0
 47 46  2  0
 50 49  1  0
 52 50  1  0
 52 53  1  0
 52 51  1  0
 55 54  1  0
 56 54  1  0
 57 55  1  0
 58 57  1  0
 58 56  1  0
 59  3  1  0
 61 66  1  0
 62 63  1  0
 62 61  1  0
 64 63  1  0
 64 73  1  0
 64 65  1  0
 66 60  1  0
 66 65  1  0
 67 60  2  0
 68 69  1  0
 69 60  1  0
 69 59  1  0
 70 71  2  0
 71 90  1  0
 72 71  1  0
 72 75  1  0
 73 74  1  0
 73 70  1  0
 74 72  2  0
 75 76  1  0
 76 77  2  0
 78 81  1  0
 78 77  1  0
 79 78  2  0
 80 79  1  0
 80 75  2  0
 81 82  1  0
 82 83  1  0
 83 84  2  0
 85 84  1  0
 85 89  1  0
 86 85  2  0
 87 82  2  0
 87 86  1  0
 88 87  1  0
 90 91  1  0
 91 94  1  0
 91 93  1  0
 92 90  2  0
 95 70  1  0
 95 96  1  0
 97 95  1  0
M  ISO  4  11 101  13 101  60 100  69 100
M  END
>  <TORSDO>  (90) 
F 19

>  <SCORE>  (90) 
-11.618

>  <name>  (90) 
90

>  <ligand_id>  (90) 
90

>  <original_smiles>  (90) 
[H]c1c([H])c([H])c2c(c1[H])C([H])([H])C([H])([H])C([H])([H])C2([H])N([H])C(=O)C1([H])N(C(=O)C([H])(N([H])C(=O)C([H])(N([H])C([H])([H])[H])C([H])([H])[H])C(C([H])([H])[H])(C([H])([H])[H])C([H])([H])[H])C([H])([H])c2c([H])c(OC3([H])C([H])([H])N(c4c(F)c(C([H])([H])N(C(=O)N5C([H])([H])C([H])([H])C([H])([H])C([H])(n6nc(-c7c([H])c([H])c(Oc8c([H])c([H])c(F)c([H])c8F)c([H])c7[H])c(C(=O)N([H])[H])c6N([H])[H])C5([H])[H])C([H])([H])[H])c([H])c([H])c4N4C([H])([H])C([H])([H])C([H])([H])C4([H])[H])C([H])([H])C3([H])[H])c([H])c([H])c2C1([H])[H]

>  <smiles>  (90) 
[H]c1c([H])c([H])c2c(c1[H])C([H])([H])C([H])([H])C([H])([H])C2([H])N([H])C(=O)C1([H])N(C(=O)C([H])(N([H])C(=O)C([H])(N([H])C([H])([H])[H])C([H])([H])[H])C(C([H])([H])[H])(C([H])([H])[H])C([H])([H])[H])C([H])([H])c2c([H])c(OC3([H])C([H])([H])N(c4c(F)c(C([H])([H])N(C(=O)N5C([H])([H])C([H])([H])C([H])([H])C([H])(n6nc(-c7c([H])c([H])c(Oc8c([H])c([H])c(F)c([H])c8F)c([H])c7[H])c(C(=O)N([H])[H])c6N([H])[H])C5([H])[H])C([H])([H])[H])c([H])c([H])c4N4C([H])([H])C([H])([H])C([H])([H])C4([H])[H])C([H])([H])C3([H])[H])c([H])c([H])c2C1([H])[H]

$$$$
