0:0:0
     RDKit          3D

 92100  0  0  1  0  0  0  0  0999 V2000
  -27.7180  -21.3400   20.0940 C   0  0  0  0  0  1  0  0  0  0  0  0
  -29.1370  -21.7580   20.1430 N   0  0  1  0  0  4  0  0  0  0  0  0
  -29.3490  -21.9160   21.1160 H   0  0  0  0  0  0  0  0  0  0  0  0
  -30.0560  -20.6550   19.6780 C   0  0  0  0  0  2  0  0  0  0  0  0
  -31.0680  -18.4670   22.6930 C   0  0  0  0  0  3  0  0  0  0  0  0
  -30.7750  -19.5830   21.8840 C   0  0  0  0  0  3  0  0  0  0  0  0
  -30.8490  -17.1580   22.2180 C   0  0  0  0  0  3  0  0  0  0  0  0
  -30.0060  -18.0800   20.1220 C   0  0  0  0  0  3  0  0  0  0  0  0
  -30.2420  -19.4130   20.5880 C   0  0  0  0  0  0  0  0  0  0  0  0
  -30.3300  -16.9420   20.9240 C   0  0  0  0  0  0  0  0  0  0  0  0
  -30.7730  -14.5740   20.1290 C   0  0  0  0  0  0  0  0  0  0  0  0
  -30.4720  -12.3850   18.9960 C   0  0  0  0  0  2  0  0  0  0  0  0
  -29.4740  -12.5620   17.8300 C   0  0  0  0  0  2  0  0  0  0  0  0
  -28.0160  -12.4330   18.3180 C   0  0  0  0  0  2  0  0  0  0  0  0
  -27.7330  -13.2810   19.5870 C   0  0  0  0  0  3  0  0  0  0  0  0
  -28.8320  -13.0550   20.6510 C   0  0  0  0  0  2  0  0  0  0  0  0
  -30.1260  -13.3760   20.0280 N   0  0  0  0  0  0  0  0  0  0  0  0
  -31.9120  -14.7480   19.6830 O   0  0  0  0  0  0  0  0  0  0  0  0
  -29.9860  -15.6020   20.5410 N   0  0  0  0  0  0  0  0  0  0  0  0
  -29.0420  -15.3250   20.7610 H   0  0  0  0  0  0  0  0  0  0  0  0
  -25.3820  -13.9340   20.4030 C   0  0  0  0  0  0  0  0  0  0  0  0
  -24.3140  -13.1810   20.8090 C   0  0  0  0  0  0  0  0  0  0  0  0
  -24.7450  -11.8190   20.7480 C   0  0  0  0  0  0  0  0  0  0  0  0
  -26.3970  -13.0310   20.1210 N   0  0  0  0  0  0  0  0  0  0  0  0
  -26.0190  -11.7550   20.3860 N   0  0  0  0  0  0  0  0  0  0  0  0
  -23.9990  -10.5710   20.9550 C   0  0  0  0  0  0  0  0  0  0  0  0
  -24.4330   -9.5990   21.8830 C   0  0  0  0  0  3  0  0  0  0  0  0
  -23.6900   -8.4160   22.0800 C   0  0  0  0  0  3  0  0  0  0  0  0
  -22.5000   -8.1950   21.3470 C   0  0  0  0  0  0  0  0  0  0  0  0
  -22.0850   -9.1550   20.4080 C   0  0  0  0  0  3  0  0  0  0  0  0
  -22.8280  -10.3310   20.2100 C   0  0  0  0  0  3  0  0  0  0  0  0
  -21.7280   -7.0640   21.4530 O   0  0  0  0  0  0  0  0  0  0  0  0
  -21.6660   -6.3410   22.6170 C   0  0  0  0  0  0  0  0  0  0  0  0
  -21.2450   -6.9220   23.8330 C   0  0  0  0  0  3  0  0  0  0  0  0
  -21.1280   -6.1260   24.9900 C   0  0  0  0  0  3  0  0  0  0  0  0
  -21.4230   -4.7510   24.9320 C   0  0  0  0  0  0  0  0  0  0  0  0
  -21.8390   -4.1700   23.7220 C   0  0  0  0  0  3  0  0  0  0  0  0
  -21.9570   -4.9630   22.5670 C   0  0  0  0  0  0  0  0  0  0  0  0
  -22.3370   -4.3940   21.3980 F   0  0  0  0  0  0  0  0  0  0  0  0
  -21.3040   -3.9850   26.0420 F   0  0  0  0  0  0  0  0  0  0  0  0
  -22.9390  -13.6850   21.1420 C   0  0  0  0  0  0  0  0  0  0  0  0
  -22.2340  -12.9960   22.0340 N   0  0  0  0  0  0  0  0  0  0  0  0
  -22.5010  -14.7220   20.6460 O   0  0  0  0  0  0  0  0  0  0  0  0
  -22.6000  -12.1570   22.4560 H   0  0  0  0  0  0  0  0  0  0  0  0
  -21.3120  -13.3140   22.2980 H   0  0  0  0  0  0  0  0  0  0  0  0
  -25.5700  -15.3020   20.2290 N   0  0  0  0  0  0  0  0  0  0  0  0
  -24.8200  -15.9690   20.3830 H   0  0  0  0  0  0  0  0  0  0  0  0
  -26.4080  -15.7320   19.8620 H   0  0  0  0  0  0  0  0  0  0  0  0
  -29.4240  -23.0610   19.4300 C   0  0  0  0  0  2  0  0  0  0  0  0
  -28.3630  -24.2320   19.4180 C   0  0  0  0  0  2  0  0  0  0  0  0
  -28.4110  -25.3050   20.5510 C   0  0  0  0  0  2  0  0  0  0  0  0
  -28.4060  -26.6830   20.0980 O   0  0  0  0  0  0  0  0  0  0  0  0
  -24.6030  -31.8740   23.2200 C   0  0  0  0  0  0  0  0  0  0  0  0
  -27.2240  -27.4030   20.1320 C   0  0  0  0  0  0  0  0  0  0  0  0
  -23.3900  -30.4810   21.5770 C   0  0  0  0  0  3  0  0  0  0  0  0
  -24.8340  -28.9330   20.1450 C   0  0  0  0  0  0  0  0  0  0  0  0
  -25.9160  -30.8280   21.3670 C   0  0  0  0  0  2  0  0  0  0  0  0
  -25.9960  -29.4540   20.7280 C   0  0  0  0  0  0  0  0  0  0  0  0
  -27.1960  -28.6990   20.7080 C   0  0  0  0  0  3  0  0  0  0  0  0
  -26.0430  -26.8980   19.5490 C   0  0  0  0  0  3  0  0  0  0  0  0
  -24.8550  -27.6580   19.5490 C   0  0  0  0  0  3  0  0  0  0  0  0
  -23.5920  -29.7980   20.1960 C   0  0  0  0  0  2  0  0  0  0  0  0
  -24.6560  -31.0750   22.1150 N   0  0  0  0  0  0  0  0  0  0  0  0
  -23.5230  -32.1500   23.7630 O   0  0  0  0  0  0  0  0  0  0  0  0
  -22.7320  -29.4640   22.5380 C   0  0  0  0  0  0  0  0  0  0  0  0
  -21.4060  -29.2910   22.4140 N   0  0  0  0  0  0  0  0  0  0  0  0
  -23.4130  -28.8300   23.3500 O   0  0  0  0  0  0  0  0  0  0  0  0
  -20.9180  -29.8490   21.7280 H   0  0  0  0  0  0  0  0  0  0  0  0
  -18.0260  -28.1080   22.9090 C   0  0  0  0  0  0  0  0  0  0  0  0
  -20.5850  -28.3540   23.1830 C   0  0  0  0  0  3  0  0  0  0  0  0
  -20.6830  -26.9250   22.6010 C   0  0  0  0  0  2  0  0  0  0  0  0
  -19.5800  -26.6100   21.5870 C   0  0  0  0  0  2  0  0  0  0  0  0
  -18.1980  -26.7610   22.2290 C   0  0  0  0  0  2  0  0  0  0  0  0
  -19.1480  -28.8630   23.3420 C   0  0  0  0  0  0  0  0  0  0  0  0
  -18.9350  -30.1260   23.9370 C   0  0  0  0  0  3  0  0  0  0  0  0
  -17.6320  -30.6340   24.1030 C   0  0  0  0  0  3  0  0  0  0  0  0
  -16.5260  -29.8740   23.6870 C   0  0  0  0  0  3  0  0  0  0  0  0
  -16.7220  -28.6130   23.0960 C   0  0  0  0  0  3  0  0  0  0  0  0
  -25.8920  -32.4970   23.8420 C   0  0  0  0  0  3  0  0  0  0  0  0
  -25.5920  -33.8950   24.1800 N   0  0  0  0  0  0  0  0  0  0  0  0
  -25.9300  -34.9480   23.4230 C   0  0  0  0  0  0  0  0  0  0  0  0
  -26.5960  -34.8440   22.3890 O   0  0  0  0  0  0  0  0  0  0  0  0
  -25.0020  -34.0530   24.9830 H   0  0  0  0  0  0  0  0  0  0  0  0
  -24.2130  -36.7520   23.0740 C   0  0  0  0  0  1  0  0  0  0  0  0
  -25.4500  -36.3380   23.8850 C   0  0  0  0  0  3  0  0  0  0  0  0
  -27.5900  -37.2060   24.7200 C   0  0  0  0  0  1  0  0  0  0  0  0
  -26.4910  -37.3840   23.7760 N   0  0  0  0  0  0  0  0  0  0  0  0
  -26.0900  -38.3070   23.9260 H   0  0  0  0  0  0  0  0  0  0  0  0
  -26.4110  -31.7150   25.1110 C   0  0  1  0  0  0  0  0  0  0  0  0
  -25.3200  -31.4710   26.1810 C   0  0  0  0  0  1  0  0  0  0  0  0
  -26.9850  -30.3400   24.7030 C   0  0  0  0  0  1  0  0  0  0  0  0
  -27.5720  -32.4950   25.7700 C   0  0  0  0  0  1  0  0  0  0  0  0
  1  2  1  0
  2  3  1  1
  4  2  1  0
  4  9  1  0
  6  5  2  0
  7  5  1  0
  8  9  2  0
  8 10  1  0
  9  6  1  0
 10  7  2  0
 11 19  1  0
 12 17  1  0
 13 14  1  0
 13 12  1  0
 15 14  1  0
 15 24  1  0
 15 16  1  0
 17 11  1  0
 17 16  1  0
 18 11  2  0
 19 20  1  0
 19 10  1  0
 21 22  2  0
 22 41  1  0
 23 22  1  0
 23 26  1  0
 24 25  1  0
 24 21  1  0
 25 23  2  0
 26 27  1  0
 27 28  2  0
 29 32  1  0
 29 28  1  0
 30 29  2  0
 31 30  1  0
 31 26  2  0
 32 33  1  0
 33 34  1  0
 34 35  2  0
 36 35  1  0
 36 40  1  0
 37 36  2  0
 38 33  2  0
 38 37  1  0
 39 38  1  0
 41 42  1  0
 42 45  1  0
 42 44  1  0
 43 41  2  0
 46 47  1  0
 46 21  1  0
 48 46  1  0
 49  2  1  0
 50 49  1  0
 50 51  1  0
 52 54  1  0
 52 51  1  0
 53 64  2  0
 54 59  1  0
 55 63  1  0
 55 65  1  0
 56 62  1  0
 56 58  1  0
 57 63  1  0
 58 57  1  0
 59 58  2  0
 60 54  2  0
 61 60  1  0
 61 56  2  0
 62 55  1  0
 63 53  1  0
 65 67  2  0
 66 65  1  0
 68 66  1  0
 69 78  2  0
 69 74  1  0
 70 66  1  0
 70 74  1  0
 71 70  1  0
 72 73  1  0
 72 71  1  0
 73 69  1  0
 74 75  2  0
 75 76  1  0
 77 76  2  0
 78 77  1  0
 79 53  1  0
 79 80  1  0
 79 89  1  0
 80 83  1  0
 81 85  1  0
 81 80  1  0
 82 81  2  0
 85 84  1  0
 87 85  1  0
 87 88  1  0
 87 86  1  0
 89 92  1  1
 89 90  1  0
 91 89  1  0
M  ISO  4  11 100  19 100  51 101  52 101
M  END
>  <TORSDO>  (1) 
F 21

>  <SCORE>  (1) 
-13.213

>  <name>  (1) 
0

>  <ligand_id>  (1) 
0

>  <original_smiles>  (1) 
[H]c1c([H])c([H])c2c(c1[H])C([H])([H])C([H])([H])C([H])([H])C2([H])N([H])C(=O)C1([H])N(C(=O)C([H])(N([H])C(=O)C([H])(N([H])C([H])([H])[H])C([H])([H])[H])C(C([H])([H])[H])(C([H])([H])[H])C([H])([H])[H])C([H])([H])c2c([H])c(OC([H])([H])C([H])([H])C([H])([H])[N+]([H])(C([H])([H])[H])C([H])([H])c3c([H])c([H])c([H])c(N([H])C(=O)N4C([H])([H])C([H])([H])C([H])([H])C([H])(n5nc(-c6c([H])c([H])c(Oc7c([H])c([H])c(F)c([H])c7F)c([H])c6[H])c(C(=O)N([H])[H])c5N([H])[H])C4([H])[H])c3[H])c([H])c([H])c2C1([H])[H]

>  <smiles>  (1) 
[H]c1c([H])c([H])c2c(c1[H])C([H])([H])C([H])([H])C([H])([H])C2([H])N([H])C(=O)C1([H])N(C(=O)C([H])(N([H])C(=O)C([H])(N([H])C([H])([H])[H])C([H])([H])[H])C(C([H])([H])[H])(C([H])([H])[H])C([H])([H])[H])C([H])([H])c2c([H])c(OC([H])([H])C([H])([H])C([H])([H])[N+]([H])(C([H])([H])[H])C([H])([H])c3c([H])c([H])c([H])c(N([H])C(=O)N4C([H])([H])C([H])([H])C([H])([H])C([H])(n5nc(-c6c([H])c([H])c(Oc7c([H])c([H])c(F)c([H])c7F)c([H])c6[H])c(C(=O)N([H])[H])c5N([H])[H])C4([H])[H])c3[H])c([H])c([H])c2C1([H])[H]

$$$$
1:0:0
     RDKit          3D

 95104  0  0  1  0  0  0  0  0999 V2000
  -29.1960  -23.8180   22.7820 C   0  0  0  0  0  2  0  0  0  0  0  0
  -30.0700  -24.7100   21.8890 C   0  0  0  0  0  2  0  0  0  0  0  0
  -28.9930  -22.5200   21.9830 C   0  0  0  0  0  2  0  0  0  0  0  0
  -29.7440  -24.2580   20.4520 C   0  0  1  0  0  0  0  0  0  0  0  0
  -30.9080  -24.6070   19.5020 C   0  0  0  0  0  1  0  0  0  0  0  0
  -29.6710  -22.7400   20.6890 N   0  0  2  0  0  4  0  0  0  0  0  0
  -30.6300  -22.5350   20.9270 H   0  0  0  0  0  0  0  0  0  0  0  0
  -29.4380  -21.6870   19.6230 C   0  0  0  0  0  2  0  0  0  0  0  0
  -30.9240  -19.4880   19.7460 C   0  0  0  0  0  3  0  0  0  0  0  0
  -31.0910  -18.0740   19.9330 C   0  0  0  0  0  3  0  0  0  0  0  0
  -28.6390  -19.3280   20.4580 C   0  0  0  0  0  3  0  0  0  0  0  0
  -29.6880  -20.1620   19.9890 C   0  0  0  0  0  0  0  0  0  0  0  0
  -30.0210  -17.2470   20.3770 C   0  0  0  0  0  0  0  0  0  0  0  0
  -28.8020  -17.9240   20.6470 C   0  0  0  0  0  0  0  0  0  0  0  0
  -27.7430  -17.1940   21.0710 F   0  0  0  0  0  0  0  0  0  0  0  0
  -30.7930  -14.7520   20.1000 C   0  0  0  0  0  0  0  0  0  0  0  0
  -30.5210  -12.5300   19.0070 C   0  0  0  0  0  2  0  0  0  0  0  0
  -29.5430  -12.6990   17.8220 C   0  0  0  0  0  2  0  0  0  0  0  0
  -28.0790  -12.5650   18.2890 C   0  0  0  0  0  2  0  0  0  0  0  0
  -27.7780  -13.4070   19.5580 C   0  0  0  0  0  3  0  0  0  0  0  0
  -28.8660  -13.2000   20.6370 C   0  0  0  0  0  2  0  0  0  0  0  0
  -30.1650  -13.5320   20.0310 N   0  0  0  0  0  0  0  0  0  0  0  0
  -31.9350  -14.9090   19.6550 O   0  0  0  0  0  0  0  0  0  0  0  0
  -30.0240  -15.7890   20.5610 N   0  0  0  0  0  0  0  0  0  0  0  0
  -29.1690  -15.4630   20.9840 H   0  0  0  0  0  0  0  0  0  0  0  0
  -25.4120  -14.0440   20.3310 C   0  0  0  0  0  0  0  0  0  0  0  0
  -24.3410  -13.2890   20.7230 C   0  0  0  0  0  0  0  0  0  0  0  0
  -24.7790  -11.9300   20.6850 C   0  0  0  0  0  0  0  0  0  0  0  0
  -26.4370  -13.1460   20.0740 N   0  0  0  0  0  0  0  0  0  0  0  0
  -26.0620  -11.8700   20.3480 N   0  0  0  0  0  0  0  0  0  0  0  0
  -24.0360  -10.6810   20.8940 C   0  0  0  0  0  0  0  0  0  0  0  0
  -24.4600   -9.7200   21.8390 C   0  0  0  0  0  3  0  0  0  0  0  0
  -23.7190   -8.5350   22.0360 C   0  0  0  0  0  3  0  0  0  0  0  0
  -22.5410   -8.3010   21.2860 C   0  0  0  0  0  0  0  0  0  0  0  0
  -22.1350   -9.2530   20.3340 C   0  0  0  0  0  3  0  0  0  0  0  0
  -22.8770  -10.4290   20.1350 C   0  0  0  0  0  3  0  0  0  0  0  0
  -21.7710   -7.1680   21.3910 O   0  0  0  0  0  0  0  0  0  0  0  0
  -21.6910   -6.4590   22.5640 C   0  0  0  0  0  0  0  0  0  0  0  0
  -21.2630   -7.0570   23.7690 C   0  0  0  0  0  3  0  0  0  0  0  0
  -21.1260   -6.2770   24.9340 C   0  0  0  0  0  3  0  0  0  0  0  0
  -21.4110   -4.8990   24.8950 C   0  0  0  0  0  0  0  0  0  0  0  0
  -21.8340   -4.2990   23.6960 C   0  0  0  0  0  3  0  0  0  0  0  0
  -21.9700   -5.0770   22.5330 C   0  0  0  0  0  0  0  0  0  0  0  0
  -22.3560   -4.4920   21.3740 F   0  0  0  0  0  0  0  0  0  0  0  0
  -21.2730   -4.1460   26.0110 F   0  0  0  0  0  0  0  0  0  0  0  0
  -22.9580  -13.7900   21.0300 C   0  0  0  0  0  0  0  0  0  0  0  0
  -22.2460  -13.1140   21.9230 N   0  0  0  0  0  0  0  0  0  0  0  0
  -22.5210  -14.8180   20.5130 O   0  0  0  0  0  0  0  0  0  0  0  0
  -22.6120  -12.2830   22.3640 H   0  0  0  0  0  0  0  0  0  0  0  0
  -21.3200  -13.4340   22.1730 H   0  0  0  0  0  0  0  0  0  0  0  0
  -25.5950  -15.4120   20.1560 N   0  0  0  0  0  0  0  0  0  0  0  0
  -24.8600  -16.0820   20.3520 H   0  0  0  0  0  0  0  0  0  0  0  0
  -26.4810  -15.8550   19.9460 H   0  0  0  0  0  0  0  0  0  0  0  0
  -28.4360  -25.0740   19.9980 C   0  0  0  0  0  2  0  0  0  0  0  0
  -28.5300  -26.5570   20.1050 O   0  0  0  0  0  0  0  0  0  0  0  0
  -24.5640  -31.7720   23.1510 C   0  0  0  0  0  0  0  0  0  0  0  0
  -27.3650  -27.3420   20.0650 C   0  0  0  0  0  0  0  0  0  0  0  0
  -23.4260  -30.3560   21.4780 C   0  0  0  0  0  3  0  0  0  0  0  0
  -24.9430  -28.8700   20.0510 C   0  0  0  0  0  0  0  0  0  0  0  0
  -25.9560  -30.7580   21.3320 C   0  0  0  0  0  2  0  0  0  0  0  0
  -26.0870  -29.3920   20.6660 C   0  0  0  0  0  0  0  0  0  0  0  0
  -27.3010  -28.6410   20.6600 C   0  0  0  0  0  3  0  0  0  0  0  0
  -26.1930  -26.8680   19.4340 C   0  0  0  0  0  3  0  0  0  0  0  0
  -24.9980  -27.6140   19.4270 C   0  0  0  0  0  3  0  0  0  0  0  0
  -23.6780  -29.7040   20.0930 C   0  0  0  0  0  2  0  0  0  0  0  0
  -24.6660  -30.9800   22.0430 N   0  0  0  0  0  0  0  0  0  0  0  0
  -23.4660  -32.0090   23.6750 O   0  0  0  0  0  0  0  0  0  0  0  0
  -22.7850  -29.3080   22.4180 C   0  0  0  0  0  0  0  0  0  0  0  0
  -21.4610  -29.1130   22.2920 N   0  0  0  0  0  0  0  0  0  0  0  0
  -23.4770  -28.6740   23.2190 O   0  0  0  0  0  0  0  0  0  0  0  0
  -20.9610  -29.6780   21.6210 H   0  0  0  0  0  0  0  0  0  0  0  0
  -18.1020  -27.8700   22.7990 C   0  0  0  0  0  0  0  0  0  0  0  0
  -20.6610  -28.1450   23.0450 C   0  0  0  0  0  3  0  0  0  0  0  0
  -20.7680  -26.7330   22.4250 C   0  0  0  0  0  2  0  0  0  0  0  0
  -19.6570  -26.4300   21.4150 C   0  0  0  0  0  2  0  0  0  0  0  0
  -18.2820  -26.5440   22.0820 C   0  0  0  0  0  2  0  0  0  0  0  0
  -19.2190  -28.6300   23.2370 C   0  0  0  0  0  0  0  0  0  0  0  0
  -18.9960  -29.8730   23.8700 C   0  0  0  0  0  3  0  0  0  0  0  0
  -17.6890  -30.3560   24.0670 C   0  0  0  0  0  3  0  0  0  0  0  0
  -16.5860  -29.5930   23.6440 C   0  0  0  0  0  3  0  0  0  0  0  0
  -16.7940  -28.3530   23.0150 C   0  0  0  0  0  3  0  0  0  0  0  0
  -25.8200  -32.4370   23.7970 C   0  0  0  0  0  3  0  0  0  0  0  0
  -26.3470  -31.6650   25.0690 C   0  0  1  0  0  0  0  0  0  0  0  0
  -25.2520  -31.3800   26.1230 C   0  0  0  0  0  1  0  0  0  0  0  0
  -26.9780  -30.3100   24.6670 C   0  0  0  0  0  1  0  0  0  0  0  0
  -27.4650  -32.4860   25.7530 C   0  0  0  0  0  1  0  0  0  0  0  0
  -25.4610  -33.8190   24.1450 N   0  0  0  0  0  0  0  0  0  0  0  0
  -25.7650  -34.8940   23.4060 C   0  0  0  0  0  0  0  0  0  0  0  0
  -26.4470  -34.8290   22.3800 O   0  0  0  0  0  0  0  0  0  0  0  0
  -24.8530  -33.9400   24.9420 H   0  0  0  0  0  0  0  0  0  0  0  0
  -23.9800  -36.6350   23.0690 C   0  0  0  0  0  1  0  0  0  0  0  0
  -25.2280  -36.2590   23.8820 C   0  0  0  0  0  3  0  0  0  0  0  0
  -27.3300  -37.1990   24.7380 C   0  0  0  0  0  1  0  0  0  0  0  0
  -26.2260  -37.3480   23.7940 N   0  0  0  0  0  0  0  0  0  0  0  0
  -25.7870  -38.2500   23.9560 H   0  0  0  0  0  0  0  0  0  0  0  0
  2  1  1  0
  3  1  1  0
  4  5  1  6
  4  6  1  0
  4  2  1  0
  6  7  1  1
  6  3  1  0
  8 12  1  0
  8  6  1  0
  9 10  2  0
  9 12  1  0
 10 13  1  0
 11 14  1  0
 12 11  2  0
 13 24  1  0
 13 14  2  0
 14 15  1  0
 16 24  1  0
 17 22  1  0
 18 19  1  0
 18 17  1  0
 20 19  1  0
 20 29  1  0
 20 21  1  0
 22 16  1  0
 22 21  1  0
 23 16  2  0
 24 25  1  0
 26 27  2  0
 27 46  1  0
 28 27  1  0
 28 31  1  0
 29 26  1  0
 29 30  1  0
 30 28  2  0
 31 32  1  0
 32 33  2  0
 34 37  1  0
 34 33  1  0
 35 34  2  0
 36 35  1  0
 36 31  2  0
 37 38  1  0
 38 39  1  0
 39 40  2  0
 41 40  1  0
 41 45  1  0
 42 41  2  0
 43 38  2  0
 43 42  1  0
 44 43  1  0
 46 47  1  0
 47 50  1  0
 47 49  1  0
 48 46  2  0
 51 26  1  0
 51 52  1  0
 53 51  1  0
 54 55  1  0
 54  4  1  0
 56 67  2  0
 57 55  1  0
 57 62  1  0
 58 66  1  0
 58 68  1  0
 59 65  1  0
 59 61  1  0
 60 66  1  0
 61 60  1  0
 62 61  2  0
 63 57  2  0
 64 63  1  0
 64 59  2  0
 65 58  1  0
 66 56  1  0
 68 70  2  0
 69 68  1  0
 71 69  1  0
 72 81  2  0
 72 77  1  0
 73 69  1  0
 73 77  1  0
 74 73  1  0
 75 76  1  0
 75 74  1  0
 76 72  1  0
 77 78  2  0
 78 79  1  0
 80 79  2  0
 81 80  1  0
 82 56  1  0
 82 87  1  0
 82 83  1  0
 83 86  1  1
 83 84  1  0
 85 83  1  0
 87 90  1  0
 88 92  1  0
 88 87  1  0
 89 88  2  0
 92 91  1  0
 94 92  1  0
 94 95  1  0
 94 93  1  0
M  ISO  4  16 100  24 100  54 101  55 101
M  END
>  <TORSDO>  (2) 
F 19

>  <SCORE>  (2) 
-14.087

>  <name>  (2) 
1

>  <ligand_id>  (2) 
1

>  <original_smiles>  (2) 
[H]c1c([H])c([H])c2c(c1[H])C([H])([H])C([H])([H])C([H])([H])C2([H])N([H])C(=O)C1([H])N(C(=O)C([H])(N([H])C(=O)C([H])(N([H])C([H])([H])[H])C([H])([H])[H])C(C([H])([H])[H])(C([H])([H])[H])C([H])([H])[H])C([H])([H])c2c([H])c(OC([H])([H])C3(C([H])([H])[H])C([H])([H])C([H])([H])C([H])([H])[N+]3([H])C([H])([H])c3c([H])c([H])c(N([H])C(=O)N4C([H])([H])C([H])([H])C([H])([H])C([H])(n5nc(-c6c([H])c([H])c(Oc7c([H])c([H])c(F)c([H])c7F)c([H])c6[H])c(C(=O)N([H])[H])c5N([H])[H])C4([H])[H])c(F)c3[H])c([H])c([H])c2C1([H])[H]

>  <smiles>  (2) 
[H]c1c([H])c([H])c2c(c1[H])C([H])([H])C([H])([H])C([H])([H])C2([H])N([H])C(=O)C1([H])N(C(=O)C([H])(N([H])C(=O)C([H])(N([H])C([H])([H])[H])C([H])([H])[H])C(C([H])([H])[H])(C([H])([H])[H])C([H])([H])[H])C([H])([H])c2c([H])c(OC([H])([H])C3(C([H])([H])[H])C([H])([H])C([H])([H])C([H])([H])[N+]3([H])C([H])([H])c3c([H])c([H])c(N([H])C(=O)N4C([H])([H])C([H])([H])C([H])([H])C([H])(n5nc(-c6c([H])c([H])c(Oc7c([H])c([H])c(F)c([H])c7F)c([H])c6[H])c(C(=O)N([H])[H])c5N([H])[H])C4([H])[H])c(F)c3[H])c([H])c([H])c2C1([H])[H]

$$$$
2:0:0
     RDKit          3D

 97105  0  0  1  0  0  0  0  0999 V2000
  -31.5440  -21.2560   20.9290 N   0  0  0  0  0  0  0  0  0  0  0  0
  -30.2740  -17.9120   19.8650 C   0  0  0  0  0  3  0  0  0  0  0  0
  -30.7490  -19.2350   19.8130 C   0  0  0  0  0  3  0  0  0  0  0  0
  -30.8540  -19.2950   22.2420 C   0  0  0  0  0  3  0  0  0  0  0  0
  -30.0970  -17.2660   21.1060 C   0  0  0  0  0  0  0  0  0  0  0  0
  -31.0500  -19.9400   20.9990 C   0  0  0  0  0  0  0  0  0  0  0  0
  -30.3830  -17.9690   22.2970 C   0  0  0  0  0  0  0  0  0  0  0  0
  -30.2240  -17.3680   23.5000 F   0  0  0  0  0  0  0  0  0  0  0  0
  -29.6140  -15.8220   21.1510 C   0  0  0  0  0  2  0  0  0  0  0  0
  -30.8270  -14.1980   19.7720 C   0  0  0  0  0  0  0  0  0  0  0  0
  -30.2440  -12.1990   18.4460 C   0  0  0  0  0  2  0  0  0  0  0  0
  -29.1710  -12.5010   17.3830 C   0  0  0  0  0  2  0  0  0  0  0  0
  -27.7590  -12.3680   17.9810 C   0  0  0  0  0  2  0  0  0  0  0  0
  -27.6040  -13.1460   19.3140 C   0  0  0  0  0  3  0  0  0  0  0  0
  -28.7690  -12.8150   20.2740 C   0  0  0  0  0  2  0  0  0  0  0  0
  -30.0390  -13.1050   19.5860 N   0  0  0  0  0  0  0  0  0  0  0  0
  -31.7630  -14.4850   19.0160 O   0  0  0  0  0  0  0  0  0  0  0  0
  -31.8660  -15.0450   21.7930 C   0  0  0  0  0  1  0  0  0  0  0  0
  -30.6830  -14.8270   20.9580 N   0  0  0  0  0  0  0  0  0  0  0  0
  -25.3020  -13.7840   20.2760 C   0  0  0  0  0  0  0  0  0  0  0  0
  -24.2710  -13.0230   20.7590 C   0  0  0  0  0  0  0  0  0  0  0  0
  -24.7100  -11.6660   20.6760 C   0  0  0  0  0  0  0  0  0  0  0  0
  -26.3060  -12.8910   19.9340 N   0  0  0  0  0  0  0  0  0  0  0  0
  -25.9580  -11.6120   20.2280 N   0  0  0  0  0  0  0  0  0  0  0  0
  -23.9960  -10.4110   20.9430 C   0  0  0  0  0  0  0  0  0  0  0  0
  -24.4450   -9.5020   21.9250 C   0  0  0  0  0  3  0  0  0  0  0  0
  -23.7310   -8.3100   22.1760 C   0  0  0  0  0  3  0  0  0  0  0  0
  -22.5540   -8.0200   21.4450 C   0  0  0  0  0  0  0  0  0  0  0  0
  -22.1240   -8.9190   20.4520 C   0  0  0  0  0  3  0  0  0  0  0  0
  -22.8390  -10.1020   20.2000 C   0  0  0  0  0  3  0  0  0  0  0  0
  -21.8110   -6.8750   21.6010 O   0  0  0  0  0  0  0  0  0  0  0  0
  -21.6950   -6.2540   22.8190 C   0  0  0  0  0  0  0  0  0  0  0  0
  -21.1810   -6.9230   23.9510 C   0  0  0  0  0  3  0  0  0  0  0  0
  -21.0150   -6.2270   25.1640 C   0  0  0  0  0  3  0  0  0  0  0  0
  -21.3510   -4.8620   25.2460 C   0  0  0  0  0  0  0  0  0  0  0  0
  -21.8570   -4.1930   24.1180 C   0  0  0  0  0  3  0  0  0  0  0  0
  -22.0260   -4.8870   22.9080 C   0  0  0  0  0  0  0  0  0  0  0  0
  -22.4950   -4.2320   21.8180 F   0  0  0  0  0  0  0  0  0  0  0  0
  -21.1820   -4.1920   26.4100 F   0  0  0  0  0  0  0  0  0  0  0  0
  -22.9180  -13.5150   21.1840 C   0  0  0  0  0  0  0  0  0  0  0  0
  -22.2940  -12.8410   22.1450 N   0  0  0  0  0  0  0  0  0  0  0  0
  -22.4240  -14.5320   20.6970 O   0  0  0  0  0  0  0  0  0  0  0  0
  -22.7070  -12.0180   22.5570 H   0  0  0  0  0  0  0  0  0  0  0  0
  -21.3910  -13.1540   22.4720 H   0  0  0  0  0  0  0  0  0  0  0  0
  -25.4610  -15.1530   20.0820 N   0  0  0  0  0  0  0  0  0  0  0  0
  -24.7140  -15.8130   20.2710 H   0  0  0  0  0  0  0  0  0  0  0  0
  -26.2680  -15.5830   19.6460 H   0  0  0  0  0  0  0  0  0  0  0  0
  -32.9050  -21.4720   20.4410 C   0  0  0  0  0  2  0  0  0  0  0  0
  -35.3810  -21.2940   20.9840 C   0  0  0  0  0  1  0  0  0  0  0  0
  -33.9520  -21.1530   21.5180 C   0  0  0  0  0  2  0  0  0  0  0  0
  -30.7910  -22.3640   21.5190 C   0  0  0  0  0  2  0  0  0  0  0  0
  -30.0540  -23.1790   20.4440 C   0  0  0  0  0  2  0  0  0  0  0  0
  -29.4850  -24.5060   20.9680 C   0  0  1  0  0  0  0  0  0  0  0  0
  -28.5780  -24.2590   21.9150 F   0  0  0  0  0  0  0  0  0  0  0  0
  -30.4880  -25.2120   21.4960 F   0  0  0  0  0  0  0  0  0  0  0  0
  -28.8330  -25.3260   19.8420 C   0  0  0  0  0  2  0  0  0  0  0  0
  -28.6400  -26.6620   20.3010 O   0  0  0  0  0  0  0  0  0  0  0  0
  -24.6560  -31.7040   23.2670 C   0  0  0  0  0  0  0  0  0  0  0  0
  -27.4080  -27.2760   20.2760 C   0  0  0  0  0  0  0  0  0  0  0  0
  -23.4950  -30.2780   21.6110 C   0  0  0  0  0  3  0  0  0  0  0  0
  -24.9880  -28.7380   20.2380 C   0  0  0  0  0  0  0  0  0  0  0  0
  -26.0180  -30.6590   21.4630 C   0  0  0  0  0  2  0  0  0  0  0  0
  -26.1250  -29.2830   20.8440 C   0  0  0  0  0  0  0  0  0  0  0  0
  -27.3330  -28.5570   20.8620 C   0  0  0  0  0  3  0  0  0  0  0  0
  -26.2490  -26.7350   19.6700 C   0  0  0  0  0  3  0  0  0  0  0  0
  -25.0420  -27.4600   19.6560 C   0  0  0  0  0  3  0  0  0  0  0  0
  -23.7380  -29.5850   20.2450 C   0  0  0  0  0  2  0  0  0  0  0  0
  -24.7400  -30.8950   22.1740 N   0  0  0  0  0  0  0  0  0  0  0  0
  -23.5620  -31.9720   23.7820 O   0  0  0  0  0  0  0  0  0  0  0  0
  -22.8330  -29.2600   22.5660 C   0  0  0  0  0  0  0  0  0  0  0  0
  -21.5210  -29.0360   22.3830 N   0  0  0  0  0  0  0  0  0  0  0  0
  -23.4970  -28.6720   23.4240 O   0  0  0  0  0  0  0  0  0  0  0  0
  -21.0470  -29.5650   21.6650 H   0  0  0  0  0  0  0  0  0  0  0  0
  -18.1700  -27.7380   22.7340 C   0  0  0  0  0  0  0  0  0  0  0  0
  -20.6980  -28.0920   23.1370 C   0  0  0  0  0  3  0  0  0  0  0  0
  -20.8810  -26.6500   22.6130 C   0  0  0  0  0  2  0  0  0  0  0  0
  -19.8490  -26.2590   21.5510 C   0  0  0  0  0  2  0  0  0  0  0  0
  -18.4300  -26.3750   22.1140 C   0  0  0  0  0  2  0  0  0  0  0  0
  -19.2370  -28.5510   23.2010 C   0  0  0  0  0  0  0  0  0  0  0  0
  -18.9450  -29.8250   23.7350 C   0  0  0  0  0  3  0  0  0  0  0  0
  -17.6170  -30.2870   23.8100 C   0  0  0  0  0  3  0  0  0  0  0  0
  -16.5640  -29.4710   23.3620 C   0  0  0  0  0  3  0  0  0  0  0  0
  -16.8400  -28.1990   22.8290 C   0  0  0  0  0  3  0  0  0  0  0  0
  -25.9260  -32.3470   23.9080 C   0  0  0  0  0  3  0  0  0  0  0  0
  -25.6040  -33.7470   24.2160 N   0  0  0  0  0  0  0  0  0  0  0  0
  -25.9400  -34.7920   23.4480 C   0  0  0  0  0  0  0  0  0  0  0  0
  -26.6280  -34.6790   22.4290 O   0  0  0  0  0  0  0  0  0  0  0  0
  -24.9920  -33.9080   25.0030 H   0  0  0  0  0  0  0  0  0  0  0  0
  -24.2060  -36.5670   23.0350 C   0  0  0  0  0  1  0  0  0  0  0  0
  -25.4330  -36.1810   23.8770 C   0  0  0  0  0  3  0  0  0  0  0  0
  -27.5430  -37.0920   24.7440 C   0  0  0  0  0  1  0  0  0  0  0  0
  -26.4600  -37.2400   23.7740 N   0  0  0  0  0  0  0  0  0  0  0  0
  -26.0440  -38.1580   23.9030 H   0  0  0  0  0  0  0  0  0  0  0  0
  -26.4230  -31.5900   25.2010 C   0  0  1  0  0  0  0  0  0  0  0  0
  -25.3060  -31.3310   26.2370 C   0  0  0  0  0  1  0  0  0  0  0  0
  -27.0470  -30.2260   24.8270 C   0  0  0  0  0  1  0  0  0  0  0  0
  -27.5360  -32.4110   25.8930 C   0  0  0  0  0  1  0  0  0  0  0  0
  1  6  1  0
  1 51  1  0
  2  5  1  0
  3  2  2  0
  3  6  1  0
  4  7  1  0
  5  9  1  0
  5  7  2  0
  6  4  2  0
  7  8  1  0
 10 19  1  0
 11 16  1  0
 12 13  1  0
 12 11  1  0
 14 13  1  0
 14 23  1  0
 14 15  1  0
 16 10  1  0
 16 15  1  0
 17 10  2  0
 19  9  1  0
 19 18  1  0
 20 21  2  0
 21 40  1  0
 22 21  1  0
 22 25  1  0
 23 24  1  0
 23 20  1  0
 24 22  2  0
 25 26  1  0
 26 27  2  0
 28 31  1  0
 28 27  1  0
 29 28  2  0
 30 29  1  0
 30 25  2  0
 31 32  1  0
 32 37  2  0
 32 33  1  0
 33 34  2  0
 34 35  1  0
 35 39  1  0
 36 35  2  0
 37 36  1  0
 38 37  1  0
 40 41  1  0
 41 44  1  0
 41 43  1  0
 42 40  2  0
 45 46  1  0
 45 20  1  0
 47 45  1  0
 48  1  1  0
 48 50  1  0
 49 50  1  0
 52 53  1  0
 52 51  1  0
 53 55  1  1
 53 54  1  0
 56 57  1  0
 56 53  1  0
 58 69  2  0
 59 57  1  0
 59 64  1  0
 60 68  1  0
 60 70  1  0
 61 67  1  0
 61 63  1  0
 62 68  1  0
 63 64  2  0
 63 62  1  0
 65 59  2  0
 66 65  1  0
 66 61  2  0
 67 60  1  0
 68 58  1  0
 70 72  2  0
 71 70  1  0
 73 71  1  0
 74 83  2  0
 74 79  1  0
 75 71  1  0
 75 79  1  0
 76 75  1  0
 77 78  1  0
 77 76  1  0
 78 74  1  0
 79 80  2  0
 80 81  1  0
 82 81  2  0
 83 82  1  0
 84 58  1  0
 84 85  1  0
 84 94  1  0
 85 88  1  0
 86 90  1  0
 86 85  1  0
 87 86  2  0
 90 89  1  0
 92 90  1  0
 92 93  1  0
 92 91  1  0
 94 97  1  1
 94 95  1  0
 96 94  1  0
M  ISO  4  10 100  19 100  56 101  57 101
M  END
>  <TORSDO>  (3) 
F 24

>  <SCORE>  (3) 
-10.969

>  <name>  (3) 
2

>  <ligand_id>  (3) 
2

>  <original_smiles>  (3) 
[H]c1c([H])c([H])c2c(c1[H])C([H])([H])C([H])([H])C([H])([H])C2([H])N([H])C(=O)C1([H])N(C(=O)C([H])(N([H])C(=O)C([H])(N([H])C([H])([H])[H])C([H])([H])[H])C(C([H])([H])[H])(C([H])([H])[H])C([H])([H])[H])C([H])([H])c2c([H])c(OC([H])([H])C(F)(F)C([H])([H])C([H])([H])N(c3c([H])c([H])c(C([H])([H])N(C(=O)N4C([H])([H])C([H])([H])C([H])([H])C([H])(n5nc(-c6c([H])c([H])c(Oc7c([H])c([H])c(F)c([H])c7F)c([H])c6[H])c(C(=O)N([H])[H])c5N([H])[H])C4([H])[H])C([H])([H])[H])c(F)c3[H])C([H])([H])C([H])([H])C([H])([H])[H])c([H])c([H])c2C1([H])[H]

>  <smiles>  (3) 
[H]c1c([H])c([H])c2c(c1[H])C([H])([H])C([H])([H])C([H])([H])C2([H])N([H])C(=O)C1([H])N(C(=O)C([H])(N([H])C(=O)C([H])(N([H])C([H])([H])[H])C([H])([H])[H])C(C([H])([H])[H])(C([H])([H])[H])C([H])([H])[H])C([H])([H])c2c([H])c(OC([H])([H])C(F)(F)C([H])([H])C([H])([H])N(c3c([H])c([H])c(C([H])([H])N(C(=O)N4C([H])([H])C([H])([H])C([H])([H])C([H])(n5nc(-c6c([H])c([H])c(Oc7c([H])c([H])c(F)c([H])c7F)c([H])c6[H])c(C(=O)N([H])[H])c5N([H])[H])C4([H])[H])C([H])([H])[H])c(F)c3[H])C([H])([H])C([H])([H])C([H])([H])[H])c([H])c([H])c2C1([H])[H]

$$$$
3:0:0
     RDKit          3D

 93101  0  0  1  0  0  0  0  0999 V2000
  -29.3960  -21.9880   20.6310 N   0  0  2  0  0  4  0  0  0  0  0  0
  -29.6990  -21.9610   19.6680 H   0  0  0  0  0  0  0  0  0  0  0  0
  -27.2100  -21.7110   21.9230 C   0  0  0  0  0  1  0  0  0  0  0  0
  -27.9860  -21.5030   20.6070 C   0  0  0  0  0  2  0  0  0  0  0  0
  -30.3670  -21.1070   21.3530 C   0  0  0  0  0  2  0  0  0  0  0  0
  -30.1940  -18.7750   22.3480 C   0  0  0  0  0  3  0  0  0  0  0  0
  -30.3770  -18.9380   19.9390 C   0  0  0  0  0  3  0  0  0  0  0  0
  -30.2950  -17.3730   22.2630 C   0  0  0  0  0  3  0  0  0  0  0  0
  -30.4500  -17.5260   19.8530 C   0  0  0  0  0  3  0  0  0  0  0  0
  -30.2650  -19.5800   21.1920 C   0  0  0  0  0  0  0  0  0  0  0  0
  -30.4560  -16.7110   21.0190 C   0  0  0  0  0  0  0  0  0  0  0  0
  -30.8590  -14.5510   19.8600 C   0  0  0  0  0  0  0  0  0  0  0  0
  -30.2880  -12.5320   18.5410 C   0  0  0  0  0  2  0  0  0  0  0  0
  -29.2450  -12.8360   17.4520 C   0  0  0  0  0  2  0  0  0  0  0  0
  -27.8180  -12.7040   18.0170 C   0  0  0  0  0  2  0  0  0  0  0  0
  -27.6360  -13.4890   19.3430 C   0  0  0  0  0  3  0  0  0  0  0  0
  -28.7800  -13.1840   20.3320 C   0  0  0  0  0  2  0  0  0  0  0  0
  -30.0680  -13.4560   19.6660 N   0  0  0  0  0  0  0  0  0  0  0  0
  -31.7890  -14.8370   19.0960 O   0  0  0  0  0  0  0  0  0  0  0  0
  -30.9650  -14.5850   22.2560 C   0  0  0  0  0  1  0  0  0  0  0  0
  -30.6400  -15.2710   20.9920 N   0  0  0  0  0  0  0  0  0  0  0  0
  -25.3470  -14.1340   20.3290 C   0  0  0  0  0  0  0  0  0  0  0  0
  -24.2930  -13.3780   20.7670 C   0  0  0  0  0  0  0  0  0  0  0  0
  -24.6960  -12.0150   20.6160 C   0  0  0  0  0  0  0  0  0  0  0  0
  -26.3280  -13.2330   19.9430 N   0  0  0  0  0  0  0  0  0  0  0  0
  -25.9430  -11.9510   20.1690 N   0  0  0  0  0  0  0  0  0  0  0  0
  -23.9450  -10.7680   20.8130 C   0  0  0  0  0  0  0  0  0  0  0  0
  -24.3920   -9.7720   21.7100 C   0  0  0  0  0  3  0  0  0  0  0  0
  -23.6430   -8.5900   21.8970 C   0  0  0  0  0  3  0  0  0  0  0  0
  -22.4350   -8.3950   21.1860 C   0  0  0  0  0  0  0  0  0  0  0  0
  -22.0070   -9.3810   20.2790 C   0  0  0  0  0  3  0  0  0  0  0  0
  -22.7550  -10.5550   20.0900 C   0  0  0  0  0  3  0  0  0  0  0  0
  -21.6530   -7.2680   21.2840 O   0  0  0  0  0  0  0  0  0  0  0  0
  -21.5810   -6.5440   22.4470 C   0  0  0  0  0  0  0  0  0  0  0  0
  -21.1760   -7.1280   23.6670 C   0  0  0  0  0  3  0  0  0  0  0  0
  -21.0460   -6.3300   24.8220 C   0  0  0  0  0  3  0  0  0  0  0  0
  -21.3120   -4.9490   24.7580 C   0  0  0  0  0  0  0  0  0  0  0  0
  -21.7110   -4.3650   23.5420 C   0  0  0  0  0  3  0  0  0  0  0  0
  -21.8420   -5.1590   22.3900 C   0  0  0  0  0  0  0  0  0  0  0  0
  -22.2050   -4.5870   21.2170 F   0  0  0  0  0  0  0  0  0  0  0  0
  -21.1820   -4.1800   25.8640 F   0  0  0  0  0  0  0  0  0  0  0  0
  -22.9510  -13.8830   21.2110 C   0  0  0  0  0  0  0  0  0  0  0  0
  -22.3040  -13.1790   22.1330 N   0  0  0  0  0  0  0  0  0  0  0  0
  -22.4890  -14.9350   20.7730 O   0  0  0  0  0  0  0  0  0  0  0  0
  -22.6910  -12.3250   22.5080 H   0  0  0  0  0  0  0  0  0  0  0  0
  -21.4060  -13.4980   22.4700 H   0  0  0  0  0  0  0  0  0  0  0  0
  -25.5480  -15.5060   20.2100 N   0  0  0  0  0  0  0  0  0  0  0  0
  -24.8320  -16.1850   20.4420 H   0  0  0  0  0  0  0  0  0  0  0  0
  -26.3930  -15.9280   19.8440 H   0  0  0  0  0  0  0  0  0  0  0  0
  -29.5610  -23.4120   21.0780 C   0  0  0  0  0  2  0  0  0  0  0  0
  -28.8500  -24.5050   20.2320 C   0  0  0  0  0  2  0  0  0  0  0  0
  -29.1180  -25.9220   20.7990 C   0  0  0  0  0  2  0  0  0  0  0  0
  -28.8340  -26.9700   19.8700 O   0  0  0  0  0  0  0  0  0  0  0  0
  -24.7030  -31.8390   23.0930 C   0  0  0  0  0  0  0  0  0  0  0  0
  -27.6120  -27.5880   19.9810 C   0  0  0  0  0  0  0  0  0  0  0  0
  -23.5770  -30.3560   21.4620 C   0  0  0  0  0  3  0  0  0  0  0  0
  -25.1170  -28.9100   20.0320 C   0  0  0  0  0  0  0  0  0  0  0  0
  -26.0680  -30.8860   21.2360 C   0  0  0  0  0  2  0  0  0  0  0  0
  -26.2420  -29.5200   20.6030 C   0  0  0  0  0  0  0  0  0  0  0  0
  -27.4930  -28.8650   20.5750 C   0  0  0  0  0  3  0  0  0  0  0  0
  -26.4720  -26.9820   19.4170 C   0  0  0  0  0  3  0  0  0  0  0  0
  -25.2240  -27.6360   19.4430 C   0  0  0  0  0  3  0  0  0  0  0  0
  -23.8180  -29.6820   20.0840 C   0  0  0  0  0  2  0  0  0  0  0  0
  -24.8000  -31.0440   21.9880 N   0  0  0  0  0  0  0  0  0  0  0  0
  -23.6120  -32.0380   23.6440 O   0  0  0  0  0  0  0  0  0  0  0  0
  -23.0050  -29.2970   22.4310 C   0  0  0  0  0  0  0  0  0  0  0  0
  -21.6950  -29.0240   22.3130 N   0  0  0  0  0  0  0  0  0  0  0  0
  -23.7350  -28.7220   23.2410 O   0  0  0  0  0  0  0  0  0  0  0  0
  -21.1640  -29.5440   21.6280 H   0  0  0  0  0  0  0  0  0  0  0  0
  -18.4160  -27.5950   22.8270 C   0  0  0  0  0  0  0  0  0  0  0  0
  -20.9500  -28.0340   23.0890 C   0  0  0  0  0  3  0  0  0  0  0  0
  -21.1510  -26.6100   22.5170 C   0  0  0  0  0  2  0  0  0  0  0  0
  -20.0720  -26.2090   21.5070 C   0  0  0  0  0  2  0  0  0  0  0  0
  -18.6850  -26.2590   22.1550 C   0  0  0  0  0  2  0  0  0  0  0  0
  -19.4800  -28.4350   23.2500 C   0  0  0  0  0  0  0  0  0  0  0  0
  -19.1750  -29.6820   23.8360 C   0  0  0  0  0  3  0  0  0  0  0  0
  -17.8380  -30.0910   24.0060 C   0  0  0  0  0  3  0  0  0  0  0  0
  -16.7880  -29.2480   23.6000 C   0  0  0  0  0  3  0  0  0  0  0  0
  -17.0790  -28.0020   23.0160 C   0  0  0  0  0  3  0  0  0  0  0  0
  -25.9500  -32.5550   23.6990 C   0  0  0  0  0  3  0  0  0  0  0  0
  -25.5590  -33.9350   24.0130 N   0  0  0  0  0  0  0  0  0  0  0  0
  -25.8230  -34.9950   23.2360 C   0  0  0  0  0  0  0  0  0  0  0  0
  -26.4920  -34.9170   22.2020 O   0  0  0  0  0  0  0  0  0  0  0  0
  -24.9620  -34.0640   24.8160 H   0  0  0  0  0  0  0  0  0  0  0  0
  -23.9870  -36.6750   22.8650 C   0  0  0  0  0  1  0  0  0  0  0  0
  -25.2530  -36.3570   23.6770 C   0  0  0  0  0  3  0  0  0  0  0  0
  -27.3350  -37.3790   24.4830 C   0  0  0  0  0  1  0  0  0  0  0  0
  -26.2190  -37.4700   23.5460 N   0  0  0  0  0  0  0  0  0  0  0  0
  -25.7580  -38.3640   23.6910 H   0  0  0  0  0  0  0  0  0  0  0  0
  -26.5210  -31.8310   24.9810 C   0  0  1  0  0  0  0  0  0  0  0  0
  -25.4500  -31.5230   26.0540 C   0  0  0  0  0  1  0  0  0  0  0  0
  -27.1970  -30.4940   24.5960 C   0  0  0  0  0  1  0  0  0  0  0  0
  -27.6150  -32.7080   25.6340 C   0  0  0  0  0  1  0  0  0  0  0  0
  1 50  1  0
  1  5  1  0
  1  2  1  6
  4  1  1  0
  4  3  1  0
  7 10  1  0
  8  6  1  0
  9  7  2  0
  9 11  1  0
 10  5  1  0
 10  6  2  0
 11  8  2  0
 12 21  1  0
 13 18  1  0
 14 15  1  0
 14 13  1  0
 16 15  1  0
 16 25  1  0
 16 17  1  0
 18 12  1  0
 18 17  1  0
 19 12  2  0
 21 11  1  0
 21 20  1  0
 22 23  2  0
 23 42  1  0
 24 23  1  0
 24 27  1  0
 25 26  1  0
 25 22  1  0
 26 24  2  0
 27 28  1  0
 28 29  2  0
 30 33  1  0
 30 29  1  0
 31 30  2  0
 32 31  1  0
 32 27  2  0
 33 34  1  0
 34 35  1  0
 35 36  2  0
 37 36  1  0
 37 41  1  0
 38 37  2  0
 39 34  2  0
 39 38  1  0
 40 39  1  0
 42 43  1  0
 43 46  1  0
 43 45  1  0
 44 42  2  0
 47 22  1  0
 47 48  1  0
 49 47  1  0
 51 52  1  0
 51 50  1  0
 53 55  1  0
 53 52  1  0
 54 65  2  0
 55 60  1  0
 56 64  1  0
 56 66  1  0
 57 63  1  0
 57 59  1  0
 58 64  1  0
 59 58  1  0
 60 59  2  0
 61 62  1  0
 61 55  2  0
 62 57  2  0
 63 56  1  0
 64 54  1  0
 66 68  2  0
 67 66  1  0
 69 67  1  0
 70 79  2  0
 70 75  1  0
 71 67  1  0
 71 75  1  0
 72 71  1  0
 73 74  1  0
 73 72  1  0
 74 70  1  0
 75 76  2  0
 76 77  1  0
 78 77  2  0
 79 78  1  0
 80 54  1  0
 80 81  1  0
 80 90  1  0
 81 84  1  0
 82 86  1  0
 82 81  1  0
 83 82  2  0
 86 85  1  0
 88 86  1  0
 88 89  1  0
 88 87  1  0
 90 93  1  1
 90 91  1  0
 92 90  1  0
M  ISO  4  12 100  21 100  52 101  53 101
M  END
>  <TORSDO>  (4) 
F 22

>  <SCORE>  (4) 
-9.522

>  <name>  (4) 
3

>  <ligand_id>  (4) 
3

>  <original_smiles>  (4) 
[H]c1c([H])c([H])c2c(c1[H])C([H])([H])C([H])([H])C([H])([H])C2([H])N([H])C(=O)C1([H])N(C(=O)C([H])(N([H])C(=O)C([H])(N([H])C([H])([H])[H])C([H])([H])[H])C(C([H])([H])[H])(C([H])([H])[H])C([H])([H])[H])C([H])([H])c2c([H])c(OC([H])([H])C([H])([H])C([H])([H])[N+]([H])(C([H])([H])c3c([H])c([H])c(N(C(=O)N4C([H])([H])C([H])([H])C([H])([H])C([H])(n5nc(-c6c([H])c([H])c(Oc7c([H])c([H])c(F)c([H])c7F)c([H])c6[H])c(C(=O)N([H])[H])c5N([H])[H])C4([H])[H])C([H])([H])[H])c([H])c3[H])C([H])([H])C([H])([H])[H])c([H])c([H])c2C1([H])[H]

>  <smiles>  (4) 
[H]c1c([H])c([H])c2c(c1[H])C([H])([H])C([H])([H])C([H])([H])C2([H])N([H])C(=O)C1([H])N(C(=O)C([H])(N([H])C(=O)C([H])(N([H])C([H])([H])[H])C([H])([H])[H])C(C([H])([H])[H])(C([H])([H])[H])C([H])([H])[H])C([H])([H])c2c([H])c(OC([H])([H])C([H])([H])C([H])([H])[N+]([H])(C([H])([H])c3c([H])c([H])c(N(C(=O)N4C([H])([H])C([H])([H])C([H])([H])C([H])(n5nc(-c6c([H])c([H])c(Oc7c([H])c([H])c(F)c([H])c7F)c([H])c6[H])c(C(=O)N([H])[H])c5N([H])[H])C4([H])[H])C([H])([H])[H])c([H])c3[H])C([H])([H])C([H])([H])[H])c([H])c([H])c2C1([H])[H]

$$$$
4:0:0
     RDKit          3D

 99108  0  0  1  0  0  0  0  0999 V2000
  -30.5230  -17.8360   18.5270 C   0  0  0  0  0  3  0  0  0  0  0  0
  -30.9180  -16.4900   18.5950 C   0  0  0  0  0  3  0  0  0  0  0  0
  -29.3750  -17.5880   20.6490 C   0  0  0  0  0  3  0  0  0  0  0  0
  -29.7580  -18.4000   19.5610 C   0  0  0  0  0  0  0  0  0  0  0  0
  -29.7250  -16.2160   20.7140 C   0  0  0  0  0  0  0  0  0  0  0  0
  -30.5420  -15.6580   19.6830 C   0  0  0  0  0  0  0  0  0  0  0  0
  -31.1010  -13.4960   18.6990 C   0  0  0  0  0  0  0  0  0  0  0  0
  -30.1860  -11.4790   17.6130 C   0  0  0  0  0  2  0  0  0  0  0  0
  -29.0250  -11.8060   16.6590 C   0  0  0  0  0  2  0  0  0  0  0  0
  -27.6890  -11.8310   17.4240 C   0  0  0  0  0  2  0  0  0  0  0  0
  -27.7580  -12.7010   18.7070 C   0  0  0  0  0  3  0  0  0  0  0  0
  -29.0070  -12.3560   19.5480 C   0  0  0  0  0  2  0  0  0  0  0  0
  -30.1970  -12.4800   18.6920 N   0  0  0  0  0  0  0  0  0  0  0  0
  -31.9810  -13.6110   17.8390 O   0  0  0  0  0  0  0  0  0  0  0  0
  -32.1710  -14.1240   20.7290 C   0  0  0  0  0  1  0  0  0  0  0  0
  -31.0760  -14.3250   19.7700 N   0  0  0  0  0  0  0  0  0  0  0  0
  -25.7230  -13.5830   20.0150 C   0  0  0  0  0  0  0  0  0  0  0  0
  -24.6600  -12.9440   20.5950 C   0  0  0  0  0  0  0  0  0  0  0  0
  -24.8890  -11.5470   20.4050 C   0  0  0  0  0  0  0  0  0  0  0  0
  -26.5300  -12.5850   19.4930 N   0  0  0  0  0  0  0  0  0  0  0  0
  -26.0510  -11.3520   19.7920 N   0  0  0  0  0  0  0  0  0  0  0  0
  -24.0510  -10.3860   20.7310 C   0  0  0  0  0  0  0  0  0  0  0  0
  -24.4260   -9.4620   21.7320 C   0  0  0  0  0  3  0  0  0  0  0  0
  -23.5940   -8.3630   22.0400 C   0  0  0  0  0  3  0  0  0  0  0  0
  -22.3730   -8.1840   21.3480 C   0  0  0  0  0  0  0  0  0  0  0  0
  -22.0150   -9.0950   20.3390 C   0  0  0  0  0  3  0  0  0  0  0  0
  -22.8450  -10.1850   20.0300 C   0  0  0  0  0  3  0  0  0  0  0  0
  -21.5140   -7.1320   21.5580 O   0  0  0  0  0  0  0  0  0  0  0  0
  -21.5580   -6.3860   22.7090 C   0  0  0  0  0  0  0  0  0  0  0  0
  -20.9780   -6.8400   23.9130 C   0  0  0  0  0  3  0  0  0  0  0  0
  -20.9830   -6.0110   25.0540 C   0  0  0  0  0  3  0  0  0  0  0  0
  -21.5610   -4.7280   24.9900 C   0  0  0  0  0  0  0  0  0  0  0  0
  -22.1350   -4.2740   23.7890 C   0  0  0  0  0  3  0  0  0  0  0  0
  -22.1310   -5.1000   22.6520 C   0  0  0  0  0  0  0  0  0  0  0  0
  -22.6660   -4.6470   21.4920 F   0  0  0  0  0  0  0  0  0  0  0  0
  -21.5610   -3.9300   26.0820 F   0  0  0  0  0  0  0  0  0  0  0  0
  -23.4540  -13.5920   21.2110 C   0  0  0  0  0  0  0  0  0  0  0  0
  -22.9110  -12.9990   22.2670 N   0  0  0  0  0  0  0  0  0  0  0  0
  -23.0170  -14.6610   20.7840 O   0  0  0  0  0  0  0  0  0  0  0  0
  -23.2780  -12.1290   22.6250 H   0  0  0  0  0  0  0  0  0  0  0  0
  -22.1100  -13.4150   22.7190 H   0  0  0  0  0  0  0  0  0  0  0  0
  -26.0810  -14.9240   19.8900 N   0  0  0  0  0  0  0  0  0  0  0  0
  -25.3260  -15.5870   20.0300 H   0  0  0  0  0  0  0  0  0  0  0  0
  -26.6450  -15.1860   19.0900 H   0  0  0  0  0  0  0  0  0  0  0  0
  -29.2090  -15.3960   21.9050 C   0  0  0  0  0  2  0  0  0  0  0  0
  -27.9520  -12.1870   22.8900 C   0  0  0  0  0  2  0  0  0  0  0  0
  -29.2950  -11.7240   22.3420 C   0  0  0  0  0  2  0  0  0  0  0  0
  -27.6340  -13.4470   22.0770 C   0  0  0  0  0  2  0  0  0  0  0  0
  -29.9900  -13.0390   21.9960 C   0  0  0  0  0  2  0  0  0  0  0  0
  -28.9230  -13.9760   21.5620 N   0  0  2  0  0  4  0  0  0  0  0  0
  -28.8630  -13.9010   20.5530 H   0  0  0  0  0  0  0  0  0  0  0  0
  -29.2590  -19.8390   19.4540 C   0  0  0  0  0  2  0  0  0  0  0  0
  -30.6620  -20.5030   21.3930 C   0  0  0  0  0  1  0  0  0  0  0  0
  -30.1190  -20.8920   20.0680 N   0  0  2  0  0  4  0  0  0  0  0  0
  -30.9040  -21.0240   19.4490 H   0  0  0  0  0  0  0  0  0  0  0  0
  -29.3580  -22.1720   20.1020 C   0  0  0  0  0  2  0  0  0  0  0  0
  -30.0860  -23.4740   20.5380 C   0  0  0  0  0  2  0  0  0  0  0  0
  -29.0650  -24.6170   20.3560 C   0  0  0  0  0  2  0  0  0  0  0  0
  -29.3740  -25.9380   20.8360 O   0  0  0  0  0  0  0  0  0  0  0  0
  -27.4380  -31.4500   24.9100 C   0  0  0  0  0  0  0  0  0  0  0  0
  -28.4040  -26.4650   21.6780 C   0  0  0  0  0  0  0  0  0  0  0  0
  -26.2190  -29.3370   25.3000 C   0  0  0  0  0  3  0  0  0  0  0  0
  -26.5430  -27.5340   23.5310 C   0  0  0  0  0  0  0  0  0  0  0  0
  -27.1870  -29.8820   22.9900 C   0  0  0  0  0  2  0  0  0  0  0  0
  -27.3460  -28.3910   22.7690 C   0  0  0  0  0  0  0  0  0  0  0  0
  -28.2750  -27.8660   21.8380 C   0  0  0  0  0  3  0  0  0  0  0  0
  -27.5430  -25.6260   22.4340 C   0  0  0  0  0  3  0  0  0  0  0  0
  -26.6370  -26.1470   23.3660 C   0  0  0  0  0  3  0  0  0  0  0  0
  -25.5830  -28.1620   24.5140 C   0  0  0  0  0  2  0  0  0  0  0  0
  -26.9940  -30.2620   24.4100 N   0  0  0  0  0  0  0  0  0  0  0  0
  -27.1750  -31.7940   26.0720 O   0  0  0  0  0  0  0  0  0  0  0  0
  -27.0550  -28.7610   26.4650 C   0  0  0  0  0  0  0  0  0  0  0  0
  -26.3850  -28.4340   27.5820 N   0  0  0  0  0  0  0  0  0  0  0  0
  -28.2720  -28.5940   26.3480 O   0  0  0  0  0  0  0  0  0  0  0  0
  -25.3880  -28.6040   27.6030 H   0  0  0  0  0  0  0  0  0  0  0  0
  -26.1170  -28.3530   31.1830 C   0  0  0  0  0  0  0  0  0  0  0  0
  -26.9600  -27.8480   28.7930 C   0  0  0  0  0  3  0  0  0  0  0  0
  -26.4340  -26.4120   29.0180 C   0  0  0  0  0  2  0  0  0  0  0  0
  -25.2000  -26.3570   29.9240 C   0  0  0  0  0  2  0  0  0  0  0  0
  -25.5120  -26.9620   31.2960 C   0  0  0  0  0  2  0  0  0  0  0  0
  -26.7830  -28.7730   30.0020 C   0  0  0  0  0  0  0  0  0  0  0  0
  -27.2940  -30.0890   29.9380 C   0  0  0  0  0  3  0  0  0  0  0  0
  -27.1570  -30.9700   31.0270 C   0  0  0  0  0  3  0  0  0  0  0  0
  -26.5100  -30.5410   32.1990 C   0  0  0  0  0  3  0  0  0  0  0  0
  -25.9960  -29.2350   32.2770 C   0  0  0  0  0  3  0  0  0  0  0  0
  -28.2680  -32.4430   24.0400 C   0  0  0  0  0  3  0  0  0  0  0  0
  -27.8580  -33.8030   24.4120 N   0  0  0  0  0  0  0  0  0  0  0  0
  -27.0820  -34.5950   23.6600 C   0  0  0  0  0  0  0  0  0  0  0  0
  -26.6910  -34.2770   22.5340 O   0  0  0  0  0  0  0  0  0  0  0  0
  -28.0980  -34.1110   25.3430 H   0  0  0  0  0  0  0  0  0  0  0  0
  -25.1820  -36.2080   23.9940 C   0  0  0  0  0  1  0  0  0  0  0  0
  -26.6770  -35.9580   24.2530 C   0  0  0  0  0  3  0  0  0  0  0  0
  -28.8310  -37.1370   24.2500 C   0  0  0  0  0  1  0  0  0  0  0  0
  -27.4700  -37.0890   23.7230 N   0  0  0  0  0  0  0  0  0  0  0  0
  -27.0160  -37.9730   23.9330 H   0  0  0  0  0  0  0  0  0  0  0  0
  -29.8260  -32.2610   24.2060 C   0  0  1  0  0  0  0  0  0  0  0  0
  -30.3130  -32.3820   25.6680 C   0  0  0  0  0  1  0  0  0  0  0  0
  -30.2740  -30.8800   23.6720 C   0  0  0  0  0  1  0  0  0  0  0  0
  -30.5690  -33.3240   23.3630 C   0  0  0  0  0  1  0  0  0  0  0  0
  1  2  2  0
  1  4  1  0
  2  6  1  0
  3  5  1  0
  4  3  2  0
  5 45  1  0
  6 16  1  0
  6  5  2  0
  7 16  1  0
  8 13  1  0
  9 10  1  0
  9  8  1  0
 11 10  1  0
 11 20  1  0
 11 12  1  0
 13  7  1  0
 13 12  1  0
 14  7  2  0
 16 15  1  0
 17 18  2  0
 18 37  1  0
 19 18  1  0
 19 22  1  0
 20 21  1  0
 20 17  1  0
 21 19  2  0
 22 23  1  0
 23 24  2  0
 25 28  1  0
 25 24  1  0
 26 25  2  0
 27 26  1  0
 27 22  2  0
 28 29  1  0
 29 30  1  0
 30 31  2  0
 32 31  1  0
 32 36  1  0
 33 32  2  0
 34 29  2  0
 34 33  1  0
 35 34  1  0
 37 38  1  0
 38 40  1  0
 38 41  1  0
 39 37  2  0
 42 17  1  0
 42 43  1  0
 44 42  1  0
 47 46  1  0
 48 46  1  0
 49 47  1  0
 50 45  1  0
 50 49  1  0
 50 48  1  0
 50 51  1  6
 52  4  1  0
 52 54  1  0
 54 56  1  0
 54 53  1  0
 54 55  1  6
 56 57  1  0
 58 57  1  0
 58 59  1  0
 59 61  1  0
 60 71  2  0
 61 66  2  0
 61 67  1  0
 62 72  1  0
 63 69  1  0
 64 70  1  0
 65 64  1  0
 65 63  2  0
 66 65  1  0
 67 68  2  0
 68 63  1  0
 69 62  1  0
 70 60  1  0
 70 62  1  0
 72 73  1  0
 73 75  1  0
 74 72  2  0
 76 80  1  0
 76 85  1  0
 77 73  1  0
 77 78  1  0
 77 81  1  0
 78 79  1  0
 79 80  1  0
 81 76  2  0
 82 81  1  0
 82 83  2  0
 83 84  1  0
 84 85  2  0
 86 96  1  0
 86 87  1  0
 86 60  1  0
 87 90  1  0
 88 92  1  0
 88 87  1  0
 89 88  2  0
 92 91  1  0
 94 95  1  0
 94 93  1  0
 94 92  1  0
 96 97  1  1
 98 96  1  0
 99 96  1  0
M  ISO  4   7 100  16 100  58 101  59 101
M  END
>  <TORSDO>  (5) 
F 23

>  <SCORE>  (5) 
-5.101

>  <name>  (5) 
4

>  <ligand_id>  (5) 
4

>  <original_smiles>  (5) 
[H]c1c([H])c([H])c2c(c1[H])C([H])([H])C([H])([H])C([H])([H])C2([H])N([H])C(=O)C1([H])N(C(=O)C([H])(N([H])C(=O)C([H])(N([H])C([H])([H])[H])C([H])([H])[H])C(C([H])([H])[H])(C([H])([H])[H])C([H])([H])[H])C([H])([H])c2c([H])c(OC([H])([H])C([H])([H])C([H])([H])[N+]([H])(C([H])([H])[H])C([H])([H])c3c([H])c([H])c(N(C(=O)N4C([H])([H])C([H])([H])C([H])([H])C([H])(n5nc(-c6c([H])c([H])c(Oc7c([H])c([H])c(F)c([H])c7F)c([H])c6[H])c(C(=O)N([H])[H])c5N([H])[H])C4([H])[H])C([H])([H])[H])c(C([H])([H])[N+]4([H])C([H])([H])C([H])([H])C([H])([H])C4([H])[H])c3[H])c([H])c([H])c2C1([H])[H]

>  <smiles>  (5) 
[H]c1c([H])c([H])c2c(c1[H])C([H])([H])C([H])([H])C([H])([H])C2([H])N([H])C(=O)C1([H])N(C(=O)C([H])(N([H])C(=O)C([H])(N([H])C([H])([H])[H])C([H])([H])[H])C(C([H])([H])[H])(C([H])([H])[H])C([H])([H])[H])C([H])([H])c2c([H])c(OC([H])([H])C([H])([H])C([H])([H])[N+]([H])(C([H])([H])[H])C([H])([H])c3c([H])c([H])c(N(C(=O)N4C([H])([H])C([H])([H])C([H])([H])C([H])(n5nc(-c6c([H])c([H])c(Oc7c([H])c([H])c(F)c([H])c7F)c([H])c6[H])c(C(=O)N([H])[H])c5N([H])[H])C4([H])[H])C([H])([H])[H])c(C([H])([H])[N+]4([H])C([H])([H])C([H])([H])C([H])([H])C4([H])[H])c3[H])c([H])c([H])c2C1([H])[H]

$$$$
5:0:0
     RDKit          3D

 93101  0  0  1  0  0  0  0  0999 V2000
  -29.1500  -21.1110   20.8630 C   0  0  0  0  0  0  0  0  0  0  0  0
  -27.7610  -21.8430   18.9350 C   0  0  0  0  0  1  0  0  0  0  0  0
  -28.9830  -21.8840   19.7490 N   0  0  0  0  0  0  0  0  0  0  0  0
  -29.2270  -21.6640   21.9740 O   0  0  0  0  0  0  0  0  0  0  0  0
  -29.4680  -18.8010   21.9320 C   0  0  0  0  0  3  0  0  0  0  0  0
  -29.8120  -17.4280   21.9080 C   0  0  0  0  0  3  0  0  0  0  0  0
  -30.0290  -17.5240   19.5000 C   0  0  0  0  0  3  0  0  0  0  0  0
  -29.3830  -19.5860   20.7440 C   0  0  0  0  0  0  0  0  0  0  0  0
  -30.1060  -16.7650   20.6990 C   0  0  0  0  0  0  0  0  0  0  0  0
  -29.6670  -18.9060   19.5210 C   0  0  0  0  0  0  0  0  0  0  0  0
  -29.6110  -19.5670   18.3380 F   0  0  0  0  0  0  0  0  0  0  0  0
  -30.8570  -14.4980   19.8530 C   0  0  0  0  0  0  0  0  0  0  0  0
  -30.4470  -12.3990   18.6080 C   0  0  0  0  0  2  0  0  0  0  0  0
  -29.3830  -12.6560   17.5230 C   0  0  0  0  0  2  0  0  0  0  0  0
  -27.9530  -12.5180   18.0850 C   0  0  0  0  0  2  0  0  0  0  0  0
  -27.7530  -13.2860   19.4200 C   0  0  0  0  0  3  0  0  0  0  0  0
  -28.9080  -12.9920   20.4000 C   0  0  0  0  0  2  0  0  0  0  0  0
  -30.1850  -13.3180   19.7300 N   0  0  0  0  0  0  0  0  0  0  0  0
  -31.8660  -14.7720   19.1910 O   0  0  0  0  0  0  0  0  0  0  0  0
  -30.3350  -15.3450   20.7620 N   0  0  0  0  0  0  0  0  0  0  0  0
  -29.7620  -14.8630   21.4380 H   0  0  0  0  0  0  0  0  0  0  0  0
  -25.4490  -13.8820   20.3970 C   0  0  0  0  0  0  0  0  0  0  0  0
  -24.4130  -13.1080   20.8370 C   0  0  0  0  0  0  0  0  0  0  0  0
  -24.8480  -11.7520   20.6960 C   0  0  0  0  0  0  0  0  0  0  0  0
  -26.4500  -13.0010   20.0170 N   0  0  0  0  0  0  0  0  0  0  0  0
  -26.0930  -11.7110   20.2490 N   0  0  0  0  0  0  0  0  0  0  0  0
  -24.1280  -10.4890   20.8960 C   0  0  0  0  0  0  0  0  0  0  0  0
  -24.5650   -9.5240   21.8270 C   0  0  0  0  0  3  0  0  0  0  0  0
  -23.8390   -8.3260   22.0120 C   0  0  0  0  0  3  0  0  0  0  0  0
  -22.6660   -8.0850   21.2600 C   0  0  0  0  0  0  0  0  0  0  0  0
  -22.2520   -9.0390   20.3120 C   0  0  0  0  0  3  0  0  0  0  0  0
  -22.9800  -10.2270   20.1270 C   0  0  0  0  0  3  0  0  0  0  0  0
  -21.9140   -6.9380   21.3540 O   0  0  0  0  0  0  0  0  0  0  0  0
  -21.7610   -6.2720   22.5420 C   0  0  0  0  0  0  0  0  0  0  0  0
  -21.1950   -6.8900   23.6800 C   0  0  0  0  0  3  0  0  0  0  0  0
  -20.9910   -6.1450   24.8590 C   0  0  0  0  0  3  0  0  0  0  0  0
  -21.3480   -4.7840   24.9020 C   0  0  0  0  0  0  0  0  0  0  0  0
  -21.9100   -4.1680   23.7700 C   0  0  0  0  0  3  0  0  0  0  0  0
  -22.1100   -4.9070   22.5940 C   0  0  0  0  0  0  0  0  0  0  0  0
  -22.6260   -4.2980   21.4980 F   0  0  0  0  0  0  0  0  0  0  0  0
  -21.1530   -4.0680   26.0340 F   0  0  0  0  0  0  0  0  0  0  0  0
  -23.0610  -13.5830   21.2800 C   0  0  0  0  0  0  0  0  0  0  0  0
  -22.4320  -12.8760   22.2100 N   0  0  0  0  0  0  0  0  0  0  0  0
  -22.5720  -14.6220   20.8340 O   0  0  0  0  0  0  0  0  0  0  0  0
  -22.8470  -12.0380   22.5910 H   0  0  0  0  0  0  0  0  0  0  0  0
  -21.5330  -13.1820   22.5520 H   0  0  0  0  0  0  0  0  0  0  0  0
  -25.6180  -15.2550   20.2620 N   0  0  0  0  0  0  0  0  0  0  0  0
  -24.8530  -15.9030   20.4100 H   0  0  0  0  0  0  0  0  0  0  0  0
  -26.4090  -15.6830   19.7990 H   0  0  0  0  0  0  0  0  0  0  0  0
  -29.9000  -23.0200   19.4470 C   0  0  0  0  0  2  0  0  0  0  0  0
  -29.6600  -24.4490   20.0550 C   0  0  0  0  0  2  0  0  0  0  0  0
  -28.3160  -25.1840   19.7780 C   0  0  0  0  0  2  0  0  0  0  0  0
  -28.4480  -26.6330   19.8790 O   0  0  0  0  0  0  0  0  0  0  0  0
  -24.5970  -31.6930   23.1510 C   0  0  0  0  0  0  0  0  0  0  0  0
  -27.2800  -27.3820   19.8840 C   0  0  0  0  0  0  0  0  0  0  0  0
  -23.4080  -30.3230   21.4780 C   0  0  0  0  0  3  0  0  0  0  0  0
  -24.8780  -28.8850   19.9610 C   0  0  0  0  0  0  0  0  0  0  0  0
  -25.9230  -30.7480   21.2620 C   0  0  0  0  0  2  0  0  0  0  0  0
  -26.0320  -29.4020   20.5630 C   0  0  0  0  0  0  0  0  0  0  0  0
  -27.2430  -28.6630   20.5070 C   0  0  0  0  0  3  0  0  0  0  0  0
  -26.0980  -26.8950   19.2780 C   0  0  0  0  0  3  0  0  0  0  0  0
  -24.9170  -27.6540   19.2880 C   0  0  0  0  0  3  0  0  0  0  0  0
  -23.6100  -29.7060   20.0650 C   0  0  0  0  0  2  0  0  0  0  0  0
  -24.6670  -30.9210   22.0290 N   0  0  0  0  0  0  0  0  0  0  0  0
  -23.5120  -31.9240   23.7030 O   0  0  0  0  0  0  0  0  0  0  0  0
  -22.7840  -29.2540   22.4110 C   0  0  0  0  0  0  0  0  0  0  0  0
  -21.4690  -29.0140   22.2620 N   0  0  0  0  0  0  0  0  0  0  0  0
  -23.4830  -28.6380   23.2180 O   0  0  0  0  0  0  0  0  0  0  0  0
  -20.9560  -29.5690   21.5940 H   0  0  0  0  0  0  0  0  0  0  0  0
  -18.1560  -27.6330   22.6820 C   0  0  0  0  0  0  0  0  0  0  0  0
  -20.6950  -28.0120   22.9980 C   0  0  0  0  0  3  0  0  0  0  0  0
  -20.8820  -26.6000   22.3850 C   0  0  0  0  0  2  0  0  0  0  0  0
  -19.8070  -26.2410   21.3550 C   0  0  0  0  0  2  0  0  0  0  0  0
  -18.4090  -26.3150   21.9710 C   0  0  0  0  0  2  0  0  0  0  0  0
  -19.2270  -28.4400   23.1450 C   0  0  0  0  0  0  0  0  0  0  0  0
  -18.9310  -29.6900   23.7430 C   0  0  0  0  0  3  0  0  0  0  0  0
  -17.5920  -30.1170   23.8910 C   0  0  0  0  0  3  0  0  0  0  0  0
  -16.5390  -29.2990   23.4500 C   0  0  0  0  0  3  0  0  0  0  0  0
  -16.8220  -28.0640   22.8450 C   0  0  0  0  0  3  0  0  0  0  0  0
  -25.8710  -32.3430   23.7750 C   0  0  0  0  0  3  0  0  0  0  0  0
  -26.4020  -31.5520   25.0280 C   0  0  1  0  0  0  0  0  0  0  0  0
  -25.3110  -31.2600   26.0830 C   0  0  0  0  0  1  0  0  0  0  0  0
  -27.0200  -30.2050   24.5980 C   0  0  0  0  0  1  0  0  0  0  0  0
  -27.5340  -32.3550   25.7060 C   0  0  0  0  0  1  0  0  0  0  0  0
  -25.5380  -33.7300   24.1410 N   0  0  0  0  0  0  0  0  0  0  0  0
  -25.8330  -34.8020   23.3960 C   0  0  0  0  0  0  0  0  0  0  0  0
  -26.4830  -34.7240   22.3500 O   0  0  0  0  0  0  0  0  0  0  0  0
  -24.9580  -33.8600   24.9570 H   0  0  0  0  0  0  0  0  0  0  0  0
  -24.0660  -36.5550   23.0920 C   0  0  0  0  0  1  0  0  0  0  0  0
  -25.3290  -36.1740   23.8830 C   0  0  0  0  0  3  0  0  0  0  0  0
  -27.4560  -37.0860   24.6980 C   0  0  0  0  0  1  0  0  0  0  0  0
  -26.3390  -37.2480   23.7670 N   0  0  0  0  0  0  0  0  0  0  0  0
  -25.9240  -38.1600   23.9270 H   0  0  0  0  0  0  0  0  0  0  0  0
  1  4  2  0
  2  3  1  0
  3  1  1  0
  6  5  1  0
  7 10  2  0
  7  9  1  0
  8  1  1  0
  8  5  2  0
  9 20  1  0
  9  6  2  0
 10  8  1  0
 11 10  1  0
 12 20  1  0
 13 18  1  0
 14 15  1  0
 14 13  1  0
 16 15  1  0
 16 25  1  0
 16 17  1  0
 18 12  1  0
 18 17  1  0
 19 12  2  0
 20 21  1  0
 22 23  2  0
 23 42  1  0
 24 23  1  0
 24 27  1  0
 25 26  1  0
 25 22  1  0
 26 24  2  0
 27 28  1  0
 28 29  2  0
 30 33  1  0
 30 29  1  0
 31 30  2  0
 32 31  1  0
 32 27  2  0
 33 34  1  0
 34 39  2  0
 34 35  1  0
 35 36  2  0
 36 37  1  0
 37 41  1  0
 38 37  2  0
 39 38  1  0
 40 39  1  0
 42 43  1  0
 43 46  1  0
 43 45  1  0
 44 42  2  0
 47 22  1  0
 47 48  1  0
 49 47  1  0
 50  3  1  0
 50 51  1  0
 52 53  1  0
 52 51  1  0
 53 55  1  0
 54 65  2  0
 55 60  1  0
 56 64  1  0
 56 66  1  0
 57 63  1  0
 57 59  1  0
 58 64  1  0
 59 58  1  0
 60 59  2  0
 61 62  1  0
 61 55  2  0
 62 57  2  0
 63 56  1  0
 64 54  1  0
 66 68  2  0
 67 66  1  0
 69 67  1  0
 70 79  2  0
 70 75  1  0
 71 67  1  0
 71 75  1  0
 72 71  1  0
 73 74  1  0
 73 72  1  0
 74 70  1  0
 75 76  2  0
 76 77  1  0
 78 77  2  0
 79 78  1  0
 80 54  1  0
 80 85  1  0
 80 81  1  0
 81 84  1  1
 81 82  1  0
 83 81  1  0
 85 88  1  0
 86 90  1  0
 86 85  1  0
 87 86  2  0
 90 89  1  0
 92 90  1  0
 92 93  1  0
 92 91  1  0
M  ISO  4  12 100  20 100  52 101  53 101
M  END
>  <TORSDO>  (6) 
F 20

>  <SCORE>  (6) 
-12.082

>  <name>  (6) 
5

>  <ligand_id>  (6) 
5

>  <original_smiles>  (6) 
[H]c1c([H])c([H])c2c(c1[H])C([H])([H])C([H])([H])C([H])([H])C2([H])N([H])C(=O)C1([H])N(C(=O)C([H])(N([H])C(=O)C([H])(N([H])C([H])([H])[H])C([H])([H])[H])C(C([H])([H])[H])(C([H])([H])[H])C([H])([H])[H])C([H])([H])c2c([H])c(OC([H])([H])C([H])([H])C([H])([H])N(C(=O)c3c([H])c([H])c(N([H])C(=O)N4C([H])([H])C([H])([H])C([H])([H])C([H])(n5nc(-c6c([H])c([H])c(Oc7c([H])c([H])c(F)c([H])c7F)c([H])c6[H])c(C(=O)N([H])[H])c5N([H])[H])C4([H])[H])c([H])c3F)C([H])([H])[H])c([H])c([H])c2C1([H])[H]

>  <smiles>  (6) 
[H]c1c([H])c([H])c2c(c1[H])C([H])([H])C([H])([H])C([H])([H])C2([H])N([H])C(=O)C1([H])N(C(=O)C([H])(N([H])C(=O)C([H])(N([H])C([H])([H])[H])C([H])([H])[H])C(C([H])([H])[H])(C([H])([H])[H])C([H])([H])[H])C([H])([H])c2c([H])c(OC([H])([H])C([H])([H])C([H])([H])N(C(=O)c3c([H])c([H])c(N([H])C(=O)N4C([H])([H])C([H])([H])C([H])([H])C([H])(n5nc(-c6c([H])c([H])c(Oc7c([H])c([H])c(F)c([H])c7F)c([H])c6[H])c(C(=O)N([H])[H])c5N([H])[H])C4([H])[H])c([H])c3F)C([H])([H])[H])c([H])c([H])c2C1([H])[H]

$$$$
6:0:0
     RDKit          3D

 93102  0  0  1  0  0  0  0  0999 V2000
  -26.9820  -23.0360   21.6810 C   0  0  0  0  0  2  0  0  0  0  0  0
  -27.9120  -24.2300   21.9380 C   0  0  0  0  0  2  0  0  0  0  0  0
  -27.5780  -22.2870   20.4790 C   0  0  0  0  0  2  0  0  0  0  0  0
  -28.8780  -24.2660   20.7410 C   0  0  0  0  0  3  0  0  0  0  0  0
  -28.9510  -22.8080   20.2840 N   0  0  1  0  0  4  0  0  0  0  0  0
  -29.1670  -22.7750   19.2990 H   0  0  0  0  0  0  0  0  0  0  0  0
  -30.0110  -21.9420   20.9540 C   0  0  0  0  0  2  0  0  0  0  0  0
  -29.3480  -19.4420   21.4860 C   0  0  0  0  0  3  0  0  0  0  0  0
  -30.9780  -19.8210   19.7640 C   0  0  0  0  0  3  0  0  0  0  0  0
  -29.4510  -18.0300   21.2870 C   0  0  0  0  0  3  0  0  0  0  0  0
  -31.1020  -18.4130   19.5780 C   0  0  0  0  0  3  0  0  0  0  0  0
  -30.0750  -20.3830   20.7030 C   0  0  0  0  0  0  0  0  0  0  0  0
  -30.3190  -17.4730   20.3080 C   0  0  0  0  0  0  0  0  0  0  0  0
  -30.9420  -14.9910   20.2010 C   0  0  0  0  0  0  0  0  0  0  0  0
  -30.7590  -12.6450   19.3890 C   0  0  0  0  0  2  0  0  0  0  0  0
  -29.8350  -12.5620   18.1540 C   0  0  0  0  0  2  0  0  0  0  0  0
  -28.3460  -12.5030   18.5660 C   0  0  0  0  0  2  0  0  0  0  0  0
  -27.9510  -13.4590   19.7290 C   0  0  0  0  0  3  0  0  0  0  0  0
  -29.0110  -13.4710   20.8480 C   0  0  0  0  0  2  0  0  0  0  0  0
  -30.3040  -13.7730   20.2250 N   0  0  0  0  0  0  0  0  0  0  0  0
  -32.1640  -15.0460   20.0400 O   0  0  0  0  0  0  0  0  0  0  0  0
  -29.8240  -16.1290   18.4040 C   0  0  0  0  0  1  0  0  0  0  0  0
  -30.1750  -16.0900   19.8360 N   0  0  0  0  0  0  0  0  0  0  0  0
  -25.5740  -14.0780   20.4640 C   0  0  0  0  0  0  0  0  0  0  0  0
  -24.4990  -13.3150   20.8300 C   0  0  0  0  0  0  0  0  0  0  0  0
  -24.9470  -11.9600   20.7930 C   0  0  0  0  0  0  0  0  0  0  0  0
  -26.6090  -13.1870   20.2290 N   0  0  0  0  0  0  0  0  0  0  0  0
  -26.2390  -11.9090   20.4940 N   0  0  0  0  0  0  0  0  0  0  0  0
  -24.2090  -10.7040   20.9680 C   0  0  0  0  0  0  0  0  0  0  0  0
  -24.6010   -9.7490   21.9330 C   0  0  0  0  0  3  0  0  0  0  0  0
  -23.8660   -8.5570   22.1000 C   0  0  0  0  0  3  0  0  0  0  0  0
  -22.7240   -8.3100   21.3020 C   0  0  0  0  0  0  0  0  0  0  0  0
  -22.3510   -9.2530   20.3280 C   0  0  0  0  0  3  0  0  0  0  0  0
  -23.0880  -10.4370   20.1580 C   0  0  0  0  0  3  0  0  0  0  0  0
  -21.9600   -7.1710   21.3770 O   0  0  0  0  0  0  0  0  0  0  0  0
  -21.8180   -6.4780   22.5530 C   0  0  0  0  0  0  0  0  0  0  0  0
  -21.2710   -7.0780   23.7090 C   0  0  0  0  0  3  0  0  0  0  0  0
  -21.0760   -6.3110   24.8740 C   0  0  0  0  0  3  0  0  0  0  0  0
  -21.4160   -4.9450   24.8840 C   0  0  0  0  0  0  0  0  0  0  0  0
  -21.9550   -4.3450   23.7330 C   0  0  0  0  0  3  0  0  0  0  0  0
  -22.1520   -5.1100   22.5700 C   0  0  0  0  0  0  0  0  0  0  0  0
  -22.6510   -4.5220   21.4560 F   0  0  0  0  0  0  0  0  0  0  0  0
  -21.2200   -4.2060   26.0010 F   0  0  0  0  0  0  0  0  0  0  0  0
  -23.1050  -13.8060   21.0970 C   0  0  0  0  0  0  0  0  0  0  0  0
  -22.3670  -13.1150   21.9580 N   0  0  0  0  0  0  0  0  0  0  0  0
  -22.6780  -14.8350   20.5750 O   0  0  0  0  0  0  0  0  0  0  0  0
  -22.7250  -12.2820   22.3990 H   0  0  0  0  0  0  0  0  0  0  0  0
  -21.4280  -13.4230   22.1750 H   0  0  0  0  0  0  0  0  0  0  0  0
  -25.7500  -15.4490   20.2870 N   0  0  0  0  0  0  0  0  0  0  0  0
  -24.9900  -16.1090   20.4010 H   0  0  0  0  0  0  0  0  0  0  0  0
  -26.6090  -15.8790   19.9650 H   0  0  0  0  0  0  0  0  0  0  0  0
  -28.3610  -25.3090   19.6530 C   0  0  0  0  0  2  0  0  0  0  0  0
  -28.3270  -26.7440   20.0180 O   0  0  0  0  0  0  0  0  0  0  0  0
  -24.5430  -31.9620   23.1850 C   0  0  0  0  0  0  0  0  0  0  0  0
  -27.1560  -27.5180   19.9870 C   0  0  0  0  0  0  0  0  0  0  0  0
  -23.3200  -30.5820   21.5420 C   0  0  0  0  0  3  0  0  0  0  0  0
  -24.7600  -29.0870   20.0520 C   0  0  0  0  0  0  0  0  0  0  0  0
  -25.8480  -30.9450   21.3090 C   0  0  0  0  0  2  0  0  0  0  0  0
  -25.9300  -29.5820   20.6380 C   0  0  0  0  0  0  0  0  0  0  0  0
  -27.1250  -28.8080   20.6010 C   0  0  0  0  0  3  0  0  0  0  0  0
  -25.9570  -27.0760   19.3750 C   0  0  0  0  0  3  0  0  0  0  0  0
  -24.7740  -27.8370   19.4140 C   0  0  0  0  0  3  0  0  0  0  0  0
  -23.5130  -29.9420   20.1420 C   0  0  0  0  0  2  0  0  0  0  0  0
  -24.5890  -31.1800   22.0690 N   0  0  0  0  0  0  0  0  0  0  0  0
  -23.4690  -32.2130   23.7510 O   0  0  0  0  0  0  0  0  0  0  0  0
  -22.6950  -29.5350   22.4950 C   0  0  0  0  0  0  0  0  0  0  0  0
  -21.3740  -29.3200   22.3740 N   0  0  0  0  0  0  0  0  0  0  0  0
  -23.3960  -28.9200   23.3020 O   0  0  0  0  0  0  0  0  0  0  0  0
  -20.8650  -29.8700   21.6960 H   0  0  0  0  0  0  0  0  0  0  0  0
  -18.0440  -27.9880   22.8350 C   0  0  0  0  0  0  0  0  0  0  0  0
  -20.5850  -28.3530   23.1380 C   0  0  0  0  0  3  0  0  0  0  0  0
  -20.7550  -26.9240   22.5700 C   0  0  0  0  0  2  0  0  0  0  0  0
  -19.6800  -26.5520   21.5440 C   0  0  0  0  0  2  0  0  0  0  0  0
  -18.2850  -26.6440   22.1680 C   0  0  0  0  0  2  0  0  0  0  0  0
  -19.1240  -28.7970   23.2760 C   0  0  0  0  0  0  0  0  0  0  0  0
  -18.8460  -30.0530   23.8590 C   0  0  0  0  0  3  0  0  0  0  0  0
  -17.5200  -30.5010   24.0050 C   0  0  0  0  0  3  0  0  0  0  0  0
  -16.4530  -29.6890   23.5830 C   0  0  0  0  0  3  0  0  0  0  0  0
  -16.7160  -28.4340   23.0030 C   0  0  0  0  0  3  0  0  0  0  0  0
  -25.8330  -32.5970   23.7910 C   0  0  0  0  0  3  0  0  0  0  0  0
  -26.3810  -31.8160   25.0490 C   0  0  1  0  0  0  0  0  0  0  0  0
  -25.3100  -31.5560   26.1320 C   0  0  0  0  0  1  0  0  0  0  0  0
  -26.9720  -30.4490   24.6330 C   0  0  0  0  0  1  0  0  0  0  0  0
  -27.5350  -32.6150   25.7010 C   0  0  0  0  0  1  0  0  0  0  0  0
  -25.5200  -33.9890   24.1430 N   0  0  0  0  0  0  0  0  0  0  0  0
  -25.8420  -35.0550   23.3960 C   0  0  0  0  0  0  0  0  0  0  0  0
  -26.5060  -34.9700   22.3600 O   0  0  0  0  0  0  0  0  0  0  0  0
  -24.9320  -34.1290   24.9520 H   0  0  0  0  0  0  0  0  0  0  0  0
  -24.1140  -36.8520   23.0670 C   0  0  0  0  0  1  0  0  0  0  0  0
  -25.3500  -36.4340   23.8770 C   0  0  0  0  0  3  0  0  0  0  0  0
  -27.4800  -37.3050   24.7390 C   0  0  0  0  0  1  0  0  0  0  0  0
  -26.3830  -37.4900   23.7910 N   0  0  0  0  0  0  0  0  0  0  0  0
  -25.9750  -38.4070   23.9530 H   0  0  0  0  0  0  0  0  0  0  0  0
  1  2  1  0
  3  1  1  0
  4 52  1  0
  4  2  1  0
  5  3  1  0
  5  4  1  0
  5  7  1  0
  5  6  1  6
  9 12  1  0
 10  8  1  0
 11  9  2  0
 11 13  1  0
 12  7  1  0
 12  8  2  0
 13 10  2  0
 14 20  1  0
 15 20  1  0
 16 17  1  0
 16 15  1  0
 18 17  1  0
 18 27  1  0
 18 19  1  0
 20 19  1  0
 21 14  2  0
 22 23  1  0
 23 14  1  0
 23 13  1  0
 24 25  2  0
 25 44  1  0
 26 25  1  0
 26 29  1  0
 27 24  1  0
 27 28  1  0
 28 26  2  0
 29 30  1  0
 30 31  2  0
 32 35  1  0
 32 31  1  0
 33 32  2  0
 34 33  1  0
 34 29  2  0
 35 36  1  0
 36 41  2  0
 36 37  1  0
 37 38  2  0
 38 39  1  0
 39 43  1  0
 40 39  2  0
 41 40  1  0
 42 41  1  0
 44 45  1  0
 45 48  1  0
 45 47  1  0
 46 44  2  0
 49 50  1  0
 49 24  1  0
 51 49  1  0
 52 53  1  0
 54 65  2  0
 55 53  1  0
 55 60  1  0
 56 64  1  0
 56 66  1  0
 57 63  1  0
 57 59  1  0
 58 64  1  0
 59 58  1  0
 60 59  2  0
 61 62  1  0
 61 55  2  0
 62 57  2  0
 63 56  1  0
 64 54  1  0
 66 68  2  0
 67 66  1  0
 69 67  1  0
 70 79  2  0
 70 75  1  0
 71 67  1  0
 71 75  1  0
 72 71  1  0
 73 74  1  0
 73 72  1  0
 74 70  1  0
 75 76  2  0
 76 77  1  0
 78 77  2  0
 79 78  1  0
 80 54  1  0
 80 85  1  0
 80 81  1  0
 81 84  1  1
 81 82  1  0
 83 81  1  0
 85 88  1  0
 86 90  1  0
 86 85  1  0
 87 86  2  0
 90 89  1  0
 92 90  1  0
 92 93  1  0
 92 91  1  0
M  ISO  4  14 100  23 100  52 101  53 101
M  END
>  <TORSDO>  (7) 
F 19

>  <SCORE>  (7) 
-12.917

>  <name>  (7) 
6

>  <ligand_id>  (7) 
6

>  <original_smiles>  (7) 
[H]c1c([H])c([H])c2c(c1[H])C([H])([H])C([H])([H])C([H])([H])C2([H])N([H])C(=O)C1([H])N(C(=O)C([H])(N([H])C(=O)C([H])(N([H])C([H])([H])[H])C([H])([H])[H])C(C([H])([H])[H])(C([H])([H])[H])C([H])([H])[H])C([H])([H])c2c([H])c(OC([H])([H])C3([H])C([H])([H])C([H])([H])C([H])([H])[N+]3([H])C([H])([H])c3c([H])c([H])c(N(C(=O)N4C([H])([H])C([H])([H])C([H])([H])C([H])(n5nc(-c6c([H])c([H])c(Oc7c([H])c([H])c(F)c([H])c7F)c([H])c6[H])c(C(=O)N([H])[H])c5N([H])[H])C4([H])[H])C([H])([H])[H])c([H])c3[H])c([H])c([H])c2C1([H])[H]

>  <smiles>  (7) 
[H]c1c([H])c([H])c2c(c1[H])C([H])([H])C([H])([H])C([H])([H])C2([H])N([H])C(=O)C1([H])N(C(=O)C([H])(N([H])C(=O)C([H])(N([H])C([H])([H])[H])C([H])([H])[H])C(C([H])([H])[H])(C([H])([H])[H])C([H])([H])[H])C([H])([H])c2c([H])c(OC([H])([H])C3([H])C([H])([H])C([H])([H])C([H])([H])[N+]3([H])C([H])([H])c3c([H])c([H])c(N(C(=O)N4C([H])([H])C([H])([H])C([H])([H])C([H])(n5nc(-c6c([H])c([H])c(Oc7c([H])c([H])c(F)c([H])c7F)c([H])c6[H])c(C(=O)N([H])[H])c5N([H])[H])C4([H])[H])C([H])([H])[H])c([H])c3[H])c([H])c([H])c2C1([H])[H]

$$$$
7:0:0
     RDKit          3D

101110  0  0  1  0  0  0  0  0999 V2000
  -32.0380  -21.6260   22.4470 C   0  0  0  0  0  3  0  0  0  0  0  0
  -31.4910  -21.3890   20.0860 C   0  0  0  0  0  3  0  0  0  0  0  0
  -31.9180  -20.2290   22.6270 C   0  0  0  0  0  3  0  0  0  0  0  0
  -31.3340  -20.0090   20.2760 C   0  0  0  0  0  3  0  0  0  0  0  0
  -31.8990  -22.2000   21.1600 C   0  0  0  0  0  0  0  0  0  0  0  0
  -31.6430  -19.4020   21.5140 C   0  0  0  0  0  0  0  0  0  0  0  0
  -31.6570  -17.1690   20.4800 C   0  0  0  0  0  0  0  0  0  0  0  0
  -32.4380  -17.2490   19.3760 C   0  0  0  0  0  3  0  0  0  0  0  0
  -30.5690  -16.0110   22.2660 C   0  0  0  0  0  2  0  0  0  0  0  0
  -31.0170  -17.4130   22.7340 C   0  0  0  0  0  2  0  0  0  0  0  0
  -30.5290  -16.1840   20.7470 C   0  0  0  0  0  3  0  0  0  0  0  0
  -31.7220  -17.9950   21.5970 N   0  0  0  0  0  0  0  0  0  0  0  0
  -31.1500  -13.8260   20.0480 C   0  0  0  0  0  0  0  0  0  0  0  0
  -30.7240  -11.5950   19.1170 C   0  0  0  0  0  2  0  0  0  0  0  0
  -29.7640  -11.7190   17.9180 C   0  0  0  0  0  2  0  0  0  0  0  0
  -28.2910  -11.7490   18.3850 C   0  0  0  0  0  2  0  0  0  0  0  0
  -28.0260  -12.6780   19.5970 C   0  0  0  0  0  3  0  0  0  0  0  0
  -29.1050  -12.5120   20.6900 C   0  0  0  0  0  2  0  0  0  0  0  0
  -30.4160  -12.6840   20.0550 N   0  0  0  0  0  0  0  0  0  0  0  0
  -32.3450  -13.8270   19.7410 O   0  0  0  0  0  0  0  0  0  0  0  0
  -30.1410  -15.3880   18.5230 C   0  0  0  0  0  1  0  0  0  0  0  0
  -30.4180  -14.9640   19.9100 N   0  0  0  0  0  0  0  0  0  0  0  0
  -25.6910  -13.4370   20.3360 C   0  0  0  0  0  0  0  0  0  0  0  0
  -24.5940  -12.7340   20.7530 C   0  0  0  0  0  0  0  0  0  0  0  0
  -24.9830  -11.3610   20.7700 C   0  0  0  0  0  0  0  0  0  0  0  0
  -26.6820  -12.4910   20.1220 N   0  0  0  0  0  0  0  0  0  0  0  0
  -26.2640  -11.2410   20.4470 N   0  0  0  0  0  0  0  0  0  0  0  0
  -24.2020  -10.1430   21.0290 C   0  0  0  0  0  0  0  0  0  0  0  0
  -24.5630   -9.2350   22.0470 C   0  0  0  0  0  3  0  0  0  0  0  0
  -23.7870   -8.0790   22.2800 C   0  0  0  0  0  3  0  0  0  0  0  0
  -22.6380   -7.8230   21.4990 C   0  0  0  0  0  0  0  0  0  0  0  0
  -22.2970   -8.7220   20.4730 C   0  0  0  0  0  3  0  0  0  0  0  0
  -23.0720   -9.8670   20.2350 C   0  0  0  0  0  3  0  0  0  0  0  0
  -21.8350   -6.7170   21.6430 O   0  0  0  0  0  0  0  0  0  0  0  0
  -21.6570   -6.1110   22.8600 C   0  0  0  0  0  0  0  0  0  0  0  0
  -21.1050   -6.8040   23.9620 C   0  0  0  0  0  3  0  0  0  0  0  0
  -20.8610   -6.1220   25.1700 C   0  0  0  0  0  3  0  0  0  0  0  0
  -21.1680   -4.7530   25.2810 C   0  0  0  0  0  0  0  0  0  0  0  0
  -21.7220   -4.0620   24.1890 C   0  0  0  0  0  3  0  0  0  0  0  0
  -21.9570   -4.7400   22.9810 C   0  0  0  0  0  0  0  0  0  0  0  0
  -22.4590   -4.0620   21.9220 F   0  0  0  0  0  0  0  0  0  0  0  0
  -20.9360   -4.0990   26.4450 F   0  0  0  0  0  0  0  0  0  0  0  0
  -23.2320  -13.2900   21.0450 C   0  0  0  0  0  0  0  0  0  0  0  0
  -22.5040  -12.6550   21.9570 N   0  0  0  0  0  0  0  0  0  0  0  0
  -22.8290  -14.3180   20.5030 O   0  0  0  0  0  0  0  0  0  0  0  0
  -22.8440  -11.8160   22.4050 H   0  0  0  0  0  0  0  0  0  0  0  0
  -21.5930  -13.0090   22.2070 H   0  0  0  0  0  0  0  0  0  0  0  0
  -25.9310  -14.7880   20.1020 N   0  0  0  0  0  0  0  0  0  0  0  0
  -25.2340  -15.5130   20.2330 H   0  0  0  0  0  0  0  0  0  0  0  0
  -26.8310  -15.1530   19.8120 H   0  0  0  0  0  0  0  0  0  0  0  0
  -34.1670  -18.3150   18.0050 C   0  0  0  0  0  2  0  0  0  0  0  0
  -33.5240  -18.1900   19.1790 C   0  0  0  0  0  3  0  0  0  0  0  0
  -33.8610  -23.6350   20.6490 C   0  0  0  0  0  1  0  0  0  0  0  0
  -32.3510  -23.6370   20.9260 C   0  0  0  0  0  3  0  0  0  0  0  0
  -31.6290  -24.3430   19.8420 N   0  0  0  0  0  4  0  0  0  0  0  0
  -32.1790  -25.1620   19.6340 H   0  0  0  0  0  0  0  0  0  0  0  0
  -31.6120  -23.7800   19.0080 H   0  0  0  0  0  0  0  0  0  0  0  0
  -30.2630  -24.8100   20.1690 C   0  0  0  0  0  2  0  0  0  0  0  0
  -29.7680  -25.8360   19.1250 C   0  0  0  0  0  2  0  0  0  0  0  0
  -28.7200  -26.8230   19.6670 C   0  0  0  0  0  2  0  0  0  0  0  0
  -27.3930  -26.3560   19.4540 O   0  0  0  0  0  0  0  0  0  0  0  0
  -24.4190  -31.6810   23.2330 C   0  0  0  0  0  0  0  0  0  0  0  0
  -26.3490  -27.2350   19.6740 C   0  0  0  0  0  0  0  0  0  0  0  0
  -22.9350  -30.5050   21.6350 C   0  0  0  0  0  3  0  0  0  0  0  0
  -24.1030  -28.9310   20.0020 C   0  0  0  0  0  0  0  0  0  0  0  0
  -25.4520  -30.6470   21.2180 C   0  0  0  0  0  2  0  0  0  0  0  0
  -25.3490  -29.3140   20.5080 C   0  0  0  0  0  0  0  0  0  0  0  0
  -26.4740  -28.4750   20.3480 C   0  0  0  0  0  3  0  0  0  0  0  0
  -25.0800  -26.8590   19.1820 C   0  0  0  0  0  3  0  0  0  0  0  0
  -23.9620  -27.6980   19.3390 C   0  0  0  0  0  3  0  0  0  0  0  0
  -22.9560  -29.8950   20.2060 C   0  0  0  0  0  2  0  0  0  0  0  0
  -24.2930  -30.9540   22.0870 N   0  0  0  0  0  0  0  0  0  0  0  0
  -23.4240  -32.0210   23.8880 O   0  0  0  0  0  0  0  0  0  0  0  0
  -22.2720  -29.4940   22.5940 C   0  0  0  0  0  0  0  0  0  0  0  0
  -20.9400  -29.3480   22.4860 N   0  0  0  0  0  0  0  0  0  0  0  0
  -22.9510  -28.8450   23.3950 O   0  0  0  0  0  0  0  0  0  0  0  0
  -20.4580  -29.9310   21.8170 H   0  0  0  0  0  0  0  0  0  0  0  0
  -17.5660  -28.1280   22.8990 C   0  0  0  0  0  0  0  0  0  0  0  0
  -20.1080  -28.4240   23.2540 C   0  0  0  0  0  3  0  0  0  0  0  0
  -20.2480  -26.9760   22.7260 C   0  0  0  0  0  2  0  0  0  0  0  0
  -19.1840  -26.6080   21.6850 C   0  0  0  0  0  2  0  0  0  0  0  0
  -17.7800  -26.7590   22.2740 C   0  0  0  0  0  2  0  0  0  0  0  0
  -18.6580  -28.9150   23.3430 C   0  0  0  0  0  0  0  0  0  0  0  0
  -18.4070  -30.1950   23.8830 C   0  0  0  0  0  3  0  0  0  0  0  0
  -17.0900  -30.6860   23.9830 C   0  0  0  0  0  3  0  0  0  0  0  0
  -16.0090  -29.8940   23.5570 C   0  0  0  0  0  3  0  0  0  0  0  0
  -16.2490  -28.6160   23.0210 C   0  0  0  0  0  3  0  0  0  0  0  0
  -25.8130  -32.1410   23.7610 C   0  0  0  0  0  3  0  0  0  0  0  0
  -25.6870  -33.5460   24.1690 N   0  0  0  0  0  0  0  0  0  0  0  0
  -26.1230  -34.5880   23.4460 C   0  0  0  0  0  0  0  0  0  0  0  0
  -26.7450  -34.4570   22.3880 O   0  0  0  0  0  0  0  0  0  0  0  0
  -25.1400  -33.7320   24.9980 H   0  0  0  0  0  0  0  0  0  0  0  0
  -24.6220  -36.5950   23.2280 C   0  0  0  0  0  1  0  0  0  0  0  0
  -25.8210  -35.9990   23.9840 C   0  0  0  0  0  3  0  0  0  0  0  0
  -28.0680  -36.5750   24.7980 C   0  0  0  0  0  1  0  0  0  0  0  0
  -26.9740  -36.9250   23.8940 N   0  0  0  0  0  0  0  0  0  0  0  0
  -26.6860  -37.8760   24.1040 H   0  0  0  0  0  0  0  0  0  0  0  0
  -26.3490  -31.2560   24.9530 C   0  0  1  0  0  0  0  0  0  0  0  0
  -25.3260  -31.0680   26.0950 C   0  0  0  0  0  1  0  0  0  0  0  0
  -26.7580  -29.8520   24.4490 C   0  0  0  0  0  1  0  0  0  0  0  0
  -27.6200  -31.8990   25.5570 C   0  0  0  0  0  1  0  0  0  0  0  0
  1  3  1  0
  2  4  2  0
  2  5  1  0
  4  6  1  0
  5  1  2  0
  6 12  1  0
  6  3  2  0
  7 11  1  0
  7 12  1  0
  8  7  2  0
  9 10  1  0
 11 22  1  0
 11  9  1  0
 12 10  1  0
 13 19  1  0
 14 19  1  0
 15 16  1  0
 15 14  1  0
 17 16  1  0
 17 26  1  0
 17 18  1  0
 19 18  1  0
 20 13  2  0
 21 22  1  0
 22 13  1  0
 23 24  2  0
 24 25  1  0
 24 43  1  0
 25 28  1  0
 26 23  1  0
 26 27  1  0
 27 25  2  0
 28 29  1  0
 29 30  2  0
 31 34  1  0
 31 30  1  0
 32 31  2  0
 33 32  1  0
 33 28  2  0
 34 35  1  0
 35 40  2  0
 35 36  1  0
 36 37  2  0
 37 38  1  0
 38 42  1  0
 39 38  2  0
 40 39  1  0
 41 40  1  0
 43 44  1  0
 44 47  1  0
 44 46  1  0
 45 43  2  0
 48 49  1  0
 48 23  1  0
 50 48  1  0
 51 52  2  0
 52  8  1  0
 54 53  1  0
 54  5  1  0
 55 58  1  0
 55 54  1  0
 56 55  1  0
 57 55  1  0
 59 60  1  0
 59 58  1  0
 61 60  1  0
 61 63  1  0
 62 73  2  0
 63 68  1  0
 64 72  1  0
 64 74  1  0
 65 71  1  0
 65 67  1  0
 66 72  1  0
 67 66  1  0
 68 67  2  0
 69 70  1  0
 69 63  2  0
 70 65  2  0
 71 64  1  0
 72 62  1  0
 74 76  2  0
 75 74  1  0
 77 75  1  0
 78 87  2  0
 78 83  1  0
 79 75  1  0
 79 83  1  0
 80 79  1  0
 81 82  1  0
 81 80  1  0
 82 78  1  0
 83 84  2  0
 84 85  1  0
 86 85  2  0
 87 86  1  0
 88 62  1  0
 88 89  1  0
 88 98  1  0
 89 92  1  0
 90 94  1  0
 90 89  1  0
 91 90  2  0
 94 93  1  0
 96 94  1  0
 96 97  1  0
 96 95  1  0
 98101  1  1
 98 99  1  0
100 98  1  0
M  ISO  4  13 100  22 100  60 101  61 101
M  END
>  <TORSDO>  (8) 
F 23

>  <SCORE>  (8) 
-9.656

>  <name>  (8) 
7

>  <ligand_id>  (8) 
7

>  <original_smiles>  (8) 
[H]C([H])=C([H])C([H])=C1N(c2c([H])c([H])c(C([H])(C([H])([H])[H])[N+]([H])([H])C([H])([H])C([H])([H])C([H])([H])Oc3c([H])c([H])c4c(c3[H])C([H])([H])N(C(=O)C([H])(N([H])C(=O)C([H])(N([H])C([H])([H])[H])C([H])([H])[H])C(C([H])([H])[H])(C([H])([H])[H])C([H])([H])[H])C([H])(C(=O)N([H])C3([H])c5c([H])c([H])c([H])c([H])c5C([H])([H])C([H])([H])C3([H])[H])C4([H])[H])c([H])c2[H])C([H])([H])C([H])([H])C1([H])N(C(=O)N1C([H])([H])C([H])([H])C([H])([H])C([H])(n2nc(-c3c([H])c([H])c(Oc4c([H])c([H])c(F)c([H])c4F)c([H])c3[H])c(C(=O)N([H])[H])c2N([H])[H])C1([H])[H])C([H])([H])[H]

>  <smiles>  (8) 
[H]C([H])=C([H])C([H])=C1N(c2c([H])c([H])c(C([H])(C([H])([H])[H])[N+]([H])([H])C([H])([H])C([H])([H])C([H])([H])Oc3c([H])c([H])c4c(c3[H])C([H])([H])N(C(=O)C([H])(N([H])C(=O)C([H])(N([H])C([H])([H])[H])C([H])([H])[H])C(C([H])([H])[H])(C([H])([H])[H])C([H])([H])[H])C([H])(C(=O)N([H])C3([H])c5c([H])c([H])c([H])c([H])c5C([H])([H])C([H])([H])C3([H])[H])C4([H])[H])c([H])c2[H])C([H])([H])C([H])([H])C1([H])N(C(=O)N1C([H])([H])C([H])([H])C([H])([H])C([H])(n2nc(-c3c([H])c([H])c(Oc4c([H])c([H])c(F)c([H])c4F)c([H])c3[H])c(C(=O)N([H])[H])c2N([H])[H])C1([H])[H])C([H])([H])[H]

$$$$
8:0:0
     RDKit          3D

 94102  0  0  1  0  0  0  0  0999 V2000
  -30.3810  -21.5640   18.8500 C   0  0  0  0  0  1  0  0  0  0  0  0
  -29.8550  -21.6890   20.2300 N   0  0  1  0  0  4  0  0  0  0  0  0
  -28.8470  -21.6270   20.1560 H   0  0  0  0  0  0  0  0  0  0  0  0
  -30.2030  -20.5070   21.0940 C   0  0  0  0  0  2  0  0  0  0  0  0
  -28.4350  -16.8810   19.4430 C   0  0  0  0  0  3  0  0  0  0  0  0
  -27.6860  -18.0650   19.5250 C   0  0  0  0  0  3  0  0  0  0  0  0
  -30.2680  -17.9420   20.6220 C   0  0  0  0  0  3  0  0  0  0  0  0
  -29.5580  -19.1850   20.6190 C   0  0  0  0  0  0  0  0  0  0  0  0
  -29.6960  -16.7590   20.0600 C   0  0  0  0  0  0  0  0  0  0  0  0
  -28.2270  -19.2060   20.1310 C   0  0  0  0  0  0  0  0  0  0  0  0
  -27.2530  -20.6360   20.1800 Cl  0  0  0  0  0  0  0  0  0  0  0  0
  -30.9570  -14.6670   20.7090 C   0  0  0  0  0  0  0  0  0  0  0  0
  -30.7580  -12.3110   20.0540 C   0  0  0  0  0  2  0  0  0  0  0  0
  -29.9340  -12.2230   18.7520 C   0  0  0  0  0  2  0  0  0  0  0  0
  -28.4320  -12.1160   19.0740 C   0  0  0  0  0  2  0  0  0  0  0  0
  -27.9560  -13.1680   20.1100 C   0  0  0  0  0  3  0  0  0  0  0  0
  -28.9160  -13.2860   21.3140 C   0  0  0  0  0  2  0  0  0  0  0  0
  -30.2690  -13.4900   20.7820 N   0  0  0  0  0  0  0  0  0  0  0  0
  -32.1790  -14.6940   20.8550 O   0  0  0  0  0  0  0  0  0  0  0  0
  -31.2200  -15.6840   18.5450 C   0  0  0  0  0  1  0  0  0  0  0  0
  -30.4500  -15.5600   19.7940 N   0  0  0  0  0  0  0  0  0  0  0  0
  -25.5440  -13.8830   20.6520 C   0  0  0  0  0  0  0  0  0  0  0  0
  -24.4200  -13.1560   20.9310 C   0  0  0  0  0  0  0  0  0  0  0  0
  -24.8320  -11.7900   20.9520 C   0  0  0  0  0  0  0  0  0  0  0  0
  -26.5690  -12.9600   20.5080 N   0  0  0  0  0  0  0  0  0  0  0  0
  -26.1410  -11.6980   20.7560 N   0  0  0  0  0  0  0  0  0  0  0  0
  -24.0490  -10.5590   21.0900 C   0  0  0  0  0  0  0  0  0  0  0  0
  -24.3970   -9.5670   22.0320 C   0  0  0  0  0  3  0  0  0  0  0  0
  -23.6180   -8.3980   22.1580 C   0  0  0  0  0  3  0  0  0  0  0  0
  -22.4760   -8.2160   21.3420 C   0  0  0  0  0  0  0  0  0  0  0  0
  -22.1480   -9.1960   20.3890 C   0  0  0  0  0  3  0  0  0  0  0  0
  -22.9280  -10.3570   20.2610 C   0  0  0  0  0  3  0  0  0  0  0  0
  -21.6740   -7.1010   21.3780 O   0  0  0  0  0  0  0  0  0  0  0  0
  -21.5580   -6.3370   22.5100 C   0  0  0  0  0  0  0  0  0  0  0  0
  -21.1020   -6.8790   23.7310 C   0  0  0  0  0  3  0  0  0  0  0  0
  -20.9310   -6.0430   24.8530 C   0  0  0  0  0  3  0  0  0  0  0  0
  -21.2050   -4.6650   24.7520 C   0  0  0  0  0  0  0  0  0  0  0  0
  -21.6530   -4.1220   23.5350 C   0  0  0  0  0  3  0  0  0  0  0  0
  -21.8260   -4.9570   22.4170 C   0  0  0  0  0  0  0  0  0  0  0  0
  -22.2400   -4.4260   21.2410 F   0  0  0  0  0  0  0  0  0  0  0  0
  -21.0310   -3.8590   25.8270 F   0  0  0  0  0  0  0  0  0  0  0  0
  -23.0250  -13.6900   21.0800 C   0  0  0  0  0  0  0  0  0  0  0  0
  -22.2070  -13.0450   21.9040 N   0  0  0  0  0  0  0  0  0  0  0  0
  -22.6660  -14.7160   20.5030 O   0  0  0  0  0  0  0  0  0  0  0  0
  -22.5080  -12.2140   22.3950 H   0  0  0  0  0  0  0  0  0  0  0  0
  -21.2670  -13.3860   22.0460 H   0  0  0  0  0  0  0  0  0  0  0  0
  -25.7630  -15.2440   20.4930 N   0  0  0  0  0  0  0  0  0  0  0  0
  -25.0120  -15.9190   20.5810 H   0  0  0  0  0  0  0  0  0  0  0  0
  -26.6730  -15.6720   20.3870 H   0  0  0  0  0  0  0  0  0  0  0  0
  -30.1190  -23.0440   20.8310 C   0  0  0  0  0  2  0  0  0  0  0  0
  -29.2560  -24.2170   20.1970 C   0  0  0  0  0  2  0  0  0  0  0  0
  -28.7270  -25.5990   22.3700 C   0  0  0  0  0  1  0  0  0  0  0  0
  -28.4150  -25.3830   20.8740 C   0  0  0  0  0  3  0  0  0  0  0  0
  -28.5620  -26.6730   20.2160 O   0  0  0  0  0  0  0  0  0  0  0  0
  -24.6140  -31.8140   23.2290 C   0  0  0  0  0  0  0  0  0  0  0  0
  -27.4100  -27.4430   20.1650 C   0  0  0  0  0  0  0  0  0  0  0  0
  -23.4760  -30.4120   21.5390 C   0  0  0  0  0  3  0  0  0  0  0  0
  -24.9940  -28.9250   20.1260 C   0  0  0  0  0  0  0  0  0  0  0  0
  -26.0000  -30.8190   21.4080 C   0  0  0  0  0  2  0  0  0  0  0  0
  -26.1290  -29.4570   20.7500 C   0  0  0  0  0  0  0  0  0  0  0  0
  -27.3430  -28.7260   20.7640 C   0  0  0  0  0  3  0  0  0  0  0  0
  -26.2610  -26.9410   19.5150 C   0  0  0  0  0  3  0  0  0  0  0  0
  -25.0570  -27.6680   19.5010 C   0  0  0  0  0  3  0  0  0  0  0  0
  -23.7320  -29.7600   20.1550 C   0  0  0  0  0  2  0  0  0  0  0  0
  -24.7130  -31.0290   22.1180 N   0  0  0  0  0  0  0  0  0  0  0  0
  -23.5150  -32.0570   23.7460 O   0  0  0  0  0  0  0  0  0  0  0  0
  -22.8200  -29.3660   22.4700 C   0  0  0  0  0  0  0  0  0  0  0  0
  -21.4970  -29.1830   22.3290 N   0  0  0  0  0  0  0  0  0  0  0  0
  -23.4990  -28.7220   23.2740 O   0  0  0  0  0  0  0  0  0  0  0  0
  -21.0090  -29.7570   21.6550 H   0  0  0  0  0  0  0  0  0  0  0  0
  -18.1160  -27.9950   22.8030 C   0  0  0  0  0  0  0  0  0  0  0  0
  -20.6770  -28.2230   23.0710 C   0  0  0  0  0  3  0  0  0  0  0  0
  -20.7660  -26.8140   22.4430 C   0  0  0  0  0  2  0  0  0  0  0  0
  -19.6570  -26.5350   21.4240 C   0  0  0  0  0  2  0  0  0  0  0  0
  -18.2790  -26.6680   22.0800 C   0  0  0  0  0  2  0  0  0  0  0  0
  -19.2430  -28.7320   23.2540 C   0  0  0  0  0  0  0  0  0  0  0  0
  -19.0380  -29.9750   23.8900 C   0  0  0  0  0  3  0  0  0  0  0  0
  -17.7370  -30.4800   24.0810 C   0  0  0  0  0  3  0  0  0  0  0  0
  -16.6250  -29.7380   23.6480 C   0  0  0  0  0  3  0  0  0  0  0  0
  -16.8150  -28.4980   23.0140 C   0  0  0  0  0  3  0  0  0  0  0  0
  -25.8720  -32.4620   23.8870 C   0  0  0  0  0  3  0  0  0  0  0  0
  -25.5370  -33.8560   24.2040 N   0  0  0  0  0  0  0  0  0  0  0  0
  -25.8760  -34.9100   23.4490 C   0  0  0  0  0  0  0  0  0  0  0  0
  -26.5720  -34.8110   22.4340 O   0  0  0  0  0  0  0  0  0  0  0  0
  -24.9220  -34.0070   24.9900 H   0  0  0  0  0  0  0  0  0  0  0  0
  -24.1270  -36.6730   23.0500 C   0  0  0  0  0  1  0  0  0  0  0  0
  -25.3580  -36.2930   23.8880 C   0  0  0  0  0  3  0  0  0  0  0  0
  -27.4600  -37.2190   24.7560 C   0  0  0  0  0  1  0  0  0  0  0  0
  -26.3760  -37.3610   23.7870 N   0  0  0  0  0  0  0  0  0  0  0  0
  -25.9530  -38.2760   23.9190 H   0  0  0  0  0  0  0  0  0  0  0  0
  -26.3600  -31.6970   25.1790 C   0  0  1  0  0  0  0  0  0  0  0  0
  -25.2390  -31.4450   26.2130 C   0  0  0  0  0  1  0  0  0  0  0  0
  -26.9730  -30.3280   24.8020 C   0  0  0  0  0  1  0  0  0  0  0  0
  -27.4790  -32.5070   25.8740 C   0  0  0  0  0  1  0  0  0  0  0  0
  1  2  1  0
  2 50  1  0
  2  4  1  0
  2  3  1  6
  5  6  2  0
  5  9  1  0
  6 10  1  0
  8  7  1  0
  8  4  1  0
  9  7  2  0
 10 11  1  0
 10  8  2  0
 12 18  1  0
 12 19  2  0
 13 18  1  0
 14 15  1  0
 14 13  1  0
 16 15  1  0
 16 25  1  0
 16 17  1  0
 18 17  1  0
 20 21  1  0
 21  9  1  0
 21 12  1  0
 22 23  2  0
 23 24  1  0
 23 42  1  0
 24 27  1  0
 25 22  1  0
 25 26  1  0
 26 24  2  0
 27 28  1  0
 28 29  2  0
 30 33  1  0
 30 29  1  0
 31 30  2  0
 32 31  1  0
 32 27  2  0
 33 34  1  0
 34 35  1  0
 35 36  2  0
 37 36  1  0
 37 41  1  0
 38 37  2  0
 39 34  2  0
 39 38  1  0
 40 39  1  0
 42 43  1  0
 43 46  1  0
 43 45  1  0
 44 42  2  0
 47 48  1  0
 47 22  1  0
 49 47  1  0
 51 50  1  0
 51 53  1  0
 53 52  1  0
 54 53  1  0
 55 66  2  0
 56 54  1  0
 56 61  1  0
 57 65  1  0
 57 67  1  0
 58 64  1  0
 58 60  1  0
 59 65  1  0
 60 61  2  0
 60 59  1  0
 62 56  2  0
 63 62  1  0
 63 58  2  0
 64 57  1  0
 65 55  1  0
 67 69  2  0
 68 67  1  0
 70 68  1  0
 71 80  2  0
 71 76  1  0
 72 68  1  0
 72 76  1  0
 73 72  1  0
 74 75  1  0
 74 73  1  0
 75 71  1  0
 76 77  2  0
 77 78  1  0
 79 78  2  0
 80 79  1  0
 81 55  1  0
 81 82  1  0
 81 91  1  0
 82 85  1  0
 83 87  1  0
 83 82  1  0
 84 83  2  0
 87 86  1  0
 89 87  1  0
 89 90  1  0
 89 88  1  0
 91 94  1  1
 91 92  1  0
 93 91  1  0
M  ISO  4  12 100  21 100  53 101  54 101
M  END
>  <TORSDO>  (9) 
F 21

>  <SCORE>  (9) 
-13.281

>  <name>  (9) 
8

>  <ligand_id>  (9) 
8

>  <original_smiles>  (9) 
[H]c1c([H])c([H])c2c(c1[H])C([H])([H])C([H])([H])C([H])([H])C2([H])N([H])C(=O)C1([H])N(C(=O)C([H])(N([H])C(=O)C([H])(N([H])C([H])([H])[H])C([H])([H])[H])C(C([H])([H])[H])(C([H])([H])[H])C([H])([H])[H])C([H])([H])c2c([H])c(OC([H])(C([H])([H])[H])C([H])([H])C([H])([H])[N+]([H])(C([H])([H])[H])C([H])([H])c3c([H])c(N(C(=O)N4C([H])([H])C([H])([H])C([H])([H])C([H])(n5nc(-c6c([H])c([H])c(Oc7c([H])c([H])c(F)c([H])c7F)c([H])c6[H])c(C(=O)N([H])[H])c5N([H])[H])C4([H])[H])C([H])([H])[H])c([H])c([H])c3Cl)c([H])c([H])c2C1([H])[H]

>  <smiles>  (9) 
[H]c1c([H])c([H])c2c(c1[H])C([H])([H])C([H])([H])C([H])([H])C2([H])N([H])C(=O)C1([H])N(C(=O)C([H])(N([H])C(=O)C([H])(N([H])C([H])([H])[H])C([H])([H])[H])C(C([H])([H])[H])(C([H])([H])[H])C([H])([H])[H])C([H])([H])c2c([H])c(OC([H])(C([H])([H])[H])C([H])([H])C([H])([H])[N+]([H])(C([H])([H])[H])C([H])([H])c3c([H])c(N(C(=O)N4C([H])([H])C([H])([H])C([H])([H])C([H])(n5nc(-c6c([H])c([H])c(Oc7c([H])c([H])c(F)c([H])c7F)c([H])c6[H])c(C(=O)N([H])[H])c5N([H])[H])C4([H])[H])C([H])([H])[H])c([H])c([H])c3Cl)c([H])c([H])c2C1([H])[H]

$$$$
9:0:0
     RDKit          3D

 94 95  0  0  1  0  0  0  0  0999 V2000
  -25.4770  -25.9760   21.7660 C   0  0  0  0  0 15  0  0  0  0  0  0
  -25.0390  -28.0940   20.5090 C   0  0  0  0  0  3  0  0  0  0  0  0
  -26.2640  -23.9930   21.5200 C   0  0  0  0  0  1  0  0  0  0  0  0
  -25.6690  -27.7960   19.1300 C   0  0  0  0  0  3  0  0  0  0  0  0
  -27.0570  -24.8400   20.7610 C   0  0  0  0  0  3  0  0  0  0  0  0
  -26.4770  -25.5640   19.6070 C   0  0  0  0  0  2  0  0  0  0  0  0
  -28.2740  -25.1160   21.3060 F   0  0  0  0  0  0  0  0  0  0  0  0
  -26.4840  -24.4090   18.8070 F   0  0  0  0  0  0  0  0  0  0  0  0
  -25.6070  -28.7330   17.9180 N   0  0  0  0  0  0  0  0  0  0  0  0
  -24.6600  -29.0210   17.6850 H   0  0  0  0  0  0  0  0  0  0  0  0
  -26.5420  -28.9880   16.6630 C   0  0  0  0  0  2  0  0  0  0  0  0
  -27.6010  -27.9710   15.8140 C   0  0  0  0  0  2  0  0  0  0  0  0
  -28.8000  -27.0610   16.4330 C   0  0  0  0  0  2  0  0  0  0  0  0
  -28.9000  -27.1530   17.8240 O   0  0  0  0  0  0  0  0  0  0  0  0
  -24.5680  -31.5340   22.7900 C   0  0  0  0  0  0  0  0  0  0  0  0
  -27.7020  -27.3400   18.2320 C   0  0  0  0  0  0  0  0  0  0  0  0
  -23.1890  -29.4200   21.6870 C   0  0  0  0  0  2  0  0  0  0  0  0
  -24.2550  -26.7010   19.5030 C   0  0  0  0  0  3  0  0  0  0  0  0
  -26.3560  -29.4970   21.8020 C   0  0  0  0  0  1  0  0  0  0  0  0
  -26.7490  -27.6720   20.9460 C   0  0  0  0  0  2  0  0  0  0  0  0
  -27.9150  -27.8060   19.8690 C   0  0  0  0  0  2  0  0  0  0  0  0
  -26.1960  -26.8090   17.3590 C   0  0  0  0  0  3  0  0  0  0  0  0
  -24.5940  -26.5970   17.9280 C   0  0  0  0  0  2  0  0  0  0  0  0
  -22.7580  -27.9440   20.2770 C   0  0  0  0  0 15  0  0  0  0  0  0
  -24.7350  -30.2940   22.0630 N   0  0  0  0  0  0  0  0  0  0  0  0
  -23.4700  -32.0140   23.1730 O   0  0  0  0  0  0  0  0  0  0  0  0
  -22.2860  -29.4040   22.8420 C   0  0  0  0  0  0  0  0  0  0  0  0
  -21.0300  -29.3790   22.5480 N   0  0  0  0  0  0  0  0  0  0  0  0
  -22.7440  -29.1240   23.9610 O   0  0  0  0  0  0  0  0  0  0  0  0
  -20.8730  -29.5600   21.5790 H   0  0  0  0  0  0  0  0  0  0  0  0
  -17.7290  -28.1930   23.0320 C   0  0  0  0  0  0  0  0  0  0  0  0
  -20.1990  -28.4650   23.2940 C   0  0  0  0  0  3  0  0  0  0  0  0
  -20.3550  -27.0020   22.8470 C   0  0  0  0  0  2  0  0  0  0  0  0
  -19.3290  -26.6390   21.7820 C   0  0  0  0  0  2  0  0  0  0  0  0
  -17.9280  -26.8230   22.3920 C   0  0  0  0  0  2  0  0  0  0  0  0
  -18.8160  -28.9960   23.3950 C   0  0  0  0  0  0  0  0  0  0  0  0
  -18.6380  -30.2780   23.9450 C   0  0  0  0  0  3  0  0  0  0  0  0
  -17.3410  -30.7570   24.1680 C   0  0  0  0  0  3  0  0  0  0  0  0
  -16.2400  -29.9400   23.8440 C   0  0  0  0  0  3  0  0  0  0  0  0
  -16.4320  -28.6670   23.2760 C   0  0  0  0  0  3  0  0  0  0  0  0
  -25.7670  -32.4330   23.3080 C   0  0  0  0  0  3  0  0  0  0  0  0
  -25.3460  -33.8180   23.7370 N   0  0  0  0  0  0  0  0  0  0  0  0
  -25.6430  -35.0200   23.1920 C   0  0  0  0  0  0  0  0  0  0  0  0
  -26.2680  -35.1080   22.1350 O   0  0  0  0  0  0  0  0  0  0  0  0
  -24.6880  -33.8410   24.5030 H   0  0  0  0  0  0  0  0  0  0  0  0
  -23.8310  -36.8180   23.2950 C   0  0  0  0  0  1  0  0  0  0  0  0
  -25.1670  -36.3350   23.8870 C   0  0  0  0  0  3  0  0  0  0  0  0
  -27.3280  -37.2370   24.6440 C   0  0  0  0  0  1  0  0  0  0  0  0
  -26.1420  -37.4470   23.8220 N   0  0  0  0  0  0  0  0  0  0  0  0
  -25.7210  -38.3220   24.1100 H   0  0  0  0  0  0  0  0  0  0  0  0
  -26.4840  -31.7900   24.5640 C   0  0  1  0  0  0  0  0  0  0  0  0
  -25.4790  -31.4720   25.7010 C   0  0  0  0  0  1  0  0  0  0  0  0
  -27.2150  -30.4630   24.3420 C   0  0  0  0  0  1  0  0  0  0  0  0
  -27.6140  -32.7320   25.0680 C   0  0  0  0  0  1  0  0  0  0  0  0
  -27.5110  -21.6800   21.0600 C   0  0  0  0  0 15  0  0  0  0  0  0
  -29.1360  -17.4550   20.3770 C   0  0  0  0  0  2  0  0  0  0  0  0
  -30.0520  -14.5490   19.3790 C   0  0  0  0  0  2  0  0  0  0  0  0
  -29.5740  -13.3640   18.3300 C   0  0  0  0  0  2  0  0  0  0  0  0
  -28.4420  -12.4870   18.8520 C   0  0  0  0  0  2  0  0  0  0  0  0
  -27.6260  -13.4680   19.7030 C   0  0  0  0  0  3  0  0  0  0  0  0
  -28.3890  -14.4350   20.7290 C   0  0  0  0  0  2  0  0  0  0  0  0
  -29.0430  -15.7130   20.0940 N   0  0  0  0  0  0  0  0  0  0  0  0
  -30.4290  -17.2230   20.2610 O   0  0  0  0  0  1  0  0  0  0  0  0
  -28.0960  -19.2520   20.6450 N   0  0  0  0  0  1  0  0  0  0  0  0
  -25.3050  -13.7590   20.4800 C   0  0  0  0  0  0  0  0  0  0  0  0
  -24.2960  -12.9360   20.8650 C   0  0  0  0  0  0  0  0  0  0  0  0
  -24.8030  -11.6030   20.7750 C   0  0  0  0  0  0  0  0  0  0  0  0
  -26.3840  -12.9590   20.2240 N   0  0  0  0  0  0  0  0  0  0  0  0
  -26.0940  -11.6410   20.4050 N   0  0  0  0  0  0  0  0  0  0  0  0
  -24.0860  -10.3250   20.9520 C   0  0  0  0  0  0  0  0  0  0  0  0
  -24.5210   -9.3570   21.8840 C   0  0  0  0  0  3  0  0  0  0  0  0
  -23.7910   -8.1640   22.0600 C   0  0  0  0  0  3  0  0  0  0  0  0
  -22.6140   -7.9300   21.3110 C   0  0  0  0  0  0  0  0  0  0  0  0
  -22.2030   -8.8870   20.3670 C   0  0  0  0  0  3  0  0  0  0  0  0
  -22.9300  -10.0720   20.1850 C   0  0  0  0  0  3  0  0  0  0  0  0
  -21.8550   -6.7890   21.3960 O   0  0  0  0  0  0  0  0  0  0  0  0
  -21.7590   -6.0710   22.5600 C   0  0  0  0  0  0  0  0  0  0  0  0
  -21.2860   -6.6530   23.7560 C   0  0  0  0  0  3  0  0  0  0  0  0
  -21.1380   -5.8640   24.9140 C   0  0  0  0  0  3  0  0  0  0  0  0
  -21.4500   -4.4910   24.8780 C   0  0  0  0  0  0  0  0  0  0  0  0
  -21.9180   -3.9090   23.6860 C   0  0  0  0  0  3  0  0  0  0  0  0
  -22.0660   -4.6960   22.5300 C   0  0  0  0  0  0  0  0  0  0  0  0
  -22.4950   -4.1200   21.3810 F   0  0  0  0  0  0  0  0  0  0  0  0
  -21.3020   -3.7320   25.9900 F   0  0  0  0  0  0  0  0  0  0  0  0
  -22.9090  -13.3920   21.1970 C   0  0  0  0  0  0  0  0  0  0  0  0
  -22.2270  -12.6800   22.0850 N   0  0  0  0  0  0  0  0  0  0  0  0
  -22.4510  -14.4240   20.7000 O   0  0  0  0  0  0  0  0  0  0  0  0
  -22.6260  -11.8530   22.5050 H   0  0  0  0  0  0  0  0  0  0  0  0
  -21.2940  -12.9690   22.3420 H   0  0  0  0  0  0  0  0  0  0  0  0
  -25.3870  -15.1410   20.3250 N   0  0  0  0  0  0  0  0  0  0  0  0
  -24.5650  -15.7290   20.4420 H   0  0  0  0  0  0  0  0  0  0  0  0
  -26.1820  -15.6320   19.9440 H   0  0  0  0  0  0  0  0  0  0  0  0
  -26.0570  -19.8650   19.2710 C   0  0  0  0  0  1  0  0  0  0  0  0
  -26.7190  -18.9220   20.3110 C   0  0  0  0  0  2  0  0  0  0  0  0
  2 20  1  0
  4  9  1  0
  4 18  1  0
  4  2  1  0
  5  7  1  0
  5  3  1  0
  6  5  1  0
  8  6  1  0
 10  9  1  0
 11  9  1  0
 12 13  1  0
 12 11  1  0
 13 14  1  0
 14 16  1  0
 15 26  2  0
 16 21  1  0
 17 25  1  0
 17 27  1  0
 18 23  1  0
 18  2  1  0
 19 25  1  0
 21 20  1  0
 22 23  1  0
 22 16  2  0
 25 15  1  0
 27 29  2  0
 28 27  1  0
 30 28  1  0
 31 40  2  0
 31 36  1  0
 32 28  1  0
 32 36  1  0
 33 32  1  0
 34 35  1  0
 34 33  1  0
 35 31  1  0
 36 37  2  0
 37 38  1  0
 39 38  2  0
 40 39  1  0
 41 15  1  0
 41 42  1  0
 41 51  1  0
 42 45  1  0
 43 42  1  0
 43 47  1  0
 44 43  2  0
 47 46  1  0
 49 47  1  0
 49 50  1  0
 49 48  1  0
 51 54  1  1
 51 52  1  0
 53 51  1  0
 57 62  1  0
 58 59  1  0
 58 57  1  0
 60 59  1  0
 60 68  1  0
 60 61  1  0
 62 56  1  0
 62 61  1  0
 63 56  1  0
 65 66  2  0
 66 85  1  0
 67 66  1  0
 67 70  1  0
 68 69  1  0
 68 65  1  0
 69 67  2  0
 70 71  1  0
 71 72  2  0
 73 76  1  0
 73 72  1  0
 74 73  2  0
 75 74  1  0
 75 70  2  0
 76 77  1  0
 77 78  1  0
 78 79  2  0
 80 79  1  0
 80 84  1  0
 81 80  2  0
 82 77  2  0
 82 81  1  0
 83 82  1  0
 85 86  1  0
 86 89  1  0
 86 88  1  0
 87 85  2  0
 90 91  1  0
 90 65  1  0
 92 90  1  0
 93 94  1  0
 94 64  1  0
M  ISO  4  13 101  14 101  56 100  64 100
M  END
>  <TORSDO>  (10) 
F 22

>  <SCORE>  (10) 
-12.647

>  <name>  (10) 
9

>  <ligand_id>  (10) 
9

>  <original_smiles>  (10) 
[H]c1c([H])c([H])c2c(c1[H])C([H])([H])C([H])([H])C([H])([H])C2([H])N([H])C(=O)C1([H])N(C(=O)C([H])(N([H])C(=O)C([H])(N([H])C([H])([H])[H])C([H])([H])[H])C(C([H])([H])[H])(C([H])([H])[H])C([H])([H])[H])C([H])([H])c2c([H])c(OC([H])([H])C([H])([H])C([H])([H])N([H])c3c([H])c([H])c(C([H])([H])N(C(=O)N4C([H])([H])C([H])([H])C([H])([H])C([H])(n5nc(-c6c([H])c([H])c(Oc7c([H])c([H])c(F)c([H])c7F)c([H])c6[H])c(C(=O)N([H])[H])c5N([H])[H])C4([H])[H])C([H])([H])C([H])([H])[H])c(F)c3F)c([H])c([H])c2C1([H])[H]

>  <smiles>  (10) 
[H]c1c([H])c([H])c2c(c1[H])C([H])([H])C([H])([H])C([H])([H])C2([H])N([H])C(=O)C1([H])N(C(=O)C([H])(N([H])C(=O)C([H])(N([H])C([H])([H])[H])C([H])([H])[H])C(C([H])([H])[H])(C([H])([H])[H])C([H])([H])[H])C([H])([H])c2c([H])c(OC([H])([H])C([H])([H])C([H])([H])N([H])c3c([H])c([H])c(C([H])([H])N(C(=O)N4C([H])([H])C([H])([H])C([H])([H])C([H])(n5nc(-c6c([H])c([H])c(Oc7c([H])c([H])c(F)c([H])c7F)c([H])c6[H])c(C(=O)N([H])[H])c5N([H])[H])C4([H])[H])C([H])([H])C([H])([H])[H])c(F)c3F)c([H])c([H])c2C1([H])[H]

$$$$
10:0:0
     RDKit          3D

 91 99  0  0  1  0  0  0  0  0999 V2000
  -28.1370  -22.3490   22.5800 C   0  0  0  0  0  1  0  0  0  0  0  0
  -29.0540  -22.2430   21.4440 N   0  0  0  0  0  0  0  0  0  0  0  0
  -30.6790  -18.9020   21.9470 C   0  0  0  0  0  3  0  0  0  0  0  0
  -29.8280  -18.9990   19.6790 C   0  0  0  0  0  3  0  0  0  0  0  0
  -30.1830  -20.2010   22.1870 C   0  0  0  0  0  3  0  0  0  0  0  0
  -29.3550  -20.3090   19.9130 C   0  0  0  0  0  3  0  0  0  0  0  0
  -30.4990  -18.2780   20.6950 C   0  0  0  0  0  0  0  0  0  0  0  0
  -29.5190  -20.9340   21.1740 C   0  0  0  0  0  0  0  0  0  0  0  0
  -31.1680  -16.9330   20.3840 C   0  0  0  0  0  2  0  0  0  0  0  0
  -30.8420  -14.5460   19.9580 C   0  0  0  0  0  0  0  0  0  0  0  0
  -30.3640  -12.3860   18.8480 C   0  0  0  0  0  2  0  0  0  0  0  0
  -29.3640  -12.5690   17.6880 C   0  0  0  0  0  2  0  0  0  0  0  0
  -27.9250  -12.3920   18.2000 C   0  0  0  0  0  2  0  0  0  0  0  0
  -27.6530  -13.2570   19.4570 C   0  0  0  0  0  3  0  0  0  0  0  0
  -28.7720  -13.0880   20.5060 C   0  0  0  0  0  2  0  0  0  0  0  0
  -30.0690  -13.4120   19.8750 N   0  0  0  0  0  0  0  0  0  0  0  0
  -31.8670  -14.6330   19.2680 O   0  0  0  0  0  0  0  0  0  0  0  0
  -29.8750  -15.5920   22.0130 C   0  0  0  0  0  1  0  0  0  0  0  0
  -30.4420  -15.6540   20.6600 N   0  0  0  0  0  0  0  0  0  0  0  0
  -25.3240  -13.8590   20.3650 C   0  0  0  0  0  0  0  0  0  0  0  0
  -24.2840  -13.0830   20.7990 C   0  0  0  0  0  0  0  0  0  0  0  0
  -24.7340  -11.7310   20.7070 C   0  0  0  0  0  0  0  0  0  0  0  0
  -26.3400  -12.9770   20.0310 N   0  0  0  0  0  0  0  0  0  0  0  0
  -25.9950  -11.6910   20.2940 N   0  0  0  0  0  0  0  0  0  0  0  0
  -24.0200  -10.4680   20.9300 C   0  0  0  0  0  0  0  0  0  0  0  0
  -24.4760   -9.5190   21.8700 C   0  0  0  0  0  3  0  0  0  0  0  0
  -23.7610   -8.3220   22.0820 C   0  0  0  0  0  3  0  0  0  0  0  0
  -22.5760   -8.0650   21.3530 C   0  0  0  0  0  0  0  0  0  0  0  0
  -22.1380   -9.0050   20.4030 C   0  0  0  0  0  3  0  0  0  0  0  0
  -22.8530  -10.1940   20.1910 C   0  0  0  0  0  3  0  0  0  0  0  0
  -21.8320   -6.9150   21.4700 O   0  0  0  0  0  0  0  0  0  0  0  0
  -21.7440   -6.2320   22.6560 C   0  0  0  0  0  0  0  0  0  0  0  0
  -21.2720   -6.8450   23.8380 C   0  0  0  0  0  3  0  0  0  0  0  0
  -21.1330   -6.0870   25.0160 C   0  0  0  0  0  3  0  0  0  0  0  0
  -21.4570   -4.7180   25.0170 C   0  0  0  0  0  0  0  0  0  0  0  0
  -21.9230   -4.1040   23.8400 C   0  0  0  0  0  3  0  0  0  0  0  0
  -22.0640   -4.8600   22.6640 C   0  0  0  0  0  0  0  0  0  0  0  0
  -22.4940   -4.2590   21.5270 F   0  0  0  0  0  0  0  0  0  0  0  0
  -21.3160   -3.9870   26.1470 F   0  0  0  0  0  0  0  0  0  0  0  0
  -22.9170  -13.5640   21.1920 C   0  0  0  0  0  0  0  0  0  0  0  0
  -22.2650  -12.8700   22.1190 N   0  0  0  0  0  0  0  0  0  0  0  0
  -22.4370  -14.5890   20.7100 O   0  0  0  0  0  0  0  0  0  0  0  0
  -22.6650  -12.0410   22.5300 H   0  0  0  0  0  0  0  0  0  0  0  0
  -21.3520  -13.1760   22.4220 H   0  0  0  0  0  0  0  0  0  0  0  0
  -25.4800  -15.2320   20.2090 N   0  0  0  0  0  0  0  0  0  0  0  0
  -24.7280  -15.8830   20.4090 H   0  0  0  0  0  0  0  0  0  0  0  0
  -26.3240  -15.6890   19.8850 H   0  0  0  0  0  0  0  0  0  0  0  0
  -28.9170  -23.1870   20.3270 C   0  0  0  0  0  2  0  0  0  0  0  0
  -28.7330  -24.6650   20.7560 C   0  0  0  0  0  2  0  0  0  0  0  0
  -28.6730  -25.6020   19.5350 C   0  0  0  0  0  2  0  0  0  0  0  0
  -28.5220  -26.9680   19.9240 O   0  0  0  0  0  0  0  0  0  0  0  0
  -24.6430  -31.9220   23.1970 C   0  0  0  0  0  0  0  0  0  0  0  0
  -27.2880  -27.5890   19.9660 C   0  0  0  0  0  0  0  0  0  0  0  0
  -23.4100  -30.5260   21.5620 C   0  0  0  0  0  3  0  0  0  0  0  0
  -24.8530  -29.0380   20.0760 C   0  0  0  0  0  0  0  0  0  0  0  0
  -25.9230  -30.9390   21.3000 C   0  0  0  0  0  2  0  0  0  0  0  0
  -26.0160  -29.5800   20.6330 C   0  0  0  0  0  0  0  0  0  0  0  0
  -27.2310  -28.8660   20.5710 C   0  0  0  0  0  3  0  0  0  0  0  0
  -26.0990  -27.0480   19.4210 C   0  0  0  0  0  3  0  0  0  0  0  0
  -24.8890  -27.7710   19.4700 C   0  0  0  0  0  3  0  0  0  0  0  0
  -23.5950  -29.8710   20.1650 C   0  0  0  0  0  2  0  0  0  0  0  0
  -24.6770  -31.1470   22.0760 N   0  0  0  0  0  0  0  0  0  0  0  0
  -23.5730  -32.1610   23.7750 O   0  0  0  0  0  0  0  0  0  0  0  0
  -22.8050  -29.4770   22.5230 C   0  0  0  0  0  0  0  0  0  0  0  0
  -21.4880  -29.2440   22.4020 N   0  0  0  0  0  0  0  0  0  0  0  0
  -23.5150  -28.8730   23.3320 O   0  0  0  0  0  0  0  0  0  0  0  0
  -20.9740  -29.7750   21.7130 H   0  0  0  0  0  0  0  0  0  0  0  0
  -18.1710  -27.8950   22.8690 C   0  0  0  0  0  0  0  0  0  0  0  0
  -20.7090  -28.2750   23.1730 C   0  0  0  0  0  3  0  0  0  0  0  0
  -20.8890  -26.8480   22.6060 C   0  0  0  0  0  2  0  0  0  0  0  0
  -19.8190  -26.4650   21.5810 C   0  0  0  0  0  2  0  0  0  0  0  0
  -18.4240  -26.5500   22.2070 C   0  0  0  0  0  2  0  0  0  0  0  0
  -19.2450  -28.7120   23.3060 C   0  0  0  0  0  0  0  0  0  0  0  0
  -18.9600  -29.9710   23.8790 C   0  0  0  0  0  3  0  0  0  0  0  0
  -17.6310  -30.4110   24.0260 C   0  0  0  0  0  3  0  0  0  0  0  0
  -16.5700  -29.5920   23.6050 C   0  0  0  0  0  3  0  0  0  0  0  0
  -16.8400  -28.3350   23.0330 C   0  0  0  0  0  3  0  0  0  0  0  0
  -25.9380  -32.5580   23.7930 C   0  0  0  0  0  3  0  0  0  0  0  0
  -25.6320  -33.9540   24.1340 N   0  0  0  0  0  0  0  0  0  0  0  0
  -25.9370  -35.0090   23.3650 C   0  0  0  0  0  0  0  0  0  0  0  0
  -26.5810  -34.9120   22.3170 O   0  0  0  0  0  0  0  0  0  0  0  0
  -25.0620  -34.1050   24.9540 H   0  0  0  0  0  0  0  0  0  0  0  0
  -24.1780  -36.7740   23.0510 C   0  0  0  0  0  1  0  0  0  0  0  0
  -25.4440  -36.3910   23.8340 C   0  0  0  0  0  3  0  0  0  0  0  0
  -27.5860  -37.2930   24.6210 C   0  0  0  0  0  1  0  0  0  0  0  0
  -26.4630  -37.4550   23.7010 N   0  0  0  0  0  0  0  0  0  0  0  0
  -26.0510  -38.3700   23.8610 H   0  0  0  0  0  0  0  0  0  0  0  0
  -26.4920  -31.7840   25.0540 C   0  0  1  0  0  0  0  0  0  0  0  0
  -25.4220  -31.5090   26.1340 C   0  0  0  0  0  1  0  0  0  0  0  0
  -27.0960  -30.4250   24.6360 C   0  0  0  0  0  1  0  0  0  0  0  0
  -27.6370  -32.5920   25.7100 C   0  0  0  0  0  1  0  0  0  0  0  0
  2  1  1  0
  3  5  1  0
  4  6  2  0
  4  7  1  0
  6  8  1  0
  7  3  2  0
  8  2  1  0
  8  5  2  0
  9 19  1  0
  9  7  1  0
 10 19  1  0
 11 16  1  0
 12 13  1  0
 12 11  1  0
 14 13  1  0
 14 23  1  0
 14 15  1  0
 16 10  1  0
 16 15  1  0
 17 10  2  0
 19 18  1  0
 20 21  2  0
 21 40  1  0
 22 21  1  0
 22 25  1  0
 23 24  1  0
 23 20  1  0
 24 22  2  0
 25 26  1  0
 26 27  2  0
 28 31  1  0
 28 27  1  0
 29 28  2  0
 30 29  1  0
 30 25  2  0
 31 32  1  0
 32 37  2  0
 32 33  1  0
 33 34  2  0
 34 35  1  0
 35 39  1  0
 36 35  2  0
 37 36  1  0
 38 37  1  0
 40 41  1  0
 41 44  1  0
 41 43  1  0
 42 40  2  0
 45 20  1  0
 45 46  1  0
 47 45  1  0
 48 49  1  0
 48  2  1  0
 50 51  1  0
 50 49  1  0
 51 53  1  0
 52 63  2  0
 53 58  1  0
 54 62  1  0
 54 64  1  0
 55 61  1  0
 55 57  1  0
 56 62  1  0
 57 56  1  0
 58 57  2  0
 59 60  1  0
 59 53  2  0
 60 55  2  0
 61 54  1  0
 62 52  1  0
 64 66  2  0
 65 64  1  0
 67 65  1  0
 68 77  2  0
 68 73  1  0
 69 65  1  0
 69 73  1  0
 70 69  1  0
 71 72  1  0
 71 70  1  0
 72 68  1  0
 73 74  2  0
 74 75  1  0
 76 75  2  0
 77 76  1  0
 78 52  1  0
 78 79  1  0
 78 88  1  0
 79 82  1  0
 80 84  1  0
 80 79  1  0
 81 80  2  0
 84 83  1  0
 86 84  1  0
 86 87  1  0
 86 85  1  0
 88 91  1  1
 88 89  1  0
 90 88  1  0
M  ISO  4  10 100  19 100  50 101  51 101
M  END
>  <TORSDO>  (11) 
F 21

>  <SCORE>  (11) 
-11.894

>  <name>  (11) 
10

>  <ligand_id>  (11) 
10

>  <original_smiles>  (11) 
[H]c1c([H])c([H])c2c(c1[H])C([H])([H])C([H])([H])C([H])([H])C2([H])N([H])C(=O)C1([H])N(C(=O)C([H])(N([H])C(=O)C([H])(N([H])C([H])([H])[H])C([H])([H])[H])C(C([H])([H])[H])(C([H])([H])[H])C([H])([H])[H])C([H])([H])c2c([H])c(OC([H])([H])C([H])([H])C([H])([H])N(c3c([H])c([H])c(C([H])([H])N(C(=O)N4C([H])([H])C([H])([H])C([H])([H])C([H])(n5nc(-c6c([H])c([H])c(Oc7c([H])c([H])c(F)c([H])c7F)c([H])c6[H])c(C(=O)N([H])[H])c5N([H])[H])C4([H])[H])C([H])([H])[H])c([H])c3[H])C([H])([H])[H])c([H])c([H])c2C1([H])[H]

>  <smiles>  (11) 
[H]c1c([H])c([H])c2c(c1[H])C([H])([H])C([H])([H])C([H])([H])C2([H])N([H])C(=O)C1([H])N(C(=O)C([H])(N([H])C(=O)C([H])(N([H])C([H])([H])[H])C([H])([H])[H])C(C([H])([H])[H])(C([H])([H])[H])C([H])([H])[H])C([H])([H])c2c([H])c(OC([H])([H])C([H])([H])C([H])([H])N(c3c([H])c([H])c(C([H])([H])N(C(=O)N4C([H])([H])C([H])([H])C([H])([H])C([H])(n5nc(-c6c([H])c([H])c(Oc7c([H])c([H])c(F)c([H])c7F)c([H])c6[H])c(C(=O)N([H])[H])c5N([H])[H])C4([H])[H])C([H])([H])[H])c([H])c3[H])C([H])([H])[H])c([H])c([H])c2C1([H])[H]

$$$$
11:0:0
     RDKit          3D

 91100  0  0  1  0  0  0  0  0999 V2000
  -29.5720  -23.1450   22.5460 C   0  0  0  0  0  2  0  0  0  0  0  0
  -30.1940  -23.7830   21.2990 C   0  0  0  0  0  2  0  0  0  0  0  0
  -28.4370  -22.2500   22.0230 C   0  0  0  0  0  2  0  0  0  0  0  0
  -29.1850  -23.4890   20.1940 C   0  0  0  0  0  3  0  0  0  0  0  0
  -28.6820  -22.0740   20.5900 N   0  0  0  0  0  0  0  0  0  0  0  0
  -28.1240  -19.6230   20.5240 C   0  0  0  0  0  3  0  0  0  0  0  0
  -30.4020  -20.0790   20.1480 C   0  0  0  0  0  3  0  0  0  0  0  0
  -28.3900  -18.2060   20.4840 C   0  0  0  0  0  3  0  0  0  0  0  0
  -30.6760  -18.6350   20.1060 C   0  0  0  0  0  3  0  0  0  0  0  0
  -29.1000  -20.6590   20.3730 C   0  0  0  0  0  0  0  0  0  0  0  0
  -29.6740  -17.6120   20.2850 C   0  0  0  0  0  0  0  0  0  0  0  0
  -30.6220  -15.0150   19.9670 C   0  0  0  0  0  0  0  0  0  0  0  0
  -30.4820  -12.7030   18.9390 C   0  0  0  0  0  2  0  0  0  0  0  0
  -29.4660  -12.7280   17.7720 C   0  0  0  0  0  2  0  0  0  0  0  0
  -28.0280  -12.5070   18.2830 C   0  0  0  0  0  2  0  0  0  0  0  0
  -27.7040  -13.3740   19.5270 C   0  0  0  0  0  3  0  0  0  0  0  0
  -28.8280  -13.3030   20.5820 C   0  0  0  0  0  2  0  0  0  0  0  0
  -30.0700  -13.7380   19.9240 N   0  0  0  0  0  0  0  0  0  0  0  0
  -31.7830  -15.1680   19.5690 O   0  0  0  0  0  0  0  0  0  0  0  0
  -29.7620  -16.0840   20.3040 N   0  0  0  0  0  0  0  0  0  0  0  0
  -28.8880  -15.6790   20.6030 H   0  0  0  0  0  0  0  0  0  0  0  0
  -25.3700  -13.9310   20.4290 C   0  0  0  0  0  0  0  0  0  0  0  0
  -24.3300  -13.1430   20.8410 C   0  0  0  0  0  0  0  0  0  0  0  0
  -24.7900  -11.7940   20.7340 C   0  0  0  0  0  0  0  0  0  0  0  0
  -26.3950  -13.0620   20.0930 N   0  0  0  0  0  0  0  0  0  0  0  0
  -26.0580  -11.7700   20.3400 N   0  0  0  0  0  0  0  0  0  0  0  0
  -24.0760  -10.5260   20.9260 C   0  0  0  0  0  0  0  0  0  0  0  0
  -24.5080   -9.5680   21.8700 C   0  0  0  0  0  3  0  0  0  0  0  0
  -23.7920   -8.3650   22.0490 C   0  0  0  0  0  3  0  0  0  0  0  0
  -22.6290   -8.1110   21.2830 C   0  0  0  0  0  0  0  0  0  0  0  0
  -22.2170   -9.0560   20.3270 C   0  0  0  0  0  3  0  0  0  0  0  0
  -22.9340  -10.2510   20.1460 C   0  0  0  0  0  3  0  0  0  0  0  0
  -21.8850   -6.9590   21.3710 O   0  0  0  0  0  0  0  0  0  0  0  0
  -21.7530   -6.2760   22.5530 C   0  0  0  0  0  0  0  0  0  0  0  0
  -21.2160   -6.8840   23.7090 C   0  0  0  0  0  3  0  0  0  0  0  0
  -21.0330   -6.1260   24.8830 C   0  0  0  0  0  3  0  0  0  0  0  0
  -21.3760   -4.7620   24.9010 C   0  0  0  0  0  0  0  0  0  0  0  0
  -21.9050   -4.1520   23.7490 C   0  0  0  0  0  3  0  0  0  0  0  0
  -22.0890   -4.9070   22.5780 C   0  0  0  0  0  0  0  0  0  0  0  0
  -22.5790   -4.3110   21.4650 F   0  0  0  0  0  0  0  0  0  0  0  0
  -21.1930   -4.0310   26.0260 F   0  0  0  0  0  0  0  0  0  0  0  0
  -22.9530  -13.6100   21.2140 C   0  0  0  0  0  0  0  0  0  0  0  0
  -22.2790  -12.8860   22.1000 N   0  0  0  0  0  0  0  0  0  0  0  0
  -22.4850  -14.6510   20.7550 O   0  0  0  0  0  0  0  0  0  0  0  0
  -22.6700  -12.0440   22.4950 H   0  0  0  0  0  0  0  0  0  0  0  0
  -21.3560  -13.1790   22.3890 H   0  0  0  0  0  0  0  0  0  0  0  0
  -25.5190  -15.3080   20.2840 N   0  0  0  0  0  0  0  0  0  0  0  0
  -24.7430  -15.9420   20.4400 H   0  0  0  0  0  0  0  0  0  0  0  0
  -26.3000  -15.7500   19.8170 H   0  0  0  0  0  0  0  0  0  0  0  0
  -28.0960  -24.7760   20.1200 C   0  0  0  0  0  2  0  0  0  0  0  0
  -28.3750  -26.3010   20.1560 O   0  0  0  0  0  0  0  0  0  0  0  0
  -24.6720  -31.8660   23.2480 C   0  0  0  0  0  0  0  0  0  0  0  0
  -27.2990  -27.2570   20.1240 C   0  0  0  0  0  0  0  0  0  0  0  0
  -23.4900  -30.5050   21.5670 C   0  0  0  0  0  3  0  0  0  0  0  0
  -24.9560  -28.9750   20.1200 C   0  0  0  0  0  0  0  0  0  0  0  0
  -26.0430  -30.7920   21.4260 C   0  0  0  0  0  2  0  0  0  0  0  0
  -26.1290  -29.4180   20.7430 C   0  0  0  0  0  0  0  0  0  0  0  0
  -27.3020  -28.5770   20.7280 C   0  0  0  0  0  3  0  0  0  0  0  0
  -26.0950  -26.9110   19.4690 C   0  0  0  0  0  3  0  0  0  0  0  0
  -24.9500  -27.7340   19.4680 C   0  0  0  0  0  3  0  0  0  0  0  0
  -23.7230  -29.8640   20.1750 C   0  0  0  0  0  2  0  0  0  0  0  0
  -24.7550  -31.0740   22.1370 N   0  0  0  0  0  0  0  0  0  0  0  0
  -23.5800  -32.1350   23.7720 O   0  0  0  0  0  0  0  0  0  0  0  0
  -22.8070  -29.4730   22.4980 C   0  0  0  0  0  0  0  0  0  0  0  0
  -21.4800  -29.3080   22.3610 N   0  0  0  0  0  0  0  0  0  0  0  0
  -23.4740  -28.8250   23.3090 O   0  0  0  0  0  0  0  0  0  0  0  0
  -20.9980  -29.8830   21.6840 H   0  0  0  0  0  0  0  0  0  0  0  0
  -18.0900  -28.1250   22.8400 C   0  0  0  0  0  0  0  0  0  0  0  0
  -20.6530  -28.3530   23.1040 C   0  0  0  0  0  3  0  0  0  0  0  0
  -20.7360  -26.9400   22.4800 C   0  0  0  0  0  2  0  0  0  0  0  0
  -19.6260  -26.6630   21.4610 C   0  0  0  0  0  2  0  0  0  0  0  0
  -18.2500  -26.7990   22.1170 C   0  0  0  0  0  2  0  0  0  0  0  0
  -19.2170  -28.8620   23.2900 C   0  0  0  0  0  0  0  0  0  0  0  0
  -19.0130  -30.1040   23.9290 C   0  0  0  0  0  3  0  0  0  0  0  0
  -17.7130  -30.6100   24.1210 C   0  0  0  0  0  3  0  0  0  0  0  0
  -16.5990  -29.8710   23.6860 C   0  0  0  0  0  3  0  0  0  0  0  0
  -16.7890  -28.6300   23.0510 C   0  0  0  0  0  3  0  0  0  0  0  0
  -25.9430  -32.4900   23.9010 C   0  0  0  0  0  3  0  0  0  0  0  0
  -25.6350  -33.8890   24.2340 N   0  0  0  0  0  0  0  0  0  0  0  0
  -25.9530  -34.9430   23.4700 C   0  0  0  0  0  0  0  0  0  0  0  0
  -26.6050  -34.8400   22.4280 O   0  0  0  0  0  0  0  0  0  0  0  0
  -25.0540  -34.0430   25.0450 H   0  0  0  0  0  0  0  0  0  0  0  0
  -24.2030  -36.7250   23.1710 C   0  0  0  0  0  1  0  0  0  0  0  0
  -25.4770  -36.3330   23.9370 C   0  0  0  0  0  3  0  0  0  0  0  0
  -27.6320  -37.2420   24.6840 C   0  0  0  0  0  1  0  0  0  0  0  0
  -26.4970  -37.3910   23.7770 N   0  0  0  0  0  0  0  0  0  0  0  0
  -26.0910  -38.3110   23.9260 H   0  0  0  0  0  0  0  0  0  0  0  0
  -26.4230  -31.7090   25.1870 C   0  0  1  0  0  0  0  0  0  0  0  0
  -25.3040  -31.4790   26.2300 C   0  0  0  0  0  1  0  0  0  0  0  0
  -27.0030  -30.3270   24.8070 C   0  0  0  0  0  1  0  0  0  0  0  0
  -27.5640  -32.4920   25.8780 C   0  0  0  0  0  1  0  0  0  0  0  0
  2  1  1  0
  3  1  1  0
  4 50  1  0
  4  5  1  0
  4  2  1  0
  5  3  1  0
  7 10  1  0
  8  6  1  0
  9  7  2  0
  9 11  1  0
 10  6  2  0
 10  5  1  0
 11 20  1  0
 11  8  2  0
 12 20  1  0
 13 18  1  0
 14 15  1  0
 14 13  1  0
 16 15  1  0
 16 25  1  0
 16 17  1  0
 18 12  1  0
 18 17  1  0
 19 12  2  0
 20 21  1  0
 22 23  2  0
 23 42  1  0
 24 23  1  0
 24 27  1  0
 25 26  1  0
 25 22  1  0
 26 24  2  0
 27 28  1  0
 28 29  2  0
 30 33  1  0
 30 29  1  0
 31 30  2  0
 32 31  1  0
 32 27  2  0
 33 34  1  0
 34 39  2  0
 34 35  1  0
 35 36  2  0
 36 37  1  0
 37 41  1  0
 38 37  2  0
 39 38  1  0
 40 39  1  0
 42 43  1  0
 43 46  1  0
 43 45  1  0
 44 42  2  0
 47 22  1  0
 47 48  1  0
 49 47  1  0
 50 51  1  0
 52 63  2  0
 53 51  1  0
 53 58  1  0
 54 62  1  0
 54 64  1  0
 55 61  1  0
 55 57  1  0
 56 62  1  0
 57 56  1  0
 58 57  2  0
 59 53  2  0
 60 59  1  0
 60 55  2  0
 61 54  1  0
 62 52  1  0
 64 66  2  0
 65 64  1  0
 67 65  1  0
 68 77  2  0
 68 73  1  0
 69 65  1  0
 69 73  1  0
 70 69  1  0
 71 72  1  0
 71 70  1  0
 72 68  1  0
 73 74  2  0
 74 75  1  0
 76 75  2  0
 77 76  1  0
 78 52  1  0
 78 79  1  0
 78 88  1  0
 79 82  1  0
 80 84  1  0
 80 79  1  0
 81 80  2  0
 84 83  1  0
 86 87  1  0
 86 84  1  0
 86 85  1  0
 88 91  1  1
 88 89  1  0
 90 88  1  0
M  ISO  4  12 100  20 100  50 101  51 101
M  END
>  <TORSDO>  (12) 
F 18

>  <SCORE>  (12) 
-14.615

>  <name>  (12) 
11

>  <ligand_id>  (12) 
11

>  <original_smiles>  (12) 
[H]c1c([H])c([H])c2c(c1[H])C([H])([H])C([H])([H])C([H])([H])C2([H])N([H])C(=O)C1([H])N(C(=O)C([H])(N([H])C(=O)C([H])(N([H])C([H])([H])[H])C([H])([H])[H])C(C([H])([H])[H])(C([H])([H])[H])C([H])([H])[H])C([H])([H])c2c([H])c(OC([H])([H])C3([H])N(c4c([H])c([H])c(N([H])C(=O)N5C([H])([H])C([H])([H])C([H])([H])C([H])(n6nc(-c7c([H])c([H])c(Oc8c([H])c([H])c(F)c([H])c8F)c([H])c7[H])c(C(=O)N([H])[H])c6N([H])[H])C5([H])[H])c([H])c4[H])C([H])([H])C([H])([H])C3([H])[H])c([H])c([H])c2C1([H])[H]

>  <smiles>  (12) 
[H]c1c([H])c([H])c2c(c1[H])C([H])([H])C([H])([H])C([H])([H])C2([H])N([H])C(=O)C1([H])N(C(=O)C([H])(N([H])C(=O)C([H])(N([H])C([H])([H])[H])C([H])([H])[H])C(C([H])([H])[H])(C([H])([H])[H])C([H])([H])[H])C([H])([H])c2c([H])c(OC([H])([H])C3([H])N(c4c([H])c([H])c(N([H])C(=O)N5C([H])([H])C([H])([H])C([H])([H])C([H])(n6nc(-c7c([H])c([H])c(Oc8c([H])c([H])c(F)c([H])c8F)c([H])c7[H])c(C(=O)N([H])[H])c6N([H])[H])C5([H])[H])c([H])c4[H])C([H])([H])C([H])([H])C3([H])[H])c([H])c([H])c2C1([H])[H]

$$$$
12:0:0
     RDKit          3D

102111  0  0  1  0  0  0  0  0999 V2000
  -29.5340  -23.1570   20.7530 C   0  0  0  0  0  3  0  0  0  0  0  0
  -28.2700  -24.4850   22.1720 C   0  0  0  0  0  2  0  0  0  0  0  0
  -29.6180  -24.2460   22.8680 C   0  0  0  0  0  3  0  0  0  0  0  0
  -30.5100  -23.4600   21.8530 C   0  0  2  0  0  0  0  0  0  0  0  0
  -30.1900  -25.5810   23.3980 C   0  0  0  0  0  1  0  0  0  0  0  0
  -31.5960  -24.3420   21.1930 C   0  0  0  0  0  1  0  0  0  0  0  0
  -28.3410  -23.7460   20.9210 N   0  0  0  0  0  0  0  0  0  0  0  0
  -29.8690  -22.4280   19.6730 N   0  0  0  0  0  0  0  0  0  0  0  0
  -30.7970  -22.0200   19.6450 H   0  0  0  0  0  0  0  0  0  0  0  0
  -29.2050  -22.1570   18.9650 H   0  0  0  0  0  0  0  0  0  0  0  0
  -31.0660  -22.1360   22.4800 C   0  0  0  0  0  2  0  0  0  0  0  0
  -33.3150  -21.4280   21.6230 C   0  0  0  0  0  1  0  0  0  0  0  0
  -31.8590  -21.2880   21.5700 N   0  0  0  0  0  0  0  0  0  0  0  0
  -31.4180  -19.3800   20.1290 C   0  0  0  0  0  3  0  0  0  0  0  0
  -31.1100  -18.0170   19.9400 C   0  0  0  0  0  3  0  0  0  0  0  0
  -31.2330  -19.0910   22.5330 C   0  0  0  0  0  3  0  0  0  0  0  0
  -31.4820  -19.9350   21.4250 C   0  0  0  0  0  0  0  0  0  0  0  0
  -30.8710  -17.1660   21.0480 C   0  0  0  0  0  0  0  0  0  0  0  0
  -30.9270  -17.7240   22.3450 C   0  0  0  0  0  0  0  0  0  0  0  0
  -30.6950  -16.9340   23.4210 F   0  0  0  0  0  0  0  0  0  0  0  0
  -30.9790  -14.8960   20.0100 C   0  0  0  0  0  0  0  0  0  0  0  0
  -30.5940  -12.7470   18.8480 C   0  0  0  0  0  2  0  0  0  0  0  0
  -29.6020  -12.9400   17.6850 C   0  0  0  0  0  2  0  0  0  0  0  0
  -28.1510  -12.7870   18.1790 C   0  0  0  0  0  2  0  0  0  0  0  0
  -27.8620  -13.6390   19.4430 C   0  0  0  0  0  3  0  0  0  0  0  0
  -28.9640  -13.4460   20.5120 C   0  0  0  0  0  2  0  0  0  0  0  0
  -30.2740  -13.7320   19.8970 N   0  0  0  0  0  0  0  0  0  0  0  0
  -31.9900  -15.1210   19.3390 O   0  0  0  0  0  0  0  0  0  0  0  0
  -30.5190  -15.7840   20.9100 N   0  0  0  0  0  0  0  0  0  0  0  0
  -29.8300  -15.4410   21.5620 H   0  0  0  0  0  0  0  0  0  0  0  0
  -25.4940  -14.2380   20.2560 C   0  0  0  0  0  0  0  0  0  0  0  0
  -24.4420  -13.4600   20.6720 C   0  0  0  0  0  0  0  0  0  0  0  0
  -24.9030  -12.1100   20.6090 C   0  0  0  0  0  0  0  0  0  0  0  0
  -26.5290  -13.3590   19.9760 N   0  0  0  0  0  0  0  0  0  0  0  0
  -26.1780  -12.0740   20.2410 N   0  0  0  0  0  0  0  0  0  0  0  0
  -24.1870  -10.8440   20.8250 C   0  0  0  0  0  0  0  0  0  0  0  0
  -24.5900   -9.9250   21.8200 C   0  0  0  0  0  3  0  0  0  0  0  0
  -23.8720   -8.7250   22.0190 C   0  0  0  0  0  3  0  0  0  0  0  0
  -22.7360   -8.4370   21.2250 C   0  0  0  0  0  0  0  0  0  0  0  0
  -22.3530   -9.3440   20.2210 C   0  0  0  0  0  3  0  0  0  0  0  0
  -23.0730  -10.5340   20.0200 C   0  0  0  0  0  3  0  0  0  0  0  0
  -21.9950   -7.2840   21.3300 O   0  0  0  0  0  0  0  0  0  0  0  0
  -21.8010   -6.6610   22.5380 C   0  0  0  0  0  0  0  0  0  0  0  0
  -21.1890   -7.3220   23.6250 C   0  0  0  0  0  3  0  0  0  0  0  0
  -20.9450   -6.6260   24.8260 C   0  0  0  0  0  3  0  0  0  0  0  0
  -21.2990   -5.2670   24.9360 C   0  0  0  0  0  0  0  0  0  0  0  0
  -21.9020   -4.6060   23.8530 C   0  0  0  0  0  3  0  0  0  0  0  0
  -22.1490   -5.3000   22.6550 C   0  0  0  0  0  0  0  0  0  0  0  0
  -22.7090   -4.6520   21.6060 F   0  0  0  0  0  0  0  0  0  0  0  0
  -21.0570   -4.5960   26.0870 F   0  0  0  0  0  0  0  0  0  0  0  0
  -23.0600  -13.9330   21.0130 C   0  0  0  0  0  0  0  0  0  0  0  0
  -22.3810  -13.2420   21.9240 N   0  0  0  0  0  0  0  0  0  0  0  0
  -22.5890  -14.9530   20.5110 O   0  0  0  0  0  0  0  0  0  0  0  0
  -22.7720  -12.4150   22.3500 H   0  0  0  0  0  0  0  0  0  0  0  0
  -21.4570  -13.5440   22.1990 H   0  0  0  0  0  0  0  0  0  0  0  0
  -25.6490  -15.6080   20.0810 N   0  0  0  0  0  0  0  0  0  0  0  0
  -24.8980  -16.2720   20.2370 H   0  0  0  0  0  0  0  0  0  0  0  0
  -26.4960  -16.0460   19.7370 H   0  0  0  0  0  0  0  0  0  0  0  0
  -27.3310  -23.9380   19.8770 C   0  0  0  0  0  2  0  0  0  0  0  0
  -27.2010  -24.9480   17.4740 C   0  0  0  0  0  1  0  0  0  0  0  0
  -27.8070  -25.0340   18.8860 C   0  0  0  0  0  3  0  0  0  0  0  0
  -27.7860  -26.3660   19.4270 O   0  0  0  0  0  0  0  0  0  0  0  0
  -24.5470  -31.5740   23.0190 C   0  0  0  0  0  0  0  0  0  0  0  0
  -26.6300  -27.1140   19.5440 C   0  0  0  0  0  0  0  0  0  0  0  0
  -23.1250  -30.3360   21.4180 C   0  0  0  0  0  3  0  0  0  0  0  0
  -24.3550  -28.7810   19.8180 C   0  0  0  0  0  0  0  0  0  0  0  0
  -25.6500  -30.5300   21.0400 C   0  0  0  0  0  2  0  0  0  0  0  0
  -25.5890  -29.1900   20.3360 C   0  0  0  0  0  0  0  0  0  0  0  0
  -26.7270  -28.3620   20.1990 C   0  0  0  0  0  3  0  0  0  0  0  0
  -25.3680  -26.7110   19.0510 C   0  0  0  0  0  3  0  0  0  0  0  0
  -24.2390  -27.5360   19.1830 C   0  0  0  0  0  3  0  0  0  0  0  0
  -23.1760  -29.7080   20.0000 C   0  0  0  0  0  2  0  0  0  0  0  0
  -24.4640  -30.8240   21.8810 N   0  0  0  0  0  0  0  0  0  0  0  0
  -23.5330  -31.8910   23.6560 O   0  0  0  0  0  0  0  0  0  0  0  0
  -22.4780  -29.3120   22.3790 C   0  0  0  0  0  0  0  0  0  0  0  0
  -21.1450  -29.1740   22.2930 N   0  0  0  0  0  0  0  0  0  0  0  0
  -23.1700  -28.6480   23.1560 O   0  0  0  0  0  0  0  0  0  0  0  0
  -20.6440  -29.7650   21.6420 H   0  0  0  0  0  0  0  0  0  0  0  0
  -17.7680  -28.0050   22.8070 C   0  0  0  0  0  0  0  0  0  0  0  0
  -20.3250  -28.2460   23.0690 C   0  0  0  0  0  3  0  0  0  0  0  0
  -20.4150  -26.8080   22.5030 C   0  0  0  0  0  2  0  0  0  0  0  0
  -19.3110  -26.4870   21.4930 C   0  0  0  0  0  2  0  0  0  0  0  0
  -17.9330  -26.6500   22.1390 C   0  0  0  0  0  2  0  0  0  0  0  0
  -18.8930  -28.7630   23.2250 C   0  0  0  0  0  0  0  0  0  0  0  0
  -18.6870  -30.0340   23.8040 C   0  0  0  0  0  3  0  0  0  0  0  0
  -17.3870  -30.5480   23.9680 C   0  0  0  0  0  3  0  0  0  0  0  0
  -16.2760  -29.7850   23.5700 C   0  0  0  0  0  3  0  0  0  0  0  0
  -16.4670  -28.5160   22.9960 C   0  0  0  0  0  3  0  0  0  0  0  0
  -25.9180  -32.0850   23.5610 C   0  0  0  0  0  3  0  0  0  0  0  0
  -25.7290  -33.4710   24.0100 N   0  0  0  0  0  0  0  0  0  0  0  0
  -26.0980  -34.5550   23.3150 C   0  0  0  0  0  0  0  0  0  0  0  0
  -26.7010  -34.4890   22.2390 O   0  0  0  0  0  0  0  0  0  0  0  0
  -25.2010  -33.6070   24.8590 H   0  0  0  0  0  0  0  0  0  0  0  0
  -24.4870  -36.4800   23.1970 C   0  0  0  0  0  1  0  0  0  0  0  0
  -25.7330  -35.9290   23.9080 C   0  0  0  0  0  3  0  0  0  0  0  0
  -27.9600  -36.5920   24.6970 C   0  0  0  0  0  1  0  0  0  0  0  0
  -26.8330  -36.9150   23.8270 N   0  0  0  0  0  0  0  0  0  0  0  0
  -26.4990  -37.8410   24.0780 H   0  0  0  0  0  0  0  0  0  0  0  0
  -26.5040  -31.1940   24.7230 C   0  0  1  0  0  0  0  0  0  0  0  0
  -25.5030  -30.9350   25.8720 C   0  0  0  0  0  1  0  0  0  0  0  0
  -26.9680  -29.8260   24.1740 C   0  0  0  0  0  1  0  0  0  0  0  0
  -27.7550  -31.8750   25.3260 C   0  0  0  0  0  1  0  0  0  0  0  0
  1  8  1  0
  1  7  1  0
  1  4  1  0
  2  3  1  0
  3  5  1  0
  4  6  1  6
  4 11  1  0
  4  3  1  0
  7  2  1  0
  9  8  1  0
 10  8  1  0
 13 12  1  0
 13 11  1  0
 14 17  1  0
 15 14  2  0
 15 18  1  0
 17 13  1  0
 17 16  2  0
 18 19  2  0
 19 16  1  0
 19 20  1  0
 21 29  1  0
 22 27  1  0
 23 24  1  0
 23 22  1  0
 25 24  1  0
 25 34  1  0
 25 26  1  0
 27 21  1  0
 27 26  1  0
 28 21  2  0
 29 18  1  0
 29 30  1  0
 31 32  2  0
 32 51  1  0
 33 32  1  0
 33 36  1  0
 34 35  1  0
 34 31  1  0
 35 33  2  0
 36 37  1  0
 37 38  2  0
 39 42  1  0
 39 38  1  0
 40 39  2  0
 41 40  1  0
 41 36  2  0
 42 43  1  0
 43 48  2  0
 43 44  1  0
 44 45  2  0
 45 46  1  0
 46 50  1  0
 47 46  2  0
 48 47  1  0
 49 48  1  0
 51 52  1  0
 52 55  1  0
 52 54  1  0
 53 51  2  0
 56 57  1  0
 56 31  1  0
 58 56  1  0
 59  7  1  0
 61 60  1  0
 61 62  1  0
 61 59  1  0
 62 64  1  0
 63 74  2  0
 64 69  1  0
 65 73  1  0
 65 75  1  0
 66 72  1  0
 66 68  1  0
 67 73  1  0
 68 67  1  0
 69 68  2  0
 70 71  1  0
 70 64  2  0
 71 66  2  0
 72 65  1  0
 73 63  1  0
 75 77  2  0
 76 75  1  0
 78 76  1  0
 79 88  2  0
 79 84  1  0
 80 76  1  0
 80 84  1  0
 81 80  1  0
 82 83  1  0
 82 81  1  0
 83 79  1  0
 84 85  2  0
 85 86  1  0
 87 86  2  0
 88 87  1  0
 89 63  1  0
 89 90  1  0
 89 99  1  0
 90 93  1  0
 91 95  1  0
 91 90  1  0
 92 91  2  0
 95 94  1  0
 97 95  1  0
 97 98  1  0
 97 96  1  0
 99102  1  1
 99100  1  0
101 99  1  0
M  ISO  4  21 100  29 100  61 101  62 101
M  END
>  <TORSDO>  (13) 
F 21

>  <SCORE>  (13) 
-11.430

>  <name>  (13) 
12

>  <ligand_id>  (13) 
12

>  <original_smiles>  (13) 
[H]c1c([H])c([H])c2c(c1[H])C([H])([H])C([H])([H])C([H])([H])C2([H])N([H])C(=O)C1([H])N(C(=O)C([H])(N([H])C(=O)C([H])(N([H])C([H])([H])[H])C([H])([H])[H])C(C([H])([H])[H])(C([H])([H])[H])C([H])([H])[H])C([H])([H])c2c([H])c(OC([H])(C([H])([H])[H])C([H])([H])N3C(=[N+]([H])[H])C(C([H])([H])[H])(C([H])([H])N(c4c([H])c([H])c(N([H])C(=O)N5C([H])([H])C([H])([H])C([H])([H])C([H])(n6nc(-c7c([H])c([H])c(Oc8c([H])c([H])c(F)c([H])c8F)c([H])c7[H])c(C(=O)N([H])[H])c6N([H])[H])C5([H])[H])c(F)c4[H])C([H])([H])[H])C([H])(C([H])([H])[H])C3([H])[H])c([H])c([H])c2C1([H])[H]

>  <smiles>  (13) 
[H]c1c([H])c([H])c2c(c1[H])C([H])([H])C([H])([H])C([H])([H])C2([H])N([H])C(=O)C1([H])N(C(=O)C([H])(N([H])C(=O)C([H])(N([H])C([H])([H])[H])C([H])([H])[H])C(C([H])([H])[H])(C([H])([H])[H])C([H])([H])[H])C([H])([H])c2c([H])c(OC([H])(C([H])([H])[H])C([H])([H])N3C(=[N+]([H])[H])C(C([H])([H])[H])(C([H])([H])N(c4c([H])c([H])c(N([H])C(=O)N5C([H])([H])C([H])([H])C([H])([H])C([H])(n6nc(-c7c([H])c([H])c(Oc8c([H])c([H])c(F)c([H])c8F)c([H])c7[H])c(C(=O)N([H])[H])c6N([H])[H])C5([H])[H])c(F)c4[H])C([H])([H])[H])C([H])(C([H])([H])[H])C3([H])[H])c([H])c([H])c2C1([H])[H]

$$$$
13:0:0
     RDKit          3D

106115  0  0  1  0  0  0  0  0999 V2000
  -30.0150  -19.4990   21.0730 C   0  0  0  0  0  2  0  0  0  0  0  0
  -30.5360  -16.5700   18.6050 C   0  0  0  0  0  3  0  0  0  0  0  0
  -31.0680  -17.2470   17.4960 C   0  0  0  0  0  3  0  0  0  0  0  0
  -30.8910  -19.3360   18.7060 C   0  0  0  0  0  3  0  0  0  0  0  0
  -30.2030  -17.2530   19.7940 C   0  0  0  0  0  0  0  0  0  0  0  0
  -30.3700  -18.6680   19.8370 C   0  0  0  0  0  0  0  0  0  0  0  0
  -31.2630  -18.6460   17.5270 C   0  0  0  0  0  0  0  0  0  0  0  0
  -32.5090  -18.5600   15.3740 C   0  0  0  0  0  1  0  0  0  0  0  0
  -31.8040  -19.3170   16.4070 N   0  0  0  0  0  0  0  0  0  0  0  0
  -31.6060  -20.7610   16.2270 C   0  0  0  0  0  2  0  0  0  0  0  0
  -32.7910  -21.6390   16.6900 C   0  0  1  0  0  0  0  0  0  0  0  0
  -32.4910  -22.9180   16.4730 F   0  0  0  0  0  0  0  0  0  0  0  0
  -33.0390  -21.4850   17.9910 F   0  0  0  0  0  0  0  0  0  0  0  0
  -33.8960  -21.3440   16.0040 F   0  0  0  0  0  0  0  0  0  0  0  0
  -29.6640  -16.4270   20.9710 C   0  0  0  0  0  2  0  0  0  0  0  0
  -31.2530  -14.5220   21.0640 C   0  0  0  0  0  0  0  0  0  0  0  0
  -31.0150  -12.2130   20.2090 C   0  0  0  0  0  2  0  0  0  0  0  0
  -30.2780  -12.1780   18.8580 C   0  0  0  0  0  2  0  0  0  0  0  0
  -28.7550  -12.1130   19.0740 C   0  0  0  0  0  2  0  0  0  0  0  0
  -28.2530  -13.1810   20.0770 C   0  0  0  0  0  3  0  0  0  0  0  0
  -29.1160  -13.1910   21.3610 C   0  0  0  0  0  2  0  0  0  0  0  0
  -30.5240  -13.3730   20.9720 N   0  0  0  0  0  0  0  0  0  0  0  0
  -32.4280  -14.5860   20.6840 O   0  0  0  0  0  0  0  0  0  0  0  0
  -31.4520  -16.3520   22.6370 C   0  0  0  0  0  1  0  0  0  0  0  0
  -30.6680  -15.5870   21.6640 N   0  0  0  0  0  0  0  0  0  0  0  0
  -25.8290  -13.9760   20.4210 C   0  0  0  0  0  0  0  0  0  0  0  0
  -24.6750  -13.2890   20.6860 C   0  0  0  0  0  0  0  0  0  0  0  0
  -25.0500  -11.9150   20.7920 C   0  0  0  0  0  0  0  0  0  0  0  0
  -26.8360  -13.0220   20.3830 N   0  0  0  0  0  0  0  0  0  0  0  0
  -26.3640  -11.7830   20.6670 N   0  0  0  0  0  0  0  0  0  0  0  0
  -24.2300  -10.7090   20.9460 C   0  0  0  0  0  0  0  0  0  0  0  0
  -24.5150   -9.7450   21.9380 C   0  0  0  0  0  3  0  0  0  0  0  0
  -23.7020   -8.6000   22.0770 C   0  0  0  0  0  3  0  0  0  0  0  0
  -22.5900   -8.4120   21.2220 C   0  0  0  0  0  0  0  0  0  0  0  0
  -22.3260   -9.3630   20.2200 C   0  0  0  0  0  3  0  0  0  0  0  0
  -23.1390  -10.4990   20.0800 C   0  0  0  0  0  3  0  0  0  0  0  0
  -21.7590   -7.3190   21.2670 O   0  0  0  0  0  0  0  0  0  0  0  0
  -21.5930   -6.5890   22.4170 C   0  0  0  0  0  0  0  0  0  0  0  0
  -21.1470   -7.1810   23.6190 C   0  0  0  0  0  3  0  0  0  0  0  0
  -20.9230   -6.3810   24.7570 C   0  0  0  0  0  3  0  0  0  0  0  0
  -21.1340   -4.9900   24.6940 C   0  0  0  0  0  0  0  0  0  0  0  0
  -21.5730   -4.3980   23.4960 C   0  0  0  0  0  3  0  0  0  0  0  0
  -21.7990   -5.1950   22.3600 C   0  0  0  0  0  0  0  0  0  0  0  0
  -22.2010   -4.6160   21.2030 F   0  0  0  0  0  0  0  0  0  0  0  0
  -20.9120   -4.2200   25.7850 F   0  0  0  0  0  0  0  0  0  0  0  0
  -23.2870  -13.8570   20.7350 C   0  0  0  0  0  0  0  0  0  0  0  0
  -22.4140  -13.2720   21.5460 N   0  0  0  0  0  0  0  0  0  0  0  0
  -22.9820  -14.8580   20.0850 O   0  0  0  0  0  0  0  0  0  0  0  0
  -22.6680  -12.4630   22.0940 H   0  0  0  0  0  0  0  0  0  0  0  0
  -21.4750  -13.6370   21.6190 H   0  0  0  0  0  0  0  0  0  0  0  0
  -26.1030  -15.3200   20.1850 N   0  0  0  0  0  0  0  0  0  0  0  0
  -25.3610  -16.0070   20.1110 H   0  0  0  0  0  0  0  0  0  0  0  0
  -26.9960  -15.6710   19.8670 H   0  0  0  0  0  0  0  0  0  0  0  0
  -27.0300  -21.3550   19.9090 C   0  0  0  0  0  2  0  0  0  0  0  0
  -28.0780  -22.4580   19.9020 C   0  0  0  0  0  2  0  0  0  0  0  0
  -27.8600  -20.0880   20.0000 C   0  0  0  0  0  2  0  0  0  0  0  0
  -29.3030  -21.8950   20.6550 C   0  0  0  0  0  3  0  0  0  0  0  0
  -28.9410  -20.4880   20.8970 N   0  0  0  0  0  0  0  0  0  0  0  0
  -29.6030  -22.5750   22.0270 C   0  0  0  0  0  2  0  0  0  0  0  0
  -29.1650  -23.9860   22.1640 N   0  0  0  0  0  4  0  0  0  0  0  0
  -29.5440  -24.3130   23.0390 H   0  0  0  0  0  0  0  0  0  0  0  0
  -28.1610  -24.0010   22.2650 H   0  0  0  0  0  0  0  0  0  0  0  0
  -29.5810  -24.9250   21.0930 C   0  0  0  0  0  2  0  0  0  0  0  0
  -30.7210  -26.9350   22.2050 C   0  0  0  0  0  1  0  0  0  0  0  0
  -29.4450  -26.4000   21.5400 C   0  0  0  0  0  3  0  0  0  0  0  0
  -29.1970  -27.1970   20.3830 O   0  0  0  0  0  0  0  0  0  0  0  0
  -24.7110  -31.9010   23.3350 C   0  0  0  0  0  0  0  0  0  0  0  0
  -27.9740  -27.8220   20.3660 C   0  0  0  0  0  0  0  0  0  0  0  0
  -23.7630  -30.4410   21.5790 C   0  0  0  0  0  3  0  0  0  0  0  0
  -25.4560  -29.0790   20.2380 C   0  0  0  0  0  0  0  0  0  0  0  0
  -26.2490  -31.0340   21.5840 C   0  0  0  0  0  2  0  0  0  0  0  0
  -26.5080  -29.6970   20.9260 C   0  0  0  0  0  0  0  0  0  0  0  0
  -27.7720  -29.0700   20.9970 C   0  0  0  0  0  3  0  0  0  0  0  0
  -26.9120  -27.2140   19.6720 C   0  0  0  0  0  3  0  0  0  0  0  0
  -25.6490  -27.8330   19.6130 C   0  0  0  0  0  3  0  0  0  0  0  0
  -24.1340  -29.8130   20.2070 C   0  0  0  0  0  2  0  0  0  0  0  0
  -24.9190  -31.1410   22.2250 N   0  0  0  0  0  0  0  0  0  0  0  0
  -23.5730  -32.0640   23.7940 O   0  0  0  0  0  0  0  0  0  0  0  0
  -23.1370  -29.3420   22.4670 C   0  0  0  0  0  0  0  0  0  0  0  0
  -21.8350  -29.0800   22.2640 N   0  0  0  0  0  0  0  0  0  0  0  0
  -23.8220  -28.7250   23.2870 O   0  0  0  0  0  0  0  0  0  0  0  0
  -21.3450  -29.6330   21.5750 H   0  0  0  0  0  0  0  0  0  0  0  0
  -18.5090  -27.7060   22.5880 C   0  0  0  0  0  0  0  0  0  0  0  0
  -21.0440  -28.0600   22.9510 C   0  0  0  0  0  3  0  0  0  0  0  0
  -21.2280  -26.6740   22.2910 C   0  0  0  0  0  2  0  0  0  0  0  0
  -20.1710  -26.3640   21.2270 C   0  0  0  0  0  2  0  0  0  0  0  0
  -18.7660  -26.4080   21.8380 C   0  0  0  0  0  2  0  0  0  0  0  0
  -19.5790  -28.4890   23.0950 C   0  0  0  0  0  0  0  0  0  0  0  0
  -19.2880  -29.7060   23.7490 C   0  0  0  0  0  3  0  0  0  0  0  0
  -17.9590  -30.1380   23.9050 C   0  0  0  0  0  3  0  0  0  0  0  0
  -16.9020  -29.3490   23.4210 C   0  0  0  0  0  3  0  0  0  0  0  0
  -17.1770  -28.1340   22.7660 C   0  0  0  0  0  3  0  0  0  0  0  0
  -25.8860  -32.6240   24.0650 C   0  0  0  0  0  3  0  0  0  0  0  0
  -26.3140  -31.9190   25.4110 C   0  0  1  0  0  0  0  0  0  0  0  0
  -25.1280  -31.6350   26.3640 C   0  0  0  0  0  1  0  0  0  0  0  0
  -27.0240  -30.5770   25.1200 C   0  0  0  0  0  1  0  0  0  0  0  0
  -27.3370  -32.8030   26.1620 C   0  0  0  0  0  1  0  0  0  0  0  0
  -25.4710  -34.0110   24.3150 N   0  0  0  0  0  0  0  0  0  0  0  0
  -25.8130  -35.0570   23.5530 C   0  0  0  0  0  0  0  0  0  0  0  0
  -26.5840  -34.9630   22.5940 O   0  0  0  0  0  0  0  0  0  0  0  0
  -24.7970  -34.1530   25.0520 H   0  0  0  0  0  0  0  0  0  0  0  0
  -24.0190  -36.7170   22.9750 C   0  0  0  0  0  1  0  0  0  0  0  0
  -25.2030  -36.4250   23.9090 C   0  0  0  0  0  3  0  0  0  0  0  0
  -27.1990  -37.4650   24.8860 C   0  0  0  0  0  1  0  0  0  0  0  0
  -26.1740  -37.5370   23.8470 N   0  0  0  0  0  0  0  0  0  0  0  0
  -25.7030  -38.4330   23.9350 H   0  0  0  0  0  0  0  0  0  0  0  0
  2  5  1  0
  3  7  1  0
  3  2  2  0
  4  6  1  0
  5  6  2  0
  5 15  1  0
  6  1  1  0
  7  4  2  0
  8  9  1  0
  9  7  1  0
 10  9  1  0
 10 11  1  0
 11 13  1  1
 12 11  1  0
 14 11  1  0
 15 25  1  0
 16 25  1  0
 17 22  1  0
 18 19  1  0
 18 17  1  0
 20 19  1  0
 20 29  1  0
 20 21  1  0
 22 16  1  0
 22 21  1  0
 23 16  2  0
 25 24  1  0
 26 27  2  0
 27 46  1  0
 27 28  1  0
 28 31  1  0
 29 26  1  0
 29 30  1  0
 30 28  2  0
 31 32  1  0
 32 33  2  0
 34 37  1  0
 34 33  1  0
 35 34  2  0
 36 35  1  0
 36 31  2  0
 37 38  1  0
 38 39  1  0
 39 40  2  0
 41 40  1  0
 41 45  1  0
 42 41  2  0
 43 38  2  0
 43 42  1  0
 44 43  1  0
 46 47  1  0
 47 50  1  0
 47 49  1  0
 48 46  2  0
 51 26  1  0
 52 51  1  0
 53 51  1  0
 54 56  1  0
 55 54  1  0
 55 57  1  0
 56 58  1  0
 57 58  1  0
 57 59  1  0
 58  1  1  0
 59 60  1  0
 60 62  1  0
 60 61  1  0
 63 65  1  0
 63 60  1  0
 65 64  1  0
 66 65  1  0
 67 78  2  0
 68 66  1  0
 68 73  1  0
 69 77  1  0
 69 79  1  0
 70 72  1  0
 71 77  1  0
 72 73  2  0
 72 71  1  0
 74 68  2  0
 75 74  1  0
 75 70  2  0
 76 70  1  0
 76 69  1  0
 77 67  1  0
 79 81  2  0
 80 79  1  0
 82 80  1  0
 83 92  2  0
 83 88  1  0
 84 80  1  0
 84 88  1  0
 85 84  1  0
 86 87  1  0
 86 85  1  0
 87 83  1  0
 88 89  2  0
 89 90  1  0
 91 90  2  0
 92 91  1  0
 93 67  1  0
 93 98  1  0
 93 94  1  0
 94 97  1  1
 94 95  1  0
 96 94  1  0
 98101  1  0
 99103  1  0
 99 98  1  0
100 99  2  0
103102  1  0
105103  1  0
105106  1  0
105104  1  0
M  ISO  4  16 100  25 100  65 101  66 101
M  END
>  <TORSDO>  (14) 
F 26

>  <SCORE>  (14) 
-10.255

>  <name>  (14) 
13

>  <ligand_id>  (14) 
13

>  <original_smiles>  (14) 
[H]c1c([H])c([H])c2c(c1[H])C([H])([H])C([H])([H])C([H])([H])C2([H])N([H])C(=O)C1([H])N(C(=O)C([H])(N([H])C(=O)C([H])(N([H])C([H])([H])[H])C([H])([H])[H])C(C([H])([H])[H])(C([H])([H])[H])C([H])([H])[H])C([H])([H])c2c([H])c(OC([H])(C([H])([H])[H])C([H])([H])[N+]([H])([H])C([H])([H])C3([H])N(C([H])([H])c4c([H])c(N(C([H])([H])[H])C([H])([H])C(F)(F)F)c([H])c([H])c4C([H])([H])N(C(=O)N4C([H])([H])C([H])([H])C([H])([H])C([H])(n5nc(-c6c([H])c([H])c(Oc7c([H])c([H])c(F)c([H])c7F)c([H])c6[H])c(C(=O)N([H])[H])c5N([H])[H])C4([H])[H])C([H])([H])[H])C([H])([H])C([H])([H])C3([H])[H])c([H])c([H])c2C1([H])[H]

>  <smiles>  (14) 
[H]c1c([H])c([H])c2c(c1[H])C([H])([H])C([H])([H])C([H])([H])C2([H])N([H])C(=O)C1([H])N(C(=O)C([H])(N([H])C(=O)C([H])(N([H])C([H])([H])[H])C([H])([H])[H])C(C([H])([H])[H])(C([H])([H])[H])C([H])([H])[H])C([H])([H])c2c([H])c(OC([H])(C([H])([H])[H])C([H])([H])[N+]([H])([H])C([H])([H])C3([H])N(C([H])([H])c4c([H])c(N(C([H])([H])[H])C([H])([H])C(F)(F)F)c([H])c([H])c4C([H])([H])N(C(=O)N4C([H])([H])C([H])([H])C([H])([H])C([H])(n5nc(-c6c([H])c([H])c(Oc7c([H])c([H])c(F)c([H])c7F)c([H])c6[H])c(C(=O)N([H])[H])c5N([H])[H])C4([H])[H])C([H])([H])[H])C([H])([H])C([H])([H])C3([H])[H])c([H])c([H])c2C1([H])[H]

$$$$
14:0:0
     RDKit          3D

 94103  0  0  1  0  0  0  0  0999 V2000
  -30.5450  -21.5260   20.7680 C   0  0  0  0  0  2  0  0  0  0  0  0
  -31.5670  -19.2010   20.5600 C   0  0  0  0  0  3  0  0  0  0  0  0
  -31.5340  -17.7860   20.5590 C   0  0  0  0  0  3  0  0  0  0  0  0
  -30.3820  -19.9890   20.5750 C   0  0  0  0  0  0  0  0  0  0  0  0
  -29.1290  -19.2970   20.5640 C   0  0  0  0  0  0  0  0  0  0  0  0
  -30.3010  -17.0910   20.5710 C   0  0  0  0  0  0  0  0  0  0  0  0
  -29.1120  -17.8690   20.5490 C   0  0  0  0  0  0  0  0  0  0  0  0
  -27.7760  -20.0180   20.6170 C   0  0  0  0  0  1  0  0  0  0  0  0
  -27.9150  -17.2330   20.5350 F   0  0  0  0  0  0  0  0  0  0  0  0
  -30.9700  -14.6390   20.1380 C   0  0  0  0  0  0  0  0  0  0  0  0
  -30.7090  -12.4530   19.0020 C   0  0  0  0  0  2  0  0  0  0  0  0
  -29.7430  -12.6730   17.8180 C   0  0  0  0  0  2  0  0  0  0  0  0
  -28.2740  -12.5380   18.2760 C   0  0  0  0  0  2  0  0  0  0  0  0
  -27.9690  -13.3570   19.5600 C   0  0  0  0  0  3  0  0  0  0  0  0
  -29.0410  -13.0940   20.6380 C   0  0  0  0  0  2  0  0  0  0  0  0
  -30.3500  -13.4290   20.0480 N   0  0  0  0  0  0  0  0  0  0  0  0
  -32.1150  -14.8180   19.7110 O   0  0  0  0  0  0  0  0  0  0  0  0
  -30.1680  -15.6490   20.5760 N   0  0  0  0  0  0  0  0  0  0  0  0
  -29.2700  -15.3380   20.9100 H   0  0  0  0  0  0  0  0  0  0  0  0
  -25.5860  -13.9940   20.2800 C   0  0  0  0  0  0  0  0  0  0  0  0
  -24.5120  -13.2380   20.6590 C   0  0  0  0  0  0  0  0  0  0  0  0
  -24.9650  -11.8810   20.6430 C   0  0  0  0  0  0  0  0  0  0  0  0
  -26.6210  -13.1020   20.0540 N   0  0  0  0  0  0  0  0  0  0  0  0
  -26.2490  -11.8250   20.3250 N   0  0  0  0  0  0  0  0  0  0  0  0
  -24.2260  -10.6330   20.8600 C   0  0  0  0  0  0  0  0  0  0  0  0
  -24.6220   -9.7090   21.8500 C   0  0  0  0  0  3  0  0  0  0  0  0
  -23.8860   -8.5220   22.0530 C   0  0  0  0  0  3  0  0  0  0  0  0
  -22.7390   -8.2530   21.2690 C   0  0  0  0  0  0  0  0  0  0  0  0
  -22.3640   -9.1660   20.2650 C   0  0  0  0  0  3  0  0  0  0  0  0
  -23.1030  -10.3460   20.0610 C   0  0  0  0  0  3  0  0  0  0  0  0
  -21.9820   -7.1130   21.3760 O   0  0  0  0  0  0  0  0  0  0  0  0
  -21.8200   -6.4630   22.5720 C   0  0  0  0  0  0  0  0  0  0  0  0
  -21.2880   -7.1120   23.7090 C   0  0  0  0  0  3  0  0  0  0  0  0
  -21.0850   -6.3910   24.9020 C   0  0  0  0  0  3  0  0  0  0  0  0
  -21.3950   -5.0170   24.9530 C   0  0  0  0  0  0  0  0  0  0  0  0
  -21.9100   -4.3680   23.8180 C   0  0  0  0  0  3  0  0  0  0  0  0
  -22.1200   -5.0860   22.6290 C   0  0  0  0  0  0  0  0  0  0  0  0
  -22.6030   -4.4540   21.5330 F   0  0  0  0  0  0  0  0  0  0  0  0
  -21.1890   -4.3170   26.0940 F   0  0  0  0  0  0  0  0  0  0  0  0
  -23.1260  -13.7330   20.9430 C   0  0  0  0  0  0  0  0  0  0  0  0
  -22.4140  -13.0760   21.8510 N   0  0  0  0  0  0  0  0  0  0  0  0
  -22.6830  -14.7410   20.3940 O   0  0  0  0  0  0  0  0  0  0  0  0
  -22.7820  -12.2580   22.3160 H   0  0  0  0  0  0  0  0  0  0  0  0
  -21.4850  -13.3920   22.0860 H   0  0  0  0  0  0  0  0  0  0  0  0
  -25.7600  -15.3650   20.1080 N   0  0  0  0  0  0  0  0  0  0  0  0
  -25.0140  -16.0180   20.3180 H   0  0  0  0  0  0  0  0  0  0  0  0
  -26.6540  -15.8190   19.9710 H   0  0  0  0  0  0  0  0  0  0  0  0
  -29.5250  -23.0040   18.9180 C   0  0  0  0  0  2  0  0  0  0  0  0
  -29.5870  -23.8430   20.7740 C   0  0  0  0  0  2  0  0  0  0  0  0
  -28.8970  -24.3050   19.4800 C   0  0  0  0  0  3  0  0  0  0  0  0
  -29.4750  -22.4590   20.2840 N   0  0  2  0  0  4  0  0  0  0  0  0
  -28.5550  -22.1070   20.4940 H   0  0  0  0  0  0  0  0  0  0  0  0
  -29.2010  -25.6870   18.8410 C   0  0  0  0  0  2  0  0  0  0  0  0
  -28.8970  -26.8120   19.6940 O   0  0  0  0  0  0  0  0  0  0  0  0
  -24.6550  -31.4930   23.0090 C   0  0  0  0  0  0  0  0  0  0  0  0
  -27.6500  -27.4210   19.7020 C   0  0  0  0  0  0  0  0  0  0  0  0
  -23.5630  -30.1220   21.2580 C   0  0  0  0  0  3  0  0  0  0  0  0
  -25.1430  -28.7590   19.7810 C   0  0  0  0  0  0  0  0  0  0  0  0
  -26.0610  -30.6490   21.1310 C   0  0  0  0  0  2  0  0  0  0  0  0
  -26.2500  -29.3180   20.4280 C   0  0  0  0  0  0  0  0  0  0  0  0
  -27.4970  -28.6490   20.3980 C   0  0  0  0  0  3  0  0  0  0  0  0
  -26.5170  -26.8790   19.0550 C   0  0  0  0  0  3  0  0  0  0  0  0
  -25.2730  -27.5370   19.1010 C   0  0  0  0  0  3  0  0  0  0  0  0
  -23.8400  -29.5270   19.8490 C   0  0  0  0  0  2  0  0  0  0  0  0
  -24.7750  -30.7680   21.8590 N   0  0  0  0  0  0  0  0  0  0  0  0
  -23.5520  -31.6640   23.5470 O   0  0  0  0  0  0  0  0  0  0  0  0
  -22.9590  -29.0100   22.1460 C   0  0  0  0  0  0  0  0  0  0  0  0
  -21.6470  -28.7680   21.9930 N   0  0  0  0  0  0  0  0  0  0  0  0
  -23.6680  -28.3680   22.9260 O   0  0  0  0  0  0  0  0  0  0  0  0
  -21.1290  -29.3460   21.3450 H   0  0  0  0  0  0  0  0  0  0  0  0
  -18.3360  -27.3820   22.4010 C   0  0  0  0  0  0  0  0  0  0  0  0
  -20.8800  -27.7370   22.6900 C   0  0  0  0  0  3  0  0  0  0  0  0
  -21.0460  -26.3630   22.0020 C   0  0  0  0  0  2  0  0  0  0  0  0
  -19.9590  -26.0700   20.9620 C   0  0  0  0  0  2  0  0  0  0  0  0
  -18.5740  -26.1020   21.6190 C   0  0  0  0  0  2  0  0  0  0  0  0
  -19.4210  -28.1590   22.8900 C   0  0  0  0  0  0  0  0  0  0  0  0
  -19.1510  -29.3610   23.5780 C   0  0  0  0  0  3  0  0  0  0  0  0
  -17.8250  -29.7930   23.7790 C   0  0  0  0  0  3  0  0  0  0  0  0
  -16.7550  -29.0140   23.3050 C   0  0  0  0  0  3  0  0  0  0  0  0
  -17.0090  -27.8090   22.6270 C   0  0  0  0  0  3  0  0  0  0  0  0
  -25.8910  -32.1560   23.6950 C   0  0  0  0  0  3  0  0  0  0  0  0
  -26.4210  -31.3510   24.9470 C   0  0  1  0  0  0  0  0  0  0  0  0
  -25.3130  -31.0000   25.9670 C   0  0  0  0  0  1  0  0  0  0  0  0
  -27.0810  -30.0260   24.5010 C   0  0  0  0  0  1  0  0  0  0  0  0
  -27.5220  -32.1630   25.6680 C   0  0  0  0  0  1  0  0  0  0  0  0
  -25.5060  -33.5230   24.0730 N   0  0  0  0  0  0  0  0  0  0  0  0
  -25.8250  -34.6240   23.3800 C   0  0  0  0  0  0  0  0  0  0  0  0
  -26.5420  -34.5990   22.3770 O   0  0  0  0  0  0  0  0  0  0  0  0
  -24.8640  -33.6200   24.8450 H   0  0  0  0  0  0  0  0  0  0  0  0
  -24.0250  -36.3470   23.0380 C   0  0  0  0  0  1  0  0  0  0  0  0
  -25.2540  -35.9660   23.8750 C   0  0  0  0  0  3  0  0  0  0  0  0
  -27.3060  -36.9140   24.8290 C   0  0  0  0  0  1  0  0  0  0  0  0
  -26.2350  -37.0710   23.8480 N   0  0  0  0  0  0  0  0  0  0  0  0
  -25.7790  -37.9630   24.0220 H   0  0  0  0  0  0  0  0  0  0  0  0
  2  4  1  0
  3  2  2  0
  3  6  1  0
  4  1  1  0
  5  4  2  0
  5  8  1  0
  6 18  1  0
  7  5  1  0
  7  6  2  0
  9  7  1  0
 10 18  1  0
 11 16  1  0
 12 13  1  0
 12 11  1  0
 14 13  1  0
 14 23  1  0
 14 15  1  0
 16 10  1  0
 16 15  1  0
 17 10  2  0
 18 19  1  0
 20 21  2  0
 21 40  1  0
 22 21  1  0
 22 25  1  0
 23 20  1  0
 23 24  1  0
 24 22  2  0
 25 26  1  0
 26 27  2  0
 28 31  1  0
 28 27  1  0
 29 28  2  0
 30 29  1  0
 30 25  2  0
 31 32  1  0
 32 37  2  0
 32 33  1  0
 33 34  2  0
 34 35  1  0
 35 39  1  0
 36 35  2  0
 37 36  1  0
 38 37  1  0
 40 41  1  0
 41 44  1  0
 41 43  1  0
 42 40  2  0
 45 20  1  0
 45 46  1  0
 47 45  1  0
 48 50  1  0
 48 51  1  0
 50 53  1  0
 50 49  1  0
 51 52  1  6
 51  1  1  0
 51 49  1  0
 53 54  1  0
 54 56  1  0
 55 66  2  0
 56 61  1  0
 57 65  1  0
 57 67  1  0
 58 64  1  0
 58 60  1  0
 59 65  1  0
 60 59  1  0
 61 60  2  0
 62 63  1  0
 62 56  2  0
 63 58  2  0
 64 57  1  0
 65 55  1  0
 67 69  2  0
 68 67  1  0
 70 68  1  0
 71 80  2  0
 71 76  1  0
 72 68  1  0
 72 76  1  0
 73 72  1  0
 74 75  1  0
 74 73  1  0
 75 71  1  0
 76 77  2  0
 77 78  1  0
 79 78  2  0
 80 79  1  0
 81 55  1  0
 81 86  1  0
 81 82  1  0
 82 85  1  1
 82 83  1  0
 84 82  1  0
 86 89  1  0
 87 91  1  0
 87 86  1  0
 88 87  2  0
 91 90  1  0
 93 91  1  0
 93 94  1  0
 93 92  1  0
M  ISO  4  10 100  18 100  53 101  54 101
M  END
>  <TORSDO>  (15) 
F 19

>  <SCORE>  (15) 
-12.984

>  <name>  (15) 
14

>  <ligand_id>  (15) 
14

>  <original_smiles>  (15) 
[H]c1c([H])c([H])c2c(c1[H])C([H])([H])C([H])([H])C([H])([H])C2([H])N([H])C(=O)C1([H])N(C(=O)C([H])(N([H])C(=O)C([H])(N([H])C([H])([H])[H])C([H])([H])[H])C(C([H])([H])[H])(C([H])([H])[H])C([H])([H])[H])C([H])([H])c2c([H])c(OC([H])([H])C3([H])C([H])([H])[N+]([H])(C([H])([H])c4c([H])c([H])c(N([H])C(=O)N5C([H])([H])C([H])([H])C([H])([H])C([H])(n6nc(-c7c([H])c([H])c(Oc8c([H])c([H])c(F)c([H])c8F)c([H])c7[H])c(C(=O)N([H])[H])c6N([H])[H])C5([H])[H])c(F)c4C([H])([H])[H])C3([H])[H])c([H])c([H])c2C1([H])[H]

>  <smiles>  (15) 
[H]c1c([H])c([H])c2c(c1[H])C([H])([H])C([H])([H])C([H])([H])C2([H])N([H])C(=O)C1([H])N(C(=O)C([H])(N([H])C(=O)C([H])(N([H])C([H])([H])[H])C([H])([H])[H])C(C([H])([H])[H])(C([H])([H])[H])C([H])([H])[H])C([H])([H])c2c([H])c(OC([H])([H])C3([H])C([H])([H])[N+]([H])(C([H])([H])c4c([H])c([H])c(N([H])C(=O)N5C([H])([H])C([H])([H])C([H])([H])C([H])(n6nc(-c7c([H])c([H])c(Oc8c([H])c([H])c(F)c([H])c8F)c([H])c7[H])c(C(=O)N([H])[H])c6N([H])[H])C5([H])[H])c(F)c4C([H])([H])[H])C3([H])[H])c([H])c([H])c2C1([H])[H]

$$$$
15:0:0
     RDKit          3D

 96105  0  0  1  0  0  0  0  0999 V2000
  -29.9470  -19.9870   18.0070 C   0  0  0  0  0  3  0  0  0  0  0  0
  -29.8930  -21.2820   17.4470 C   0  0  0  0  0  3  0  0  0  0  0  0
  -27.8360  -20.3790   19.1450 C   0  0  0  0  0  3  0  0  0  0  0  0
  -28.9440  -19.5440   18.8930 C   0  0  0  0  0  0  0  0  0  0  0  0
  -28.8350  -22.1690   17.7650 C   0  0  0  0  0  0  0  0  0  0  0  0
  -27.7830  -21.6720   18.5920 C   0  0  0  0  0  0  0  0  0  0  0  0
  -26.6980  -22.4350   18.8830 F   0  0  0  0  0  0  0  0  0  0  0  0
  -30.1360  -25.4920   16.9690 C   0  0  0  0  0  2  0  0  0  0  0  0
  -29.7570  -24.1180   16.3870 C   0  0  0  0  0  2  0  0  0  0  0  0
  -28.5810  -24.4730   18.4320 C   0  0  0  0  0  2  0  0  0  0  0  0
  -28.9620  -25.8480   17.9020 C   0  0  0  0  0  3  0  0  0  0  0  0
  -28.8140  -23.5240   17.3470 N   0  0  0  0  0  0  0  0  0  0  0  0
  -29.2860  -26.8670   19.0230 C   0  0  0  0  0  2  0  0  0  0  0  0
  -28.4190  -26.7410   20.1560 O   0  0  0  0  0  0  0  0  0  0  0  0
  -24.5960  -31.8930   23.2570 C   0  0  0  0  0  0  0  0  0  0  0  0
  -27.2600  -27.4760   20.1420 C   0  0  0  0  0  0  0  0  0  0  0  0
  -23.3940  -30.4810   21.6190 C   0  0  0  0  0  3  0  0  0  0  0  0
  -24.8500  -28.9320   20.2110 C   0  0  0  0  0  0  0  0  0  0  0  0
  -25.9230  -30.8340   21.4400 C   0  0  0  0  0  2  0  0  0  0  0  0
  -26.0090  -29.4690   20.7900 C   0  0  0  0  0  0  0  0  0  0  0  0
  -27.2170  -28.7420   20.7590 C   0  0  0  0  0  3  0  0  0  0  0  0
  -26.0850  -26.9340   19.5840 C   0  0  0  0  0  3  0  0  0  0  0  0
  -24.8770  -27.6570   19.6200 C   0  0  0  0  0  3  0  0  0  0  0  0
  -23.6090  -29.7910   20.2480 C   0  0  0  0  0  2  0  0  0  0  0  0
  -24.6540  -31.0860   22.1600 N   0  0  0  0  0  0  0  0  0  0  0  0
  -23.5140  -32.1710   23.7920 O   0  0  0  0  0  0  0  0  0  0  0  0
  -22.7400  -29.4680   22.5860 C   0  0  0  0  0  0  0  0  0  0  0  0
  -21.4170  -29.2820   22.4490 N   0  0  0  0  0  0  0  0  0  0  0  0
  -23.4180  -28.8550   23.4120 O   0  0  0  0  0  0  0  0  0  0  0  0
  -20.9380  -29.8300   21.7500 H   0  0  0  0  0  0  0  0  0  0  0  0
  -18.0410  -28.0860   22.9400 C   0  0  0  0  0  0  0  0  0  0  0  0
  -20.5960  -28.3500   23.2220 C   0  0  0  0  0  3  0  0  0  0  0  0
  -20.7060  -26.9150   22.6620 C   0  0  0  0  0  2  0  0  0  0  0  0
  -19.6110  -26.5770   21.6460 C   0  0  0  0  0  2  0  0  0  0  0  0
  -18.2240  -26.7310   22.2760 C   0  0  0  0  0  2  0  0  0  0  0  0
  -19.1560  -28.8530   23.3680 C   0  0  0  0  0  0  0  0  0  0  0  0
  -18.9320  -30.1260   23.9420 C   0  0  0  0  0  3  0  0  0  0  0  0
  -17.6270  -30.6250   24.1000 C   0  0  0  0  0  3  0  0  0  0  0  0
  -16.5250  -29.8540   23.6900 C   0  0  0  0  0  3  0  0  0  0  0  0
  -16.7350  -28.5850   23.1170 C   0  0  0  0  0  3  0  0  0  0  0  0
  -25.8830  -32.5260   23.8740 C   0  0  0  0  0  3  0  0  0  0  0  0
  -25.5760  -33.9240   24.1950 N   0  0  0  0  0  0  0  0  0  0  0  0
  -25.9080  -34.9720   23.4290 C   0  0  0  0  0  0  0  0  0  0  0  0
  -26.5780  -34.8650   22.3970 O   0  0  0  0  0  0  0  0  0  0  0  0
  -24.9890  -34.0850   25.0000 H   0  0  0  0  0  0  0  0  0  0  0  0
  -24.1760  -36.7620   23.0620 C   0  0  0  0  0  1  0  0  0  0  0  0
  -25.4140  -36.3610   23.8800 C   0  0  0  0  0  3  0  0  0  0  0  0
  -27.5420  -37.2480   24.7210 C   0  0  0  0  0  1  0  0  0  0  0  0
  -26.4430  -37.4170   23.7730 N   0  0  0  0  0  0  0  0  0  0  0  0
  -26.0360  -38.3340   23.9290 H   0  0  0  0  0  0  0  0  0  0  0  0
  -26.4040  -31.7640   25.1520 C   0  0  1  0  0  0  0  0  0  0  0  0
  -25.3130  -31.5130   26.2190 C   0  0  0  0  0  1  0  0  0  0  0  0
  -27.0040  -30.3890   24.7720 C   0  0  0  0  0  1  0  0  0  0  0  0
  -27.5480  -32.5680   25.8140 C   0  0  0  0  0  1  0  0  0  0  0  0
  -29.0410  -18.1700   19.5540 C   0  0  0  0  0  2  0  0  0  0  0  0
  -30.2880  -19.4010   21.3920 C   0  0  0  0  0  1  0  0  0  0  0  0
  -29.7060  -18.1170   20.8990 N   0  0  2  0  0  4  0  0  0  0  0  0
  -28.9560  -17.9300   21.5500 H   0  0  0  0  0  0  0  0  0  0  0  0
  -30.6730  -16.9790   21.0150 C   0  0  0  0  0  2  0  0  0  0  0  0
  -29.9860  -15.5840   21.1430 C   0  0  0  0  0  2  0  0  0  0  0  0
  -30.6860  -14.4080   20.4070 C   0  0  0  0  0  0  0  0  0  0  0  0
  -30.3570  -12.2810   19.1830 C   0  0  0  0  0  2  0  0  0  0  0  0
  -29.4190  -12.5800   17.9990 C   0  0  0  0  0  2  0  0  0  0  0  0
  -27.9590  -12.3760   18.4550 C   0  0  0  0  0  2  0  0  0  0  0  0
  -27.6370  -13.2100   19.7250 C   0  0  0  0  0  3  0  0  0  0  0  0
  -28.6930  -12.9560   20.8250 C   0  0  0  0  0  2  0  0  0  0  0  0
  -30.0160  -13.2310   20.2550 N   0  0  0  0  0  0  0  0  0  0  0  0
  -31.7840  -14.6010   19.8830 O   0  0  0  0  0  0  0  0  0  0  0  0
  -25.2650  -13.8740   20.4620 C   0  0  0  0  0  0  0  0  0  0  0  0
  -24.1840  -13.1280   20.8500 C   0  0  0  0  0  0  0  0  0  0  0  0
  -24.6190  -11.7660   20.8190 C   0  0  0  0  0  0  0  0  0  0  0  0
  -26.2850  -12.9710   20.2140 N   0  0  0  0  0  0  0  0  0  0  0  0
  -25.9020  -11.7000   20.4900 N   0  0  0  0  0  0  0  0  0  0  0  0
  -23.8750  -10.5180   21.0210 C   0  0  0  0  0  0  0  0  0  0  0  0
  -24.3150   -9.5440   21.9460 C   0  0  0  0  0  3  0  0  0  0  0  0
  -23.5800   -8.3550   22.1380 C   0  0  0  0  0  3  0  0  0  0  0  0
  -22.3910   -8.1320   21.4020 C   0  0  0  0  0  0  0  0  0  0  0  0
  -21.9680   -9.0980   20.4690 C   0  0  0  0  0  3  0  0  0  0  0  0
  -22.7050  -10.2790   20.2780 C   0  0  0  0  0  3  0  0  0  0  0  0
  -21.6230   -6.9970   21.5000 O   0  0  0  0  0  0  0  0  0  0  0  0
  -21.5970   -6.2440   22.6470 C   0  0  0  0  0  0  0  0  0  0  0  0
  -21.2260   -6.7980   23.8910 C   0  0  0  0  0  3  0  0  0  0  0  0
  -21.1460   -5.9710   25.0320 C   0  0  0  0  0  3  0  0  0  0  0  0
  -21.4220   -4.5930   24.9270 C   0  0  0  0  0  0  0  0  0  0  0  0
  -21.7930   -4.0430   23.6840 C   0  0  0  0  0  3  0  0  0  0  0  0
  -21.8760   -4.8670   22.5460 C   0  0  0  0  0  0  0  0  0  0  0  0
  -22.2090   -4.3250   21.3480 F   0  0  0  0  0  0  0  0  0  0  0  0
  -21.3400   -3.7960   26.0210 F   0  0  0  0  0  0  0  0  0  0  0  0
  -22.8030  -13.6390   21.1340 C   0  0  0  0  0  0  0  0  0  0  0  0
  -22.0720  -12.9490   22.0000 N   0  0  0  0  0  0  0  0  0  0  0  0
  -22.3810  -14.6730   20.6220 O   0  0  0  0  0  0  0  0  0  0  0  0
  -22.4370  -12.1100   22.4290 H   0  0  0  0  0  0  0  0  0  0  0  0
  -21.1410  -13.2570   22.2280 H   0  0  0  0  0  0  0  0  0  0  0  0
  -25.4700  -15.2380   20.2710 N   0  0  0  0  0  0  0  0  0  0  0  0
  -24.7300  -15.9210   20.3820 H   0  0  0  0  0  0  0  0  0  0  0  0
  -26.3070  -15.6190   19.8540 H   0  0  0  0  0  0  0  0  0  0  0  0
  1  4  1  0
  2  5  1  0
  2  1  2  0
  4  3  2  0
  4 55  1  0
  5  6  2  0
  6  7  1  0
  6  3  1  0
  8 11  1  0
  9  8  1  0
  9 12  1  0
 11 10  1  0
 11 13  1  0
 12  5  1  0
 12 10  1  0
 13 14  1  0
 15 26  2  0
 16 14  1  0
 16 21  1  0
 17 25  1  0
 17 27  1  0
 18 24  1  0
 18 20  1  0
 19 25  1  0
 20 19  1  0
 21 20  2  0
 22 23  1  0
 22 16  2  0
 23 18  2  0
 24 17  1  0
 25 15  1  0
 27 29  2  0
 28 27  1  0
 30 28  1  0
 31 40  2  0
 31 36  1  0
 32 28  1  0
 32 36  1  0
 33 32  1  0
 34 35  1  0
 34 33  1  0
 35 31  1  0
 36 37  2  0
 37 38  1  0
 39 38  2  0
 40 39  1  0
 41 15  1  0
 41 42  1  0
 41 51  1  0
 42 45  1  0
 43 47  1  0
 43 42  1  0
 44 43  2  0
 47 46  1  0
 49 47  1  0
 49 50  1  0
 49 48  1  0
 51 54  1  1
 51 52  1  0
 53 51  1  0
 55 57  1  0
 57 59  1  0
 57 56  1  0
 57 58  1  1
 59 60  1  0
 61 60  1  0
 62 67  1  0
 63 64  1  0
 63 62  1  0
 65 64  1  0
 65 72  1  0
 65 66  1  0
 67 61  1  0
 67 66  1  0
 68 61  2  0
 69 70  2  0
 70 89  1  0
 71 70  1  0
 71 74  1  0
 72 69  1  0
 72 73  1  0
 73 71  2  0
 74 75  1  0
 75 76  2  0
 77 80  1  0
 77 76  1  0
 78 77  2  0
 79 78  1  0
 79 74  2  0
 80 81  1  0
 81 82  1  0
 82 83  2  0
 84 83  1  0
 84 88  1  0
 85 84  2  0
 86 81  2  0
 86 85  1  0
 87 86  1  0
 89 90  1  0
 90 93  1  0
 90 92  1  0
 91 89  2  0
 94 95  1  0
 94 69  1  0
 96 94  1  0
M  ISO  4  13 101  14 101  60 100  61 100
M  END
>  <TORSDO>  (16) 
F 22

>  <SCORE>  (16) 
-13.416

>  <name>  (16) 
15

>  <ligand_id>  (16) 
15

>  <original_smiles>  (16) 
[H]c1c([H])c([H])c2c(c1[H])C([H])([H])C([H])([H])C([H])([H])C2([H])N([H])C(=O)C1([H])N(C(=O)C([H])(N([H])C(=O)C([H])(N([H])C([H])([H])[H])C([H])([H])[H])C(C([H])([H])[H])(C([H])([H])[H])C([H])([H])[H])C([H])([H])c2c([H])c(OC([H])([H])C3([H])C([H])([H])N(c4c([H])c([H])c(C([H])([H])[N+]([H])(C([H])([H])[H])C([H])([H])C([H])([H])C(=O)N5C([H])([H])C([H])([H])C([H])([H])C([H])(n6nc(-c7c([H])c([H])c(Oc8c([H])c([H])c(F)c([H])c8F)c([H])c7[H])c(C(=O)N([H])[H])c6N([H])[H])C5([H])[H])c([H])c4F)C([H])([H])C3([H])[H])c([H])c([H])c2C1([H])[H]

>  <smiles>  (16) 
[H]c1c([H])c([H])c2c(c1[H])C([H])([H])C([H])([H])C([H])([H])C2([H])N([H])C(=O)C1([H])N(C(=O)C([H])(N([H])C(=O)C([H])(N([H])C([H])([H])[H])C([H])([H])[H])C(C([H])([H])[H])(C([H])([H])[H])C([H])([H])[H])C([H])([H])c2c([H])c(OC([H])([H])C3([H])C([H])([H])N(c4c([H])c([H])c(C([H])([H])[N+]([H])(C([H])([H])[H])C([H])([H])C([H])([H])C(=O)N5C([H])([H])C([H])([H])C([H])([H])C([H])(n6nc(-c7c([H])c([H])c(Oc8c([H])c([H])c(F)c([H])c8F)c([H])c7[H])c(C(=O)N([H])[H])c6N([H])[H])C5([H])[H])c([H])c4F)C([H])([H])C3([H])[H])c([H])c([H])c2C1([H])[H]

$$$$
16:0:0
     RDKit          3D

 98106  0  0  1  0  0  0  0  0999 V2000
  -26.1370  -19.6000   18.6670 C   0  0  0  0  0  3  0  0  0  0  0  0
  -27.9200  -20.1940   17.1310 C   0  0  0  0  0  3  0  0  0  0  0  0
  -25.5660  -20.8860   18.4970 C   0  0  0  0  0  3  0  0  0  0  0  0
  -27.3470  -21.4690   16.9570 C   0  0  0  0  0  3  0  0  0  0  0  0
  -27.3350  -19.2540   18.0000 C   0  0  0  0  0  0  0  0  0  0  0  0
  -26.1770  -21.8440   17.6500 C   0  0  0  0  0  0  0  0  0  0  0  0
  -24.2220  -23.3260   17.5740 C   0  0  0  0  0  1  0  0  0  0  0  0
  -25.6800  -23.1590   17.4910 N   0  0  0  0  0  0  0  0  0  0  0  0
  -26.4410  -24.1660   18.2330 C   0  0  0  0  0  2  0  0  0  0  0  0
  -27.9120  -24.3810   17.7940 C   0  0  0  0  0  2  0  0  0  0  0  0
  -28.5670  -25.6410   18.3990 C   0  0  0  0  0  2  0  0  0  0  0  0
  -28.8640  -25.5460   19.9200 C   0  0  0  0  0  2  0  0  0  0  0  0
  -28.7670  -26.7960   20.6160 O   0  0  0  0  0  0  0  0  0  0  0  0
  -24.7870  -31.9970   23.4230 C   0  0  0  0  0  0  0  0  0  0  0  0
  -27.5500  -27.4510   20.6460 C   0  0  0  0  0  0  0  0  0  0  0  0
  -23.6310  -30.4900   21.8420 C   0  0  0  0  0  3  0  0  0  0  0  0
  -25.1280  -28.9110   20.5400 C   0  0  0  0  0  0  0  0  0  0  0  0
  -26.1590  -30.8840   21.6690 C   0  0  0  0  0  2  0  0  0  0  0  0
  -26.2750  -29.4910   21.0920 C   0  0  0  0  0  0  0  0  0  0  0  0
  -27.4960  -28.7770   21.1200 C   0  0  0  0  0  3  0  0  0  0  0  0
  -26.3500  -26.8550   20.1990 C   0  0  0  0  0  3  0  0  0  0  0  0
  -25.1600  -27.5830   20.0930 C   0  0  0  0  0  3  0  0  0  0  0  0
  -23.8770  -29.7530   20.5020 C   0  0  0  0  0  2  0  0  0  0  0  0
  -24.8760  -31.1370   22.3690 N   0  0  0  0  0  0  0  0  0  0  0  0
  -23.6910  -32.2810   23.9270 O   0  0  0  0  0  0  0  0  0  0  0  0
  -22.9840  -29.5010   22.8390 C   0  0  0  0  0  0  0  0  0  0  0  0
  -21.6880  -29.2070   22.6370 N   0  0  0  0  0  0  0  0  0  0  0  0
  -23.6460  -29.0010   23.7540 O   0  0  0  0  0  0  0  0  0  0  0  0
  -21.2090  -29.6830   21.8870 H   0  0  0  0  0  0  0  0  0  0  0  0
  -18.3990  -27.7480   22.9510 C   0  0  0  0  0  0  0  0  0  0  0  0
  -20.8790  -28.2830   23.4310 C   0  0  0  0  0  3  0  0  0  0  0  0
  -21.1650  -26.8130   23.0440 C   0  0  0  0  0  2  0  0  0  0  0  0
  -20.2110  -26.2710   21.9760 C   0  0  0  0  0  2  0  0  0  0  0  0
  -18.7590  -26.3540   22.4590 C   0  0  0  0  0  2  0  0  0  0  0  0
  -19.3950  -28.6580   23.3910 C   0  0  0  0  0  0  0  0  0  0  0  0
  -19.0100  -29.9510   23.8030 C   0  0  0  0  0  3  0  0  0  0  0  0
  -17.6590  -30.3400   23.7840 C   0  0  0  0  0  3  0  0  0  0  0  0
  -16.6740  -29.4310   23.3640 C   0  0  0  0  0  3  0  0  0  0  0  0
  -17.0420  -28.1380   22.9510 C   0  0  0  0  0  3  0  0  0  0  0  0
  -26.0520  -32.6830   24.0250 C   0  0  0  0  0  3  0  0  0  0  0  0
  -26.5570  -31.9960   25.3520 C   0  0  1  0  0  0  0  0  0  0  0  0
  -25.4350  -31.7720   26.3930 C   0  0  0  0  0  1  0  0  0  0  0  0
  -27.1950  -30.6210   25.0450 C   0  0  0  0  0  1  0  0  0  0  0  0
  -27.6570  -32.8650   26.0060 C   0  0  0  0  0  1  0  0  0  0  0  0
  -25.7160  -34.0930   24.2650 N   0  0  0  0  0  0  0  0  0  0  0  0
  -26.0290  -35.1010   23.4400 C   0  0  0  0  0  0  0  0  0  0  0  0
  -26.7050  -34.9450   22.4190 O   0  0  0  0  0  0  0  0  0  0  0  0
  -25.1230  -34.2920   25.0580 H   0  0  0  0  0  0  0  0  0  0  0  0
  -24.2530  -36.8220   22.9840 C   0  0  0  0  0  1  0  0  0  0  0  0
  -25.5100  -36.5040   23.8090 C   0  0  0  0  0  3  0  0  0  0  0  0
  -27.6210  -37.4850   24.5780 C   0  0  0  0  0  1  0  0  0  0  0  0
  -26.5160  -37.5710   23.6270 N   0  0  0  0  0  0  0  0  0  0  0  0
  -26.0880  -38.4860   23.7290 H   0  0  0  0  0  0  0  0  0  0  0  0
  -27.9780  -17.8750   18.1600 C   0  0  0  0  0  2  0  0  0  0  0  0
  -28.6840  -17.6870   19.4490 N   0  0  0  0  0  4  0  0  0  0  0  0
  -28.2690  -16.8850   19.8810 H   0  0  0  0  0  0  0  0  0  0  0  0
  -28.5040  -18.4840   20.0400 H   0  0  0  0  0  0  0  0  0  0  0  0
  -30.1440  -17.4170   19.3750 C   0  0  0  0  0  2  0  0  0  0  0  0
  -30.3540  -17.4080   21.9610 C   0  0  0  0  0  1  0  0  0  0  0  0
  -30.7070  -16.6880   20.6370 C   0  0  0  0  0  3  0  0  0  0  0  0
  -31.0070  -14.2160   20.1350 C   0  0  0  0  0  0  0  0  0  0  0  0
  -30.6050  -12.0680   18.9710 C   0  0  0  0  0  2  0  0  0  0  0  0
  -29.6510  -12.3320   17.7880 C   0  0  0  0  0  2  0  0  0  0  0  0
  -28.1870  -12.2380   18.2600 C   0  0  0  0  0  2  0  0  0  0  0  0
  -27.9160  -13.0740   19.5410 C   0  0  0  0  0  3  0  0  0  0  0  0
  -28.9850  -12.8000   20.6230 C   0  0  0  0  0  2  0  0  0  0  0  0
  -30.3050  -13.0550   20.0240 N   0  0  0  0  0  0  0  0  0  0  0  0
  -32.1200  -14.3730   19.6240 O   0  0  0  0  0  0  0  0  0  0  0  0
  -30.3260  -15.2540   20.6760 N   0  0  0  0  0  0  0  0  0  0  0  0
  -29.4500  -15.0190   21.1130 H   0  0  0  0  0  0  0  0  0  0  0  0
  -25.5610  -13.7840   20.3000 C   0  0  0  0  0  0  0  0  0  0  0  0
  -24.4730  -13.0560   20.6980 C   0  0  0  0  0  0  0  0  0  0  0  0
  -24.8850  -11.6890   20.6770 C   0  0  0  0  0  0  0  0  0  0  0  0
  -26.5650  -12.8590   20.0520 N   0  0  0  0  0  0  0  0  0  0  0  0
  -26.1630  -11.5960   20.3380 N   0  0  0  0  0  0  0  0  0  0  0  0
  -24.1200  -10.4570   20.9070 C   0  0  0  0  0  0  0  0  0  0  0  0
  -24.5140   -9.5100   21.8780 C   0  0  0  0  0  3  0  0  0  0  0  0
  -23.7470   -8.3440   22.0890 C   0  0  0  0  0  3  0  0  0  0  0  0
  -22.5750   -8.1190   21.3300 C   0  0  0  0  0  0  0  0  0  0  0  0
  -22.2000   -9.0550   20.3520 C   0  0  0  0  0  3  0  0  0  0  0  0
  -22.9650  -10.2120   20.1390 C   0  0  0  0  0  3  0  0  0  0  0  0
  -21.7850   -7.0020   21.4480 O   0  0  0  0  0  0  0  0  0  0  0  0
  -21.6730   -6.3220   22.6330 C   0  0  0  0  0  0  0  0  0  0  0  0
  -21.2100   -6.9480   23.8120 C   0  0  0  0  0  3  0  0  0  0  0  0
  -21.0440   -6.1950   24.9900 C   0  0  0  0  0  3  0  0  0  0  0  0
  -21.3330   -4.8170   24.9940 C   0  0  0  0  0  0  0  0  0  0  0  0
  -21.7890   -4.1910   23.8220 C   0  0  0  0  0  3  0  0  0  0  0  0
  -21.9580   -4.9420   22.6440 C   0  0  0  0  0  0  0  0  0  0  0  0
  -22.3790   -4.3290   21.5100 F   0  0  0  0  0  0  0  0  0  0  0  0
  -21.1670   -4.0940   26.1250 F   0  0  0  0  0  0  0  0  0  0  0  0
  -23.1050  -13.5940   21.0010 C   0  0  0  0  0  0  0  0  0  0  0  0
  -22.3760  -12.9410   21.9010 N   0  0  0  0  0  0  0  0  0  0  0  0
  -22.6910  -14.6270   20.4800 O   0  0  0  0  0  0  0  0  0  0  0  0
  -22.7190  -12.1000   22.3400 H   0  0  0  0  0  0  0  0  0  0  0  0
  -21.4660  -13.2930   22.1590 H   0  0  0  0  0  0  0  0  0  0  0  0
  -25.7800  -15.1460   20.1240 N   0  0  0  0  0  0  0  0  0  0  0  0
  -25.0640  -15.8160   20.3820 H   0  0  0  0  0  0  0  0  0  0  0  0
  -26.7070  -15.5370   20.1200 H   0  0  0  0  0  0  0  0  0  0  0  0
  2  5  1  0
  3  1  1  0
  4  2  2  0
  4  6  1  0
  5 54  1  0
  5  1  2  0
  6  3  2  0
  8  7  1  0
  8  6  1  0
  8  9  1  0
 10  9  1  0
 10 11  1  0
 11 12  1  0
 12 13  1  0
 13 15  1  0
 14 25  2  0
 15 20  1  0
 16 24  1  0
 16 26  1  0
 17 19  1  0
 18 24  1  0
 19 20  2  0
 19 18  1  0
 21 15  2  0
 22 21  1  0
 22 17  2  0
 23 17  1  0
 23 16  1  0
 24 14  1  0
 26 28  2  0
 27 26  1  0
 29 27  1  0
 30 35  1  0
 31 27  1  0
 32 31  1  0
 33 34  1  0
 33 32  1  0
 34 30  1  0
 35 31  1  0
 35 36  2  0
 37 36  1  0
 38 37  2  0
 39 30  2  0
 39 38  1  0
 40 14  1  0
 40 45  1  0
 40 41  1  0
 41 44  1  1
 41 42  1  0
 43 41  1  0
 45 48  1  0
 46 50  1  0
 46 45  1  0
 47 46  2  0
 50 49  1  0
 52 53  1  0
 52 50  1  0
 52 51  1  0
 54 55  1  0
 55 56  1  0
 55 57  1  0
 58 55  1  0
 58 60  1  0
 60 69  1  0
 60 59  1  0
 61 69  1  0
 62 67  1  0
 63 64  1  0
 63 62  1  0
 65 64  1  0
 65 74  1  0
 65 66  1  0
 67 61  1  0
 67 66  1  0
 68 61  2  0
 69 70  1  0
 71 72  2  0
 72 91  1  0
 73 72  1  0
 73 76  1  0
 74 71  1  0
 74 75  1  0
 75 73  2  0
 76 77  1  0
 77 78  2  0
 79 82  1  0
 79 78  1  0
 80 79  2  0
 81 80  1  0
 81 76  2  0
 82 83  1  0
 83 88  2  0
 83 84  1  0
 84 85  2  0
 85 86  1  0
 86 90  1  0
 87 86  2  0
 88 87  1  0
 89 88  1  0
 91 92  1  0
 92 95  1  0
 92 94  1  0
 93 91  2  0
 96 71  1  0
 96 97  1  0
 98 96  1  0
M  ISO  4  12 101  13 101  61 100  69 100
M  END
>  <TORSDO>  (17) 
F 25

>  <SCORE>  (17) 
-10.745

>  <name>  (17) 
16

>  <ligand_id>  (17) 
16

>  <original_smiles>  (17) 
[H]c1c([H])c([H])c2c(c1[H])C([H])([H])C([H])([H])C([H])([H])C2([H])N([H])C(=O)C1([H])N(C(=O)C([H])(N([H])C(=O)C([H])(N([H])C([H])([H])[H])C([H])([H])[H])C(C([H])([H])[H])(C([H])([H])[H])C([H])([H])[H])C([H])([H])c2c([H])c(OC([H])([H])C([H])([H])C([H])([H])C([H])([H])N(c3c([H])c([H])c(C([H])([H])[N+]([H])([H])C([H])([H])C([H])(N([H])C(=O)N4C([H])([H])C([H])([H])C([H])([H])C([H])(n5nc(-c6c([H])c([H])c(Oc7c([H])c([H])c(F)c([H])c7F)c([H])c6[H])c(C(=O)N([H])[H])c5N([H])[H])C4([H])[H])C([H])([H])[H])c([H])c3[H])C([H])([H])[H])c([H])c([H])c2C1([H])[H]

>  <smiles>  (17) 
[H]c1c([H])c([H])c2c(c1[H])C([H])([H])C([H])([H])C([H])([H])C2([H])N([H])C(=O)C1([H])N(C(=O)C([H])(N([H])C(=O)C([H])(N([H])C([H])([H])[H])C([H])([H])[H])C(C([H])([H])[H])(C([H])([H])[H])C([H])([H])[H])C([H])([H])c2c([H])c(OC([H])([H])C([H])([H])C([H])([H])C([H])([H])N(c3c([H])c([H])c(C([H])([H])[N+]([H])([H])C([H])([H])C([H])(N([H])C(=O)N4C([H])([H])C([H])([H])C([H])([H])C([H])(n5nc(-c6c([H])c([H])c(Oc7c([H])c([H])c(F)c([H])c7F)c([H])c6[H])c(C(=O)N([H])[H])c5N([H])[H])C4([H])[H])C([H])([H])[H])c([H])c3[H])C([H])([H])[H])c([H])c([H])c2C1([H])[H]

$$$$
17:0:0
     RDKit          3D

 97106  0  0  1  0  0  0  0  0999 V2000
  -26.3430  -22.2070   17.9830 C   0  0  0  0  0  0  0  0  0  0  0  0
  -27.1570  -23.2680   17.7770 C   0  0  0  0  0  3  0  0  0  0  0  0
  -25.0110  -21.9710   17.2940 C   0  0  0  0  0  2  0  0  0  0  0  0
  -24.5640  -20.5580   17.6540 C   0  0  0  0  0  2  0  0  0  0  0  0
  -25.3550  -20.2250   18.9180 C   0  0  0  0  0  2  0  0  0  0  0  0
  -26.6050  -21.0200   18.8630 N   0  0  1  0  0  4  0  0  0  0  0  0
  -26.7650  -21.3360   19.8070 H   0  0  0  0  0  0  0  0  0  0  0  0
  -27.8260  -20.2720   18.4610 C   0  0  0  0  0  2  0  0  0  0  0  0
  -27.8750  -17.7610   18.3080 C   0  0  0  0  0  3  0  0  0  0  0  0
  -28.5180  -16.5510   18.6090 C   0  0  0  0  0  3  0  0  0  0  0  0
  -28.8720  -18.7810   20.2830 C   0  0  0  0  0  3  0  0  0  0  0  0
  -28.1290  -18.9080   19.0840 C   0  0  0  0  0  0  0  0  0  0  0  0
  -29.4100  -16.4690   19.6970 C   0  0  0  0  0  0  0  0  0  0  0  0
  -29.5110  -17.5600   20.5950 C   0  0  0  0  0  0  0  0  0  0  0  0
  -30.3210  -17.4920   21.6770 F   0  0  0  0  0  0  0  0  0  0  0  0
  -30.7870  -14.6610   20.7040 C   0  0  0  0  0  0  0  0  0  0  0  0
  -30.5560  -12.4180   19.8290 C   0  0  0  0  0  2  0  0  0  0  0  0
  -29.6950  -12.5070   18.5520 C   0  0  0  0  0  2  0  0  0  0  0  0
  -28.1980  -12.4200   18.9030 C   0  0  0  0  0  2  0  0  0  0  0  0
  -27.7690  -13.3400   20.0770 C   0  0  0  0  0  3  0  0  0  0  0  0
  -28.7610  -13.2720   21.2540 C   0  0  0  0  0  2  0  0  0  0  0  0
  -30.1120  -13.4870   20.7270 N   0  0  0  0  0  0  0  0  0  0  0  0
  -31.9830  -14.7410   20.9770 O   0  0  0  0  0  0  0  0  0  0  0  0
  -31.3660  -15.6040   18.5660 C   0  0  0  0  0  1  0  0  0  0  0  0
  -30.3800  -15.4300   19.6570 N   0  0  0  0  0  0  0  0  0  0  0  0
  -25.3290  -13.9510   20.6140 C   0  0  0  0  0  0  0  0  0  0  0  0
  -24.2430  -13.1760   20.9210 C   0  0  0  0  0  0  0  0  0  0  0  0
  -24.7220  -11.8310   20.9640 C   0  0  0  0  0  0  0  0  0  0  0  0
  -26.3960  -13.0740   20.4910 N   0  0  0  0  0  0  0  0  0  0  0  0
  -26.0310  -11.7990   20.7680 N   0  0  0  0  0  0  0  0  0  0  0  0
  -24.0030  -10.5630   21.1280 C   0  0  0  0  0  0  0  0  0  0  0  0
  -24.4020   -9.6050   22.0870 C   0  0  0  0  0  3  0  0  0  0  0  0
  -23.6810   -8.4010   22.2380 C   0  0  0  0  0  3  0  0  0  0  0  0
  -22.5500   -8.1460   21.4300 C   0  0  0  0  0  0  0  0  0  0  0  0
  -22.1720   -9.0930   20.4620 C   0  0  0  0  0  3  0  0  0  0  0  0
  -22.8920  -10.2880   20.3070 C   0  0  0  0  0  3  0  0  0  0  0  0
  -21.8000   -6.9940   21.4940 O   0  0  0  0  0  0  0  0  0  0  0  0
  -21.7170   -6.2520   22.6460 C   0  0  0  0  0  0  0  0  0  0  0  0
  -21.2330   -6.8010   23.8520 C   0  0  0  0  0  3  0  0  0  0  0  0
  -21.0910   -5.9830   24.9920 C   0  0  0  0  0  3  0  0  0  0  0  0
  -21.4290   -4.6180   24.9260 C   0  0  0  0  0  0  0  0  0  0  0  0
  -21.9100   -4.0690   23.7250 C   0  0  0  0  0  3  0  0  0  0  0  0
  -22.0480   -4.8830   22.5870 C   0  0  0  0  0  0  0  0  0  0  0  0
  -22.4870   -4.3410   21.4240 F   0  0  0  0  0  0  0  0  0  0  0  0
  -21.2930   -3.8330   26.0190 F   0  0  0  0  0  0  0  0  0  0  0  0
  -22.8210  -13.6380   21.0670 C   0  0  0  0  0  0  0  0  0  0  0  0
  -22.0410  -12.9620   21.9010 N   0  0  0  0  0  0  0  0  0  0  0  0
  -22.4080  -14.6330   20.4730 O   0  0  0  0  0  0  0  0  0  0  0  0
  -22.3940  -12.1660   22.4130 H   0  0  0  0  0  0  0  0  0  0  0  0
  -21.0830  -13.2530   22.0380 H   0  0  0  0  0  0  0  0  0  0  0  0
  -25.4980  -15.3160   20.4040 N   0  0  0  0  0  0  0  0  0  0  0  0
  -24.7310  -15.9770   20.4310 H   0  0  0  0  0  0  0  0  0  0  0  0
  -26.3740  -15.7370   20.1260 H   0  0  0  0  0  0  0  0  0  0  0  0
  -28.5200  -23.5520   18.3930 C   0  0  0  0  0  2  0  0  0  0  0  0
  -28.7430  -25.0500   18.6970 C   0  0  0  0  0  2  0  0  0  0  0  0
  -28.4110  -25.4310   20.1480 C   0  0  0  0  0  2  0  0  0  0  0  0
  -28.4160  -26.8480   20.3380 O   0  0  0  0  0  0  0  0  0  0  0  0
  -24.5290  -31.9700   23.3490 C   0  0  0  0  0  0  0  0  0  0  0  0
  -27.2130  -27.5230   20.3160 C   0  0  0  0  0  0  0  0  0  0  0  0
  -23.3400  -30.5540   21.7060 C   0  0  0  0  0  3  0  0  0  0  0  0
  -24.8060  -29.0060   20.3120 C   0  0  0  0  0  0  0  0  0  0  0  0
  -25.8670  -30.9150   21.5330 C   0  0  0  0  0  2  0  0  0  0  0  0
  -25.9580  -29.5430   20.8970 C   0  0  0  0  0  0  0  0  0  0  0  0
  -27.1640  -28.8100   20.8900 C   0  0  0  0  0  3  0  0  0  0  0  0
  -26.0390  -26.9900   19.7340 C   0  0  0  0  0  3  0  0  0  0  0  0
  -24.8400  -27.7240   19.7330 C   0  0  0  0  0  3  0  0  0  0  0  0
  -23.5610  -29.8580   20.3370 C   0  0  0  0  0  2  0  0  0  0  0  0
  -24.5960  -31.1620   22.2530 N   0  0  0  0  0  0  0  0  0  0  0  0
  -23.4430  -32.2450   23.8740 O   0  0  0  0  0  0  0  0  0  0  0  0
  -22.6810  -29.5380   22.6680 C   0  0  0  0  0  0  0  0  0  0  0  0
  -21.3630  -29.3370   22.5120 N   0  0  0  0  0  0  0  0  0  0  0  0
  -23.3550  -28.9340   23.5070 O   0  0  0  0  0  0  0  0  0  0  0  0
  -20.8820  -29.8760   21.8060 H   0  0  0  0  0  0  0  0  0  0  0  0
  -17.9920  -28.1140   22.9540 C   0  0  0  0  0  0  0  0  0  0  0  0
  -20.5400  -28.4010   23.2790 C   0  0  0  0  0  3  0  0  0  0  0  0
  -20.6690  -26.9630   22.7250 C   0  0  0  0  0  2  0  0  0  0  0  0
  -19.5930  -26.6140   21.6930 C   0  0  0  0  0  2  0  0  0  0  0  0
  -18.1960  -26.7560   22.3040 C   0  0  0  0  0  2  0  0  0  0  0  0
  -19.0930  -28.8930   23.3980 C   0  0  0  0  0  0  0  0  0  0  0  0
  -18.8510  -30.1640   23.9610 C   0  0  0  0  0  3  0  0  0  0  0  0
  -17.5400  -30.6580   24.0880 C   0  0  0  0  0  3  0  0  0  0  0  0
  -16.4510  -29.8760   23.6630 C   0  0  0  0  0  3  0  0  0  0  0  0
  -16.6790  -28.6040   23.1050 C   0  0  0  0  0  3  0  0  0  0  0  0
  -25.8080  -32.6070   23.9750 C   0  0  0  0  0  3  0  0  0  0  0  0
  -25.5100  -34.0160   24.2530 N   0  0  0  0  0  0  0  0  0  0  0  0
  -25.8810  -35.0410   23.4730 C   0  0  0  0  0  0  0  0  0  0  0  0
  -26.5820  -34.8960   22.4660 O   0  0  0  0  0  0  0  0  0  0  0  0
  -24.8940  -34.2040   25.0290 H   0  0  0  0  0  0  0  0  0  0  0  0
  -24.1970  -36.8440   22.9950 C   0  0  0  0  0  1  0  0  0  0  0  0
  -25.3970  -36.4480   23.8700 C   0  0  0  0  0  3  0  0  0  0  0  0
  -27.5100  -37.3190   24.7630 C   0  0  0  0  0  1  0  0  0  0  0  0
  -26.4500  -37.4820   23.7720 N   0  0  0  0  0  0  0  0  0  0  0  0
  -26.0540  -38.4110   23.8830 H   0  0  0  0  0  0  0  0  0  0  0  0
  -26.2930  -31.8720   25.2860 C   0  0  1  0  0  0  0  0  0  0  0  0
  -25.1770  -31.6770   26.3380 C   0  0  0  0  0  1  0  0  0  0  0  0
  -26.8760  -30.4810   24.9490 C   0  0  0  0  0  1  0  0  0  0  0  0
  -27.4350  -32.6810   25.9450 C   0  0  0  0  0  1  0  0  0  0  0  0
  1  6  1  0
  2  1  2  0
  2 54  1  0
  3  4  1  0
  3  1  1  0
  4  5  1  0
  6  5  1  0
  6  7  1  1
  8  6  1  0
  8 12  1  0
  9 10  2  0
  9 12  1  0
 10 13  1  0
 11 14  1  0
 12 11  2  0
 13 14  2  0
 14 15  1  0
 16 22  1  0
 16 23  2  0
 17 22  1  0
 18 19  1  0
 18 17  1  0
 20 19  1  0
 20 29  1  0
 20 21  1  0
 22 21  1  0
 24 25  1  0
 25 13  1  0
 25 16  1  0
 26 27  2  0
 27 28  1  0
 27 46  1  0
 28 31  1  0
 29 26  1  0
 29 30  1  0
 30 28  2  0
 31 32  1  0
 32 33  2  0
 34 37  1  0
 34 33  1  0
 35 34  2  0
 36 35  1  0
 36 31  2  0
 37 38  1  0
 38 39  1  0
 39 40  2  0
 41 40  1  0
 41 45  1  0
 42 41  2  0
 43 38  2  0
 43 42  1  0
 44 43  1  0
 46 47  1  0
 47 50  1  0
 47 49  1  0
 48 46  2  0
 51 52  1  0
 51 26  1  0
 53 51  1  0
 54 55  1  0
 55 56  1  0
 56 57  1  0
 58 69  2  0
 59 57  1  0
 59 64  1  0
 60 68  1  0
 60 70  1  0
 61 67  1  0
 61 63  1  0
 62 68  1  0
 63 62  1  0
 64 63  2  0
 65 59  2  0
 66 65  1  0
 66 61  2  0
 67 60  1  0
 68 58  1  0
 70 72  2  0
 71 70  1  0
 73 71  1  0
 74 83  2  0
 74 79  1  0
 75 71  1  0
 75 79  1  0
 76 75  1  0
 77 78  1  0
 77 76  1  0
 78 74  1  0
 79 80  2  0
 80 81  1  0
 82 81  2  0
 83 82  1  0
 84 58  1  0
 84 85  1  0
 84 94  1  0
 85 88  1  0
 86 90  1  0
 86 85  1  0
 87 86  2  0
 90 89  1  0
 92 90  1  0
 92 93  1  0
 92 91  1  0
 94 97  1  1
 94 95  1  0
 96 94  1  0
M  ISO  4  16 100  25 100  56 101  57 101
M  END
>  <TORSDO>  (18) 
F 21

>  <SCORE>  (18) 
-12.975

>  <name>  (18) 
17

>  <ligand_id>  (18) 
17

>  <original_smiles>  (18) 
[H]C(=C1C([H])([H])C([H])([H])C([H])([H])[N+]1([H])C([H])([H])c1c([H])c([H])c(N(C(=O)N2C([H])([H])C([H])([H])C([H])([H])C([H])(n3nc(-c4c([H])c([H])c(Oc5c([H])c([H])c(F)c([H])c5F)c([H])c4[H])c(C(=O)N([H])[H])c3N([H])[H])C2([H])[H])C([H])([H])[H])c(F)c1[H])C([H])([H])C([H])([H])C([H])([H])Oc1c([H])c([H])c2c(c1[H])C([H])([H])N(C(=O)C([H])(N([H])C(=O)C([H])(N([H])C([H])([H])[H])C([H])([H])[H])C(C([H])([H])[H])(C([H])([H])[H])C([H])([H])[H])C([H])(C(=O)N([H])C1([H])c3c([H])c([H])c([H])c([H])c3C([H])([H])C([H])([H])C1([H])[H])C2([H])[H]

>  <smiles>  (18) 
[H]C(=C1C([H])([H])C([H])([H])C([H])([H])[N+]1([H])C([H])([H])c1c([H])c([H])c(N(C(=O)N2C([H])([H])C([H])([H])C([H])([H])C([H])(n3nc(-c4c([H])c([H])c(Oc5c([H])c([H])c(F)c([H])c5F)c([H])c4[H])c(C(=O)N([H])[H])c3N([H])[H])C2([H])[H])C([H])([H])[H])c(F)c1[H])C([H])([H])C([H])([H])C([H])([H])Oc1c([H])c([H])c2c(c1[H])C([H])([H])N(C(=O)C([H])(N([H])C(=O)C([H])(N([H])C([H])([H])[H])C([H])([H])[H])C(C([H])([H])[H])(C([H])([H])[H])C([H])([H])[H])C([H])(C(=O)N([H])C1([H])c3c([H])c([H])c([H])c([H])c3C([H])([H])C([H])([H])C1([H])[H])C2([H])[H]

$$$$
18:0:0
     RDKit          3D

 95103  0  0  1  0  0  0  0  0999 V2000
  -29.0690  -19.5110   20.5110 C   0  0  0  0  0  3  0  0  0  0  0  0
  -30.6940  -19.9850   18.7960 C   0  0  0  0  0  3  0  0  0  0  0  0
  -29.5950  -18.1910   20.6550 C   0  0  0  0  0  0  0  0  0  0  0  0
  -30.7140  -17.7690   19.8830 C   0  0  0  0  0  0  0  0  0  0  0  0
  -29.6240  -20.4490   19.5980 C   0  0  0  0  0  0  0  0  0  0  0  0
  -31.2280  -18.6850   18.9330 C   0  0  0  0  0  0  0  0  0  0  0  0
  -28.9850  -17.2660   21.6940 C   0  0  0  0  0  1  0  0  0  0  0  0
  -32.2990  -18.3480   18.1740 F   0  0  0  0  0  0  0  0  0  0  0  0
  -31.5420  -16.4970   20.2090 C   0  0  0  0  0  2  0  0  0  0  0  0
  -31.0510  -14.2530   19.2320 C   0  0  0  0  0  0  0  0  0  0  0  0
  -30.4120  -12.1170   18.1350 C   0  0  0  0  0  2  0  0  0  0  0  0
  -29.3010  -12.2860   17.0800 C   0  0  0  0  0  2  0  0  0  0  0  0
  -27.9160  -12.1600   17.7360 C   0  0  0  0  0  2  0  0  0  0  0  0
  -27.7840  -13.0640   18.9820 C   0  0  0  0  0  3  0  0  0  0  0  0
  -28.9880  -12.9250   19.9280 C   0  0  0  0  0  2  0  0  0  0  0  0
  -30.2460  -13.1440   19.1870 N   0  0  0  0  0  0  0  0  0  0  0  0
  -31.8690  -14.4700   18.3310 O   0  0  0  0  0  0  0  0  0  0  0  0
  -30.9520  -15.1180   20.2900 N   0  0  0  0  0  0  0  0  0  0  0  0
  -25.5910  -13.7430   20.1420 C   0  0  0  0  0  0  0  0  0  0  0  0
  -24.5740  -13.0030   20.6820 C   0  0  0  0  0  0  0  0  0  0  0  0
  -24.9590  -11.6350   20.5370 C   0  0  0  0  0  0  0  0  0  0  0  0
  -26.5290  -12.8270   19.6950 N   0  0  0  0  0  0  0  0  0  0  0  0
  -26.1670  -11.5520   19.9950 N   0  0  0  0  0  0  0  0  0  0  0  0
  -24.2220  -10.3990   20.8290 C   0  0  0  0  0  0  0  0  0  0  0  0
  -24.6720   -9.4810   21.8030 C   0  0  0  0  0  3  0  0  0  0  0  0
  -23.9350   -8.3080   22.0770 C   0  0  0  0  0  3  0  0  0  0  0  0
  -22.7340   -8.0440   21.3750 C   0  0  0  0  0  0  0  0  0  0  0  0
  -22.3020   -8.9500   20.3900 C   0  0  0  0  0  3  0  0  0  0  0  0
  -23.0400  -10.1140   20.1150 C   0  0  0  0  0  3  0  0  0  0  0  0
  -21.9660   -6.9180   21.5550 O   0  0  0  0  0  0  0  0  0  0  0  0
  -21.8390   -6.3220   22.7840 C   0  0  0  0  0  0  0  0  0  0  0  0
  -21.3310   -7.0200   23.9010 C   0  0  0  0  0  3  0  0  0  0  0  0
  -21.1510   -6.3500   25.1280 C   0  0  0  0  0  3  0  0  0  0  0  0
  -21.4720   -4.9830   25.2370 C   0  0  0  0  0  0  0  0  0  0  0  0
  -21.9740   -4.2850   24.1240 C   0  0  0  0  0  3  0  0  0  0  0  0
  -22.1540   -4.9540   22.9000 C   0  0  0  0  0  0  0  0  0  0  0  0
  -22.6180   -4.2720   21.8250 F   0  0  0  0  0  0  0  0  0  0  0  0
  -21.2930   -4.3360   26.4130 F   0  0  0  0  0  0  0  0  0  0  0  0
  -23.2700  -13.5280   21.2130 C   0  0  0  0  0  0  0  0  0  0  0  0
  -22.6980  -12.8560   22.2060 N   0  0  0  0  0  0  0  0  0  0  0  0
  -22.7760  -14.5680   20.7790 O   0  0  0  0  0  0  0  0  0  0  0  0
  -23.1160  -12.0140   22.5740 H   0  0  0  0  0  0  0  0  0  0  0  0
  -21.8320  -13.1870   22.6050 H   0  0  0  0  0  0  0  0  0  0  0  0
  -25.7880  -15.1100   19.9740 N   0  0  0  0  0  0  0  0  0  0  0  0
  -25.0930  -15.7950   20.2500 H   0  0  0  0  0  0  0  0  0  0  0  0
  -26.5880  -15.5210   19.5110 H   0  0  0  0  0  0  0  0  0  0  0  0
  -32.4840  -14.0060   21.9610 C   0  0  0  0  0  1  0  0  0  0  0  0
  -31.0880  -14.5940   21.6730 C   0  0  0  0  0  2  0  0  0  0  0  0
  -29.1630  -21.7970   19.4570 N   0  0  0  0  0  0  0  0  0  0  0  0
  -27.2680  -21.7340   17.8340 C   0  0  0  0  0  1  0  0  0  0  0  0
  -28.7180  -22.1540   18.1060 C   0  0  0  0  0  2  0  0  0  0  0  0
  -28.5720  -22.5360   20.5980 C   0  0  0  0  0  2  0  0  0  0  0  0
  -28.9170  -24.0670   20.7290 C   0  0  0  0  0  2  0  0  0  0  0  0
  -28.5140  -25.0540   19.5870 C   0  0  0  0  0  2  0  0  0  0  0  0
  -28.4260  -26.4500   19.9980 O   0  0  0  0  0  0  0  0  0  0  0  0
  -24.5570  -31.6460   23.0460 C   0  0  0  0  0  0  0  0  0  0  0  0
  -27.2260  -27.1590   19.9900 C   0  0  0  0  0  0  0  0  0  0  0  0
  -23.3490  -30.1910   21.4590 C   0  0  0  0  0  3  0  0  0  0  0  0
  -24.8030  -28.6590   20.0300 C   0  0  0  0  0  0  0  0  0  0  0  0
  -25.8680  -30.5880   21.2010 C   0  0  0  0  0  2  0  0  0  0  0  0
  -25.9680  -29.2050   20.5820 C   0  0  0  0  0  0  0  0  0  0  0  0
  -27.1790  -28.4640   20.5560 C   0  0  0  0  0  3  0  0  0  0  0  0
  -26.0300  -26.6450   19.4330 C   0  0  0  0  0  3  0  0  0  0  0  0
  -24.8320  -27.3810   19.4550 C   0  0  0  0  0  3  0  0  0  0  0  0
  -23.5430  -29.4960   20.0870 C   0  0  0  0  0  2  0  0  0  0  0  0
  -24.6110  -30.8250   21.9590 N   0  0  0  0  0  0  0  0  0  0  0  0
  -23.4820  -31.9050   23.6030 O   0  0  0  0  0  0  0  0  0  0  0  0
  -22.7430  -29.1700   22.4500 C   0  0  0  0  0  0  0  0  0  0  0  0
  -21.4350  -28.9010   22.3130 N   0  0  0  0  0  0  0  0  0  0  0  0
  -23.4500  -28.6200   23.3000 O   0  0  0  0  0  0  0  0  0  0  0  0
  -20.9210  -29.4020   21.6000 H   0  0  0  0  0  0  0  0  0  0  0  0
  -18.1400  -27.4880   22.7810 C   0  0  0  0  0  0  0  0  0  0  0  0
  -20.6620  -27.9480   23.1100 C   0  0  0  0  0  3  0  0  0  0  0  0
  -20.8860  -26.4990   22.6160 C   0  0  0  0  0  2  0  0  0  0  0  0
  -19.8420  -26.0430   21.5910 C   0  0  0  0  0  2  0  0  0  0  0  0
  -18.4330  -26.1200   22.1860 C   0  0  0  0  0  2  0  0  0  0  0  0
  -19.1860  -28.3500   23.2010 C   0  0  0  0  0  0  0  0  0  0  0  0
  -18.8600  -29.6250   23.7140 C   0  0  0  0  0  3  0  0  0  0  0  0
  -17.5190  -30.0380   23.8150 C   0  0  0  0  0  3  0  0  0  0  0  0
  -16.4860  -29.1740   23.4140 C   0  0  0  0  0  3  0  0  0  0  0  0
  -16.7960  -27.9010   22.9010 C   0  0  0  0  0  3  0  0  0  0  0  0
  -25.8400  -32.3210   23.6240 C   0  0  0  0  0  3  0  0  0  0  0  0
  -25.4710  -33.6780   24.0500 N   0  0  0  0  0  0  0  0  0  0  0  0
  -25.7010  -34.7880   23.3370 C   0  0  0  0  0  0  0  0  0  0  0  0
  -26.3210  -34.7800   22.2690 O   0  0  0  0  0  0  0  0  0  0  0  0
  -24.9100  -33.7510   24.8860 H   0  0  0  0  0  0  0  0  0  0  0  0
  -23.8680  -36.5030   23.1610 C   0  0  0  0  0  1  0  0  0  0  0  0
  -25.1610  -36.1180   23.8960 C   0  0  0  0  0  3  0  0  0  0  0  0
  -27.2810  -37.0680   24.6950 C   0  0  0  0  0  1  0  0  0  0  0  0
  -26.1320  -37.2310   23.8090 N   0  0  0  0  0  0  0  0  0  0  0  0
  -25.6840  -38.1180   24.0290 H   0  0  0  0  0  0  0  0  0  0  0  0
  -26.4800  -31.5130   24.8190 C   0  0  1  0  0  0  0  0  0  0  0  0
  -25.4600  -31.0960   25.9050 C   0  0  0  0  0  1  0  0  0  0  0  0
  -27.1730  -30.2280   24.3070 C   0  0  0  0  0  1  0  0  0  0  0  0
  -27.5800  -32.3650   25.4960 C   0  0  0  0  0  1  0  0  0  0  0  0
  1  3  1  0
  2  6  2  0
  2  5  1  0
  3  7  1  0
  4  9  1  0
  4  3  2  0
  5  1  2  0
  6  4  1  0
  8  6  1  0
  9 18  1  0
 10 18  1  0
 11 16  1  0
 12 13  1  0
 12 11  1  0
 14 13  1  0
 14 22  1  0
 14 15  1  0
 16 10  1  0
 16 15  1  0
 17 10  2  0
 18 48  1  0
 19 20  2  0
 20 39  1  0
 21 20  1  0
 21 24  1  0
 22 23  1  0
 22 19  1  0
 23 21  2  0
 24 25  1  0
 25 26  2  0
 27 30  1  0
 27 26  1  0
 28 27  2  0
 29 28  1  0
 29 24  2  0
 30 31  1  0
 31 36  2  0
 31 32  1  0
 32 33  2  0
 33 34  1  0
 34 38  1  0
 35 34  2  0
 36 35  1  0
 37 36  1  0
 39 40  1  0
 40 42  1  0
 40 43  1  0
 41 39  2  0
 44 19  1  0
 44 45  1  0
 46 44  1  0
 48 47  1  0
 49  5  1  0
 49 52  1  0
 50 51  1  0
 51 49  1  0
 52 53  1  0
 54 55  1  0
 54 53  1  0
 56 67  2  0
 57 55  1  0
 57 62  1  0
 58 66  1  0
 58 68  1  0
 59 65  1  0
 59 61  1  0
 60 66  1  0
 61 60  1  0
 62 61  2  0
 63 64  1  0
 63 57  2  0
 64 59  2  0
 65 58  1  0
 66 56  1  0
 68 70  2  0
 69 68  1  0
 71 69  1  0
 72 81  2  0
 72 77  1  0
 73 69  1  0
 73 77  1  0
 74 73  1  0
 75 76  1  0
 75 74  1  0
 76 72  1  0
 77 78  2  0
 78 79  1  0
 80 79  2  0
 81 80  1  0
 82 56  1  0
 82 83  1  0
 82 92  1  0
 83 86  1  0
 84 88  1  0
 84 83  1  0
 85 84  2  0
 88 87  1  0
 90 88  1  0
 90 91  1  0
 90 89  1  0
 92 95  1  1
 92 93  1  0
 94 92  1  0
M  ISO  4  10 100  18 100  54 101  55 101
M  END
>  <TORSDO>  (19) 
F 23

>  <SCORE>  (19) 
-9.261

>  <name>  (19) 
18

>  <ligand_id>  (19) 
18

>  <original_smiles>  (19) 
[H]c1c([H])c([H])c2c(c1[H])C([H])([H])C([H])([H])C([H])([H])C2([H])N([H])C(=O)C1([H])N(C(=O)C([H])(N([H])C(=O)C([H])(N([H])C([H])([H])[H])C([H])([H])[H])C(C([H])([H])[H])(C([H])([H])[H])C([H])([H])[H])C([H])([H])c2c([H])c(OC([H])([H])C([H])([H])C([H])([H])N(c3c([H])c(F)c(C([H])([H])N(C(=O)N4C([H])([H])C([H])([H])C([H])([H])C([H])(n5nc(-c6c([H])c([H])c(Oc7c([H])c([H])c(F)c([H])c7F)c([H])c6[H])c(C(=O)N([H])[H])c5N([H])[H])C4([H])[H])C([H])([H])C([H])([H])[H])c(C([H])([H])[H])c3[H])C([H])([H])C([H])([H])[H])c([H])c([H])c2C1([H])[H]

>  <smiles>  (19) 
[H]c1c([H])c([H])c2c(c1[H])C([H])([H])C([H])([H])C([H])([H])C2([H])N([H])C(=O)C1([H])N(C(=O)C([H])(N([H])C(=O)C([H])(N([H])C([H])([H])[H])C([H])([H])[H])C(C([H])([H])[H])(C([H])([H])[H])C([H])([H])[H])C([H])([H])c2c([H])c(OC([H])([H])C([H])([H])C([H])([H])N(c3c([H])c(F)c(C([H])([H])N(C(=O)N4C([H])([H])C([H])([H])C([H])([H])C([H])(n5nc(-c6c([H])c([H])c(Oc7c([H])c([H])c(F)c([H])c7F)c([H])c6[H])c(C(=O)N([H])[H])c5N([H])[H])C4([H])[H])C([H])([H])C([H])([H])[H])c(C([H])([H])[H])c3[H])C([H])([H])C([H])([H])[H])c([H])c([H])c2C1([H])[H]

$$$$
19:0:0
     RDKit          3D

 93101  0  0  1  0  0  0  0  0999 V2000
  -30.4600  -19.5850   19.9040 C   0  0  0  0  0  3  0  0  0  0  0  0
  -30.8470  -18.2200   20.1640 C   0  0  0  0  0  3  0  0  0  0  0  0
  -28.2290  -18.8610   19.3750 C   0  0  0  0  0  0  0  0  0  0  0  0
  -29.1380  -19.9630   19.5040 C   0  0  0  0  0  0  0  0  0  0  0  0
  -29.9150  -17.1500   20.0510 C   0  0  0  0  0  0  0  0  0  0  0  0
  -28.6110  -17.5210   19.6630 C   0  0  0  0  0  3  0  0  0  0  0  0
  -26.7870  -19.0700   18.9340 C   0  0  0  0  0  2  0  0  0  0  0  0
  -26.5520  -20.4520   18.3330 C   0  0  0  0  0  2  0  0  0  0  0  0
  -27.2440  -21.5080   19.1900 C   0  0  0  0  0  2  0  0  0  0  0  0
  -28.6980  -21.3260   19.2200 N   0  0  0  0  0  0  0  0  0  0  0  0
  -27.6860  -16.5350   19.5590 F   0  0  0  0  0 15  0  0  0  0  0  0
  -30.8440  -14.6960   19.7890 C   0  0  0  0  0  0  0  0  0  0  0  0
  -30.5600  -12.3870   18.8810 C   0  0  0  0  0  2  0  0  0  0  0  0
  -29.5280  -12.4550   17.7320 C   0  0  0  0  0  2  0  0  0  0  0  0
  -28.0860  -12.3600   18.2720 C   0  0  0  0  0  2  0  0  0  0  0  0
  -27.8340  -13.3140   19.4700 C   0  0  0  0  0  3  0  0  0  0  0  0
  -28.9620  -13.1710   20.5170 C   0  0  0  0  0  2  0  0  0  0  0  0
  -30.2400  -13.4640   19.8410 N   0  0  0  0  0  0  0  0  0  0  0  0
  -31.9430  -14.8560   19.2460 O   0  0  0  0  0  0  0  0  0  0  0  0
  -30.0920  -15.7170   20.3000 N   0  0  0  0  0  0  0  0  0  0  0  0
  -29.3060  -15.3470   20.8140 H   0  0  0  0  0  0  0  0  0  0  0  0
  -25.5460  -14.0470   20.3870 C   0  0  0  0  0  0  0  0  0  0  0  0
  -24.4660  -13.3360   20.8310 C   0  0  0  0  0  0  0  0  0  0  0  0
  -24.8340  -11.9590   20.7320 C   0  0  0  0  0  0  0  0  0  0  0  0
  -26.5120  -13.1100   20.0570 N   0  0  0  0  0  0  0  0  0  0  0  0
  -26.0910  -11.8450   20.3180 N   0  0  0  0  0  0  0  0  0  0  0  0
  -24.0440  -10.7430   20.9550 C   0  0  0  0  0  0  0  0  0  0  0  0
  -24.4520   -9.7570   21.8810 C   0  0  0  0  0  3  0  0  0  0  0  0
  -23.6670   -8.6050   22.0910 C   0  0  0  0  0  3  0  0  0  0  0  0
  -22.4590   -8.4290   21.3750 C   0  0  0  0  0  0  0  0  0  0  0  0
  -22.0680   -9.4020   20.4390 C   0  0  0  0  0  3  0  0  0  0  0  0
  -22.8530  -10.5470   20.2280 C   0  0  0  0  0  3  0  0  0  0  0  0
  -21.6450   -7.3290   21.4950 O   0  0  0  0  0  0  0  0  0  0  0  0
  -21.5440   -6.6330   22.6740 C   0  0  0  0  0  0  0  0  0  0  0  0
  -21.1130   -7.2490   23.8680 C   0  0  0  0  0  3  0  0  0  0  0  0
  -20.9590   -6.4810   25.0400 C   0  0  0  0  0  3  0  0  0  0  0  0
  -21.2230   -5.0990   25.0170 C   0  0  0  0  0  0  0  0  0  0  0  0
  -21.6470   -4.4830   23.8270 C   0  0  0  0  0  3  0  0  0  0  0  0
  -21.8040   -5.2470   22.6570 C   0  0  0  0  0  0  0  0  0  0  0  0
  -22.1920   -4.6450   21.5080 F   0  0  0  0  0  0  0  0  0  0  0  0
  -21.0670   -4.3600   26.1390 F   0  0  0  0  0  0  0  0  0  0  0  0
  -23.1330  -13.8950   21.2370 C   0  0  0  0  0  0  0  0  0  0  0  0
  -22.4680  -13.2580   22.1950 N   0  0  0  0  0  0  0  0  0  0  0  0
  -22.6950  -14.9330   20.7420 O   0  0  0  0  0  0  0  0  0  0  0  0
  -22.8360  -12.4190   22.6190 H   0  0  0  0  0  0  0  0  0  0  0  0
  -21.5800  -13.6170   22.5140 H   0  0  0  0  0  0  0  0  0  0  0  0
  -25.7750  -15.4080   20.2230 N   0  0  0  0  0  0  0  0  0  0  0  0
  -25.0750  -16.0990   20.4660 H   0  0  0  0  0  0  0  0  0  0  0  0
  -26.6780  -15.8170   20.0160 H   0  0  0  0  0  0  0  0  0  0  0  0
  -29.4580  -22.5800   19.5350 C   0  0  0  0  0  2  0  0  0  0  0  0
  -28.9030  -23.9970   19.0010 C   0  0  0  0  0  2  0  0  0  0  0  0
  -28.2130  -25.0610   19.9730 C   0  0  0  0  0  2  0  0  0  0  0  0
  -28.3240  -26.5120   19.6730 O   0  0  0  0  0  0  0  0  0  0  0  0
  -24.3610  -31.5900   22.9340 C   0  0  0  0  0  0  0  0  0  0  0  0
  -27.1680  -27.2970   19.6970 C   0  0  0  0  0  0  0  0  0  0  0  0
  -23.2250  -30.2320   21.2110 C   0  0  0  0  0  3  0  0  0  0  0  0
  -24.7430  -28.8080   19.7270 C   0  0  0  0  0  0  0  0  0  0  0  0
  -25.7490  -30.6600   21.0660 C   0  0  0  0  0  2  0  0  0  0  0  0
  -25.8870  -29.3190   20.3570 C   0  0  0  0  0  0  0  0  0  0  0  0
  -27.1050  -28.5790   20.3230 C   0  0  0  0  0  3  0  0  0  0  0  0
  -26.0040  -26.8300   19.0540 C   0  0  0  0  0  3  0  0  0  0  0  0
  -24.8060  -27.5710   19.0630 C   0  0  0  0  0  3  0  0  0  0  0  0
  -23.4750  -29.6340   19.8020 C   0  0  0  0  0  2  0  0  0  0  0  0
  -24.4640  -30.8440   21.7960 N   0  0  0  0  0  0  0  0  0  0  0  0
  -23.2640  -31.7960   23.4720 O   0  0  0  0  0  0  0  0  0  0  0  0
  -22.5960  -29.1420   22.1130 C   0  0  0  0  0  0  0  0  0  0  0  0
  -21.2620  -28.9950   22.0390 N   0  0  0  0  0  0  0  0  0  0  0  0
  -23.3040  -28.4400   22.8390 O   0  0  0  0  0  0  0  0  0  0  0  0
  -20.7480  -29.6190   21.4330 H   0  0  0  0  0  0  0  0  0  0  0  0
  -17.8880  -27.8430   22.6520 C   0  0  0  0  0  0  0  0  0  0  0  0
  -20.4660  -28.0030   22.7650 C   0  0  0  0  0  3  0  0  0  0  0  0
  -20.4780  -26.6370   22.0400 C   0  0  0  0  0  2  0  0  0  0  0  0
  -19.3000  -26.4520   21.0790 C   0  0  0  0  0  2  0  0  0  0  0  0
  -17.9710  -26.5680   21.8300 C   0  0  0  0  0  2  0  0  0  0  0  0
  -19.0590  -28.5250   23.0780 C   0  0  0  0  0  0  0  0  0  0  0  0
  -18.9250  -29.7250   23.8100 C   0  0  0  0  0  3  0  0  0  0  0  0
  -17.6520  -30.2420   24.1180 C   0  0  0  0  0  3  0  0  0  0  0  0
  -16.4970  -29.5560   23.7060 C   0  0  0  0  0  3  0  0  0  0  0  0
  -16.6160  -28.3570   22.9800 C   0  0  0  0  0  3  0  0  0  0  0  0
  -25.6130  -32.2370   23.6030 C   0  0  0  0  0  3  0  0  0  0  0  0
  -26.1060  -31.4570   24.8840 C   0  0  1  0  0  0  0  0  0  0  0  0
  -24.9930  -31.2110   25.9310 C   0  0  0  0  0  1  0  0  0  0  0  0
  -26.6990  -30.0860   24.4900 C   0  0  0  0  0  1  0  0  0  0  0  0
  -27.2480  -32.2450   25.5690 C   0  0  0  0  0  1  0  0  0  0  0  0
  -25.2680  -33.6240   23.9440 N   0  0  0  0  0  0  0  0  0  0  0  0
  -25.5910  -34.6940   23.2040 C   0  0  0  0  0  0  0  0  0  0  0  0
  -26.2800  -34.6180   22.1830 O   0  0  0  0  0  0  0  0  0  0  0  0
  -24.6590  -33.7570   24.7380 H   0  0  0  0  0  0  0  0  0  0  0  0
  -23.8130  -36.4430   22.8680 C   0  0  0  0  0  1  0  0  0  0  0  0
  -25.0680  -36.0660   23.6720 C   0  0  0  0  0  3  0  0  0  0  0  0
  -27.1770  -37.0080   24.5060 C   0  0  0  0  0  1  0  0  0  0  0  0
  -26.0710  -37.1480   23.5610 N   0  0  0  0  0  0  0  0  0  0  0  0
  -25.6410  -38.0560   23.7110 H   0  0  0  0  0  0  0  0  0  0  0  0
  1  2  1  0
  3  4  1  0
  3  6  2  0
  4  1  2  0
  5  2  2  0
  5 20  1  0
  6  5  1  0
  7  3  1  0
  8  7  1  0
  8  9  1  0
  9 10  1  0
 10  4  1  0
 10 50  1  0
 12 18  1  0
 12 20  1  0
 13 18  1  0
 14 15  1  0
 14 13  1  0
 16 15  1  0
 16 25  1  0
 16 17  1  0
 18 17  1  0
 19 12  2  0
 20 21  1  0
 22 23  2  0
 23 42  1  0
 24 23  1  0
 24 27  1  0
 25 26  1  0
 25 22  1  0
 26 24  2  0
 27 28  1  0
 28 29  2  0
 30 33  1  0
 30 29  1  0
 31 30  2  0
 32 31  1  0
 32 27  2  0
 33 34  1  0
 34 35  1  0
 35 36  2  0
 37 36  1  0
 37 41  1  0
 38 37  2  0
 39 34  2  0
 39 38  1  0
 40 39  1  0
 42 43  1  0
 43 46  1  0
 43 45  1  0
 44 42  2  0
 47 22  1  0
 47 48  1  0
 49 47  1  0
 51 50  1  0
 51 52  1  0
 53 55  1  0
 53 52  1  0
 54 65  2  0
 55 60  1  0
 56 64  1  0
 56 66  1  0
 57 63  1  0
 57 59  1  0
 58 64  1  0
 59 58  1  0
 60 59  2  0
 61 62  1  0
 61 55  2  0
 62 57  2  0
 63 56  1  0
 64 54  1  0
 66 68  2  0
 67 66  1  0
 69 67  1  0
 70 79  2  0
 70 75  1  0
 71 67  1  0
 71 75  1  0
 72 71  1  0
 73 74  1  0
 73 72  1  0
 74 70  1  0
 75 76  2  0
 76 77  1  0
 78 77  2  0
 79 78  1  0
 80 54  1  0
 80 85  1  0
 80 81  1  0
 81 84  1  1
 81 82  1  0
 83 81  1  0
 85 88  1  0
 86 90  1  0
 86 85  1  0
 87 86  2  0
 90 89  1  0
 92 90  1  0
 92 93  1  0
 92 91  1  0
M  ISO  4  12 100  20 100  52 101  53 101
M  END
>  <TORSDO>  (20) 
F 19

>  <SCORE>  (20) 
-13.281

>  <name>  (20) 
19

>  <ligand_id>  (20) 
19

>  <original_smiles>  (20) 
[H]c1c([H])c([H])c2c(c1[H])C([H])([H])C([H])([H])C([H])([H])C2([H])N([H])C(=O)C1([H])N(C(=O)C([H])(N([H])C(=O)C([H])(N([H])C([H])([H])[H])C([H])([H])[H])C(C([H])([H])[H])(C([H])([H])[H])C([H])([H])[H])C([H])([H])c2c([H])c(OC([H])([H])C([H])([H])C([H])([H])N3c4c([H])c([H])c(N([H])C(=O)N5C([H])([H])C([H])([H])C([H])([H])C([H])(n6nc(-c7c([H])c([H])c(Oc8c([H])c([H])c(F)c([H])c8F)c([H])c7[H])c(C(=O)N([H])[H])c6N([H])[H])C5([H])[H])c(F)c4C([H])([H])C([H])([H])C3([H])[H])c([H])c([H])c2C1([H])[H]

>  <smiles>  (20) 
[H]c1c([H])c([H])c2c(c1[H])C([H])([H])C([H])([H])C([H])([H])C2([H])N([H])C(=O)C1([H])N(C(=O)C([H])(N([H])C(=O)C([H])(N([H])C([H])([H])[H])C([H])([H])[H])C(C([H])([H])[H])(C([H])([H])[H])C([H])([H])[H])C([H])([H])c2c([H])c(OC([H])([H])C([H])([H])C([H])([H])N3c4c([H])c([H])c(N([H])C(=O)N5C([H])([H])C([H])([H])C([H])([H])C([H])(n6nc(-c7c([H])c([H])c(Oc8c([H])c([H])c(F)c([H])c8F)c([H])c7[H])c(C(=O)N([H])[H])c6N([H])[H])C5([H])[H])c(F)c4C([H])([H])C([H])([H])C3([H])[H])c([H])c([H])c2C1([H])[H]

$$$$
20:0:0
     RDKit          3D

 93102  0  0  1  0  0  0  0  0999 V2000
  -30.3890  -23.6740   17.3550 C   0  0  0  0  0  2  0  0  0  0  0  0
  -31.5300  -23.2740   18.3150 C   0  0  0  0  0  2  0  0  0  0  0  0
  -28.9860  -23.4000   17.9510 C   0  0  0  0  0  2  0  0  0  0  0  0
  -31.2540  -23.7070   19.7710 C   0  0  0  0  0  2  0  0  0  0  0  0
  -28.8540  -23.9050   19.4220 C   0  0  0  0  0  3  0  0  0  0  0  0
  -29.9390  -23.2000   20.2060 N   0  0  0  0  0  0  0  0  0  0  0  0
  -31.3560  -19.6970   20.9180 C   0  0  0  0  0  3  0  0  0  0  0  0
  -29.1610  -19.3860   20.0380 C   0  0  0  0  0  3  0  0  0  0  0  0
  -31.1520  -21.1030   20.9150 C   0  0  0  0  0  3  0  0  0  0  0  0
  -28.9680  -20.8130   20.0140 C   0  0  0  0  0  3  0  0  0  0  0  0
  -30.3890  -18.7790   20.4460 C   0  0  0  0  0  0  0  0  0  0  0  0
  -29.9880  -21.7450   20.3890 C   0  0  0  0  0  0  0  0  0  0  0  0
  -30.8080  -17.2420   20.3460 C   0  0  0  0  0  2  0  0  0  0  0  0
  -30.7070  -14.7150   20.2910 C   0  0  0  0  0  0  0  0  0  0  0  0
  -30.4330  -12.5070   19.1420 C   0  0  0  0  0  2  0  0  0  0  0  0
  -29.4400  -12.6190   17.9670 C   0  0  0  0  0  2  0  0  0  0  0  0
  -27.9830  -12.4450   18.4440 C   0  0  0  0  0  2  0  0  0  0  0  0
  -27.6770  -13.2640   19.7250 C   0  0  0  0  0  3  0  0  0  0  0  0
  -28.7850  -13.0480   20.7800 C   0  0  0  0  0  2  0  0  0  0  0  0
  -30.0340  -13.5120   20.1640 N   0  0  0  0  0  0  0  0  0  0  0  0
  -31.8810  -14.7590   19.9020 O   0  0  0  0  0  0  0  0  0  0  0  0
  -28.7030  -16.1540   21.1050 C   0  0  0  0  0  1  0  0  0  0  0  0
  -30.0660  -15.9340   20.5790 N   0  0  0  0  0  0  0  0  0  0  0  0
  -25.3070  -13.8810   20.5130 C   0  0  0  0  0  0  0  0  0  0  0  0
  -24.2490  -13.1080   20.9050 C   0  0  0  0  0  0  0  0  0  0  0  0
  -24.7030  -11.7570   20.8390 C   0  0  0  0  0  0  0  0  0  0  0  0
  -26.3430  -12.9970   20.2440 N   0  0  0  0  0  0  0  0  0  0  0  0
  -25.9830  -11.7140   20.4950 N   0  0  0  0  0  0  0  0  0  0  0  0
  -23.9750  -10.4980   21.0220 C   0  0  0  0  0  0  0  0  0  0  0  0
  -24.4090   -9.5260   21.9500 C   0  0  0  0  0  3  0  0  0  0  0  0
  -23.6830   -8.3290   22.1230 C   0  0  0  0  0  3  0  0  0  0  0  0
  -22.5090   -8.0980   21.3710 C   0  0  0  0  0  0  0  0  0  0  0  0
  -22.0920   -9.0590   20.4320 C   0  0  0  0  0  3  0  0  0  0  0  0
  -22.8190  -10.2490   20.2550 C   0  0  0  0  0  3  0  0  0  0  0  0
  -21.7510   -6.9550   21.4600 O   0  0  0  0  0  0  0  0  0  0  0  0
  -21.6820   -6.2280   22.6200 C   0  0  0  0  0  0  0  0  0  0  0  0
  -21.1960   -6.7860   23.8220 C   0  0  0  0  0  3  0  0  0  0  0  0
  -21.0750   -5.9820   24.9730 C   0  0  0  0  0  3  0  0  0  0  0  0
  -21.4270   -4.6210   24.9220 C   0  0  0  0  0  0  0  0  0  0  0  0
  -21.9070   -4.0620   23.7250 C   0  0  0  0  0  3  0  0  0  0  0  0
  -22.0300   -4.8630   22.5770 C   0  0  0  0  0  0  0  0  0  0  0  0
  -22.4710   -4.3120   21.4190 F   0  0  0  0  0  0  0  0  0  0  0  0
  -21.3050   -3.8480   26.0270 F   0  0  0  0  0  0  0  0  0  0  0  0
  -22.8630  -13.5910   21.2230 C   0  0  0  0  0  0  0  0  0  0  0  0
  -22.1540  -12.8860   22.0980 N   0  0  0  0  0  0  0  0  0  0  0  0
  -22.4180  -14.6270   20.7310 O   0  0  0  0  0  0  0  0  0  0  0  0
  -22.5270  -12.0470   22.5170 H   0  0  0  0  0  0  0  0  0  0  0  0
  -21.2270  -13.1920   22.3570 H   0  0  0  0  0  0  0  0  0  0  0  0
  -25.4560  -15.2540   20.3460 N   0  0  0  0  0  0  0  0  0  0  0  0
  -24.6850  -15.8890   20.5130 H   0  0  0  0  0  0  0  0  0  0  0  0
  -26.2780  -15.7220   19.9910 H   0  0  0  0  0  0  0  0  0  0  0  0
  -28.8520  -25.5370   19.3000 C   0  0  0  0  0  2  0  0  0  0  0  0
  -28.4590  -26.5270   20.3090 O   0  0  0  0  0  0  0  0  0  0  0  0
  -24.6210  -31.8590   23.2210 C   0  0  0  0  0  0  0  0  0  0  0  0
  -27.3210  -27.3410   20.1800 C   0  0  0  0  0  0  0  0  0  0  0  0
  -23.4440  -30.4540   21.5640 C   0  0  0  0  0  3  0  0  0  0  0  0
  -24.9250  -28.9140   20.1480 C   0  0  0  0  0  0  0  0  0  0  0  0
  -25.9790  -30.7960   21.4070 C   0  0  0  0  0  2  0  0  0  0  0  0
  -26.0770  -29.4170   20.7620 C   0  0  0  0  0  0  0  0  0  0  0  0
  -27.2680  -28.6380   20.7840 C   0  0  0  0  0  3  0  0  0  0  0  0
  -26.1440  -26.8770   19.5490 C   0  0  0  0  0  3  0  0  0  0  0  0
  -24.9600  -27.6460   19.5360 C   0  0  0  0  0  3  0  0  0  0  0  0
  -23.6750  -29.7740   20.1870 C   0  0  0  0  0  2  0  0  0  0  0  0
  -24.6990  -31.0550   22.1210 N   0  0  0  0  0  0  0  0  0  0  0  0
  -23.5320  -32.1310   23.7480 O   0  0  0  0  0  0  0  0  0  0  0  0
  -22.7780  -29.4370   22.5180 C   0  0  0  0  0  0  0  0  0  0  0  0
  -21.4540  -29.2580   22.3840 N   0  0  0  0  0  0  0  0  0  0  0  0
  -23.4540  -28.8080   23.3390 O   0  0  0  0  0  0  0  0  0  0  0  0
  -20.9690  -29.8160   21.6940 H   0  0  0  0  0  0  0  0  0  0  0  0
  -18.0730  -28.0680   22.8710 C   0  0  0  0  0  0  0  0  0  0  0  0
  -20.6320  -28.3160   23.1450 C   0  0  0  0  0  3  0  0  0  0  0  0
  -20.7280  -26.8890   22.5570 C   0  0  0  0  0  2  0  0  0  0  0  0
  -19.6270  -26.5810   21.5370 C   0  0  0  0  0  2  0  0  0  0  0  0
  -18.2460  -26.7240   22.1810 C   0  0  0  0  0  2  0  0  0  0  0  0
  -19.1940  -28.8220   23.3080 C   0  0  0  0  0  0  0  0  0  0  0  0
  -18.9790  -30.0790   23.9130 C   0  0  0  0  0  3  0  0  0  0  0  0
  -17.6770  -30.5850   24.0800 C   0  0  0  0  0  3  0  0  0  0  0  0
  -16.5700  -29.8280   23.6580 C   0  0  0  0  0  3  0  0  0  0  0  0
  -16.7690  -28.5710   23.0600 C   0  0  0  0  0  3  0  0  0  0  0  0
  -25.8950  -32.4980   23.8580 C   0  0  0  0  0  3  0  0  0  0  0  0
  -26.3970  -31.7350   25.1460 C   0  0  1  0  0  0  0  0  0  0  0  0
  -25.2910  -31.4990   26.2010 C   0  0  0  0  0  1  0  0  0  0  0  0
  -26.9910  -30.3570   24.7690 C   0  0  0  0  0  1  0  0  0  0  0  0
  -27.5350  -32.5380   25.8230 C   0  0  0  0  0  1  0  0  0  0  0  0
  -25.5770  -33.8980   24.1800 N   0  0  0  0  0  0  0  0  0  0  0  0
  -25.9110  -34.9490   23.4190 C   0  0  0  0  0  0  0  0  0  0  0  0
  -26.5850  -34.8430   22.3920 O   0  0  0  0  0  0  0  0  0  0  0  0
  -24.9720  -34.0510   24.9730 H   0  0  0  0  0  0  0  0  0  0  0  0
  -24.1770  -36.7340   23.0520 C   0  0  0  0  0  1  0  0  0  0  0  0
  -25.4160  -36.3380   23.8700 C   0  0  0  0  0  3  0  0  0  0  0  0
  -27.5400  -37.2360   24.7130 C   0  0  0  0  0  1  0  0  0  0  0  0
  -26.4450  -37.3940   23.7600 N   0  0  0  0  0  0  0  0  0  0  0  0
  -26.0340  -38.3130   23.8980 H   0  0  0  0  0  0  0  0  0  0  0  0
  1  3  1  0
  1  2  1  0
  2  4  1  0
  3  5  1  0
  4  6  1  0
  5 52  1  0
  5  6  1  0
  6 12  1  0
  8 11  1  0
  9  7  1  0
 10  8  2  0
 10 12  1  0
 11  7  2  0
 12  9  2  0
 13 11  1  0
 13 23  1  0
 14 23  1  0
 15 20  1  0
 16 17  1  0
 16 15  1  0
 18 17  1  0
 18 27  1  0
 18 19  1  0
 20 14  1  0
 20 19  1  0
 21 14  2  0
 23 22  1  0
 24 25  2  0
 25 44  1  0
 26 25  1  0
 26 29  1  0
 27 28  1  0
 27 24  1  0
 28 26  2  0
 29 30  1  0
 30 31  2  0
 32 35  1  0
 32 31  1  0
 33 32  2  0
 34 33  1  0
 34 29  2  0
 35 36  1  0
 36 37  1  0
 37 38  2  0
 39 38  1  0
 39 43  1  0
 40 39  2  0
 41 36  2  0
 41 40  1  0
 42 41  1  0
 44 45  1  0
 45 48  1  0
 45 47  1  0
 46 44  2  0
 49 24  1  0
 49 50  1  0
 51 49  1  0
 52 53  1  0
 54 65  2  0
 55 53  1  0
 55 60  1  0
 56 64  1  0
 56 66  1  0
 57 63  1  0
 57 59  1  0
 58 64  1  0
 59 60  2  0
 59 58  1  0
 61 55  2  0
 62 61  1  0
 62 57  2  0
 63 56  1  0
 64 54  1  0
 66 68  2  0
 67 66  1  0
 69 67  1  0
 70 79  2  0
 70 75  1  0
 71 67  1  0
 71 75  1  0
 72 71  1  0
 73 74  1  0
 73 72  1  0
 74 70  1  0
 75 76  2  0
 76 77  1  0
 78 77  2  0
 79 78  1  0
 80 54  1  0
 80 85  1  0
 80 81  1  0
 81 84  1  1
 81 82  1  0
 83 81  1  0
 85 88  1  0
 86 90  1  0
 86 85  1  0
 87 86  2  0
 90 89  1  0
 92 90  1  0
 92 93  1  0
 92 91  1  0
M  ISO  4  14 100  23 100  52 101  53 101
M  END
>  <TORSDO>  (21) 
F 19

>  <SCORE>  (21) 
-14.222

>  <name>  (21) 
20

>  <ligand_id>  (21) 
20

>  <original_smiles>  (21) 
[H]c1c([H])c([H])c2c(c1[H])C([H])([H])C([H])([H])C([H])([H])C2([H])N([H])C(=O)C1([H])N(C(=O)C([H])(N([H])C(=O)C([H])(N([H])C([H])([H])[H])C([H])([H])[H])C(C([H])([H])[H])(C([H])([H])[H])C([H])([H])[H])C([H])([H])c2c([H])c(OC([H])([H])C3([H])N(c4c([H])c([H])c(C([H])([H])N(C(=O)N5C([H])([H])C([H])([H])C([H])([H])C([H])(n6nc(-c7c([H])c([H])c(Oc8c([H])c([H])c(F)c([H])c8F)c([H])c7[H])c(C(=O)N([H])[H])c6N([H])[H])C5([H])[H])C([H])([H])[H])c([H])c4[H])C([H])([H])C([H])([H])C([H])([H])C3([H])[H])c([H])c([H])c2C1([H])[H]

>  <smiles>  (21) 
[H]c1c([H])c([H])c2c(c1[H])C([H])([H])C([H])([H])C([H])([H])C2([H])N([H])C(=O)C1([H])N(C(=O)C([H])(N([H])C(=O)C([H])(N([H])C([H])([H])[H])C([H])([H])[H])C(C([H])([H])[H])(C([H])([H])[H])C([H])([H])[H])C([H])([H])c2c([H])c(OC([H])([H])C3([H])N(c4c([H])c([H])c(C([H])([H])N(C(=O)N5C([H])([H])C([H])([H])C([H])([H])C([H])(n6nc(-c7c([H])c([H])c(Oc8c([H])c([H])c(F)c([H])c8F)c([H])c7[H])c(C(=O)N([H])[H])c6N([H])[H])C5([H])[H])C([H])([H])[H])c([H])c4[H])C([H])([H])C([H])([H])C([H])([H])C3([H])[H])c([H])c([H])c2C1([H])[H]

$$$$
21:0:0
     RDKit          3D

 92100  0  0  1  0  0  0  0  0999 V2000
  -31.4300  -17.6340   18.7750 C   0  0  0  0  0  3  0  0  0  0  0  0
  -31.7010  -18.9270   18.2960 C   0  0  0  0  0  3  0  0  0  0  0  0
  -30.5090  -17.4140   19.8220 C   0  0  0  0  0  0  0  0  0  0  0  0
  -30.1140  -19.9700   19.8740 C   0  0  0  0  0  0  0  0  0  0  0  0
  -31.0830  -20.0710   18.8350 C   0  0  0  0  0  0  0  0  0  0  0  0
  -29.8300  -18.5970   20.3340 C   0  0  0  0  0  0  0  0  0  0  0  0
  -31.6250  -21.5950   18.2160 Cl  0  0  0  0  0  0  0  0  0  0  0  0
  -28.6070  -18.2990   21.5240 Cl  0  0  0  0  0  0  0  0  0  0  0  0
  -30.9840  -14.8650   20.1090 C   0  0  0  0  0  0  0  0  0  0  0  0
  -30.7530  -12.5590   19.2040 C   0  0  0  0  0  2  0  0  0  0  0  0
  -29.8260  -12.6020   17.9700 C   0  0  0  0  0  2  0  0  0  0  0  0
  -28.3540  -12.4540   18.4000 C   0  0  0  0  0  2  0  0  0  0  0  0
  -27.9780  -13.3920   19.5780 C   0  0  0  0  0  3  0  0  0  0  0  0
  -29.0290  -13.3480   20.7090 C   0  0  0  0  0  2  0  0  0  0  0  0
  -30.3360  -13.6520   20.1120 N   0  0  0  0  0  0  0  0  0  0  0  0
  -32.1760  -14.9130   19.7970 O   0  0  0  0  0  0  0  0  0  0  0  0
  -30.2390  -16.0220   20.2790 N   0  0  0  0  0  0  0  0  0  0  0  0
  -29.3280  -15.8820   20.6910 H   0  0  0  0  0  0  0  0  0  0  0  0
  -25.5960  -14.0150   20.3010 C   0  0  0  0  0  0  0  0  0  0  0  0
  -24.5230  -13.2560   20.6780 C   0  0  0  0  0  0  0  0  0  0  0  0
  -24.9730  -11.8990   20.6620 C   0  0  0  0  0  0  0  0  0  0  0  0
  -26.6320  -13.1230   20.0730 N   0  0  0  0  0  0  0  0  0  0  0  0
  -26.2630  -11.8470   20.3550 N   0  0  0  0  0  0  0  0  0  0  0  0
  -24.2340  -10.6450   20.8640 C   0  0  0  0  0  0  0  0  0  0  0  0
  -24.6430   -9.6930   21.8230 C   0  0  0  0  0  3  0  0  0  0  0  0
  -23.9030   -8.5040   22.0120 C   0  0  0  0  0  3  0  0  0  0  0  0
  -22.7410   -8.2620   21.2420 C   0  0  0  0  0  0  0  0  0  0  0  0
  -22.3530   -9.2020   20.2720 C   0  0  0  0  0  3  0  0  0  0  0  0
  -23.0920  -10.3820   20.0820 C   0  0  0  0  0  3  0  0  0  0  0  0
  -21.9760   -7.1250   21.3380 O   0  0  0  0  0  0  0  0  0  0  0  0
  -21.9050   -6.4020   22.5020 C   0  0  0  0  0  0  0  0  0  0  0  0
  -21.4400   -6.9720   23.7060 C   0  0  0  0  0  3  0  0  0  0  0  0
  -21.3170   -6.1740   24.8620 C   0  0  0  0  0  3  0  0  0  0  0  0
  -21.6510   -4.8070   24.8130 C   0  0  0  0  0  0  0  0  0  0  0  0
  -22.1090   -4.2370   23.6130 C   0  0  0  0  0  3  0  0  0  0  0  0
  -22.2330   -5.0320   22.4600 C   0  0  0  0  0  0  0  0  0  0  0  0
  -22.6550   -4.4710   21.3010 F   0  0  0  0  0  0  0  0  0  0  0  0
  -21.5270   -4.0400   25.9210 F   0  0  0  0  0  0  0  0  0  0  0  0
  -23.1300  -13.7480   20.9430 C   0  0  0  0  0  0  0  0  0  0  0  0
  -22.3950  -13.0680   21.8160 N   0  0  0  0  0  0  0  0  0  0  0  0
  -22.7020  -14.7730   20.4120 O   0  0  0  0  0  0  0  0  0  0  0  0
  -22.7520  -12.2380   22.2640 H   0  0  0  0  0  0  0  0  0  0  0  0
  -21.4600  -13.3820   22.0390 H   0  0  0  0  0  0  0  0  0  0  0  0
  -25.7750  -15.3820   20.1090 N   0  0  0  0  0  0  0  0  0  0  0  0
  -25.0200  -16.0480   20.2280 H   0  0  0  0  0  0  0  0  0  0  0  0
  -26.6290  -15.8110   19.7780 H   0  0  0  0  0  0  0  0  0  0  0  0
  -29.4890  -21.2680   21.8930 C   0  0  0  0  0  1  0  0  0  0  0  0
  -29.5790  -21.2110   20.4370 N   0  0  0  0  0  0  0  0  0  0  0  0
  -28.8920  -22.3340   19.6760 C   0  0  0  0  0  2  0  0  0  0  0  0
  -29.2860  -23.8800   19.9610 C   0  0  0  0  0  3  0  0  0  0  0  0
  -28.2650  -25.0230   19.4670 C   0  0  0  0  0  3  0  0  0  0  0  0
  -28.4790  -26.4910   19.6950 O   0  0  0  0  0  0  0  0  0  0  0  0
  -24.5510  -31.5890   23.0280 C   0  0  0  0  0  0  0  0  0  0  0  0
  -27.3530  -27.3460   19.6680 C   0  0  0  0  0  0  0  0  0  0  0  0
  -23.4140  -30.2700   21.2790 C   0  0  0  0  0  3  0  0  0  0  0  0
  -24.9340  -28.8940   19.7500 C   0  0  0  0  0  0  0  0  0  0  0  0
  -25.9450  -30.6920   21.1460 C   0  0  0  0  0  2  0  0  0  0  0  0
  -26.0810  -29.3690   20.3960 C   0  0  0  0  0  0  0  0  0  0  0  0
  -27.2920  -28.6070   20.3490 C   0  0  0  0  0  3  0  0  0  0  0  0
  -26.1810  -26.9490   18.9800 C   0  0  0  0  0  3  0  0  0  0  0  0
  -24.9890  -27.6930   19.0290 C   0  0  0  0  0  3  0  0  0  0  0  0
  -23.6630  -29.7120   19.8540 C   0  0  0  0  0  2  0  0  0  0  0  0
  -24.6550  -30.8640   21.8760 N   0  0  0  0  0  0  0  0  0  0  0  0
  -23.4540  -31.7830   23.5710 O   0  0  0  0  0  0  0  0  0  0  0  0
  -22.7870  -29.1580   22.1550 C   0  0  0  0  0  0  0  0  0  0  0  0
  -21.4610  -28.9700   22.0390 N   0  0  0  0  0  0  0  0  0  0  0  0
  -23.4910  -28.4710   22.9010 O   0  0  0  0  0  0  0  0  0  0  0  0
  -20.9500  -29.5790   21.4150 H   0  0  0  0  0  0  0  0  0  0  0  0
  -18.1080  -27.7000   22.5220 C   0  0  0  0  0  0  0  0  0  0  0  0
  -20.6730  -27.9530   22.7370 C   0  0  0  0  0  3  0  0  0  0  0  0
  -20.7650  -26.5870   22.0190 C   0  0  0  0  0  2  0  0  0  0  0  0
  -19.6330  -26.3570   21.0120 C   0  0  0  0  0  2  0  0  0  0  0  0
  -18.2710  -26.4260   21.7090 C   0  0  0  0  0  2  0  0  0  0  0  0
  -19.2360  -28.4250   22.9910 C   0  0  0  0  0  0  0  0  0  0  0  0
  -19.0290  -29.6210   23.7120 C   0  0  0  0  0  3  0  0  0  0  0  0
  -17.7280  -30.0920   23.9690 C   0  0  0  0  0  3  0  0  0  0  0  0
  -16.6140  -29.3610   23.5160 C   0  0  0  0  0  3  0  0  0  0  0  0
  -16.8060  -28.1670   22.8000 C   0  0  0  0  0  3  0  0  0  0  0  0
  -25.8030  -32.2260   23.7060 C   0  0  0  0  0  3  0  0  0  0  0  0
  -26.3250  -31.3990   24.9440 C   0  0  1  0  0  0  0  0  0  0  0  0
  -25.2280  -31.0770   25.9850 C   0  0  0  0  0  1  0  0  0  0  0  0
  -26.9470  -30.0600   24.4860 C   0  0  0  0  0  1  0  0  0  0  0  0
  -27.4490  -32.1850   25.6620 C   0  0  0  0  0  1  0  0  0  0  0  0
  -25.4410  -33.5910   24.1140 N   0  0  0  0  0  0  0  0  0  0  0  0
  -25.7820  -34.7020   23.4470 C   0  0  0  0  0  0  0  0  0  0  0  0
  -26.5060  -34.6850   22.4470 O   0  0  0  0  0  0  0  0  0  0  0  0
  -24.8050  -33.6770   24.8930 H   0  0  0  0  0  0  0  0  0  0  0  0
  -24.0550  -36.4970   23.1050 C   0  0  0  0  0  1  0  0  0  0  0  0
  -25.2380  -36.0440   23.9730 C   0  0  0  0  0  3  0  0  0  0  0  0
  -27.2820  -36.8920   25.0390 C   0  0  0  0  0  1  0  0  0  0  0  0
  -26.2580  -37.1150   24.0210 N   0  0  0  0  0  0  0  0  0  0  0  0
  -25.8260  -38.0180   24.2010 H   0  0  0  0  0  0  0  0  0  0  0  0
  1  3  1  0
  2  1  2  0
  2  5  1  0
  3 17  1  0
  3  6  2  0
  4  6  1  0
  4 48  1  0
  5  4  2  0
  6  8  1  0
  7  5  1  0
  9 15  1  0
  9 17  1  0
 10 15  1  0
 11 12  1  0
 11 10  1  0
 13 12  1  0
 13 22  1  0
 13 14  1  0
 15 14  1  0
 16  9  2  0
 17 18  1  0
 19 20  2  0
 20 39  1  0
 21 20  1  0
 21 24  1  0
 22 19  1  0
 22 23  1  0
 23 21  2  0
 24 25  1  0
 25 26  2  0
 27 30  1  0
 27 26  1  0
 28 27  2  0
 29 28  1  0
 29 24  2  0
 30 31  1  0
 31 32  1  0
 32 33  2  0
 34 33  1  0
 34 38  1  0
 35 34  2  0
 36 31  2  0
 36 35  1  0
 37 36  1  0
 39 40  1  0
 40 43  1  0
 40 42  1  0
 41 39  2  0
 44 45  1  0
 44 19  1  0
 46 44  1  0
 48 47  1  0
 49 50  1  0
 49 48  1  0
 51 52  1  0
 51 50  2  0
 53 64  2  0
 54 52  1  0
 54 59  1  0
 55 63  1  0
 55 65  1  0
 56 62  1  0
 56 58  1  0
 57 63  1  0
 58 57  1  0
 59 58  2  0
 60 61  1  0
 60 54  2  0
 61 56  2  0
 62 55  1  0
 63 53  1  0
 65 67  2  0
 66 65  1  0
 68 66  1  0
 69 78  2  0
 69 74  1  0
 70 66  1  0
 70 74  1  0
 71 70  1  0
 72 73  1  0
 72 71  1  0
 73 69  1  0
 74 75  2  0
 75 76  1  0
 77 76  2  0
 78 77  1  0
 79 53  1  0
 79 84  1  0
 79 80  1  0
 80 83  1  1
 80 81  1  0
 82 80  1  0
 84 87  1  0
 85 89  1  0
 85 84  1  0
 86 85  2  0
 89 88  1  0
 89 91  1  0
 91 92  1  0
 91 90  1  0
M  ISO  4   9 100  17 100  51 101  52 101
M  END
>  <TORSDO>  (22) 
F 20

>  <SCORE>  (22) 
-12.110

>  <name>  (22) 
21

>  <ligand_id>  (22) 
21

>  <original_smiles>  (22) 
[H]c1c([H])c([H])c2c(c1[H])C([H])([H])C([H])([H])C([H])([H])C2([H])N([H])C(=O)C1([H])N(C(=O)C([H])(N([H])C(=O)C([H])(N([H])C([H])([H])[H])C([H])([H])[H])C(C([H])([H])[H])(C([H])([H])[H])C([H])([H])[H])C([H])([H])c2c([H])c(OC([H])([H])C([H])([H])C([H])([H])N(c3c(Cl)c([H])c([H])c(N([H])C(=O)N4C([H])([H])C([H])([H])C([H])([H])C([H])(n5nc(-c6c([H])c([H])c(Oc7c([H])c([H])c(F)c([H])c7F)c([H])c6[H])c(C(=O)N([H])[H])c5N([H])[H])C4([H])[H])c3Cl)C([H])([H])[H])c([H])c([H])c2C1([H])[H]

>  <smiles>  (22) 
[H]c1c([H])c([H])c2c(c1[H])C([H])([H])C([H])([H])C([H])([H])C2([H])N([H])C(=O)C1([H])N(C(=O)C([H])(N([H])C(=O)C([H])(N([H])C([H])([H])[H])C([H])([H])[H])C(C([H])([H])[H])(C([H])([H])[H])C([H])([H])[H])C([H])([H])c2c([H])c(OC([H])([H])C([H])([H])C([H])([H])N(c3c(Cl)c([H])c([H])c(N([H])C(=O)N4C([H])([H])C([H])([H])C([H])([H])C([H])(n5nc(-c6c([H])c([H])c(Oc7c([H])c([H])c(F)c([H])c7F)c([H])c6[H])c(C(=O)N([H])[H])c5N([H])[H])C4([H])[H])c3Cl)C([H])([H])[H])c([H])c([H])c2C1([H])[H]

$$$$
22:0:0
     RDKit          3D

 92101  0  0  1  0  0  0  0  0999 V2000
  -29.5550  -23.1830   22.4950 C   0  0  0  0  0  2  0  0  0  0  0  0
  -30.2200  -23.7540   21.2400 C   0  0  0  0  0  2  0  0  0  0  0  0
  -28.4640  -22.2300   21.9780 C   0  0  0  0  0  2  0  0  0  0  0  0
  -29.2250  -23.4350   20.1290 C   0  0  0  0  0  3  0  0  0  0  0  0
  -28.7320  -22.0240   20.5520 N   0  0  0  0  0  0  0  0  0  0  0  0
  -30.4760  -20.0270   20.2220 C   0  0  0  0  0  3  0  0  0  0  0  0
  -30.7530  -18.5850   20.1940 C   0  0  0  0  0  3  0  0  0  0  0  0
  -28.1790  -19.5660   20.4500 C   0  0  0  0  0  3  0  0  0  0  0  0
  -29.1620  -20.6060   20.3660 C   0  0  0  0  0  0  0  0  0  0  0  0
  -29.7400  -17.5640   20.3050 C   0  0  0  0  0  0  0  0  0  0  0  0
  -28.4440  -18.1500   20.4230 C   0  0  0  0  0  0  0  0  0  0  0  0
  -27.3900  -17.3050   20.5290 F   0  0  0  0  0  0  0  0  0  0  0  0
  -30.6450  -14.9560   19.9720 C   0  0  0  0  0  0  0  0  0  0  0  0
  -30.4770  -12.6480   18.9400 C   0  0  0  0  0  2  0  0  0  0  0  0
  -29.4540  -12.6820   17.7780 C   0  0  0  0  0  2  0  0  0  0  0  0
  -28.0180  -12.4690   18.2990 C   0  0  0  0  0  2  0  0  0  0  0  0
  -27.7060  -13.3370   19.5460 C   0  0  0  0  0  3  0  0  0  0  0  0
  -28.8390  -13.2570   20.5930 C   0  0  0  0  0  2  0  0  0  0  0  0
  -30.0790  -13.6850   19.9290 N   0  0  0  0  0  0  0  0  0  0  0  0
  -31.8060  -15.0950   19.5660 O   0  0  0  0  0  0  0  0  0  0  0  0
  -29.8060  -16.0350   20.3170 N   0  0  0  0  0  0  0  0  0  0  0  0
  -28.9230  -15.6650   20.6320 H   0  0  0  0  0  0  0  0  0  0  0  0
  -25.3760  -13.8980   20.4580 C   0  0  0  0  0  0  0  0  0  0  0  0
  -24.3350  -13.1120   20.8700 C   0  0  0  0  0  0  0  0  0  0  0  0
  -24.7910  -11.7630   20.7630 C   0  0  0  0  0  0  0  0  0  0  0  0
  -26.4000  -13.0280   20.1210 N   0  0  0  0  0  0  0  0  0  0  0  0
  -26.0600  -11.7350   20.3670 N   0  0  0  0  0  0  0  0  0  0  0  0
  -24.0730  -10.4970   20.9610 C   0  0  0  0  0  0  0  0  0  0  0  0
  -24.5080   -9.5400   21.9040 C   0  0  0  0  0  3  0  0  0  0  0  0
  -23.7880   -8.3390   22.0880 C   0  0  0  0  0  3  0  0  0  0  0  0
  -22.6200   -8.0880   21.3300 C   0  0  0  0  0  0  0  0  0  0  0  0
  -22.2040   -9.0360   20.3770 C   0  0  0  0  0  3  0  0  0  0  0  0
  -22.9250  -10.2270   20.1900 C   0  0  0  0  0  3  0  0  0  0  0  0
  -21.8720   -6.9390   21.4250 O   0  0  0  0  0  0  0  0  0  0  0  0
  -21.7580   -6.2480   22.6040 C   0  0  0  0  0  0  0  0  0  0  0  0
  -21.2390   -6.8500   23.7720 C   0  0  0  0  0  3  0  0  0  0  0  0
  -21.0740   -6.0850   24.9440 C   0  0  0  0  0  3  0  0  0  0  0  0
  -21.4170   -4.7200   24.9480 C   0  0  0  0  0  0  0  0  0  0  0  0
  -21.9280   -4.1170   23.7840 C   0  0  0  0  0  3  0  0  0  0  0  0
  -22.0950   -4.8800   22.6140 C   0  0  0  0  0  0  0  0  0  0  0  0
  -22.5680   -4.2900   21.4900 F   0  0  0  0  0  0  0  0  0  0  0  0
  -21.2500   -3.9820   26.0710 F   0  0  0  0  0  0  0  0  0  0  0  0
  -22.9620  -13.5840   21.2510 C   0  0  0  0  0  0  0  0  0  0  0  0
  -22.2970  -12.8730   22.1540 N   0  0  0  0  0  0  0  0  0  0  0  0
  -22.4900  -14.6190   20.7820 O   0  0  0  0  0  0  0  0  0  0  0  0
  -22.6910  -12.0370   22.5570 H   0  0  0  0  0  0  0  0  0  0  0  0
  -21.3780  -13.1710   22.4490 H   0  0  0  0  0  0  0  0  0  0  0  0
  -25.5250  -15.2740   20.3220 N   0  0  0  0  0  0  0  0  0  0  0  0
  -24.7760  -15.9130   20.5610 H   0  0  0  0  0  0  0  0  0  0  0  0
  -26.3810  -15.7580   20.0820 H   0  0  0  0  0  0  0  0  0  0  0  0
  -28.1260  -24.7110   20.0240 C   0  0  0  0  0  2  0  0  0  0  0  0
  -28.3920  -26.2390   20.0610 O   0  0  0  0  0  0  0  0  0  0  0  0
  -24.6310  -31.7370   23.2070 C   0  0  0  0  0  0  0  0  0  0  0  0
  -27.3080  -27.1870   20.0380 C   0  0  0  0  0  0  0  0  0  0  0  0
  -23.4670  -30.3910   21.5020 C   0  0  0  0  0  3  0  0  0  0  0  0
  -24.9510  -28.8880   20.0430 C   0  0  0  0  0  0  0  0  0  0  0  0
  -26.0190  -30.6960   21.3790 C   0  0  0  0  0  2  0  0  0  0  0  0
  -26.1180  -29.3320   20.6780 C   0  0  0  0  0  0  0  0  0  0  0  0
  -27.2970  -28.4990   20.6570 C   0  0  0  0  0  3  0  0  0  0  0  0
  -26.1100  -26.8410   19.3720 C   0  0  0  0  0  3  0  0  0  0  0  0
  -24.9600  -27.6570   19.3750 C   0  0  0  0  0  3  0  0  0  0  0  0
  -23.7120  -29.7670   20.1030 C   0  0  0  0  0  2  0  0  0  0  0  0
  -24.7260  -30.9600   22.0850 N   0  0  0  0  0  0  0  0  0  0  0  0
  -23.5360  -31.9900   23.7310 O   0  0  0  0  0  0  0  0  0  0  0  0
  -22.7880  -29.3410   22.4170 C   0  0  0  0  0  0  0  0  0  0  0  0
  -21.4600  -29.1770   22.2800 N   0  0  0  0  0  0  0  0  0  0  0  0
  -23.4570  -28.6770   23.2130 O   0  0  0  0  0  0  0  0  0  0  0  0
  -20.9780  -29.7630   21.6120 H   0  0  0  0  0  0  0  0  0  0  0  0
  -18.0630  -28.0220   22.7840 C   0  0  0  0  0  0  0  0  0  0  0  0
  -20.6340  -28.2090   23.0070 C   0  0  0  0  0  3  0  0  0  0  0  0
  -20.6900  -26.8170   22.3360 C   0  0  0  0  0  2  0  0  0  0  0  0
  -19.5560  -26.5870   21.3300 C   0  0  0  0  0  2  0  0  0  0  0  0
  -18.1930  -26.7180   22.0150 C   0  0  0  0  0  2  0  0  0  0  0  0
  -19.2090  -28.7300   23.2360 C   0  0  0  0  0  0  0  0  0  0  0  0
  -19.0310  -29.9530   23.9180 C   0  0  0  0  0  3  0  0  0  0  0  0
  -17.7430  -30.4680   24.1510 C   0  0  0  0  0  3  0  0  0  0  0  0
  -16.6120  -29.7560   23.7130 C   0  0  0  0  0  3  0  0  0  0  0  0
  -16.7740  -28.5340   23.0360 C   0  0  0  0  0  3  0  0  0  0  0  0
  -25.8940  -32.3600   23.8760 C   0  0  0  0  0  3  0  0  0  0  0  0
  -25.5750  -33.7530   24.2240 N   0  0  0  0  0  0  0  0  0  0  0  0
  -25.8890  -34.8180   23.4750 C   0  0  0  0  0  0  0  0  0  0  0  0
  -26.5440  -34.7310   22.4320 O   0  0  0  0  0  0  0  0  0  0  0  0
  -24.9880  -33.8930   25.0320 H   0  0  0  0  0  0  0  0  0  0  0  0
  -24.1230  -36.5900   23.1930 C   0  0  0  0  0  1  0  0  0  0  0  0
  -25.4000  -36.1990   23.9550 C   0  0  0  0  0  3  0  0  0  0  0  0
  -27.5460  -37.1200   24.7170 C   0  0  0  0  0  1  0  0  0  0  0  0
  -26.4140  -37.2670   23.8070 N   0  0  0  0  0  0  0  0  0  0  0  0
  -25.9970  -38.1820   23.9620 H   0  0  0  0  0  0  0  0  0  0  0  0
  -26.3720  -31.5680   25.1560 C   0  0  1  0  0  0  0  0  0  0  0  0
  -25.2470  -31.3170   26.1870 C   0  0  0  0  0  1  0  0  0  0  0  0
  -26.9650  -30.1950   24.7640 C   0  0  0  0  0  1  0  0  0  0  0  0
  -27.5030  -32.3510   25.8630 C   0  0  0  0  0  1  0  0  0  0  0  0
  2  1  1  0
  3  1  1  0
  4 51  1  0
  4  5  1  0
  4  2  1  0
  5  3  1  0
  6  9  1  0
  7  6  2  0
  7 10  1  0
  9  8  2  0
  9  5  1  0
 10 21  1  0
 10 11  2  0
 11  8  1  0
 11 12  1  0
 13 21  1  0
 14 19  1  0
 15 16  1  0
 15 14  1  0
 17 16  1  0
 17 26  1  0
 17 18  1  0
 19 13  1  0
 19 18  1  0
 20 13  2  0
 21 22  1  0
 23 24  2  0
 24 43  1  0
 25 24  1  0
 25 28  1  0
 26 27  1  0
 26 23  1  0
 27 25  2  0
 28 29  1  0
 29 30  2  0
 31 34  1  0
 31 30  1  0
 32 31  2  0
 33 32  1  0
 33 28  2  0
 34 35  1  0
 35 40  2  0
 35 36  1  0
 36 37  2  0
 37 38  1  0
 38 42  1  0
 39 38  2  0
 40 39  1  0
 41 40  1  0
 43 44  1  0
 44 47  1  0
 44 46  1  0
 45 43  2  0
 48 23  1  0
 48 49  1  0
 50 48  1  0
 51 52  1  0
 53 64  2  0
 54 52  1  0
 54 59  1  0
 55 63  1  0
 55 65  1  0
 56 62  1  0
 56 58  1  0
 57 63  1  0
 58 57  1  0
 59 58  2  0
 60 61  1  0
 60 54  2  0
 61 56  2  0
 62 55  1  0
 63 53  1  0
 65 67  2  0
 66 65  1  0
 68 66  1  0
 69 78  2  0
 69 74  1  0
 70 66  1  0
 70 74  1  0
 71 70  1  0
 72 73  1  0
 72 71  1  0
 73 69  1  0
 74 75  2  0
 75 76  1  0
 77 76  2  0
 78 77  1  0
 79 53  1  0
 79 80  1  0
 79 89  1  0
 80 83  1  0
 81 85  1  0
 81 80  1  0
 82 81  2  0
 85 84  1  0
 87 85  1  0
 87 88  1  0
 87 86  1  0
 89 92  1  1
 89 90  1  0
 91 89  1  0
M  ISO  4  13 100  21 100  51 101  52 101
M  END
>  <TORSDO>  (23) 
F 18

>  <SCORE>  (23) 
-14.730

>  <name>  (23) 
22

>  <ligand_id>  (23) 
22

>  <original_smiles>  (23) 
[H]c1c([H])c([H])c2c(c1[H])C([H])([H])C([H])([H])C([H])([H])C2([H])N([H])C(=O)C1([H])N(C(=O)C([H])(N([H])C(=O)C([H])(N([H])C([H])([H])[H])C([H])([H])[H])C(C([H])([H])[H])(C([H])([H])[H])C([H])([H])[H])C([H])([H])c2c([H])c(OC([H])([H])C3([H])N(c4c([H])c([H])c(N([H])C(=O)N5C([H])([H])C([H])([H])C([H])([H])C([H])(n6nc(-c7c([H])c([H])c(Oc8c([H])c([H])c(F)c([H])c8F)c([H])c7[H])c(C(=O)N([H])[H])c6N([H])[H])C5([H])[H])c(F)c4[H])C([H])([H])C([H])([H])C3([H])[H])c([H])c([H])c2C1([H])[H]

>  <smiles>  (23) 
[H]c1c([H])c([H])c2c(c1[H])C([H])([H])C([H])([H])C([H])([H])C2([H])N([H])C(=O)C1([H])N(C(=O)C([H])(N([H])C(=O)C([H])(N([H])C([H])([H])[H])C([H])([H])[H])C(C([H])([H])[H])(C([H])([H])[H])C([H])([H])[H])C([H])([H])c2c([H])c(OC([H])([H])C3([H])N(c4c([H])c([H])c(N([H])C(=O)N5C([H])([H])C([H])([H])C([H])([H])C([H])(n6nc(-c7c([H])c([H])c(Oc8c([H])c([H])c(F)c([H])c8F)c([H])c7[H])c(C(=O)N([H])[H])c6N([H])[H])C5([H])[H])c(F)c4[H])C([H])([H])C([H])([H])C3([H])[H])c([H])c([H])c2C1([H])[H]

$$$$
23:0:0
     RDKit          3D

 93102  0  0  1  0  0  0  0  0999 V2000
  -30.2150  -23.8290   18.5290 C   0  0  0  0  0  2  0  0  0  0  0  0
  -28.6880  -23.9220   18.6180 C   0  0  0  0  0  2  0  0  0  0  0  0
  -30.6660  -23.3840   19.9260 C   0  0  0  0  0  2  0  0  0  0  0  0
  -28.3860  -23.7140   20.1020 C   0  0  0  0  0  3  0  0  0  0  0  0
  -29.4830  -22.8000   20.5570 N   0  0  0  0  0  0  0  0  0  0  0  0
  -28.7440  -19.1320   19.6450 C   0  0  0  0  0  3  0  0  0  0  0  0
  -28.5560  -20.5390   19.8270 C   0  0  0  0  0  3  0  0  0  0  0  0
  -30.8270  -19.2440   20.8300 C   0  0  0  0  0  3  0  0  0  0  0  0
  -29.9120  -18.4560   20.0960 C   0  0  0  0  0  0  0  0  0  0  0  0
  -29.5200  -21.3530   20.4860 C   0  0  0  0  0  0  0  0  0  0  0  0
  -30.6300  -20.6370   21.0390 C   0  0  0  0  0  0  0  0  0  0  0  0
  -31.5710  -21.3100   21.7480 F   0  0  0  0  0  0  0  0  0  0  0  0
  -30.2800  -17.0010   19.6120 C   0  0  0  0  0  2  0  0  0  0  0  0
  -30.8480  -14.5880   20.1100 C   0  0  0  0  0  0  0  0  0  0  0  0
  -30.4720  -12.4020   18.9750 C   0  0  0  0  0  2  0  0  0  0  0  0
  -29.4810  -12.5920   17.8050 C   0  0  0  0  0  2  0  0  0  0  0  0
  -28.0280  -12.4490   18.2990 C   0  0  0  0  0  2  0  0  0  0  0  0
  -27.7530  -13.2810   19.5790 C   0  0  0  0  0  3  0  0  0  0  0  0
  -28.8580  -13.0660   20.6360 C   0  0  0  0  0  2  0  0  0  0  0  0
  -30.1430  -13.4120   20.0080 N   0  0  0  0  0  0  0  0  0  0  0  0
  -31.9730  -14.6730   19.6070 O   0  0  0  0  0  0  0  0  0  0  0  0
  -29.7200  -15.9500   21.8360 C   0  0  0  0  0  1  0  0  0  0  0  0
  -30.1740  -15.7490   20.4570 N   0  0  0  0  0  0  0  0  0  0  0  0
  -25.4070  -13.9080   20.4100 C   0  0  0  0  0  0  0  0  0  0  0  0
  -24.3440  -13.1450   20.8170 C   0  0  0  0  0  0  0  0  0  0  0  0
  -24.7830  -11.7860   20.7490 C   0  0  0  0  0  0  0  0  0  0  0  0
  -26.4240  -13.0140   20.1210 N   0  0  0  0  0  0  0  0  0  0  0  0
  -26.0600  -11.7330   20.3830 N   0  0  0  0  0  0  0  0  0  0  0  0
  -24.0480  -10.5330   20.9520 C   0  0  0  0  0  0  0  0  0  0  0  0
  -24.4860   -9.5610   21.8800 C   0  0  0  0  0  3  0  0  0  0  0  0
  -23.7500   -8.3720   22.0730 C   0  0  0  0  0  3  0  0  0  0  0  0
  -22.5640   -8.1460   21.3370 C   0  0  0  0  0  0  0  0  0  0  0  0
  -22.1450   -9.1030   20.3970 C   0  0  0  0  0  3  0  0  0  0  0  0
  -22.8800  -10.2850   20.2020 C   0  0  0  0  0  3  0  0  0  0  0  0
  -21.8000   -7.0080   21.4380 O   0  0  0  0  0  0  0  0  0  0  0  0
  -21.7320   -6.2860   22.6040 C   0  0  0  0  0  0  0  0  0  0  0  0
  -21.3020   -6.8690   23.8150 C   0  0  0  0  0  3  0  0  0  0  0  0
  -21.1820   -6.0760   24.9740 C   0  0  0  0  0  3  0  0  0  0  0  0
  -21.4810   -4.7000   24.9220 C   0  0  0  0  0  0  0  0  0  0  0  0
  -21.9030   -4.1180   23.7140 C   0  0  0  0  0  3  0  0  0  0  0  0
  -22.0240   -4.9090   22.5570 C   0  0  0  0  0  0  0  0  0  0  0  0
  -22.4120   -4.3380   21.3920 F   0  0  0  0  0  0  0  0  0  0  0  0
  -21.3570   -3.9360   26.0310 F   0  0  0  0  0  0  0  0  0  0  0  0
  -22.9670  -13.6390   21.1540 C   0  0  0  0  0  0  0  0  0  0  0  0
  -22.2700  -12.9410   22.0450 N   0  0  0  0  0  0  0  0  0  0  0  0
  -22.5200  -14.6740   20.6630 O   0  0  0  0  0  0  0  0  0  0  0  0
  -22.6490  -12.1030   22.4600 H   0  0  0  0  0  0  0  0  0  0  0  0
  -21.3460  -13.2480   22.3110 H   0  0  0  0  0  0  0  0  0  0  0  0
  -25.5840  -15.2780   20.2450 N   0  0  0  0  0  0  0  0  0  0  0  0
  -24.8370  -15.9450   20.3960 H   0  0  0  0  0  0  0  0  0  0  0  0
  -26.4350  -15.7060   19.9010 H   0  0  0  0  0  0  0  0  0  0  0  0
  -28.2890  -25.1120   20.8960 C   0  0  0  0  0  2  0  0  0  0  0  0
  -28.4020  -26.4290   20.2300 O   0  0  0  0  0  0  0  0  0  0  0  0
  -24.6040  -31.7940   23.2040 C   0  0  0  0  0  0  0  0  0  0  0  0
  -27.2770  -27.2530   20.2090 C   0  0  0  0  0  0  0  0  0  0  0  0
  -23.4290  -30.3860   21.5510 C   0  0  0  0  0  3  0  0  0  0  0  0
  -24.9060  -28.8390   20.1470 C   0  0  0  0  0  0  0  0  0  0  0  0
  -25.9640  -30.7250   21.3950 C   0  0  0  0  0  2  0  0  0  0  0  0
  -26.0640  -29.3450   20.7520 C   0  0  0  0  0  0  0  0  0  0  0  0
  -27.2560  -28.5650   20.7690 C   0  0  0  0  0  3  0  0  0  0  0  0
  -26.0980  -26.7820   19.5960 C   0  0  0  0  0  3  0  0  0  0  0  0
  -24.9250  -27.5620   19.5600 C   0  0  0  0  0  3  0  0  0  0  0  0
  -23.6650  -29.7090   20.1740 C   0  0  0  0  0  2  0  0  0  0  0  0
  -24.6840  -30.9850   22.1090 N   0  0  0  0  0  0  0  0  0  0  0  0
  -23.5140  -32.0690   23.7240 O   0  0  0  0  0  0  0  0  0  0  0  0
  -22.7620  -29.3670   22.5040 C   0  0  0  0  0  0  0  0  0  0  0  0
  -21.4390  -29.1770   22.3550 N   0  0  0  0  0  0  0  0  0  0  0  0
  -23.4330  -28.7500   23.3360 O   0  0  0  0  0  0  0  0  0  0  0  0
  -20.9550  -29.7280   21.6610 H   0  0  0  0  0  0  0  0  0  0  0  0
  -18.0650  -27.9480   22.7880 C   0  0  0  0  0  0  0  0  0  0  0  0
  -20.6140  -28.2380   23.1170 C   0  0  0  0  0  3  0  0  0  0  0  0
  -20.7470  -26.8030   22.5580 C   0  0  0  0  0  2  0  0  0  0  0  0
  -19.6740  -26.4580   21.5210 C   0  0  0  0  0  2  0  0  0  0  0  0
  -18.2750  -26.5950   22.1290 C   0  0  0  0  0  2  0  0  0  0  0  0
  -19.1660  -28.7260   23.2370 C   0  0  0  0  0  0  0  0  0  0  0  0
  -18.9190  -29.9930   23.8080 C   0  0  0  0  0  3  0  0  0  0  0  0
  -17.6040  -30.4820   23.9410 C   0  0  0  0  0  3  0  0  0  0  0  0
  -16.5180  -29.7010   23.5090 C   0  0  0  0  0  3  0  0  0  0  0  0
  -16.7500  -28.4360   22.9380 C   0  0  0  0  0  3  0  0  0  0  0  0
  -25.8780  -32.4340   23.8420 C   0  0  0  0  0  3  0  0  0  0  0  0
  -26.3870  -31.6640   25.1220 C   0  0  1  0  0  0  0  0  0  0  0  0
  -25.2830  -31.4260   26.1770 C   0  0  0  0  0  1  0  0  0  0  0  0
  -26.9810  -30.2900   24.7340 C   0  0  0  0  0  1  0  0  0  0  0  0
  -27.5220  -32.4680   25.8000 C   0  0  0  0  0  1  0  0  0  0  0  0
  -25.5580  -33.8290   24.1700 N   0  0  0  0  0  0  0  0  0  0  0  0
  -25.8910  -34.8870   23.4160 C   0  0  0  0  0  0  0  0  0  0  0  0
  -26.5710  -34.7890   22.3910 O   0  0  0  0  0  0  0  0  0  0  0  0
  -24.9620  -33.9830   24.9700 H   0  0  0  0  0  0  0  0  0  0  0  0
  -24.1510  -36.6640   23.0550 C   0  0  0  0  0  1  0  0  0  0  0  0
  -25.3900  -36.2690   23.8750 C   0  0  0  0  0  3  0  0  0  0  0  0
  -27.5130  -37.1670   24.7210 C   0  0  0  0  0  1  0  0  0  0  0  0
  -26.4140  -37.3300   23.7740 N   0  0  0  0  0  0  0  0  0  0  0  0
  -25.9980  -38.2460   23.9260 H   0  0  0  0  0  0  0  0  0  0  0  0
  1  2  1  0
  1  3  1  0
  2  4  1  0
  3  5  1  0
  4  5  1  0
  4 52  1  0
  6  7  2  0
  6  9  1  0
  7 10  1  0
  8 11  1  0
  9  8  2  0
 10  5  1  0
 10 11  2  0
 11 12  1  0
 13  9  1  0
 13 23  1  0
 14 23  1  0
 15 20  1  0
 16 17  1  0
 16 15  1  0
 18 17  1  0
 18 27  1  0
 18 19  1  0
 20 14  1  0
 20 19  1  0
 21 14  2  0
 23 22  1  0
 24 25  2  0
 25 44  1  0
 26 25  1  0
 26 29  1  0
 27 28  1  0
 27 24  1  0
 28 26  2  0
 29 30  1  0
 30 31  2  0
 32 35  1  0
 32 31  1  0
 33 32  2  0
 34 33  1  0
 34 29  2  0
 35 36  1  0
 36 37  1  0
 37 38  2  0
 39 38  1  0
 39 43  1  0
 40 39  2  0
 41 36  2  0
 41 40  1  0
 42 41  1  0
 44 45  1  0
 45 48  1  0
 45 47  1  0
 46 44  2  0
 49 50  1  0
 49 24  1  0
 51 49  1  0
 53 52  1  0
 54 65  2  0
 55 53  1  0
 55 60  1  0
 56 64  1  0
 56 66  1  0
 57 63  1  0
 57 59  1  0
 58 64  1  0
 59 60  2  0
 59 58  1  0
 61 55  2  0
 62 61  1  0
 62 57  2  0
 63 56  1  0
 64 54  1  0
 66 68  2  0
 67 66  1  0
 69 67  1  0
 70 79  2  0
 70 75  1  0
 71 67  1  0
 71 75  1  0
 72 71  1  0
 73 74  1  0
 73 72  1  0
 74 70  1  0
 75 76  2  0
 76 77  1  0
 78 77  2  0
 79 78  1  0
 80 54  1  0
 80 85  1  0
 80 81  1  0
 81 84  1  1
 81 82  1  0
 83 81  1  0
 85 88  1  0
 86 90  1  0
 86 85  1  0
 87 86  2  0
 90 89  1  0
 92 90  1  0
 92 93  1  0
 92 91  1  0
M  ISO  4  14 100  23 100  52 101  53 101
M  END
>  <TORSDO>  (24) 
F 19

>  <SCORE>  (24) 
-14.123

>  <name>  (24) 
23

>  <ligand_id>  (24) 
23

>  <original_smiles>  (24) 
[H]c1c([H])c([H])c2c(c1[H])C([H])([H])C([H])([H])C([H])([H])C2([H])N([H])C(=O)C1([H])N(C(=O)C([H])(N([H])C(=O)C([H])(N([H])C([H])([H])[H])C([H])([H])[H])C(C([H])([H])[H])(C([H])([H])[H])C([H])([H])[H])C([H])([H])c2c([H])c(OC([H])([H])C3([H])N(c4c([H])c([H])c(C([H])([H])N(C(=O)N5C([H])([H])C([H])([H])C([H])([H])C([H])(n6nc(-c7c([H])c([H])c(Oc8c([H])c([H])c(F)c([H])c8F)c([H])c7[H])c(C(=O)N([H])[H])c6N([H])[H])C5([H])[H])C([H])([H])[H])c([H])c4F)C([H])([H])C([H])([H])C3([H])[H])c([H])c([H])c2C1([H])[H]

>  <smiles>  (24) 
[H]c1c([H])c([H])c2c(c1[H])C([H])([H])C([H])([H])C([H])([H])C2([H])N([H])C(=O)C1([H])N(C(=O)C([H])(N([H])C(=O)C([H])(N([H])C([H])([H])[H])C([H])([H])[H])C(C([H])([H])[H])(C([H])([H])[H])C([H])([H])[H])C([H])([H])c2c([H])c(OC([H])([H])C3([H])N(c4c([H])c([H])c(C([H])([H])N(C(=O)N5C([H])([H])C([H])([H])C([H])([H])C([H])(n6nc(-c7c([H])c([H])c(Oc8c([H])c([H])c(F)c([H])c8F)c([H])c7[H])c(C(=O)N([H])[H])c6N([H])[H])C5([H])[H])C([H])([H])[H])c([H])c4F)C([H])([H])C([H])([H])C3([H])[H])c([H])c([H])c2C1([H])[H]

$$$$
24:0:0
     RDKit          3D

 97106  0  0  1  0  0  0  0  0999 V2000
  -30.7450  -14.6590   20.4620 C   0  0  0  0  0  0  0  0  0  0  0  0
  -30.3540  -12.4880   19.3490 C   0  0  0  0  0  2  0  0  0  0  0  0
  -29.4200  -12.6440   18.1300 C   0  0  0  0  0  2  0  0  0  0  0  0
  -27.9380  -12.5660   18.5630 C   0  0  0  0  0  2  0  0  0  0  0  0
  -27.6020  -13.3830   19.8410 C   0  0  0  0  0  3  0  0  0  0  0  0
  -28.6850  -13.2540   20.9430 C   0  0  0  0  0  2  0  0  0  0  0  0
  -29.9970  -13.5210   20.3350 N   0  0  0  0  0  0  0  0  0  0  0  0
  -31.9620  -14.6600   20.2800 O   0  0  0  0  0  0  0  0  0  0  0  0
  -31.6920  -18.9870   21.8610 C   0  0  0  0  0  3  0  0  0  0  0  0
  -31.3380  -17.6060   21.8000 C   0  0  0  0  0  3  0  0  0  0  0  0
  -30.7420  -19.3780   19.6480 C   0  0  0  0  0  3  0  0  0  0  0  0
  -30.4050  -18.0210   19.6060 C   0  0  0  0  0  0  0  0  0  0  0  0
  -31.3770  -19.8790   20.7970 C   0  0  0  0  0  0  0  0  0  0  0  0
  -30.6650  -17.1350   20.6510 C   0  0  0  0  0  0  0  0  0  0  0  0
  -29.2010  -16.1000   19.2030 C   0  0  0  0  0  2  0  0  0  0  0  0
  -29.6690  -17.3690   18.4930 C   0  0  0  0  0  3  0  0  0  0  0  0
  -30.0830  -15.8540   20.3650 N   0  0  0  0  0  0  0  0  0  0  0  0
  -25.2290  -14.0560   20.5400 C   0  0  0  0  0  0  0  0  0  0  0  0
  -24.1420  -13.3030   20.8860 C   0  0  0  0  0  0  0  0  0  0  0  0
  -24.5850  -11.9470   20.8690 C   0  0  0  0  0  0  0  0  0  0  0  0
  -26.2590  -13.1460   20.3300 N   0  0  0  0  0  0  0  0  0  0  0  0
  -25.8770  -11.8770   20.5900 N   0  0  0  0  0  0  0  0  0  0  0  0
  -23.8430  -10.6970   21.0420 C   0  0  0  0  0  0  0  0  0  0  0  0
  -24.2700   -9.7170   21.9630 C   0  0  0  0  0  3  0  0  0  0  0  0
  -23.5370   -8.5230   22.1240 C   0  0  0  0  0  3  0  0  0  0  0  0
  -22.3640   -8.3030   21.3630 C   0  0  0  0  0  0  0  0  0  0  0  0
  -21.9600   -9.2710   20.4270 C   0  0  0  0  0  3  0  0  0  0  0  0
  -22.6930  -10.4580   20.2650 C   0  0  0  0  0  3  0  0  0  0  0  0
  -21.5950   -7.1700   21.4420 O   0  0  0  0  0  0  0  0  0  0  0  0
  -21.5460   -6.4120   22.5850 C   0  0  0  0  0  0  0  0  0  0  0  0
  -21.1640   -6.9590   23.8290 C   0  0  0  0  0  3  0  0  0  0  0  0
  -21.0610   -6.1250   24.9610 C   0  0  0  0  0  3  0  0  0  0  0  0
  -21.3340   -4.7480   24.8490 C   0  0  0  0  0  0  0  0  0  0  0  0
  -21.7120   -4.2030   23.6080 C   0  0  0  0  0  3  0  0  0  0  0  0
  -21.8160   -5.0340   22.4800 C   0  0  0  0  0  0  0  0  0  0  0  0
  -22.1590   -4.5020   21.2810 F   0  0  0  0  0  0  0  0  0  0  0  0
  -21.2310   -3.9430   25.9320 F   0  0  0  0  0  0  0  0  0  0  0  0
  -22.7460  -13.7990   21.1280 C   0  0  0  0  0  0  0  0  0  0  0  0
  -21.9980  -13.1180   21.9880 N   0  0  0  0  0  0  0  0  0  0  0  0
  -22.3260  -14.8240   20.5890 O   0  0  0  0  0  0  0  0  0  0  0  0
  -22.3480  -12.2830   22.4370 H   0  0  0  0  0  0  0  0  0  0  0  0
  -21.0610  -13.4320   22.1990 H   0  0  0  0  0  0  0  0  0  0  0  0
  -25.4150  -15.4240   20.3610 N   0  0  0  0  0  0  0  0  0  0  0  0
  -24.6510  -16.0890   20.4310 H   0  0  0  0  0  0  0  0  0  0  0  0
  -26.2880  -15.8530   20.0950 H   0  0  0  0  0  0  0  0  0  0  0  0
  -30.5490  -17.0700   17.3530 N   0  0  0  0  0  4  0  0  0  0  0  0
  -31.3780  -16.5970   17.6560 H   0  0  0  0  0  0  0  0  0  0  0  0
  -30.8110  -17.9190   16.8850 H   0  0  0  0  0  0  0  0  0  0  0  0
  -30.0680  -16.4890   16.6890 H   0  0  0  0  0  0  0  0  0  0  0  0
  -31.6940  -21.3800   20.8280 C   0  0  0  0  0  2  0  0  0  0  0  0
  -29.2610  -21.7070   21.3690 C   0  0  0  0  0  1  0  0  0  0  0  0
  -30.6370  -22.2730   21.4030 N   0  0  2  0  0  4  0  0  0  0  0  0
  -30.8840  -22.3580   22.3760 H   0  0  0  0  0  0  0  0  0  0  0  0
  -30.7150  -23.6460   20.8090 C   0  0  0  0  0  2  0  0  0  0  0  0
  -29.8070  -24.7360   21.4510 C   0  0  0  0  0  2  0  0  0  0  0  0
  -28.6570  -25.2800   20.5630 C   0  0  0  0  0  2  0  0  0  0  0  0
  -28.6520  -26.7100   20.6770 O   0  0  0  0  0  0  0  0  0  0  0  0
  -24.6250  -31.9090   23.3350 C   0  0  0  0  0  0  0  0  0  0  0  0
  -27.4610  -27.3940   20.5530 C   0  0  0  0  0  0  0  0  0  0  0  0
  -23.5180  -30.4350   21.6900 C   0  0  0  0  0  3  0  0  0  0  0  0
  -25.0520  -28.8650   20.3920 C   0  0  0  0  0  0  0  0  0  0  0  0
  -26.0450  -30.8170   21.6010 C   0  0  0  0  0  2  0  0  0  0  0  0
  -26.1740  -29.4280   21.0090 C   0  0  0  0  0  0  0  0  0  0  0  0
  -27.3810  -28.7000   21.0820 C   0  0  0  0  0  3  0  0  0  0  0  0
  -26.3240  -26.8460   19.9140 C   0  0  0  0  0  3  0  0  0  0  0  0
  -25.1210  -27.5730   19.8410 C   0  0  0  0  0  3  0  0  0  0  0  0
  -23.8000  -29.7110   20.3460 C   0  0  0  0  0  2  0  0  0  0  0  0
  -24.7450  -31.0700   22.2680 N   0  0  0  0  0  0  0  0  0  0  0  0
  -23.5160  -32.1880   23.8100 O   0  0  0  0  0  0  0  0  0  0  0  0
  -22.8280  -29.4410   22.6510 C   0  0  0  0  0  0  0  0  0  0  0  0
  -21.5140  -29.2430   22.4640 N   0  0  0  0  0  0  0  0  0  0  0  0
  -23.4750  -28.8510   23.5200 O   0  0  0  0  0  0  0  0  0  0  0  0
  -21.0540  -29.7740   21.7390 H   0  0  0  0  0  0  0  0  0  0  0  0
  -18.1300  -28.0280   22.8240 C   0  0  0  0  0  0  0  0  0  0  0  0
  -20.6690  -28.3230   23.2230 C   0  0  0  0  0  3  0  0  0  0  0  0
  -20.8150  -26.8750   22.7030 C   0  0  0  0  0  2  0  0  0  0  0  0
  -19.7710  -26.5030   21.6450 C   0  0  0  0  0  2  0  0  0  0  0  0
  -18.3550  -26.6550   22.2110 C   0  0  0  0  0  2  0  0  0  0  0  0
  -19.2190  -28.8150   23.2850 C   0  0  0  0  0  0  0  0  0  0  0  0
  -18.9620  -30.0960   23.8210 C   0  0  0  0  0  3  0  0  0  0  0  0
  -17.6480  -30.5940   23.8980 C   0  0  0  0  0  3  0  0  0  0  0  0
  -16.5720  -29.8070   23.4540 C   0  0  0  0  0  3  0  0  0  0  0  0
  -16.8130  -28.5250   22.9240 C   0  0  0  0  0  3  0  0  0  0  0  0
  -25.8730  -32.5780   23.9940 C   0  0  0  0  0  3  0  0  0  0  0  0
  -25.5330  -33.9790   24.2670 N   0  0  0  0  0  0  0  0  0  0  0  0
  -25.8870  -35.0130   23.4910 C   0  0  0  0  0  0  0  0  0  0  0  0
  -26.6040  -34.8880   22.4940 O   0  0  0  0  0  0  0  0  0  0  0  0
  -24.8960  -34.1490   25.0310 H   0  0  0  0  0  0  0  0  0  0  0  0
  -24.1470  -36.7620   23.0040 C   0  0  0  0  0  1  0  0  0  0  0  0
  -25.3600  -36.4080   23.8810 C   0  0  0  0  0  3  0  0  0  0  0  0
  -27.4460  -37.3500   24.7620 C   0  0  0  0  0  1  0  0  0  0  0  0
  -26.3800  -37.4730   23.7730 N   0  0  0  0  0  0  0  0  0  0  0  0
  -25.9570  -38.3930   23.8750 H   0  0  0  0  0  0  0  0  0  0  0  0
  -26.3390  -31.8500   25.3140 C   0  0  1  0  0  0  0  0  0  0  0  0
  -25.2020  -31.6260   26.3380 C   0  0  0  0  0  1  0  0  0  0  0  0
  -26.9570  -30.4710   24.9840 C   0  0  0  0  0  1  0  0  0  0  0  0
  -27.4490  -32.6760   26.0050 C   0  0  0  0  0  1  0  0  0  0  0  0
  2  7  1  0
  3  4  1  0
  3  2  1  0
  5  4  1  0
  5 21  1  0
  5  6  1  0
  7  1  1  0
  7  6  1  0
  8  1  2  0
 10  9  1  0
 11 13  1  0
 12 11  2  0
 12 14  1  0
 13 50  1  0
 13  9  2  0
 14 10  2  0
 15 17  1  0
 16 46  1  0
 16 15  1  0
 16 12  1  0
 17  1  1  0
 17 14  1  0
 18 19  2  0
 19 38  1  0
 20 19  1  0
 20 23  1  0
 21 18  1  0
 21 22  1  0
 22 20  2  0
 23 24  1  0
 24 25  2  0
 26 29  1  0
 26 25  1  0
 27 26  2  0
 28 27  1  0
 28 23  2  0
 29 30  1  0
 30 31  1  0
 31 32  2  0
 33 32  1  0
 33 37  1  0
 34 33  2  0
 35 30  2  0
 35 34  1  0
 36 35  1  0
 38 39  1  0
 39 42  1  0
 39 41  1  0
 40 38  2  0
 43 44  1  0
 43 18  1  0
 45 43  1  0
 46 47  1  0
 48 46  1  0
 49 46  1  0
 50 52  1  0
 51 52  1  0
 52 53  1  1
 54 52  1  0
 54 55  1  0
 56 57  1  0
 56 55  1  0
 58 69  2  0
 59 57  1  0
 59 64  1  0
 60 68  1  0
 60 70  1  0
 61 63  1  0
 62 68  1  0
 63 64  2  0
 63 62  1  0
 65 59  2  0
 66 65  1  0
 66 61  2  0
 67 61  1  0
 67 60  1  0
 68 58  1  0
 70 72  2  0
 71 70  1  0
 73 71  1  0
 74 83  2  0
 74 79  1  0
 75 71  1  0
 75 79  1  0
 76 75  1  0
 77 78  1  0
 77 76  1  0
 78 74  1  0
 79 80  2  0
 80 81  1  0
 82 81  2  0
 83 82  1  0
 84 58  1  0
 84 85  1  0
 84 94  1  0
 85 88  1  0
 86 90  1  0
 86 85  1  0
 87 86  2  0
 90 89  1  0
 92 93  1  0
 92 90  1  0
 92 91  1  0
 94 97  1  1
 94 95  1  0
 96 94  1  0
M  ISO  4   1 100  17 100  56 101  57 101
M  END
>  <TORSDO>  (25) 
F 21

>  <SCORE>  (25) 
-13.623

>  <name>  (25) 
24

>  <ligand_id>  (25) 
24

>  <original_smiles>  (25) 
[H]c1c([H])c([H])c2c(c1[H])C([H])([H])C([H])([H])C([H])([H])C2([H])N([H])C(=O)C1([H])N(C(=O)C([H])(N([H])C(=O)C([H])(N([H])C([H])([H])[H])C([H])([H])[H])C(C([H])([H])[H])(C([H])([H])[H])C([H])([H])[H])C([H])([H])c2c([H])c(OC([H])([H])C([H])([H])C([H])([H])[N+]([H])(C([H])([H])[H])C([H])([H])c3c([H])c([H])c4c(c3[H])C([H])([N+]([H])([H])[H])C([H])([H])N4C(=O)N3C([H])([H])C([H])([H])C([H])([H])C([H])(n4nc(-c5c([H])c([H])c(Oc6c([H])c([H])c(F)c([H])c6F)c([H])c5[H])c(C(=O)N([H])[H])c4N([H])[H])C3([H])[H])c([H])c([H])c2C1([H])[H]

>  <smiles>  (25) 
[H]c1c([H])c([H])c2c(c1[H])C([H])([H])C([H])([H])C([H])([H])C2([H])N([H])C(=O)C1([H])N(C(=O)C([H])(N([H])C(=O)C([H])(N([H])C([H])([H])[H])C([H])([H])[H])C(C([H])([H])[H])(C([H])([H])[H])C([H])([H])[H])C([H])([H])c2c([H])c(OC([H])([H])C([H])([H])C([H])([H])[N+]([H])(C([H])([H])[H])C([H])([H])c3c([H])c([H])c4c(c3[H])C([H])([N+]([H])([H])[H])C([H])([H])N4C(=O)N3C([H])([H])C([H])([H])C([H])([H])C([H])(n4nc(-c5c([H])c([H])c(Oc6c([H])c([H])c(F)c([H])c6F)c([H])c5[H])c(C(=O)N([H])[H])c4N([H])[H])C3([H])[H])c([H])c([H])c2C1([H])[H]

$$$$
25:0:0
     RDKit          3D

 91 99  0  0  1  0  0  0  0  0999 V2000
  -28.5930  -23.7250   20.0050 C   0  0  0  0  0  0  0  0  0  0  0  0
  -28.4850  -22.3660   22.0680 C   0  0  0  0  0  1  0  0  0  0  0  0
  -28.6850  -22.4680   20.6210 N   0  0  0  0  0  0  0  0  0  0  0  0
  -28.8010  -23.8390   18.7930 O   0  0  0  0  0  0  0  0  0  0  0  0
  -28.7670  -21.1010   19.9180 C   0  0  0  0  0  2  0  0  0  0  0  0
  -31.6490  -19.0350   21.5590 C   0  0  0  0  0  3  0  0  0  0  0  0
  -30.8220  -20.0990   21.1390 C   0  0  0  0  0  3  0  0  0  0  0  0
  -31.3090  -17.6860   21.3210 C   0  0  0  0  0  3  0  0  0  0  0  0
  -29.2700  -18.4520   20.2460 C   0  0  0  0  0  3  0  0  0  0  0  0
  -29.6080  -19.8550   20.4650 C   0  0  0  0  0  0  0  0  0  0  0  0
  -30.1120  -17.3330   20.6570 C   0  0  0  0  0  0  0  0  0  0  0  0
  -30.5570  -14.7590   20.3530 C   0  0  0  0  0  0  0  0  0  0  0  0
  -30.3540  -12.4790   19.3410 C   0  0  0  0  0  2  0  0  0  0  0  0
  -29.4090  -12.5400   18.1220 C   0  0  0  0  0  2  0  0  0  0  0  0
  -27.9410  -12.3710   18.5600 C   0  0  0  0  0  2  0  0  0  0  0  0
  -27.5720  -13.2680   19.7720 C   0  0  0  0  0  3  0  0  0  0  0  0
  -28.6350  -13.1880   20.8880 C   0  0  0  0  0  2  0  0  0  0  0  0
  -29.9250  -13.5380   20.2820 N   0  0  0  0  0  0  0  0  0  0  0  0
  -31.7540  -14.8430   20.0570 O   0  0  0  0  0  0  0  0  0  0  0  0
  -29.7660  -15.8950   20.4920 N   0  0  0  0  0  0  0  0  0  0  0  0
  -28.7780  -15.6950   20.4900 H   0  0  0  0  0  0  0  0  0  0  0  0
  -25.1910  -13.8710   20.5090 C   0  0  0  0  0  0  0  0  0  0  0  0
  -24.1240  -13.1020   20.8850 C   0  0  0  0  0  0  0  0  0  0  0  0
  -24.5820  -11.7500   20.8570 C   0  0  0  0  0  0  0  0  0  0  0  0
  -26.2300  -12.9870   20.2700 N   0  0  0  0  0  0  0  0  0  0  0  0
  -25.8710  -11.7070   20.5440 N   0  0  0  0  0  0  0  0  0  0  0  0
  -23.8510  -10.4900   21.0510 C   0  0  0  0  0  0  0  0  0  0  0  0
  -24.2890   -9.5190   21.9780 C   0  0  0  0  0  3  0  0  0  0  0  0
  -23.5590   -8.3240   22.1600 C   0  0  0  0  0  3  0  0  0  0  0  0
  -22.3760   -8.0940   21.4170 C   0  0  0  0  0  0  0  0  0  0  0  0
  -21.9580   -9.0550   20.4800 C   0  0  0  0  0  3  0  0  0  0  0  0
  -22.6880  -10.2400   20.2950 C   0  0  0  0  0  3  0  0  0  0  0  0
  -21.6170   -6.9530   21.5110 O   0  0  0  0  0  0  0  0  0  0  0  0
  -21.5850   -6.2010   22.6580 C   0  0  0  0  0  0  0  0  0  0  0  0
  -21.1870   -6.7500   23.8970 C   0  0  0  0  0  3  0  0  0  0  0  0
  -21.1020   -5.9250   25.0360 C   0  0  0  0  0  3  0  0  0  0  0  0
  -21.4030   -4.5530   24.9390 C   0  0  0  0  0  0  0  0  0  0  0  0
  -21.7940   -4.0050   23.7050 C   0  0  0  0  0  3  0  0  0  0  0  0
  -21.8810   -4.8270   22.5660 C   0  0  0  0  0  0  0  0  0  0  0  0
  -22.2380   -4.2890   21.3750 F   0  0  0  0  0  0  0  0  0  0  0  0
  -21.3140   -3.7600   26.0310 F   0  0  0  0  0  0  0  0  0  0  0  0
  -22.7280  -13.5850   21.1570 C   0  0  0  0  0  0  0  0  0  0  0  0
  -22.0000  -12.8950   22.0270 N   0  0  0  0  0  0  0  0  0  0  0  0
  -22.2940  -14.6110   20.6350 O   0  0  0  0  0  0  0  0  0  0  0  0
  -22.3650  -12.0650   22.4720 H   0  0  0  0  0  0  0  0  0  0  0  0
  -21.0630  -13.2000   22.2520 H   0  0  0  0  0  0  0  0  0  0  0  0
  -25.3560  -15.2410   20.3250 N   0  0  0  0  0  0  0  0  0  0  0  0
  -24.5850  -15.8920   20.4310 H   0  0  0  0  0  0  0  0  0  0  0  0
  -26.1910  -15.6780   19.9570 H   0  0  0  0  0  0  0  0  0  0  0  0
  -28.1520  -25.0520   20.8040 C   0  0  0  0  0  2  0  0  0  0  0  0
  -28.3270  -26.4050   20.1660 O   0  0  0  0  0  0  0  0  0  0  0  0
  -24.6370  -31.8750   23.2310 C   0  0  0  0  0  0  0  0  0  0  0  0
  -27.2290  -27.2900   20.1690 C   0  0  0  0  0  0  0  0  0  0  0  0
  -23.4280  -30.4820   21.5890 C   0  0  0  0  0  3  0  0  0  0  0  0
  -24.8750  -28.9260   20.1570 C   0  0  0  0  0  0  0  0  0  0  0  0
  -25.9690  -30.7920   21.4010 C   0  0  0  0  0  2  0  0  0  0  0  0
  -26.0480  -29.4100   20.7520 C   0  0  0  0  0  0  0  0  0  0  0  0
  -27.2310  -28.6060   20.7410 C   0  0  0  0  0  3  0  0  0  0  0  0
  -26.0360  -26.8660   19.5500 C   0  0  0  0  0  3  0  0  0  0  0  0
  -24.8720  -27.6620   19.5450 C   0  0  0  0  0  3  0  0  0  0  0  0
  -23.6400  -29.8060   20.2080 C   0  0  0  0  0  2  0  0  0  0  0  0
  -24.6970  -31.0680   22.1300 N   0  0  0  0  0  0  0  0  0  0  0  0
  -23.5540  -32.1510   23.7690 O   0  0  0  0  0  0  0  0  0  0  0  0
  -22.7640  -29.4660   22.5500 C   0  0  0  0  0  0  0  0  0  0  0  0
  -21.4360  -29.2960   22.4310 N   0  0  0  0  0  0  0  0  0  0  0  0
  -23.4440  -28.8320   23.3620 O   0  0  0  0  0  0  0  0  0  0  0  0
  -20.9460  -29.8590   21.7500 H   0  0  0  0  0  0  0  0  0  0  0  0
  -18.0570  -28.1070   22.9430 C   0  0  0  0  0  0  0  0  0  0  0  0
  -20.6180  -28.3590   23.2020 C   0  0  0  0  0  3  0  0  0  0  0  0
  -20.7130  -26.9290   22.6210 C   0  0  0  0  0  2  0  0  0  0  0  0
  -19.6060  -26.6140   21.6100 C   0  0  0  0  0  2  0  0  0  0  0  0
  -18.2270  -26.7600   22.2610 C   0  0  0  0  0  2  0  0  0  0  0  0
  -19.1800  -28.8650   23.3700 C   0  0  0  0  0  0  0  0  0  0  0  0
  -18.9670  -30.1250   23.9680 C   0  0  0  0  0  3  0  0  0  0  0  0
  -17.6630  -30.6290   24.1420 C   0  0  0  0  0  3  0  0  0  0  0  0
  -16.5550  -29.8690   23.7300 C   0  0  0  0  0  3  0  0  0  0  0  0
  -16.7530  -28.6090   23.1360 C   0  0  0  0  0  3  0  0  0  0  0  0
  -25.9200  -32.5050   23.8530 C   0  0  0  0  0  3  0  0  0  0  0  0
  -26.4360  -31.7320   25.1290 C   0  0  1  0  0  0  0  0  0  0  0  0
  -25.3450  -31.4990   26.1990 C   0  0  0  0  0  1  0  0  0  0  0  0
  -27.0130  -30.3520   24.7370 C   0  0  0  0  0  1  0  0  0  0  0  0
  -27.5900  -32.5220   25.7890 C   0  0  0  0  0  1  0  0  0  0  0  0
  -25.6130  -33.9030   24.1870 N   0  0  0  0  0  0  0  0  0  0  0  0
  -25.9390  -34.9580   23.4270 C   0  0  0  0  0  0  0  0  0  0  0  0
  -26.5970  -34.8560   22.3880 O   0  0  0  0  0  0  0  0  0  0  0  0
  -25.0290  -34.0570   24.9950 H   0  0  0  0  0  0  0  0  0  0  0  0
  -24.2060  -36.7520   23.0960 C   0  0  0  0  0  1  0  0  0  0  0  0
  -25.4570  -36.3460   23.8920 C   0  0  0  0  0  3  0  0  0  0  0  0
  -27.6020  -37.2290   24.6960 C   0  0  0  0  0  1  0  0  0  0  0  0
  -26.4880  -37.4000   23.7670 N   0  0  0  0  0  0  0  0  0  0  0  0
  -26.0840  -38.3190   23.9210 H   0  0  0  0  0  0  0  0  0  0  0  0
  1  3  1  0
  1 50  1  0
  3  2  1  0
  4  1  2  0
  5 10  1  0
  5  3  1  0
  7  6  2  0
  8  6  1  0
  9 10  2  0
  9 11  1  0
 10  7  1  0
 11  8  2  0
 12 20  1  0
 13 18  1  0
 14 15  1  0
 14 13  1  0
 16 15  1  0
 16 25  1  0
 16 17  1  0
 18 12  1  0
 18 17  1  0
 19 12  2  0
 20 11  1  0
 21 20  1  0
 22 23  2  0
 23 42  1  0
 24 23  1  0
 24 27  1  0
 25 22  1  0
 25 26  1  0
 26 24  2  0
 27 28  1  0
 28 29  2  0
 30 33  1  0
 30 29  1  0
 31 30  2  0
 32 31  1  0
 32 27  2  0
 33 34  1  0
 34 35  1  0
 35 36  2  0
 37 36  1  0
 37 41  1  0
 38 37  2  0
 39 34  2  0
 39 38  1  0
 40 39  1  0
 42 43  1  0
 43 46  1  0
 43 45  1  0
 44 42  2  0
 47 48  1  0
 47 22  1  0
 49 47  1  0
 51 53  1  0
 51 50  1  0
 52 63  2  0
 53 58  1  0
 54 62  1  0
 54 64  1  0
 55 61  1  0
 55 57  1  0
 56 62  1  0
 57 56  1  0
 58 57  2  0
 59 53  2  0
 60 59  1  0
 60 55  2  0
 61 54  1  0
 62 52  1  0
 64 66  2  0
 65 64  1  0
 67 65  1  0
 68 77  2  0
 68 73  1  0
 69 65  1  0
 69 73  1  0
 70 69  1  0
 71 72  1  0
 71 70  1  0
 72 68  1  0
 73 74  2  0
 74 75  1  0
 76 75  2  0
 77 76  1  0
 78 52  1  0
 78 83  1  0
 78 79  1  0
 79 82  1  1
 79 80  1  0
 81 79  1  0
 83 86  1  0
 84 88  1  0
 84 83  1  0
 85 84  2  0
 88 87  1  0
 90 88  1  0
 90 91  1  0
 90 89  1  0
M  ISO  4  12 100  20 100  50 101  51 101
M  END
>  <TORSDO>  (26) 
F 19

>  <SCORE>  (26) 
-14.454

>  <name>  (26) 
25

>  <ligand_id>  (26) 
25

>  <original_smiles>  (26) 
[H]c1c([H])c(N([H])C(=O)N2C([H])([H])C([H])([H])C([H])([H])C([H])(n3nc(-c4c([H])c([H])c(Oc5c([H])c([H])c(F)c([H])c5F)c([H])c4[H])c(C(=O)N([H])[H])c3N([H])[H])C2([H])[H])c([H])c(C([H])([H])N(C(=O)C([H])([H])Oc2c([H])c([H])c3c(c2[H])C([H])([H])N(C(=O)C([H])(N([H])C(=O)C([H])(N([H])C([H])([H])[H])C([H])([H])[H])C(C([H])([H])[H])(C([H])([H])[H])C([H])([H])[H])C([H])(C(=O)N([H])C2([H])c4c([H])c([H])c([H])c([H])c4C([H])([H])C([H])([H])C2([H])[H])C3([H])[H])C([H])([H])[H])c1[H]

>  <smiles>  (26) 
[H]c1c([H])c(N([H])C(=O)N2C([H])([H])C([H])([H])C([H])([H])C([H])(n3nc(-c4c([H])c([H])c(Oc5c([H])c([H])c(F)c([H])c5F)c([H])c4[H])c(C(=O)N([H])[H])c3N([H])[H])C2([H])[H])c([H])c(C([H])([H])N(C(=O)C([H])([H])Oc2c([H])c([H])c3c(c2[H])C([H])([H])N(C(=O)C([H])(N([H])C(=O)C([H])(N([H])C([H])([H])[H])C([H])([H])[H])C(C([H])([H])[H])(C([H])([H])[H])C([H])([H])[H])C([H])(C(=O)N([H])C2([H])c4c([H])c([H])c([H])c([H])c4C([H])([H])C([H])([H])C2([H])[H])C3([H])[H])C([H])([H])[H])c1[H]

$$$$
26:0:0
     RDKit          3D

 93101  0  0  1  0  0  0  0  0999 V2000
  -31.4490  -22.0410   20.7460 C   0  0  0  0  0  1  0  0  0  0  0  0
  -30.0140  -21.9490   21.1130 N   0  0  2  0  0  4  0  0  0  0  0  0
  -29.5320  -21.7270   20.2550 H   0  0  0  0  0  0  0  0  0  0  0  0
  -30.1140  -23.8080   22.8540 C   0  0  0  0  0  1  0  0  0  0  0  0
  -29.4120  -23.2440   21.5910 C   0  0  0  0  0  3  0  0  0  0  0  0
  -29.3180  -24.3430   20.4910 C   0  0  0  0  0  2  0  0  0  0  0  0
  -28.2450  -25.4120   20.8090 C   0  0  0  0  0  2  0  0  0  0  0  0
  -28.4470  -26.6600   20.1220 O   0  0  0  0  0  0  0  0  0  0  0  0
  -24.6260  -31.8460   23.1770 C   0  0  0  0  0  0  0  0  0  0  0  0
  -27.3110  -27.4370   20.0950 C   0  0  0  0  0  0  0  0  0  0  0  0
  -23.4450  -30.4470   21.5160 C   0  0  0  0  0  3  0  0  0  0  0  0
  -24.9180  -28.9360   20.0910 C   0  0  0  0  0  0  0  0  0  0  0  0
  -25.9710  -30.8240   21.3430 C   0  0  0  0  0  2  0  0  0  0  0  0
  -26.0690  -29.4590   20.6940 C   0  0  0  0  0  0  0  0  0  0  0  0
  -27.2750  -28.7180   20.6930 C   0  0  0  0  0  3  0  0  0  0  0  0
  -26.1480  -26.9370   19.4710 C   0  0  0  0  0  3  0  0  0  0  0  0
  -24.9520  -27.6760   19.4710 C   0  0  0  0  0  3  0  0  0  0  0  0
  -23.6700  -29.7840   20.1310 C   0  0  0  0  0  2  0  0  0  0  0  0
  -24.6990  -31.0550   22.0710 N   0  0  0  0  0  0  0  0  0  0  0  0
  -23.5370  -32.1060   23.7090 O   0  0  0  0  0  0  0  0  0  0  0  0
  -22.7920  -29.4130   22.4620 C   0  0  0  0  0  0  0  0  0  0  0  0
  -21.4640  -29.2390   22.3380 N   0  0  0  0  0  0  0  0  0  0  0  0
  -23.4760  -28.7750   23.2670 O   0  0  0  0  0  0  0  0  0  0  0  0
  -20.9740  -29.8120   21.6650 H   0  0  0  0  0  0  0  0  0  0  0  0
  -18.0830  -28.0660   22.8470 C   0  0  0  0  0  0  0  0  0  0  0  0
  -20.6470  -28.2940   23.0970 C   0  0  0  0  0  3  0  0  0  0  0  0
  -20.7300  -26.8720   22.4950 C   0  0  0  0  0  2  0  0  0  0  0  0
  -19.6150  -26.5780   21.4870 C   0  0  0  0  0  2  0  0  0  0  0  0
  -18.2390  -26.7270   22.1470 C   0  0  0  0  0  2  0  0  0  0  0  0
  -19.2140  -28.8080   23.2800 C   0  0  0  0  0  0  0  0  0  0  0  0
  -19.0130  -30.0630   23.8940 C   0  0  0  0  0  3  0  0  0  0  0  0
  -17.7140  -30.5760   24.0780 C   0  0  0  0  0  3  0  0  0  0  0  0
  -16.5990  -29.8300   23.6600 C   0  0  0  0  0  3  0  0  0  0  0  0
  -16.7840  -28.5760   23.0500 C   0  0  0  0  0  3  0  0  0  0  0  0
  -25.9000  -32.4860   23.8100 C   0  0  0  0  0  3  0  0  0  0  0  0
  -25.5760  -33.8790   24.1490 N   0  0  0  0  0  0  0  0  0  0  0  0
  -25.9110  -34.9390   23.4010 C   0  0  0  0  0  0  0  0  0  0  0  0
  -26.5930  -34.8470   22.3760 O   0  0  0  0  0  0  0  0  0  0  0  0
  -24.9720  -34.0230   24.9470 H   0  0  0  0  0  0  0  0  0  0  0  0
  -24.1770  -36.7220   23.0320 C   0  0  0  0  0  1  0  0  0  0  0  0
  -25.4100  -36.3220   23.8590 C   0  0  0  0  0  3  0  0  0  0  0  0
  -27.5270  -37.2050   24.7360 C   0  0  0  0  0  1  0  0  0  0  0  0
  -26.4420  -37.3790   23.7730 N   0  0  0  0  0  0  0  0  0  0  0  0
  -26.0310  -38.2970   23.9230 H   0  0  0  0  0  0  0  0  0  0  0  0
  -26.4180  -31.7070   25.0810 C   0  0  1  0  0  0  0  0  0  0  0  0
  -25.3200  -31.4460   26.1400 C   0  0  0  0  0  1  0  0  0  0  0  0
  -27.0170  -30.3410   24.6760 C   0  0  0  0  0  1  0  0  0  0  0  0
  -27.5620  -32.5000   25.7530 C   0  0  0  0  0  1  0  0  0  0  0  0
  -29.6830  -20.8160   22.0330 C   0  0  0  0  0  2  0  0  0  0  0  0
  -30.6580  -18.5680   22.6710 C   0  0  0  0  0  3  0  0  0  0  0  0
  -29.8140  -18.8040   20.4040 C   0  0  0  0  0  3  0  0  0  0  0  0
  -30.8180  -17.1810   22.4810 C   0  0  0  0  0  3  0  0  0  0  0  0
  -30.0050  -17.4170   20.1990 C   0  0  0  0  0  3  0  0  0  0  0  0
  -30.1080  -19.3870   21.6590 C   0  0  0  0  0  0  0  0  0  0  0  0
  -30.4650  -16.5890   21.2530 C   0  0  0  0  0  0  0  0  0  0  0  0
  -30.8190  -14.4050   20.1440 C   0  0  0  0  0  0  0  0  0  0  0  0
  -30.4020  -12.3220   18.8910 C   0  0  0  0  0  2  0  0  0  0  0  0
  -29.3840  -12.5810   17.7650 C   0  0  0  0  0  2  0  0  0  0  0  0
  -27.9440  -12.4280   18.2840 C   0  0  0  0  0  2  0  0  0  0  0  0
  -27.6900  -13.2210   19.5940 C   0  0  0  0  0  3  0  0  0  0  0  0
  -28.8130  -12.9470   20.6230 C   0  0  0  0  0  2  0  0  0  0  0  0
  -30.1190  -13.2460   20.0000 N   0  0  0  0  0  0  0  0  0  0  0  0
  -31.7770  -14.7120   19.4320 O   0  0  0  0  0  0  0  0  0  0  0  0
  -30.4450  -15.1710   21.1760 N   0  0  0  0  0  0  0  0  0  0  0  0
  -29.8800  -14.7040   21.8700 H   0  0  0  0  0  0  0  0  0  0  0  0
  -25.3320  -13.8010   20.4640 C   0  0  0  0  0  0  0  0  0  0  0  0
  -24.2880  -13.0160   20.8730 C   0  0  0  0  0  0  0  0  0  0  0  0
  -24.7440  -11.6660   20.7680 C   0  0  0  0  0  0  0  0  0  0  0  0
  -26.3640  -12.9310   20.1430 N   0  0  0  0  0  0  0  0  0  0  0  0
  -26.0140  -11.6390   20.3800 N   0  0  0  0  0  0  0  0  0  0  0  0
  -24.0300  -10.3960   20.9630 C   0  0  0  0  0  0  0  0  0  0  0  0
  -24.4660   -9.4380   21.9050 C   0  0  0  0  0  3  0  0  0  0  0  0
  -23.7520   -8.2340   22.0870 C   0  0  0  0  0  3  0  0  0  0  0  0
  -22.5860   -7.9780   21.3260 C   0  0  0  0  0  0  0  0  0  0  0  0
  -22.1660   -8.9270   20.3770 C   0  0  0  0  0  3  0  0  0  0  0  0
  -22.8820  -10.1230   20.1940 C   0  0  0  0  0  3  0  0  0  0  0  0
  -21.8430   -6.8260   21.4160 O   0  0  0  0  0  0  0  0  0  0  0  0
  -21.7250   -6.1340   22.5940 C   0  0  0  0  0  0  0  0  0  0  0  0
  -21.1960   -6.7310   23.7590 C   0  0  0  0  0  3  0  0  0  0  0  0
  -21.0280   -5.9650   24.9300 C   0  0  0  0  0  3  0  0  0  0  0  0
  -21.3810   -4.6030   24.9370 C   0  0  0  0  0  0  0  0  0  0  0  0
  -21.9050   -4.0040   23.7770 C   0  0  0  0  0  3  0  0  0  0  0  0
  -22.0730   -4.7670   22.6080 C   0  0  0  0  0  0  0  0  0  0  0  0
  -22.5580   -4.1800   21.4870 F   0  0  0  0  0  0  0  0  0  0  0  0
  -21.2130   -3.8650   26.0580 F   0  0  0  0  0  0  0  0  0  0  0  0
  -22.9090  -13.4840   21.2470 C   0  0  0  0  0  0  0  0  0  0  0  0
  -22.2330  -12.7650   22.1350 N   0  0  0  0  0  0  0  0  0  0  0  0
  -22.4400  -14.5220   20.7860 O   0  0  0  0  0  0  0  0  0  0  0  0
  -22.6200  -11.9230   22.5360 H   0  0  0  0  0  0  0  0  0  0  0  0
  -21.3130  -13.0670   22.4240 H   0  0  0  0  0  0  0  0  0  0  0  0
  -25.4830  -15.1770   20.3210 N   0  0  0  0  0  0  0  0  0  0  0  0
  -24.7300  -15.8290   20.5100 H   0  0  0  0  0  0  0  0  0  0  0  0
  -26.3230  -15.6260   19.9790 H   0  0  0  0  0  0  0  0  0  0  0  0
  1  2  1  0
  2  5  1  0
  2 49  1  0
  2  3  1  6
  5  4  1  0
  6  7  1  0
  6  5  1  0
  8  7  1  0
  9 20  2  0
 10  8  1  0
 10 15  1  0
 11 19  1  0
 11 21  1  0
 12 18  1  0
 12 14  1  0
 13 19  1  0
 14 13  1  0
 15 14  2  0
 16 10  2  0
 17 16  1  0
 17 12  2  0
 18 11  1  0
 19  9  1  0
 21 23  2  0
 22 21  1  0
 24 22  1  0
 25 34  2  0
 25 30  1  0
 26 22  1  0
 26 30  1  0
 27 26  1  0
 28 29  1  0
 28 27  1  0
 29 25  1  0
 30 31  2  0
 31 32  1  0
 33 32  2  0
 34 33  1  0
 35  9  1  0
 35 36  1  0
 35 45  1  0
 36 39  1  0
 37 41  1  0
 37 36  1  0
 38 37  2  0
 41 40  1  0
 43 41  1  0
 43 44  1  0
 43 42  1  0
 45 48  1  1
 45 46  1  0
 47 45  1  0
 51 54  1  0
 52 50  1  0
 53 51  2  0
 53 55  1  0
 54 49  1  0
 54 50  2  0
 55 52  2  0
 56 64  1  0
 57 62  1  0
 58 59  1  0
 58 57  1  0
 60 59  1  0
 60 69  1  0
 60 61  1  0
 62 56  1  0
 62 61  1  0
 63 56  2  0
 64 55  1  0
 64 65  1  0
 66 67  2  0
 67 86  1  0
 68 67  1  0
 68 71  1  0
 69 70  1  0
 69 66  1  0
 70 68  2  0
 71 72  1  0
 72 73  2  0
 74 77  1  0
 74 73  1  0
 75 74  2  0
 76 75  1  0
 76 71  2  0
 77 78  1  0
 78 83  2  0
 78 79  1  0
 79 80  2  0
 80 81  1  0
 81 85  1  0
 82 81  2  0
 83 82  1  0
 84 83  1  0
 86 87  1  0
 87 90  1  0
 87 89  1  0
 88 86  2  0
 91 66  1  0
 91 92  1  0
 93 91  1  0
M  ISO  4   7 101   8 101  56 100  64 100
M  END
>  <TORSDO>  (27) 
F 21

>  <SCORE>  (27) 
-12.706

>  <name>  (27) 
26

>  <ligand_id>  (27) 
26

>  <original_smiles>  (27) 
[H]c1c([H])c([H])c2c(c1[H])C([H])([H])C([H])([H])C([H])([H])C2([H])N([H])C(=O)C1([H])N(C(=O)C([H])(N([H])C(=O)C([H])(N([H])C([H])([H])[H])C([H])([H])[H])C(C([H])([H])[H])(C([H])([H])[H])C([H])([H])[H])C([H])([H])c2c([H])c(OC([H])([H])C([H])([H])C([H])(C([H])([H])[H])[N+]([H])(C([H])([H])[H])C([H])([H])c3c([H])c([H])c(N([H])C(=O)N4C([H])([H])C([H])([H])C([H])([H])C([H])(n5nc(-c6c([H])c([H])c(Oc7c([H])c([H])c(F)c([H])c7F)c([H])c6[H])c(C(=O)N([H])[H])c5N([H])[H])C4([H])[H])c([H])c3[H])c([H])c([H])c2C1([H])[H]

>  <smiles>  (27) 
[H]c1c([H])c([H])c2c(c1[H])C([H])([H])C([H])([H])C([H])([H])C2([H])N([H])C(=O)C1([H])N(C(=O)C([H])(N([H])C(=O)C([H])(N([H])C([H])([H])[H])C([H])([H])[H])C(C([H])([H])[H])(C([H])([H])[H])C([H])([H])[H])C([H])([H])c2c([H])c(OC([H])([H])C([H])([H])C([H])(C([H])([H])[H])[N+]([H])(C([H])([H])[H])C([H])([H])c3c([H])c([H])c(N([H])C(=O)N4C([H])([H])C([H])([H])C([H])([H])C([H])(n5nc(-c6c([H])c([H])c(Oc7c([H])c([H])c(F)c([H])c7F)c([H])c6[H])c(C(=O)N([H])[H])c5N([H])[H])C4([H])[H])c([H])c3[H])c([H])c([H])c2C1([H])[H]

$$$$
27:0:0
     RDKit          3D

 95103  0  0  1  0  0  0  0  0999 V2000
  -28.6900  -23.0370   20.5540 C   0  0  0  0  0  0  0  0  0  0  0  0
  -28.6560  -22.0710   19.5890 N   0  0  0  0  0  0  0  0  0  0  0  0
  -29.3290  -22.8890   21.6010 O   0  0  0  0  0  0  0  0  0  0  0  0
  -30.3370  -18.7090   19.2110 C   0  0  0  0  0  3  0  0  0  0  0  0
  -30.0910  -20.0990   19.1060 C   0  0  0  0  0  3  0  0  0  0  0  0
  -28.5760  -18.5290   20.8730 C   0  0  0  0  0  3  0  0  0  0  0  0
  -29.5480  -17.9020   20.0610 C   0  0  0  0  0  0  0  0  0  0  0  0
  -29.0570  -20.7130   19.8580 C   0  0  0  0  0  0  0  0  0  0  0  0
  -28.3260  -19.9160   20.7730 C   0  0  0  0  0  0  0  0  0  0  0  0
  -27.3150  -20.4540   21.4960 F   0  0  0  0  0  0  0  0  0  0  0  0
  -29.6080  -16.3660   19.9860 C   0  0  0  0  0  2  0  0  0  0  0  0
  -31.2910  -14.5610   19.8970 C   0  0  0  0  0  0  0  0  0  0  0  0
  -30.8840  -12.3130   18.9460 C   0  0  0  0  0  2  0  0  0  0  0  0
  -29.9100  -12.4130   17.7550 C   0  0  0  0  0  2  0  0  0  0  0  0
  -28.4490  -12.3260   18.2370 C   0  0  0  0  0  2  0  0  0  0  0  0
  -28.1570  -13.2790   19.4240 C   0  0  0  0  0  3  0  0  0  0  0  0
  -29.2510  -13.1780   20.5150 C   0  0  0  0  0  2  0  0  0  0  0  0
  -30.5570  -13.4070   19.8770 N   0  0  0  0  0  0  0  0  0  0  0  0
  -32.4060  -14.6320   19.3710 O   0  0  0  0  0  0  0  0  0  0  0  0
  -31.6520  -16.4450   21.3940 C   0  0  0  0  0  1  0  0  0  0  0  0
  -30.7740  -15.6420   20.5410 N   0  0  0  0  0  0  0  0  0  0  0  0
  -25.8440  -14.0220   20.2590 C   0  0  0  0  0  0  0  0  0  0  0  0
  -24.7500  -13.3110   20.6710 C   0  0  0  0  0  0  0  0  0  0  0  0
  -25.1290  -11.9340   20.6050 C   0  0  0  0  0  0  0  0  0  0  0  0
  -26.8200  -13.0800   19.9690 N   0  0  0  0  0  0  0  0  0  0  0  0
  -26.3970  -11.8200   20.2360 N   0  0  0  0  0  0  0  0  0  0  0  0
  -24.3390  -10.7140   20.8160 C   0  0  0  0  0  0  0  0  0  0  0  0
  -24.7090   -9.7530   21.7800 C   0  0  0  0  0  3  0  0  0  0  0  0
  -23.9230   -8.5970   21.9750 C   0  0  0  0  0  3  0  0  0  0  0  0
  -22.7530   -8.3970   21.2040 C   0  0  0  0  0  0  0  0  0  0  0  0
  -22.4020   -9.3470   20.2280 C   0  0  0  0  0  3  0  0  0  0  0  0
  -23.1910  -10.4920   20.0320 C   0  0  0  0  0  3  0  0  0  0  0  0
  -21.9420   -7.2940   21.3090 O   0  0  0  0  0  0  0  0  0  0  0  0
  -21.7750   -6.6340   22.4990 C   0  0  0  0  0  0  0  0  0  0  0  0
  -21.2780   -7.2850   23.6490 C   0  0  0  0  0  3  0  0  0  0  0  0
  -21.0550   -6.5540   24.8330 C   0  0  0  0  0  3  0  0  0  0  0  0
  -21.3220   -5.1730   24.8670 C   0  0  0  0  0  0  0  0  0  0  0  0
  -21.8130   -4.5200   23.7230 C   0  0  0  0  0  3  0  0  0  0  0  0
  -22.0360   -5.2500   22.5420 C   0  0  0  0  0  0  0  0  0  0  0  0
  -22.4890   -4.6130   21.4340 F   0  0  0  0  0  0  0  0  0  0  0  0
  -21.1010   -4.4670   26.0020 F   0  0  0  0  0  0  0  0  0  0  0  0
  -23.3970  -13.8670   21.0120 C   0  0  0  0  0  0  0  0  0  0  0  0
  -22.6720  -13.2080   21.9110 N   0  0  0  0  0  0  0  0  0  0  0  0
  -22.9940  -14.9170   20.5160 O   0  0  0  0  0  0  0  0  0  0  0  0
  -23.0080  -12.3530   22.3300 H   0  0  0  0  0  0  0  0  0  0  0  0
  -21.7650  -13.5610   22.1810 H   0  0  0  0  0  0  0  0  0  0  0  0
  -26.0800  -15.3830   20.0850 N   0  0  0  0  0  0  0  0  0  0  0  0
  -25.3530  -16.0730   20.2390 H   0  0  0  0  0  0  0  0  0  0  0  0
  -26.9190  -15.7800   19.6820 H   0  0  0  0  0  0  0  0  0  0  0  0
  -28.2290  -22.3570   18.2080 C   0  0  0  0  0  2  0  0  0  0  0  0
  -26.8710  -20.7960   16.7510 C   0  0  0  0  0  2  0  0  0  0  0  0
  -26.9750  -21.5900   17.8270 C   0  0  0  0  0  3  0  0  0  0  0  0
  -27.8920  -24.3570   20.3870 C   0  0  0  0  0  2  0  0  0  0  0  0
  -28.5850  -25.4750   19.5570 C   0  0  0  0  0  2  0  0  0  0  0  0
  -28.4810  -26.7950   20.1210 O   0  0  0  0  0  0  0  0  0  0  0  0
  -24.6490  -31.8970   23.2320 C   0  0  0  0  0  0  0  0  0  0  0  0
  -27.2900  -27.4950   20.0830 C   0  0  0  0  0  0  0  0  0  0  0  0
  -23.4400  -30.5260   21.5630 C   0  0  0  0  0  3  0  0  0  0  0  0
  -24.8930  -29.0100   20.1100 C   0  0  0  0  0  0  0  0  0  0  0  0
  -25.9630  -30.8840   21.3720 C   0  0  0  0  0  2  0  0  0  0  0  0
  -26.0470  -29.5180   20.7190 C   0  0  0  0  0  0  0  0  0  0  0  0
  -27.2410  -28.7640   20.7100 C   0  0  0  0  0  3  0  0  0  0  0  0
  -26.1190  -27.0060   19.4570 C   0  0  0  0  0  3  0  0  0  0  0  0
  -24.9250  -27.7540   19.4790 C   0  0  0  0  0  3  0  0  0  0  0  0
  -23.6490  -29.8670   20.1720 C   0  0  0  0  0  2  0  0  0  0  0  0
  -24.7030  -31.1150   22.1170 N   0  0  0  0  0  0  0  0  0  0  0  0
  -23.5680  -32.1640   23.7750 O   0  0  0  0  0  0  0  0  0  0  0  0
  -22.7840  -29.4900   22.5060 C   0  0  0  0  0  0  0  0  0  0  0  0
  -21.4600  -29.3080   22.3650 N   0  0  0  0  0  0  0  0  0  0  0  0
  -23.4620  -28.8520   23.3150 O   0  0  0  0  0  0  0  0  0  0  0  0
  -20.9730  -29.8770   21.6860 H   0  0  0  0  0  0  0  0  0  0  0  0
  -18.0880  -28.0940   22.8040 C   0  0  0  0  0  0  0  0  0  0  0  0
  -20.6400  -28.3560   23.1110 C   0  0  0  0  0  3  0  0  0  0  0  0
  -20.7560  -26.9350   22.5160 C   0  0  0  0  0  2  0  0  0  0  0  0
  -19.6670  -26.6210   21.4850 C   0  0  0  0  0  2  0  0  0  0  0  0
  -18.2770  -26.7530   22.1140 C   0  0  0  0  0  2  0  0  0  0  0  0
  -19.1990  -28.8540   23.2570 C   0  0  0  0  0  0  0  0  0  0  0  0
  -18.9720  -30.1110   23.8560 C   0  0  0  0  0  3  0  0  0  0  0  0
  -17.6650  -30.6060   24.0190 C   0  0  0  0  0  3  0  0  0  0  0  0
  -16.5670  -29.8430   23.5870 C   0  0  0  0  0  3  0  0  0  0  0  0
  -16.7790  -28.5920   22.9810 C   0  0  0  0  0  3  0  0  0  0  0  0
  -25.9360  -32.5130   23.8640 C   0  0  0  0  0  3  0  0  0  0  0  0
  -25.6430  -33.9150   24.1930 N   0  0  0  0  0  0  0  0  0  0  0  0
  -26.0080  -34.9620   23.4410 C   0  0  0  0  0  0  0  0  0  0  0  0
  -26.6980  -34.8510   22.4230 O   0  0  0  0  0  0  0  0  0  0  0  0
  -25.0470  -34.0770   24.9910 H   0  0  0  0  0  0  0  0  0  0  0  0
  -24.3270  -36.7860   23.0340 C   0  0  0  0  0  1  0  0  0  0  0  0
  -25.5290  -36.3560   23.8900 C   0  0  0  0  0  3  0  0  0  0  0  0
  -27.6470  -37.1990   24.8010 C   0  0  0  0  0  1  0  0  0  0  0  0
  -26.5810  -37.3920   23.8200 N   0  0  0  0  0  0  0  0  0  0  0  0
  -26.1860  -38.3160   23.9650 H   0  0  0  0  0  0  0  0  0  0  0  0
  -26.4350  -31.7300   25.1410 C   0  0  1  0  0  0  0  0  0  0  0  0
  -25.3300  -31.4880   26.1960 C   0  0  0  0  0  1  0  0  0  0  0  0
  -27.0170  -30.3530   24.7400 C   0  0  0  0  0  1  0  0  0  0  0  0
  -27.5850  -32.5110   25.8200 C   0  0  0  0  0  1  0  0  0  0  0  0
  1  3  2  0
  2  8  1  0
  2  1  1  0
  4  7  1  0
  5  4  2  0
  5  8  1  0
  7  6  2  0
  8  9  2  0
  9  6  1  0
  9 10  1  0
 11  7  1  0
 11 21  1  0
 12 21  1  0
 13 18  1  0
 14 15  1  0
 14 13  1  0
 16 15  1  0
 16 25  1  0
 16 17  1  0
 18 12  1  0
 18 17  1  0
 19 12  2  0
 21 20  1  0
 22 23  2  0
 23 42  1  0
 24 23  1  0
 24 27  1  0
 25 26  1  0
 25 22  1  0
 26 24  2  0
 27 28  1  0
 28 29  2  0
 30 33  1  0
 30 29  1  0
 31 30  2  0
 32 31  1  0
 32 27  2  0
 33 34  1  0
 34 39  2  0
 34 35  1  0
 35 36  2  0
 36 37  1  0
 37 41  1  0
 38 37  2  0
 39 38  1  0
 40 39  1  0
 42 43  1  0
 43 46  1  0
 43 45  1  0
 44 42  2  0
 47 48  1  0
 47 22  1  0
 49 47  1  0
 50  2  1  0
 51 52  2  0
 52 50  1  0
 53  1  1  0
 54 55  1  0
 54 53  1  0
 56 67  2  0
 57 55  1  0
 57 62  1  0
 58 66  1  0
 58 68  1  0
 59 65  1  0
 59 61  1  0
 60 66  1  0
 61 60  1  0
 62 61  2  0
 63 64  1  0
 63 57  2  0
 64 59  2  0
 65 58  1  0
 66 56  1  0
 68 70  2  0
 69 68  1  0
 71 69  1  0
 72 81  2  0
 72 77  1  0
 73 69  1  0
 73 77  1  0
 74 73  1  0
 75 76  1  0
 75 74  1  0
 76 72  1  0
 77 78  2  0
 78 79  1  0
 80 79  2  0
 81 80  1  0
 82 56  1  0
 82 83  1  0
 82 92  1  0
 83 86  1  0
 84 88  1  0
 84 83  1  0
 85 84  2  0
 88 87  1  0
 90 88  1  0
 90 91  1  0
 90 89  1  0
 92 95  1  1
 92 93  1  0
 94 92  1  0
M  ISO  4  12 100  21 100  54 101  55 101
M  END
>  <TORSDO>  (28) 
F 22

>  <SCORE>  (28) 
-11.124

>  <name>  (28) 
27

>  <ligand_id>  (28) 
27

>  <original_smiles>  (28) 
[H]C([H])=C([H])C([H])([H])N(C(=O)C([H])([H])C([H])([H])Oc1c([H])c([H])c2c(c1[H])C([H])([H])N(C(=O)C([H])(N([H])C(=O)C([H])(N([H])C([H])([H])[H])C([H])([H])[H])C(C([H])([H])[H])(C([H])([H])[H])C([H])([H])[H])C([H])(C(=O)N([H])C1([H])c3c([H])c([H])c([H])c([H])c3C([H])([H])C([H])([H])C1([H])[H])C2([H])[H])c1c([H])c([H])c(C([H])([H])N(C(=O)N2C([H])([H])C([H])([H])C([H])([H])C([H])(n3nc(-c4c([H])c([H])c(Oc5c([H])c([H])c(F)c([H])c5F)c([H])c4[H])c(C(=O)N([H])[H])c3N([H])[H])C2([H])[H])C([H])([H])[H])c([H])c1F

>  <smiles>  (28) 
[H]C([H])=C([H])C([H])([H])N(C(=O)C([H])([H])C([H])([H])Oc1c([H])c([H])c2c(c1[H])C([H])([H])N(C(=O)C([H])(N([H])C(=O)C([H])(N([H])C([H])([H])[H])C([H])([H])[H])C(C([H])([H])[H])(C([H])([H])[H])C([H])([H])[H])C([H])(C(=O)N([H])C1([H])c3c([H])c([H])c([H])c([H])c3C([H])([H])C([H])([H])C1([H])[H])C2([H])[H])c1c([H])c([H])c(C([H])([H])N(C(=O)N2C([H])([H])C([H])([H])C([H])([H])C([H])(n3nc(-c4c([H])c([H])c(Oc5c([H])c([H])c(F)c([H])c5F)c([H])c4[H])c(C(=O)N([H])[H])c3N([H])[H])C2([H])[H])C([H])([H])[H])c([H])c1F

$$$$
28:0:0
     RDKit          3D

 93102  0  0  1  0  0  0  0  0999 V2000
  -28.3060  -23.2080   19.8620 C   0  0  0  0  0  0  0  0  0  0  0  0
  -30.0150  -23.4480   21.0060 C   0  0  0  0  0  2  0  0  0  0  0  0
  -29.2710  -24.4090   20.0550 C   0  0  0  0  0  3  0  0  0  0  0  0
  -29.0340  -22.3830   20.7040 N   0  0  0  0  0  0  0  0  0  0  0  0
  -27.2620  -23.0110   19.2770 O   0  0  0  0  0  0  0  0  0  0  0  0
  -28.6600  -21.1270   21.3990 C   0  0  0  0  0  2  0  0  0  0  0  0
  -28.5380  -18.5790   21.2330 C   0  0  0  0  0  3  0  0  0  0  0  0
  -29.0270  -17.3070   20.8520 C   0  0  0  0  0  3  0  0  0  0  0  0
  -30.5440  -19.6270   20.3810 C   0  0  0  0  0  3  0  0  0  0  0  0
  -29.2690  -19.7670   20.9780 C   0  0  0  0  0  0  0  0  0  0  0  0
  -30.2630  -17.1710   20.1880 C   0  0  0  0  0  0  0  0  0  0  0  0
  -31.0340  -18.3520   19.9870 C   0  0  0  0  0  0  0  0  0  0  0  0
  -32.2240  -18.2820   19.3430 F   0  0  0  0  0  0  0  0  0  0  0  0
  -31.2960  -14.8960   19.9240 C   0  0  0  0  0  0  0  0  0  0  0  0
  -30.9990  -12.6390   18.9790 C   0  0  0  0  0  2  0  0  0  0  0  0
  -30.0240  -12.7260   17.7850 C   0  0  0  0  0  2  0  0  0  0  0  0
  -28.5610  -12.6420   18.2620 C   0  0  0  0  0  2  0  0  0  0  0  0
  -28.2420  -13.5500   19.4800 C   0  0  0  0  0  3  0  0  0  0  0  0
  -29.3340  -13.4460   20.5680 C   0  0  0  0  0  2  0  0  0  0  0  0
  -30.6290  -13.7060   19.9240 N   0  0  0  0  0  0  0  0  0  0  0  0
  -32.5150  -14.9470   19.7440 O   0  0  0  0  0  0  0  0  0  0  0  0
  -30.5330  -16.1420   18.0110 C   0  0  0  0  0  1  0  0  0  0  0  0
  -30.5400  -15.9480   19.4750 N   0  0  0  0  0  0  0  0  0  0  0  0
  -25.8740  -14.1760   20.2670 C   0  0  0  0  0  0  0  0  0  0  0  0
  -24.8110  -13.4160   20.6660 C   0  0  0  0  0  0  0  0  0  0  0  0
  -25.2560  -12.0590   20.6160 C   0  0  0  0  0  0  0  0  0  0  0  0
  -26.9050  -13.2850   20.0080 N   0  0  0  0  0  0  0  0  0  0  0  0
  -26.5390  -12.0060   20.2800 N   0  0  0  0  0  0  0  0  0  0  0  0
  -24.5170  -10.8050   20.8150 C   0  0  0  0  0  0  0  0  0  0  0  0
  -24.8960   -9.8710   21.8030 C   0  0  0  0  0  3  0  0  0  0  0  0
  -24.1550   -8.6820   21.9810 C   0  0  0  0  0  3  0  0  0  0  0  0
  -23.0260   -8.4180   21.1720 C   0  0  0  0  0  0  0  0  0  0  0  0
  -22.6670   -9.3420   20.1770 C   0  0  0  0  0  3  0  0  0  0  0  0
  -23.4070  -10.5230   19.9950 C   0  0  0  0  0  3  0  0  0  0  0  0
  -22.2630   -7.2790   21.2600 O   0  0  0  0  0  0  0  0  0  0  0  0
  -22.0340   -6.6530   22.4580 C   0  0  0  0  0  0  0  0  0  0  0  0
  -21.4130   -7.3190   23.5370 C   0  0  0  0  0  3  0  0  0  0  0  0
  -21.1370   -6.6210   24.7300 C   0  0  0  0  0  3  0  0  0  0  0  0
  -21.4660   -5.2580   24.8430 C   0  0  0  0  0  0  0  0  0  0  0  0
  -22.0770   -4.5910   23.7680 C   0  0  0  0  0  3  0  0  0  0  0  0
  -22.3570   -5.2860   22.5780 C   0  0  0  0  0  0  0  0  0  0  0  0
  -22.9250   -4.6320   21.5360 F   0  0  0  0  0  0  0  0  0  0  0  0
  -21.1940   -4.5870   25.9870 F   0  0  0  0  0  0  0  0  0  0  0  0
  -23.4280  -13.9080   20.9760 C   0  0  0  0  0  0  0  0  0  0  0  0
  -22.7240  -13.2380   21.8800 N   0  0  0  0  0  0  0  0  0  0  0  0
  -22.9810  -14.9290   20.4520 O   0  0  0  0  0  0  0  0  0  0  0  0
  -23.0950  -12.4130   22.3300 H   0  0  0  0  0  0  0  0  0  0  0  0
  -21.7970  -13.5510   22.1270 H   0  0  0  0  0  0  0  0  0  0  0  0
  -26.0330  -15.5430   20.0740 N   0  0  0  0  0  0  0  0  0  0  0  0
  -25.2500  -16.1840   20.1480 H   0  0  0  0  0  0  0  0  0  0  0  0
  -26.8410  -15.9550   19.6270 H   0  0  0  0  0  0  0  0  0  0  0  0
  -28.6030  -25.7100   20.6050 C   0  0  0  0  0  2  0  0  0  0  0  0
  -28.5910  -26.8650   19.7200 O   0  0  0  0  0  0  0  0  0  0  0  0
  -24.7380  -31.8380   23.1200 C   0  0  0  0  0  0  0  0  0  0  0  0
  -27.4330  -27.6190   19.7720 C   0  0  0  0  0  0  0  0  0  0  0  0
  -23.5340  -30.4810   21.4400 C   0  0  0  0  0  3  0  0  0  0  0  0
  -24.9990  -29.0640   19.9000 C   0  0  0  0  0  0  0  0  0  0  0  0
  -26.0400  -30.9320   21.1930 C   0  0  0  0  0  2  0  0  0  0  0  0
  -26.1570  -29.5940   20.4840 C   0  0  0  0  0  0  0  0  0  0  0  0
  -27.3800  -28.8830   20.4130 C   0  0  0  0  0  3  0  0  0  0  0  0
  -26.2620  -27.1120   19.1750 C   0  0  0  0  0  3  0  0  0  0  0  0
  -25.0480  -27.8230   19.2390 C   0  0  0  0  0  3  0  0  0  0  0  0
  -23.7280  -29.8770   20.0220 C   0  0  0  0  0  2  0  0  0  0  0  0
  -24.7910  -31.0980   21.9760 N   0  0  0  0  0  0  0  0  0  0  0  0
  -23.6650  -32.0470   23.7030 O   0  0  0  0  0  0  0  0  0  0  0  0
  -22.9400  -29.3940   22.3660 C   0  0  0  0  0  0  0  0  0  0  0  0
  -21.6230  -29.1560   22.2480 N   0  0  0  0  0  0  0  0  0  0  0  0
  -23.6630  -28.7650   23.1430 O   0  0  0  0  0  0  0  0  0  0  0  0
  -21.0980  -29.7190   21.5950 H   0  0  0  0  0  0  0  0  0  0  0  0
  -18.3260  -27.7460   22.6950 C   0  0  0  0  0  0  0  0  0  0  0  0
  -20.8620  -28.1490   22.9870 C   0  0  0  0  0  3  0  0  0  0  0  0
  -21.0520  -26.7430   22.3720 C   0  0  0  0  0  2  0  0  0  0  0  0
  -19.9760  -26.3850   21.3420 C   0  0  0  0  0  2  0  0  0  0  0  0
  -18.5870  -26.4290   21.9830 C   0  0  0  0  0  2  0  0  0  0  0  0
  -19.3950  -28.5610   23.1530 C   0  0  0  0  0  0  0  0  0  0  0  0
  -19.1000  -29.7910   23.7790 C   0  0  0  0  0  3  0  0  0  0  0  0
  -17.7680  -30.2110   23.9500 C   0  0  0  0  0  3  0  0  0  0  0  0
  -16.7130  -29.3950   23.5060 C   0  0  0  0  0  3  0  0  0  0  0  0
  -16.9920  -28.1630   22.8880 C   0  0  0  0  0  3  0  0  0  0  0  0
  -26.0190  -32.4830   23.7380 C   0  0  0  0  0  3  0  0  0  0  0  0
  -26.5970  -31.6670   24.9580 C   0  0  1  0  0  0  0  0  0  0  0  0
  -25.5420  -31.3420   26.0400 C   0  0  0  0  0  1  0  0  0  0  0  0
  -27.2110  -30.3310   24.4770 C   0  0  0  0  0  1  0  0  0  0  0  0
  -27.7410  -32.4650   25.6250 C   0  0  0  0  0  1  0  0  0  0  0  0
  -25.6710  -33.8520   24.1440 N   0  0  0  0  0  0  0  0  0  0  0  0
  -25.9590  -34.9510   23.4340 C   0  0  0  0  0  0  0  0  0  0  0  0
  -26.6130  -34.9210   22.3880 O   0  0  0  0  0  0  0  0  0  0  0  0
  -25.0770  -33.9470   24.9550 H   0  0  0  0  0  0  0  0  0  0  0  0
  -24.1770  -36.7140   23.2000 C   0  0  0  0  0  1  0  0  0  0  0  0
  -25.4410  -36.3000   23.9700 C   0  0  0  0  0  3  0  0  0  0  0  0
  -27.5570  -37.2100   24.8230 C   0  0  0  0  0  1  0  0  0  0  0  0
  -26.4430  -37.3860   23.8950 N   0  0  0  0  0  0  0  0  0  0  0  0
  -26.0120  -38.2860   24.0880 H   0  0  0  0  0  0  0  0  0  0  0  0
  1  3  1  0
  1  4  1  0
  3 52  1  0
  3  2  1  0
  4  2  1  0
  4  6  1  0
  5  1  2  0
  8  7  2  0
  9 10  2  0
 10  7  1  0
 10  6  1  0
 11  8  1  0
 12 11  2  0
 12  9  1  0
 13 12  1  0
 14 20  1  0
 15 20  1  0
 16 17  1  0
 16 15  1  0
 18 17  1  0
 18 27  1  0
 18 19  1  0
 20 19  1  0
 21 14  2  0
 22 23  1  0
 23 14  1  0
 23 11  1  0
 24 25  2  0
 25 44  1  0
 26 25  1  0
 26 29  1  0
 27 24  1  0
 27 28  1  0
 28 26  2  0
 29 30  1  0
 30 31  2  0
 32 35  1  0
 32 31  1  0
 33 32  2  0
 34 33  1  0
 34 29  2  0
 35 36  1  0
 36 41  2  0
 36 37  1  0
 37 38  2  0
 38 39  1  0
 39 43  1  0
 40 39  2  0
 41 40  1  0
 42 41  1  0
 44 45  1  0
 45 48  1  0
 45 47  1  0
 46 44  2  0
 49 50  1  0
 49 24  1  0
 51 49  1  0
 53 55  1  0
 53 52  1  0
 54 65  2  0
 55 60  1  0
 56 64  1  0
 56 66  1  0
 57 63  1  0
 57 59  1  0
 58 64  1  0
 59 58  1  0
 60 59  2  0
 61 62  1  0
 61 55  2  0
 62 57  2  0
 63 56  1  0
 64 54  1  0
 66 68  2  0
 67 66  1  0
 69 67  1  0
 70 79  2  0
 70 75  1  0
 71 67  1  0
 71 75  1  0
 72 71  1  0
 73 74  1  0
 73 72  1  0
 74 70  1  0
 75 76  2  0
 76 77  1  0
 78 77  2  0
 79 78  1  0
 80 54  1  0
 80 85  1  0
 80 81  1  0
 81 84  1  1
 81 82  1  0
 83 81  1  0
 85 88  1  0
 86 90  1  0
 86 85  1  0
 87 86  2  0
 90 89  1  0
 92 90  1  0
 92 93  1  0
 92 91  1  0
M  ISO  4  14 100  23 100  52 101  53 101
M  END
>  <TORSDO>  (29) 
F 19

>  <SCORE>  (29) 
-11.870

>  <name>  (29) 
28

>  <ligand_id>  (29) 
28

>  <original_smiles>  (29) 
[H]c1c([H])c([H])c2c(c1[H])C([H])([H])C([H])([H])C([H])([H])C2([H])N([H])C(=O)C1([H])N(C(=O)C([H])(N([H])C(=O)C([H])(N([H])C([H])([H])[H])C([H])([H])[H])C(C([H])([H])[H])(C([H])([H])[H])C([H])([H])[H])C([H])([H])c2c([H])c(OC([H])([H])C3([H])C(=O)N(C([H])([H])c4c([H])c([H])c(N(C(=O)N5C([H])([H])C([H])([H])C([H])([H])C([H])(n6nc(-c7c([H])c([H])c(Oc8c([H])c([H])c(F)c([H])c8F)c([H])c7[H])c(C(=O)N([H])[H])c6N([H])[H])C5([H])[H])C([H])([H])[H])c(F)c4[H])C3([H])[H])c([H])c([H])c2C1([H])[H]

>  <smiles>  (29) 
[H]c1c([H])c([H])c2c(c1[H])C([H])([H])C([H])([H])C([H])([H])C2([H])N([H])C(=O)C1([H])N(C(=O)C([H])(N([H])C(=O)C([H])(N([H])C([H])([H])[H])C([H])([H])[H])C(C([H])([H])[H])(C([H])([H])[H])C([H])([H])[H])C([H])([H])c2c([H])c(OC([H])([H])C3([H])C(=O)N(C([H])([H])c4c([H])c([H])c(N(C(=O)N5C([H])([H])C([H])([H])C([H])([H])C([H])(n6nc(-c7c([H])c([H])c(Oc8c([H])c([H])c(F)c([H])c8F)c([H])c7[H])c(C(=O)N([H])[H])c6N([H])[H])C5([H])[H])C([H])([H])[H])c(F)c4[H])C3([H])[H])c([H])c([H])c2C1([H])[H]

$$$$
29:0:0
     RDKit          3D

 93101  0  0  1  0  0  0  0  0999 V2000
  -28.9570  -22.3490   21.0570 C   0  0  0  0  0  0  0  0  0  0  0  0
  -29.7880  -23.3220   20.6530 N   0  0  0  0  0  0  0  0  0  0  0  0
  -27.8930  -22.5750   21.6370 O   0  0  0  0  0  0  0  0  0  0  0  0
  -30.6310  -23.0320   20.1780 H   0  0  0  0  0  0  0  0  0  0  0  0
  -30.6270  -20.4590   21.2660 C   0  0  0  0  0  3  0  0  0  0  0  0
  -31.0330  -19.1330   21.0160 C   0  0  0  0  0  3  0  0  0  0  0  0
  -28.9860  -18.7350   19.7600 C   0  0  0  0  0  3  0  0  0  0  0  0
  -29.3930  -20.9390   20.7650 C   0  0  0  0  0  0  0  0  0  0  0  0
  -30.2230  -18.2670   20.2470 C   0  0  0  0  0  0  0  0  0  0  0  0
  -28.5670  -20.0590   20.0230 C   0  0  0  0  0  0  0  0  0  0  0  0
  -27.3840  -20.4840   19.5180 F   0  0  0  0  0  0  0  0  0  0  0  0
  -30.7560  -16.8940   19.8400 C   0  0  0  0  0  2  0  0  0  0  0  0
  -30.8720  -14.5030   20.1460 C   0  0  0  0  0  0  0  0  0  0  0  0
  -30.3800  -12.4200   18.9290 C   0  0  0  0  0  2  0  0  0  0  0  0
  -29.4040  -12.7070   17.7720 C   0  0  0  0  0  2  0  0  0  0  0  0
  -27.9490  -12.5750   18.2620 C   0  0  0  0  0  2  0  0  0  0  0  0
  -27.6850  -13.3560   19.5790 C   0  0  0  0  0  3  0  0  0  0  0  0
  -28.7910  -13.0890   20.6220 C   0  0  0  0  0  2  0  0  0  0  0  0
  -30.0890  -13.3930   19.9980 N   0  0  0  0  0  0  0  0  0  0  0  0
  -31.9860  -14.5580   19.6190 O   0  0  0  0  0  0  0  0  0  0  0  0
  -29.8400  -15.8550   21.9340 C   0  0  0  0  0  1  0  0  0  0  0  0
  -30.2900  -15.6690   20.5490 N   0  0  0  0  0  0  0  0  0  0  0  0
  -25.3230  -13.9450   20.4010 C   0  0  0  0  0  0  0  0  0  0  0  0
  -24.2690  -13.1650   20.7990 C   0  0  0  0  0  0  0  0  0  0  0  0
  -24.7280  -11.8140   20.7260 C   0  0  0  0  0  0  0  0  0  0  0  0
  -26.3560  -13.0680   20.1120 N   0  0  0  0  0  0  0  0  0  0  0  0
  -26.0050  -11.7810   20.3670 N   0  0  0  0  0  0  0  0  0  0  0  0
  -24.0070  -10.5500   20.9250 C   0  0  0  0  0  0  0  0  0  0  0  0
  -24.4470   -9.5890   21.8630 C   0  0  0  0  0  3  0  0  0  0  0  0
  -23.7280   -8.3880   22.0480 C   0  0  0  0  0  3  0  0  0  0  0  0
  -22.5540   -8.1410   21.2980 C   0  0  0  0  0  0  0  0  0  0  0  0
  -22.1340   -9.0900   20.3500 C   0  0  0  0  0  3  0  0  0  0  0  0
  -22.8530  -10.2820   20.1620 C   0  0  0  0  0  3  0  0  0  0  0  0
  -21.8060   -6.9930   21.3930 O   0  0  0  0  0  0  0  0  0  0  0  0
  -21.7200   -6.2840   22.5650 C   0  0  0  0  0  0  0  0  0  0  0  0
  -21.2510   -6.8740   23.7590 C   0  0  0  0  0  3  0  0  0  0  0  0
  -21.1140   -6.0910   24.9230 C   0  0  0  0  0  3  0  0  0  0  0  0
  -21.4340   -4.7210   24.8950 C   0  0  0  0  0  0  0  0  0  0  0  0
  -21.8960   -4.1310   23.7050 C   0  0  0  0  0  3  0  0  0  0  0  0
  -22.0370   -4.9100   22.5430 C   0  0  0  0  0  0  0  0  0  0  0  0
  -22.4620   -4.3330   21.3920 F   0  0  0  0  0  0  0  0  0  0  0  0
  -21.2950   -3.9660   26.0090 F   0  0  0  0  0  0  0  0  0  0  0  0
  -22.8850  -13.6380   21.1350 C   0  0  0  0  0  0  0  0  0  0  0  0
  -22.1930  -12.9310   22.0210 N   0  0  0  0  0  0  0  0  0  0  0  0
  -22.4270  -14.6710   20.6470 O   0  0  0  0  0  0  0  0  0  0  0  0
  -22.5790  -12.0980   22.4380 H   0  0  0  0  0  0  0  0  0  0  0  0
  -21.2660  -13.2290   22.2860 H   0  0  0  0  0  0  0  0  0  0  0  0
  -25.4810  -15.3170   20.2410 N   0  0  0  0  0  0  0  0  0  0  0  0
  -24.7220  -15.9720   20.3920 H   0  0  0  0  0  0  0  0  0  0  0  0
  -26.3290  -15.7610   19.9070 H   0  0  0  0  0  0  0  0  0  0  0  0
  -29.6020  -24.7640   20.8610 C   0  0  0  0  0  2  0  0  0  0  0  0
  -28.3980  -25.3580   20.0920 C   0  0  0  0  0  2  0  0  0  0  0  0
  -28.4240  -26.7840   20.2110 O   0  0  0  0  0  0  0  0  0  0  0  0
  -24.6140  -31.9250   23.2660 C   0  0  0  0  0  0  0  0  0  0  0  0
  -27.2280  -27.4730   20.1880 C   0  0  0  0  0  0  0  0  0  0  0  0
  -23.3920  -30.5240   21.6350 C   0  0  0  0  0  3  0  0  0  0  0  0
  -24.8300  -28.9770   20.2050 C   0  0  0  0  0  0  0  0  0  0  0  0
  -25.9130  -30.8790   21.4120 C   0  0  0  0  0  2  0  0  0  0  0  0
  -25.9900  -29.5060   20.7800 C   0  0  0  0  0  0  0  0  0  0  0  0
  -27.1910  -28.7630   20.7630 C   0  0  0  0  0  3  0  0  0  0  0  0
  -26.0480  -26.9550   19.6060 C   0  0  0  0  0  3  0  0  0  0  0  0
  -24.8530  -27.7030   19.6120 C   0  0  0  0  0  3  0  0  0  0  0  0
  -23.5870  -29.8380   20.2570 C   0  0  0  0  0  2  0  0  0  0  0  0
  -24.6590  -31.1270   22.1620 N   0  0  0  0  0  0  0  0  0  0  0  0
  -23.5390  -32.1980   23.8150 O   0  0  0  0  0  0  0  0  0  0  0  0
  -22.7460  -29.5060   22.6030 C   0  0  0  0  0  0  0  0  0  0  0  0
  -21.4220  -29.3180   22.4750 N   0  0  0  0  0  0  0  0  0  0  0  0
  -23.4320  -28.8870   23.4210 O   0  0  0  0  0  0  0  0  0  0  0  0
  -20.9320  -29.8690   21.7850 H   0  0  0  0  0  0  0  0  0  0  0  0
  -18.0520  -28.1070   22.9660 C   0  0  0  0  0  0  0  0  0  0  0  0
  -20.6060  -28.3820   23.2490 C   0  0  0  0  0  3  0  0  0  0  0  0
  -20.7210  -26.9460   22.6860 C   0  0  0  0  0  2  0  0  0  0  0  0
  -19.6250  -26.6090   21.6690 C   0  0  0  0  0  2  0  0  0  0  0  0
  -18.2380  -26.7520   22.3040 C   0  0  0  0  0  2  0  0  0  0  0  0
  -19.1640  -28.8790   23.3950 C   0  0  0  0  0  0  0  0  0  0  0  0
  -18.9360  -30.1470   23.9720 C   0  0  0  0  0  3  0  0  0  0  0  0
  -17.6290  -30.6430   24.1260 C   0  0  0  0  0  3  0  0  0  0  0  0
  -16.5310  -29.8700   23.7120 C   0  0  0  0  0  3  0  0  0  0  0  0
  -16.7430  -28.6020   23.1380 C   0  0  0  0  0  3  0  0  0  0  0  0
  -25.9060  -32.5540   23.8780 C   0  0  0  0  0  3  0  0  0  0  0  0
  -26.4300  -31.7790   25.1480 C   0  0  1  0  0  0  0  0  0  0  0  0
  -25.3450  -31.5400   26.2240 C   0  0  0  0  0  1  0  0  0  0  0  0
  -27.0100  -30.4030   24.7430 C   0  0  0  0  0  1  0  0  0  0  0  0
  -27.5860  -32.5720   25.8030 C   0  0  0  0  0  1  0  0  0  0  0  0
  -25.6010  -33.9520   24.2110 N   0  0  0  0  0  0  0  0  0  0  0  0
  -25.9290  -35.0030   23.4490 C   0  0  0  0  0  0  0  0  0  0  0  0
  -26.5920  -34.8980   22.4110 O   0  0  0  0  0  0  0  0  0  0  0  0
  -25.0150  -34.1060   25.0180 H   0  0  0  0  0  0  0  0  0  0  0  0
  -24.1990  -36.7960   23.1060 C   0  0  0  0  0  1  0  0  0  0  0  0
  -25.4470  -36.3930   23.9080 C   0  0  0  0  0  3  0  0  0  0  0  0
  -27.5890  -37.2780   24.7180 C   0  0  0  0  0  1  0  0  0  0  0  0
  -26.4820  -37.4440   23.7810 N   0  0  0  0  0  0  0  0  0  0  0  0
  -26.0800  -38.3660   23.9220 H   0  0  0  0  0  0  0  0  0  0  0  0
  1  3  2  0
  2 51  1  0
  2  1  1  0
  4  2  1  0
  6  5  1  0
  7 10  2  0
  7  9  1  0
  8  1  1  0
  8  5  2  0
  9  6  2  0
 10  8  1  0
 11 10  1  0
 12  9  1  0
 12 22  1  0
 13 22  1  0
 14 19  1  0
 15 16  1  0
 15 14  1  0
 17 16  1  0
 17 26  1  0
 17 18  1  0
 19 13  1  0
 19 18  1  0
 20 13  2  0
 22 21  1  0
 23 24  2  0
 24 43  1  0
 25 24  1  0
 25 28  1  0
 26 27  1  0
 26 23  1  0
 27 25  2  0
 28 29  1  0
 29 30  2  0
 31 34  1  0
 31 30  1  0
 32 31  2  0
 33 32  1  0
 33 28  2  0
 34 35  1  0
 35 36  1  0
 36 37  2  0
 38 37  1  0
 38 42  1  0
 39 38  2  0
 40 35  2  0
 40 39  1  0
 41 40  1  0
 43 44  1  0
 44 47  1  0
 44 46  1  0
 45 43  2  0
 48 49  1  0
 48 23  1  0
 50 48  1  0
 52 53  1  0
 52 51  1  0
 54 65  2  0
 55 53  1  0
 55 60  1  0
 56 64  1  0
 56 66  1  0
 57 63  1  0
 57 59  1  0
 58 64  1  0
 59 58  1  0
 60 59  2  0
 61 62  1  0
 61 55  2  0
 62 57  2  0
 63 56  1  0
 64 54  1  0
 66 68  2  0
 67 66  1  0
 69 67  1  0
 70 79  2  0
 70 75  1  0
 71 67  1  0
 71 75  1  0
 72 71  1  0
 73 74  1  0
 73 72  1  0
 74 70  1  0
 75 76  2  0
 76 77  1  0
 78 77  2  0
 79 78  1  0
 80 54  1  0
 80 85  1  0
 80 81  1  0
 81 84  1  1
 81 82  1  0
 83 81  1  0
 85 88  1  0
 86 90  1  0
 86 85  1  0
 87 86  2  0
 90 89  1  0
 92 90  1  0
 92 93  1  0
 92 91  1  0
M  ISO  4  13 100  22 100  52 101  53 101
M  END
>  <TORSDO>  (30) 
F 20

>  <SCORE>  (30) 
-13.787

>  <name>  (30) 
29

>  <ligand_id>  (30) 
29

>  <original_smiles>  (30) 
[H]c1c([H])c([H])c2c(c1[H])C([H])([H])C([H])([H])C([H])([H])C2([H])N([H])C(=O)C1([H])N(C(=O)C([H])(N([H])C(=O)C([H])(N([H])C([H])([H])[H])C([H])([H])[H])C(C([H])([H])[H])(C([H])([H])[H])C([H])([H])[H])C([H])([H])c2c([H])c(OC([H])([H])C([H])([H])N([H])C(=O)c3c([H])c([H])c(C([H])([H])N(C(=O)N4C([H])([H])C([H])([H])C([H])([H])C([H])(n5nc(-c6c([H])c([H])c(Oc7c([H])c([H])c(F)c([H])c7F)c([H])c6[H])c(C(=O)N([H])[H])c5N([H])[H])C4([H])[H])C([H])([H])[H])c([H])c3F)c([H])c([H])c2C1([H])[H]

>  <smiles>  (30) 
[H]c1c([H])c([H])c2c(c1[H])C([H])([H])C([H])([H])C([H])([H])C2([H])N([H])C(=O)C1([H])N(C(=O)C([H])(N([H])C(=O)C([H])(N([H])C([H])([H])[H])C([H])([H])[H])C(C([H])([H])[H])(C([H])([H])[H])C([H])([H])[H])C([H])([H])c2c([H])c(OC([H])([H])C([H])([H])N([H])C(=O)c3c([H])c([H])c(C([H])([H])N(C(=O)N4C([H])([H])C([H])([H])C([H])([H])C([H])(n5nc(-c6c([H])c([H])c(Oc7c([H])c([H])c(F)c([H])c7F)c([H])c6[H])c(C(=O)N([H])[H])c5N([H])[H])C4([H])[H])C([H])([H])[H])c([H])c3F)c([H])c([H])c2C1([H])[H]

$$$$
30:0:0
     RDKit          3D

 94102  0  0  1  0  0  0  0  0999 V2000
  -27.0740  -18.7570   19.5300 C   0  0  0  0  0  3  0  0  0  0  0  0
  -27.9540  -17.7710   20.0140 C   0  0  0  0  0  3  0  0  0  0  0  0
  -27.3170  -20.1210   19.7780 C   0  0  0  0  0  3  0  0  0  0  0  0
  -29.3250  -19.5130   21.0030 C   0  0  0  0  0  3  0  0  0  0  0  0
  -29.0770  -18.1250   20.7780 C   0  0  0  0  0  0  0  0  0  0  0  0
  -28.4690  -20.5440   20.4960 C   0  0  0  0  0  0  0  0  0  0  0  0
  -29.4540  -22.2970   21.9200 C   0  0  0  0  0  1  0  0  0  0  0  0
  -28.7520  -21.9350   20.6880 N   0  0  0  0  0  0  0  0  0  0  0  0
  -27.9300  -23.0130   20.0890 C   0  0  0  0  0  2  0  0  0  0  0  0
  -28.7040  -24.3280   19.7180 C   0  0  0  0  0  2  0  0  0  0  0  0
  -28.1850  -25.5910   20.4580 C   0  0  0  0  0  2  0  0  0  0  0  0
  -28.3780  -26.8480   19.7750 O   0  0  0  0  0  0  0  0  0  0  0  0
  -24.5900  -31.7750   23.2700 C   0  0  0  0  0  0  0  0  0  0  0  0
  -27.2420  -27.6300   19.8000 C   0  0  0  0  0  0  0  0  0  0  0  0
  -23.3760  -30.4850   21.5560 C   0  0  0  0  0  3  0  0  0  0  0  0
  -24.8240  -29.0790   19.9840 C   0  0  0  0  0  0  0  0  0  0  0  0
  -25.8880  -30.8970   21.3300 C   0  0  0  0  0  2  0  0  0  0  0  0
  -25.9860  -29.5790   20.5850 C   0  0  0  0  0  0  0  0  0  0  0  0
  -27.2030  -28.8590   20.4960 C   0  0  0  0  0  3  0  0  0  0  0  0
  -26.0710  -27.1600   19.1710 C   0  0  0  0  0  3  0  0  0  0  0  0
  -24.8580  -27.8640   19.2780 C   0  0  0  0  0  3  0  0  0  0  0  0
  -23.5650  -29.9050   20.1290 C   0  0  0  0  0  2  0  0  0  0  0  0
  -24.6380  -31.0610   22.1110 N   0  0  0  0  0  0  0  0  0  0  0  0
  -23.5180  -31.9850   23.8540 O   0  0  0  0  0  0  0  0  0  0  0  0
  -22.7640  -29.3820   22.4510 C   0  0  0  0  0  0  0  0  0  0  0  0
  -21.4460  -29.1680   22.3150 N   0  0  0  0  0  0  0  0  0  0  0  0
  -23.4710  -28.7250   23.2220 O   0  0  0  0  0  0  0  0  0  0  0  0
  -20.9180  -29.7980   21.7230 H   0  0  0  0  0  0  0  0  0  0  0  0
  -18.1500  -27.6980   22.6500 C   0  0  0  0  0  0  0  0  0  0  0  0
  -20.6730  -28.1210   22.9820 C   0  0  0  0  0  3  0  0  0  0  0  0
  -20.9060  -26.7430   22.3130 C   0  0  0  0  0  2  0  0  0  0  0  0
  -19.8180  -26.3230   21.3180 C   0  0  0  0  0  2  0  0  0  0  0  0
  -18.4290  -26.3720   21.9520 C   0  0  0  0  0  2  0  0  0  0  0  0
  -19.2010  -28.5200   23.1280 C   0  0  0  0  0  0  0  0  0  0  0  0
  -18.8820  -29.7500   23.7450 C   0  0  0  0  0  3  0  0  0  0  0  0
  -17.5440  -30.1640   23.8810 C   0  0  0  0  0  3  0  0  0  0  0  0
  -16.5030  -29.3450   23.4070 C   0  0  0  0  0  3  0  0  0  0  0  0
  -16.8080  -28.1090   22.8090 C   0  0  0  0  0  3  0  0  0  0  0  0
  -25.8790  -32.3810   23.9070 C   0  0  0  0  0  3  0  0  0  0  0  0
  -25.5800  -33.7740   24.2570 N   0  0  0  0  0  0  0  0  0  0  0  0
  -25.9410  -34.8370   23.5220 C   0  0  0  0  0  0  0  0  0  0  0  0
  -26.6300  -34.7410   22.5040 O   0  0  0  0  0  0  0  0  0  0  0  0
  -24.9630  -33.9240   25.0420 H   0  0  0  0  0  0  0  0  0  0  0  0
  -24.2430  -36.6500   23.1580 C   0  0  0  0  0  1  0  0  0  0  0  0
  -25.4630  -36.2220   23.9900 C   0  0  0  0  0  3  0  0  0  0  0  0
  -27.5870  -37.0690   24.8860 C   0  0  0  0  0  1  0  0  0  0  0  0
  -26.5110  -37.2650   23.9160 N   0  0  0  0  0  0  0  0  0  0  0  0
  -26.1140  -38.1890   24.0620 H   0  0  0  0  0  0  0  0  0  0  0  0
  -26.3830  -31.5850   25.1730 C   0  0  1  0  0  0  0  0  0  0  0  0
  -25.2890  -31.3420   26.2390 C   0  0  0  0  0  1  0  0  0  0  0  0
  -26.9410  -30.2050   24.7590 C   0  0  0  0  0  1  0  0  0  0  0  0
  -27.5470  -32.3490   25.8440 C   0  0  0  0  0  1  0  0  0  0  0  0
  -29.9780  -16.9830   21.3380 C   0  0  0  0  0  2  0  0  0  0  0  0
  -31.1780  -14.8610   20.7290 C   0  0  0  0  0  0  0  0  0  0  0  0
  -30.8690  -12.6050   19.7820 C   0  0  0  0  0  2  0  0  0  0  0  0
  -30.0690  -12.6640   18.4690 C   0  0  0  0  0  2  0  0  0  0  0  0
  -28.5480  -12.6350   18.7550 C   0  0  0  0  0  2  0  0  0  0  0  0
  -28.0960  -13.5590   19.9290 C   0  0  0  0  0  3  0  0  0  0  0  0
  -29.0650  -13.5040   21.1240 C   0  0  0  0  0  2  0  0  0  0  0  0
  -30.4150  -13.7370   20.6040 N   0  0  0  0  0  0  0  0  0  0  0  0
  -32.4050  -14.7570   20.6970 O   0  0  0  0  0  0  0  0  0  0  0  0
  -30.6280  -16.0680   20.3470 N   0  0  0  0  0  0  0  0  0  0  0  0
  -25.6800  -14.2070   20.5030 C   0  0  0  0  0  0  0  0  0  0  0  0
  -24.5780  -13.4560   20.7960 C   0  0  0  0  0  0  0  0  0  0  0  0
  -25.0120  -12.0950   20.7860 C   0  0  0  0  0  0  0  0  0  0  0  0
  -26.7190  -13.3030   20.3310 N   0  0  0  0  0  0  0  0  0  0  0  0
  -26.3190  -12.0290   20.5640 N   0  0  0  0  0  0  0  0  0  0  0  0
  -24.2440  -10.8550   20.9180 C   0  0  0  0  0  0  0  0  0  0  0  0
  -24.5990   -9.8630   21.8580 C   0  0  0  0  0  3  0  0  0  0  0  0
  -23.8350   -8.6810   21.9770 C   0  0  0  0  0  3  0  0  0  0  0  0
  -22.6980   -8.4880   21.1560 C   0  0  0  0  0  0  0  0  0  0  0  0
  -22.3600   -9.4720   20.2090 C   0  0  0  0  0  3  0  0  0  0  0  0
  -23.1250  -10.6420   20.0900 C   0  0  0  0  0  3  0  0  0  0  0  0
  -21.9070   -7.3650   21.1880 O   0  0  0  0  0  0  0  0  0  0  0  0
  -21.7520   -6.6300   22.3340 C   0  0  0  0  0  0  0  0  0  0  0  0
  -21.2490   -7.2000   23.5270 C   0  0  0  0  0  3  0  0  0  0  0  0
  -21.0340   -6.3890   24.6580 C   0  0  0  0  0  3  0  0  0  0  0  0
  -21.3180   -5.0110   24.6010 C   0  0  0  0  0  0  0  0  0  0  0  0
  -21.8160   -4.4430   23.4190 C   0  0  0  0  0  3  0  0  0  0  0  0
  -22.0300   -5.2500   22.2860 C   0  0  0  0  0  0  0  0  0  0  0  0
  -22.4900   -4.6930   21.1400 F   0  0  0  0  0  0  0  0  0  0  0  0
  -21.1070   -4.2290   25.6870 F   0  0  0  0  0  0  0  0  0  0  0  0
  -23.1770  -13.9680   20.9690 C   0  0  0  0  0  0  0  0  0  0  0  0
  -22.3850  -13.3210   21.8140 N   0  0  0  0  0  0  0  0  0  0  0  0
  -22.7900  -14.9810   20.3840 O   0  0  0  0  0  0  0  0  0  0  0  0
  -22.6990  -12.5040   22.3160 H   0  0  0  0  0  0  0  0  0  0  0  0
  -21.4460  -13.6630   21.9660 H   0  0  0  0  0  0  0  0  0  0  0  0
  -25.8700  -15.5740   20.3400 N   0  0  0  0  0  0  0  0  0  0  0  0
  -25.0970  -16.2300   20.3640 H   0  0  0  0  0  0  0  0  0  0  0  0
  -26.7360  -16.0060   20.0480 H   0  0  0  0  0  0  0  0  0  0  0  0
  -31.4250  -16.8820   19.3780 C   0  0  0  0  0  2  0  0  0  0  0  0
  -31.0150  -18.6630   17.6420 C   0  0  0  0  0  1  0  0  0  0  0  0
  -29.3600  -16.7360   17.6960 C   0  0  0  0  0  1  0  0  0  0  0  0
  -30.8100  -17.1780   17.9800 C   0  0  0  0  0  3  0  0  0  0  0  0
  1  3  2  0
  1  2  1  0
  2  5  2  0
  3  6  1  0
  5  4  1  0
  5 53  1  0
  6  8  1  0
  6  4  2  0
  8  7  1  0
  9  8  1  0
 10  9  1  0
 10 11  1  0
 12 14  1  0
 12 11  1  0
 13 24  2  0
 14 19  1  0
 15 23  1  0
 15 25  1  0
 16 22  1  0
 16 18  1  0
 17 23  1  0
 18 17  1  0
 19 18  2  0
 20 21  1  0
 20 14  2  0
 21 16  2  0
 22 15  1  0
 23 13  1  0
 25 27  2  0
 26 25  1  0
 28 26  1  0
 29 38  2  0
 29 34  1  0
 30 26  1  0
 30 34  1  0
 31 30  1  0
 32 33  1  0
 32 31  1  0
 33 29  1  0
 34 35  2  0
 35 36  1  0
 37 36  2  0
 38 37  1  0
 39 13  1  0
 39 40  1  0
 39 49  1  0
 40 43  1  0
 41 45  1  0
 41 40  1  0
 42 41  2  0
 45 44  1  0
 47 45  1  0
 47 48  1  0
 47 46  1  0
 49 52  1  1
 49 50  1  0
 51 49  1  0
 55 60  1  0
 56 57  1  0
 56 55  1  0
 58 57  1  0
 58 66  1  0
 58 59  1  0
 60 54  1  0
 60 59  1  0
 61 54  2  0
 62 54  1  0
 62 53  1  0
 63 64  2  0
 64 83  1  0
 65 64  1  0
 65 68  1  0
 66 63  1  0
 66 67  1  0
 67 65  2  0
 68 69  1  0
 69 70  2  0
 71 74  1  0
 71 70  1  0
 72 71  2  0
 73 72  1  0
 73 68  2  0
 74 75  1  0
 75 76  1  0
 76 77  2  0
 78 77  1  0
 78 82  1  0
 79 78  2  0
 80 75  2  0
 80 79  1  0
 81 80  1  0
 83 84  1  0
 84 87  1  0
 84 86  1  0
 85 83  2  0
 88 89  1  0
 88 63  1  0
 90 88  1  0
 91 62  1  0
 92 94  1  0
 93 94  1  0
 94 91  1  0
M  ISO  4  11 101  12 101  54 100  62 100
M  END
>  <TORSDO>  (31) 
F 23

>  <SCORE>  (31) 
-11.204

>  <name>  (31) 
30

>  <ligand_id>  (31) 
30

>  <original_smiles>  (31) 
[H]c1c([H])c(N(C([H])([H])[H])C([H])([H])C([H])([H])C([H])([H])Oc2c([H])c([H])c3c(c2[H])C([H])([H])N(C(=O)C([H])(N([H])C(=O)C([H])(N([H])C([H])([H])[H])C([H])([H])[H])C(C([H])([H])[H])(C([H])([H])[H])C([H])([H])[H])C([H])(C(=O)N([H])C2([H])c4c([H])c([H])c([H])c([H])c4C([H])([H])C([H])([H])C2([H])[H])C3([H])[H])c([H])c(C([H])([H])N(C(=O)N2C([H])([H])C([H])([H])C([H])([H])C([H])(n3nc(-c4c([H])c([H])c(Oc5c([H])c([H])c(F)c([H])c5F)c([H])c4[H])c(C(=O)N([H])[H])c3N([H])[H])C2([H])[H])C([H])([H])C([H])(C([H])([H])[H])C([H])([H])[H])c1[H]

>  <smiles>  (31) 
[H]c1c([H])c(N(C([H])([H])[H])C([H])([H])C([H])([H])C([H])([H])Oc2c([H])c([H])c3c(c2[H])C([H])([H])N(C(=O)C([H])(N([H])C(=O)C([H])(N([H])C([H])([H])[H])C([H])([H])[H])C(C([H])([H])[H])(C([H])([H])[H])C([H])([H])[H])C([H])(C(=O)N([H])C2([H])c4c([H])c([H])c([H])c([H])c4C([H])([H])C([H])([H])C2([H])[H])C3([H])[H])c([H])c(C([H])([H])N(C(=O)N2C([H])([H])C([H])([H])C([H])([H])C([H])(n3nc(-c4c([H])c([H])c(Oc5c([H])c([H])c(F)c([H])c5F)c([H])c4[H])c(C(=O)N([H])[H])c3N([H])[H])C2([H])[H])C([H])([H])C([H])(C([H])([H])[H])C([H])([H])[H])c1[H]

$$$$
31:0:0
     RDKit          3D

 94103  0  0  1  0  0  0  0  0999 V2000
  -29.9900  -22.7120   18.8820 C   0  0  0  0  0  3  0  0  0  0  0  0
  -29.5100  -22.3370   20.0860 C   0  0  0  0  0  0  0  0  0  0  0  0
  -30.2000  -24.0970   18.2980 C   0  0  0  0  0  2  0  0  0  0  0  0
  -29.0240  -23.3080   21.1560 C   0  0  0  0  0  2  0  0  0  0  0  0
  -29.9750  -25.2800   19.2440 C   0  0  0  0  0  2  0  0  0  0  0  0
  -28.0080  -24.3690   20.6720 C   0  0  0  0  0  2  0  0  0  0  0  0
  -28.5070  -25.4320   19.6590 C   0  0  0  0  0  3  0  0  0  0  0  0
  -30.6590  -20.3830   21.0820 C   0  0  0  0  0  3  0  0  0  0  0  0
  -30.9250  -19.0020   21.0660 C   0  0  0  0  0  3  0  0  0  0  0  0
  -28.9140  -18.6190   19.7450 C   0  0  0  0  0  3  0  0  0  0  0  0
  -29.5660  -20.8900   20.3540 C   0  0  0  0  0  0  0  0  0  0  0  0
  -30.1010  -18.1270   20.3280 C   0  0  0  0  0  0  0  0  0  0  0  0
  -28.6500  -20.0030   19.7450 C   0  0  0  0  0  0  0  0  0  0  0  0
  -27.5720  -20.4810   19.0760 F   0  0  0  0  0  0  0  0  0  0  0  0
  -30.6560  -16.7730   19.9070 C   0  0  0  0  0  2  0  0  0  0  0  0
  -30.9120  -14.4180   20.1600 C   0  0  0  0  0  0  0  0  0  0  0  0
  -30.4250  -12.3540   18.9080 C   0  0  0  0  0  2  0  0  0  0  0  0
  -29.4240  -12.6280   17.7690 C   0  0  0  0  0  2  0  0  0  0  0  0
  -27.9760  -12.5080   18.2800 C   0  0  0  0  0  2  0  0  0  0  0  0
  -27.7330  -13.2880   19.5990 C   0  0  0  0  0  3  0  0  0  0  0  0
  -28.8460  -13.0070   20.6300 C   0  0  0  0  0  2  0  0  0  0  0  0
  -30.1400  -13.3070   19.9960 N   0  0  0  0  0  0  0  0  0  0  0  0
  -32.0090  -14.5180   19.5990 O   0  0  0  0  0  0  0  0  0  0  0  0
  -30.0930  -15.7020   22.0880 C   0  0  0  0  0  1  0  0  0  0  0  0
  -30.3150  -15.5380   20.6460 N   0  0  0  0  0  0  0  0  0  0  0  0
  -25.3810  -13.8800   20.4530 C   0  0  0  0  0  0  0  0  0  0  0  0
  -24.3340  -13.1000   20.8630 C   0  0  0  0  0  0  0  0  0  0  0  0
  -24.7890  -11.7490   20.7760 C   0  0  0  0  0  0  0  0  0  0  0  0
  -26.4090  -13.0040   20.1450 N   0  0  0  0  0  0  0  0  0  0  0  0
  -26.0610  -11.7150   20.3970 N   0  0  0  0  0  0  0  0  0  0  0  0
  -24.0710  -10.4840   20.9730 C   0  0  0  0  0  0  0  0  0  0  0  0
  -24.5150   -9.5200   21.9040 C   0  0  0  0  0  3  0  0  0  0  0  0
  -23.7980   -8.3190   22.0880 C   0  0  0  0  0  3  0  0  0  0  0  0
  -22.6190   -8.0750   21.3460 C   0  0  0  0  0  0  0  0  0  0  0  0
  -22.1920   -9.0270   20.4050 C   0  0  0  0  0  3  0  0  0  0  0  0
  -22.9120  -10.2210   20.2170 C   0  0  0  0  0  3  0  0  0  0  0  0
  -21.8690   -6.9280   21.4440 O   0  0  0  0  0  0  0  0  0  0  0  0
  -21.7870   -6.2190   22.6150 C   0  0  0  0  0  0  0  0  0  0  0  0
  -21.3160   -6.8050   23.8100 C   0  0  0  0  0  3  0  0  0  0  0  0
  -21.1860   -6.0210   24.9740 C   0  0  0  0  0  3  0  0  0  0  0  0
  -21.5100   -4.6520   24.9420 C   0  0  0  0  0  0  0  0  0  0  0  0
  -21.9710   -4.0660   23.7500 C   0  0  0  0  0  3  0  0  0  0  0  0
  -22.1070   -4.8470   22.5890 C   0  0  0  0  0  0  0  0  0  0  0  0
  -22.5310   -4.2720   21.4390 F   0  0  0  0  0  0  0  0  0  0  0  0
  -21.3780   -3.8970   26.0570 F   0  0  0  0  0  0  0  0  0  0  0  0
  -22.9550  -13.5720   21.2260 C   0  0  0  0  0  0  0  0  0  0  0  0
  -22.2840  -12.8530   22.1200 N   0  0  0  0  0  0  0  0  0  0  0  0
  -22.4900  -14.6080   20.7550 O   0  0  0  0  0  0  0  0  0  0  0  0
  -22.6780  -12.0120   22.5120 H   0  0  0  0  0  0  0  0  0  0  0  0
  -21.3610  -13.1450   22.4110 H   0  0  0  0  0  0  0  0  0  0  0  0
  -25.5450  -15.2520   20.2940 N   0  0  0  0  0  0  0  0  0  0  0  0
  -24.7820  -15.9050   20.4280 H   0  0  0  0  0  0  0  0  0  0  0  0
  -26.3870  -15.6890   19.9380 H   0  0  0  0  0  0  0  0  0  0  0  0
  -28.4000  -26.7450   20.2060 O   0  0  0  0  0  0  0  0  0  0  0  0
  -24.5590  -31.8660   23.2330 C   0  0  0  0  0  0  0  0  0  0  0  0
  -27.1940  -27.4180   20.1770 C   0  0  0  0  0  0  0  0  0  0  0  0
  -23.3500  -30.4640   21.5940 C   0  0  0  0  0  3  0  0  0  0  0  0
  -24.7980  -28.9210   20.1750 C   0  0  0  0  0  0  0  0  0  0  0  0
  -25.8720  -30.8200   21.3940 C   0  0  0  0  0  2  0  0  0  0  0  0
  -25.9520  -29.4460   20.7650 C   0  0  0  0  0  0  0  0  0  0  0  0
  -27.1490  -28.7000   20.7660 C   0  0  0  0  0  3  0  0  0  0  0  0
  -26.0160  -26.9000   19.5880 C   0  0  0  0  0  3  0  0  0  0  0  0
  -24.8230  -27.6470   19.5830 C   0  0  0  0  0  3  0  0  0  0  0  0
  -23.5590  -29.7840   20.2130 C   0  0  0  0  0  2  0  0  0  0  0  0
  -24.6130  -31.0630   22.1340 N   0  0  0  0  0  0  0  0  0  0  0  0
  -23.4770  -32.1420   23.7720 O   0  0  0  0  0  0  0  0  0  0  0  0
  -22.6970  -29.4440   22.5550 C   0  0  0  0  0  0  0  0  0  0  0  0
  -21.3710  -29.2710   22.4320 N   0  0  0  0  0  0  0  0  0  0  0  0
  -23.3780  -28.8160   23.3690 O   0  0  0  0  0  0  0  0  0  0  0  0
  -20.8800  -29.8400   21.7570 H   0  0  0  0  0  0  0  0  0  0  0  0
  -17.9890  -28.1050   22.9350 C   0  0  0  0  0  0  0  0  0  0  0  0
  -20.5490  -28.3380   23.2020 C   0  0  0  0  0  3  0  0  0  0  0  0
  -20.6370  -26.9060   22.6250 C   0  0  0  0  0  2  0  0  0  0  0  0
  -19.5290  -26.5940   21.6130 C   0  0  0  0  0  2  0  0  0  0  0  0
  -18.1510  -26.7530   22.2620 C   0  0  0  0  0  2  0  0  0  0  0  0
  -19.1150  -28.8560   23.3640 C   0  0  0  0  0  0  0  0  0  0  0  0
  -18.9100  -30.1210   23.9550 C   0  0  0  0  0  3  0  0  0  0  0  0
  -17.6110  -30.6350   24.1190 C   0  0  0  0  0  3  0  0  0  0  0  0
  -16.4980  -29.8830   23.7050 C   0  0  0  0  0  3  0  0  0  0  0  0
  -16.6890  -28.6190   23.1180 C   0  0  0  0  0  3  0  0  0  0  0  0
  -25.8460  -32.4940   23.8540 C   0  0  0  0  0  3  0  0  0  0  0  0
  -25.5390  -33.8900   24.1920 N   0  0  0  0  0  0  0  0  0  0  0  0
  -25.8640  -34.9440   23.4330 C   0  0  0  0  0  0  0  0  0  0  0  0
  -26.5260  -34.8460   22.3960 O   0  0  0  0  0  0  0  0  0  0  0  0
  -24.9440  -34.0400   24.9940 H   0  0  0  0  0  0  0  0  0  0  0  0
  -24.1280  -36.7340   23.0970 C   0  0  0  0  0  1  0  0  0  0  0  0
  -25.3770  -36.3300   23.8970 C   0  0  0  0  0  3  0  0  0  0  0  0
  -27.5150  -37.2230   24.7080 C   0  0  0  0  0  1  0  0  0  0  0  0
  -26.4040  -37.3860   23.7720 N   0  0  0  0  0  0  0  0  0  0  0  0
  -25.9980  -38.3060   23.9210 H   0  0  0  0  0  0  0  0  0  0  0  0
  -26.3710  -31.7110   25.1210 C   0  0  1  0  0  0  0  0  0  0  0  0
  -25.2850  -31.4600   26.1930 C   0  0  0  0  0  1  0  0  0  0  0  0
  -26.9550  -30.3410   24.7060 C   0  0  0  0  0  1  0  0  0  0  0  0
  -27.5230  -32.5020   25.7830 C   0  0  0  0  0  1  0  0  0  0  0  0
  1  2  2  0
  2 11  1  0
  2  4  1  0
  3  1  1  0
  3  5  1  0
  5  7  1  0
  6  4  1  0
  7 54  1  0
  7  6  1  0
  9  8  1  0
 10 13  2  0
 10 12  1  0
 11  8  2  0
 12  9  2  0
 13 11  1  0
 14 13  1  0
 15 12  1  0
 15 25  1  0
 16 25  1  0
 17 22  1  0
 18 19  1  0
 18 17  1  0
 20 19  1  0
 20 29  1  0
 20 21  1  0
 22 16  1  0
 22 21  1  0
 23 16  2  0
 25 24  1  0
 26 27  2  0
 27 46  1  0
 28 27  1  0
 28 31  1  0
 29 30  1  0
 29 26  1  0
 30 28  2  0
 31 32  1  0
 32 33  2  0
 34 37  1  0
 34 33  1  0
 35 34  2  0
 36 35  1  0
 36 31  2  0
 37 38  1  0
 38 39  1  0
 39 40  2  0
 41 40  1  0
 41 45  1  0
 42 41  2  0
 43 38  2  0
 43 42  1  0
 44 43  1  0
 46 47  1  0
 47 50  1  0
 47 49  1  0
 48 46  2  0
 51 52  1  0
 51 26  1  0
 53 51  1  0
 55 66  2  0
 56 54  1  0
 56 61  1  0
 57 65  1  0
 57 67  1  0
 58 64  1  0
 58 60  1  0
 59 65  1  0
 60 61  2  0
 60 59  1  0
 62 56  2  0
 63 62  1  0
 63 58  2  0
 64 57  1  0
 65 55  1  0
 67 69  2  0
 68 67  1  0
 70 68  1  0
 71 80  2  0
 71 76  1  0
 72 68  1  0
 72 76  1  0
 73 72  1  0
 74 75  1  0
 74 73  1  0
 75 71  1  0
 76 77  2  0
 77 78  1  0
 79 78  2  0
 80 79  1  0
 81 55  1  0
 81 82  1  0
 81 91  1  0
 82 85  1  0
 83 87  1  0
 83 82  1  0
 84 83  2  0
 87 86  1  0
 89 87  1  0
 89 90  1  0
 89 88  1  0
 91 94  1  1
 91 92  1  0
 93 91  1  0
M  ISO  4   7 101  16 100  25 100  54 101
M  END
>  <TORSDO>  (32) 
F 18

>  <SCORE>  (32) 
-14.377

>  <name>  (32) 
31

>  <ligand_id>  (32) 
31

>  <original_smiles>  (32) 
[H]C1=C(c2c([H])c([H])c(C([H])([H])N(C(=O)N3C([H])([H])C([H])([H])C([H])([H])C([H])(n4nc(-c5c([H])c([H])c(Oc6c([H])c([H])c(F)c([H])c6F)c([H])c5[H])c(C(=O)N([H])[H])c4N([H])[H])C3([H])[H])C([H])([H])[H])c([H])c2F)C([H])([H])C([H])([H])C([H])(Oc2c([H])c([H])c3c(c2[H])C([H])([H])N(C(=O)C([H])(N([H])C(=O)C([H])(N([H])C([H])([H])[H])C([H])([H])[H])C(C([H])([H])[H])(C([H])([H])[H])C([H])([H])[H])C([H])(C(=O)N([H])C2([H])c4c([H])c([H])c([H])c([H])c4C([H])([H])C([H])([H])C2([H])[H])C3([H])[H])C([H])([H])C1([H])[H]

>  <smiles>  (32) 
[H]C1=C(c2c([H])c([H])c(C([H])([H])N(C(=O)N3C([H])([H])C([H])([H])C([H])([H])C([H])(n4nc(-c5c([H])c([H])c(Oc6c([H])c([H])c(F)c([H])c6F)c([H])c5[H])c(C(=O)N([H])[H])c4N([H])[H])C3([H])[H])C([H])([H])[H])c([H])c2F)C([H])([H])C([H])([H])C([H])(Oc2c([H])c([H])c3c(c2[H])C([H])([H])N(C(=O)C([H])(N([H])C(=O)C([H])(N([H])C([H])([H])[H])C([H])([H])[H])C(C([H])([H])[H])(C([H])([H])[H])C([H])([H])[H])C([H])(C(=O)N([H])C2([H])c4c([H])c([H])c([H])c([H])c4C([H])([H])C([H])([H])C2([H])[H])C3([H])[H])C([H])([H])C1([H])[H]

$$$$
32:0:0
     RDKit          3D

 96104  0  0  1  0  0  0  0  0999 V2000
  -29.5200  -18.5990   21.8130 C   0  0  0  0  0  3  0  0  0  0  0  0
  -29.3340  -19.9990   21.8690 C   0  0  0  0  0  3  0  0  0  0  0  0
  -29.0530  -20.0750   19.4680 C   0  0  0  0  0  3  0  0  0  0  0  0
  -29.4610  -17.9130   20.5820 C   0  0  0  0  0  0  0  0  0  0  0  0
  -29.0730  -20.7670   20.7070 C   0  0  0  0  0  0  0  0  0  0  0  0
  -29.2220  -18.6680   19.4090 C   0  0  0  0  0  0  0  0  0  0  0  0
  -29.1490  -18.0360   18.2130 F   0  0  0  0  0  0  0  0  0  0  0  0
  -27.9980  -22.5510   21.9870 C   0  0  0  0  0  1  0  0  0  0  0  0
  -28.8200  -22.1640   20.8340 N   0  0  0  0  0  0  0  0  0  0  0  0
  -28.7860  -23.0250   19.6360 C   0  0  0  0  0  2  0  0  0  0  0  0
  -28.5620  -24.5400   19.9430 C   0  0  0  0  0  2  0  0  0  0  0  0
  -28.7740  -25.4900   18.7350 C   0  0  0  0  0  2  0  0  0  0  0  0
  -28.6710  -26.8860   19.0840 O   0  0  0  0  0  0  0  0  0  0  0  0
  -24.5690  -31.3610   22.8100 C   0  0  0  0  0  0  0  0  0  0  0  0
  -27.4350  -27.5060   19.1790 C   0  0  0  0  0  0  0  0  0  0  0  0
  -23.4290  -30.0760   21.0350 C   0  0  0  0  0  3  0  0  0  0  0  0
  -24.9460  -28.8400   19.4150 C   0  0  0  0  0  0  0  0  0  0  0  0
  -25.9190  -30.6460   20.8390 C   0  0  0  0  0  2  0  0  0  0  0  0
  -26.0840  -29.3760   20.0290 C   0  0  0  0  0  0  0  0  0  0  0  0
  -27.3320  -28.7200   19.8970 C   0  0  0  0  0  3  0  0  0  0  0  0
  -26.2630  -26.9750   18.5830 C   0  0  0  0  0  3  0  0  0  0  0  0
  -25.0310  -27.6420   18.6890 C   0  0  0  0  0  3  0  0  0  0  0  0
  -23.6480  -29.5900   19.5800 C   0  0  0  0  0  2  0  0  0  0  0  0
  -24.6570  -30.7070   21.6190 N   0  0  0  0  0  0  0  0  0  0  0  0
  -23.4820  -31.4820   23.3960 O   0  0  0  0  0  0  0  0  0  0  0  0
  -22.8800  -28.9010   21.8780 C   0  0  0  0  0  0  0  0  0  0  0  0
  -21.5690  -28.6400   21.7580 N   0  0  0  0  0  0  0  0  0  0  0  0
  -23.6290  -28.2320   22.5960 O   0  0  0  0  0  0  0  0  0  0  0  0
  -21.0260  -29.2340   21.1480 H   0  0  0  0  0  0  0  0  0  0  0  0
  -18.3050  -27.1390   22.1640 C   0  0  0  0  0  0  0  0  0  0  0  0
  -20.8420  -27.5580   22.4220 C   0  0  0  0  0  3  0  0  0  0  0  0
  -21.0380  -26.2170   21.6780 C   0  0  0  0  0  2  0  0  0  0  0  0
  -19.9380  -25.9340   20.6500 C   0  0  0  0  0  2  0  0  0  0  0  0
  -18.5650  -25.8950   21.3280 C   0  0  0  0  0  2  0  0  0  0  0  0
  -19.3740  -27.9270   22.6640 C   0  0  0  0  0  0  0  0  0  0  0  0
  -19.0780  -29.0900   23.4080 C   0  0  0  0  0  3  0  0  0  0  0  0
  -17.7450  -29.4700   23.6500 C   0  0  0  0  0  3  0  0  0  0  0  0
  -16.6900  -28.6780   23.1660 C   0  0  0  0  0  3  0  0  0  0  0  0
  -16.9700  -27.5120   22.4320 C   0  0  0  0  0  3  0  0  0  0  0  0
  -25.8200  -32.0100   23.4810 C   0  0  0  0  0  3  0  0  0  0  0  0
  -26.4000  -31.1520   24.6720 C   0  0  1  0  0  0  0  0  0  0  0  0
  -25.3380  -30.7510   25.7230 C   0  0  0  0  0  1  0  0  0  0  0  0
  -27.0550  -29.8510   24.1520 C   0  0  0  0  0  1  0  0  0  0  0  0
  -27.5180  -31.9450   25.3870 C   0  0  0  0  0  1  0  0  0  0  0  0
  -25.4250  -33.3470   23.9460 N   0  0  0  0  0  0  0  0  0  0  0  0
  -25.7200  -34.4880   23.3090 C   0  0  0  0  0  0  0  0  0  0  0  0
  -26.4210  -34.5260   22.2950 O   0  0  0  0  0  0  0  0  0  0  0  0
  -24.7960  -33.3840   24.7330 H   0  0  0  0  0  0  0  0  0  0  0  0
  -23.8980  -36.2120   23.0980 C   0  0  0  0  0  1  0  0  0  0  0  0
  -25.1450  -35.7940   23.8920 C   0  0  0  0  0  3  0  0  0  0  0  0
  -27.2100  -36.7110   24.8540 C   0  0  0  0  0  1  0  0  0  0  0  0
  -26.1160  -36.9080   23.9060 N   0  0  0  0  0  0  0  0  0  0  0  0
  -25.6540  -37.7830   24.1340 H   0  0  0  0  0  0  0  0  0  0  0  0
  -29.6040  -16.3750   20.5470 C   0  0  0  0  0  2  0  0  0  0  0  0
  -31.2360  -14.6460   19.6040 C   0  0  0  0  0  0  0  0  0  0  0  0
  -30.7110  -12.4020   18.6970 C   0  0  0  0  0  2  0  0  0  0  0  0
  -29.6720  -12.5070   17.5640 C   0  0  0  0  0  2  0  0  0  0  0  0
  -28.2490  -12.3930   18.1450 C   0  0  0  0  0  2  0  0  0  0  0  0
  -28.0220  -13.3490   19.3450 C   0  0  0  0  0  3  0  0  0  0  0  0
  -29.1920  -13.2540   20.3620 C   0  0  0  0  0  2  0  0  0  0  0  0
  -30.4530  -13.5150   19.6440 N   0  0  0  0  0  0  0  0  0  0  0  0
  -32.2830  -14.6230   18.9540 O   0  0  0  0  0  0  0  0  0  0  0  0
  -30.9510  -15.7840   20.3170 N   0  0  0  0  0  0  0  0  0  0  0  0
  -25.7940  -14.0630   20.4270 C   0  0  0  0  0  0  0  0  0  0  0  0
  -24.7190  -13.3440   20.8700 C   0  0  0  0  0  0  0  0  0  0  0  0
  -25.0490  -11.9710   20.6590 C   0  0  0  0  0  0  0  0  0  0  0  0
  -26.7220  -13.1330   19.9800 N   0  0  0  0  0  0  0  0  0  0  0  0
  -26.2840  -11.8630   20.1800 N   0  0  0  0  0  0  0  0  0  0  0  0
  -24.2440  -10.7560   20.8410 C   0  0  0  0  0  0  0  0  0  0  0  0
  -24.6690   -9.7090   21.6880 C   0  0  0  0  0  3  0  0  0  0  0  0
  -23.8700   -8.5580   21.8590 C   0  0  0  0  0  3  0  0  0  0  0  0
  -22.6310   -8.4470   21.1870 C   0  0  0  0  0  0  0  0  0  0  0  0
  -22.2240   -9.4790   20.3250 C   0  0  0  0  0  3  0  0  0  0  0  0
  -23.0200  -10.6230   20.1520 C   0  0  0  0  0  3  0  0  0  0  0  0
  -21.8020   -7.3550   21.2720 O   0  0  0  0  0  0  0  0  0  0  0  0
  -21.7390   -6.5860   22.4060 C   0  0  0  0  0  0  0  0  0  0  0  0
  -21.3670   -7.1290   23.6560 C   0  0  0  0  0  3  0  0  0  0  0  0
  -21.2510   -6.2910   24.7830 C   0  0  0  0  0  3  0  0  0  0  0  0
  -21.4940   -4.9090   24.6610 C   0  0  0  0  0  0  0  0  0  0  0  0
  -21.8570   -4.3640   23.4170 C   0  0  0  0  0  3  0  0  0  0  0  0
  -21.9780   -5.2010   22.2930 C   0  0  0  0  0  0  0  0  0  0  0  0
  -22.3100   -4.6670   21.0930 F   0  0  0  0  0  0  0  0  0  0  0  0
  -21.3700   -4.1020   25.7410 F   0  0  0  0  0  0  0  0  0  0  0  0
  -23.4140  -13.8950   21.3730 C   0  0  0  0  0  0  0  0  0  0  0  0
  -22.7510  -13.1770   22.2730 N   0  0  0  0  0  0  0  0  0  0  0  0
  -22.9990  -14.9930   21.0010 O   0  0  0  0  0  0  0  0  0  0  0  0
  -23.1010  -12.2860   22.5940 H   0  0  0  0  0  0  0  0  0  0  0  0
  -21.8780  -13.5200   22.6500 H   0  0  0  0  0  0  0  0  0  0  0  0
  -26.0520  -15.4280   20.3450 N   0  0  0  0  0  0  0  0  0  0  0  0
  -25.3530  -16.1180   20.5940 H   0  0  0  0  0  0  0  0  0  0  0  0
  -26.8760  -15.8320   19.9180 H   0  0  0  0  0  0  0  0  0  0  0  0
  -32.0900  -16.7050   20.5940 C   0  0  0  0  0  2  0  0  0  0  0  0
  -32.5780  -17.5290   19.3690 C   0  0  1  0  0  0  0  0  0  0  0  0
  -33.7590  -17.0850   18.9360 F   0  0  0  0  0  0  0  0  0  0  0  0
  -31.7240  -17.5050   18.3460 F   0  0  0  0  0  0  0  0  0  0  0  0
  -32.7410  -18.8030   19.7250 F   0  0  0  0  0  0  0  0  0  0  0  0
  1  2  1  0
  3  5  1  0
  4  1  2  0
  5  9  1  0
  5  2  2  0
  6  3  2  0
  6  4  1  0
  7  6  1  0
  9  8  1  0
 10 11  1  0
 10  9  1  0
 12 13  1  0
 12 11  1  0
 13 15  1  0
 14 25  2  0
 15 20  1  0
 16 24  1  0
 16 26  1  0
 17 23  1  0
 17 19  1  0
 18 24  1  0
 19 18  1  0
 20 19  2  0
 21 22  1  0
 21 15  2  0
 22 17  2  0
 23 16  1  0
 24 14  1  0
 26 28  2  0
 27 26  1  0
 29 27  1  0
 30 39  2  0
 30 35  1  0
 31 27  1  0
 31 35  1  0
 32 31  1  0
 33 34  1  0
 33 32  1  0
 34 30  1  0
 35 36  2  0
 36 37  1  0
 38 37  2  0
 39 38  1  0
 40 14  1  0
 40 45  1  0
 40 41  1  0
 41 44  1  1
 41 42  1  0
 43 41  1  0
 45 48  1  0
 46 50  1  0
 46 45  1  0
 47 46  2  0
 50 49  1  0
 50 52  1  0
 52 53  1  0
 52 51  1  0
 54  4  1  0
 55 61  1  0
 55 63  1  0
 56 61  1  0
 57 58  1  0
 57 56  1  0
 59 58  1  0
 59 67  1  0
 59 60  1  0
 61 60  1  0
 62 55  2  0
 63 54  1  0
 63 92  1  0
 64 65  2  0
 65 84  1  0
 66 69  1  0
 66 65  1  0
 67 68  1  0
 67 64  1  0
 68 66  2  0
 69 70  1  0
 70 71  2  0
 72 75  1  0
 72 71  1  0
 73 72  2  0
 74 73  1  0
 74 69  2  0
 75 76  1  0
 76 77  1  0
 77 78  2  0
 79 78  1  0
 79 83  1  0
 80 79  2  0
 81 76  2  0
 81 80  1  0
 82 81  1  0
 84 85  1  0
 85 87  1  0
 85 88  1  0
 86 84  2  0
 89 64  1  0
 89 90  1  0
 91 89  1  0
 93 96  1  1
 93 92  1  0
 94 93  1  0
 95 93  1  0
M  ISO  4  12 101  13 101  55 100  63 100
M  END
>  <TORSDO>  (33) 
F 23

>  <SCORE>  (33) 
-9.504

>  <name>  (33) 
32

>  <ligand_id>  (33) 
32

>  <original_smiles>  (33) 
[H]c1c([H])c([H])c2c(c1[H])C([H])([H])C([H])([H])C([H])([H])C2([H])N([H])C(=O)C1([H])N(C(=O)C([H])(N([H])C(=O)C([H])(N([H])C([H])([H])[H])C([H])([H])[H])C(C([H])([H])[H])(C([H])([H])[H])C([H])([H])[H])C([H])([H])c2c([H])c(OC([H])([H])C([H])([H])C([H])([H])N(c3c([H])c([H])c(C([H])([H])N(C(=O)N4C([H])([H])C([H])([H])C([H])([H])C([H])(n5nc(-c6c([H])c([H])c(Oc7c([H])c([H])c(F)c([H])c7F)c([H])c6[H])c(C(=O)N([H])[H])c5N([H])[H])C4([H])[H])C([H])([H])C(F)(F)F)c(F)c3[H])C([H])([H])[H])c([H])c([H])c2C1([H])[H]

>  <smiles>  (33) 
[H]c1c([H])c([H])c2c(c1[H])C([H])([H])C([H])([H])C([H])([H])C2([H])N([H])C(=O)C1([H])N(C(=O)C([H])(N([H])C(=O)C([H])(N([H])C([H])([H])[H])C([H])([H])[H])C(C([H])([H])[H])(C([H])([H])[H])C([H])([H])[H])C([H])([H])c2c([H])c(OC([H])([H])C([H])([H])C([H])([H])N(c3c([H])c([H])c(C([H])([H])N(C(=O)N4C([H])([H])C([H])([H])C([H])([H])C([H])(n5nc(-c6c([H])c([H])c(Oc7c([H])c([H])c(F)c([H])c7F)c([H])c6[H])c(C(=O)N([H])[H])c5N([H])[H])C4([H])[H])C([H])([H])C(F)(F)F)c(F)c3[H])C([H])([H])[H])c([H])c([H])c2C1([H])[H]

$$$$
33:0:0
     RDKit          3D

 94102  0  0  1  0  0  0  0  0999 V2000
  -31.8040  -20.7860   18.5920 C   0  0  0  0  0  1  0  0  0  0  0  0
  -30.8050  -21.5490   19.3830 N   0  0  1  0  0  4  0  0  0  0  0  0
  -29.9240  -21.3890   18.9190 H   0  0  0  0  0  0  0  0  0  0  0  0
  -30.6490  -21.0470   20.7770 C   0  0  0  0  0  2  0  0  0  0  0  0
  -29.1860  -18.9540   20.6240 C   0  0  0  0  0  3  0  0  0  0  0  0
  -29.0180  -17.5550   20.6750 C   0  0  0  0  0  3  0  0  0  0  0  0
  -31.5370  -18.6830   21.1910 C   0  0  0  0  0  3  0  0  0  0  0  0
  -30.4520  -19.5290   20.8670 C   0  0  0  0  0  0  0  0  0  0  0  0
  -30.1130  -16.7070   20.9540 C   0  0  0  0  0  0  0  0  0  0  0  0
  -31.3730  -17.2830   21.2450 C   0  0  0  0  0  0  0  0  0  0  0  0
  -32.4230  -16.5070   21.6060 F   0  0  0  0  0  0  0  0  0  0  0  0
  -30.4890  -14.4040   20.1670 C   0  0  0  0  0  0  0  0  0  0  0  0
  -30.0820  -12.3390   18.8790 C   0  0  0  0  0  2  0  0  0  0  0  0
  -29.0590  -12.6280   17.7620 C   0  0  0  0  0  2  0  0  0  0  0  0
  -27.6170  -12.4740   18.2830 C   0  0  0  0  0  2  0  0  0  0  0  0
  -27.3790  -13.2340   19.6160 C   0  0  0  0  0  3  0  0  0  0  0  0
  -28.5010  -12.9180   20.6300 C   0  0  0  0  0  2  0  0  0  0  0  0
  -29.7950  -13.2460   20.0010 N   0  0  0  0  0  0  0  0  0  0  0  0
  -31.5340  -14.6490   19.5570 O   0  0  0  0  0  0  0  0  0  0  0  0
  -29.8940  -15.3030   20.9720 N   0  0  0  0  0  0  0  0  0  0  0  0
  -29.0200  -14.9910   21.3610 H   0  0  0  0  0  0  0  0  0  0  0  0
  -25.0180  -13.8160   20.4640 C   0  0  0  0  0  0  0  0  0  0  0  0
  -23.9780  -13.0320   20.8860 C   0  0  0  0  0  0  0  0  0  0  0  0
  -24.4470  -11.6840   20.8120 C   0  0  0  0  0  0  0  0  0  0  0  0
  -26.0550  -12.9470   20.1650 N   0  0  0  0  0  0  0  0  0  0  0  0
  -25.7180  -11.6590   20.4300 N   0  0  0  0  0  0  0  0  0  0  0  0
  -23.7440  -10.4130   21.0290 C   0  0  0  0  0  0  0  0  0  0  0  0
  -24.2430   -9.4370   21.9180 C   0  0  0  0  0  3  0  0  0  0  0  0
  -23.5390   -8.2300   22.1230 C   0  0  0  0  0  3  0  0  0  0  0  0
  -22.3230   -7.9930   21.4400 C   0  0  0  0  0  0  0  0  0  0  0  0
  -21.8430   -8.9590   20.5380 C   0  0  0  0  0  3  0  0  0  0  0  0
  -22.5480  -10.1560   20.3310 C   0  0  0  0  0  3  0  0  0  0  0  0
  -21.5850   -6.8400   21.5570 O   0  0  0  0  0  0  0  0  0  0  0  0
  -21.6230   -6.0740   22.6960 C   0  0  0  0  0  0  0  0  0  0  0  0
  -21.2990   -6.6050   23.9630 C   0  0  0  0  0  3  0  0  0  0  0  0
  -21.2830   -5.7660   25.0940 C   0  0  0  0  0  3  0  0  0  0  0  0
  -21.5810   -4.3970   24.9610 C   0  0  0  0  0  0  0  0  0  0  0  0
  -21.8980   -3.8650   23.6980 C   0  0  0  0  0  3  0  0  0  0  0  0
  -21.9170   -4.7020   22.5690 C   0  0  0  0  0  0  0  0  0  0  0  0
  -22.2020   -4.1810   21.3510 F   0  0  0  0  0  0  0  0  0  0  0  0
  -21.5600   -3.5870   26.0450 F   0  0  0  0  0  0  0  0  0  0  0  0
  -22.5960  -13.4930   21.2470 C   0  0  0  0  0  0  0  0  0  0  0  0
  -21.9290  -12.7810   22.1480 N   0  0  0  0  0  0  0  0  0  0  0  0
  -22.1190  -14.5190   20.7660 O   0  0  0  0  0  0  0  0  0  0  0  0
  -22.3270  -11.9490   22.5580 H   0  0  0  0  0  0  0  0  0  0  0  0
  -21.0040  -13.0710   22.4310 H   0  0  0  0  0  0  0  0  0  0  0  0
  -25.1610  -15.1910   20.2930 N   0  0  0  0  0  0  0  0  0  0  0  0
  -24.3950  -15.8370   20.4510 H   0  0  0  0  0  0  0  0  0  0  0  0
  -25.9820  -15.6370   19.9070 H   0  0  0  0  0  0  0  0  0  0  0  0
  -31.0610  -23.0180   19.3100 C   0  0  0  0  0  2  0  0  0  0  0  0
  -29.7900  -23.8890   19.4330 C   0  0  0  0  0  2  0  0  0  0  0  0
  -30.0360  -25.3430   18.9690 C   0  0  0  0  0  2  0  0  0  0  0  0
  -28.7630  -26.1950   18.8330 C   0  0  0  0  0  2  0  0  0  0  0  0
  -28.3870  -26.7570   20.0900 O   0  0  0  0  0  0  0  0  0  0  0  0
  -24.5810  -31.8900   23.2260 C   0  0  0  0  0  0  0  0  0  0  0  0
  -27.2060  -27.4660   20.1050 C   0  0  0  0  0  0  0  0  0  0  0  0
  -23.3630  -30.4950   21.5860 C   0  0  0  0  0  3  0  0  0  0  0  0
  -24.8050  -28.9590   20.1520 C   0  0  0  0  0  0  0  0  0  0  0  0
  -25.8860  -30.8490   21.3780 C   0  0  0  0  0  2  0  0  0  0  0  0
  -25.9650  -29.4790   20.7390 C   0  0  0  0  0  0  0  0  0  0  0  0
  -27.1640  -28.7330   20.7260 C   0  0  0  0  0  3  0  0  0  0  0  0
  -26.0210  -26.9460   19.5360 C   0  0  0  0  0  3  0  0  0  0  0  0
  -24.8240  -27.6860   19.5570 C   0  0  0  0  0  3  0  0  0  0  0  0
  -23.5630  -29.8180   20.2040 C   0  0  0  0  0  2  0  0  0  0  0  0
  -24.6280  -31.0920   22.1210 N   0  0  0  0  0  0  0  0  0  0  0  0
  -23.5030  -32.1640   23.7720 O   0  0  0  0  0  0  0  0  0  0  0  0
  -22.7140  -29.4720   22.5460 C   0  0  0  0  0  0  0  0  0  0  0  0
  -21.3890  -29.2930   22.4250 N   0  0  0  0  0  0  0  0  0  0  0  0
  -23.4000  -28.8430   23.3560 O   0  0  0  0  0  0  0  0  0  0  0  0
  -20.8970  -29.8530   21.7420 H   0  0  0  0  0  0  0  0  0  0  0  0
  -18.0150  -28.1070   22.9280 C   0  0  0  0  0  0  0  0  0  0  0  0
  -20.5740  -28.3570   23.1960 C   0  0  0  0  0  3  0  0  0  0  0  0
  -20.6710  -26.9270   22.6170 C   0  0  0  0  0  2  0  0  0  0  0  0
  -19.5660  -26.6090   21.6040 C   0  0  0  0  0  2  0  0  0  0  0  0
  -18.1860  -26.7580   22.2510 C   0  0  0  0  0  2  0  0  0  0  0  0
  -19.1370  -28.8650   23.3570 C   0  0  0  0  0  0  0  0  0  0  0  0
  -18.9240  -30.1300   23.9480 C   0  0  0  0  0  3  0  0  0  0  0  0
  -17.6210  -30.6360   24.1160 C   0  0  0  0  0  3  0  0  0  0  0  0
  -16.5130  -29.8750   23.7030 C   0  0  0  0  0  3  0  0  0  0  0  0
  -16.7110  -28.6130   23.1160 C   0  0  0  0  0  3  0  0  0  0  0  0
  -25.8730  -32.5150   23.8400 C   0  0  0  0  0  3  0  0  0  0  0  0
  -25.5700  -33.9110   24.1780 N   0  0  0  0  0  0  0  0  0  0  0  0
  -25.9060  -34.9660   23.4230 C   0  0  0  0  0  0  0  0  0  0  0  0
  -26.5750  -34.8650   22.3900 O   0  0  0  0  0  0  0  0  0  0  0  0
  -24.9760  -34.0640   24.9800 H   0  0  0  0  0  0  0  0  0  0  0  0
  -24.1840  -36.7640   23.0750 C   0  0  0  0  0  1  0  0  0  0  0  0
  -25.4220  -36.3530   23.8860 C   0  0  0  0  0  3  0  0  0  0  0  0
  -27.5610  -37.2230   24.7200 C   0  0  0  0  0  1  0  0  0  0  0  0
  -26.4590  -37.4030   23.7790 N   0  0  0  0  0  0  0  0  0  0  0  0
  -26.0560  -38.3230   23.9350 H   0  0  0  0  0  0  0  0  0  0  0  0
  -26.4010  -31.7340   25.1060 C   0  0  1  0  0  0  0  0  0  0  0  0
  -25.3180  -31.4930   26.1810 C   0  0  0  0  0  1  0  0  0  0  0  0
  -26.9770  -30.3590   24.6970 C   0  0  0  0  0  1  0  0  0  0  0  0
  -27.5590  -32.5220   25.7620 C   0  0  0  0  0  1  0  0  0  0  0  0
  1  2  1  0
  2  4  1  0
  2  3  1  6
  4  8  1  0
  5  6  2  0
  5  8  1  0
  6  9  1  0
  7 10  1  0
  8  7  2  0
  9 20  1  0
  9 10  2  0
 10 11  1  0
 12 20  1  0
 13 18  1  0
 14 15  1  0
 14 13  1  0
 16 15  1  0
 16 25  1  0
 16 17  1  0
 18 12  1  0
 18 17  1  0
 19 12  2  0
 20 21  1  0
 22 23  2  0
 23 42  1  0
 24 23  1  0
 24 27  1  0
 25 26  1  0
 25 22  1  0
 26 24  2  0
 27 28  1  0
 28 29  2  0
 30 33  1  0
 30 29  1  0
 31 30  2  0
 32 31  1  0
 32 27  2  0
 33 34  1  0
 34 35  1  0
 35 36  2  0
 37 36  1  0
 37 41  1  0
 38 37  2  0
 39 34  2  0
 39 38  1  0
 40 39  1  0
 42 43  1  0
 43 46  1  0
 43 45  1  0
 44 42  2  0
 47 48  1  0
 47 22  1  0
 49 47  1  0
 50  2  1  0
 50 51  1  0
 52 51  1  0
 53 52  1  0
 53 54  1  0
 54 56  1  0
 55 66  2  0
 56 61  1  0
 57 65  1  0
 57 67  1  0
 58 64  1  0
 58 60  1  0
 59 65  1  0
 60 59  1  0
 61 60  2  0
 62 63  1  0
 62 56  2  0
 63 58  2  0
 64 57  1  0
 65 55  1  0
 67 69  2  0
 68 67  1  0
 70 68  1  0
 71 80  2  0
 71 76  1  0
 72 68  1  0
 72 76  1  0
 73 72  1  0
 74 75  1  0
 74 73  1  0
 75 71  1  0
 76 77  2  0
 77 78  1  0
 79 78  2  0
 80 79  1  0
 81 55  1  0
 81 82  1  0
 81 91  1  0
 82 85  1  0
 83 87  1  0
 83 82  1  0
 84 83  2  0
 87 86  1  0
 89 87  1  0
 89 90  1  0
 89 88  1  0
 91 94  1  1
 91 92  1  0
 93 91  1  0
M  ISO  4  12 100  20 100  53 101  54 101
M  END
>  <TORSDO>  (34) 
F 22

>  <SCORE>  (34) 
-12.545

>  <name>  (34) 
33

>  <ligand_id>  (34) 
33

>  <original_smiles>  (34) 
[H]c1c([H])c([H])c2c(c1[H])C([H])([H])C([H])([H])C([H])([H])C2([H])N([H])C(=O)C1([H])N(C(=O)C([H])(N([H])C(=O)C([H])(N([H])C([H])([H])[H])C([H])([H])[H])C(C([H])([H])[H])(C([H])([H])[H])C([H])([H])[H])C([H])([H])c2c([H])c(OC([H])([H])C([H])([H])C([H])([H])C([H])([H])[N+]([H])(C([H])([H])[H])C([H])([H])c3c([H])c([H])c(N([H])C(=O)N4C([H])([H])C([H])([H])C([H])([H])C([H])(n5nc(-c6c([H])c([H])c(Oc7c([H])c([H])c(F)c([H])c7F)c([H])c6[H])c(C(=O)N([H])[H])c5N([H])[H])C4([H])[H])c(F)c3[H])c([H])c([H])c2C1([H])[H]

>  <smiles>  (34) 
[H]c1c([H])c([H])c2c(c1[H])C([H])([H])C([H])([H])C([H])([H])C2([H])N([H])C(=O)C1([H])N(C(=O)C([H])(N([H])C(=O)C([H])(N([H])C([H])([H])[H])C([H])([H])[H])C(C([H])([H])[H])(C([H])([H])[H])C([H])([H])[H])C([H])([H])c2c([H])c(OC([H])([H])C([H])([H])C([H])([H])C([H])([H])[N+]([H])(C([H])([H])[H])C([H])([H])c3c([H])c([H])c(N([H])C(=O)N4C([H])([H])C([H])([H])C([H])([H])C([H])(n5nc(-c6c([H])c([H])c(Oc7c([H])c([H])c(F)c([H])c7F)c([H])c6[H])c(C(=O)N([H])[H])c5N([H])[H])C4([H])[H])c(F)c3[H])c([H])c([H])c2C1([H])[H]

$$$$
34:0:0
     RDKit          3D

 97105  0  0  1  0  0  0  0  0999 V2000
  -28.4110  -17.7490   20.9940 C   0  0  0  0  0  3  0  0  0  0  0  0
  -29.8410  -20.1320   20.5900 C   0  0  0  0  0  3  0  0  0  0  0  0
  -29.7870  -17.7790   21.2900 C   0  0  0  0  0  0  0  0  0  0  0  0
  -28.4750  -20.0850   20.2380 C   0  0  0  0  0  0  0  0  0  0  0  0
  -30.4870  -18.9990   21.1330 C   0  0  0  0  0  0  0  0  0  0  0  0
  -27.7640  -18.8830   20.4680 C   0  0  0  0  0  0  0  0  0  0  0  0
  -31.8030  -19.0760   21.4370 F   0  0  0  0  0  0  0  0  0  0  0  0
  -26.4530  -18.7960   20.1480 F   0  0  0  0  0  0  0  0  0  0  0  0
  -30.4970  -16.4870   21.6940 C   0  0  0  0  0  2  0  0  0  0  0  0
  -30.9800  -14.2260   21.1110 C   0  0  0  0  0  0  0  0  0  0  0  0
  -30.6660  -11.9280   20.3240 C   0  0  0  0  0  2  0  0  0  0  0  0
  -29.8960  -11.9490   18.9900 C   0  0  0  0  0  2  0  0  0  0  0  0
  -28.3790  -11.9110   19.2440 C   0  0  0  0  0  2  0  0  0  0  0  0
  -27.9160  -12.9500   20.3050 C   0  0  0  0  0  3  0  0  0  0  0  0
  -28.8310  -12.9580   21.5480 C   0  0  0  0  0  2  0  0  0  0  0  0
  -30.2170  -13.1000   21.0890 N   0  0  0  0  0  0  0  0  0  0  0  0
  -32.2100  -14.1860   21.0550 O   0  0  0  0  0  0  0  0  0  0  0  0
  -30.3780  -15.3780   20.7130 N   0  0  0  0  0  0  0  0  0  0  0  0
  -25.5060  -13.7520   20.7520 C   0  0  0  0  0  0  0  0  0  0  0  0
  -24.3470  -13.0660   21.0060 C   0  0  0  0  0  0  0  0  0  0  0  0
  -24.7100  -11.6890   21.0400 C   0  0  0  0  0  0  0  0  0  0  0  0
  -26.5050  -12.7940   20.6400 N   0  0  0  0  0  0  0  0  0  0  0  0
  -26.0190  -11.5500   20.8720 N   0  0  0  0  0  0  0  0  0  0  0  0
  -23.8770  -10.4860   21.1570 C   0  0  0  0  0  0  0  0  0  0  0  0
  -24.1920   -9.4590   22.0730 C   0  0  0  0  0  3  0  0  0  0  0  0
  -23.3660   -8.3180   22.1800 C   0  0  0  0  0  3  0  0  0  0  0  0
  -22.2150   -8.1990   21.3670 C   0  0  0  0  0  0  0  0  0  0  0  0
  -21.9200   -9.2090   20.4370 C   0  0  0  0  0  3  0  0  0  0  0  0
  -22.7450  -10.3430   20.3280 C   0  0  0  0  0  3  0  0  0  0  0  0
  -21.3640   -7.1180   21.3890 O   0  0  0  0  0  0  0  0  0  0  0  0
  -21.2530   -6.3150   22.4920 C   0  0  0  0  0  0  0  0  0  0  0  0
  -20.8720   -6.8260   23.7520 C   0  0  0  0  0  3  0  0  0  0  0  0
  -20.7050   -5.9530   24.8450 C   0  0  0  0  0  3  0  0  0  0  0  0
  -20.9050   -4.5680   24.6780 C   0  0  0  0  0  0  0  0  0  0  0  0
  -21.2790   -4.0570   23.4240 C   0  0  0  0  0  3  0  0  0  0  0  0
  -21.4510   -4.9280   22.3340 C   0  0  0  0  0  0  0  0  0  0  0  0
  -21.7880   -4.4270   21.1210 F   0  0  0  0  0  0  0  0  0  0  0  0
  -20.7320   -3.7280   25.7250 F   0  0  0  0  0  0  0  0  0  0  0  0
  -22.9690  -13.6490   21.1100 C   0  0  0  0  0  0  0  0  0  0  0  0
  -22.1010  -13.0420   21.9120 N   0  0  0  0  0  0  0  0  0  0  0  0
  -22.6660  -14.6820   20.5120 O   0  0  0  0  0  0  0  0  0  0  0  0
  -22.3510  -12.2020   22.4120 H   0  0  0  0  0  0  0  0  0  0  0  0
  -21.1690  -13.4200   22.0160 H   0  0  0  0  0  0  0  0  0  0  0  0
  -25.7800  -15.1040   20.5920 N   0  0  0  0  0  0  0  0  0  0  0  0
  -25.0730  -15.8250   20.6670 H   0  0  0  0  0  0  0  0  0  0  0  0
  -26.6980  -15.4680   20.3780 H   0  0  0  0  0  0  0  0  0  0  0  0
  -30.8470  -15.8000   19.3580 C   0  0  0  0  0  2  0  0  0  0  0  0
  -28.4510  -16.4300   18.5220 C   0  0  0  0  0  1  0  0  0  0  0  0
  -29.9440  -16.7310   18.5110 C   0  0  0  0  0  2  0  0  0  0  0  0
  -27.7480  -21.2440   19.5430 C   0  0  0  0  0  2  0  0  0  0  0  0
  -26.6570  -23.1880   20.5780 C   0  0  0  0  0  1  0  0  0  0  0  0
  -27.9510  -22.6120   20.1190 N   0  0  2  0  0  4  0  0  0  0  0  0
  -28.5040  -22.4870   20.9500 H   0  0  0  0  0  0  0  0  0  0  0  0
  -28.7040  -23.5410   19.2090 C   0  0  0  0  0  2  0  0  0  0  0  0
  -29.8080  -24.3940   19.8970 C   0  0  0  0  0  2  0  0  0  0  0  0
  -29.3370  -25.5070   20.8660 C   0  0  0  0  0  2  0  0  0  0  0  0
  -29.3580  -26.8450   20.3430 O   0  0  0  0  0  0  0  0  0  0  0  0
  -24.8550  -31.4720   23.4220 C   0  0  0  0  0  0  0  0  0  0  0  0
  -28.1450  -27.4940   20.3080 C   0  0  0  0  0  0  0  0  0  0  0  0
  -23.9430  -30.1350   21.5520 C   0  0  0  0  0  3  0  0  0  0  0  0
  -25.6540  -28.8230   20.1850 C   0  0  0  0  0  0  0  0  0  0  0  0
  -26.4450  -30.6750   21.6660 C   0  0  0  0  0  2  0  0  0  0  0  0
  -26.7030  -29.3730   20.9360 C   0  0  0  0  0  0  0  0  0  0  0  0
  -27.9570  -28.7170   20.9890 C   0  0  0  0  0  3  0  0  0  0  0  0
  -27.0850  -26.9630   19.5460 C   0  0  0  0  0  3  0  0  0  0  0  0
  -25.8420  -27.6210   19.4810 C   0  0  0  0  0  3  0  0  0  0  0  0
  -24.3510  -29.5910   20.1570 C   0  0  0  0  0  2  0  0  0  0  0  0
  -25.0930  -30.7680   22.2780 N   0  0  0  0  0  0  0  0  0  0  0  0
  -23.7030  -31.6260   23.8500 O   0  0  0  0  0  0  0  0  0  0  0  0
  -23.2720  -28.9960   22.3550 C   0  0  0  0  0  0  0  0  0  0  0  0
  -21.9770  -28.7690   22.0930 N   0  0  0  0  0  0  0  0  0  0  0  0
  -23.9170  -28.3270   23.1680 O   0  0  0  0  0  0  0  0  0  0  0  0
  -21.5260  -29.3530   21.4020 H   0  0  0  0  0  0  0  0  0  0  0  0
  -18.6370  -27.3800   22.2310 C   0  0  0  0  0  0  0  0  0  0  0  0
  -21.1550  -27.7270   22.7050 C   0  0  0  0  0  3  0  0  0  0  0  0
  -21.3700  -26.3620   22.0140 C   0  0  0  0  0  2  0  0  0  0  0  0
  -20.3510  -26.0750   20.9110 C   0  0  0  0  0  2  0  0  0  0  0  0
  -18.9290  -26.0990   21.4750 C   0  0  0  0  0  2  0  0  0  0  0  0
  -19.6840  -28.1490   22.8020 C   0  0  0  0  0  0  0  0  0  0  0  0
  -19.3620  -29.3430   23.4830 C   0  0  0  0  0  3  0  0  0  0  0  0
  -18.0240  -29.7650   23.6090 C   0  0  0  0  0  3  0  0  0  0  0  0
  -16.9960  -28.9920   23.0460 C   0  0  0  0  0  3  0  0  0  0  0  0
  -17.3010  -27.8000   22.3640 C   0  0  0  0  0  3  0  0  0  0  0  0
  -26.0090  -32.1350   24.2310 C   0  0  0  0  0  3  0  0  0  0  0  0
  -25.6010  -33.5120   24.5440 N   0  0  0  0  0  0  0  0  0  0  0  0
  -25.9980  -34.5950   23.8660 C   0  0  0  0  0  0  0  0  0  0  0  0
  -26.8200  -34.5430   22.9450 O   0  0  0  0  0  0  0  0  0  0  0  0
  -24.8750  -33.6210   25.2400 H   0  0  0  0  0  0  0  0  0  0  0  0
  -24.2720  -36.3320   23.2890 C   0  0  0  0  0  1  0  0  0  0  0  0
  -25.3920  -35.9540   24.2690 C   0  0  0  0  0  3  0  0  0  0  0  0
  -27.3430  -36.8920   25.4290 C   0  0  0  0  0  1  0  0  0  0  0  0
  -26.3870  -37.0470   24.3340 N   0  0  0  0  0  0  0  0  0  0  0  0
  -25.9270  -37.9470   24.4380 H   0  0  0  0  0  0  0  0  0  0  0  0
  -26.3770  -31.3510   25.5480 C   0  0  1  0  0  0  0  0  0  0  0  0
  -25.1660  -31.0460   26.4590 C   0  0  0  0  0  1  0  0  0  0  0  0
  -27.0600  -30.0060   25.2070 C   0  0  0  0  0  1  0  0  0  0  0  0
  -27.3970  -32.1720   26.3730 C   0  0  0  0  0  1  0  0  0  0  0  0
  1  3  1  0
  2  5  1  0
  3  9  1  0
  4  6  1  0
  4  2  2  0
  5  3  2  0
  5  7  1  0
  6  1  2  0
  8  6  1  0
 11 16  1  0
 12 13  1  0
 12 11  1  0
 14 13  1  0
 14 22  1  0
 14 15  1  0
 16 10  1  0
 16 15  1  0
 17 10  2  0
 18 10  1  0
 18  9  1  0
 19 20  2  0
 20 21  1  0
 20 39  1  0
 21 24  1  0
 22 19  1  0
 22 23  1  0
 23 21  2  0
 24 25  1  0
 25 26  2  0
 27 30  1  0
 27 26  1  0
 28 27  2  0
 29 28  1  0
 29 24  2  0
 30 31  1  0
 31 32  1  0
 32 33  2  0
 34 33  1  0
 34 38  1  0
 35 34  2  0
 36 31  2  0
 36 35  1  0
 37 36  1  0
 39 40  1  0
 40 43  1  0
 40 42  1  0
 41 39  2  0
 44 45  1  0
 44 19  1  0
 46 44  1  0
 47 18  1  0
 49 48  1  0
 49 47  1  0
 50 52  1  0
 50  4  1  0
 52 51  1  0
 52 53  1  1
 54 55  1  0
 54 52  1  0
 55 56  1  0
 57 56  1  0
 58 69  2  0
 59 57  1  0
 59 64  1  0
 60 68  1  0
 60 70  1  0
 61 63  1  0
 62 68  1  0
 63 64  2  0
 63 62  1  0
 65 59  2  0
 66 65  1  0
 66 61  2  0
 67 61  1  0
 67 60  1  0
 68 58  1  0
 70 72  2  0
 71 70  1  0
 73 71  1  0
 74 83  2  0
 74 79  1  0
 75 71  1  0
 75 79  1  0
 76 75  1  0
 77 78  1  0
 77 76  1  0
 78 74  1  0
 79 80  2  0
 80 81  1  0
 82 81  2  0
 83 82  1  0
 84 58  1  0
 84 85  1  0
 84 94  1  0
 85 88  1  0
 86 90  1  0
 86 85  1  0
 87 86  2  0
 90 89  1  0
 90 92  1  0
 92 93  1  0
 92 91  1  0
 94 97  1  1
 94 95  1  0
 96 94  1  0
M  ISO  4  10 100  18 100  56 101  57 101
M  END
>  <TORSDO>  (35) 
F 24

>  <SCORE>  (35) 
-10.086

>  <name>  (35) 
34

>  <ligand_id>  (35) 
34

>  <original_smiles>  (35) 
[H]c1c([H])c([H])c2c(c1[H])C([H])([H])C([H])([H])C([H])([H])C2([H])N([H])C(=O)C1([H])N(C(=O)C([H])(N([H])C(=O)C([H])(N([H])C([H])([H])[H])C([H])([H])[H])C(C([H])([H])[H])(C([H])([H])[H])C([H])([H])[H])C([H])([H])c2c([H])c(OC([H])([H])C([H])([H])C([H])([H])[N+]([H])(C([H])([H])[H])C([H])([H])c3c([H])c(F)c(C([H])([H])N(C(=O)N4C([H])([H])C([H])([H])C([H])([H])C([H])(n5nc(-c6c([H])c([H])c(Oc7c([H])c([H])c(F)c([H])c7F)c([H])c6[H])c(C(=O)N([H])[H])c5N([H])[H])C4([H])[H])C([H])([H])C([H])([H])C([H])([H])[H])c([H])c3F)c([H])c([H])c2C1([H])[H]

>  <smiles>  (35) 
[H]c1c([H])c([H])c2c(c1[H])C([H])([H])C([H])([H])C([H])([H])C2([H])N([H])C(=O)C1([H])N(C(=O)C([H])(N([H])C(=O)C([H])(N([H])C([H])([H])[H])C([H])([H])[H])C(C([H])([H])[H])(C([H])([H])[H])C([H])([H])[H])C([H])([H])c2c([H])c(OC([H])([H])C([H])([H])C([H])([H])[N+]([H])(C([H])([H])[H])C([H])([H])c3c([H])c(F)c(C([H])([H])N(C(=O)N4C([H])([H])C([H])([H])C([H])([H])C([H])(n5nc(-c6c([H])c([H])c(Oc7c([H])c([H])c(F)c([H])c7F)c([H])c6[H])c(C(=O)N([H])[H])c5N([H])[H])C4([H])[H])C([H])([H])C([H])([H])C([H])([H])[H])c([H])c3F)c([H])c([H])c2C1([H])[H]

$$$$
36:0:0
     RDKit          3D

 95104  0  0  1  0  0  0  0  0999 V2000
  -29.3990  -19.6290   17.7090 C   0  0  0  0  0  3  0  0  0  0  0  0
  -28.9610  -20.6330   18.6010 C   0  0  0  0  0  3  0  0  0  0  0  0
  -30.7570  -19.5170   17.3370 C   0  0  0  0  0  3  0  0  0  0  0  0
  -31.2640  -21.3860   18.8030 C   0  0  0  0  0  3  0  0  0  0  0  0
  -29.8710  -21.5290   19.2100 C   0  0  0  0  0  0  0  0  0  0  0  0
  -31.7390  -20.3780   17.8670 C   0  0  0  0  0  0  0  0  0  0  0  0
  -29.3370  -22.5420   20.2440 C   0  0  0  0  0  3  0  0  0  0  0  0
  -29.2480  -23.9270   20.2130 C   0  0  0  0  0  3  0  0  0  0  0  0
  -28.5320  -24.8780   21.2640 C   0  0  0  0  0  2  0  0  0  0  0  0
  -28.7930  -24.7710   22.7380 O   0  0  0  0  0  0  0  0  0  0  0  0
  -26.1640  -28.7340   28.2140 C   0  0  0  0  0  0  0  0  0  0  0  0
  -28.7830  -25.9710   23.4740 C   0  0  0  0  0  0  0  0  0  0  0  0
  -27.2750  -29.9540   26.3780 C   0  0  0  0  0  3  0  0  0  0  0  0
  -28.6670  -28.5280   24.7740 C   0  0  0  0  0  0  0  0  0  0  0  0
  -27.9980  -27.5660   26.9690 C   0  0  0  0  0  2  0  0  0  0  0  0
  -28.3880  -27.3650   25.5050 C   0  0  0  0  0  0  0  0  0  0  0  0
  -28.4470  -26.0850   24.8660 C   0  0  0  0  0  3  0  0  0  0  0  0
  -29.1210  -27.1600   22.7990 C   0  0  0  0  0  3  0  0  0  0  0  0
  -29.0430  -28.4240   23.4250 C   0  0  0  0  0  3  0  0  0  0  0  0
  -28.5390  -29.8670   25.4830 C   0  0  0  0  0  2  0  0  0  0  0  0
  -27.0960  -28.7250   27.2180 N   0  0  0  0  0  0  0  0  0  0  0  0
  -25.4850  -29.7420   28.4530 O   0  0  0  0  0  0  0  0  0  0  0  0
  -26.0500  -30.2760   25.4910 C   0  0  0  0  0  0  0  0  0  0  0  0
  -26.0480  -31.4660   24.8730 N   0  0  0  0  0  0  0  0  0  0  0  0
  -25.1430  -29.4520   25.3510 O   0  0  0  0  0  0  0  0  0  0  0  0
  -26.8250  -32.0910   25.0390 H   0  0  0  0  0  0  0  0  0  0  0  0
  -25.3600  -33.8690   22.2580 C   0  0  0  0  0  0  0  0  0  0  0  0
  -25.0100  -31.9610   23.9670 C   0  0  0  0  0  3  0  0  0  0  0  0
  -24.8580  -31.0260   22.7440 C   0  0  0  0  0  2  0  0  0  0  0  0
  -25.7070  -31.4610   21.5470 C   0  0  0  0  0  2  0  0  0  0  0  0
  -25.3310  -32.8800   21.1030 C   0  0  0  0  0  2  0  0  0  0  0  0
  -25.2280  -33.4340   23.6040 C   0  0  0  0  0  0  0  0  0  0  0  0
  -25.3060  -34.3880   24.6440 C   0  0  0  0  0  3  0  0  0  0  0  0
  -25.5090  -35.7500   24.3550 C   0  0  0  0  0  3  0  0  0  0  0  0
  -25.6280  -36.1760   23.0210 C   0  0  0  0  0  3  0  0  0  0  0  0
  -25.5470  -35.2400   21.9750 C   0  0  0  0  0  3  0  0  0  0  0  0
  -25.9200  -27.4820   29.1090 C   0  0  0  0  0  3  0  0  0  0  0  0
  -24.8880  -26.4620   28.4870 C   0  0  1  0  0  0  0  0  0  0  0  0
  -23.8390  -27.1210   27.5610 C   0  0  0  0  0  1  0  0  0  0  0  0
  -25.6230  -25.3820   27.6610 C   0  0  0  0  0  1  0  0  0  0  0  0
  -24.1380  -25.7250   29.6220 C   0  0  0  0  0  1  0  0  0  0  0  0
  -25.4580  -27.9490   30.4240 N   0  0  0  0  0  0  0  0  0  0  0  0
  -26.2130  -27.9770   31.5270 C   0  0  0  0  0  0  0  0  0  0  0  0
  -27.3690  -27.5380   31.5620 O   0  0  0  0  0  0  0  0  0  0  0  0
  -24.5310  -28.3480   30.4720 H   0  0  0  0  0  0  0  0  0  0  0  0
  -26.0900  -30.0440   32.9490 C   0  0  0  0  0  1  0  0  0  0  0  0
  -25.5940  -28.5970   32.7930 C   0  0  0  0  0  3  0  0  0  0  0  0
  -25.2190  -26.5310   34.0630 C   0  0  0  0  0  1  0  0  0  0  0  0
  -25.8770  -27.8360   34.0300 N   0  0  0  0  0  0  0  0  0  0  0  0
  -25.5800  -28.3570   34.8500 H   0  0  0  0  0  0  0  0  0  0  0  0
  -33.2230  -20.2730   17.2990 C   0  0  0  0  0  2  0  0  0  0  0  0
  -33.1690  -21.0990   14.8180 C   0  0  0  0  0  0  0  0  0  0  0  0
  -32.3330  -21.5090   12.4910 C   0  0  0  0  0  2  0  0  0  0  0  0
  -31.2360  -20.4830   12.1340 C   0  0  0  0  0  2  0  0  0  0  0  0
  -31.8310  -19.1640   11.5990 C   0  0  0  0  0  2  0  0  0  0  0  0
  -33.0490  -18.6670   12.4200 C   0  0  0  0  0  3  0  0  0  0  0  0
  -34.0110  -19.8330   12.6890 C   0  0  0  0  0  2  0  0  0  0  0  0
  -33.2680  -20.8610   13.4490 N   0  0  0  0  0  0  0  0  0  0  0  0
  -32.6060  -22.1410   15.1710 O   0  0  0  0  0  0  0  0  0  0  0  0
  -33.5680  -20.1650   15.8040 N   0  0  0  0  0  0  0  0  0  0  0  0
  -37.0970  -19.2880   14.9470 C   0  0  0  0  0  3  0  0  0  0  0  0
  -35.9180  -20.0270   15.1400 C   0  0  0  0  0  3  0  0  0  0  0  0
  -37.1350  -17.9220   15.2920 C   0  0  0  0  0  3  0  0  0  0  0  0
  -34.8080  -18.0440   16.0230 C   0  0  0  0  0  3  0  0  0  0  0  0
  -34.7530  -19.4010   15.6390 C   0  0  0  0  0  0  0  0  0  0  0  0
  -35.9960  -17.3060   15.8450 C   0  0  0  0  0  0  0  0  0  0  0  0
  -36.0420  -15.9980   16.1980 F   0  0  0  0  0  0  0  0  0  0  0  0
  -34.9260  -16.9400   12.1040 C   0  0  0  0  0  0  0  0  0  0  0  0
  -35.0690  -15.8740   11.2580 C   0  0  0  0  0  0  0  0  0  0  0  0
  -33.8890  -15.8520   10.4570 C   0  0  0  0  0  0  0  0  0  0  0  0
  -33.7120  -17.5270   11.7840 N   0  0  0  0  0  0  0  0  0  0  0  0
  -33.1130  -16.8930   10.7430 N   0  0  0  0  0  0  0  0  0  0  0  0
  -33.4280  -14.8550    9.4820 C   0  0  0  0  0  0  0  0  0  0  0  0
  -32.3720  -15.1310    8.5880 C   0  0  0  0  0  3  0  0  0  0  0  0
  -31.9590  -14.1630    7.6470 C   0  0  0  0  0  3  0  0  0  0  0  0
  -32.6080  -12.9080    7.5860 C   0  0  0  0  0  0  0  0  0  0  0  0
  -33.6470  -12.6300    8.4940 C   0  0  0  0  0  3  0  0  0  0  0  0
  -34.0520  -13.5910    9.4340 C   0  0  0  0  0  3  0  0  0  0  0  0
  -32.2590  -11.9000    6.7200 O   0  0  0  0  0  0  0  0  0  0  0  0
  -31.2600  -12.0620    5.7930 C   0  0  0  0  0  0  0  0  0  0  0  0
  -31.3000  -13.0880    4.8210 C   0  0  0  0  0  3  0  0  0  0  0  0
  -30.2890  -13.1720    3.8430 C   0  0  0  0  0  3  0  0  0  0  0  0
  -29.2440  -12.2300    3.8270 C   0  0  0  0  0  0  0  0  0  0  0  0
  -29.2030  -11.2090    4.7920 C   0  0  0  0  0  3  0  0  0  0  0  0
  -30.2110  -11.1220    5.7670 C   0  0  0  0  0  0  0  0  0  0  0  0
  -30.1800  -10.1190    6.6760 F   0  0  0  0  0  0  0  0  0  0  0  0
  -28.2770  -12.3080    2.8850 F   0  0  0  0  0  0  0  0  0  0  0  0
  -36.1880  -14.8730   11.2710 C   0  0  0  0  0  0  0  0  0  0  0  0
  -36.4760  -14.2580   10.1280 N   0  0  0  0  0  0  0  0  0  0  0  0
  -36.8480  -14.6670   12.2900 O   0  0  0  0  0  0  0  0  0  0  0  0
  -35.9410  -14.4330    9.2920 H   0  0  0  0  0  0  0  0  0  0  0  0
  -37.2410  -13.6000   10.0950 H   0  0  0  0  0  0  0  0  0  0  0  0
  -35.7010  -17.4240   13.1450 N   0  0  0  0  0  0  0  0  0  0  0  0
  -36.5650  -16.9730   13.4270 H   0  0  0  0  0  0  0  0  0  0  0  0
  -35.3880  -18.1290   13.7980 H   0  0  0  0  0  0  0  0  0  0  0  0
  1  2  1  0
  2  5  2  0
  3  1  2  0
  3  6  1  0
  4  5  1  0
  5  7  1  0
  6  4  2  0
  8  7  2  0
  8  9  1  0
  9 10  1  0
 10 12  1  0
 11 22  2  0
 12 17  1  0
 13 23  1  0
 13 21  1  0
 14 20  1  0
 14 16  1  0
 15 21  1  0
 16 15  1  0
 17 16  2  0
 18 19  1  0
 18 12  2  0
 19 14  2  0
 20 13  1  0
 21 11  1  0
 24 26  1  0
 24 23  1  0
 25 23  2  0
 27 32  1  0
 28 24  1  0
 29 28  1  0
 30 29  1  0
 31 30  1  0
 31 27  1  0
 32 28  1  0
 32 33  2  0
 34 33  1  0
 35 34  2  0
 36 27  2  0
 36 35  1  0
 37 11  1  0
 37 42  1  0
 38 37  1  0
 38 41  1  1
 39 38  1  0
 40 38  1  0
 42 45  1  0
 42 43  1  0
 43 44  2  0
 43 47  1  0
 47 46  1  0
 47 49  1  0
 49 48  1  0
 49 50  1  0
 51  6  1  0
 52 59  2  0
 52 60  1  0
 53 58  1  0
 54 53  1  0
 55 54  1  0
 56 55  1  0
 56 57  1  0
 57 58  1  0
 58 52  1  0
 60 51  1  0
 61 62  2  0
 61 63  1  0
 62 65  1  0
 63 66  2  0
 65 60  1  0
 65 64  2  0
 66 64  1  0
 66 67  1  0
 68 93  1  0
 69 88  1  0
 69 68  2  0
 70 72  2  0
 70 69  1  0
 71 68  1  0
 71 56  1  0
 72 71  1  0
 73 70  1  0
 74 73  2  0
 75 74  1  0
 76 75  2  0
 76 77  1  0
 77 78  2  0
 78 73  1  0
 79 76  1  0
 80 79  1  0
 81 80  2  0
 82 81  1  0
 83 82  2  0
 83 84  1  0
 84 85  2  0
 85 80  1  0
 85 86  1  0
 87 83  1  0
 88 90  2  0
 89 88  1  0
 91 89  1  0
 92 89  1  0
 93 94  1  0
 93 95  1  0
M  ISO  4   9 101  10 101  52 100  60 100
M  END
>  <TORSDO>  (36) 
F 20

>  <SCORE>  (36) 
0.617

>  <name>  (36) 
36

>  <ligand_id>  (36) 
36

>  <original_smiles>  (36) 
[H]C(=C([H])C([H])([H])Oc1c([H])c([H])c2c(c1[H])C([H])([H])N(C(=O)C([H])(N([H])C(=O)C([H])(N([H])C([H])([H])[H])C([H])([H])[H])C(C([H])([H])[H])(C([H])([H])[H])C([H])([H])[H])C([H])(C(=O)N([H])C1([H])c3c([H])c([H])c([H])c([H])c3C([H])([H])C([H])([H])C1([H])[H])C2([H])[H])c1c([H])c([H])c([H])c(C([H])([H])N(C(=O)N2C([H])([H])C([H])([H])C([H])([H])C([H])(n3nc(-c4c([H])c([H])c(Oc5c([H])c([H])c(F)c([H])c5F)c([H])c4[H])c(C(=O)N([H])[H])c3N([H])[H])C2([H])[H])c2c([H])c([H])c([H])c(F)c2[H])c1[H]

>  <smiles>  (36) 
[H]C(=C([H])C([H])([H])Oc1c([H])c([H])c2c(c1[H])C([H])([H])N(C(=O)C([H])(N([H])C(=O)C([H])(N([H])C([H])([H])[H])C([H])([H])[H])C(C([H])([H])[H])(C([H])([H])[H])C([H])([H])[H])C([H])(C(=O)N([H])C1([H])c3c([H])c([H])c([H])c([H])c3C([H])([H])C([H])([H])C1([H])[H])C2([H])[H])c1c([H])c([H])c([H])c(C([H])([H])N(C(=O)N2C([H])([H])C([H])([H])C([H])([H])C([H])(n3nc(-c4c([H])c([H])c(Oc5c([H])c([H])c(F)c([H])c5F)c([H])c4[H])c(C(=O)N([H])[H])c3N([H])[H])C2([H])[H])c2c([H])c([H])c([H])c(F)c2[H])c1[H]

$$$$
37:0:0
     RDKit          3D

 95104  0  0  1  0  0  0  0  0999 V2000
  -28.5900  -20.7470   20.8600 C   0  0  0  0  0  2  0  0  0  0  0  0
  -31.2200  -17.8590   20.4170 C   0  0  0  0  0  3  0  0  0  0  0  0
  -29.2700  -19.3860   20.5470 C   0  0  0  0  0  0  0  0  0  0  0  0
  -30.3760  -16.7240   20.5960 C   0  0  0  0  0  0  0  0  0  0  0  0
  -30.6680  -19.1770   20.4000 C   0  0  0  0  0  0  0  0  0  0  0  0
  -28.4430  -18.2350   20.6350 C   0  0  0  0  0  0  0  0  0  0  0  0
  -28.9900  -16.9390   20.6750 C   0  0  0  0  0  0  0  0  0  0  0  0
  -31.4940  -20.2390   20.2700 F   0  0  0  0  0  0  0  0  0  0  0  0
  -27.1030  -18.3630   20.7320 F   0  0  0  0  0  0  0  0  0  0  0  0
  -28.1740  -15.8690   20.8280 F   0  0  0  0  0  0  0  0  0  0  0  0
  -31.2220  -14.4890   19.8340 C   0  0  0  0  0  0  0  0  0  0  0  0
  -30.7810  -12.3460   18.6820 C   0  0  0  0  0  2  0  0  0  0  0  0
  -29.7420  -12.5860   17.5650 C   0  0  0  0  0  2  0  0  0  0  0  0
  -28.3080  -12.4860   18.1140 C   0  0  0  0  0  2  0  0  0  0  0  0
  -28.1000  -13.3230   19.4000 C   0  0  0  0  0  3  0  0  0  0  0  0
  -29.2350  -13.0550   20.4190 C   0  0  0  0  0  2  0  0  0  0  0  0
  -30.5300  -13.3160   19.7590 N   0  0  0  0  0  0  0  0  0  0  0  0
  -32.2280  -14.7360   19.1560 O   0  0  0  0  0  0  0  0  0  0  0  0
  -30.7610  -15.3520   20.7510 N   0  0  0  0  0  0  0  0  0  0  0  0
  -30.1860  -14.8700   21.4290 H   0  0  0  0  0  0  0  0  0  0  0  0
  -25.7930  -14.0090   20.3070 C   0  0  0  0  0  0  0  0  0  0  0  0
  -24.7260  -13.2740   20.7470 C   0  0  0  0  0  0  0  0  0  0  0  0
  -25.1150  -11.9050   20.6300 C   0  0  0  0  0  0  0  0  0  0  0  0
  -26.7780  -13.0920   19.9770 N   0  0  0  0  0  0  0  0  0  0  0  0
  -26.3760  -11.8170   20.2220 N   0  0  0  0  0  0  0  0  0  0  0  0
  -24.3400  -10.6730   20.8340 C   0  0  0  0  0  0  0  0  0  0  0  0
  -24.7520   -9.6860   21.7570 C   0  0  0  0  0  3  0  0  0  0  0  0
  -23.9810   -8.5190   21.9500 C   0  0  0  0  0  3  0  0  0  0  0  0
  -22.7870   -8.3290   21.2170 C   0  0  0  0  0  0  0  0  0  0  0  0
  -22.3920   -9.3020   20.2830 C   0  0  0  0  0  3  0  0  0  0  0  0
  -23.1620  -10.4610   20.0870 C   0  0  0  0  0  3  0  0  0  0  0  0
  -21.9890   -7.2130   21.3200 O   0  0  0  0  0  0  0  0  0  0  0  0
  -21.8720   -6.5170   22.4960 C   0  0  0  0  0  0  0  0  0  0  0  0
  -21.4310   -7.1380   23.6870 C   0  0  0  0  0  3  0  0  0  0  0  0
  -21.2590   -6.3740   24.8570 C   0  0  0  0  0  3  0  0  0  0  0  0
  -21.5080   -4.9870   24.8360 C   0  0  0  0  0  0  0  0  0  0  0  0
  -21.9390   -4.3680   23.6530 C   0  0  0  0  0  3  0  0  0  0  0  0
  -22.1130   -5.1310   22.4830 C   0  0  0  0  0  0  0  0  0  0  0  0
  -22.5080   -4.5220   21.3380 F   0  0  0  0  0  0  0  0  0  0  0  0
  -21.3340   -4.2510   25.9600 F   0  0  0  0  0  0  0  0  0  0  0  0
  -23.3800  -13.8050   21.1550 C   0  0  0  0  0  0  0  0  0  0  0  0
  -22.7080  -13.1320   22.0830 N   0  0  0  0  0  0  0  0  0  0  0  0
  -22.9380  -14.8530   20.6860 O   0  0  0  0  0  0  0  0  0  0  0  0
  -23.0800  -12.2880   22.4910 H   0  0  0  0  0  0  0  0  0  0  0  0
  -21.8090  -13.4720   22.3980 H   0  0  0  0  0  0  0  0  0  0  0  0
  -25.9990  -15.3750   20.1390 N   0  0  0  0  0  0  0  0  0  0  0  0
  -25.2370  -16.0380   20.2450 H   0  0  0  0  0  0  0  0  0  0  0  0
  -26.8100  -15.7760   19.6910 H   0  0  0  0  0  0  0  0  0  0  0  0
  -29.2090  -23.2320   20.6960 C   0  0  0  0  0  0  0  0  0  0  0  0
  -28.0900  -22.7320   19.0500 C   0  0  0  0  0  2  0  0  0  0  0  0
  -28.2560  -24.0660   19.8110 C   0  0  0  0  0  3  0  0  0  0  0  0
  -28.7970  -22.0350   20.1460 N   0  0  0  0  0  0  0  0  0  0  0  0
  -29.9490  -23.4590   21.6350 O   0  0  0  0  0  0  0  0  0  0  0  0
  -28.8460  -25.3700   19.1870 C   0  0  0  0  0  2  0  0  0  0  0  0
  -28.7090  -26.6020   19.9580 O   0  0  0  0  0  0  0  0  0  0  0  0
  -24.6720  -31.6410   23.0890 C   0  0  0  0  0  0  0  0  0  0  0  0
  -27.5110  -27.3100   19.9490 C   0  0  0  0  0  0  0  0  0  0  0  0
  -23.5410  -30.2220   21.4160 C   0  0  0  0  0  3  0  0  0  0  0  0
  -25.0620  -28.7650   19.9790 C   0  0  0  0  0  0  0  0  0  0  0  0
  -26.0630  -30.6650   21.2570 C   0  0  0  0  0  2  0  0  0  0  0  0
  -26.2030  -29.3090   20.5810 C   0  0  0  0  0  0  0  0  0  0  0  0
  -27.4300  -28.5930   20.5550 C   0  0  0  0  0  3  0  0  0  0  0  0
  -26.3350  -26.7850   19.3610 C   0  0  0  0  0  3  0  0  0  0  0  0
  -25.1260  -27.5030   19.3760 C   0  0  0  0  0  3  0  0  0  0  0  0
  -23.7880  -29.5760   20.0290 C   0  0  0  0  0  2  0  0  0  0  0  0
  -24.7760  -30.8590   21.9770 N   0  0  0  0  0  0  0  0  0  0  0  0
  -23.5750  -31.8630   23.6210 O   0  0  0  0  0  0  0  0  0  0  0  0
  -22.9260  -29.1550   22.3500 C   0  0  0  0  0  0  0  0  0  0  0  0
  -21.6220  -28.8910   22.1810 N   0  0  0  0  0  0  0  0  0  0  0  0
  -23.6190  -28.5690   23.1850 O   0  0  0  0  0  0  0  0  0  0  0  0
  -21.1140  -29.4300   21.4910 H   0  0  0  0  0  0  0  0  0  0  0  0
  -18.3190  -27.4580   22.5650 C   0  0  0  0  0  0  0  0  0  0  0  0
  -20.8440  -27.8890   22.9060 C   0  0  0  0  0  3  0  0  0  0  0  0
  -21.0730  -26.4800   22.3100 C   0  0  0  0  0  2  0  0  0  0  0  0
  -20.0030  -26.0790   21.2870 C   0  0  0  0  0  2  0  0  0  0  0  0
  -18.6100  -26.1140   21.9220 C   0  0  0  0  0  2  0  0  0  0  0  0
  -19.3720  -28.2960   23.0160 C   0  0  0  0  0  0  0  0  0  0  0  0
  -19.0500  -29.5510   23.5810 C   0  0  0  0  0  3  0  0  0  0  0  0
  -17.7110  -29.9660   23.6990 C   0  0  0  0  0  3  0  0  0  0  0  0
  -16.6730  -29.1250   23.2630 C   0  0  0  0  0  3  0  0  0  0  0  0
  -16.9780  -27.8720   22.7030 C   0  0  0  0  0  3  0  0  0  0  0  0
  -25.9240  -32.3180   23.7280 C   0  0  0  0  0  3  0  0  0  0  0  0
  -26.4710  -31.5440   24.9890 C   0  0  1  0  0  0  0  0  0  0  0  0
  -25.3810  -31.1930   26.0290 C   0  0  0  0  0  1  0  0  0  0  0  0
  -27.1580  -30.2240   24.5690 C   0  0  0  0  0  1  0  0  0  0  0  0
  -27.5490  -32.3940   25.7000 C   0  0  0  0  0  1  0  0  0  0  0  0
  -25.5490  -33.6920   24.0920 N   0  0  0  0  0  0  0  0  0  0  0  0
  -25.8240  -34.7750   23.3520 C   0  0  0  0  0  0  0  0  0  0  0  0
  -26.4950  -34.7250   22.3180 O   0  0  0  0  0  0  0  0  0  0  0  0
  -24.9520  -33.8000   24.8990 H   0  0  0  0  0  0  0  0  0  0  0  0
  -24.0010  -36.4800   23.0470 C   0  0  0  0  0  1  0  0  0  0  0  0
  -25.2680  -36.1270   23.8400 C   0  0  0  0  0  3  0  0  0  0  0  0
  -27.3640  -37.1040   24.6670 C   0  0  0  0  0  1  0  0  0  0  0  0
  -26.2440  -37.2360   23.7380 N   0  0  0  0  0  0  0  0  0  0  0  0
  -25.7930  -38.1300   23.9110 H   0  0  0  0  0  0  0  0  0  0  0  0
  2  4  1  0
  3  6  2  0
  3  1  1  0
  4  7  2  0
  4 19  1  0
  5  2  2  0
  5  3  1  0
  6  7  1  0
  6  9  1  0
  7 10  1  0
  8  5  1  0
 11 19  1  0
 12 17  1  0
 13 14  1  0
 13 12  1  0
 15 14  1  0
 15 24  1  0
 15 16  1  0
 17 11  1  0
 17 16  1  0
 18 11  2  0
 19 20  1  0
 21 22  2  0
 22 41  1  0
 23 22  1  0
 23 26  1  0
 24 25  1  0
 24 21  1  0
 25 23  2  0
 26 27  1  0
 27 28  2  0
 29 32  1  0
 29 28  1  0
 30 29  2  0
 31 30  1  0
 31 26  2  0
 32 33  1  0
 33 34  1  0
 34 35  2  0
 36 35  1  0
 36 40  1  0
 37 36  2  0
 38 33  2  0
 38 37  1  0
 39 38  1  0
 41 42  1  0
 42 45  1  0
 42 44  1  0
 43 41  2  0
 46 47  1  0
 46 21  1  0
 48 46  1  0
 49 53  2  0
 50 51  1  0
 50 52  1  0
 51 54  1  0
 51 49  1  0
 52 49  1  0
 52  1  1  0
 54 55  1  0
 56 67  2  0
 57 55  1  0
 57 62  1  0
 58 66  1  0
 58 68  1  0
 59 65  1  0
 59 61  1  0
 60 66  1  0
 61 60  1  0
 62 61  2  0
 63 64  1  0
 63 57  2  0
 64 59  2  0
 65 58  1  0
 66 56  1  0
 68 70  2  0
 69 68  1  0
 71 69  1  0
 72 81  2  0
 72 77  1  0
 73 69  1  0
 73 77  1  0
 74 73  1  0
 75 76  1  0
 75 74  1  0
 76 72  1  0
 77 78  2  0
 78 79  1  0
 80 79  2  0
 81 80  1  0
 82 56  1  0
 82 87  1  0
 82 83  1  0
 83 86  1  1
 83 84  1  0
 85 83  1  0
 87 90  1  0
 88 92  1  0
 88 87  1  0
 89 88  2  0
 92 91  1  0
 94 92  1  0
 94 95  1  0
 94 93  1  0
M  ISO  4  11 100  19 100  54 101  55 101
M  END
>  <TORSDO>  (37) 
F 19

>  <SCORE>  (37) 
-13.554

>  <name>  (37) 
37

>  <ligand_id>  (37) 
37

>  <original_smiles>  (37) 
[H]c1c([H])c([H])c2c(c1[H])C([H])([H])C([H])([H])C([H])([H])C2([H])N([H])C(=O)C1([H])N(C(=O)C([H])(N([H])C(=O)C([H])(N([H])C([H])([H])[H])C([H])([H])[H])C(C([H])([H])[H])(C([H])([H])[H])C([H])([H])[H])C([H])([H])c2c([H])c(OC([H])([H])C3([H])C(=O)N(C([H])([H])c4c(F)c([H])c(N([H])C(=O)N5C([H])([H])C([H])([H])C([H])([H])C([H])(n6nc(-c7c([H])c([H])c(Oc8c([H])c([H])c(F)c([H])c8F)c([H])c7[H])c(C(=O)N([H])[H])c6N([H])[H])C5([H])[H])c(F)c4F)C3([H])[H])c([H])c([H])c2C1([H])[H]

>  <smiles>  (37) 
[H]c1c([H])c([H])c2c(c1[H])C([H])([H])C([H])([H])C([H])([H])C2([H])N([H])C(=O)C1([H])N(C(=O)C([H])(N([H])C(=O)C([H])(N([H])C([H])([H])[H])C([H])([H])[H])C(C([H])([H])[H])(C([H])([H])[H])C([H])([H])[H])C([H])([H])c2c([H])c(OC([H])([H])C3([H])C(=O)N(C([H])([H])c4c(F)c([H])c(N([H])C(=O)N5C([H])([H])C([H])([H])C([H])([H])C([H])(n6nc(-c7c([H])c([H])c(Oc8c([H])c([H])c(F)c([H])c8F)c([H])c7[H])c(C(=O)N([H])[H])c6N([H])[H])C5([H])[H])c(F)c4F)C3([H])[H])c([H])c([H])c2C1([H])[H]

$$$$
38:0:0
     RDKit          3D

 92100  0  0  1  0  0  0  0  0999 V2000
  -30.2150  -17.2490   18.5940 C   0  0  0  0  0  3  0  0  0  0  0  0
  -29.9000  -19.6850   18.5560 C   0  0  0  0  0  3  0  0  0  0  0  0
  -29.9780  -17.1840   19.9880 C   0  0  0  0  0  0  0  0  0  0  0  0
  -29.6620  -19.7330   19.9490 C   0  0  0  0  0  0  0  0  0  0  0  0
  -30.1650  -18.4700   17.8940 C   0  0  0  0  0  0  0  0  0  0  0  0
  -29.6910  -18.4530   20.6460 C   0  0  0  0  0  0  0  0  0  0  0  0
  -30.3730  -18.4760   16.5550 F   0  0  0  0  0  0  0  0  0  0  0  0
  -29.4380  -18.4420   21.9790 F   0  0  0  0  0  0  0  0  0  0  0  0
  -30.6810  -14.7250   20.3450 C   0  0  0  0  0  0  0  0  0  0  0  0
  -30.4720  -12.4500   19.3640 C   0  0  0  0  0  2  0  0  0  0  0  0
  -29.5570  -12.5650   18.1250 C   0  0  0  0  0  2  0  0  0  0  0  0
  -28.0820  -12.3950   18.5360 C   0  0  0  0  0  2  0  0  0  0  0  0
  -27.6990  -13.2830   19.7520 C   0  0  0  0  0  3  0  0  0  0  0  0
  -28.7400  -13.1740   20.8910 C   0  0  0  0  0  2  0  0  0  0  0  0
  -30.0550  -13.5010   20.3230 N   0  0  0  0  0  0  0  0  0  0  0  0
  -31.8520  -14.8250   19.9640 O   0  0  0  0  0  0  0  0  0  0  0  0
  -29.9360  -15.8500   20.6390 N   0  0  0  0  0  0  0  0  0  0  0  0
  -29.1100  -15.6800   21.1940 H   0  0  0  0  0  0  0  0  0  0  0  0
  -25.3030  -13.8810   20.4510 C   0  0  0  0  0  0  0  0  0  0  0  0
  -24.2350  -13.1100   20.8170 C   0  0  0  0  0  0  0  0  0  0  0  0
  -24.6970  -11.7580   20.7980 C   0  0  0  0  0  0  0  0  0  0  0  0
  -26.3480  -12.9990   20.2260 N   0  0  0  0  0  0  0  0  0  0  0  0
  -25.9910  -11.7170   20.4990 N   0  0  0  0  0  0  0  0  0  0  0  0
  -23.9670  -10.4970   20.9910 C   0  0  0  0  0  0  0  0  0  0  0  0
  -24.3800   -9.5410   21.9440 C   0  0  0  0  0  3  0  0  0  0  0  0
  -23.6500   -8.3470   22.1240 C   0  0  0  0  0  3  0  0  0  0  0  0
  -22.4910   -8.1010   21.3490 C   0  0  0  0  0  0  0  0  0  0  0  0
  -22.0980   -9.0440   20.3840 C   0  0  0  0  0  3  0  0  0  0  0  0
  -22.8300  -10.2290   20.2030 C   0  0  0  0  0  3  0  0  0  0  0  0
  -21.7330   -6.9580   21.4370 O   0  0  0  0  0  0  0  0  0  0  0  0
  -21.6490   -6.2390   22.6030 C   0  0  0  0  0  0  0  0  0  0  0  0
  -21.1720   -6.8140   23.8000 C   0  0  0  0  0  3  0  0  0  0  0  0
  -21.0370   -6.0200   24.9570 C   0  0  0  0  0  3  0  0  0  0  0  0
  -21.3680   -4.6520   24.9150 C   0  0  0  0  0  0  0  0  0  0  0  0
  -21.8380   -4.0770   23.7220 C   0  0  0  0  0  3  0  0  0  0  0  0
  -21.9750   -4.8680   22.5680 C   0  0  0  0  0  0  0  0  0  0  0  0
  -22.4110   -4.3040   21.4160 F   0  0  0  0  0  0  0  0  0  0  0  0
  -21.2290   -3.8870   26.0230 F   0  0  0  0  0  0  0  0  0  0  0  0
  -22.8360  -13.5900   21.0740 C   0  0  0  0  0  0  0  0  0  0  0  0
  -22.1020  -12.8960   21.9370 N   0  0  0  0  0  0  0  0  0  0  0  0
  -22.4040  -14.6120   20.5430 O   0  0  0  0  0  0  0  0  0  0  0  0
  -22.4660  -12.0670   22.3840 H   0  0  0  0  0  0  0  0  0  0  0  0
  -21.1650  -13.2000   22.1610 H   0  0  0  0  0  0  0  0  0  0  0  0
  -25.4660  -15.2510   20.2690 N   0  0  0  0  0  0  0  0  0  0  0  0
  -24.6850  -15.8940   20.3350 H   0  0  0  0  0  0  0  0  0  0  0  0
  -26.3050  -15.6900   19.9150 H   0  0  0  0  0  0  0  0  0  0  0  0
  -29.4410  -21.0180   20.5920 N   0  0  0  0  0  0  0  0  0  0  0  0
  -29.2980  -20.9490   21.5980 H   0  0  0  0  0  0  0  0  0  0  0  0
  -28.8180  -22.2390   19.9360 C   0  0  0  0  0  2  0  0  0  0  0  0
  -29.1170  -23.7230   20.5120 C   0  0  0  0  0  3  0  0  0  0  0  0
  -28.1920  -24.9460   19.9920 C   0  0  0  0  0  3  0  0  0  0  0  0
  -28.4060  -26.3900   20.3540 O   0  0  0  0  0  0  0  0  0  0  0  0
  -24.6790  -31.8640   23.3200 C   0  0  0  0  0  0  0  0  0  0  0  0
  -27.3160  -27.2890   20.2670 C   0  0  0  0  0  0  0  0  0  0  0  0
  -23.4950  -30.4830   21.6540 C   0  0  0  0  0  3  0  0  0  0  0  0
  -24.9640  -28.9430   20.2320 C   0  0  0  0  0  0  0  0  0  0  0  0
  -26.0400  -30.7870   21.5090 C   0  0  0  0  0  2  0  0  0  0  0  0
  -26.1260  -29.4080   20.8590 C   0  0  0  0  0  0  0  0  0  0  0  0
  -27.3030  -28.5910   20.8740 C   0  0  0  0  0  3  0  0  0  0  0  0
  -26.1330  -26.9060   19.5880 C   0  0  0  0  0  3  0  0  0  0  0  0
  -24.9720  -27.7000   19.5860 C   0  0  0  0  0  3  0  0  0  0  0  0
  -23.7270  -29.8220   20.2700 C   0  0  0  0  0  2  0  0  0  0  0  0
  -24.7580  -31.0610   22.2180 N   0  0  0  0  0  0  0  0  0  0  0  0
  -23.5890  -32.1350   23.8450 O   0  0  0  0  0  0  0  0  0  0  0  0
  -22.8160  -29.4580   22.5960 C   0  0  0  0  0  0  0  0  0  0  0  0
  -21.4920  -29.2810   22.4470 N   0  0  0  0  0  0  0  0  0  0  0  0
  -23.4810  -28.8270   23.4210 O   0  0  0  0  0  0  0  0  0  0  0  0
  -21.0130  -29.8240   21.7420 H   0  0  0  0  0  0  0  0  0  0  0  0
  -18.1100  -28.0880   22.9060 C   0  0  0  0  0  0  0  0  0  0  0  0
  -20.6650  -28.3440   23.2070 C   0  0  0  0  0  3  0  0  0  0  0  0
  -20.7750  -26.9120   22.6330 C   0  0  0  0  0  2  0  0  0  0  0  0
  -19.6850  -26.5930   21.6050 C   0  0  0  0  0  2  0  0  0  0  0  0
  -18.2970  -26.7400   22.2310 C   0  0  0  0  0  2  0  0  0  0  0  0
  -19.2240  -28.8470   23.3520 C   0  0  0  0  0  0  0  0  0  0  0  0
  -18.9980  -30.1070   23.9490 C   0  0  0  0  0  3  0  0  0  0  0  0
  -17.6930  -30.6070   24.1040 C   0  0  0  0  0  3  0  0  0  0  0  0
  -16.5920  -29.8460   23.6720 C   0  0  0  0  0  3  0  0  0  0  0  0
  -16.8020  -28.5890   23.0770 C   0  0  0  0  0  3  0  0  0  0  0  0
  -25.9540  -32.4950   23.9570 C   0  0  0  0  0  3  0  0  0  0  0  0
  -26.4270  -31.7440   25.2610 C   0  0  1  0  0  0  0  0  0  0  0  0
  -25.3050  -31.5400   26.3060 C   0  0  0  0  0  1  0  0  0  0  0  0
  -27.0020  -30.3520   24.9120 C   0  0  0  0  0  1  0  0  0  0  0  0
  -27.5690  -32.5360   25.9380 C   0  0  0  0  0  1  0  0  0  0  0  0
  -25.6510  -33.9030   24.2540 N   0  0  0  0  0  0  0  0  0  0  0  0
  -26.0000  -34.9380   23.4780 C   0  0  0  0  0  0  0  0  0  0  0  0
  -26.6800  -34.8080   22.4560 O   0  0  0  0  0  0  0  0  0  0  0  0
  -25.0470  -34.0770   25.0440 H   0  0  0  0  0  0  0  0  0  0  0  0
  -24.2890  -36.7400   23.0720 C   0  0  0  0  0  1  0  0  0  0  0  0
  -25.5190  -36.3400   23.9020 C   0  0  0  0  0  3  0  0  0  0  0  0
  -27.6510  -37.2320   24.7340 C   0  0  0  0  0  1  0  0  0  0  0  0
  -26.5600  -37.3830   23.7750 N   0  0  0  0  0  0  0  0  0  0  0  0
  -26.1580  -38.3090   23.8910 H   0  0  0  0  0  0  0  0  0  0  0  0
  1  3  1  0
  2  4  2  0
  3 17  1  0
  3  6  2  0
  4 47  1  0
  4  6  1  0
  5  2  1  0
  5  1  2  0
  6  8  1  0
  7  5  1  0
  9 17  1  0
 10 15  1  0
 11 12  1  0
 11 10  1  0
 13 12  1  0
 13 22  1  0
 13 14  1  0
 15  9  1  0
 15 14  1  0
 16  9  2  0
 17 18  1  0
 19 20  2  0
 20 39  1  0
 21 20  1  0
 21 24  1  0
 22 19  1  0
 22 23  1  0
 23 21  2  0
 24 25  1  0
 25 26  2  0
 27 30  1  0
 27 26  1  0
 28 27  2  0
 29 28  1  0
 29 24  2  0
 30 31  1  0
 31 32  1  0
 32 33  2  0
 34 33  1  0
 34 38  1  0
 35 34  2  0
 36 31  2  0
 36 35  1  0
 37 36  1  0
 39 40  1  0
 40 43  1  0
 40 42  1  0
 41 39  2  0
 44 45  1  0
 44 19  1  0
 46 44  1  0
 47 48  1  0
 49 50  1  0
 49 47  1  0
 51 52  1  0
 51 50  2  0
 53 64  2  0
 54 52  1  0
 54 59  1  0
 55 63  1  0
 55 65  1  0
 56 62  1  0
 56 58  1  0
 57 63  1  0
 58 59  2  0
 58 57  1  0
 60 54  2  0
 61 60  1  0
 61 56  2  0
 62 55  1  0
 63 53  1  0
 65 67  2  0
 66 65  1  0
 68 66  1  0
 69 78  2  0
 69 74  1  0
 70 66  1  0
 70 74  1  0
 71 70  1  0
 72 73  1  0
 72 71  1  0
 73 69  1  0
 74 75  2  0
 75 76  1  0
 77 76  2  0
 78 77  1  0
 79 53  1  0
 79 84  1  0
 79 80  1  0
 80 83  1  1
 80 81  1  0
 82 80  1  0
 84 87  1  0
 85 89  1  0
 85 84  1  0
 86 85  2  0
 89 88  1  0
 91 92  1  0
 91 89  1  0
 91 90  1  0
M  ISO  4   9 100  17 100  51 101  52 101
M  END
>  <TORSDO>  (38) 
F 20

>  <SCORE>  (38) 
-13.388

>  <name>  (38) 
38

>  <ligand_id>  (38) 
38

>  <original_smiles>  (38) 
[H]c1c([H])c([H])c2c(c1[H])C([H])([H])C([H])([H])C([H])([H])C2([H])N([H])C(=O)C1([H])N(C(=O)C([H])(N([H])C(=O)C([H])(N([H])C([H])([H])[H])C([H])([H])[H])C(C([H])([H])[H])(C([H])([H])[H])C([H])([H])[H])C([H])([H])c2c([H])c(OC([H])([H])C([H])([H])C([H])([H])N([H])c3c([H])c(F)c([H])c(N([H])C(=O)N4C([H])([H])C([H])([H])C([H])([H])C([H])(n5nc(-c6c([H])c([H])c(Oc7c([H])c([H])c(F)c([H])c7F)c([H])c6[H])c(C(=O)N([H])[H])c5N([H])[H])C4([H])[H])c3F)c([H])c([H])c2C1([H])[H]

>  <smiles>  (38) 
[H]c1c([H])c([H])c2c(c1[H])C([H])([H])C([H])([H])C([H])([H])C2([H])N([H])C(=O)C1([H])N(C(=O)C([H])(N([H])C(=O)C([H])(N([H])C([H])([H])[H])C([H])([H])[H])C(C([H])([H])[H])(C([H])([H])[H])C([H])([H])[H])C([H])([H])c2c([H])c(OC([H])([H])C([H])([H])C([H])([H])N([H])c3c([H])c(F)c([H])c(N([H])C(=O)N4C([H])([H])C([H])([H])C([H])([H])C([H])(n5nc(-c6c([H])c([H])c(Oc7c([H])c([H])c(F)c([H])c7F)c([H])c6[H])c(C(=O)N([H])[H])c5N([H])[H])C4([H])[H])c3F)c([H])c([H])c2C1([H])[H]

$$$$
39:0:0
     RDKit          3D

 91 99  0  0  1  0  0  0  0  0999 V2000
  -28.1370  -22.3490   22.5800 C   0  0  0  0  0  1  0  0  0  0  0  0
  -29.0540  -22.2430   21.4440 N   0  0  0  0  0  0  0  0  0  0  0  0
  -30.6790  -18.9020   21.9470 C   0  0  0  0  0  3  0  0  0  0  0  0
  -29.8280  -18.9990   19.6790 C   0  0  0  0  0  3  0  0  0  0  0  0
  -30.1830  -20.2010   22.1870 C   0  0  0  0  0  3  0  0  0  0  0  0
  -29.3550  -20.3090   19.9130 C   0  0  0  0  0  3  0  0  0  0  0  0
  -30.4990  -18.2780   20.6950 C   0  0  0  0  0  0  0  0  0  0  0  0
  -29.5190  -20.9340   21.1740 C   0  0  0  0  0  0  0  0  0  0  0  0
  -31.1680  -16.9330   20.3840 C   0  0  0  0  0  2  0  0  0  0  0  0
  -30.8420  -14.5460   19.9580 C   0  0  0  0  0  0  0  0  0  0  0  0
  -30.3640  -12.3860   18.8480 C   0  0  0  0  0  2  0  0  0  0  0  0
  -29.3640  -12.5690   17.6880 C   0  0  0  0  0  2  0  0  0  0  0  0
  -27.9250  -12.3920   18.2000 C   0  0  0  0  0  2  0  0  0  0  0  0
  -27.6530  -13.2570   19.4570 C   0  0  0  0  0  3  0  0  0  0  0  0
  -28.7720  -13.0880   20.5060 C   0  0  0  0  0  2  0  0  0  0  0  0
  -30.0690  -13.4120   19.8750 N   0  0  0  0  0  0  0  0  0  0  0  0
  -31.8670  -14.6330   19.2680 O   0  0  0  0  0  0  0  0  0  0  0  0
  -29.8750  -15.5920   22.0130 C   0  0  0  0  0  1  0  0  0  0  0  0
  -30.4420  -15.6540   20.6600 N   0  0  0  0  0  0  0  0  0  0  0  0
  -25.3240  -13.8590   20.3650 C   0  0  0  0  0  0  0  0  0  0  0  0
  -24.2840  -13.0830   20.7990 C   0  0  0  0  0  0  0  0  0  0  0  0
  -24.7340  -11.7310   20.7070 C   0  0  0  0  0  0  0  0  0  0  0  0
  -26.3400  -12.9770   20.0310 N   0  0  0  0  0  0  0  0  0  0  0  0
  -25.9950  -11.6910   20.2940 N   0  0  0  0  0  0  0  0  0  0  0  0
  -24.0200  -10.4680   20.9300 C   0  0  0  0  0  0  0  0  0  0  0  0
  -24.4760   -9.5190   21.8700 C   0  0  0  0  0  3  0  0  0  0  0  0
  -23.7610   -8.3220   22.0820 C   0  0  0  0  0  3  0  0  0  0  0  0
  -22.5760   -8.0650   21.3530 C   0  0  0  0  0  0  0  0  0  0  0  0
  -22.1380   -9.0050   20.4030 C   0  0  0  0  0  3  0  0  0  0  0  0
  -22.8530  -10.1940   20.1910 C   0  0  0  0  0  3  0  0  0  0  0  0
  -21.8320   -6.9150   21.4700 O   0  0  0  0  0  0  0  0  0  0  0  0
  -21.7440   -6.2320   22.6560 C   0  0  0  0  0  0  0  0  0  0  0  0
  -21.2720   -6.8450   23.8380 C   0  0  0  0  0  3  0  0  0  0  0  0
  -21.1330   -6.0870   25.0160 C   0  0  0  0  0  3  0  0  0  0  0  0
  -21.4570   -4.7180   25.0170 C   0  0  0  0  0  0  0  0  0  0  0  0
  -21.9230   -4.1040   23.8400 C   0  0  0  0  0  3  0  0  0  0  0  0
  -22.0640   -4.8600   22.6640 C   0  0  0  0  0  0  0  0  0  0  0  0
  -22.4940   -4.2590   21.5270 F   0  0  0  0  0  0  0  0  0  0  0  0
  -21.3160   -3.9870   26.1470 F   0  0  0  0  0  0  0  0  0  0  0  0
  -22.9170  -13.5640   21.1920 C   0  0  0  0  0  0  0  0  0  0  0  0
  -22.2650  -12.8700   22.1190 N   0  0  0  0  0  0  0  0  0  0  0  0
  -22.4370  -14.5890   20.7100 O   0  0  0  0  0  0  0  0  0  0  0  0
  -22.6650  -12.0410   22.5300 H   0  0  0  0  0  0  0  0  0  0  0  0
  -21.3520  -13.1760   22.4220 H   0  0  0  0  0  0  0  0  0  0  0  0
  -25.4800  -15.2320   20.2090 N   0  0  0  0  0  0  0  0  0  0  0  0
  -24.7280  -15.8830   20.4090 H   0  0  0  0  0  0  0  0  0  0  0  0
  -26.3240  -15.6890   19.8850 H   0  0  0  0  0  0  0  0  0  0  0  0
  -28.9170  -23.1870   20.3270 C   0  0  0  0  0  2  0  0  0  0  0  0
  -28.7330  -24.6650   20.7560 C   0  0  0  0  0  2  0  0  0  0  0  0
  -28.6730  -25.6020   19.5350 C   0  0  0  0  0  2  0  0  0  0  0  0
  -28.5220  -26.9680   19.9240 O   0  0  0  0  0  0  0  0  0  0  0  0
  -24.6430  -31.9220   23.1970 C   0  0  0  0  0  0  0  0  0  0  0  0
  -27.2880  -27.5890   19.9660 C   0  0  0  0  0  0  0  0  0  0  0  0
  -23.4100  -30.5260   21.5620 C   0  0  0  0  0  3  0  0  0  0  0  0
  -24.8530  -29.0380   20.0760 C   0  0  0  0  0  0  0  0  0  0  0  0
  -25.9230  -30.9390   21.3000 C   0  0  0  0  0  2  0  0  0  0  0  0
  -26.0160  -29.5800   20.6330 C   0  0  0  0  0  0  0  0  0  0  0  0
  -27.2310  -28.8660   20.5710 C   0  0  0  0  0  3  0  0  0  0  0  0
  -26.0990  -27.0480   19.4210 C   0  0  0  0  0  3  0  0  0  0  0  0
  -24.8890  -27.7710   19.4700 C   0  0  0  0  0  3  0  0  0  0  0  0
  -23.5950  -29.8710   20.1650 C   0  0  0  0  0  2  0  0  0  0  0  0
  -24.6770  -31.1470   22.0760 N   0  0  0  0  0  0  0  0  0  0  0  0
  -23.5730  -32.1610   23.7750 O   0  0  0  0  0  0  0  0  0  0  0  0
  -22.8050  -29.4770   22.5230 C   0  0  0  0  0  0  0  0  0  0  0  0
  -21.4880  -29.2440   22.4020 N   0  0  0  0  0  0  0  0  0  0  0  0
  -23.5150  -28.8730   23.3320 O   0  0  0  0  0  0  0  0  0  0  0  0
  -20.9740  -29.7750   21.7130 H   0  0  0  0  0  0  0  0  0  0  0  0
  -18.1710  -27.8950   22.8690 C   0  0  0  0  0  0  0  0  0  0  0  0
  -20.7090  -28.2750   23.1730 C   0  0  0  0  0  3  0  0  0  0  0  0
  -20.8890  -26.8480   22.6060 C   0  0  0  0  0  2  0  0  0  0  0  0
  -19.8190  -26.4650   21.5810 C   0  0  0  0  0  2  0  0  0  0  0  0
  -18.4240  -26.5500   22.2070 C   0  0  0  0  0  2  0  0  0  0  0  0
  -19.2450  -28.7120   23.3060 C   0  0  0  0  0  0  0  0  0  0  0  0
  -18.9600  -29.9710   23.8790 C   0  0  0  0  0  3  0  0  0  0  0  0
  -17.6310  -30.4110   24.0260 C   0  0  0  0  0  3  0  0  0  0  0  0
  -16.5700  -29.5920   23.6050 C   0  0  0  0  0  3  0  0  0  0  0  0
  -16.8400  -28.3350   23.0330 C   0  0  0  0  0  3  0  0  0  0  0  0
  -25.9380  -32.5580   23.7930 C   0  0  0  0  0  3  0  0  0  0  0  0
  -25.6320  -33.9540   24.1340 N   0  0  0  0  0  0  0  0  0  0  0  0
  -25.9370  -35.0090   23.3650 C   0  0  0  0  0  0  0  0  0  0  0  0
  -26.5810  -34.9120   22.3170 O   0  0  0  0  0  0  0  0  0  0  0  0
  -25.0620  -34.1050   24.9540 H   0  0  0  0  0  0  0  0  0  0  0  0
  -24.1780  -36.7740   23.0510 C   0  0  0  0  0  1  0  0  0  0  0  0
  -25.4440  -36.3910   23.8340 C   0  0  0  0  0  3  0  0  0  0  0  0
  -27.5860  -37.2930   24.6210 C   0  0  0  0  0  1  0  0  0  0  0  0
  -26.4630  -37.4550   23.7010 N   0  0  0  0  0  0  0  0  0  0  0  0
  -26.0510  -38.3700   23.8610 H   0  0  0  0  0  0  0  0  0  0  0  0
  -26.4920  -31.7840   25.0540 C   0  0  1  0  0  0  0  0  0  0  0  0
  -25.4220  -31.5090   26.1340 C   0  0  0  0  0  1  0  0  0  0  0  0
  -27.0960  -30.4250   24.6360 C   0  0  0  0  0  1  0  0  0  0  0  0
  -27.6370  -32.5920   25.7100 C   0  0  0  0  0  1  0  0  0  0  0  0
  2  1  1  0
  3  5  1  0
  4  6  2  0
  4  7  1  0
  6  8  1  0
  7  3  2  0
  8  2  1  0
  8  5  2  0
  9 19  1  0
  9  7  1  0
 10 19  1  0
 11 16  1  0
 12 13  1  0
 12 11  1  0
 14 13  1  0
 14 23  1  0
 14 15  1  0
 16 10  1  0
 16 15  1  0
 17 10  2  0
 19 18  1  0
 20 21  2  0
 21 40  1  0
 22 21  1  0
 22 25  1  0
 23 24  1  0
 23 20  1  0
 24 22  2  0
 25 26  1  0
 26 27  2  0
 28 31  1  0
 28 27  1  0
 29 28  2  0
 30 29  1  0
 30 25  2  0
 31 32  1  0
 32 37  2  0
 32 33  1  0
 33 34  2  0
 34 35  1  0
 35 39  1  0
 36 35  2  0
 37 36  1  0
 38 37  1  0
 40 41  1  0
 41 44  1  0
 41 43  1  0
 42 40  2  0
 45 20  1  0
 45 46  1  0
 47 45  1  0
 48 49  1  0
 48  2  1  0
 50 51  1  0
 50 49  1  0
 51 53  1  0
 52 63  2  0
 53 58  1  0
 54 62  1  0
 54 64  1  0
 55 61  1  0
 55 57  1  0
 56 62  1  0
 57 56  1  0
 58 57  2  0
 59 60  1  0
 59 53  2  0
 60 55  2  0
 61 54  1  0
 62 52  1  0
 64 66  2  0
 65 64  1  0
 67 65  1  0
 68 77  2  0
 68 73  1  0
 69 65  1  0
 69 73  1  0
 70 69  1  0
 71 72  1  0
 71 70  1  0
 72 68  1  0
 73 74  2  0
 74 75  1  0
 76 75  2  0
 77 76  1  0
 78 52  1  0
 78 79  1  0
 78 88  1  0
 79 82  1  0
 80 84  1  0
 80 79  1  0
 81 80  2  0
 84 83  1  0
 86 84  1  0
 86 87  1  0
 86 85  1  0
 88 91  1  1
 88 89  1  0
 90 88  1  0
M  ISO  4  10 100  19 100  50 101  51 101
M  END
>  <TORSDO>  (39) 
F 21

>  <SCORE>  (39) 
-11.894

>  <name>  (39) 
39

>  <ligand_id>  (39) 
39

>  <original_smiles>  (39) 
[H]c1c([H])c([H])c2c(c1[H])C([H])([H])C([H])([H])C([H])([H])C2([H])N([H])C(=O)C1([H])N(C(=O)C([H])(N([H])C(=O)C([H])(N([H])C([H])([H])[H])C([H])([H])[H])C(C([H])([H])[H])(C([H])([H])[H])C([H])([H])[H])C([H])([H])c2c([H])c(OC([H])([H])C([H])([H])C([H])([H])N(c3c([H])c([H])c(C([H])([H])N(C(=O)N4C([H])([H])C([H])([H])C([H])([H])C([H])(n5nc(-c6c([H])c([H])c(Oc7c([H])c([H])c(F)c([H])c7F)c([H])c6[H])c(C(=O)N([H])[H])c5N([H])[H])C4([H])[H])C([H])([H])[H])c([H])c3[H])C([H])([H])[H])c([H])c([H])c2C1([H])[H]

>  <smiles>  (39) 
[H]c1c([H])c([H])c2c(c1[H])C([H])([H])C([H])([H])C([H])([H])C2([H])N([H])C(=O)C1([H])N(C(=O)C([H])(N([H])C(=O)C([H])(N([H])C([H])([H])[H])C([H])([H])[H])C(C([H])([H])[H])(C([H])([H])[H])C([H])([H])[H])C([H])([H])c2c([H])c(OC([H])([H])C([H])([H])C([H])([H])N(c3c([H])c([H])c(C([H])([H])N(C(=O)N4C([H])([H])C([H])([H])C([H])([H])C([H])(n5nc(-c6c([H])c([H])c(Oc7c([H])c([H])c(F)c([H])c7F)c([H])c6[H])c(C(=O)N([H])[H])c5N([H])[H])C4([H])[H])C([H])([H])[H])c([H])c3[H])C([H])([H])[H])c([H])c([H])c2C1([H])[H]

$$$$
40:0:0
     RDKit          3D

 91 99  0  0  1  0  0  0  0  0999 V2000
  -29.9950  -21.5290   20.3470 N   0  0  0  0  0  0  0  0  0  0  0  0
  -30.9320  -21.9270   20.3000 H   0  0  0  0  0  0  0  0  0  0  0  0
  -31.1130  -19.3350   20.4640 C   0  0  0  0  0  3  0  0  0  0  0  0
  -31.1210  -17.9090   20.5340 C   0  0  0  0  0  3  0  0  0  0  0  0
  -28.7100  -19.3490   20.3720 C   0  0  0  0  0  3  0  0  0  0  0  0
  -29.9160  -20.0970   20.3860 C   0  0  0  0  0  0  0  0  0  0  0  0
  -29.9120  -17.1680   20.5350 C   0  0  0  0  0  0  0  0  0  0  0  0
  -28.7140  -17.9250   20.4500 C   0  0  0  0  0  0  0  0  0  0  0  0
  -27.5320  -17.2600   20.4430 F   0  0  0  0  0  0  0  0  0  0  0  0
  -30.5860  -14.6780   20.2440 C   0  0  0  0  0  0  0  0  0  0  0  0
  -30.3220  -12.4700   19.1360 C   0  0  0  0  0  2  0  0  0  0  0  0
  -29.3330  -12.6360   17.9620 C   0  0  0  0  0  2  0  0  0  0  0  0
  -27.8760  -12.4780   18.4420 C   0  0  0  0  0  2  0  0  0  0  0  0
  -27.5700  -13.3140   19.7140 C   0  0  0  0  0  3  0  0  0  0  0  0
  -28.6690  -13.1180   20.7830 C   0  0  0  0  0  2  0  0  0  0  0  0
  -29.9600  -13.4620   20.1660 N   0  0  0  0  0  0  0  0  0  0  0  0
  -31.7320  -14.8400   19.8190 O   0  0  0  0  0  0  0  0  0  0  0  0
  -29.7960  -15.7170   20.6490 N   0  0  0  0  0  0  0  0  0  0  0  0
  -28.8780  -15.4180   20.9420 H   0  0  0  0  0  0  0  0  0  0  0  0
  -25.2070  -13.9130   20.5280 C   0  0  0  0  0  0  0  0  0  0  0  0
  -24.1470  -13.1380   20.9140 C   0  0  0  0  0  0  0  0  0  0  0  0
  -24.5980  -11.7850   20.8350 C   0  0  0  0  0  0  0  0  0  0  0  0
  -26.2370  -13.0310   20.2390 N   0  0  0  0  0  0  0  0  0  0  0  0
  -25.8760  -11.7450   20.4830 N   0  0  0  0  0  0  0  0  0  0  0  0
  -23.8670  -10.5240   21.0210 C   0  0  0  0  0  0  0  0  0  0  0  0
  -24.3030   -9.5480   21.9440 C   0  0  0  0  0  3  0  0  0  0  0  0
  -23.5740   -8.3520   22.1170 C   0  0  0  0  0  3  0  0  0  0  0  0
  -22.3960   -8.1240   21.3670 C   0  0  0  0  0  0  0  0  0  0  0  0
  -21.9800   -9.0880   20.4330 C   0  0  0  0  0  3  0  0  0  0  0  0
  -22.7090  -10.2760   20.2580 C   0  0  0  0  0  3  0  0  0  0  0  0
  -21.6380   -6.9800   21.4510 O   0  0  0  0  0  0  0  0  0  0  0  0
  -21.5630   -6.2490   22.6100 C   0  0  0  0  0  0  0  0  0  0  0  0
  -21.0800   -6.8090   23.8130 C   0  0  0  0  0  3  0  0  0  0  0  0
  -20.9540   -6.0030   24.9620 C   0  0  0  0  0  3  0  0  0  0  0  0
  -21.3000   -4.6390   24.9100 C   0  0  0  0  0  0  0  0  0  0  0  0
  -21.7770   -4.0810   23.7110 C   0  0  0  0  0  3  0  0  0  0  0  0
  -21.9050   -4.8830   22.5630 C   0  0  0  0  0  0  0  0  0  0  0  0
  -22.3440   -4.3340   21.4050 F   0  0  0  0  0  0  0  0  0  0  0  0
  -21.1720   -3.8640   26.0110 F   0  0  0  0  0  0  0  0  0  0  0  0
  -22.7630  -13.6190   21.2470 C   0  0  0  0  0  0  0  0  0  0  0  0
  -22.0610  -12.9050   22.1200 N   0  0  0  0  0  0  0  0  0  0  0  0
  -22.3160  -14.6620   20.7710 O   0  0  0  0  0  0  0  0  0  0  0  0
  -22.4360  -12.0610   22.5260 H   0  0  0  0  0  0  0  0  0  0  0  0
  -21.1350  -13.2080   22.3860 H   0  0  0  0  0  0  0  0  0  0  0  0
  -25.3720  -15.2870   20.3860 N   0  0  0  0  0  0  0  0  0  0  0  0
  -24.6190  -15.9360   20.5810 H   0  0  0  0  0  0  0  0  0  0  0  0
  -26.2380  -15.7570   20.1540 H   0  0  0  0  0  0  0  0  0  0  0  0
  -28.8750  -22.4930   20.1460 C   0  0  0  0  0  2  0  0  0  0  0  0
  -29.2490  -24.0370   20.2920 C   0  0  0  0  0  3  0  0  0  0  0  0
  -28.1090  -25.0860   19.9540 C   0  0  0  0  0  3  0  0  0  0  0  0
  -28.3260  -26.5330   20.1740 O   0  0  0  0  0  0  0  0  0  0  0  0
  -24.5850  -31.8920   23.2290 C   0  0  0  0  0  0  0  0  0  0  0  0
  -27.1980  -27.3700   20.1340 C   0  0  0  0  0  0  0  0  0  0  0  0
  -23.3760  -30.4990   21.5890 C   0  0  0  0  0  3  0  0  0  0  0  0
  -24.8230  -28.9650   20.1480 C   0  0  0  0  0  0  0  0  0  0  0  0
  -25.9130  -30.8300   21.3930 C   0  0  0  0  0  2  0  0  0  0  0  0
  -25.9940  -29.4570   20.7400 C   0  0  0  0  0  0  0  0  0  0  0  0
  -27.1840  -28.6710   20.7230 C   0  0  0  0  0  3  0  0  0  0  0  0
  -25.9990  -26.9320   19.5190 C   0  0  0  0  0  3  0  0  0  0  0  0
  -24.8280  -27.7080   19.5300 C   0  0  0  0  0  3  0  0  0  0  0  0
  -23.5840  -29.8330   20.2040 C   0  0  0  0  0  2  0  0  0  0  0  0
  -24.6430  -31.0910   22.1280 N   0  0  0  0  0  0  0  0  0  0  0  0
  -23.5030  -32.1650   23.7710 O   0  0  0  0  0  0  0  0  0  0  0  0
  -22.7220  -29.4740   22.5470 C   0  0  0  0  0  0  0  0  0  0  0  0
  -21.3970  -29.2910   22.4210 N   0  0  0  0  0  0  0  0  0  0  0  0
  -23.4060  -28.8480   23.3610 O   0  0  0  0  0  0  0  0  0  0  0  0
  -20.9060  -29.8500   21.7370 H   0  0  0  0  0  0  0  0  0  0  0  0
  -18.0230  -28.0940   22.9330 C   0  0  0  0  0  0  0  0  0  0  0  0
  -20.5820  -28.3490   23.1890 C   0  0  0  0  0  3  0  0  0  0  0  0
  -20.6790  -26.9220   22.6030 C   0  0  0  0  0  2  0  0  0  0  0  0
  -19.5700  -26.6070   21.5940 C   0  0  0  0  0  2  0  0  0  0  0  0
  -18.1930  -26.7490   22.2480 C   0  0  0  0  0  2  0  0  0  0  0  0
  -19.1450  -28.8520   23.3610 C   0  0  0  0  0  0  0  0  0  0  0  0
  -18.9300  -30.1120   23.9630 C   0  0  0  0  0  3  0  0  0  0  0  0
  -17.6280  -30.6130   24.1410 C   0  0  0  0  0  3  0  0  0  0  0  0
  -16.5210  -29.8520   23.7290 C   0  0  0  0  0  3  0  0  0  0  0  0
  -16.7180  -28.5950   23.1310 C   0  0  0  0  0  3  0  0  0  0  0  0
  -25.8700  -32.5240   23.8490 C   0  0  0  0  0  3  0  0  0  0  0  0
  -26.3900  -31.7510   25.1220 C   0  0  1  0  0  0  0  0  0  0  0  0
  -25.2990  -31.5040   26.1900 C   0  0  0  0  0  1  0  0  0  0  0  0
  -26.9790  -30.3770   24.7240 C   0  0  0  0  0  1  0  0  0  0  0  0
  -27.5390  -32.5470   25.7860 C   0  0  0  0  0  1  0  0  0  0  0  0
  -25.5600  -33.9220   24.1820 N   0  0  0  0  0  0  0  0  0  0  0  0
  -25.8630  -34.9740   23.4100 C   0  0  0  0  0  0  0  0  0  0  0  0
  -26.5040  -34.8710   22.3600 O   0  0  0  0  0  0  0  0  0  0  0  0
  -24.9890  -34.0750   25.0010 H   0  0  0  0  0  0  0  0  0  0  0  0
  -24.1050  -36.7470   23.1100 C   0  0  0  0  0  1  0  0  0  0  0  0
  -25.3790  -36.3610   23.8760 C   0  0  0  0  0  3  0  0  0  0  0  0
  -27.5310  -37.2760   24.6280 C   0  0  0  0  0  1  0  0  0  0  0  0
  -26.3970  -37.4220   23.7180 N   0  0  0  0  0  0  0  0  0  0  0  0
  -25.9860  -38.3400   23.8690 H   0  0  0  0  0  0  0  0  0  0  0  0
  1  6  1  0
  2  1  1  0
  3  4  1  0
  4  7  2  0
  5  6  1  0
  5  8  2  0
  6  3  2  0
  7 18  1  0
  8  7  1  0
  9  8  1  0
 10 18  1  0
 11 16  1  0
 12 13  1  0
 12 11  1  0
 14 13  1  0
 14 23  1  0
 14 15  1  0
 16 10  1  0
 16 15  1  0
 17 10  2  0
 18 19  1  0
 20 21  2  0
 21 40  1  0
 22 21  1  0
 22 25  1  0
 23 24  1  0
 23 20  1  0
 24 22  2  0
 25 26  1  0
 26 27  2  0
 28 31  1  0
 28 27  1  0
 29 28  2  0
 30 29  1  0
 30 25  2  0
 31 32  1  0
 32 33  1  0
 33 34  2  0
 35 34  1  0
 35 39  1  0
 36 35  2  0
 37 32  2  0
 37 36  1  0
 38 37  1  0
 40 41  1  0
 41 44  1  0
 41 43  1  0
 42 40  2  0
 45 20  1  0
 45 46  1  0
 47 45  1  0
 48 49  1  0
 48  1  1  0
 50 51  1  0
 50 49  2  0
 52 63  2  0
 53 51  1  0
 53 58  1  0
 54 62  1  0
 54 64  1  0
 55 61  1  0
 55 57  1  0
 56 62  1  0
 57 56  1  0
 58 57  2  0
 59 60  1  0
 59 53  2  0
 60 55  2  0
 61 54  1  0
 62 52  1  0
 64 66  2  0
 65 64  1  0
 67 65  1  0
 68 77  2  0
 68 73  1  0
 69 65  1  0
 69 73  1  0
 70 69  1  0
 71 72  1  0
 71 70  1  0
 72 68  1  0
 73 74  2  0
 74 75  1  0
 76 75  2  0
 77 76  1  0
 78 52  1  0
 78 83  1  0
 78 79  1  0
 79 82  1  1
 79 80  1  0
 81 79  1  0
 83 86  1  0
 84 88  1  0
 84 83  1  0
 85 84  2  0
 88 87  1  0
 90 91  1  0
 90 88  1  0
 90 89  1  0
M  ISO  4  10 100  18 100  50 101  51 101
M  END
>  <TORSDO>  (40) 
F 20

>  <SCORE>  (40) 
-14.064

>  <name>  (40) 
40

>  <ligand_id>  (40) 
40

>  <original_smiles>  (40) 
[H]c1c([H])c([H])c2c(c1[H])C([H])([H])C([H])([H])C([H])([H])C2([H])N([H])C(=O)C1([H])N(C(=O)C([H])(N([H])C(=O)C([H])(N([H])C([H])([H])[H])C([H])([H])[H])C(C([H])([H])[H])(C([H])([H])[H])C([H])([H])[H])C([H])([H])c2c([H])c(OC([H])([H])C([H])([H])C([H])([H])N([H])c3c([H])c([H])c(N([H])C(=O)N4C([H])([H])C([H])([H])C([H])([H])C([H])(n5nc(-c6c([H])c([H])c(Oc7c([H])c([H])c(F)c([H])c7F)c([H])c6[H])c(C(=O)N([H])[H])c5N([H])[H])C4([H])[H])c(F)c3[H])c([H])c([H])c2C1([H])[H]

>  <smiles>  (40) 
[H]c1c([H])c([H])c2c(c1[H])C([H])([H])C([H])([H])C([H])([H])C2([H])N([H])C(=O)C1([H])N(C(=O)C([H])(N([H])C(=O)C([H])(N([H])C([H])([H])[H])C([H])([H])[H])C(C([H])([H])[H])(C([H])([H])[H])C([H])([H])[H])C([H])([H])c2c([H])c(OC([H])([H])C([H])([H])C([H])([H])N([H])c3c([H])c([H])c(N([H])C(=O)N4C([H])([H])C([H])([H])C([H])([H])C([H])(n5nc(-c6c([H])c([H])c(Oc7c([H])c([H])c(F)c([H])c7F)c([H])c6[H])c(C(=O)N([H])[H])c5N([H])[H])C4([H])[H])c(F)c3[H])c([H])c([H])c2C1([H])[H]

$$$$
41:0:0
     RDKit          3D

 95104  0  0  1  0  0  0  0  0999 V2000
  -28.4520  -20.0440   21.1480 C   0  0  0  0  0  3  0  0  0  0  0  0
  -28.1110  -21.4100   21.0880 C   0  0  0  0  0  3  0  0  0  0  0  0
  -28.7990  -21.4880   18.7570 C   0  0  0  0  0  3  0  0  0  0  0  0
  -28.9320  -19.3830   19.9980 C   0  0  0  0  0  0  0  0  0  0  0  0
  -28.2390  -22.1310   19.8790 C   0  0  0  0  0  0  0  0  0  0  0  0
  -29.1390  -20.1210   18.8130 C   0  0  0  0  0  0  0  0  0  0  0  0
  -29.6180  -19.5060   17.7040 F   0  0  0  0  0  0  0  0  0  0  0  0
  -26.4880  -24.4600   21.5150 C   0  0  0  0  0  2  0  0  0  0  0  0
  -27.9680  -24.8330   21.6440 C   0  0  0  0  0  2  0  0  0  0  0  0
  -26.3900  -23.6490   20.2160 C   0  0  0  0  0  2  0  0  0  0  0  0
  -28.5950  -24.5090   20.2790 C   0  0  0  0  0  3  0  0  0  0  0  0
  -27.7550  -23.4440   19.7380 N   0  0  0  0  0  0  0  0  0  0  0  0
  -28.7120  -25.6980   19.2780 C   0  0  0  0  0  2  0  0  0  0  0  0
  -28.5880  -27.0020   19.8560 O   0  0  0  0  0  0  0  0  0  0  0  0
  -24.5960  -31.8610   23.1570 C   0  0  0  0  0  0  0  0  0  0  0  0
  -27.3680  -27.6510   19.8670 C   0  0  0  0  0  0  0  0  0  0  0  0
  -23.4370  -30.5310   21.4250 C   0  0  0  0  0  3  0  0  0  0  0  0
  -24.9330  -29.0970   19.9450 C   0  0  0  0  0  0  0  0  0  0  0  0
  -25.9580  -30.9410   21.2840 C   0  0  0  0  0  2  0  0  0  0  0  0
  -26.0730  -29.6080   20.5740 C   0  0  0  0  0  0  0  0  0  0  0  0
  -27.2880  -28.8900   20.5390 C   0  0  0  0  0  3  0  0  0  0  0  0
  -26.2040  -27.1520   19.2340 C   0  0  0  0  0  3  0  0  0  0  0  0
  -24.9930  -27.8650   19.2760 C   0  0  0  0  0  3  0  0  0  0  0  0
  -23.6740  -29.9280   20.0150 C   0  0  0  0  0  2  0  0  0  0  0  0
  -24.6800  -31.1220   22.0150 N   0  0  0  0  0  0  0  0  0  0  0  0
  -23.5030  -32.0900   23.6930 O   0  0  0  0  0  0  0  0  0  0  0  0
  -22.7920  -29.4470   22.3180 C   0  0  0  0  0  0  0  0  0  0  0  0
  -21.4660  -29.2800   22.1890 N   0  0  0  0  0  0  0  0  0  0  0  0
  -23.4780  -28.7630   23.0820 O   0  0  0  0  0  0  0  0  0  0  0  0
  -20.9740  -29.8860   21.5480 H   0  0  0  0  0  0  0  0  0  0  0  0
  -18.0760  -28.1440   22.7160 C   0  0  0  0  0  0  0  0  0  0  0  0
  -20.6500  -28.2960   22.9000 C   0  0  0  0  0  3  0  0  0  0  0  0
  -20.6790  -26.9270   22.1830 C   0  0  0  0  0  2  0  0  0  0  0  0
  -19.5260  -26.7390   21.1920 C   0  0  0  0  0  2  0  0  0  0  0  0
  -18.1780  -26.8620   21.9080 C   0  0  0  0  0  2  0  0  0  0  0  0
  -19.2370  -28.8250   23.1690 C   0  0  0  0  0  0  0  0  0  0  0  0
  -19.0870  -30.0310   23.8870 C   0  0  0  0  0  3  0  0  0  0  0  0
  -17.8090  -30.5550   24.1560 C   0  0  0  0  0  3  0  0  0  0  0  0
  -16.6630  -29.8680   23.7200 C   0  0  0  0  0  3  0  0  0  0  0  0
  -16.7970  -28.6650   23.0050 C   0  0  0  0  0  3  0  0  0  0  0  0
  -25.8630  -32.4760   23.8300 C   0  0  0  0  0  3  0  0  0  0  0  0
  -25.5500  -33.8700   24.1690 N   0  0  0  0  0  0  0  0  0  0  0  0
  -25.9000  -34.9300   23.4280 C   0  0  0  0  0  0  0  0  0  0  0  0
  -26.5940  -34.8370   22.4120 O   0  0  0  0  0  0  0  0  0  0  0  0
  -24.9390  -34.0190   24.9580 H   0  0  0  0  0  0  0  0  0  0  0  0
  -24.1900  -36.7320   23.0430 C   0  0  0  0  0  1  0  0  0  0  0  0
  -25.4020  -36.3130   23.8890 C   0  0  0  0  0  3  0  0  0  0  0  0
  -27.5000  -37.1880   24.8170 C   0  0  0  0  0  1  0  0  0  0  0  0
  -26.4410  -37.3640   23.8260 N   0  0  0  0  0  0  0  0  0  0  0  0
  -26.0310  -38.2840   23.9600 H   0  0  0  0  0  0  0  0  0  0  0  0
  -26.3380  -31.6820   25.1070 C   0  0  1  0  0  0  0  0  0  0  0  0
  -25.2080  -31.4210   26.1300 C   0  0  0  0  0  1  0  0  0  0  0  0
  -26.9400  -30.3140   24.7090 C   0  0  0  0  0  1  0  0  0  0  0  0
  -27.4620  -32.4670   25.8240 C   0  0  0  0  0  1  0  0  0  0  0  0
  -29.0700  -17.8620   19.9940 C   0  0  0  0  0  2  0  0  0  0  0  0
  -31.5560  -17.7450   19.8750 C   0  0  0  0  0  1  0  0  0  0  0  0
  -30.3230  -17.2900   20.5740 N   0  0  2  0  0  4  0  0  0  0  0  0
  -30.3910  -17.6980   21.4940 H   0  0  0  0  0  0  0  0  0  0  0  0
  -30.1910  -15.8110   20.8480 C   0  0  0  0  0  2  0  0  0  0  0  0
  -30.9140  -14.6570   20.1000 C   0  0  0  0  0  0  0  0  0  0  0  0
  -30.5800  -12.5020   18.9390 C   0  0  0  0  0  2  0  0  0  0  0  0
  -29.5690  -12.7280   17.7920 C   0  0  0  0  0  2  0  0  0  0  0  0
  -28.1170  -12.5920   18.2950 C   0  0  0  0  0  2  0  0  0  0  0  0
  -27.8490  -13.4110   19.5860 C   0  0  0  0  0  3  0  0  0  0  0  0
  -28.9650  -13.1710   20.6300 C   0  0  0  0  0  2  0  0  0  0  0  0
  -30.2640  -13.4630   20.0020 N   0  0  0  0  0  0  0  0  0  0  0  0
  -31.9960  -14.8590   19.5300 O   0  0  0  0  0  0  0  0  0  0  0  0
  -25.4980  -14.0100   20.4530 C   0  0  0  0  0  0  0  0  0  0  0  0
  -24.4500  -13.2330   20.8640 C   0  0  0  0  0  0  0  0  0  0  0  0
  -24.9000  -11.8810   20.7660 C   0  0  0  0  0  0  0  0  0  0  0  0
  -26.5230  -13.1320   20.1350 N   0  0  0  0  0  0  0  0  0  0  0  0
  -26.1680  -11.8440   20.3780 N   0  0  0  0  0  0  0  0  0  0  0  0
  -24.1790  -10.6170   20.9640 C   0  0  0  0  0  0  0  0  0  0  0  0
  -24.6140   -9.6570   21.9050 C   0  0  0  0  0  3  0  0  0  0  0  0
  -23.8950   -8.4580   22.0890 C   0  0  0  0  0  3  0  0  0  0  0  0
  -22.7250   -8.2070   21.3310 C   0  0  0  0  0  0  0  0  0  0  0  0
  -22.3080   -9.1550   20.3800 C   0  0  0  0  0  3  0  0  0  0  0  0
  -23.0280  -10.3470   20.1940 C   0  0  0  0  0  3  0  0  0  0  0  0
  -21.9750   -7.0600   21.4250 O   0  0  0  0  0  0  0  0  0  0  0  0
  -21.8710   -6.3630   22.6020 C   0  0  0  0  0  0  0  0  0  0  0  0
  -21.3050   -6.9370   23.7610 C   0  0  0  0  0  3  0  0  0  0  0  0
  -21.1530   -6.1620   24.9280 C   0  0  0  0  0  3  0  0  0  0  0  0
  -21.5600   -4.8140   24.9380 C   0  0  0  0  0  0  0  0  0  0  0  0
  -22.1210   -4.2410   23.7830 C   0  0  0  0  0  3  0  0  0  0  0  0
  -22.2730   -5.0120   22.6190 C   0  0  0  0  0  0  0  0  0  0  0  0
  -22.7950   -4.4490   21.5020 F   0  0  0  0  0  0  0  0  0  0  0  0
  -21.4070   -4.0680   26.0560 F   0  0  0  0  0  0  0  0  0  0  0  0
  -23.0740  -13.7070   21.2330 C   0  0  0  0  0  0  0  0  0  0  0  0
  -22.3960  -12.9890   22.1210 N   0  0  0  0  0  0  0  0  0  0  0  0
  -22.6110  -14.7490   20.7710 O   0  0  0  0  0  0  0  0  0  0  0  0
  -22.7830  -12.1450   22.5160 H   0  0  0  0  0  0  0  0  0  0  0  0
  -21.4740  -13.2840   22.4100 H   0  0  0  0  0  0  0  0  0  0  0  0
  -25.6590  -15.3850   20.3030 N   0  0  0  0  0  0  0  0  0  0  0  0
  -24.8900  -16.0280   20.4540 H   0  0  0  0  0  0  0  0  0  0  0  0
  -26.4590  -15.8210   19.8680 H   0  0  0  0  0  0  0  0  0  0  0  0
  2  1  1  0
  3  6  2  0
  3  5  1  0
  4  1  2  0
  5  2  2  0
  6  4  1  0
  7  6  1  0
  8  9  1  0
 10  8  1  0
 11 13  1  0
 11  9  1  0
 12  5  1  0
 12 10  1  0
 12 11  1  0
 13 14  1  0
 14 16  1  0
 15 26  2  0
 16 21  1  0
 17 25  1  0
 17 27  1  0
 18 24  1  0
 18 20  1  0
 19 25  1  0
 20 19  1  0
 21 20  2  0
 22 23  1  0
 22 16  2  0
 23 18  2  0
 24 17  1  0
 25 15  1  0
 27 29  2  0
 28 27  1  0
 30 28  1  0
 31 40  2  0
 31 36  1  0
 32 28  1  0
 32 36  1  0
 33 32  1  0
 34 35  1  0
 34 33  1  0
 35 31  1  0
 36 37  2  0
 37 38  1  0
 39 38  2  0
 40 39  1  0
 41 15  1  0
 41 42  1  0
 41 51  1  0
 42 45  1  0
 43 47  1  0
 43 42  1  0
 44 43  2  0
 47 46  1  0
 49 47  1  0
 49 50  1  0
 49 48  1  0
 51 54  1  1
 51 52  1  0
 53 51  1  0
 55  4  1  0
 55 57  1  0
 56 57  1  0
 57 59  1  0
 57 58  1  1
 60 59  1  0
 61 66  1  0
 62 63  1  0
 62 61  1  0
 64 63  1  0
 64 71  1  0
 64 65  1  0
 66 60  1  0
 66 65  1  0
 67 60  2  0
 68 69  2  0
 69 88  1  0
 70 69  1  0
 70 73  1  0
 71 72  1  0
 71 68  1  0
 72 70  2  0
 73 74  1  0
 74 75  2  0
 76 79  1  0
 76 75  1  0
 77 76  2  0
 78 77  1  0
 78 73  2  0
 79 80  1  0
 80 85  2  0
 80 81  1  0
 81 82  2  0
 82 83  1  0
 83 87  1  0
 84 83  2  0
 85 84  1  0
 86 85  1  0
 88 89  1  0
 89 92  1  0
 89 91  1  0
 90 88  2  0
 93 68  1  0
 93 94  1  0
 95 93  1  0
M  ISO  4  13 101  14 101  59 100  60 100
M  END
>  <TORSDO>  (41) 
F 21

>  <SCORE>  (41) 
-13.118

>  <name>  (41) 
41

>  <ligand_id>  (41) 
41

>  <original_smiles>  (41) 
[H]c1c([H])c([H])c2c(c1[H])C([H])([H])C([H])([H])C([H])([H])C2([H])N([H])C(=O)C1([H])N(C(=O)C([H])(N([H])C(=O)C([H])(N([H])C([H])([H])[H])C([H])([H])[H])C(C([H])([H])[H])(C([H])([H])[H])C([H])([H])[H])C([H])([H])c2c([H])c(OC([H])([H])C3([H])N(c4c([H])c([H])c(C([H])([H])[N+]([H])(C([H])([H])[H])C([H])([H])C(=O)N5C([H])([H])C([H])([H])C([H])([H])C([H])(n6nc(-c7c([H])c([H])c(Oc8c([H])c([H])c(F)c([H])c8F)c([H])c7[H])c(C(=O)N([H])[H])c6N([H])[H])C5([H])[H])c(F)c4[H])C([H])([H])C([H])([H])C3([H])[H])c([H])c([H])c2C1([H])[H]

>  <smiles>  (41) 
[H]c1c([H])c([H])c2c(c1[H])C([H])([H])C([H])([H])C([H])([H])C2([H])N([H])C(=O)C1([H])N(C(=O)C([H])(N([H])C(=O)C([H])(N([H])C([H])([H])[H])C([H])([H])[H])C(C([H])([H])[H])(C([H])([H])[H])C([H])([H])[H])C([H])([H])c2c([H])c(OC([H])([H])C3([H])N(c4c([H])c([H])c(C([H])([H])[N+]([H])(C([H])([H])[H])C([H])([H])C(=O)N5C([H])([H])C([H])([H])C([H])([H])C([H])(n6nc(-c7c([H])c([H])c(Oc8c([H])c([H])c(F)c([H])c8F)c([H])c7[H])c(C(=O)N([H])[H])c6N([H])[H])C5([H])[H])c(F)c4[H])C([H])([H])C([H])([H])C3([H])[H])c([H])c([H])c2C1([H])[H]

$$$$
42:0:0
     RDKit          3D

 90 98  0  0  1  0  0  0  0  0999 V2000
  -30.6470  -19.8530   19.3340 C   0  0  0  0  0  3  0  0  0  0  0  0
  -30.7710  -18.4190   19.5250 C   0  0  0  0  0  3  0  0  0  0  0  0
  -28.4130  -19.8160   20.0470 C   0  0  0  0  0  3  0  0  0  0  0  0
  -29.4710  -20.6670   19.5800 C   0  0  0  0  0  0  0  0  0  0  0  0
  -29.7040  -17.5820   19.9690 C   0  0  0  0  0  0  0  0  0  0  0  0
  -28.5190  -18.3700   20.2200 C   0  0  0  0  0  0  0  0  0  0  0  0
  -27.1110  -17.5270   20.7600 Cl  0  0  0  0  0  0  0  0  0  0  0  0
  -30.5010  -14.9500   19.7420 C   0  0  0  0  0  0  0  0  0  0  0  0
  -30.3230  -12.6180   18.7690 C   0  0  0  0  0  2  0  0  0  0  0  0
  -29.2860  -12.6180   17.6220 C   0  0  0  0  0  2  0  0  0  0  0  0
  -27.8650  -12.3950   18.1720 C   0  0  0  0  0  2  0  0  0  0  0  0
  -27.5620  -13.2880   19.4030 C   0  0  0  0  0  3  0  0  0  0  0  0
  -28.7090  -13.2590   20.4380 C   0  0  0  0  0  2  0  0  0  0  0  0
  -29.9340  -13.6780   19.7420 N   0  0  0  0  0  0  0  0  0  0  0  0
  -31.6490  -15.0700   19.3010 O   0  0  0  0  0  0  0  0  0  0  0  0
  -29.7010  -16.0560   20.1080 N   0  0  0  0  0  0  0  0  0  0  0  0
  -28.8540  -15.7340   20.5520 H   0  0  0  0  0  0  0  0  0  0  0  0
  -25.2590  -13.8500   20.3710 C   0  0  0  0  0  0  0  0  0  0  0  0
  -24.2220  -13.0650   20.7970 C   0  0  0  0  0  0  0  0  0  0  0  0
  -24.6670  -11.7150   20.6640 C   0  0  0  0  0  0  0  0  0  0  0  0
  -26.2680  -12.9760   20.0020 N   0  0  0  0  0  0  0  0  0  0  0  0
  -25.9260  -11.6840   20.2400 N   0  0  0  0  0  0  0  0  0  0  0  0
  -23.9460  -10.4510   20.8590 C   0  0  0  0  0  0  0  0  0  0  0  0
  -24.3810   -9.4860   21.7960 C   0  0  0  0  0  3  0  0  0  0  0  0
  -23.6580   -8.2880   21.9770 C   0  0  0  0  0  3  0  0  0  0  0  0
  -22.4860   -8.0440   21.2220 C   0  0  0  0  0  0  0  0  0  0  0  0
  -22.0710   -8.9960   20.2740 C   0  0  0  0  0  3  0  0  0  0  0  0
  -22.7950  -10.1860   20.0910 C   0  0  0  0  0  3  0  0  0  0  0  0
  -21.7350   -6.8970   21.3130 O   0  0  0  0  0  0  0  0  0  0  0  0
  -21.6030   -6.2150   22.4960 C   0  0  0  0  0  0  0  0  0  0  0  0
  -21.0340   -6.8130   23.6410 C   0  0  0  0  0  3  0  0  0  0  0  0
  -20.8550   -6.0540   24.8150 C   0  0  0  0  0  3  0  0  0  0  0  0
  -21.2350   -4.7000   24.8440 C   0  0  0  0  0  0  0  0  0  0  0  0
  -21.7960   -4.1010   23.7020 C   0  0  0  0  0  3  0  0  0  0  0  0
  -21.9770   -4.8570   22.5310 C   0  0  0  0  0  0  0  0  0  0  0  0
  -22.5000   -4.2700   21.4270 F   0  0  0  0  0  0  0  0  0  0  0  0
  -21.0550   -3.9670   25.9690 F   0  0  0  0  0  0  0  0  0  0  0  0
  -22.8600  -13.5400   21.2140 C   0  0  0  0  0  0  0  0  0  0  0  0
  -22.2100  -12.8180   22.1200 N   0  0  0  0  0  0  0  0  0  0  0  0
  -22.3840  -14.5860   20.7720 O   0  0  0  0  0  0  0  0  0  0  0  0
  -22.6080  -11.9710   22.4960 H   0  0  0  0  0  0  0  0  0  0  0  0
  -21.3000  -13.1180   22.4430 H   0  0  0  0  0  0  0  0  0  0  0  0
  -25.4190  -15.2260   20.2430 N   0  0  0  0  0  0  0  0  0  0  0  0
  -24.6800  -15.8800   20.4700 H   0  0  0  0  0  0  0  0  0  0  0  0
  -26.2480  -15.6790   19.8840 H   0  0  0  0  0  0  0  0  0  0  0  0
  -30.6830  -22.6270   18.7440 C   0  0  0  0  0  1  0  0  0  0  0  0
  -29.4270  -22.1520   19.3340 N   0  0  0  0  0  0  0  0  0  0  0  0
  -28.6030  -23.3370   19.9320 C   0  0  0  0  0  2  0  0  0  0  0  0
  -28.3880  -24.8100   19.1280 C   0  0  0  0  0  2  0  0  0  0  0  0
  -28.3640  -26.2470   19.7140 O   0  0  0  0  0  0  0  0  0  0  0  0
  -24.6490  -31.6460   23.0100 C   0  0  0  0  0  0  0  0  0  0  0  0
  -27.2690  -27.1800   19.6730 C   0  0  0  0  0  0  0  0  0  0  0  0
  -23.4550  -30.3450   21.2910 C   0  0  0  0  0  3  0  0  0  0  0  0
  -24.9120  -28.8800   19.7650 C   0  0  0  0  0  0  0  0  0  0  0  0
  -26.0030  -30.6540   21.1300 C   0  0  0  0  0  2  0  0  0  0  0  0
  -26.0870  -29.3070   20.3930 C   0  0  0  0  0  0  0  0  0  0  0  0
  -27.2600  -28.4710   20.3380 C   0  0  0  0  0  3  0  0  0  0  0  0
  -26.0610  -26.8510   19.0150 C   0  0  0  0  0  3  0  0  0  0  0  0
  -24.9100  -27.6630   19.0690 C   0  0  0  0  0  3  0  0  0  0  0  0
  -23.6770  -29.7590   19.8690 C   0  0  0  0  0  2  0  0  0  0  0  0
  -24.7230  -30.8990   21.8660 N   0  0  0  0  0  0  0  0  0  0  0  0
  -23.5640  -31.8830   23.5600 O   0  0  0  0  0  0  0  0  0  0  0  0
  -22.7970  -29.2690   22.1890 C   0  0  0  0  0  0  0  0  0  0  0  0
  -21.4670  -29.1110   22.0820 N   0  0  0  0  0  0  0  0  0  0  0  0
  -23.4840  -28.5840   22.9520 O   0  0  0  0  0  0  0  0  0  0  0  0
  -20.9700  -29.7220   21.4480 H   0  0  0  0  0  0  0  0  0  0  0  0
  -18.0840  -27.9170   22.5880 C   0  0  0  0  0  0  0  0  0  0  0  0
  -20.6530  -28.1250   22.7990 C   0  0  0  0  0  3  0  0  0  0  0  0
  -20.7170  -26.7420   22.1100 C   0  0  0  0  0  2  0  0  0  0  0  0
  -19.5810  -26.5140   21.1070 C   0  0  0  0  0  2  0  0  0  0  0  0
  -18.2210  -26.6240   21.8020 C   0  0  0  0  0  2  0  0  0  0  0  0
  -19.2260  -28.6280   23.0430 C   0  0  0  0  0  0  0  0  0  0  0  0
  -19.0440  -29.8400   23.7440 C   0  0  0  0  0  3  0  0  0  0  0  0
  -17.7520  -30.3390   23.9950 C   0  0  0  0  0  3  0  0  0  0  0  0
  -16.6250  -29.6230   23.5570 C   0  0  0  0  0  3  0  0  0  0  0  0
  -16.7910  -28.4140   22.8580 C   0  0  0  0  0  3  0  0  0  0  0  0
  -25.9250  -32.2570   23.6670 C   0  0  0  0  0  3  0  0  0  0  0  0
  -26.4580  -31.4070   24.8860 C   0  0  1  0  0  0  0  0  0  0  0  0
  -25.3790  -31.0950   25.9470 C   0  0  0  0  0  1  0  0  0  0  0  0
  -27.0480  -30.0620   24.4030 C   0  0  0  0  0  1  0  0  0  0  0  0
  -27.6090  -32.1650   25.5850 C   0  0  0  0  0  1  0  0  0  0  0  0
  -25.5950  -33.6230   24.0990 N   0  0  0  0  0  0  0  0  0  0  0  0
  -25.8880  -34.7350   23.4120 C   0  0  0  0  0  0  0  0  0  0  0  0
  -26.5300  -34.7190   22.3590 O   0  0  0  0  0  0  0  0  0  0  0  0
  -25.0200  -33.7080   24.9250 H   0  0  0  0  0  0  0  0  0  0  0  0
  -24.1170  -36.5170   23.2320 C   0  0  0  0  0  1  0  0  0  0  0  0
  -25.3880  -36.0790   23.9790 C   0  0  0  0  0  3  0  0  0  0  0  0
  -27.5200  -36.9550   24.8250 C   0  0  0  0  0  1  0  0  0  0  0  0
  -26.3960  -37.1600   23.9150 N   0  0  0  0  0  0  0  0  0  0  0  0
  -25.9750  -38.0600   24.1260 H   0  0  0  0  0  0  0  0  0  0  0  0
  1  2  2  0
  1  4  1  0
  2  5  1  0
  3  6  1  0
  4  3  2  0
  5 16  1  0
  5  6  2  0
  6  7  1  0
  8 16  1  0
  9 14  1  0
 10 11  1  0
 10  9  1  0
 12 11  1  0
 12 21  1  0
 12 13  1  0
 14  8  1  0
 14 13  1  0
 15  8  2  0
 16 17  1  0
 18 19  2  0
 19 38  1  0
 20 19  1  0
 20 23  1  0
 21 22  1  0
 21 18  1  0
 22 20  2  0
 23 24  1  0
 24 25  2  0
 26 29  1  0
 26 25  1  0
 27 26  2  0
 28 27  1  0
 28 23  2  0
 29 30  1  0
 30 35  2  0
 30 31  1  0
 31 32  2  0
 32 33  1  0
 33 37  1  0
 34 33  2  0
 35 34  1  0
 36 35  1  0
 38 39  1  0
 39 42  1  0
 39 41  1  0
 40 38  2  0
 43 18  1  0
 43 44  1  0
 45 43  1  0
 46 47  1  0
 47  4  1  0
 47 48  1  0
 49 50  1  0
 49 48  1  0
 51 62  2  0
 52 50  1  0
 52 57  1  0
 53 61  1  0
 53 63  1  0
 54 60  1  0
 54 56  1  0
 55 61  1  0
 56 55  1  0
 57 56  2  0
 58 59  1  0
 58 52  2  0
 59 54  2  0
 60 53  1  0
 61 51  1  0
 63 65  2  0
 64 63  1  0
 66 64  1  0
 67 76  2  0
 67 72  1  0
 68 64  1  0
 68 72  1  0
 69 68  1  0
 70 71  1  0
 70 69  1  0
 71 67  1  0
 72 73  2  0
 73 74  1  0
 75 74  2  0
 76 75  1  0
 77 51  1  0
 77 82  1  0
 77 78  1  0
 78 81  1  1
 78 79  1  0
 80 78  1  0
 82 85  1  0
 83 87  1  0
 83 82  1  0
 84 83  2  0
 87 86  1  0
 89 87  1  0
 89 90  1  0
 89 88  1  0
M  ISO  4   8 100  16 100  49 101  50 101
M  END
>  <TORSDO>  (42) 
F 19

>  <SCORE>  (42) 
-13.080

>  <name>  (42) 
42

>  <ligand_id>  (42) 
42

>  <original_smiles>  (42) 
[H]c1c([H])c([H])c2c(c1[H])C([H])([H])C([H])([H])C([H])([H])C2([H])N([H])C(=O)C1([H])N(C(=O)C([H])(N([H])C(=O)C([H])(N([H])C([H])([H])[H])C([H])([H])[H])C(C([H])([H])[H])(C([H])([H])[H])C([H])([H])[H])C([H])([H])c2c([H])c(OC([H])([H])C([H])([H])N(c3c([H])c([H])c(N([H])C(=O)N4C([H])([H])C([H])([H])C([H])([H])C([H])(n5nc(-c6c([H])c([H])c(Oc7c([H])c([H])c(F)c([H])c7F)c([H])c6[H])c(C(=O)N([H])[H])c5N([H])[H])C4([H])[H])c(Cl)c3[H])C([H])([H])[H])c([H])c([H])c2C1([H])[H]

>  <smiles>  (42) 
[H]c1c([H])c([H])c2c(c1[H])C([H])([H])C([H])([H])C([H])([H])C2([H])N([H])C(=O)C1([H])N(C(=O)C([H])(N([H])C(=O)C([H])(N([H])C([H])([H])[H])C([H])([H])[H])C(C([H])([H])[H])(C([H])([H])[H])C([H])([H])[H])C([H])([H])c2c([H])c(OC([H])([H])C([H])([H])N(c3c([H])c([H])c(N([H])C(=O)N4C([H])([H])C([H])([H])C([H])([H])C([H])(n5nc(-c6c([H])c([H])c(Oc7c([H])c([H])c(F)c([H])c7F)c([H])c6[H])c(C(=O)N([H])[H])c5N([H])[H])C4([H])[H])c(Cl)c3[H])C([H])([H])[H])c([H])c([H])c2C1([H])[H]

$$$$
43:0:0
     RDKit          3D

 91 99  0  0  1  0  0  0  0  0999 V2000
  -31.5530  -22.1380   20.5320 C   0  0  0  0  0  1  0  0  0  0  0  0
  -30.2870  -21.5960   20.0310 N   0  0  0  0  0  0  0  0  0  0  0  0
  -31.3760  -17.9350   20.0490 C   0  0  0  0  0  3  0  0  0  0  0  0
  -31.3470  -19.3530   19.9110 C   0  0  0  0  0  3  0  0  0  0  0  0
  -29.0280  -17.9780   20.5340 C   0  0  0  0  0  3  0  0  0  0  0  0
  -30.2100  -17.2040   20.3860 C   0  0  0  0  0  0  0  0  0  0  0  0
  -30.1780  -20.1500   20.1060 C   0  0  0  0  0  0  0  0  0  0  0  0
  -28.9940  -19.3970   20.4040 C   0  0  0  0  0  0  0  0  0  0  0  0
  -27.4560  -20.1460   20.6680 Cl  0  0  0  0  0  0  0  0  0  0  0  0
  -30.9030  -14.7110   20.1290 C   0  0  0  0  0  0  0  0  0  0  0  0
  -30.6560  -12.4610   19.1030 C   0  0  0  0  0  2  0  0  0  0  0  0
  -29.6690  -12.5720   17.9180 C   0  0  0  0  0  2  0  0  0  0  0  0
  -28.2100  -12.4250   18.3990 C   0  0  0  0  0  2  0  0  0  0  0  0
  -27.8940  -13.3080   19.6340 C   0  0  0  0  0  3  0  0  0  0  0  0
  -28.9900  -13.1580   20.7160 C   0  0  0  0  0  2  0  0  0  0  0  0
  -30.2830  -13.4880   20.0940 N   0  0  0  0  0  0  0  0  0  0  0  0
  -32.0390  -14.8680   19.6750 O   0  0  0  0  0  0  0  0  0  0  0  0
  -30.1260  -15.7530   20.5560 N   0  0  0  0  0  0  0  0  0  0  0  0
  -29.2690  -15.4330   20.9790 H   0  0  0  0  0  0  0  0  0  0  0  0
  -25.5380  -13.9250   20.4610 C   0  0  0  0  0  0  0  0  0  0  0  0
  -24.4730  -13.1570   20.8510 C   0  0  0  0  0  0  0  0  0  0  0  0
  -24.9130  -11.8000   20.7670 C   0  0  0  0  0  0  0  0  0  0  0  0
  -26.5580  -13.0360   20.1630 N   0  0  0  0  0  0  0  0  0  0  0  0
  -26.1900  -11.7520   20.4060 N   0  0  0  0  0  0  0  0  0  0  0  0
  -24.1770  -10.5430   20.9530 C   0  0  0  0  0  0  0  0  0  0  0  0
  -24.5880   -9.5780   21.8980 C   0  0  0  0  0  3  0  0  0  0  0  0
  -23.8500   -8.3870   22.0720 C   0  0  0  0  0  3  0  0  0  0  0  0
  -22.6890   -8.1520   21.2960 C   0  0  0  0  0  0  0  0  0  0  0  0
  -22.2980   -9.1060   20.3410 C   0  0  0  0  0  3  0  0  0  0  0  0
  -23.0370  -10.2880   20.1660 C   0  0  0  0  0  3  0  0  0  0  0  0
  -21.9280   -7.0110   21.3780 O   0  0  0  0  0  0  0  0  0  0  0  0
  -21.7840   -6.3240   22.5570 C   0  0  0  0  0  0  0  0  0  0  0  0
  -21.2460   -6.9330   23.7130 C   0  0  0  0  0  3  0  0  0  0  0  0
  -21.0480   -6.1710   24.8810 C   0  0  0  0  0  3  0  0  0  0  0  0
  -21.3810   -4.8030   24.8950 C   0  0  0  0  0  0  0  0  0  0  0  0
  -21.9130   -4.1950   23.7460 C   0  0  0  0  0  3  0  0  0  0  0  0
  -22.1110   -4.9540   22.5780 C   0  0  0  0  0  0  0  0  0  0  0  0
  -22.6030   -4.3580   21.4650 F   0  0  0  0  0  0  0  0  0  0  0  0
  -21.1850   -4.0700   26.0160 F   0  0  0  0  0  0  0  0  0  0  0  0
  -23.0950  -13.6450   21.1920 C   0  0  0  0  0  0  0  0  0  0  0  0
  -22.3960  -12.9470   22.0780 N   0  0  0  0  0  0  0  0  0  0  0  0
  -22.6490  -14.6860   20.7090 O   0  0  0  0  0  0  0  0  0  0  0  0
  -22.7710  -12.1070   22.4950 H   0  0  0  0  0  0  0  0  0  0  0  0
  -21.4760  -13.2620   22.3500 H   0  0  0  0  0  0  0  0  0  0  0  0
  -25.7150  -15.2980   20.3170 N   0  0  0  0  0  0  0  0  0  0  0  0
  -24.9610  -15.9590   20.4780 H   0  0  0  0  0  0  0  0  0  0  0  0
  -26.5430  -15.7340   19.9310 H   0  0  0  0  0  0  0  0  0  0  0  0
  -29.1540  -22.5720   19.9600 C   0  0  0  0  0  2  0  0  0  0  0  0
  -29.5180  -24.1000   19.6730 C   0  0  0  0  0  3  0  0  0  0  0  0
  -28.3040  -25.0880   19.4780 C   0  0  0  0  0  3  0  0  0  0  0  0
  -28.5160  -26.5450   19.5910 O   0  0  0  0  0  0  0  0  0  0  0  0
  -24.6920  -31.6010   23.0440 C   0  0  0  0  0  0  0  0  0  0  0  0
  -27.3700  -27.3540   19.6310 C   0  0  0  0  0  0  0  0  0  0  0  0
  -23.5050  -30.3120   21.3080 C   0  0  0  0  0  3  0  0  0  0  0  0
  -24.9750  -28.9070   19.7670 C   0  0  0  0  0  0  0  0  0  0  0  0
  -26.0390  -30.6920   21.1430 C   0  0  0  0  0  2  0  0  0  0  0  0
  -26.1400  -29.3750   20.3860 C   0  0  0  0  0  0  0  0  0  0  0  0
  -27.3420  -28.6120   20.3060 C   0  0  0  0  0  3  0  0  0  0  0  0
  -26.1750  -26.9370   19.0010 C   0  0  0  0  0  3  0  0  0  0  0  0
  -24.9920  -27.6920   19.0690 C   0  0  0  0  0  3  0  0  0  0  0  0
  -23.7230  -29.7500   19.8810 C   0  0  0  0  0  2  0  0  0  0  0  0
  -24.7650  -30.8820   21.8880 N   0  0  0  0  0  0  0  0  0  0  0  0
  -23.6060  -31.8180   23.6020 O   0  0  0  0  0  0  0  0  0  0  0  0
  -22.8680  -29.2110   22.1890 C   0  0  0  0  0  0  0  0  0  0  0  0
  -21.5380  -29.0430   22.0780 N   0  0  0  0  0  0  0  0  0  0  0  0
  -23.5650  -28.5150   22.9310 O   0  0  0  0  0  0  0  0  0  0  0  0
  -21.0350  -29.6570   21.4550 H   0  0  0  0  0  0  0  0  0  0  0  0
  -18.1630  -27.8640   22.6190 C   0  0  0  0  0  0  0  0  0  0  0  0
  -20.7370  -28.0420   22.7840 C   0  0  0  0  0  3  0  0  0  0  0  0
  -20.7750  -26.6810   22.0530 C   0  0  0  0  0  2  0  0  0  0  0  0
  -19.6170  -26.4910   21.0680 C   0  0  0  0  0  2  0  0  0  0  0  0
  -18.2720  -26.5920   21.7930 C   0  0  0  0  0  2  0  0  0  0  0  0
  -19.3200  -28.5520   23.0710 C   0  0  0  0  0  0  0  0  0  0  0  0
  -19.1620  -29.7480   23.8060 C   0  0  0  0  0  3  0  0  0  0  0  0
  -17.8780  -30.2510   24.0930 C   0  0  0  0  0  3  0  0  0  0  0  0
  -16.7370  -29.5580   23.6550 C   0  0  0  0  0  3  0  0  0  0  0  0
  -16.8800  -28.3650   22.9250 C   0  0  0  0  0  3  0  0  0  0  0  0
  -25.9670  -32.2070   23.7060 C   0  0  0  0  0  3  0  0  0  0  0  0
  -26.4770  -31.3760   24.9470 C   0  0  1  0  0  0  0  0  0  0  0  0
  -25.3780  -31.0850   25.9960 C   0  0  0  0  0  1  0  0  0  0  0  0
  -27.0690  -30.0210   24.4950 C   0  0  0  0  0  1  0  0  0  0  0  0
  -27.6210  -32.1420   25.6530 C   0  0  0  0  0  1  0  0  0  0  0  0
  -25.6450  -33.5850   24.1040 N   0  0  0  0  0  0  0  0  0  0  0  0
  -25.9380  -34.6740   23.3810 C   0  0  0  0  0  0  0  0  0  0  0  0
  -26.5790  -34.6270   22.3270 O   0  0  0  0  0  0  0  0  0  0  0  0
  -25.0700  -33.6950   24.9260 H   0  0  0  0  0  0  0  0  0  0  0  0
  -24.1550  -36.4380   23.1830 C   0  0  0  0  0  1  0  0  0  0  0  0
  -25.4450  -36.0330   23.9150 C   0  0  0  0  0  3  0  0  0  0  0  0
  -27.5930  -36.9430   24.6790 C   0  0  0  0  0  1  0  0  0  0  0  0
  -26.4460  -37.1140   23.7900 N   0  0  0  0  0  0  0  0  0  0  0  0
  -26.0260  -38.0190   23.9850 H   0  0  0  0  0  0  0  0  0  0  0  0
  2  7  1  0
  2  1  1  0
  3  6  1  0
  4  3  2  0
  4  7  1  0
  6  5  2  0
  6 18  1  0
  7  8  2  0
  8  5  1  0
  8  9  1  0
 10 18  1  0
 11 16  1  0
 12 13  1  0
 12 11  1  0
 14 13  1  0
 14 23  1  0
 14 15  1  0
 16 10  1  0
 16 15  1  0
 17 10  2  0
 18 19  1  0
 20 21  2  0
 21 40  1  0
 22 21  1  0
 22 25  1  0
 23 24  1  0
 23 20  1  0
 24 22  2  0
 25 26  1  0
 26 27  2  0
 28 31  1  0
 28 27  1  0
 29 28  2  0
 30 29  1  0
 30 25  2  0
 31 32  1  0
 32 37  2  0
 32 33  1  0
 33 34  2  0
 34 35  1  0
 35 39  1  0
 36 35  2  0
 37 36  1  0
 38 37  1  0
 40 41  1  0
 41 44  1  0
 41 43  1  0
 42 40  2  0
 45 20  1  0
 45 46  1  0
 47 45  1  0
 48  2  1  0
 49 48  1  0
 50 51  1  0
 50 49  2  0
 51 53  1  0
 52 63  2  0
 53 58  1  0
 54 62  1  0
 54 64  1  0
 55 61  1  0
 55 57  1  0
 56 62  1  0
 57 56  1  0
 58 57  2  0
 59 60  1  0
 59 53  2  0
 60 55  2  0
 61 54  1  0
 62 52  1  0
 64 66  2  0
 65 64  1  0
 67 65  1  0
 68 77  2  0
 68 73  1  0
 69 65  1  0
 69 73  1  0
 70 69  1  0
 71 72  1  0
 71 70  1  0
 72 68  1  0
 73 74  2  0
 74 75  1  0
 76 75  2  0
 77 76  1  0
 78 52  1  0
 78 83  1  0
 78 79  1  0
 79 82  1  1
 79 80  1  0
 81 79  1  0
 83 86  1  0
 84 88  1  0
 84 83  1  0
 85 84  2  0
 88 87  1  0
 90 88  1  0
 90 91  1  0
 90 89  1  0
M  ISO  4  10 100  18 100  50 101  51 101
M  END
>  <TORSDO>  (43) 
F 20

>  <SCORE>  (43) 
-12.791

>  <name>  (43) 
43

>  <ligand_id>  (43) 
43

>  <original_smiles>  (43) 
[H]c1c([H])c([H])c2c(c1[H])C([H])([H])C([H])([H])C([H])([H])C2([H])N([H])C(=O)C1([H])N(C(=O)C([H])(N([H])C(=O)C([H])(N([H])C([H])([H])[H])C([H])([H])[H])C(C([H])([H])[H])(C([H])([H])[H])C([H])([H])[H])C([H])([H])c2c([H])c(OC([H])([H])C([H])([H])C([H])([H])N(c3c([H])c([H])c(N([H])C(=O)N4C([H])([H])C([H])([H])C([H])([H])C([H])(n5nc(-c6c([H])c([H])c(Oc7c([H])c([H])c(F)c([H])c7F)c([H])c6[H])c(C(=O)N([H])[H])c5N([H])[H])C4([H])[H])c([H])c3Cl)C([H])([H])[H])c([H])c([H])c2C1([H])[H]

>  <smiles>  (43) 
[H]c1c([H])c([H])c2c(c1[H])C([H])([H])C([H])([H])C([H])([H])C2([H])N([H])C(=O)C1([H])N(C(=O)C([H])(N([H])C(=O)C([H])(N([H])C([H])([H])[H])C([H])([H])[H])C(C([H])([H])[H])(C([H])([H])[H])C([H])([H])[H])C([H])([H])c2c([H])c(OC([H])([H])C([H])([H])C([H])([H])N(c3c([H])c([H])c(N([H])C(=O)N4C([H])([H])C([H])([H])C([H])([H])C([H])(n5nc(-c6c([H])c([H])c(Oc7c([H])c([H])c(F)c([H])c7F)c([H])c6[H])c(C(=O)N([H])[H])c5N([H])[H])C4([H])[H])c([H])c3Cl)C([H])([H])[H])c([H])c([H])c2C1([H])[H]

$$$$
44:0:0
     RDKit          3D

 95104  0  0  1  0  0  0  0  0999 V2000
  -27.2000  -21.3940   21.3340 C   0  0  0  0  0  2  0  0  0  0  0  0
  -29.1800  -19.8590   21.8350 C   0  0  0  0  0  3  0  0  0  0  0  0
  -28.2200  -17.8960   20.0780 C   0  0  0  0  0  3  0  0  0  0  0  0
  -28.0160  -20.1250   21.0750 C   0  0  0  0  0  0  0  0  0  0  0  0
  -29.3700  -17.6130   20.8540 C   0  0  0  0  0  0  0  0  0  0  0  0
  -27.5560  -19.1370   20.1800 C   0  0  0  0  0  0  0  0  0  0  0  0
  -29.8500  -18.6180   21.7270 C   0  0  0  0  0  0  0  0  0  0  0  0
  -26.4400  -19.3570   19.4450 F   0  0  0  0  0  0  0  0  0  0  0  0
  -30.9390  -18.3880   22.4990 F   0  0  0  0  0  0  0  0  0  0  0  0
  -30.0300  -16.2160   20.8000 C   0  0  0  0  0  2  0  0  0  0  0  0
  -31.5370  -14.6860   19.3930 C   0  0  0  0  0  0  0  0  0  0  0  0
  -30.9900  -12.5250   18.3180 C   0  0  0  0  0  2  0  0  0  0  0  0
  -29.8670  -12.7110   17.2760 C   0  0  0  0  0  2  0  0  0  0  0  0
  -28.4810  -12.6000   17.9430 C   0  0  0  0  0  2  0  0  0  0  0  0
  -28.3700  -13.4470   19.2400 C   0  0  0  0  0  3  0  0  0  0  0  0
  -29.5930  -13.1930   20.1510 C   0  0  0  0  0  2  0  0  0  0  0  0
  -30.7850  -13.5410   19.3720 N   0  0  0  0  0  0  0  0  0  0  0  0
  -32.6360  -14.6830   18.8270 O   0  0  0  0  0  0  0  0  0  0  0  0
  -31.5580  -17.1220   19.0910 C   0  0  0  0  0  1  0  0  0  0  0  0
  -30.9540  -15.9030   19.6770 N   0  0  0  0  0  0  0  0  0  0  0  0
  -26.2380  -14.1190   20.5080 C   0  0  0  0  0  0  0  0  0  0  0  0
  -25.1750  -13.3850   20.9600 C   0  0  0  0  0  0  0  0  0  0  0  0
  -25.4600  -12.0270   20.6210 C   0  0  0  0  0  0  0  0  0  0  0  0
  -27.1120  -13.2070   19.9350 N   0  0  0  0  0  0  0  0  0  0  0  0
  -26.6570  -11.9330   20.0570 N   0  0  0  0  0  0  0  0  0  0  0  0
  -24.6390  -10.8180   20.7510 C   0  0  0  0  0  0  0  0  0  0  0  0
  -25.0490   -9.7330   21.5560 C   0  0  0  0  0  3  0  0  0  0  0  0
  -24.2350   -8.5870   21.6810 C   0  0  0  0  0  3  0  0  0  0  0  0
  -22.9970   -8.5190   20.9990 C   0  0  0  0  0  0  0  0  0  0  0  0
  -22.6030   -9.5940   20.1820 C   0  0  0  0  0  3  0  0  0  0  0  0
  -23.4180  -10.7320   20.0560 C   0  0  0  0  0  3  0  0  0  0  0  0
  -22.1520   -7.4370   21.0400 O   0  0  0  0  0  0  0  0  0  0  0  0
  -21.9910   -6.6920   22.1800 C   0  0  0  0  0  0  0  0  0  0  0  0
  -21.5830   -7.2740   23.4000 C   0  0  0  0  0  3  0  0  0  0  0  0
  -21.3630   -6.4600   24.5290 C   0  0  0  0  0  3  0  0  0  0  0  0
  -21.5420   -5.0660   24.4390 C   0  0  0  0  0  0  0  0  0  0  0  0
  -21.9440   -4.4850   23.2240 C   0  0  0  0  0  3  0  0  0  0  0  0
  -22.1660   -5.2950   22.0970 C   0  0  0  0  0  0  0  0  0  0  0  0
  -22.5320   -4.7270   20.9230 F   0  0  0  0  0  0  0  0  0  0  0  0
  -21.3230   -4.2840   25.5220 F   0  0  0  0  0  0  0  0  0  0  0  0
  -23.9200  -13.9230   21.5830 C   0  0  0  0  0  0  0  0  0  0  0  0
  -23.3170  -13.1680   22.4940 N   0  0  0  0  0  0  0  0  0  0  0  0
  -23.4920  -15.0410   21.2960 O   0  0  0  0  0  0  0  0  0  0  0  0
  -23.6800  -12.2610   22.7430 H   0  0  0  0  0  0  0  0  0  0  0  0
  -22.4790  -13.5030   22.9490 H   0  0  0  0  0  0  0  0  0  0  0  0
  -26.5240  -15.4800   20.5190 N   0  0  0  0  0  0  0  0  0  0  0  0
  -25.8680  -16.1610   20.8850 H   0  0  0  0  0  0  0  0  0  0  0  0
  -27.3380  -15.9010   20.0930 H   0  0  0  0  0  0  0  0  0  0  0  0
  -28.7550  -23.3800   20.6050 C   0  0  0  0  0  0  0  0  0  0  0  0
  -26.8050  -23.6530   19.9620 C   0  0  0  0  0  2  0  0  0  0  0  0
  -27.9890  -24.6170   20.0810 C   0  0  0  0  0  3  0  0  0  0  0  0
  -27.5990  -22.6350   20.6660 N   0  0  0  0  0  0  0  0  0  0  0  0
  -29.8880  -23.1200   20.9480 O   0  0  0  0  0  0  0  0  0  0  0  0
  -28.5890  -25.3200   18.8440 C   0  0  0  0  0  2  0  0  0  0  0  0
  -28.6400  -26.7570   18.9720 O   0  0  0  0  0  0  0  0  0  0  0  0
  -24.9520  -31.1740   23.1470 C   0  0  0  0  0  0  0  0  0  0  0  0
  -27.4630  -27.4620   19.1240 C   0  0  0  0  0  0  0  0  0  0  0  0
  -23.6780  -30.1100   21.3110 C   0  0  0  0  0  3  0  0  0  0  0  0
  -25.0690  -28.9120   19.5430 C   0  0  0  0  0  0  0  0  0  0  0  0
  -26.1910  -30.5360   21.0770 C   0  0  0  0  0  2  0  0  0  0  0  0
  -26.2500  -29.3180   20.1740 C   0  0  0  0  0  0  0  0  0  0  0  0
  -27.4490  -28.5980   19.9680 C   0  0  0  0  0  3  0  0  0  0  0  0
  -26.2650  -27.0830   18.4770 C   0  0  0  0  0  3  0  0  0  0  0  0
  -25.0710  -27.7930   18.6930 C   0  0  0  0  0  3  0  0  0  0  0  0
  -23.8260  -29.7250   19.8150 C   0  0  0  0  0  2  0  0  0  0  0  0
  -24.9610  -30.6090   21.9060 N   0  0  0  0  0  0  0  0  0  0  0  0
  -23.8970  -31.3170   23.7810 O   0  0  0  0  0  0  0  0  0  0  0  0
  -23.0750  -28.9100   22.0780 C   0  0  0  0  0  0  0  0  0  0  0  0
  -21.7580  -28.6970   21.9200 N   0  0  0  0  0  0  0  0  0  0  0  0
  -23.7880  -28.1820   22.7750 O   0  0  0  0  0  0  0  0  0  0  0  0
  -21.2430  -29.3310   21.3280 H   0  0  0  0  0  0  0  0  0  0  0  0
  -18.4610  -27.2410   22.1150 C   0  0  0  0  0  0  0  0  0  0  0  0
  -20.9870  -27.6060   22.5160 C   0  0  0  0  0  3  0  0  0  0  0  0
  -21.1980  -26.2860   21.7390 C   0  0  0  0  0  2  0  0  0  0  0  0
  -20.1520  -26.0550   20.6450 C   0  0  0  0  0  2  0  0  0  0  0  0
  -18.7400  -26.0290   21.2400 C   0  0  0  0  0  2  0  0  0  0  0  0
  -19.5160  -27.9900   22.7010 C   0  0  0  0  0  0  0  0  0  0  0  0
  -19.1990  -29.1330   23.4700 C   0  0  0  0  0  3  0  0  0  0  0  0
  -17.8620  -29.5250   23.6620 C   0  0  0  0  0  3  0  0  0  0  0  0
  -16.8200  -28.7690   23.0950 C   0  0  0  0  0  3  0  0  0  0  0  0
  -17.1210  -27.6290   22.3280 C   0  0  0  0  0  3  0  0  0  0  0  0
  -26.2650  -31.6830   23.8230 C   0  0  0  0  0  3  0  0  0  0  0  0
  -26.8510  -30.6770   24.8890 C   0  0  1  0  0  0  0  0  0  0  0  0
  -25.8120  -30.2090   25.9350 C   0  0  0  0  0  1  0  0  0  0  0  0
  -27.4220  -29.4180   24.1940 C   0  0  0  0  0  1  0  0  0  0  0  0
  -28.0230  -31.3380   25.6460 C   0  0  0  0  0  1  0  0  0  0  0  0
  -25.9680  -32.9810   24.4430 N   0  0  0  0  0  0  0  0  0  0  0  0
  -26.2740  -34.1690   23.9030 C   0  0  0  0  0  0  0  0  0  0  0  0
  -26.9120  -34.2830   22.8510 O   0  0  0  0  0  0  0  0  0  0  0  0
  -25.3960  -32.9660   25.2750 H   0  0  0  0  0  0  0  0  0  0  0  0
  -24.5320  -35.9820   23.9770 C   0  0  0  0  0  1  0  0  0  0  0  0
  -25.8000  -35.4310   24.6480 C   0  0  0  0  0  3  0  0  0  0  0  0
  -27.9610  -36.1450   25.5730 C   0  0  0  0  0  1  0  0  0  0  0  0
  -26.8270  -36.4920   24.7190 N   0  0  0  0  0  0  0  0  0  0  0  0
  -26.4230  -37.3580   25.0670 H   0  0  0  0  0  0  0  0  0  0  0  0
  3  6  2  0
  3  5  1  0
  4  1  1  0
  4  2  2  0
  5  7  2  0
  6  4  1  0
  7  2  1  0
  7  9  1  0
  8  6  1  0
 10  5  1  0
 11 20  1  0
 12 17  1  0
 13 14  1  0
 13 12  1  0
 15 14  1  0
 15 24  1  0
 15 16  1  0
 17 11  1  0
 17 16  1  0
 18 11  2  0
 19 20  1  0
 20 10  1  0
 21 46  1  0
 21 22  2  0
 22 41  1  0
 23 26  1  0
 23 22  1  0
 24 25  1  0
 24 21  1  0
 25 23  2  0
 26 27  1  0
 27 28  2  0
 29 32  1  0
 29 28  1  0
 30 29  2  0
 31 30  1  0
 31 26  2  0
 32 33  1  0
 33 34  1  0
 34 35  2  0
 36 35  1  0
 36 40  1  0
 37 36  2  0
 38 33  2  0
 38 37  1  0
 39 38  1  0
 41 42  1  0
 42 44  1  0
 42 45  1  0
 43 41  2  0
 46 47  1  0
 48 46  1  0
 49 52  1  0
 49 53  2  0
 50 51  1  0
 50 52  1  0
 51 54  1  0
 51 49  1  0
 52  1  1  0
 54 55  1  0
 55 57  1  0
 56 67  2  0
 57 62  1  0
 58 66  1  0
 58 68  1  0
 59 65  1  0
 59 61  1  0
 60 66  1  0
 61 60  1  0
 62 61  2  0
 63 64  1  0
 63 57  2  0
 64 59  2  0
 65 58  1  0
 66 56  1  0
 68 70  2  0
 69 68  1  0
 71 69  1  0
 72 81  2  0
 72 77  1  0
 73 69  1  0
 73 77  1  0
 74 73  1  0
 75 76  1  0
 75 74  1  0
 76 72  1  0
 77 78  2  0
 78 79  1  0
 80 79  2  0
 81 80  1  0
 82 56  1  0
 82 87  1  0
 82 83  1  0
 83 86  1  1
 83 84  1  0
 85 83  1  0
 87 90  1  0
 88 87  1  0
 88 92  1  0
 89 88  2  0
 92 91  1  0
 92 94  1  0
 94 95  1  0
 94 93  1  0
M  ISO  4  11 100  20 100  54 101  55 101
M  END
>  <TORSDO>  (44) 
F 20

>  <SCORE>  (44) 
-6.942

>  <name>  (44) 
44

>  <ligand_id>  (44) 
44

>  <original_smiles>  (44) 
[H]c1c([H])c([H])c2c(c1[H])C([H])([H])C([H])([H])C([H])([H])C2([H])N([H])C(=O)C1([H])N(C(=O)C([H])(N([H])C(=O)C([H])(N([H])C([H])([H])[H])C([H])([H])[H])C(C([H])([H])[H])(C([H])([H])[H])C([H])([H])[H])C([H])([H])c2c([H])c(OC([H])([H])C3([H])C(=O)N(C([H])([H])c4c([H])c(F)c(C([H])([H])N(C(=O)N5C([H])([H])C([H])([H])C([H])([H])C([H])(n6nc(-c7c([H])c([H])c(Oc8c([H])c([H])c(F)c([H])c8F)c([H])c7[H])c(C(=O)N([H])[H])c6N([H])[H])C5([H])[H])C([H])([H])[H])c([H])c4F)C3([H])[H])c([H])c([H])c2C1([H])[H]

>  <smiles>  (44) 
[H]c1c([H])c([H])c2c(c1[H])C([H])([H])C([H])([H])C([H])([H])C2([H])N([H])C(=O)C1([H])N(C(=O)C([H])(N([H])C(=O)C([H])(N([H])C([H])([H])[H])C([H])([H])[H])C(C([H])([H])[H])(C([H])([H])[H])C([H])([H])[H])C([H])([H])c2c([H])c(OC([H])([H])C3([H])C(=O)N(C([H])([H])c4c([H])c(F)c(C([H])([H])N(C(=O)N5C([H])([H])C([H])([H])C([H])([H])C([H])(n6nc(-c7c([H])c([H])c(Oc8c([H])c([H])c(F)c([H])c8F)c([H])c7[H])c(C(=O)N([H])[H])c6N([H])[H])C5([H])[H])C([H])([H])[H])c([H])c4F)C3([H])[H])c([H])c([H])c2C1([H])[H]

$$$$
45:0:0
     RDKit          3D

 91 99  0  0  1  0  0  0  0  0999 V2000
  -30.7250  -19.0090   19.7310 C   0  0  0  0  0  3  0  0  0  0  0  0
  -30.3580  -20.3680   19.8290 C   0  0  0  0  0  3  0  0  0  0  0  0
  -28.3870  -18.3890   19.5330 C   0  0  0  0  0  3  0  0  0  0  0  0
  -29.7470  -18.0090   19.5460 C   0  0  0  0  0  0  0  0  0  0  0  0
  -28.9980  -20.7640   19.7390 C   0  0  0  0  0  0  0  0  0  0  0  0
  -28.0180  -19.7500   19.6300 C   0  0  0  0  0  0  0  0  0  0  0  0
  -26.7070  -20.0870   19.5700 F   0  0  0  0  0  0  0  0  0  0  0  0
  -30.1710  -16.5730   19.2180 C   0  0  0  0  0  2  0  0  0  0  0  0
  -31.1370  -14.4970   20.0290 C   0  0  0  0  0  0  0  0  0  0  0  0
  -30.7430  -12.3200   18.9430 C   0  0  0  0  0  2  0  0  0  0  0  0
  -29.7580  -12.5280   17.7730 C   0  0  0  0  0  2  0  0  0  0  0  0
  -28.2990  -12.4330   18.2650 C   0  0  0  0  0  2  0  0  0  0  0  0
  -28.0330  -13.3010   19.5240 C   0  0  0  0  0  3  0  0  0  0  0  0
  -29.1270  -13.0780   20.5910 C   0  0  0  0  0  2  0  0  0  0  0  0
  -30.4320  -13.3340   19.9620 N   0  0  0  0  0  0  0  0  0  0  0  0
  -32.2670  -14.6150   19.5430 O   0  0  0  0  0  0  0  0  0  0  0  0
  -30.3400  -16.0940   21.6910 C   0  0  0  0  0  1  0  0  0  0  0  0
  -30.4020  -15.6010   20.3120 N   0  0  0  0  0  0  0  0  0  0  0  0
  -25.7000  -13.9920   20.3600 C   0  0  0  0  0  0  0  0  0  0  0  0
  -24.6180  -13.2570   20.7640 C   0  0  0  0  0  0  0  0  0  0  0  0
  -25.0210  -11.8880   20.6850 C   0  0  0  0  0  0  0  0  0  0  0  0
  -26.6940  -13.0730   20.0620 N   0  0  0  0  0  0  0  0  0  0  0  0
  -26.2920  -11.8020   20.3150 N   0  0  0  0  0  0  0  0  0  0  0  0
  -24.2530  -10.6530   20.8850 C   0  0  0  0  0  0  0  0  0  0  0  0
  -24.6410   -9.6920   21.8440 C   0  0  0  0  0  3  0  0  0  0  0  0
  -23.8790   -8.5190   22.0310 C   0  0  0  0  0  3  0  0  0  0  0  0
  -22.7130   -8.3010   21.2580 C   0  0  0  0  0  0  0  0  0  0  0  0
  -22.3440   -9.2510   20.2880 C   0  0  0  0  0  3  0  0  0  0  0  0
  -23.1070  -10.4140   20.1000 C   0  0  0  0  0  3  0  0  0  0  0  0
  -21.9230   -7.1810   21.3530 O   0  0  0  0  0  0  0  0  0  0  0  0
  -21.7720   -6.5050   22.5370 C   0  0  0  0  0  0  0  0  0  0  0  0
  -21.2260   -7.1220   23.6840 C   0  0  0  0  0  3  0  0  0  0  0  0
  -21.0240   -6.3700   24.8590 C   0  0  0  0  0  3  0  0  0  0  0  0
  -21.3590   -5.0030   24.8870 C   0  0  0  0  0  0  0  0  0  0  0  0
  -21.8970   -4.3860   23.7440 C   0  0  0  0  0  3  0  0  0  0  0  0
  -22.1010   -5.1340   22.5720 C   0  0  0  0  0  0  0  0  0  0  0  0
  -22.6020   -4.5290   21.4680 F   0  0  0  0  0  0  0  0  0  0  0  0
  -21.1570   -4.2790   26.0130 F   0  0  0  0  0  0  0  0  0  0  0  0
  -23.2570  -13.7850   21.1110 C   0  0  0  0  0  0  0  0  0  0  0  0
  -22.5420  -13.1030   22.0020 N   0  0  0  0  0  0  0  0  0  0  0  0
  -22.8370  -14.8370   20.6320 O   0  0  0  0  0  0  0  0  0  0  0  0
  -22.8950  -12.2530   22.4130 H   0  0  0  0  0  0  0  0  0  0  0  0
  -21.6290  -13.4390   22.2740 H   0  0  0  0  0  0  0  0  0  0  0  0
  -25.9130  -15.3570   20.2010 N   0  0  0  0  0  0  0  0  0  0  0  0
  -25.1840  -16.0430   20.3640 H   0  0  0  0  0  0  0  0  0  0  0  0
  -26.7700  -15.7630   19.8490 H   0  0  0  0  0  0  0  0  0  0  0  0
  -28.5790  -22.0870   19.7270 O   0  0  0  0  0  0  0  0  0  0  0  0
  -29.5540  -23.0880   19.4150 C   0  0  0  0  0  2  0  0  0  0  0  0
  -28.9410  -24.4720   19.1010 C   0  0  0  0  0  2  0  0  0  0  0  0
  -28.5150  -25.3000   20.3290 C   0  0  0  0  0  2  0  0  0  0  0  0
  -28.5640  -26.7080   20.0580 O   0  0  0  0  0  0  0  0  0  0  0  0
  -24.6650  -31.7220   23.2450 C   0  0  0  0  0  0  0  0  0  0  0  0
  -27.3760  -27.4050   20.0640 C   0  0  0  0  0  0  0  0  0  0  0  0
  -23.4940  -30.3870   21.5210 C   0  0  0  0  0  3  0  0  0  0  0  0
  -24.9780  -28.9000   20.0720 C   0  0  0  0  0  0  0  0  0  0  0  0
  -26.0210  -30.7540   21.3910 C   0  0  0  0  0  2  0  0  0  0  0  0
  -26.1210  -29.4090   20.7010 C   0  0  0  0  0  0  0  0  0  0  0  0
  -27.3250  -28.6720   20.6860 C   0  0  0  0  0  3  0  0  0  0  0  0
  -26.2170  -26.9030   19.4340 C   0  0  0  0  0  3  0  0  0  0  0  0
  -25.0200  -27.6460   19.4350 C   0  0  0  0  0  3  0  0  0  0  0  0
  -23.7330  -29.7570   20.1210 C   0  0  0  0  0  2  0  0  0  0  0  0
  -24.7430  -30.9660   22.1120 N   0  0  0  0  0  0  0  0  0  0  0  0
  -23.5720  -31.9740   23.7720 O   0  0  0  0  0  0  0  0  0  0  0  0
  -22.8210  -29.3310   22.4270 C   0  0  0  0  0  0  0  0  0  0  0  0
  -21.4940  -29.1830   22.2890 N   0  0  0  0  0  0  0  0  0  0  0  0
  -23.4900  -28.6500   23.2090 O   0  0  0  0  0  0  0  0  0  0  0  0
  -21.0160  -29.7850   21.6340 H   0  0  0  0  0  0  0  0  0  0  0  0
  -18.0870  -28.0790   22.7640 C   0  0  0  0  0  0  0  0  0  0  0  0
  -20.6560  -28.2230   23.0080 C   0  0  0  0  0  3  0  0  0  0  0  0
  -20.6960  -26.8340   22.3310 C   0  0  0  0  0  2  0  0  0  0  0  0
  -19.5670  -26.6240   21.3170 C   0  0  0  0  0  2  0  0  0  0  0  0
  -18.2020  -26.7740   21.9950 C   0  0  0  0  0  2  0  0  0  0  0  0
  -19.2400  -28.7680   23.2270 C   0  0  0  0  0  0  0  0  0  0  0  0
  -19.0790  -29.9940   23.9070 C   0  0  0  0  0  3  0  0  0  0  0  0
  -17.7980  -30.5310   24.1290 C   0  0  0  0  0  3  0  0  0  0  0  0
  -16.6580  -29.8370   23.6840 C   0  0  0  0  0  3  0  0  0  0  0  0
  -16.8040  -28.6130   23.0080 C   0  0  0  0  0  3  0  0  0  0  0  0
  -25.9370  -32.3250   23.9160 C   0  0  0  0  0  3  0  0  0  0  0  0
  -25.6230  -33.7080   24.2990 N   0  0  0  0  0  0  0  0  0  0  0  0
  -25.9680  -34.7900   23.5880 C   0  0  0  0  0  0  0  0  0  0  0  0
  -26.6530  -34.7280   22.5630 O   0  0  0  0  0  0  0  0  0  0  0  0
  -25.0190  -33.8300   25.0980 H   0  0  0  0  0  0  0  0  0  0  0  0
  -24.2500  -36.5960   23.2670 C   0  0  0  0  0  1  0  0  0  0  0  0
  -25.4710  -36.1580   24.0920 C   0  0  0  0  0  3  0  0  0  0  0  0
  -27.5790  -37.0090   25.0190 C   0  0  0  0  0  1  0  0  0  0  0  0
  -26.5070  -37.2130   24.0480 N   0  0  0  0  0  0  0  0  0  0  0  0
  -26.0970  -38.1270   24.2180 H   0  0  0  0  0  0  0  0  0  0  0  0
  -26.4330  -31.5000   25.1670 C   0  0  1  0  0  0  0  0  0  0  0  0
  -25.3210  -31.2090   26.2010 C   0  0  0  0  0  1  0  0  0  0  0  0
  -27.0310  -30.1440   24.7220 C   0  0  0  0  0  1  0  0  0  0  0  0
  -27.5650  -32.2680   25.8880 C   0  0  0  0  0  1  0  0  0  0  0  0
  1  2  1  0
  3  4  1  0
  3  6  2  0
  4  1  2  0
  5  2  2  0
  6  5  1  0
  7  6  1  0
  8  4  1  0
  8 18  1  0
  9 18  1  0
 10 15  1  0
 11 12  1  0
 11 10  1  0
 13 12  1  0
 13 22  1  0
 13 14  1  0
 15  9  1  0
 15 14  1  0
 16  9  2  0
 18 17  1  0
 19 20  2  0
 20 39  1  0
 21 20  1  0
 21 24  1  0
 22 23  1  0
 22 19  1  0
 23 21  2  0
 24 25  1  0
 25 26  2  0
 27 30  1  0
 27 26  1  0
 28 27  2  0
 29 28  1  0
 29 24  2  0
 30 31  1  0
 31 36  2  0
 31 32  1  0
 32 33  2  0
 33 34  1  0
 34 38  1  0
 35 34  2  0
 36 35  1  0
 37 36  1  0
 39 40  1  0
 40 43  1  0
 40 42  1  0
 41 39  2  0
 44 19  1  0
 44 45  1  0
 46 44  1  0
 47  5  1  0
 48 47  1  0
 49 48  1  0
 49 50  1  0
 51 53  1  0
 51 50  1  0
 52 63  2  0
 53 58  1  0
 54 62  1  0
 54 64  1  0
 55 61  1  0
 55 57  1  0
 56 62  1  0
 57 56  1  0
 58 57  2  0
 59 60  1  0
 59 53  2  0
 60 55  2  0
 61 54  1  0
 62 52  1  0
 64 66  2  0
 65 64  1  0
 67 65  1  0
 68 77  2  0
 68 73  1  0
 69 65  1  0
 69 73  1  0
 70 69  1  0
 71 72  1  0
 71 70  1  0
 72 68  1  0
 73 74  2  0
 74 75  1  0
 76 75  2  0
 77 76  1  0
 78 52  1  0
 78 79  1  0
 78 88  1  0
 79 82  1  0
 80 84  1  0
 80 79  1  0
 81 80  2  0
 84 83  1  0
 86 84  1  0
 86 87  1  0
 86 85  1  0
 88 91  1  1
 88 89  1  0
 90 88  1  0
M  ISO  4   9 100  18 100  50 101  51 101
M  END
>  <TORSDO>  (45) 
F 21

>  <SCORE>  (45) 
-12.990

>  <name>  (45) 
45

>  <ligand_id>  (45) 
45

>  <original_smiles>  (45) 
[H]c1c([H])c([H])c2c(c1[H])C([H])([H])C([H])([H])C([H])([H])C2([H])N([H])C(=O)C1([H])N(C(=O)C([H])(N([H])C(=O)C([H])(N([H])C([H])([H])[H])C([H])([H])[H])C(C([H])([H])[H])(C([H])([H])[H])C([H])([H])[H])C([H])([H])c2c([H])c(OC([H])([H])C([H])([H])C([H])([H])Oc3c([H])c([H])c(C([H])([H])N(C(=O)N4C([H])([H])C([H])([H])C([H])([H])C([H])(n5nc(-c6c([H])c([H])c(Oc7c([H])c([H])c(F)c([H])c7F)c([H])c6[H])c(C(=O)N([H])[H])c5N([H])[H])C4([H])[H])C([H])([H])[H])c([H])c3F)c([H])c([H])c2C1([H])[H]

>  <smiles>  (45) 
[H]c1c([H])c([H])c2c(c1[H])C([H])([H])C([H])([H])C([H])([H])C2([H])N([H])C(=O)C1([H])N(C(=O)C([H])(N([H])C(=O)C([H])(N([H])C([H])([H])[H])C([H])([H])[H])C(C([H])([H])[H])(C([H])([H])[H])C([H])([H])[H])C([H])([H])c2c([H])c(OC([H])([H])C([H])([H])C([H])([H])Oc3c([H])c([H])c(C([H])([H])N(C(=O)N4C([H])([H])C([H])([H])C([H])([H])C([H])(n5nc(-c6c([H])c([H])c(Oc7c([H])c([H])c(F)c([H])c7F)c([H])c6[H])c(C(=O)N([H])[H])c5N([H])[H])C4([H])[H])C([H])([H])[H])c([H])c3F)c([H])c([H])c2C1([H])[H]

$$$$
46:0:0
     RDKit          3D

 94103  0  0  1  0  0  0  0  0999 V2000
  -29.9570  -23.0620   17.9730 C   0  0  0  0  0  2  0  0  0  0  0  0
  -28.9870  -24.1650   18.3700 C   0  0  0  0  0  2  0  0  0  0  0  0
  -30.4920  -22.5780   19.3160 C   0  0  0  0  0  2  0  0  0  0  0  0
  -28.4540  -23.7730   19.7680 C   0  0  0  0  0  3  0  0  0  0  0  0
  -29.3250  -22.5700   20.2320 N   0  0  1  0  0  4  0  0  0  0  0  0
  -29.6620  -22.7660   21.1640 H   0  0  0  0  0  0  0  0  0  0  0  0
  -28.7100  -21.1500   20.3120 C   0  0  0  0  0  2  0  0  0  0  0  0
  -31.6340  -19.0020   21.7900 C   0  0  0  0  0  3  0  0  0  0  0  0
  -30.7930  -20.0710   21.4290 C   0  0  0  0  0  3  0  0  0  0  0  0
  -31.3150  -17.6700   21.4630 C   0  0  0  0  0  3  0  0  0  0  0  0
  -29.6030  -19.8670   20.6940 C   0  0  0  0  0  0  0  0  0  0  0  0
  -29.2750  -18.4710   20.3910 C   0  0  0  0  0  0  0  0  0  0  0  0
  -30.1290  -17.3440   20.7700 C   0  0  0  0  0  0  0  0  0  0  0  0
  -27.9820  -18.1830   19.6440 C   0  0  0  0  0  1  0  0  0  0  0  0
  -30.6100  -14.7870   20.4000 C   0  0  0  0  0  0  0  0  0  0  0  0
  -30.4240  -12.5250   19.3520 C   0  0  0  0  0  2  0  0  0  0  0  0
  -29.4750  -12.6020   18.1360 C   0  0  0  0  0  2  0  0  0  0  0  0
  -28.0090  -12.4140   18.5740 C   0  0  0  0  0  2  0  0  0  0  0  0
  -27.6360  -13.2880   19.8010 C   0  0  0  0  0  3  0  0  0  0  0  0
  -28.7020  -13.1950   20.9140 C   0  0  0  0  0  2  0  0  0  0  0  0
  -29.9900  -13.5620   20.3120 N   0  0  0  0  0  0  0  0  0  0  0  0
  -31.8040  -14.8910   20.0960 O   0  0  0  0  0  0  0  0  0  0  0  0
  -29.8050  -15.9070   20.5640 N   0  0  0  0  0  0  0  0  0  0  0  0
  -28.8210  -15.6910   20.5690 H   0  0  0  0  0  0  0  0  0  0  0  0
  -25.2450  -13.8550   20.5450 C   0  0  0  0  0  0  0  0  0  0  0  0
  -24.1890  -13.0710   20.9180 C   0  0  0  0  0  0  0  0  0  0  0  0
  -24.6660  -11.7240   20.8790 C   0  0  0  0  0  0  0  0  0  0  0  0
  -26.2970  -12.9860   20.2990 N   0  0  0  0  0  0  0  0  0  0  0  0
  -25.9550  -11.6990   20.5640 N   0  0  0  0  0  0  0  0  0  0  0  0
  -23.9510  -10.4540   21.0670 C   0  0  0  0  0  0  0  0  0  0  0  0
  -24.3940   -9.4870   21.9960 C   0  0  0  0  0  3  0  0  0  0  0  0
  -23.6790   -8.2830   22.1710 C   0  0  0  0  0  3  0  0  0  0  0  0
  -22.5070   -8.0380   21.4170 C   0  0  0  0  0  0  0  0  0  0  0  0
  -22.0840   -8.9930   20.4770 C   0  0  0  0  0  3  0  0  0  0  0  0
  -22.8000  -10.1890   20.3000 C   0  0  0  0  0  3  0  0  0  0  0  0
  -21.7630   -6.8850   21.5030 O   0  0  0  0  0  0  0  0  0  0  0  0
  -21.7220   -6.1380   22.6520 C   0  0  0  0  0  0  0  0  0  0  0  0
  -21.2850   -6.6820   23.8790 C   0  0  0  0  0  3  0  0  0  0  0  0
  -21.1930   -5.8610   25.0200 C   0  0  0  0  0  3  0  0  0  0  0  0
  -21.5280   -4.4960   24.9350 C   0  0  0  0  0  0  0  0  0  0  0  0
  -21.9590   -3.9510   23.7130 C   0  0  0  0  0  3  0  0  0  0  0  0
  -22.0530   -4.7700   22.5740 C   0  0  0  0  0  0  0  0  0  0  0  0
  -22.4480   -4.2360   21.3930 F   0  0  0  0  0  0  0  0  0  0  0  0
  -21.4330   -3.7050   26.0300 F   0  0  0  0  0  0  0  0  0  0  0  0
  -22.7880  -13.5330   21.1930 C   0  0  0  0  0  0  0  0  0  0  0  0
  -22.0680  -12.8260   22.0550 N   0  0  0  0  0  0  0  0  0  0  0  0
  -22.3420  -14.5590   20.6810 O   0  0  0  0  0  0  0  0  0  0  0  0
  -22.4410  -11.9970   22.4930 H   0  0  0  0  0  0  0  0  0  0  0  0
  -21.1270  -13.1180   22.2810 H   0  0  0  0  0  0  0  0  0  0  0  0
  -25.3920  -15.2280   20.3680 N   0  0  0  0  0  0  0  0  0  0  0  0
  -24.6080  -15.8630   20.4700 H   0  0  0  0  0  0  0  0  0  0  0  0
  -26.2100  -15.6710   19.9770 H   0  0  0  0  0  0  0  0  0  0  0  0
  -28.3620  -25.1000   20.6980 C   0  0  0  0  0  2  0  0  0  0  0  0
  -28.3930  -26.4960   20.1460 O   0  0  0  0  0  0  0  0  0  0  0  0
  -24.6330  -31.8980   23.2070 C   0  0  0  0  0  0  0  0  0  0  0  0
  -27.2570  -27.3230   20.1690 C   0  0  0  0  0  0  0  0  0  0  0  0
  -23.4310  -30.4920   21.5700 C   0  0  0  0  0  3  0  0  0  0  0  0
  -24.8860  -28.9320   20.1510 C   0  0  0  0  0  0  0  0  0  0  0  0
  -25.9690  -30.8180   21.3800 C   0  0  0  0  0  2  0  0  0  0  0  0
  -26.0550  -29.4320   20.7400 C   0  0  0  0  0  0  0  0  0  0  0  0
  -27.2450  -28.6420   20.7300 C   0  0  0  0  0  3  0  0  0  0  0  0
  -26.0650  -26.8720   19.5670 C   0  0  0  0  0  3  0  0  0  0  0  0
  -24.8950  -27.6600   19.5540 C   0  0  0  0  0  3  0  0  0  0  0  0
  -23.6470  -29.8070   20.1930 C   0  0  0  0  0  2  0  0  0  0  0  0
  -24.6970  -31.0870   22.1090 N   0  0  0  0  0  0  0  0  0  0  0  0
  -23.5490  -32.1730   23.7430 O   0  0  0  0  0  0  0  0  0  0  0  0
  -22.7730  -29.4780   22.5350 C   0  0  0  0  0  0  0  0  0  0  0  0
  -21.4460  -29.3010   22.4140 N   0  0  0  0  0  0  0  0  0  0  0  0
  -23.4540  -28.8520   23.3510 O   0  0  0  0  0  0  0  0  0  0  0  0
  -20.9540  -29.8580   21.7290 H   0  0  0  0  0  0  0  0  0  0  0  0
  -18.0720  -28.0980   22.9230 C   0  0  0  0  0  0  0  0  0  0  0  0
  -20.6300  -28.3620   23.1870 C   0  0  0  0  0  3  0  0  0  0  0  0
  -20.7330  -26.9300   22.6120 C   0  0  0  0  0  2  0  0  0  0  0  0
  -19.6300  -26.6040   21.6010 C   0  0  0  0  0  2  0  0  0  0  0  0
  -18.2500  -26.7480   22.2470 C   0  0  0  0  0  2  0  0  0  0  0  0
  -19.1900  -28.8620   23.3500 C   0  0  0  0  0  0  0  0  0  0  0  0
  -18.9690  -30.1250   23.9410 C   0  0  0  0  0  3  0  0  0  0  0  0
  -17.6640  -30.6230   24.1100 C   0  0  0  0  0  3  0  0  0  0  0  0
  -16.5600  -29.8560   23.7000 C   0  0  0  0  0  3  0  0  0  0  0  0
  -16.7650  -28.5940   23.1120 C   0  0  0  0  0  3  0  0  0  0  0  0
  -25.9140  -32.5370   23.8280 C   0  0  0  0  0  3  0  0  0  0  0  0
  -26.4330  -31.7700   25.1070 C   0  0  1  0  0  0  0  0  0  0  0  0
  -25.3400  -31.5340   26.1760 C   0  0  0  0  0  1  0  0  0  0  0  0
  -27.0180  -30.3920   24.7190 C   0  0  0  0  0  1  0  0  0  0  0  0
  -27.5820  -32.5690   25.7650 C   0  0  0  0  0  1  0  0  0  0  0  0
  -25.6000  -33.9350   24.1560 N   0  0  0  0  0  0  0  0  0  0  0  0
  -25.9280  -34.9880   23.3970 C   0  0  0  0  0  0  0  0  0  0  0  0
  -26.5970  -34.8860   22.3650 O   0  0  0  0  0  0  0  0  0  0  0  0
  -25.0060  -34.0880   24.9580 H   0  0  0  0  0  0  0  0  0  0  0  0
  -24.1990  -36.7800   23.0430 C   0  0  0  0  0  1  0  0  0  0  0  0
  -25.4400  -36.3760   23.8550 C   0  0  0  0  0  3  0  0  0  0  0  0
  -27.5720  -37.2650   24.6890 C   0  0  0  0  0  1  0  0  0  0  0  0
  -26.4710  -37.4310   23.7440 N   0  0  0  0  0  0  0  0  0  0  0  0
  -26.0640  -38.3500   23.8890 H   0  0  0  0  0  0  0  0  0  0  0  0
  1  2  1  0
  1  3  1  0
  2  4  1  0
  3  5  1  0
  4  5  1  0
  4 53  1  0
  5  7  1  0
  5  6  1  1
  7 11  1  0
  9  8  2  0
 10  8  1  0
 11  9  1  0
 12 11  2  0
 12 13  1  0
 13 10  2  0
 14 12  1  0
 15 23  1  0
 16 21  1  0
 17 18  1  0
 17 16  1  0
 19 18  1  0
 19 28  1  0
 19 20  1  0
 21 15  1  0
 21 20  1  0
 22 15  2  0
 23 24  1  0
 23 13  1  0
 25 26  2  0
 26 45  1  0
 27 26  1  0
 27 30  1  0
 28 25  1  0
 28 29  1  0
 29 27  2  0
 30 31  1  0
 31 32  2  0
 33 36  1  0
 33 32  1  0
 34 33  2  0
 35 34  1  0
 35 30  2  0
 36 37  1  0
 37 38  1  0
 38 39  2  0
 40 39  1  0
 40 44  1  0
 41 40  2  0
 42 37  2  0
 42 41  1  0
 43 42  1  0
 45 46  1  0
 46 49  1  0
 46 48  1  0
 47 45  2  0
 50 51  1  0
 50 25  1  0
 52 50  1  0
 54 56  1  0
 54 53  1  0
 55 66  2  0
 56 61  1  0
 57 65  1  0
 57 67  1  0
 58 64  1  0
 58 60  1  0
 59 65  1  0
 60 59  1  0
 61 60  2  0
 62 56  2  0
 63 62  1  0
 63 58  2  0
 64 57  1  0
 65 55  1  0
 67 69  2  0
 68 67  1  0
 70 68  1  0
 71 80  2  0
 71 76  1  0
 72 68  1  0
 72 76  1  0
 73 72  1  0
 74 75  1  0
 74 73  1  0
 75 71  1  0
 76 77  2  0
 77 78  1  0
 79 78  2  0
 80 79  1  0
 81 55  1  0
 81 86  1  0
 81 82  1  0
 82 85  1  1
 82 83  1  0
 84 82  1  0
 86 89  1  0
 87 91  1  0
 87 86  1  0
 88 87  2  0
 91 90  1  0
 93 91  1  0
 93 94  1  0
 93 92  1  0
M  ISO  4  15 100  23 100  53 101  54 101
M  END
>  <TORSDO>  (46) 
F 19

>  <SCORE>  (46) 
-14.664

>  <name>  (46) 
46

>  <ligand_id>  (46) 
46

>  <original_smiles>  (46) 
[H]c1c([H])c([H])c2c(c1[H])C([H])([H])C([H])([H])C([H])([H])C2([H])N([H])C(=O)C1([H])N(C(=O)C([H])(N([H])C(=O)C([H])(N([H])C([H])([H])[H])C([H])([H])[H])C(C([H])([H])[H])(C([H])([H])[H])C([H])([H])[H])C([H])([H])c2c([H])c(OC([H])([H])C3([H])C([H])([H])C([H])([H])C([H])([H])[N+]3([H])C([H])([H])c3c([H])c([H])c([H])c(N([H])C(=O)N4C([H])([H])C([H])([H])C([H])([H])C([H])(n5nc(-c6c([H])c([H])c(Oc7c([H])c([H])c(F)c([H])c7F)c([H])c6[H])c(C(=O)N([H])[H])c5N([H])[H])C4([H])[H])c3C([H])([H])[H])c([H])c([H])c2C1([H])[H]

>  <smiles>  (46) 
[H]c1c([H])c([H])c2c(c1[H])C([H])([H])C([H])([H])C([H])([H])C2([H])N([H])C(=O)C1([H])N(C(=O)C([H])(N([H])C(=O)C([H])(N([H])C([H])([H])[H])C([H])([H])[H])C(C([H])([H])[H])(C([H])([H])[H])C([H])([H])[H])C([H])([H])c2c([H])c(OC([H])([H])C3([H])C([H])([H])C([H])([H])C([H])([H])[N+]3([H])C([H])([H])c3c([H])c([H])c([H])c(N([H])C(=O)N4C([H])([H])C([H])([H])C([H])([H])C([H])(n5nc(-c6c([H])c([H])c(Oc7c([H])c([H])c(F)c([H])c7F)c([H])c6[H])c(C(=O)N([H])[H])c5N([H])[H])C4([H])[H])c3C([H])([H])[H])c([H])c([H])c2C1([H])[H]

$$$$
47:0:0
     RDKit          3D

 91 99  0  0  1  0  0  0  0  0999 V2000
  -28.1090  -21.9760   21.7310 O   0  0  0  0  0  0  0  0  0  0  0  0
  -30.5840  -22.3630   21.5270 O   0  0  0  0  0  0  0  0  0  0  0  0
  -29.3450  -21.8270   20.9390 S   0  0  1  0  0  0  0  0  0  0  0  0
  -28.7490  -17.6950   20.8120 C   0  0  0  0  0  3  0  0  0  0  0  0
  -31.0960  -18.0090   20.3470 C   0  0  0  0  0  3  0  0  0  0  0  0
  -28.5470  -19.1000   20.8320 C   0  0  0  0  0  3  0  0  0  0  0  0
  -30.8980  -19.4280   20.3850 C   0  0  0  0  0  3  0  0  0  0  0  0
  -30.0180  -17.1090   20.5900 C   0  0  0  0  0  0  0  0  0  0  0  0
  -29.6210  -20.0000   20.6480 C   0  0  0  0  0  0  0  0  0  0  0  0
  -30.8450  -14.6950   20.0690 C   0  0  0  0  0  0  0  0  0  0  0  0
  -30.5730  -12.5120   18.9030 C   0  0  0  0  0  2  0  0  0  0  0  0
  -29.5620  -12.7140   17.7500 C   0  0  0  0  0  2  0  0  0  0  0  0
  -28.1100  -12.5550   18.2460 C   0  0  0  0  0  2  0  0  0  0  0  0
  -27.8310  -13.3500   19.5510 C   0  0  0  0  0  3  0  0  0  0  0  0
  -28.9480  -13.1020   20.5910 C   0  0  0  0  0  2  0  0  0  0  0  0
  -30.2350  -13.4720   19.9720 N   0  0  0  0  0  0  0  0  0  0  0  0
  -31.9480  -14.9180   19.5580 O   0  0  0  0  0  0  0  0  0  0  0  0
  -30.0890  -15.6570   20.6710 N   0  0  0  0  0  0  0  0  0  0  0  0
  -29.2870  -15.2400   21.1180 H   0  0  0  0  0  0  0  0  0  0  0  0
  -25.4700  -13.9330   20.3910 C   0  0  0  0  0  0  0  0  0  0  0  0
  -24.4240  -13.1510   20.8000 C   0  0  0  0  0  0  0  0  0  0  0  0
  -24.8840  -11.8000   20.7130 C   0  0  0  0  0  0  0  0  0  0  0  0
  -26.5040  -13.0590   20.0890 N   0  0  0  0  0  0  0  0  0  0  0  0
  -26.1560  -11.7710   20.3390 N   0  0  0  0  0  0  0  0  0  0  0  0
  -24.1670  -10.5350   20.9110 C   0  0  0  0  0  0  0  0  0  0  0  0
  -24.5850   -9.5910   21.8760 C   0  0  0  0  0  3  0  0  0  0  0  0
  -23.8700   -8.3880   22.0590 C   0  0  0  0  0  3  0  0  0  0  0  0
  -22.7210   -8.1190   21.2760 C   0  0  0  0  0  0  0  0  0  0  0  0
  -22.3230   -9.0490   20.3000 C   0  0  0  0  0  3  0  0  0  0  0  0
  -23.0400  -10.2450   20.1160 C   0  0  0  0  0  3  0  0  0  0  0  0
  -21.9810   -6.9660   21.3670 O   0  0  0  0  0  0  0  0  0  0  0  0
  -21.8240   -6.3030   22.5580 C   0  0  0  0  0  0  0  0  0  0  0  0
  -21.2470   -6.9230   23.6880 C   0  0  0  0  0  3  0  0  0  0  0  0
  -21.0430   -6.1830   24.8700 C   0  0  0  0  0  3  0  0  0  0  0  0
  -21.4040   -4.8230   24.9210 C   0  0  0  0  0  0  0  0  0  0  0  0
  -21.9740   -4.2030   23.7960 C   0  0  0  0  0  3  0  0  0  0  0  0
  -22.1800   -4.9390   22.6160 C   0  0  0  0  0  0  0  0  0  0  0  0
  -22.7090   -4.3310   21.5280 F   0  0  0  0  0  0  0  0  0  0  0  0
  -21.2010   -4.1090   26.0540 F   0  0  0  0  0  0  0  0  0  0  0  0
  -23.0420  -13.6190   21.1530 C   0  0  0  0  0  0  0  0  0  0  0  0
  -22.3550  -12.8990   22.0330 N   0  0  0  0  0  0  0  0  0  0  0  0
  -22.5780  -14.6580   20.6850 O   0  0  0  0  0  0  0  0  0  0  0  0
  -22.7420  -12.0570   22.4350 H   0  0  0  0  0  0  0  0  0  0  0  0
  -21.4290  -13.1920   22.3100 H   0  0  0  0  0  0  0  0  0  0  0  0
  -25.6220  -15.3070   20.2310 N   0  0  0  0  0  0  0  0  0  0  0  0
  -24.8420  -15.9460   20.3510 H   0  0  0  0  0  0  0  0  0  0  0  0
  -26.4260  -15.7430   19.7960 H   0  0  0  0  0  0  0  0  0  0  0  0
  -29.0680  -22.7770   19.3480 C   0  0  0  0  0  2  0  0  0  0  0  0
  -28.3410  -24.1990   19.3710 C   0  0  0  0  0  2  0  0  0  0  0  0
  -28.6460  -25.3140   20.4330 C   0  0  0  0  0  2  0  0  0  0  0  0
  -28.5460  -26.7190   20.0140 O   0  0  0  0  0  0  0  0  0  0  0  0
  -24.6640  -31.8760   23.1830 C   0  0  0  0  0  0  0  0  0  0  0  0
  -27.3510  -27.4340   20.0730 C   0  0  0  0  0  0  0  0  0  0  0  0
  -23.4730  -30.4900   21.5190 C   0  0  0  0  0  3  0  0  0  0  0  0
  -24.9410  -28.9640   20.0810 C   0  0  0  0  0  0  0  0  0  0  0  0
  -25.9980  -30.8540   21.3280 C   0  0  0  0  0  2  0  0  0  0  0  0
  -26.0960  -29.4790   20.6840 C   0  0  0  0  0  0  0  0  0  0  0  0
  -27.3020  -28.7280   20.6660 C   0  0  0  0  0  3  0  0  0  0  0  0
  -26.1750  -26.9480   19.4610 C   0  0  0  0  0  3  0  0  0  0  0  0
  -24.9800  -27.7020   19.4590 C   0  0  0  0  0  3  0  0  0  0  0  0
  -23.6910  -29.8190   20.1330 C   0  0  0  0  0  2  0  0  0  0  0  0
  -24.7310  -31.0890   22.0680 N   0  0  0  0  0  0  0  0  0  0  0  0
  -23.5810  -32.1320   23.7290 O   0  0  0  0  0  0  0  0  0  0  0  0
  -22.8210  -29.4580   22.4680 C   0  0  0  0  0  0  0  0  0  0  0  0
  -21.4960  -29.2770   22.3440 N   0  0  0  0  0  0  0  0  0  0  0  0
  -23.5070  -28.8190   23.2710 O   0  0  0  0  0  0  0  0  0  0  0  0
  -21.0010  -29.8430   21.6700 H   0  0  0  0  0  0  0  0  0  0  0  0
  -18.1240  -28.0850   22.8560 C   0  0  0  0  0  0  0  0  0  0  0  0
  -20.6870  -28.3230   23.1040 C   0  0  0  0  0  3  0  0  0  0  0  0
  -20.7740  -26.9060   22.4890 C   0  0  0  0  0  2  0  0  0  0  0  0
  -19.6590  -26.6160   21.4800 C   0  0  0  0  0  2  0  0  0  0  0  0
  -18.2860  -26.7530   22.1430 C   0  0  0  0  0  2  0  0  0  0  0  0
  -19.2520  -28.8300   23.2920 C   0  0  0  0  0  0  0  0  0  0  0  0
  -19.0450  -30.0800   23.9150 C   0  0  0  0  0  3  0  0  0  0  0  0
  -17.7450  -30.5840   24.1080 C   0  0  0  0  0  3  0  0  0  0  0  0
  -16.6330  -29.8360   23.6850 C   0  0  0  0  0  3  0  0  0  0  0  0
  -16.8240  -28.5880   23.0640 C   0  0  0  0  0  3  0  0  0  0  0  0
  -25.9440  -32.5070   23.8160 C   0  0  0  0  0  3  0  0  0  0  0  0
  -26.4520  -31.7320   25.0940 C   0  0  1  0  0  0  0  0  0  0  0  0
  -25.3480  -31.4910   26.1510 C   0  0  0  0  0  1  0  0  0  0  0  0
  -27.0380  -30.3590   24.6960 C   0  0  0  0  0  1  0  0  0  0  0  0
  -27.5960  -32.5240   25.7680 C   0  0  0  0  0  1  0  0  0  0  0  0
  -25.6350  -33.9030   24.1470 N   0  0  0  0  0  0  0  0  0  0  0  0
  -25.9900  -34.9590   23.3990 C   0  0  0  0  0  0  0  0  0  0  0  0
  -26.6800  -34.8560   22.3820 O   0  0  0  0  0  0  0  0  0  0  0  0
  -25.0240  -34.0570   24.9370 H   0  0  0  0  0  0  0  0  0  0  0  0
  -24.2870  -36.7640   23.0030 C   0  0  0  0  0  1  0  0  0  0  0  0
  -25.4980  -36.3470   23.8520 C   0  0  0  0  0  3  0  0  0  0  0  0
  -27.6100  -37.2130   24.7590 C   0  0  0  0  0  1  0  0  0  0  0  0
  -26.5440  -37.3920   23.7780 N   0  0  0  0  0  0  0  0  0  0  0  0
  -26.1380  -38.3150   23.9130 H   0  0  0  0  0  0  0  0  0  0  0  0
  3  2  2  0
  3  1  2  0
  4  6  1  0
  5  7  2  0
  5  8  1  0
  7  9  1  0
  8 18  1  0
  8  4  2  0
  9  6  2  0
  9  3  1  0
 10 18  1  0
 11 16  1  0
 12 13  1  0
 12 11  1  0
 14 13  1  0
 14 23  1  0
 14 15  1  0
 16 10  1  0
 16 15  1  0
 17 10  2  0
 18 19  1  0
 20 21  2  0
 21 40  1  0
 22 21  1  0
 22 25  1  0
 23 24  1  0
 23 20  1  0
 24 22  2  0
 25 26  1  0
 26 27  2  0
 28 31  1  0
 28 27  1  0
 29 28  2  0
 30 29  1  0
 30 25  2  0
 31 32  1  0
 32 37  2  0
 32 33  1  0
 33 34  2  0
 34 35  1  0
 35 39  1  0
 36 35  2  0
 37 36  1  0
 38 37  1  0
 40 41  1  0
 41 44  1  0
 41 43  1  0
 42 40  2  0
 45 46  1  0
 45 20  1  0
 47 45  1  0
 48 49  1  0
  3 48  1  6
 49 50  1  0
 51 53  1  0
 51 50  1  0
 52 63  2  0
 53 58  1  0
 54 62  1  0
 54 64  1  0
 55 61  1  0
 55 57  1  0
 56 62  1  0
 57 56  1  0
 58 57  2  0
 59 53  2  0
 60 59  1  0
 60 55  2  0
 61 54  1  0
 62 52  1  0
 64 66  2  0
 65 64  1  0
 67 65  1  0
 68 77  2  0
 68 73  1  0
 69 65  1  0
 69 73  1  0
 70 69  1  0
 71 72  1  0
 71 70  1  0
 72 68  1  0
 73 74  2  0
 74 75  1  0
 76 75  2  0
 77 76  1  0
 78 52  1  0
 78 83  1  0
 78 79  1  0
 79 82  1  1
 79 80  1  0
 81 79  1  0
 83 86  1  0
 84 88  1  0
 84 83  1  0
 85 84  2  0
 88 87  1  0
 90 88  1  0
 90 91  1  0
 90 89  1  0
M  ISO  4  10 100  18 100  50 101  51 101
M  END
>  <TORSDO>  (47) 
F 20

>  <SCORE>  (47) 
-13.453

>  <name>  (47) 
47

>  <ligand_id>  (47) 
47

>  <original_smiles>  (47) 
[H]c1c([H])c([H])c2c(c1[H])C([H])([H])C([H])([H])C([H])([H])C2([H])N([H])C(=O)C1([H])N(C(=O)C([H])(N([H])C(=O)C([H])(N([H])C([H])([H])[H])C([H])([H])[H])C(C([H])([H])[H])(C([H])([H])[H])C([H])([H])[H])C([H])([H])c2c([H])c(OC([H])([H])C([H])([H])C([H])([H])S(=O)(=O)c3c([H])c([H])c(N([H])C(=O)N4C([H])([H])C([H])([H])C([H])([H])C([H])(n5nc(-c6c([H])c([H])c(Oc7c([H])c([H])c(F)c([H])c7F)c([H])c6[H])c(C(=O)N([H])[H])c5N([H])[H])C4([H])[H])c([H])c3[H])c([H])c([H])c2C1([H])[H]

>  <smiles>  (47) 
[H]c1c([H])c([H])c2c(c1[H])C([H])([H])C([H])([H])C([H])([H])C2([H])N([H])C(=O)C1([H])N(C(=O)C([H])(N([H])C(=O)C([H])(N([H])C([H])([H])[H])C([H])([H])[H])C(C([H])([H])[H])(C([H])([H])[H])C([H])([H])[H])C([H])([H])c2c([H])c(OC([H])([H])C([H])([H])C([H])([H])S(=O)(=O)c3c([H])c([H])c(N([H])C(=O)N4C([H])([H])C([H])([H])C([H])([H])C([H])(n5nc(-c6c([H])c([H])c(Oc7c([H])c([H])c(F)c([H])c7F)c([H])c6[H])c(C(=O)N([H])[H])c5N([H])[H])C4([H])[H])c([H])c3[H])c([H])c([H])c2C1([H])[H]

$$$$
48:0:0
     RDKit          3D

 94103  0  0  1  0  0  0  0  0999 V2000
  -29.1960  -22.9760   20.8680 C   0  0  0  0  0  0  0  0  0  0  0  0
  -30.5950  -24.4270   19.5620 C   0  0  0  0  0  3  0  0  0  0  0  0
  -30.8120  -22.9430   19.2180 C   0  0  0  0  0  3  0  0  0  0  0  0
  -29.4910  -24.4610   20.6220 C   0  0  0  0  0  3  0  0  0  0  0  0
  -29.9860  -22.1560   20.1340 N   0  0  0  0  0  0  0  0  0  0  0  0
  -28.3210  -22.6260   21.6660 O   0  0  0  0  0  0  0  0  0  0  0  0
  -30.3220  -18.6000   18.8620 C   0  0  0  0  0  3  0  0  0  0  0  0
  -30.3790  -20.0100   18.9360 C   0  0  0  0  0  3  0  0  0  0  0  0
  -29.5830  -19.9210   21.2220 C   0  0  0  0  0  3  0  0  0  0  0  0
  -29.8650  -17.8380   19.9580 C   0  0  0  0  0  0  0  0  0  0  0  0
  -29.9770  -20.7060   20.1060 C   0  0  0  0  0  0  0  0  0  0  0  0
  -29.5170  -18.5140   21.1480 C   0  0  0  0  0  0  0  0  0  0  0  0
  -29.0970  -17.8120   22.2280 F   0  0  0  0  0  0  0  0  0  0  0  0
  -29.6690  -16.3200   19.8310 C   0  0  0  0  0  2  0  0  0  0  0  0
  -31.1690  -14.4090   19.4370 C   0  0  0  0  0  0  0  0  0  0  0  0
  -30.6380  -12.1720   18.5280 C   0  0  0  0  0  2  0  0  0  0  0  0
  -29.5890  -12.2670   17.4040 C   0  0  0  0  0  2  0  0  0  0  0  0
  -28.1650  -12.2170   17.9890 C   0  0  0  0  0  2  0  0  0  0  0  0
  -27.9710  -13.2100   19.1640 C   0  0  0  0  0  3  0  0  0  0  0  0
  -29.1270  -13.0990   20.1860 C   0  0  0  0  0  2  0  0  0  0  0  0
  -30.4000  -13.2820   19.4670 N   0  0  0  0  0  0  0  0  0  0  0  0
  -32.2120  -14.4780   18.7790 O   0  0  0  0  0  0  0  0  0  0  0  0
  -31.8000  -16.0860   21.0740 C   0  0  0  0  0  1  0  0  0  0  0  0
  -30.7920  -15.4460   20.2270 N   0  0  0  0  0  0  0  0  0  0  0  0
  -25.7510  -14.0220   20.1780 C   0  0  0  0  0  0  0  0  0  0  0  0
  -24.6610  -13.3420   20.6520 C   0  0  0  0  0  0  0  0  0  0  0  0
  -24.9770  -11.9540   20.5280 C   0  0  0  0  0  0  0  0  0  0  0  0
  -26.6660  -13.0520   19.7980 N   0  0  0  0  0  0  0  0  0  0  0  0
  -26.2120  -11.8030   20.0650 N   0  0  0  0  0  0  0  0  0  0  0  0
  -24.1560  -10.7620   20.7670 C   0  0  0  0  0  0  0  0  0  0  0  0
  -24.5550   -9.7640   21.6830 C   0  0  0  0  0  3  0  0  0  0  0  0
  -23.7400   -8.6340   21.9090 C   0  0  0  0  0  3  0  0  0  0  0  0
  -22.5110   -8.4950   21.2220 C   0  0  0  0  0  0  0  0  0  0  0  0
  -22.1300   -9.4810   20.2940 C   0  0  0  0  0  3  0  0  0  0  0  0
  -22.9440  -10.6020   20.0650 C   0  0  0  0  0  3  0  0  0  0  0  0
  -21.6680   -7.4200   21.3580 O   0  0  0  0  0  0  0  0  0  0  0  0
  -21.5600   -6.7370   22.5430 C   0  0  0  0  0  0  0  0  0  0  0  0
  -21.1920   -7.3810   23.7440 C   0  0  0  0  0  3  0  0  0  0  0  0
  -21.0250   -6.6290   24.9230 C   0  0  0  0  0  3  0  0  0  0  0  0
  -21.2170   -5.2340   24.9040 C   0  0  0  0  0  0  0  0  0  0  0  0
  -21.5780   -4.5900   23.7080 C   0  0  0  0  0  3  0  0  0  0  0  0
  -21.7460   -5.3400   22.5300 C   0  0  0  0  0  0  0  0  0  0  0  0
  -22.0740   -4.7110   21.3750 F   0  0  0  0  0  0  0  0  0  0  0  0
  -21.0480   -4.5110   26.0350 F   0  0  0  0  0  0  0  0  0  0  0  0
  -23.3610  -13.9410   21.1040 C   0  0  0  0  0  0  0  0  0  0  0  0
  -22.6810  -13.2920   22.0430 N   0  0  0  0  0  0  0  0  0  0  0  0
  -22.9620  -15.0170   20.6580 O   0  0  0  0  0  0  0  0  0  0  0  0
  -23.0190  -12.4220   22.4250 H   0  0  0  0  0  0  0  0  0  0  0  0
  -21.8100  -13.6730   22.3850 H   0  0  0  0  0  0  0  0  0  0  0  0
  -26.0270  -15.3770   20.0190 N   0  0  0  0  0  0  0  0  0  0  0  0
  -25.3430  -16.0930   20.2360 H   0  0  0  0  0  0  0  0  0  0  0  0
  -26.8610  -15.7470   19.5820 H   0  0  0  0  0  0  0  0  0  0  0  0
  -28.2290  -25.2630   20.2100 C   0  0  0  0  0  2  0  0  0  0  0  0
  -28.3920  -26.6940   20.2930 O   0  0  0  0  0  0  0  0  0  0  0  0
  -24.5030  -31.8980   23.2220 C   0  0  0  0  0  0  0  0  0  0  0  0
  -27.2230  -27.4340   20.2290 C   0  0  0  0  0  0  0  0  0  0  0  0
  -23.3300  -30.4620   21.5860 C   0  0  0  0  0  3  0  0  0  0  0  0
  -24.8140  -28.9270   20.1950 C   0  0  0  0  0  0  0  0  0  0  0  0
  -25.8560  -30.8440   21.4110 C   0  0  0  0  0  2  0  0  0  0  0  0
  -25.9630  -29.4670   20.7860 C   0  0  0  0  0  0  0  0  0  0  0  0
  -27.1720  -28.7300   20.7980 C   0  0  0  0  0  3  0  0  0  0  0  0
  -26.0520  -26.9200   19.6210 C   0  0  0  0  0  3  0  0  0  0  0  0
  -24.8540  -27.6530   19.6080 C   0  0  0  0  0  3  0  0  0  0  0  0
  -23.5610  -29.7720   20.2170 C   0  0  0  0  0  2  0  0  0  0  0  0
  -24.5810  -31.0830   22.1310 N   0  0  0  0  0  0  0  0  0  0  0  0
  -23.4140  -32.1660   23.7460 O   0  0  0  0  0  0  0  0  0  0  0  0
  -22.6800  -29.4450   22.5510 C   0  0  0  0  0  0  0  0  0  0  0  0
  -21.3660  -29.2160   22.3850 N   0  0  0  0  0  0  0  0  0  0  0  0
  -23.3540  -28.8650   23.4070 O   0  0  0  0  0  0  0  0  0  0  0  0
  -20.8830  -29.7370   21.6670 H   0  0  0  0  0  0  0  0  0  0  0  0
  -18.0260  -27.8930   22.7710 C   0  0  0  0  0  0  0  0  0  0  0  0
  -20.5540  -28.2740   23.1530 C   0  0  0  0  0  3  0  0  0  0  0  0
  -20.7450  -26.8270   22.6430 C   0  0  0  0  0  2  0  0  0  0  0  0
  -19.7090  -26.4170   21.5910 C   0  0  0  0  0  2  0  0  0  0  0  0
  -18.2930  -26.5270   22.1620 C   0  0  0  0  0  2  0  0  0  0  0  0
  -19.0890  -28.7200   23.2230 C   0  0  0  0  0  0  0  0  0  0  0  0
  -18.7890  -29.9950   23.7480 C   0  0  0  0  0  3  0  0  0  0  0  0
  -17.4580  -30.4460   23.8300 C   0  0  0  0  0  3  0  0  0  0  0  0
  -16.4090  -29.6170   23.3960 C   0  0  0  0  0  3  0  0  0  0  0  0
  -16.6930  -28.3440   22.8730 C   0  0  0  0  0  3  0  0  0  0  0  0
  -25.7750  -32.5510   23.8450 C   0  0  0  0  0  3  0  0  0  0  0  0
  -26.2760  -31.8150   25.1490 C   0  0  1  0  0  0  0  0  0  0  0  0
  -25.1650  -31.5900   26.2010 C   0  0  0  0  0  1  0  0  0  0  0  0
  -26.8800  -30.4350   24.8000 C   0  0  0  0  0  1  0  0  0  0  0  0
  -27.4080  -32.6360   25.8100 C   0  0  0  0  0  1  0  0  0  0  0  0
  -25.4570  -33.9550   24.1310 N   0  0  0  0  0  0  0  0  0  0  0  0
  -25.7880  -34.9850   23.3410 C   0  0  0  0  0  0  0  0  0  0  0  0
  -26.4640  -34.8530   22.3170 O   0  0  0  0  0  0  0  0  0  0  0  0
  -24.8530  -34.1310   24.9210 H   0  0  0  0  0  0  0  0  0  0  0  0
  -24.0440  -36.7490   22.9250 C   0  0  0  0  0  1  0  0  0  0  0  0
  -25.2890  -36.3840   23.7500 C   0  0  0  0  0  3  0  0  0  0  0  0
  -27.4150  -37.3130   24.5520 C   0  0  0  0  0  1  0  0  0  0  0  0
  -26.3130  -37.4410   23.6030 N   0  0  0  0  0  0  0  0  0  0  0  0
  -25.8990  -38.3620   23.7200 H   0  0  0  0  0  0  0  0  0  0  0  0
  1  6  2  0
  2  4  1  0
  3  2  2  0
  3  5  1  0
  4 53  1  0
  4  1  1  0
  5  1  1  0
  7  8  2  0
  7 10  1  0
  8 11  1  0
 10 12  2  0
 11  5  1  0
 11  9  2  0
 12  9  1  0
 12 13  1  0
 14 10  1  0
 14 24  1  0
 15 21  1  0
 15 24  1  0
 16 21  1  0
 17 18  1  0
 17 16  1  0
 19 18  1  0
 19 28  1  0
 19 20  1  0
 21 20  1  0
 22 15  2  0
 24 23  1  0
 25 26  2  0
 26 45  1  0
 27 26  1  0
 27 30  1  0
 28 29  1  0
 28 25  1  0
 29 27  2  0
 30 31  1  0
 31 32  2  0
 33 36  1  0
 33 32  1  0
 34 33  2  0
 35 34  1  0
 35 30  2  0
 36 37  1  0
 37 38  1  0
 38 39  2  0
 40 39  1  0
 40 44  1  0
 41 40  2  0
 42 37  2  0
 42 41  1  0
 43 42  1  0
 45 46  1  0
 46 49  1  0
 46 48  1  0
 47 45  2  0
 50 25  1  0
 50 51  1  0
 52 50  1  0
 53 54  1  0
 55 66  2  0
 56 54  1  0
 56 61  1  0
 57 65  1  0
 57 67  1  0
 58 64  1  0
 58 60  1  0
 59 65  1  0
 60 61  2  0
 60 59  1  0
 62 56  2  0
 63 62  1  0
 63 58  2  0
 64 57  1  0
 65 55  1  0
 67 69  2  0
 68 67  1  0
 70 68  1  0
 71 80  2  0
 71 76  1  0
 72 68  1  0
 72 76  1  0
 73 72  1  0
 74 75  1  0
 74 73  1  0
 75 71  1  0
 76 77  2  0
 77 78  1  0
 79 78  2  0
 80 79  1  0
 81 55  1  0
 81 86  1  0
 81 82  1  0
 82 85  1  1
 82 83  1  0
 84 82  1  0
 86 89  1  0
 87 91  1  0
 87 86  1  0
 88 87  2  0
 91 90  1  0
 93 94  1  0
 93 91  1  0
 93 92  1  0
M  ISO  4  15 100  24 100  53 101  54 101
M  END
>  <TORSDO>  (48) 
F 19

>  <SCORE>  (48) 
-12.447

>  <name>  (48) 
48

>  <ligand_id>  (48) 
48

>  <original_smiles>  (48) 
[H]c1c([H])c([H])c2c(c1[H])C([H])([H])C([H])([H])C([H])([H])C2([H])N([H])C(=O)C1([H])N(C(=O)C([H])(N([H])C(=O)C([H])(N([H])C([H])([H])[H])C([H])([H])[H])C(C([H])([H])[H])(C([H])([H])[H])C([H])([H])[H])C([H])([H])c2c([H])c(OC([H])([H])C3([H])C(=O)N(c4c([H])c([H])c(C([H])([H])N(C(=O)N5C([H])([H])C([H])([H])C([H])([H])C([H])(n6nc(-c7c([H])c([H])c(Oc8c([H])c([H])c(F)c([H])c8F)c([H])c7[H])c(C(=O)N([H])[H])c6N([H])[H])C5([H])[H])C([H])([H])[H])c(F)c4[H])C([H])([H])C3([H])[H])c([H])c([H])c2C1([H])[H]

>  <smiles>  (48) 
[H]c1c([H])c([H])c2c(c1[H])C([H])([H])C([H])([H])C([H])([H])C2([H])N([H])C(=O)C1([H])N(C(=O)C([H])(N([H])C(=O)C([H])(N([H])C([H])([H])[H])C([H])([H])[H])C(C([H])([H])[H])(C([H])([H])[H])C([H])([H])[H])C([H])([H])c2c([H])c(OC([H])([H])C3([H])C(=O)N(c4c([H])c([H])c(C([H])([H])N(C(=O)N5C([H])([H])C([H])([H])C([H])([H])C([H])(n6nc(-c7c([H])c([H])c(Oc8c([H])c([H])c(F)c([H])c8F)c([H])c7[H])c(C(=O)N([H])[H])c6N([H])[H])C5([H])[H])C([H])([H])[H])c(F)c4[H])C([H])([H])C3([H])[H])c([H])c([H])c2C1([H])[H]

$$$$
49:0:0
     RDKit          3D

 97105  0  0  1  0  0  0  0  0999 V2000
  -30.1250  -18.6590   22.8020 C   0  0  0  0  0  3  0  0  0  0  0  0
  -30.0490  -20.0660   22.7510 C   0  0  0  0  0  3  0  0  0  0  0  0
  -31.0840  -17.9550   22.0410 C   0  0  0  0  0  0  0  0  0  0  0  0
  -30.9400  -20.8140   21.9420 C   0  0  0  0  0  0  0  0  0  0  0  0
  -32.0230  -18.6950   21.2890 C   0  0  0  0  0  0  0  0  0  0  0  0
  -31.9440  -20.1070   21.2360 C   0  0  0  0  0  0  0  0  0  0  0  0
  -32.9900  -18.0510   20.5920 F   0  0  0  0  0  0  0  0  0  0  0  0
  -32.8360  -20.7910   20.4780 F   0  0  0  0  0  0  0  0  0  0  0  0
  -30.8600  -22.2180   21.7860 N   0  0  0  0  0  0  0  0  0  0  0  0
  -31.6120  -22.6590   21.2640 H   0  0  0  0  0  0  0  0  0  0  0  0
  -30.0410  -23.0740   22.6470 C   0  0  0  0  0  2  0  0  0  0  0  0
  -29.3530  -24.2420   21.9020 C   0  0  0  0  0  2  0  0  0  0  0  0
  -30.2660  -25.4320   21.5360 C   0  0  0  0  0  2  0  0  0  0  0  0
  -29.5150  -26.7730   21.3350 C   0  0  0  0  0  2  0  0  0  0  0  0
  -28.6960  -26.7480   20.1660 O   0  0  0  0  0  0  0  0  0  0  0  0
  -24.7250  -31.8650   23.2170 C   0  0  0  0  0  0  0  0  0  0  0  0
  -27.5470  -27.5100   20.1840 C   0  0  0  0  0  0  0  0  0  0  0  0
  -23.5820  -30.4300   21.5550 C   0  0  0  0  0  3  0  0  0  0  0  0
  -25.1020  -28.9360   20.1520 C   0  0  0  0  0  0  0  0  0  0  0  0
  -26.0950  -30.8650   21.3920 C   0  0  0  0  0  2  0  0  0  0  0  0
  -26.2320  -29.4950   20.7630 C   0  0  0  0  0  0  0  0  0  0  0  0
  -27.4550  -28.7880   20.7880 C   0  0  0  0  0  3  0  0  0  0  0  0
  -26.4070  -26.9720   19.5550 C   0  0  0  0  0  3  0  0  0  0  0  0
  -25.1830  -27.6700   19.5460 C   0  0  0  0  0  3  0  0  0  0  0  0
  -23.8300  -29.7540   20.1800 C   0  0  0  0  0  2  0  0  0  0  0  0
  -24.8170  -31.0700   22.1140 N   0  0  0  0  0  0  0  0  0  0  0  0
  -23.6300  -32.1050   23.7430 O   0  0  0  0  0  0  0  0  0  0  0  0
  -22.9470  -29.3910   22.5080 C   0  0  0  0  0  0  0  0  0  0  0  0
  -21.6240  -29.1930   22.3820 N   0  0  0  0  0  0  0  0  0  0  0  0
  -23.6400  -28.7660   23.3160 O   0  0  0  0  0  0  0  0  0  0  0  0
  -21.1260  -29.7530   21.7030 H   0  0  0  0  0  0  0  0  0  0  0  0
  -18.2610  -27.9760   22.8950 C   0  0  0  0  0  0  0  0  0  0  0  0
  -20.8210  -28.2360   23.1430 C   0  0  0  0  0  3  0  0  0  0  0  0
  -20.9210  -26.8180   22.5340 C   0  0  0  0  0  2  0  0  0  0  0  0
  -19.8090  -26.5130   21.5270 C   0  0  0  0  0  2  0  0  0  0  0  0
  -18.4340  -26.6410   22.1900 C   0  0  0  0  0  2  0  0  0  0  0  0
  -19.3820  -28.7330   23.3270 C   0  0  0  0  0  0  0  0  0  0  0  0
  -19.1660  -29.9850   23.9440 C   0  0  0  0  0  3  0  0  0  0  0  0
  -17.8610  -30.4790   24.1330 C   0  0  0  0  0  3  0  0  0  0  0  0
  -16.7550  -29.7170   23.7180 C   0  0  0  0  0  3  0  0  0  0  0  0
  -16.9560  -28.4690   23.1040 C   0  0  0  0  0  3  0  0  0  0  0  0
  -25.9860  -32.5300   23.8540 C   0  0  0  0  0  3  0  0  0  0  0  0
  -25.6380  -33.9200   24.1770 N   0  0  0  0  0  0  0  0  0  0  0  0
  -25.9550  -34.9780   23.4180 C   0  0  0  0  0  0  0  0  0  0  0  0
  -26.6430  -34.8890   22.3970 O   0  0  0  0  0  0  0  0  0  0  0  0
  -25.0290  -34.0610   24.9690 H   0  0  0  0  0  0  0  0  0  0  0  0
  -24.1910  -36.7250   23.0230 C   0  0  0  0  0  1  0  0  0  0  0  0
  -25.4250  -36.3550   23.8620 C   0  0  0  0  0  3  0  0  0  0  0  0
  -27.5170  -37.2940   24.7350 C   0  0  0  0  0  1  0  0  0  0  0  0
  -26.4320  -37.4330   23.7690 N   0  0  0  0  0  0  0  0  0  0  0  0
  -25.9990  -38.3430   23.9070 H   0  0  0  0  0  0  0  0  0  0  0  0
  -26.5070  -31.7730   25.1370 C   0  0  1  0  0  0  0  0  0  0  0  0
  -25.4070  -31.5030   26.1900 C   0  0  0  0  0  1  0  0  0  0  0  0
  -27.1340  -30.4140   24.7500 C   0  0  0  0  0  1  0  0  0  0  0  0
  -27.6240  -32.5990   25.8170 C   0  0  0  0  0  1  0  0  0  0  0  0
  -31.0660  -16.4170   22.0140 C   0  0  0  0  0  2  0  0  0  0  0  0
  -30.8550  -14.7410   20.2110 C   0  0  0  0  0  0  0  0  0  0  0  0
  -30.4760  -12.6430   18.9430 C   0  0  0  0  0  2  0  0  0  0  0  0
  -29.4790  -12.8580   17.7870 C   0  0  0  0  0  2  0  0  0  0  0  0
  -28.0320  -12.6610   18.2770 C   0  0  0  0  0  2  0  0  0  0  0  0
  -27.7300  -13.4510   19.5740 C   0  0  0  0  0  3  0  0  0  0  0  0
  -28.8430  -13.2440   20.6330 C   0  0  0  0  0  2  0  0  0  0  0  0
  -30.1330  -13.5960   20.0170 N   0  0  0  0  0  0  0  0  0  0  0  0
  -31.9850  -14.8740   19.7340 O   0  0  0  0  0  0  0  0  0  0  0  0
  -30.2890  -15.7560   20.9280 N   0  0  0  0  0  0  0  0  0  0  0  0
  -25.3610  -14.0220   20.4040 C   0  0  0  0  0  0  0  0  0  0  0  0
  -24.3200  -13.2280   20.8000 C   0  0  0  0  0  0  0  0  0  0  0  0
  -24.8020  -11.8860   20.7290 C   0  0  0  0  0  0  0  0  0  0  0  0
  -26.4070  -13.1590   20.1110 N   0  0  0  0  0  0  0  0  0  0  0  0
  -26.0770  -11.8690   20.3680 N   0  0  0  0  0  0  0  0  0  0  0  0
  -24.1060  -10.6100   20.9260 C   0  0  0  0  0  0  0  0  0  0  0  0
  -24.5340   -9.6790   21.8980 C   0  0  0  0  0  3  0  0  0  0  0  0
  -23.8380   -8.4650   22.0790 C   0  0  0  0  0  3  0  0  0  0  0  0
  -22.6990   -8.1760   21.2900 C   0  0  0  0  0  0  0  0  0  0  0  0
  -22.2920   -9.0960   20.3070 C   0  0  0  0  0  3  0  0  0  0  0  0
  -22.9910  -10.3000   20.1220 C   0  0  0  0  0  3  0  0  0  0  0  0
  -21.9770   -7.0110   21.3800 O   0  0  0  0  0  0  0  0  0  0  0  0
  -21.8360   -6.3420   22.5680 C   0  0  0  0  0  0  0  0  0  0  0  0
  -21.2580   -6.9510   23.7030 C   0  0  0  0  0  3  0  0  0  0  0  0
  -21.0660   -6.2030   24.8820 C   0  0  0  0  0  3  0  0  0  0  0  0
  -21.4450   -4.8480   24.9260 C   0  0  0  0  0  0  0  0  0  0  0  0
  -22.0190   -4.2390   23.7960 C   0  0  0  0  0  3  0  0  0  0  0  0
  -22.2090   -4.9840   22.6190 C   0  0  0  0  0  0  0  0  0  0  0  0
  -22.7400   -4.3860   21.5250 F   0  0  0  0  0  0  0  0  0  0  0  0
  -21.2560   -4.1260   26.0560 F   0  0  0  0  0  0  0  0  0  0  0  0
  -22.9270  -13.6790   21.1300 C   0  0  0  0  0  0  0  0  0  0  0  0
  -22.2430  -12.9580   22.0120 N   0  0  0  0  0  0  0  0  0  0  0  0
  -22.4530  -14.7040   20.6410 O   0  0  0  0  0  0  0  0  0  0  0  0
  -22.6420  -12.1340   22.4350 H   0  0  0  0  0  0  0  0  0  0  0  0
  -21.3090  -13.2390   22.2710 H   0  0  0  0  0  0  0  0  0  0  0  0
  -25.4840  -15.3980   20.2510 N   0  0  0  0  0  0  0  0  0  0  0  0
  -24.6980  -16.0210   20.3960 H   0  0  0  0  0  0  0  0  0  0  0  0
  -26.3030  -15.8710   19.8920 H   0  0  0  0  0  0  0  0  0  0  0  0
  -29.0820  -16.4740   20.4480 C   0  0  0  0  0  2  0  0  0  0  0  0
  -30.2670  -17.8210   18.5940 C   0  0  0  0  0  1  0  0  0  0  0  0
  -27.7730  -17.5950   18.5770 C   0  0  0  0  0  1  0  0  0  0  0  0
  -29.0900  -16.9000   18.9520 C   0  0  0  0  0  3  0  0  0  0  0  0
  2  1  1  0
  3  1  2  0
  4  2  2  0
  5  3  1  0
  6  5  2  0
  6  4  1  0
  7  5  1  0
  8  6  1  0
  9  4  1  0
  9 11  1  0
 10  9  1  0
 12 11  1  0
 13 12  1  0
 14 13  1  0
 15 17  1  0
 15 14  1  0
 16 27  2  0
 17 22  1  0
 18 26  1  0
 18 28  1  0
 19 25  1  0
 19 21  1  0
 20 26  1  0
 21 22  2  0
 21 20  1  0
 23 17  2  0
 24 23  1  0
 24 19  2  0
 25 18  1  0
 26 16  1  0
 28 30  2  0
 29 28  1  0
 31 29  1  0
 32 41  2  0
 32 37  1  0
 33 29  1  0
 33 37  1  0
 34 33  1  0
 35 36  1  0
 35 34  1  0
 36 32  1  0
 37 38  2  0
 38 39  1  0
 40 39  2  0
 41 40  1  0
 42 16  1  0
 42 43  1  0
 42 52  1  0
 43 46  1  0
 44 48  1  0
 44 43  1  0
 45 44  2  0
 48 47  1  0
 50 48  1  0
 50 51  1  0
 50 49  1  0
 52 55  1  1
 52 53  1  0
 54 52  1  0
 56  3  1  0
 57 65  1  0
 58 63  1  0
 59 60  1  0
 59 58  1  0
 61 60  1  0
 61 69  1  0
 61 62  1  0
 63 57  1  0
 63 62  1  0
 64 57  2  0
 65 56  1  0
 66 67  2  0
 67 86  1  0
 68 67  1  0
 68 71  1  0
 69 70  1  0
 69 66  1  0
 70 68  2  0
 71 72  1  0
 72 73  2  0
 74 77  1  0
 74 73  1  0
 75 74  2  0
 76 75  1  0
 76 71  2  0
 77 78  1  0
 78 83  2  0
 78 79  1  0
 79 80  2  0
 80 81  1  0
 81 85  1  0
 82 81  2  0
 83 82  1  0
 84 83  1  0
 86 87  1  0
 87 90  1  0
 87 89  1  0
 88 86  2  0
 91 92  1  0
 91 66  1  0
 93 91  1  0
 94 65  1  0
 95 97  1  0
 96 97  1  0
 97 94  1  0
M  ISO  4  14 101  15 101  57 100  65 100
M  END
>  <TORSDO>  (49) 
F 24

>  <SCORE>  (49) 
-11.611

>  <name>  (49) 
49

>  <ligand_id>  (49) 
49

>  <original_smiles>  (49) 
[H]c1c([H])c([H])c2c(c1[H])C([H])([H])C([H])([H])C([H])([H])C2([H])N([H])C(=O)C1([H])N(C(=O)C([H])(N([H])C(=O)C([H])(N([H])C([H])([H])[H])C([H])([H])[H])C(C([H])([H])[H])(C([H])([H])[H])C([H])([H])[H])C([H])([H])c2c([H])c(OC([H])([H])C([H])([H])C([H])([H])C([H])([H])N([H])c3c([H])c([H])c(C([H])([H])N(C(=O)N4C([H])([H])C([H])([H])C([H])([H])C([H])(n5nc(-c6c([H])c([H])c(Oc7c([H])c([H])c(F)c([H])c7F)c([H])c6[H])c(C(=O)N([H])[H])c5N([H])[H])C4([H])[H])C([H])([H])C([H])(C([H])([H])[H])C([H])([H])[H])c(F)c3F)c([H])c([H])c2C1([H])[H]

>  <smiles>  (49) 
[H]c1c([H])c([H])c2c(c1[H])C([H])([H])C([H])([H])C([H])([H])C2([H])N([H])C(=O)C1([H])N(C(=O)C([H])(N([H])C(=O)C([H])(N([H])C([H])([H])[H])C([H])([H])[H])C(C([H])([H])[H])(C([H])([H])[H])C([H])([H])[H])C([H])([H])c2c([H])c(OC([H])([H])C([H])([H])C([H])([H])C([H])([H])N([H])c3c([H])c([H])c(C([H])([H])N(C(=O)N4C([H])([H])C([H])([H])C([H])([H])C([H])(n5nc(-c6c([H])c([H])c(Oc7c([H])c([H])c(F)c([H])c7F)c([H])c6[H])c(C(=O)N([H])[H])c5N([H])[H])C4([H])[H])C([H])([H])C([H])(C([H])([H])[H])C([H])([H])[H])c(F)c3F)c([H])c([H])c2C1([H])[H]

$$$$
50:0:0
     RDKit          3D

 92100  0  0  1  0  0  0  0  0999 V2000
  -29.1100  -20.6760   21.5310 N   0  0  0  0  0  0  0  0  0  0  0  0
  -29.3500  -21.0430   22.4480 H   0  0  0  0  0  0  0  0  0  0  0  0
  -30.2580  -18.7000   22.2570 C   0  0  0  0  0  3  0  0  0  0  0  0
  -30.6270  -17.3480   22.1240 C   0  0  0  0  0  3  0  0  0  0  0  0
  -29.0470  -18.5840   20.1630 C   0  0  0  0  0  3  0  0  0  0  0  0
  -29.4660  -19.3360   21.2850 C   0  0  0  0  0  0  0  0  0  0  0  0
  -30.2030  -16.5680   21.0180 C   0  0  0  0  0  0  0  0  0  0  0  0
  -29.3970  -17.2140   20.0360 C   0  0  0  0  0  0  0  0  0  0  0  0
  -28.9080  -16.5210   18.9780 F   0  0  0  0  0  0  0  0  0  0  0  0
  -30.7770  -14.5000   19.7960 C   0  0  0  0  0  0  0  0  0  0  0  0
  -30.2450  -12.4890   18.4480 C   0  0  0  0  0  2  0  0  0  0  0  0
  -29.1600  -12.7700   17.3920 C   0  0  0  0  0  2  0  0  0  0  0  0
  -27.7560  -12.5830   17.9940 C   0  0  0  0  0  2  0  0  0  0  0  0
  -27.5830  -13.3420   19.3340 C   0  0  0  0  0  3  0  0  0  0  0  0
  -28.7600  -13.0590   20.2900 C   0  0  0  0  0  2  0  0  0  0  0  0
  -30.0210  -13.3820   19.5950 N   0  0  0  0  0  0  0  0  0  0  0  0
  -31.6850  -14.8420   19.0300 O   0  0  0  0  0  0  0  0  0  0  0  0
  -31.0620  -14.4990   22.1700 C   0  0  0  0  0  1  0  0  0  0  0  0
  -30.5570  -15.1640   20.9570 N   0  0  0  0  0  0  0  0  0  0  0  0
  -25.2990  -13.9060   20.3750 C   0  0  0  0  0  0  0  0  0  0  0  0
  -24.2790  -13.1130   20.8310 C   0  0  0  0  0  0  0  0  0  0  0  0
  -24.7220  -11.7660   20.6600 C   0  0  0  0  0  0  0  0  0  0  0  0
  -26.2970  -13.0390   19.9610 N   0  0  0  0  0  0  0  0  0  0  0  0
  -25.9610  -11.7440   20.1880 N   0  0  0  0  0  0  0  0  0  0  0  0
  -24.0160  -10.4930   20.8660 C   0  0  0  0  0  0  0  0  0  0  0  0
  -24.5030   -9.5140   21.7600 C   0  0  0  0  0  3  0  0  0  0  0  0
  -23.7970   -8.3080   21.9510 C   0  0  0  0  0  3  0  0  0  0  0  0
  -22.5910   -8.0710   21.2510 C   0  0  0  0  0  0  0  0  0  0  0  0
  -22.1240   -9.0380   20.3440 C   0  0  0  0  0  3  0  0  0  0  0  0
  -22.8300  -10.2380   20.1500 C   0  0  0  0  0  3  0  0  0  0  0  0
  -21.8510   -6.9180   21.3540 O   0  0  0  0  0  0  0  0  0  0  0  0
  -21.7900   -6.2040   22.5240 C   0  0  0  0  0  0  0  0  0  0  0  0
  -21.3350   -6.7840   23.7290 C   0  0  0  0  0  3  0  0  0  0  0  0
  -21.2230   -5.9960   24.8920 C   0  0  0  0  0  3  0  0  0  0  0  0
  -21.5570   -4.6300   24.8520 C   0  0  0  0  0  0  0  0  0  0  0  0
  -22.0050   -4.0480   23.6530 C   0  0  0  0  0  3  0  0  0  0  0  0
  -22.1180   -4.8340   22.4910 C   0  0  0  0  0  0  0  0  0  0  0  0
  -22.5300   -4.2640   21.3330 F   0  0  0  0  0  0  0  0  0  0  0  0
  -21.4430   -3.8700   25.9670 F   0  0  0  0  0  0  0  0  0  0  0  0
  -22.9320  -13.5720   21.3080 C   0  0  0  0  0  0  0  0  0  0  0  0
  -22.3260  -12.8400   22.2340 N   0  0  0  0  0  0  0  0  0  0  0  0
  -22.4270  -14.6150   20.8910 O   0  0  0  0  0  0  0  0  0  0  0  0
  -22.7510  -11.9970   22.5930 H   0  0  0  0  0  0  0  0  0  0  0  0
  -21.4260  -13.1250   22.5930 H   0  0  0  0  0  0  0  0  0  0  0  0
  -25.4540  -15.2840   20.2610 N   0  0  0  0  0  0  0  0  0  0  0  0
  -24.7180  -15.9400   20.5020 H   0  0  0  0  0  0  0  0  0  0  0  0
  -26.2690  -15.7320   19.8620 H   0  0  0  0  0  0  0  0  0  0  0  0
  -28.8710  -21.6800   20.4930 C   0  0  0  0  0  2  0  0  0  0  0  0
  -28.8390  -23.0890   21.1400 C   0  0  0  0  0  2  0  0  0  0  0  0
  -28.7150  -24.3070   20.1910 C   0  0  0  0  0  2  0  0  0  0  0  0
  -28.6350  -25.6400   20.9810 C   0  0  0  0  0  2  0  0  0  0  0  0
  -28.6620  -26.8190   20.1610 O   0  0  0  0  0  0  0  0  0  0  0  0
  -24.7870  -31.9540   23.2440 C   0  0  0  0  0  0  0  0  0  0  0  0
  -27.4970  -27.5510   20.1710 C   0  0  0  0  0  0  0  0  0  0  0  0
  -23.6040  -30.5390   21.5940 C   0  0  0  0  0  3  0  0  0  0  0  0
  -25.0840  -29.0180   20.1770 C   0  0  0  0  0  0  0  0  0  0  0  0
  -26.1260  -30.9310   21.4080 C   0  0  0  0  0  2  0  0  0  0  0  0
  -26.2330  -29.5620   20.7670 C   0  0  0  0  0  0  0  0  0  0  0  0
  -27.4470  -28.8360   20.7580 C   0  0  0  0  0  3  0  0  0  0  0  0
  -26.3340  -27.0160   19.5820 C   0  0  0  0  0  3  0  0  0  0  0  0
  -25.1290  -27.7440   19.5810 C   0  0  0  0  0  3  0  0  0  0  0  0
  -23.8270  -29.8600   20.2170 C   0  0  0  0  0  2  0  0  0  0  0  0
  -24.8570  -31.1560   22.1410 N   0  0  0  0  0  0  0  0  0  0  0  0
  -23.7000  -32.2130   23.7790 O   0  0  0  0  0  0  0  0  0  0  0  0
  -22.9600  -29.5110   22.5510 C   0  0  0  0  0  0  0  0  0  0  0  0
  -21.6450  -29.2900   22.3950 N   0  0  0  0  0  0  0  0  0  0  0  0
  -23.6420  -28.9140   23.3890 O   0  0  0  0  0  0  0  0  0  0  0  0
  -21.1560  -29.8280   21.6930 H   0  0  0  0  0  0  0  0  0  0  0  0
  -18.3010  -27.9840   22.8010 C   0  0  0  0  0  0  0  0  0  0  0  0
  -20.8370  -28.3360   23.1540 C   0  0  0  0  0  3  0  0  0  0  0  0
  -21.0090  -26.9000   22.6070 C   0  0  0  0  0  2  0  0  0  0  0  0
  -19.9540  -26.5210   21.5630 C   0  0  0  0  0  2  0  0  0  0  0  0
  -18.5460  -26.6300   22.1560 C   0  0  0  0  0  2  0  0  0  0  0  0
  -19.3770  -28.7920   23.2550 C   0  0  0  0  0  0  0  0  0  0  0  0
  -19.0940  -30.0590   23.8120 C   0  0  0  0  0  3  0  0  0  0  0  0
  -17.7690  -30.5160   23.9240 C   0  0  0  0  0  3  0  0  0  0  0  0
  -16.7070  -29.7050   23.4900 C   0  0  0  0  0  3  0  0  0  0  0  0
  -16.9740  -28.4400   22.9350 C   0  0  0  0  0  3  0  0  0  0  0  0
  -26.0630  -32.5980   23.8710 C   0  0  0  0  0  3  0  0  0  0  0  0
  -25.7370  -33.9910   24.2060 N   0  0  0  0  0  0  0  0  0  0  0  0
  -26.0650  -35.0510   23.4540 C   0  0  0  0  0  0  0  0  0  0  0  0
  -26.7460  -34.9590   22.4290 O   0  0  0  0  0  0  0  0  0  0  0  0
  -25.1330  -34.1360   25.0020 H   0  0  0  0  0  0  0  0  0  0  0  0
  -24.3230  -36.8260   23.0860 C   0  0  0  0  0  1  0  0  0  0  0  0
  -25.5580  -36.4310   23.9120 C   0  0  0  0  0  3  0  0  0  0  0  0
  -27.6750  -37.3260   24.7750 C   0  0  0  0  0  1  0  0  0  0  0  0
  -26.5800  -37.4960   23.8230 N   0  0  0  0  0  0  0  0  0  0  0  0
  -26.1640  -38.4090   23.9800 H   0  0  0  0  0  0  0  0  0  0  0  0
  -26.5890  -31.8270   25.1440 C   0  0  1  0  0  0  0  0  0  0  0  0
  -25.4910  -31.5360   26.1930 C   0  0  0  0  0  1  0  0  0  0  0  0
  -27.2230  -30.4760   24.7390 C   0  0  0  0  0  1  0  0  0  0  0  0
  -27.7030  -32.6490   25.8330 C   0  0  0  0  0  1  0  0  0  0  0  0
  1  2  1  0
  4  3  1  0
  5  6  1  0
  6  1  1  0
  6  3  2  0
  7  4  2  0
  8  5  2  0
  8  7  1  0
  9  8  1  0
 10 19  1  0
 11 16  1  0
 12 13  1  0
 12 11  1  0
 14 13  1  0
 14 23  1  0
 14 15  1  0
 16 10  1  0
 16 15  1  0
 17 10  2  0
 19  7  1  0
 19 18  1  0
 20 21  2  0
 21 40  1  0
 22 21  1  0
 22 25  1  0
 23 24  1  0
 23 20  1  0
 24 22  2  0
 25 26  1  0
 26 27  2  0
 28 31  1  0
 28 27  1  0
 29 28  2  0
 30 29  1  0
 30 25  2  0
 31 32  1  0
 32 33  1  0
 33 34  2  0
 35 34  1  0
 35 39  1  0
 36 35  2  0
 37 32  2  0
 37 36  1  0
 38 37  1  0
 40 41  1  0
 41 44  1  0
 41 43  1  0
 42 40  2  0
 45 20  1  0
 45 46  1  0
 47 45  1  0
 48 49  1  0
 48  1  1  0
 50 51  1  0
 50 49  1  0
 52 54  1  0
 52 51  1  0
 53 64  2  0
 54 59  1  0
 55 63  1  0
 55 65  1  0
 56 62  1  0
 56 58  1  0
 57 63  1  0
 58 57  1  0
 59 58  2  0
 60 54  2  0
 61 60  1  0
 61 56  2  0
 62 55  1  0
 63 53  1  0
 65 67  2  0
 66 65  1  0
 68 66  1  0
 69 78  2  0
 69 74  1  0
 70 66  1  0
 70 74  1  0
 71 70  1  0
 72 73  1  0
 72 71  1  0
 73 69  1  0
 74 75  2  0
 75 76  1  0
 77 76  2  0
 78 77  1  0
 79 53  1  0
 79 80  1  0
 79 89  1  0
 80 83  1  0
 81 85  1  0
 81 80  1  0
 82 81  2  0
 85 84  1  0
 87 85  1  0
 87 88  1  0
 87 86  1  0
 89 92  1  1
 89 90  1  0
 91 89  1  0
M  ISO  4  10 100  19 100  51 101  52 101
M  END
>  <TORSDO>  (50) 
F 21

>  <SCORE>  (50) 
-11.551

>  <name>  (50) 
50

>  <ligand_id>  (50) 
50

>  <original_smiles>  (50) 
[H]c1c([H])c([H])c2c(c1[H])C([H])([H])C([H])([H])C([H])([H])C2([H])N([H])C(=O)C1([H])N(C(=O)C([H])(N([H])C(=O)C([H])(N([H])C([H])([H])[H])C([H])([H])[H])C(C([H])([H])[H])(C([H])([H])[H])C([H])([H])[H])C([H])([H])c2c([H])c(OC([H])([H])C([H])([H])C([H])([H])C([H])([H])N([H])c3c([H])c([H])c(N(C(=O)N4C([H])([H])C([H])([H])C([H])([H])C([H])(n5nc(-c6c([H])c([H])c(Oc7c([H])c([H])c(F)c([H])c7F)c([H])c6[H])c(C(=O)N([H])[H])c5N([H])[H])C4([H])[H])C([H])([H])[H])c(F)c3[H])c([H])c([H])c2C1([H])[H]

>  <smiles>  (50) 
[H]c1c([H])c([H])c2c(c1[H])C([H])([H])C([H])([H])C([H])([H])C2([H])N([H])C(=O)C1([H])N(C(=O)C([H])(N([H])C(=O)C([H])(N([H])C([H])([H])[H])C([H])([H])[H])C(C([H])([H])[H])(C([H])([H])[H])C([H])([H])[H])C([H])([H])c2c([H])c(OC([H])([H])C([H])([H])C([H])([H])C([H])([H])N([H])c3c([H])c([H])c(N(C(=O)N4C([H])([H])C([H])([H])C([H])([H])C([H])(n5nc(-c6c([H])c([H])c(Oc7c([H])c([H])c(F)c([H])c7F)c([H])c6[H])c(C(=O)N([H])[H])c5N([H])[H])C4([H])[H])C([H])([H])[H])c(F)c3[H])c([H])c([H])c2C1([H])[H]

$$$$
51:0:0
     RDKit          3D

 93102  0  0  1  0  0  0  0  0999 V2000
  -29.4200  -24.2270   21.8560 C   0  0  0  0  0  2  0  0  0  0  0  0
  -30.0420  -22.8430   22.0910 C   0  0  0  0  0  2  0  0  0  0  0  0
  -29.3660  -22.9970   19.7980 C   0  0  0  0  0  2  0  0  0  0  0  0
  -29.4610  -24.4450   20.3390 C   0  0  0  0  0  3  0  0  0  0  0  0
  -29.9500  -22.1250   20.8220 N   0  0  0  0  0  0  0  0  0  0  0  0
  -29.4620  -18.6350   19.4640 C   0  0  0  0  0  3  0  0  0  0  0  0
  -29.5430  -20.0470   19.5400 C   0  0  0  0  0  3  0  0  0  0  0  0
  -30.1850  -19.8800   21.8640 C   0  0  0  0  0  3  0  0  0  0  0  0
  -29.7090  -17.8270   20.5970 C   0  0  0  0  0  0  0  0  0  0  0  0
  -29.8930  -20.7040   20.7460 C   0  0  0  0  0  0  0  0  0  0  0  0
  -30.0730  -18.4740   21.8010 C   0  0  0  0  0  0  0  0  0  0  0  0
  -30.2910  -17.7480   22.9220 F   0  0  0  0  0  0  0  0  0  0  0  0
  -29.4750  -16.3020   20.5460 C   0  0  0  0  0  2  0  0  0  0  0  0
  -30.9510  -14.4840   19.7000 C   0  0  0  0  0  0  0  0  0  0  0  0
  -30.5060  -12.2780   18.6690 C   0  0  0  0  0  2  0  0  0  0  0  0
  -29.4580  -12.3850   17.5450 C   0  0  0  0  0  2  0  0  0  0  0  0
  -28.0370  -12.2520   18.1210 C   0  0  0  0  0  2  0  0  0  0  0  0
  -27.8040  -13.1810   19.3400 C   0  0  0  0  0  3  0  0  0  0  0  0
  -28.9570  -13.0590   20.3640 C   0  0  0  0  0  2  0  0  0  0  0  0
  -30.2250  -13.3280   19.6660 N   0  0  0  0  0  0  0  0  0  0  0  0
  -31.9560  -14.6420   18.9990 O   0  0  0  0  0  0  0  0  0  0  0  0
  -31.7430  -15.8960   21.4940 C   0  0  0  0  0  1  0  0  0  0  0  0
  -30.6470  -15.3980   20.6570 N   0  0  0  0  0  0  0  0  0  0  0  0
  -25.5360  -13.8490   20.3530 C   0  0  0  0  0  0  0  0  0  0  0  0
  -24.4800  -13.1020   20.8000 C   0  0  0  0  0  0  0  0  0  0  0  0
  -24.8680  -11.7360   20.6440 C   0  0  0  0  0  0  0  0  0  0  0  0
  -26.5040  -12.9380   19.9570 N   0  0  0  0  0  0  0  0  0  0  0  0
  -26.1130  -11.6600   20.1900 N   0  0  0  0  0  0  0  0  0  0  0  0
  -24.1080  -10.4970   20.8480 C   0  0  0  0  0  0  0  0  0  0  0  0
  -24.5250   -9.5190   21.7770 C   0  0  0  0  0  3  0  0  0  0  0  0
  -23.7670   -8.3430   21.9680 C   0  0  0  0  0  3  0  0  0  0  0  0
  -22.5790   -8.1380   21.2290 C   0  0  0  0  0  0  0  0  0  0  0  0
  -22.1800   -9.1040   20.2880 C   0  0  0  0  0  3  0  0  0  0  0  0
  -22.9370  -10.2720   20.0960 C   0  0  0  0  0  3  0  0  0  0  0  0
  -21.7910   -7.0160   21.3290 O   0  0  0  0  0  0  0  0  0  0  0  0
  -21.6400   -6.3480   22.5180 C   0  0  0  0  0  0  0  0  0  0  0  0
  -21.1380   -6.9860   23.6730 C   0  0  0  0  0  3  0  0  0  0  0  0
  -20.9330   -6.2450   24.8530 C   0  0  0  0  0  3  0  0  0  0  0  0
  -21.2200   -4.8670   24.8790 C   0  0  0  0  0  0  0  0  0  0  0  0
  -21.7150   -4.2280   23.7280 C   0  0  0  0  0  3  0  0  0  0  0  0
  -21.9210   -4.9670   22.5500 C   0  0  0  0  0  0  0  0  0  0  0  0
  -22.3780   -4.3420   21.4380 F   0  0  0  0  0  0  0  0  0  0  0  0
  -21.0150   -4.1530   26.0110 F   0  0  0  0  0  0  0  0  0  0  0  0
  -23.1470  -13.6210   21.2550 C   0  0  0  0  0  0  0  0  0  0  0  0
  -22.5010  -12.9220   22.1820 N   0  0  0  0  0  0  0  0  0  0  0  0
  -22.6920  -14.6800   20.8240 O   0  0  0  0  0  0  0  0  0  0  0  0
  -22.8840  -12.0640   22.5490 H   0  0  0  0  0  0  0  0  0  0  0  0
  -21.6120  -13.2520   22.5300 H   0  0  0  0  0  0  0  0  0  0  0  0
  -25.7450  -15.2190   20.2300 N   0  0  0  0  0  0  0  0  0  0  0  0
  -25.0210  -15.8940   20.4520 H   0  0  0  0  0  0  0  0  0  0  0  0
  -26.5630  -15.6420   19.8100 H   0  0  0  0  0  0  0  0  0  0  0  0
  -28.3430  -25.3860   19.8120 C   0  0  0  0  0  2  0  0  0  0  0  0
  -28.4470  -26.7680   20.2310 O   0  0  0  0  0  0  0  0  0  0  0  0
  -24.6960  -31.9420   23.4040 C   0  0  0  0  0  0  0  0  0  0  0  0
  -27.2870  -27.5310   20.2080 C   0  0  0  0  0  0  0  0  0  0  0  0
  -23.4690  -30.5800   21.7460 C   0  0  0  0  0  3  0  0  0  0  0  0
  -24.9020  -29.0730   20.2690 C   0  0  0  0  0  0  0  0  0  0  0  0
  -25.9980  -30.9250   21.5350 C   0  0  0  0  0  2  0  0  0  0  0  0
  -26.0700  -29.5670   20.8620 C   0  0  0  0  0  0  0  0  0  0  0  0
  -27.2630  -28.8040   20.8310 C   0  0  0  0  0  3  0  0  0  0  0  0
  -26.0970  -27.0720   19.5900 C   0  0  0  0  0  3  0  0  0  0  0  0
  -24.9120  -27.8250   19.6300 C   0  0  0  0  0  3  0  0  0  0  0  0
  -23.6620  -29.9350   20.3490 C   0  0  0  0  0  2  0  0  0  0  0  0
  -24.7390  -31.1630   22.2860 N   0  0  0  0  0  0  0  0  0  0  0  0
  -23.6210  -32.2080   23.9590 O   0  0  0  0  0  0  0  0  0  0  0  0
  -22.8240  -29.5390   22.6900 C   0  0  0  0  0  0  0  0  0  0  0  0
  -21.5100  -29.3150   22.5270 N   0  0  0  0  0  0  0  0  0  0  0  0
  -23.5040  -28.9370   23.5250 O   0  0  0  0  0  0  0  0  0  0  0  0
  -21.0210  -29.8560   21.8280 H   0  0  0  0  0  0  0  0  0  0  0  0
  -18.1790  -27.9570   22.8750 C   0  0  0  0  0  0  0  0  0  0  0  0
  -20.7010  -28.3530   23.2770 C   0  0  0  0  0  3  0  0  0  0  0  0
  -20.9070  -26.9160   22.7440 C   0  0  0  0  0  2  0  0  0  0  0  0
  -19.8800  -26.5140   21.6810 C   0  0  0  0  0  2  0  0  0  0  0  0
  -18.4600  -26.6020   22.2460 C   0  0  0  0  0  2  0  0  0  0  0  0
  -19.2320  -28.7850   23.3440 C   0  0  0  0  0  0  0  0  0  0  0  0
  -18.9190  -30.0500   23.8880 C   0  0  0  0  0  3  0  0  0  0  0  0
  -17.5840  -30.4860   23.9720 C   0  0  0  0  0  3  0  0  0  0  0  0
  -16.5440  -29.6560   23.5210 C   0  0  0  0  0  3  0  0  0  0  0  0
  -16.8410  -28.3940   22.9780 C   0  0  0  0  0  3  0  0  0  0  0  0
  -25.9890  -32.5570   24.0220 C   0  0  0  0  0  3  0  0  0  0  0  0
  -26.4840  -31.7960   25.3130 C   0  0  1  0  0  0  0  0  0  0  0  0
  -25.3780  -31.5900   26.3740 C   0  0  0  0  0  1  0  0  0  0  0  0
  -27.0510  -30.4050   24.9450 C   0  0  0  0  0  1  0  0  0  0  0  0
  -27.6390  -32.5840   25.9750 C   0  0  0  0  0  1  0  0  0  0  0  0
  -25.7080  -33.9670   24.3250 N   0  0  0  0  0  0  0  0  0  0  0  0
  -26.0420  -34.9960   23.5370 C   0  0  0  0  0  0  0  0  0  0  0  0
  -26.6940  -34.8590   22.4970 O   0  0  0  0  0  0  0  0  0  0  0  0
  -25.1280  -34.1470   25.1320 H   0  0  0  0  0  0  0  0  0  0  0  0
  -24.3280  -36.8020   23.1750 C   0  0  0  0  0  1  0  0  0  0  0  0
  -25.5810  -36.4020   23.9700 C   0  0  0  0  0  3  0  0  0  0  0  0
  -27.7430  -37.2810   24.7360 C   0  0  0  0  0  1  0  0  0  0  0  0
  -26.6250  -37.4380   23.8100 N   0  0  0  0  0  0  0  0  0  0  0  0
  -26.2320  -38.3660   23.9420 H   0  0  0  0  0  0  0  0  0  0  0  0
  1  2  1  0
  3  4  1  0
  3  5  1  0
  4 52  1  0
  4  1  1  0
  5  2  1  0
  6  7  2  0
  6  9  1  0
  7 10  1  0
  9 11  2  0
 10  5  1  0
 10  8  2  0
 11  8  1  0
 11 12  1  0
 13  9  1  0
 13 23  1  0
 14 23  1  0
 15 20  1  0
 16 17  1  0
 16 15  1  0
 18 17  1  0
 18 27  1  0
 18 19  1  0
 20 14  1  0
 20 19  1  0
 21 14  2  0
 23 22  1  0
 24 25  2  0
 25 44  1  0
 26 25  1  0
 26 29  1  0
 27 28  1  0
 27 24  1  0
 28 26  2  0
 29 30  1  0
 30 31  2  0
 32 35  1  0
 32 31  1  0
 33 32  2  0
 34 33  1  0
 34 29  2  0
 35 36  1  0
 36 41  2  0
 36 37  1  0
 37 38  2  0
 38 39  1  0
 39 43  1  0
 40 39  2  0
 41 40  1  0
 42 41  1  0
 44 45  1  0
 45 48  1  0
 45 47  1  0
 46 44  2  0
 49 24  1  0
 49 50  1  0
 51 49  1  0
 52 53  1  0
 54 65  2  0
 55 53  1  0
 55 60  1  0
 56 64  1  0
 56 66  1  0
 57 63  1  0
 57 59  1  0
 58 64  1  0
 59 58  1  0
 60 59  2  0
 61 62  1  0
 61 55  2  0
 62 57  2  0
 63 56  1  0
 64 54  1  0
 66 68  2  0
 67 66  1  0
 69 67  1  0
 70 79  2  0
 70 75  1  0
 71 67  1  0
 71 75  1  0
 72 71  1  0
 73 74  1  0
 73 72  1  0
 74 70  1  0
 75 76  2  0
 76 77  1  0
 78 77  2  0
 79 78  1  0
 80 54  1  0
 80 85  1  0
 80 81  1  0
 81 84  1  1
 81 82  1  0
 83 81  1  0
 85 88  1  0
 86 90  1  0
 86 85  1  0
 87 86  2  0
 90 89  1  0
 92 93  1  0
 92 90  1  0
 92 91  1  0
M  ISO  4  14 100  23 100  52 101  53 101
M  END
>  <TORSDO>  (51) 
F 19

>  <SCORE>  (51) 
-13.057

>  <name>  (51) 
51

>  <ligand_id>  (51) 
51

>  <original_smiles>  (51) 
[H]c1c([H])c([H])c2c(c1[H])C([H])([H])C([H])([H])C([H])([H])C2([H])N([H])C(=O)C1([H])N(C(=O)C([H])(N([H])C(=O)C([H])(N([H])C([H])([H])[H])C([H])([H])[H])C(C([H])([H])[H])(C([H])([H])[H])C([H])([H])[H])C([H])([H])c2c([H])c(OC([H])([H])C3([H])C([H])([H])N(c4c([H])c([H])c(C([H])([H])N(C(=O)N5C([H])([H])C([H])([H])C([H])([H])C([H])(n6nc(-c7c([H])c([H])c(Oc8c([H])c([H])c(F)c([H])c8F)c([H])c7[H])c(C(=O)N([H])[H])c6N([H])[H])C5([H])[H])C([H])([H])[H])c(F)c4[H])C([H])([H])C3([H])[H])c([H])c([H])c2C1([H])[H]

>  <smiles>  (51) 
[H]c1c([H])c([H])c2c(c1[H])C([H])([H])C([H])([H])C([H])([H])C2([H])N([H])C(=O)C1([H])N(C(=O)C([H])(N([H])C(=O)C([H])(N([H])C([H])([H])[H])C([H])([H])[H])C(C([H])([H])[H])(C([H])([H])[H])C([H])([H])[H])C([H])([H])c2c([H])c(OC([H])([H])C3([H])C([H])([H])N(c4c([H])c([H])c(C([H])([H])N(C(=O)N5C([H])([H])C([H])([H])C([H])([H])C([H])(n6nc(-c7c([H])c([H])c(Oc8c([H])c([H])c(F)c([H])c8F)c([H])c7[H])c(C(=O)N([H])[H])c6N([H])[H])C5([H])[H])C([H])([H])[H])c(F)c4[H])C([H])([H])C3([H])[H])c([H])c([H])c2C1([H])[H]

$$$$
52:0:0
     RDKit          3D

 92100  0  0  1  0  0  0  0  0999 V2000
  -30.0560  -19.6020   20.8910 C   0  0  0  0  0  3  0  0  0  0  0  0
  -30.3900  -18.2300   21.1010 C   0  0  0  0  0  3  0  0  0  0  0  0
  -29.4410  -19.0720   18.6420 C   0  0  0  0  0  3  0  0  0  0  0  0
  -29.5630  -20.0710   19.6510 C   0  0  0  0  0  0  0  0  0  0  0  0
  -30.2490  -17.2130   20.1010 C   0  0  0  0  0  0  0  0  0  0  0  0
  -29.7660  -17.6920   18.8510 C   0  0  0  0  0  0  0  0  0  0  0  0
  -29.5670  -16.8120   17.8390 F   0  0  0  0  0  0  0  0  0  0  0  0
  -30.9100  -14.8310   19.4530 C   0  0  0  0  0  0  0  0  0  0  0  0
  -30.4200  -12.7190   18.1970 C   0  0  0  0  0  2  0  0  0  0  0  0
  -29.2910  -12.9690   17.1730 C   0  0  0  0  0  2  0  0  0  0  0  0
  -27.9100  -12.7670   17.8270 C   0  0  0  0  0  2  0  0  0  0  0  0
  -27.7880  -13.5130   19.1810 C   0  0  0  0  0  3  0  0  0  0  0  0
  -29.0110  -13.2430   20.0790 C   0  0  0  0  0  2  0  0  0  0  0  0
  -30.2150  -13.6460   19.3350 N   0  0  0  0  0  0  0  0  0  0  0  0
  -31.8920  -15.0420   18.7330 O   0  0  0  0  0  0  0  0  0  0  0  0
  -30.5050  -15.7760   20.3870 N   0  0  0  0  0  0  0  0  0  0  0  0
  -25.6160  -14.0690   20.4290 C   0  0  0  0  0  0  0  0  0  0  0  0
  -24.5860  -13.2870   20.8750 C   0  0  0  0  0  0  0  0  0  0  0  0
  -24.9490  -11.9410   20.5580 C   0  0  0  0  0  0  0  0  0  0  0  0
  -26.5380  -13.2010   19.8650 N   0  0  0  0  0  0  0  0  0  0  0  0
  -26.1530  -11.9050   19.9980 N   0  0  0  0  0  0  0  0  0  0  0  0
  -24.1900  -10.6920   20.7050 C   0  0  0  0  0  0  0  0  0  0  0  0
  -24.6600   -9.6350   21.5150 C   0  0  0  0  0  3  0  0  0  0  0  0
  -23.9050   -8.4500   21.6550 C   0  0  0  0  0  3  0  0  0  0  0  0
  -22.6650   -8.3170   20.9840 C   0  0  0  0  0  0  0  0  0  0  0  0
  -22.2130   -9.3620   20.1580 C   0  0  0  0  0  3  0  0  0  0  0  0
  -22.9680  -10.5380   20.0170 C   0  0  0  0  0  3  0  0  0  0  0  0
  -21.8750   -7.1940   21.0410 O   0  0  0  0  0  0  0  0  0  0  0  0
  -21.7750   -6.4390   22.1830 C   0  0  0  0  0  0  0  0  0  0  0  0
  -21.3300   -6.9910   23.4030 C   0  0  0  0  0  3  0  0  0  0  0  0
  -21.1750   -6.1660   24.5350 C   0  0  0  0  0  3  0  0  0  0  0  0
  -21.4540   -4.7890   24.4460 C   0  0  0  0  0  0  0  0  0  0  0  0
  -21.8900   -4.2360   23.2290 C   0  0  0  0  0  3  0  0  0  0  0  0
  -22.0470   -5.0590   22.1000 C   0  0  0  0  0  0  0  0  0  0  0  0
  -22.4490   -4.5170   20.9260 F   0  0  0  0  0  0  0  0  0  0  0  0
  -21.3000   -3.9950   25.5310 F   0  0  0  0  0  0  0  0  0  0  0  0
  -23.3010  -13.7660   21.4820 C   0  0  0  0  0  0  0  0  0  0  0  0
  -22.7370  -12.9920   22.4040 N   0  0  0  0  0  0  0  0  0  0  0  0
  -22.8140  -14.8550   21.1810 O   0  0  0  0  0  0  0  0  0  0  0  0
  -23.1570  -12.1140   22.6720 H   0  0  0  0  0  0  0  0  0  0  0  0
  -21.8870  -13.2900   22.8600 H   0  0  0  0  0  0  0  0  0  0  0  0
  -25.8360  -15.4420   20.4450 N   0  0  0  0  0  0  0  0  0  0  0  0
  -25.1790  -16.0860   20.8700 H   0  0  0  0  0  0  0  0  0  0  0  0
  -26.6920  -15.8890   20.1410 H   0  0  0  0  0  0  0  0  0  0  0  0
  -29.7560  -15.8650   22.8110 C   0  0  0  0  0  1  0  0  0  0  0  0
  -30.8300  -15.4200   21.7900 C   0  0  0  0  0  2  0  0  0  0  0  0
  -29.2150  -21.4430   19.3790 N   0  0  0  0  0  0  0  0  0  0  0  0
  -28.7120  -21.5960   18.5070 H   0  0  0  0  0  0  0  0  0  0  0  0
  -29.1000  -22.5610   20.3700 C   0  0  0  0  0  2  0  0  0  0  0  0
  -29.0100  -24.0500   19.7770 C   0  0  0  0  0  3  0  0  0  0  0  0
  -28.5760  -25.2320   20.7590 C   0  0  0  0  0  3  0  0  0  0  0  0
  -28.7020  -26.6500   20.3460 O   0  0  0  0  0  0  0  0  0  0  0  0
  -24.7400  -31.8990   23.3400 C   0  0  0  0  0  0  0  0  0  0  0  0
  -27.5490  -27.4430   20.3280 C   0  0  0  0  0  0  0  0  0  0  0  0
  -23.6070  -30.4680   21.6750 C   0  0  0  0  0  3  0  0  0  0  0  0
  -25.1310  -28.9610   20.2760 C   0  0  0  0  0  0  0  0  0  0  0  0
  -26.1340  -30.8720   21.5310 C   0  0  0  0  0  2  0  0  0  0  0  0
  -26.2720  -29.4960   20.8880 C   0  0  0  0  0  0  0  0  0  0  0  0
  -27.4870  -28.7500   20.8990 C   0  0  0  0  0  3  0  0  0  0  0  0
  -26.3880  -26.9500   19.7000 C   0  0  0  0  0  3  0  0  0  0  0  0
  -25.1910  -27.6950   19.6720 C   0  0  0  0  0  3  0  0  0  0  0  0
  -23.8650  -29.7960   20.2990 C   0  0  0  0  0  2  0  0  0  0  0  0
  -24.8440  -31.0970   22.2400 N   0  0  0  0  0  0  0  0  0  0  0  0
  -23.6390  -32.1420   23.8580 O   0  0  0  0  0  0  0  0  0  0  0  0
  -22.9600  -29.4300   22.6230 C   0  0  0  0  0  0  0  0  0  0  0  0
  -21.6490  -29.1900   22.4510 N   0  0  0  0  0  0  0  0  0  0  0  0
  -23.6370  -28.8440   23.4710 O   0  0  0  0  0  0  0  0  0  0  0  0
  -21.1610  -29.7180   21.7390 H   0  0  0  0  0  0  0  0  0  0  0  0
  -18.3200  -27.8300   22.8270 C   0  0  0  0  0  0  0  0  0  0  0  0
  -20.8480  -28.2230   23.2020 C   0  0  0  0  0  3  0  0  0  0  0  0
  -21.0460  -26.7910   22.6550 C   0  0  0  0  0  2  0  0  0  0  0  0
  -20.0070  -26.3990   21.5990 C   0  0  0  0  0  2  0  0  0  0  0  0
  -18.5920  -26.4810   22.1820 C   0  0  0  0  0  2  0  0  0  0  0  0
  -19.3790  -28.6530   23.2920 C   0  0  0  0  0  0  0  0  0  0  0  0
  -19.0700  -29.9120   23.8540 C   0  0  0  0  0  3  0  0  0  0  0  0
  -17.7360  -30.3470   23.9580 C   0  0  0  0  0  3  0  0  0  0  0  0
  -16.6910  -29.5210   23.5090 C   0  0  0  0  0  3  0  0  0  0  0  0
  -16.9830  -28.2640   22.9490 C   0  0  0  0  0  3  0  0  0  0  0  0
  -25.9920  -32.5680   23.9860 C   0  0  0  0  0  3  0  0  0  0  0  0
  -25.6210  -33.9420   24.3550 N   0  0  0  0  0  0  0  0  0  0  0  0
  -25.9040  -35.0290   23.6250 C   0  0  0  0  0  0  0  0  0  0  0  0
  -26.5730  -34.9840   22.5890 O   0  0  0  0  0  0  0  0  0  0  0  0
  -25.0240  -34.0480   25.1620 H   0  0  0  0  0  0  0  0  0  0  0  0
  -24.0960  -36.7520   23.3220 C   0  0  0  0  0  1  0  0  0  0  0  0
  -25.3560  -36.3820   24.1200 C   0  0  0  0  0  3  0  0  0  0  0  0
  -27.4520  -37.3370   24.9730 C   0  0  0  0  0  1  0  0  0  0  0  0
  -26.3410  -37.4820   24.0360 N   0  0  0  0  0  0  0  0  0  0  0  0
  -25.8950  -38.3780   24.2110 H   0  0  0  0  0  0  0  0  0  0  0  0
  -26.5360  -31.7850   25.2430 C   0  0  1  0  0  0  0  0  0  0  0  0
  -25.4400  -31.4310   26.2760 C   0  0  0  0  0  1  0  0  0  0  0  0
  -27.2230  -30.4690   24.8120 C   0  0  0  0  0  1  0  0  0  0  0  0
  -27.6120  -32.6320   25.9630 C   0  0  0  0  0  1  0  0  0  0  0  0
  1  2  1  0
  3  6  2  0
  3  4  1  0
  4  1  2  0
  5 16  1  0
  5  2  2  0
  6  5  1  0
  7  6  1  0
  8 16  1  0
  9 14  1  0
 10 11  1  0
 10  9  1  0
 12 11  1  0
 12 20  1  0
 12 13  1  0
 14  8  1  0
 14 13  1  0
 15  8  2  0
 16 46  1  0
 17 42  1  0
 17 18  2  0
 18 37  1  0
 19 22  1  0
 19 18  1  0
 20 21  1  0
 20 17  1  0
 21 19  2  0
 22 23  1  0
 23 24  2  0
 25 28  1  0
 25 24  1  0
 26 25  2  0
 27 26  1  0
 27 22  2  0
 28 29  1  0
 29 30  1  0
 30 31  2  0
 32 31  1  0
 32 36  1  0
 33 32  2  0
 34 29  2  0
 34 33  1  0
 35 34  1  0
 37 38  1  0
 38 40  1  0
 38 41  1  0
 39 37  2  0
 42 43  1  0
 44 42  1  0
 46 45  1  0
 47  4  1  0
 47 49  1  0
 48 47  1  0
 50 49  1  0
 50 51  2  0
 52 51  1  0
 53 64  2  0
 54 52  1  0
 54 59  1  0
 55 63  1  0
 55 65  1  0
 56 62  1  0
 56 58  1  0
 57 63  1  0
 58 59  2  0
 58 57  1  0
 60 54  2  0
 61 60  1  0
 61 56  2  0
 62 55  1  0
 63 53  1  0
 65 67  2  0
 66 65  1  0
 68 66  1  0
 69 78  2  0
 69 74  1  0
 70 66  1  0
 70 74  1  0
 71 70  1  0
 72 73  1  0
 72 71  1  0
 73 69  1  0
 74 75  2  0
 75 76  1  0
 77 76  2  0
 78 77  1  0
 79 53  1  0
 79 80  1  0
 79 89  1  0
 80 83  1  0
 81 85  1  0
 81 80  1  0
 82 81  2  0
 85 84  1  0
 87 85  1  0
 87 88  1  0
 87 86  1  0
 89 92  1  1
 89 90  1  0
 91 89  1  0
M  ISO  4   8 100  16 100  51 101  52 101
M  END
>  <TORSDO>  (52) 
F 21

>  <SCORE>  (52) 
-8.797

>  <name>  (52) 
52

>  <ligand_id>  (52) 
52

>  <original_smiles>  (52) 
[H]c1c([H])c([H])c2c(c1[H])C([H])([H])C([H])([H])C([H])([H])C2([H])N([H])C(=O)C1([H])N(C(=O)C([H])(N([H])C(=O)C([H])(N([H])C([H])([H])[H])C([H])([H])[H])C(C([H])([H])[H])(C([H])([H])[H])C([H])([H])[H])C([H])([H])c2c([H])c(OC([H])([H])C([H])([H])C([H])([H])N([H])c3c([H])c([H])c(N(C(=O)N4C([H])([H])C([H])([H])C([H])([H])C([H])(n5nc(-c6c([H])c([H])c(Oc7c([H])c([H])c(F)c([H])c7F)c([H])c6[H])c(C(=O)N([H])[H])c5N([H])[H])C4([H])[H])C([H])([H])C([H])([H])[H])c(F)c3[H])c([H])c([H])c2C1([H])[H]

>  <smiles>  (52) 
[H]c1c([H])c([H])c2c(c1[H])C([H])([H])C([H])([H])C([H])([H])C2([H])N([H])C(=O)C1([H])N(C(=O)C([H])(N([H])C(=O)C([H])(N([H])C([H])([H])[H])C([H])([H])[H])C(C([H])([H])[H])(C([H])([H])[H])C([H])([H])[H])C([H])([H])c2c([H])c(OC([H])([H])C([H])([H])C([H])([H])N([H])c3c([H])c([H])c(N(C(=O)N4C([H])([H])C([H])([H])C([H])([H])C([H])(n5nc(-c6c([H])c([H])c(Oc7c([H])c([H])c(F)c([H])c7F)c([H])c6[H])c(C(=O)N([H])[H])c5N([H])[H])C4([H])[H])C([H])([H])C([H])([H])[H])c(F)c3[H])c([H])c([H])c2C1([H])[H]

$$$$
53:0:0
     RDKit          3D

 93 99  0  0  1  0  0  0  0  0999 V2000
  -24.2220  -26.5050   16.3110 N   0  0  0  0  0  0  0  0  0  0  0  0
  -23.4320  -23.9020   19.5270 C   0  0  0  0  0  3  0  0  0  0  0  0
  -22.7770  -24.8790   18.2030 C   0  0  0  0  0  3  0  0  0  0  0  0
  -24.4210  -27.4310   18.1690 C   0  0  0  0  0  2  0  0  0  0  0  0
  -24.9100  -24.2920   20.4280 C   0  0  0  0  0  2  0  0  0  0  0  0
  -23.3730  -26.3890   17.5220 C   0  0  0  0  0  3  0  0  0  0  0  0
  -25.4020  -27.0210   19.3930 C   0  0  1  0  0  0  0  0  0  0  0  0
  -26.1100  -28.1240   19.8340 F   0  0  0  0  0  0  0  0  0  0  0  0
  -26.2820  -21.8690   20.4350 C   0  0  0  0  0 15  0  0  0  0  0  0
  -28.1310  -17.4670   20.1630 C   0  0  0  0  0  2  0  0  0  0  0  0
  -29.2210  -14.4910   19.3240 C   0  0  0  0  0  2  0  0  0  0  0  0
  -28.8310  -13.1660   18.4030 C   0  0  0  0  0  2  0  0  0  0  0  0
  -27.8220  -12.2080   19.0270 C   0  0  0  0  0  2  0  0  0  0  0  0
  -26.9670  -13.1310   19.8870 C   0  0  0  0  0  3  0  0  0  0  0  0
  -27.6800  -14.3110   20.7740 C   0  0  0  0  0  2  0  0  0  0  0  0
  -28.1510  -15.6670   20.0080 N   0  0  0  0  0  0  0  0  0  0  0  0
  -29.4280  -17.2170   20.0200 O   0  0  0  0  0  1  0  0  0  0  0  0
  -27.1020  -19.3540   20.3080 N   0  0  0  0  0  1  0  0  0  0  0  0
  -28.0470  -19.7210   20.3290 H   0  0  0  0  0  0  0  0  0  0  0  0
  -24.7090  -13.1740   20.8940 C   0  0  0  0  0  0  0  0  0  0  0  0
  -23.7940  -12.2630   21.3100 C   0  0  0  0  0  0  0  0  0  0  0  0
  -24.3820  -10.9730   21.1180 C   0  0  0  0  0  0  0  0  0  0  0  0
  -25.8200  -12.4700   20.5110 N   0  0  0  0  0  0  0  0  0  0  0  0
  -25.6420  -11.1140   20.6620 N   0  0  0  0  0  0  0  0  0  0  0  0
  -23.7620   -9.6410   21.3000 C   0  0  0  0  0  0  0  0  0  0  0  0
  -24.3220   -8.6560   22.1450 C   0  0  0  0  0  3  0  0  0  0  0  0
  -23.6720   -7.4150   22.3400 C   0  0  0  0  0  3  0  0  0  0  0  0
  -22.4430   -7.1430   21.6930 C   0  0  0  0  0  0  0  0  0  0  0  0
  -21.8960   -8.1160   20.8400 C   0  0  0  0  0  3  0  0  0  0  0  0
  -22.5470   -9.3470   20.6440 C   0  0  0  0  0  3  0  0  0  0  0  0
  -21.7580   -5.9540   21.7980 O   0  0  0  0  0  0  0  0  0  0  0  0
  -21.7450   -5.2230   22.9610 C   0  0  0  0  0  0  0  0  0  0  0  0
  -21.2290   -5.7510   24.1650 C   0  0  0  0  0  3  0  0  0  0  0  0
  -21.1720   -4.9450   25.3200 C   0  0  0  0  0  3  0  0  0  0  0  0
  -21.6220   -3.6120   25.2740 C   0  0  0  0  0  0  0  0  0  0  0  0
  -22.1300   -3.0820   24.0740 C   0  0  0  0  0  3  0  0  0  0  0  0
  -22.1870   -3.8840   22.9200 C   0  0  0  0  0  0  0  0  0  0  0  0
  -22.6570   -3.3610   21.7620 F   0  0  0  0  0  0  0  0  0  0  0  0
  -21.5630   -2.8370   26.3810 F   0  0  0  0  0  0  0  0  0  0  0  0
  -22.4070  -12.6050   21.7550 C   0  0  0  0  0  0  0  0  0  0  0  0
  -21.8470  -11.8270   22.6710 N   0  0  0  0  0  0  0  0  0  0  0  0
  -21.8420  -13.6150   21.3370 O   0  0  0  0  0  0  0  0  0  0  0  0
  -22.3260  -11.0130   23.0290 H   0  0  0  0  0  0  0  0  0  0  0  0
  -20.9230  -12.0450   23.0170 H   0  0  0  0  0  0  0  0  0  0  0  0
  -24.6840  -14.5600   20.7690 N   0  0  0  0  0  0  0  0  0  0  0  0
  -23.8630  -15.1160   20.9830 H   0  0  0  0  0  0  0  0  0  0  0  0
  -25.4470  -15.1020   20.3870 H   0  0  0  0  0  0  0  0  0  0  0  0
  -22.0810  -27.4980   15.3910 C   0  0  0  0  0  1  0  0  0  0  0  0
  -23.5050  -26.9700   15.1150 C   0  0  0  0  0  2  0  0  0  0  0  0
  -25.8410  -26.4090   16.2440 C   0  0  0  0  0  2  0  0  0  0  0  0
  -27.0710  -27.2140   17.1740 C   0  0  0  0  0  2  0  0  0  0  0  0
  -28.5600  -26.8110   17.9860 C   0  0  0  0  0  2  0  0  0  0  0  0
  -29.0500  -26.8290   19.5190 O   0  0  0  0  0  0  0  0  0  0  0  0
  -24.7440  -31.6440   23.2360 C   0  0  0  0  0  0  0  0  0  0  0  0
  -28.3540  -26.2230   20.5610 C   0  0  0  0  0  3  0  0  0  0  0  0
  -23.6810  -29.6890   21.9830 C   0  0  0  0  0  3  0  0  0  0  0  0
  -25.0880  -26.8950   21.3070 C   0  0  0  0  0  3  0  0  0  0  0  0
  -26.1130  -29.6080   22.0360 C   0  0  0  0  0  2  0  0  0  0  0  0
  -26.2510  -27.8670   22.0020 C   0  0  0  0  0  3  0  0  0  0  0  0
  -27.7740  -27.3140   21.7440 C   0  0  0  0  0  2  0  0  0  0  0  0
  -27.5070  -25.2180   19.5230 C   0  0  0  0  0  2  0  0  0  0  0  0
  -25.8580  -25.2840   19.5280 C   0  0  0  0  0  3  0  0  0  0  0  0
  -23.8900  -28.2360   21.1930 C   0  0  0  0  0  2  0  0  0  0  0  0
  -24.8850  -30.4410   22.4590 N   0  0  0  0  0  0  0  0  0  0  0  0
  -23.6260  -32.0810   23.5830 O   0  0  0  0  0  0  0  0  0  0  0  0
  -22.8070  -29.3150   23.1420 C   0  0  0  0  0  0  0  0  0  0  0  0
  -21.4820  -29.3060   22.9660 N   0  0  0  0  0  0  0  0  0  0  0  0
  -23.3690  -28.8610   24.1330 O   0  0  0  0  0  0  0  0  0  0  0  0
  -21.0960  -29.6880   22.1150 H   0  0  0  0  0  0  0  0  0  0  0  0
  -18.1730  -27.8710   23.2600 C   0  0  0  0  0  0  0  0  0  0  0  0
  -20.6140  -28.4750   23.7900 C   0  0  0  0  0  3  0  0  0  0  0  0
  -20.9290  -26.9770   23.5600 C   0  0  0  0  0  2  0  0  0  0  0  0
  -20.0400  -26.3420   22.4890 C   0  0  0  0  0  2  0  0  0  0  0  0
  -18.5700  -26.4460   22.9020 C   0  0  0  0  0  2  0  0  0  0  0  0
  -19.1400  -28.8340   23.6430 C   0  0  0  0  0  0  0  0  0  0  0  0
  -18.7320  -30.1540   23.9260 C   0  0  0  0  0  3  0  0  0  0  0  0
  -17.3750  -30.5160   23.8400 C   0  0  0  0  0  3  0  0  0  0  0  0
  -16.4150  -29.5520   23.4790 C   0  0  0  0  0  3  0  0  0  0  0  0
  -16.8130  -28.2340   23.1940 C   0  0  0  0  0  3  0  0  0  0  0  0
  -25.9240  -32.5440   23.8080 C   0  0  0  0  0  3  0  0  0  0  0  0
  -25.4710  -33.9490   24.1000 N   0  0  0  0  0  0  0  0  0  0  0  0
  -25.7510  -35.0700   23.4040 C   0  0  0  0  0  0  0  0  0  0  0  0
  -26.4170  -35.0390   22.3690 O   0  0  0  0  0  0  0  0  0  0  0  0
  -24.8430  -34.0420   24.8850 H   0  0  0  0  0  0  0  0  0  0  0  0
  -23.8860  -36.7800   23.2050 C   0  0  0  0  0  1  0  0  0  0  0  0
  -25.2110  -36.4380   23.9090 C   0  0  0  0  0  3  0  0  0  0  0  0
  -27.3160  -37.5260   24.5950 C   0  0  0  0  0  1  0  0  0  0  0  0
  -26.1490  -37.5740   23.7170 N   0  0  0  0  0  0  0  0  0  0  0  0
  -25.6760  -38.4600   23.8680 H   0  0  0  0  0  0  0  0  0  0  0  0
  -26.5390  -31.9670   25.1510 C   0  0  1  0  0  0  0  0  0  0  0  0
  -25.4780  -31.6310   26.2260 C   0  0  0  0  0  1  0  0  0  0  0  0
  -27.3440  -30.6850   24.8730 C   0  0  0  0  0  1  0  0  0  0  0  0
  -27.5370  -32.9720   25.7800 C   0  0  0  0  0  1  0  0  0  0  0  0
  1  6  1  0
  2  5  1  0
  3  2  2  0
  4  7  1  0
  6  4  1  0
  6  3  1  0
  7 62  1  0
  7  8  1  1
  7 57  1  0
 11 16  1  0
 12 13  1  0
 12 11  1  0
 14 13  1  0
 14 23  1  0
 14 15  1  0
 16 10  1  0
 16 15  1  0
 17 10  1  0
 18 19  1  0
 20 21  2  0
 21 40  1  0
 22 25  1  0
 22 21  1  0
 23 24  1  0
 23 20  1  0
 24 22  2  0
 25 26  1  0
 26 27  2  0
 28 31  1  0
 28 27  1  0
 29 28  2  0
 30 29  1  0
 30 25  2  0
 31 32  1  0
 32 33  1  0
 33 34  2  0
 35 34  1  0
 35 39  1  0
 36 35  2  0
 37 32  2  0
 37 36  1  0
 38 37  1  0
 40 41  1  0
 41 44  1  0
 41 43  1  0
 42 40  2  0
 45 20  1  0
 45 46  1  0
 47 45  1  0
 49 48  1  0
 49  1  1  0
 50  1  1  0
 50 51  1  0
 51 52  1  0
 52 53  1  0
 53 55  1  0
 54 65  2  0
 55 61  1  0
 55 60  1  0
 56 64  1  0
 56 66  1  0
 57 63  1  0
 57 59  1  0
 58 64  1  0
 59 60  1  0
 59 58  1  0
 62 61  1  0
 62  5  1  0
 63 56  1  0
 64 54  1  0
 66 68  2  0
 67 66  1  0
 69 67  1  0
 70 75  1  0
 71 67  1  0
 72 71  1  0
 73 74  1  0
 73 72  1  0
 74 70  1  0
 75 71  1  0
 75 76  2  0
 77 76  1  0
 78 77  2  0
 79 70  2  0
 79 78  1  0
 80 54  1  0
 80 81  1  0
 80 90  1  0
 81 84  1  0
 82 86  1  0
 82 81  1  0
 83 82  2  0
 86 85  1  0
 88 89  1  0
 88 86  1  0
 88 87  1  0
 90 93  1  1
 90 91  1  0
 92 90  1  0
M  ISO  4  10 100  18 100  52 101  53 101
M  END
>  <TORSDO>  (53) 
F 22

>  <SCORE>  (53) 
-10.333

>  <name>  (53) 
53

>  <ligand_id>  (53) 
53

>  <original_smiles>  (53) 
[H]c1c([H])c([H])c2c(c1[H])C([H])([H])C([H])([H])C([H])([H])C2([H])N([H])C(=O)C1([H])N(C(=O)C([H])(N([H])C(=O)C([H])(N([H])C([H])([H])[H])C([H])([H])[H])C(C([H])([H])[H])(C([H])([H])[H])C([H])([H])[H])C([H])([H])c2c([H])c(OC([H])([H])C([H])([H])C([H])([H])N(c3c([H])c([H])c(C([H])([H])N([H])C(=O)N4C([H])([H])C([H])([H])C([H])([H])C([H])(n5nc(-c6c([H])c([H])c(Oc7c([H])c([H])c(F)c([H])c7F)c([H])c6[H])c(C(=O)N([H])[H])c5N([H])[H])C4([H])[H])c(F)c3[H])C([H])([H])C([H])([H])[H])c([H])c([H])c2C1([H])[H]

>  <smiles>  (53) 
[H]c1c([H])c([H])c2c(c1[H])C([H])([H])C([H])([H])C([H])([H])C2([H])N([H])C(=O)C1([H])N(C(=O)C([H])(N([H])C(=O)C([H])(N([H])C([H])([H])[H])C([H])([H])[H])C(C([H])([H])[H])(C([H])([H])[H])C([H])([H])[H])C([H])([H])c2c([H])c(OC([H])([H])C([H])([H])C([H])([H])N(c3c([H])c([H])c(C([H])([H])N([H])C(=O)N4C([H])([H])C([H])([H])C([H])([H])C([H])(n5nc(-c6c([H])c([H])c(Oc7c([H])c([H])c(F)c([H])c7F)c([H])c6[H])c(C(=O)N([H])[H])c5N([H])[H])C4([H])[H])c(F)c3[H])C([H])([H])C([H])([H])[H])c([H])c([H])c2C1([H])[H]

$$$$
54:0:0
     RDKit          3D

 92100  0  0  1  0  0  0  0  0999 V2000
  -31.1760  -21.7050   22.0280 C   0  0  0  0  0  1  0  0  0  0  0  0
  -29.8410  -21.1680   21.7270 N   0  0  0  0  0  0  0  0  0  0  0  0
  -30.8610  -18.8950   21.8550 C   0  0  0  0  0  3  0  0  0  0  0  0
  -30.9290  -17.5340   21.4720 C   0  0  0  0  0  3  0  0  0  0  0  0
  -28.8210  -19.1650   20.6160 C   0  0  0  0  0  3  0  0  0  0  0  0
  -29.8310  -19.7680   21.4080 C   0  0  0  0  0  0  0  0  0  0  0  0
  -29.9590  -16.9620   20.6160 C   0  0  0  0  0  0  0  0  0  0  0  0
  -28.8830  -17.8080   20.2190 C   0  0  0  0  0  0  0  0  0  0  0  0
  -27.6190  -17.2360   19.1860 Cl  0  0  0  0  0  0  0  0  0  0  0  0
  -30.8080  -14.6060   20.5880 C   0  0  0  0  0  0  0  0  0  0  0  0
  -30.5690  -12.3290   19.6950 C   0  0  0  0  0  2  0  0  0  0  0  0
  -29.6870  -12.3630   18.4290 C   0  0  0  0  0  2  0  0  0  0  0  0
  -28.1920  -12.2870   18.7970 C   0  0  0  0  0  2  0  0  0  0  0  0
  -27.7740  -13.2340   19.9580 C   0  0  0  0  0  3  0  0  0  0  0  0
  -28.7880  -13.1790   21.1230 C   0  0  0  0  0  2  0  0  0  0  0  0
  -30.1230  -13.4260   20.5660 N   0  0  0  0  0  0  0  0  0  0  0  0
  -32.0400  -14.6350   20.5360 O   0  0  0  0  0  0  0  0  0  0  0  0
  -30.3400  -15.7400   18.5480 C   0  0  0  0  0  1  0  0  0  0  0  0
  -30.1450  -15.6560   20.0120 N   0  0  0  0  0  0  0  0  0  0  0  0
  -25.3590  -13.8520   20.5850 C   0  0  0  0  0  0  0  0  0  0  0  0
  -24.2690  -13.0890   20.9110 C   0  0  0  0  0  0  0  0  0  0  0  0
  -24.7260  -11.7380   20.9200 C   0  0  0  0  0  0  0  0  0  0  0  0
  -26.4070  -12.9650   20.4030 N   0  0  0  0  0  0  0  0  0  0  0  0
  -26.0290  -11.6880   20.6720 N   0  0  0  0  0  0  0  0  0  0  0  0
  -23.9840  -10.4810   21.0930 C   0  0  0  0  0  0  0  0  0  0  0  0
  -24.3790   -9.5180   22.0480 C   0  0  0  0  0  3  0  0  0  0  0  0
  -23.6400   -8.3260   22.2080 C   0  0  0  0  0  3  0  0  0  0  0  0
  -22.4930   -8.0890   21.4130 C   0  0  0  0  0  0  0  0  0  0  0  0
  -22.1170   -9.0420   20.4500 C   0  0  0  0  0  3  0  0  0  0  0  0
  -22.8560  -10.2250   20.2880 C   0  0  0  0  0  3  0  0  0  0  0  0
  -21.7290   -6.9500   21.4820 O   0  0  0  0  0  0  0  0  0  0  0  0
  -21.6410   -6.2110   22.6350 C   0  0  0  0  0  0  0  0  0  0  0  0
  -21.1790   -6.7720   23.8450 C   0  0  0  0  0  3  0  0  0  0  0  0
  -21.0370   -5.9600   24.9880 C   0  0  0  0  0  3  0  0  0  0  0  0
  -21.3460   -4.5880   24.9210 C   0  0  0  0  0  0  0  0  0  0  0  0
  -21.8020   -4.0270   23.7150 C   0  0  0  0  0  3  0  0  0  0  0  0
  -21.9450   -4.8370   22.5740 C   0  0  0  0  0  0  0  0  0  0  0  0
  -22.3650   -4.2870   21.4090 F   0  0  0  0  0  0  0  0  0  0  0  0
  -21.2020   -3.8050   26.0160 F   0  0  0  0  0  0  0  0  0  0  0  0
  -22.8630  -13.5790   21.1090 C   0  0  0  0  0  0  0  0  0  0  0  0
  -22.0950  -12.9020   21.9550 N   0  0  0  0  0  0  0  0  0  0  0  0
  -22.4530  -14.5950   20.5510 O   0  0  0  0  0  0  0  0  0  0  0  0
  -22.4370  -12.0770   22.4250 H   0  0  0  0  0  0  0  0  0  0  0  0
  -21.1510  -13.2160   22.1390 H   0  0  0  0  0  0  0  0  0  0  0  0
  -25.5330  -15.2180   20.4070 N   0  0  0  0  0  0  0  0  0  0  0  0
  -24.7630  -15.8720   20.4540 H   0  0  0  0  0  0  0  0  0  0  0  0
  -26.3940  -15.6490   20.0920 H   0  0  0  0  0  0  0  0  0  0  0  0
  -28.9010  -22.0840   21.0380 C   0  0  0  0  0  2  0  0  0  0  0  0
  -28.6400  -23.4520   21.7410 C   0  0  0  0  0  2  0  0  0  0  0  0
  -27.6980  -24.3980   20.9490 C   0  0  0  0  0  2  0  0  0  0  0  0
  -28.3650  -25.2910   19.8610 C   0  0  0  0  0  2  0  0  0  0  0  0
  -28.3730  -26.7000   20.1760 O   0  0  0  0  0  0  0  0  0  0  0  0
  -24.5150  -31.8510   23.2020 C   0  0  0  0  0  0  0  0  0  0  0  0
  -27.1920  -27.4220   20.1260 C   0  0  0  0  0  0  0  0  0  0  0  0
  -23.3280  -30.4640   21.5340 C   0  0  0  0  0  3  0  0  0  0  0  0
  -24.7970  -28.9430   20.1110 C   0  0  0  0  0  0  0  0  0  0  0  0
  -25.8540  -30.8270   21.3640 C   0  0  0  0  0  2  0  0  0  0  0  0
  -25.9500  -29.4590   20.7160 C   0  0  0  0  0  0  0  0  0  0  0  0
  -27.1480  -28.7080   20.7170 C   0  0  0  0  0  3  0  0  0  0  0  0
  -26.0140  -26.9240   19.5160 C   0  0  0  0  0  3  0  0  0  0  0  0
  -24.8260  -27.6760   19.5110 C   0  0  0  0  0  3  0  0  0  0  0  0
  -23.5500  -29.8000   20.1510 C   0  0  0  0  0  2  0  0  0  0  0  0
  -24.5840  -31.0600   22.0940 N   0  0  0  0  0  0  0  0  0  0  0  0
  -23.4270  -32.1170   23.7330 O   0  0  0  0  0  0  0  0  0  0  0  0
  -22.6710  -29.4300   22.4760 C   0  0  0  0  0  0  0  0  0  0  0  0
  -21.3430  -29.2700   22.3520 N   0  0  0  0  0  0  0  0  0  0  0  0
  -23.3490  -28.7780   23.2750 O   0  0  0  0  0  0  0  0  0  0  0  0
  -20.8560  -29.8390   21.6720 H   0  0  0  0  0  0  0  0  0  0  0  0
  -17.9480  -28.1510   22.8720 C   0  0  0  0  0  0  0  0  0  0  0  0
  -20.5160  -28.3310   23.1090 C   0  0  0  0  0  3  0  0  0  0  0  0
  -20.5710  -26.9180   22.4850 C   0  0  0  0  0  2  0  0  0  0  0  0
  -19.4440  -26.6580   21.4810 C   0  0  0  0  0  2  0  0  0  0  0  0
  -18.0770  -26.8200   22.1510 C   0  0  0  0  0  2  0  0  0  0  0  0
  -19.0940  -28.8680   23.3070 C   0  0  0  0  0  0  0  0  0  0  0  0
  -18.9200  -30.1170   23.9400 C   0  0  0  0  0  3  0  0  0  0  0  0
  -17.6340  -30.6490   24.1440 C   0  0  0  0  0  3  0  0  0  0  0  0
  -16.5010  -29.9280   23.7260 C   0  0  0  0  0  3  0  0  0  0  0  0
  -16.6600  -28.6800   23.0980 C   0  0  0  0  0  3  0  0  0  0  0  0
  -25.7930  -32.4760   23.8430 C   0  0  0  0  0  3  0  0  0  0  0  0
  -25.4760  -33.8690   24.1840 N   0  0  0  0  0  0  0  0  0  0  0  0
  -25.8100  -34.9280   23.4350 C   0  0  0  0  0  0  0  0  0  0  0  0
  -26.4890  -34.8350   22.4090 O   0  0  0  0  0  0  0  0  0  0  0  0
  -24.8720  -34.0150   24.9800 H   0  0  0  0  0  0  0  0  0  0  0  0
  -24.0780  -36.7140   23.0770 C   0  0  0  0  0  1  0  0  0  0  0  0
  -25.3120  -36.3110   23.8990 C   0  0  0  0  0  3  0  0  0  0  0  0
  -27.4310  -37.1950   24.7640 C   0  0  0  0  0  1  0  0  0  0  0  0
  -26.3430  -37.3690   23.8060 N   0  0  0  0  0  0  0  0  0  0  0  0
  -25.9300  -38.2850   23.9560 H   0  0  0  0  0  0  0  0  0  0  0  0
  -26.2990  -31.6920   25.1140 C   0  0  1  0  0  0  0  0  0  0  0  0
  -25.1930  -31.4410   26.1680 C   0  0  0  0  0  1  0  0  0  0  0  0
  -26.8890  -30.3210   24.7100 C   0  0  0  0  0  1  0  0  0  0  0  0
  -27.4420  -32.4810   25.7970 C   0  0  0  0  0  1  0  0  0  0  0  0
  2  1  1  0
  4  3  1  0
  5  6  1  0
  6  2  1  0
  6  3  2  0
  7  4  2  0
  8  5  2  0
  8  7  1  0
  9  8  1  0
 11 16  1  0
 12 13  1  0
 12 11  1  0
 14 13  1  0
 14 23  1  0
 14 15  1  0
 16 10  1  0
 16 15  1  0
 17 10  2  0
 18 19  1  0
 19 10  1  0
 19  7  1  0
 20 21  2  0
 21 22  1  0
 21 40  1  0
 22 25  1  0
 23 20  1  0
 23 24  1  0
 24 22  2  0
 25 26  1  0
 26 27  2  0
 28 31  1  0
 28 27  1  0
 29 28  2  0
 30 29  1  0
 30 25  2  0
 31 32  1  0
 32 33  1  0
 33 34  2  0
 35 34  1  0
 35 39  1  0
 36 35  2  0
 37 32  2  0
 37 36  1  0
 38 37  1  0
 40 41  1  0
 41 44  1  0
 41 43  1  0
 42 40  2  0
 45 46  1  0
 45 20  1  0
 47 45  1  0
 48  2  1  0
 48 49  1  0
 50 49  1  0
 51 52  1  0
 51 50  1  0
 53 64  2  0
 54 52  1  0
 54 59  1  0
 55 63  1  0
 55 65  1  0
 56 62  1  0
 56 58  1  0
 57 63  1  0
 58 59  2  0
 58 57  1  0
 60 54  2  0
 61 60  1  0
 61 56  2  0
 62 55  1  0
 63 53  1  0
 65 67  2  0
 66 65  1  0
 68 66  1  0
 69 78  2  0
 69 74  1  0
 70 66  1  0
 70 74  1  0
 71 70  1  0
 72 73  1  0
 72 71  1  0
 73 69  1  0
 74 75  2  0
 75 76  1  0
 77 76  2  0
 78 77  1  0
 79 53  1  0
 79 80  1  0
 79 89  1  0
 80 83  1  0
 81 85  1  0
 81 80  1  0
 82 81  2  0
 85 84  1  0
 87 85  1  0
 87 88  1  0
 87 86  1  0
 89 92  1  1
 89 90  1  0
 91 89  1  0
M  ISO  4  10 100  19 100  51 101  52 101
M  END
>  <TORSDO>  (54) 
F 21

>  <SCORE>  (54) 
-13.491

>  <name>  (54) 
54

>  <ligand_id>  (54) 
54

>  <original_smiles>  (54) 
[H]c1c([H])c([H])c2c(c1[H])C([H])([H])C([H])([H])C([H])([H])C2([H])N([H])C(=O)C1([H])N(C(=O)C([H])(N([H])C(=O)C([H])(N([H])C([H])([H])[H])C([H])([H])[H])C(C([H])([H])[H])(C([H])([H])[H])C([H])([H])[H])C([H])([H])c2c([H])c(OC([H])([H])C([H])([H])C([H])([H])C([H])([H])N(c3c([H])c([H])c(N(C(=O)N4C([H])([H])C([H])([H])C([H])([H])C([H])(n5nc(-c6c([H])c([H])c(Oc7c([H])c([H])c(F)c([H])c7F)c([H])c6[H])c(C(=O)N([H])[H])c5N([H])[H])C4([H])[H])C([H])([H])[H])c(Cl)c3[H])C([H])([H])[H])c([H])c([H])c2C1([H])[H]

>  <smiles>  (54) 
[H]c1c([H])c([H])c2c(c1[H])C([H])([H])C([H])([H])C([H])([H])C2([H])N([H])C(=O)C1([H])N(C(=O)C([H])(N([H])C(=O)C([H])(N([H])C([H])([H])[H])C([H])([H])[H])C(C([H])([H])[H])(C([H])([H])[H])C([H])([H])[H])C([H])([H])c2c([H])c(OC([H])([H])C([H])([H])C([H])([H])C([H])([H])N(c3c([H])c([H])c(N(C(=O)N4C([H])([H])C([H])([H])C([H])([H])C([H])(n5nc(-c6c([H])c([H])c(Oc7c([H])c([H])c(F)c([H])c7F)c([H])c6[H])c(C(=O)N([H])[H])c5N([H])[H])C4([H])[H])C([H])([H])[H])c(Cl)c3[H])C([H])([H])[H])c([H])c([H])c2C1([H])[H]

$$$$
55:0:0
     RDKit          3D

 91100  0  0  1  0  0  0  0  0999 V2000
  -29.6550  -24.2200   19.6810 C   0  0  0  0  0  0  0  0  0  0  0  0
  -27.7400  -23.7450   20.2240 C   0  0  0  0  0  2  0  0  0  0  0  0
  -28.3180  -25.0430   19.5760 C   0  0  0  0  0  3  0  0  0  0  0  0
  -28.9980  -22.9980   19.8650 N   0  0  0  0  0  0  0  0  0  0  0  0
  -30.8340  -24.4550   19.5040 O   0  0  0  0  0  0  0  0  0  0  0  0
  -28.3360  -26.4110   20.1960 O   0  0  0  0  0  0  0  0  0  0  0  0
  -24.6100  -31.8540   23.2040 C   0  0  0  0  0  0  0  0  0  0  0  0
  -27.2130  -27.2680   20.1330 C   0  0  0  0  0  0  0  0  0  0  0  0
  -23.4020  -30.4580   21.5640 C   0  0  0  0  0  3  0  0  0  0  0  0
  -24.8490  -28.9030   20.1310 C   0  0  0  0  0  0  0  0  0  0  0  0
  -25.9440  -30.7660   21.3780 C   0  0  0  0  0  2  0  0  0  0  0  0
  -26.0210  -29.3840   20.7270 C   0  0  0  0  0  0  0  0  0  0  0  0
  -27.2020  -28.5800   20.7160 C   0  0  0  0  0  3  0  0  0  0  0  0
  -26.0120  -26.8430   19.5230 C   0  0  0  0  0  3  0  0  0  0  0  0
  -24.8500  -27.6390   19.5200 C   0  0  0  0  0  3  0  0  0  0  0  0
  -23.6140  -29.7810   20.1830 C   0  0  0  0  0  2  0  0  0  0  0  0
  -24.6710  -31.0450   22.1040 N   0  0  0  0  0  0  0  0  0  0  0  0
  -23.5280  -32.1320   23.7410 O   0  0  0  0  0  0  0  0  0  0  0  0
  -22.7390  -29.4420   22.5250 C   0  0  0  0  0  0  0  0  0  0  0  0
  -21.4110  -29.2770   22.4120 N   0  0  0  0  0  0  0  0  0  0  0  0
  -23.4220  -28.8060   23.3340 O   0  0  0  0  0  0  0  0  0  0  0  0
  -20.9210  -29.8450   21.7360 H   0  0  0  0  0  0  0  0  0  0  0  0
  -18.0290  -28.1020   22.9400 C   0  0  0  0  0  0  0  0  0  0  0  0
  -20.5910  -28.3410   23.1860 C   0  0  0  0  0  3  0  0  0  0  0  0
  -20.6760  -26.9120   22.6000 C   0  0  0  0  0  2  0  0  0  0  0  0
  -19.5620  -26.6030   21.5950 C   0  0  0  0  0  2  0  0  0  0  0  0
  -18.1880  -26.7550   22.2540 C   0  0  0  0  0  2  0  0  0  0  0  0
  -19.1570  -28.8540   23.3620 C   0  0  0  0  0  0  0  0  0  0  0  0
  -18.9540  -30.1140   23.9650 C   0  0  0  0  0  3  0  0  0  0  0  0
  -17.6530  -30.6220   24.1480 C   0  0  0  0  0  3  0  0  0  0  0  0
  -16.5400  -29.8680   23.7410 C   0  0  0  0  0  3  0  0  0  0  0  0
  -16.7280  -28.6100   23.1430 C   0  0  0  0  0  3  0  0  0  0  0  0
  -25.8930  -32.4860   23.8250 C   0  0  0  0  0  3  0  0  0  0  0  0
  -25.5820  -33.8800   24.1710 N   0  0  0  0  0  0  0  0  0  0  0  0
  -25.8980  -34.9420   23.4180 C   0  0  0  0  0  0  0  0  0  0  0  0
  -26.5520  -34.8510   22.3750 O   0  0  0  0  0  0  0  0  0  0  0  0
  -25.0000  -34.0250   24.9840 H   0  0  0  0  0  0  0  0  0  0  0  0
  -24.1510  -36.7270   23.1160 C   0  0  0  0  0  1  0  0  0  0  0  0
  -25.4110  -36.3230   23.8970 C   0  0  0  0  0  3  0  0  0  0  0  0
  -27.5590  -37.2150   24.6880 C   0  0  0  0  0  1  0  0  0  0  0  0
  -26.4340  -37.3850   23.7710 N   0  0  0  0  0  0  0  0  0  0  0  0
  -26.0250  -38.3000   23.9360 H   0  0  0  0  0  0  0  0  0  0  0  0
  -26.4200  -31.7060   25.0940 C   0  0  1  0  0  0  0  0  0  0  0  0
  -25.3350  -31.4620   26.1680 C   0  0  0  0  0  1  0  0  0  0  0  0
  -27.0020  -30.3320   24.6900 C   0  0  0  0  0  1  0  0  0  0  0  0
  -27.5720  -32.5000   25.7540 C   0  0  0  0  0  1  0  0  0  0  0  0
  -29.3380  -21.6660   19.1950 C   0  0  0  0  0  2  0  0  0  0  0  0
  -30.7130  -19.4390   19.4680 C   0  0  0  0  0  3  0  0  0  0  0  0
  -28.5510  -19.4600   20.4850 C   0  0  0  0  0  3  0  0  0  0  0  0
  -30.8390  -18.0260   19.7110 C   0  0  0  0  0  3  0  0  0  0  0  0
  -28.6750  -18.0500   20.7290 C   0  0  0  0  0  3  0  0  0  0  0  0
  -29.5580  -20.2080   19.8160 C   0  0  0  0  0  0  0  0  0  0  0  0
  -29.8040  -17.2680   20.3270 C   0  0  0  0  0  0  0  0  0  0  0  0
  -30.5750  -14.7350   20.1380 C   0  0  0  0  0  0  0  0  0  0  0  0
  -30.3540  -12.4740   19.0950 C   0  0  0  0  0  2  0  0  0  0  0  0
  -29.3750  -12.5870   17.9040 C   0  0  0  0  0  2  0  0  0  0  0  0
  -27.9180  -12.4160   18.3760 C   0  0  0  0  0  2  0  0  0  0  0  0
  -27.5920  -13.2780   19.6250 C   0  0  0  0  0  3  0  0  0  0  0  0
  -28.6840  -13.1370   20.7100 C   0  0  0  0  0  2  0  0  0  0  0  0
  -29.9710  -13.4960   20.0930 N   0  0  0  0  0  0  0  0  0  0  0  0
  -31.7290  -14.8800   19.7200 O   0  0  0  0  0  0  0  0  0  0  0  0
  -29.7830  -15.7970   20.5360 N   0  0  0  0  0  0  0  0  0  0  0  0
  -28.9240  -15.4660   20.9470 H   0  0  0  0  0  0  0  0  0  0  0  0
  -25.2240  -13.8770   20.4120 C   0  0  0  0  0  0  0  0  0  0  0  0
  -24.1650  -13.1060   20.8100 C   0  0  0  0  0  0  0  0  0  0  0  0
  -24.6230  -11.7530   20.7650 C   0  0  0  0  0  0  0  0  0  0  0  0
  -26.2580  -12.9940   20.1480 N   0  0  0  0  0  0  0  0  0  0  0  0
  -25.9060  -11.7120   20.4230 N   0  0  0  0  0  0  0  0  0  0  0  0
  -23.8970  -10.4930   20.9730 C   0  0  0  0  0  0  0  0  0  0  0  0
  -24.3500   -9.5250   21.8970 C   0  0  0  0  0  3  0  0  0  0  0  0
  -23.6240   -8.3280   22.0930 C   0  0  0  0  0  3  0  0  0  0  0  0
  -22.4350   -8.0930   21.3650 C   0  0  0  0  0  0  0  0  0  0  0  0
  -22.0020   -9.0500   20.4300 C   0  0  0  0  0  3  0  0  0  0  0  0
  -22.7260  -10.2380   20.2310 C   0  0  0  0  0  3  0  0  0  0  0  0
  -21.6800   -6.9500   21.4710 O   0  0  0  0  0  0  0  0  0  0  0  0
  -21.6520   -6.2110   22.6270 C   0  0  0  0  0  0  0  0  0  0  0  0
  -21.2590   -6.7750   23.8620 C   0  0  0  0  0  3  0  0  0  0  0  0
  -21.1750   -5.9630   25.0100 C   0  0  0  0  0  3  0  0  0  0  0  0
  -21.4740   -4.5900   24.9270 C   0  0  0  0  0  0  0  0  0  0  0  0
  -21.8590   -4.0260   23.6990 C   0  0  0  0  0  3  0  0  0  0  0  0
  -21.9460   -4.8350   22.5510 C   0  0  0  0  0  0  0  0  0  0  0  0
  -22.2970   -4.2820   21.3640 F   0  0  0  0  0  0  0  0  0  0  0  0
  -21.3860   -3.8090   26.0280 F   0  0  0  0  0  0  0  0  0  0  0  0
  -22.7770  -13.5860   21.1170 C   0  0  0  0  0  0  0  0  0  0  0  0
  -22.0700  -12.8960   22.0040 N   0  0  0  0  0  0  0  0  0  0  0  0
  -22.3270  -14.6110   20.6060 O   0  0  0  0  0  0  0  0  0  0  0  0
  -22.4470  -12.0680   22.4410 H   0  0  0  0  0  0  0  0  0  0  0  0
  -21.1390  -13.2020   22.2510 H   0  0  0  0  0  0  0  0  0  0  0  0
  -25.3880  -15.2480   20.2280 N   0  0  0  0  0  0  0  0  0  0  0  0
  -24.6210  -15.9010   20.3420 H   0  0  0  0  0  0  0  0  0  0  0  0
  -26.2140  -15.6730   19.8260 H   0  0  0  0  0  0  0  0  0  0  0  0
  1  4  1  0
  3  1  1  0
  3  6  1  0
  3  2  1  0
  4  2  1  0
  5  1  2  0
  7 18  2  0
  8  6  1  0
  8 13  1  0
  9 17  1  0
  9 19  1  0
 10 16  1  0
 10 12  1  0
 11 17  1  0
 12 11  1  0
 13 12  2  0
 14  8  2  0
 15 14  1  0
 15 10  2  0
 16  9  1  0
 17  7  1  0
 19 21  2  0
 20 19  1  0
 22 20  1  0
 23 32  2  0
 23 28  1  0
 24 20  1  0
 24 28  1  0
 25 24  1  0
 26 27  1  0
 26 25  1  0
 27 23  1  0
 28 29  2  0
 29 30  1  0
 31 30  2  0
 32 31  1  0
 33  7  1  0
 33 34  1  0
 33 43  1  0
 34 37  1  0
 35 39  1  0
 35 34  1  0
 36 35  2  0
 39 38  1  0
 41 39  1  0
 41 42  1  0
 41 40  1  0
 43 46  1  1
 43 44  1  0
 45 43  1  0
 47 52  1  0
 47  4  1  0
 48 50  2  0
 48 52  1  0
 49 51  1  0
 50 53  1  0
 52 49  2  0
 53 62  1  0
 53 51  2  0
 54 62  1  0
 55 60  1  0
 56 57  1  0
 56 55  1  0
 58 57  1  0
 58 67  1  0
 58 59  1  0
 60 54  1  0
 60 59  1  0
 61 54  2  0
 62 63  1  0
 64 65  2  0
 65 84  1  0
 66 65  1  0
 66 69  1  0
 67 64  1  0
 67 68  1  0
 68 66  2  0
 69 70  1  0
 70 71  2  0
 72 75  1  0
 72 71  1  0
 73 72  2  0
 74 73  1  0
 74 69  2  0
 75 76  1  0
 76 77  1  0
 77 78  2  0
 79 78  1  0
 79 83  1  0
 80 79  2  0
 81 76  2  0
 81 80  1  0
 82 81  1  0
 84 85  1  0
 85 88  1  0
 85 87  1  0
 86 84  2  0
 89 90  1  0
 89 64  1  0
 91 89  1  0
M  ISO  4   3 101   6 101  54 100  62 100
M  END
>  <TORSDO>  (55) 
F 18

>  <SCORE>  (55) 
-14.574

>  <name>  (55) 
55

>  <ligand_id>  (55) 
55

>  <original_smiles>  (55) 
[H]c1c([H])c([H])c2c(c1[H])C([H])([H])C([H])([H])C([H])([H])C2([H])N([H])C(=O)C1([H])N(C(=O)C([H])(N([H])C(=O)C([H])(N([H])C([H])([H])[H])C([H])([H])[H])C(C([H])([H])[H])(C([H])([H])[H])C([H])([H])[H])C([H])([H])c2c([H])c(OC3([H])C(=O)N(C([H])([H])c4c([H])c([H])c(N([H])C(=O)N5C([H])([H])C([H])([H])C([H])([H])C([H])(n6nc(-c7c([H])c([H])c(Oc8c([H])c([H])c(F)c([H])c8F)c([H])c7[H])c(C(=O)N([H])[H])c6N([H])[H])C5([H])[H])c([H])c4[H])C3([H])[H])c([H])c([H])c2C1([H])[H]

>  <smiles>  (55) 
[H]c1c([H])c([H])c2c(c1[H])C([H])([H])C([H])([H])C([H])([H])C2([H])N([H])C(=O)C1([H])N(C(=O)C([H])(N([H])C(=O)C([H])(N([H])C([H])([H])[H])C([H])([H])[H])C(C([H])([H])[H])(C([H])([H])[H])C([H])([H])[H])C([H])([H])c2c([H])c(OC3([H])C(=O)N(C([H])([H])c4c([H])c([H])c(N([H])C(=O)N5C([H])([H])C([H])([H])C([H])([H])C([H])(n6nc(-c7c([H])c([H])c(Oc8c([H])c([H])c(F)c([H])c8F)c([H])c7[H])c(C(=O)N([H])[H])c6N([H])[H])C5([H])[H])c([H])c4[H])C3([H])[H])c([H])c([H])c2C1([H])[H]

$$$$
56:0:0
     RDKit          3D

 92100  0  0  1  0  0  0  0  0999 V2000
  -28.6750  -21.4450   21.9950 C   0  0  0  0  0  1  0  0  0  0  0  0
  -29.4550  -21.0630   20.8190 N   0  0  0  0  0  0  0  0  0  0  0  0
  -29.1140  -17.3140   21.0950 C   0  0  0  0  0  3  0  0  0  0  0  0
  -28.8010  -18.6930   21.0940 C   0  0  0  0  0  3  0  0  0  0  0  0
  -31.2790  -17.8040   20.1390 C   0  0  0  0  0  3  0  0  0  0  0  0
  -30.3720  -16.8420   20.6580 C   0  0  0  0  0  0  0  0  0  0  0  0
  -29.7310  -19.6690   20.6580 C   0  0  0  0  0  0  0  0  0  0  0  0
  -30.9640  -19.1920   20.1340 C   0  0  0  0  0  0  0  0  0  0  0  0
  -31.8940  -20.0720   19.6840 F   0  0  0  0  0  0  0  0  0  0  0  0
  -31.0930  -14.5680   19.9150 C   0  0  0  0  0  0  0  0  0  0  0  0
  -30.6030  -12.4610   18.6950 C   0  0  0  0  0  2  0  0  0  0  0  0
  -29.5680  -12.6910   17.5780 C   0  0  0  0  0  2  0  0  0  0  0  0
  -28.1380  -12.5570   18.1330 C   0  0  0  0  0  2  0  0  0  0  0  0
  -27.9220  -13.3890   19.4230 C   0  0  0  0  0  3  0  0  0  0  0  0
  -29.0580  -13.1480   20.4370 C   0  0  0  0  0  2  0  0  0  0  0  0
  -30.3450  -13.4320   19.7760 N   0  0  0  0  0  0  0  0  0  0  0  0
  -32.0910  -14.7850   19.2190 O   0  0  0  0  0  0  0  0  0  0  0  0
  -31.0300  -15.0790   22.2640 C   0  0  0  0  0  1  0  0  0  0  0  0
  -30.7070  -15.4510   20.8790 N   0  0  0  0  0  0  0  0  0  0  0  0
  -25.6290  -14.0390   20.3870 C   0  0  0  0  0  0  0  0  0  0  0  0
  -24.5720  -13.2860   20.8200 C   0  0  0  0  0  0  0  0  0  0  0  0
  -24.9740  -11.9230   20.6810 C   0  0  0  0  0  0  0  0  0  0  0  0
  -26.6110  -13.1360   20.0150 N   0  0  0  0  0  0  0  0  0  0  0  0
  -26.2270  -11.8540   20.2500 N   0  0  0  0  0  0  0  0  0  0  0  0
  -24.2200  -10.6780   20.8800 C   0  0  0  0  0  0  0  0  0  0  0  0
  -24.6480   -9.6920   21.7970 C   0  0  0  0  0  3  0  0  0  0  0  0
  -23.8950   -8.5130   21.9840 C   0  0  0  0  0  3  0  0  0  0  0  0
  -22.7020   -8.3100   21.2520 C   0  0  0  0  0  0  0  0  0  0  0  0
  -22.2930   -9.2840   20.3240 C   0  0  0  0  0  3  0  0  0  0  0  0
  -23.0460  -10.4550   20.1360 C   0  0  0  0  0  3  0  0  0  0  0  0
  -21.9210   -7.1830   21.3490 O   0  0  0  0  0  0  0  0  0  0  0  0
  -21.8070   -6.4830   22.5230 C   0  0  0  0  0  0  0  0  0  0  0  0
  -21.3600   -7.0960   23.7150 C   0  0  0  0  0  3  0  0  0  0  0  0
  -21.1930   -6.3240   24.8830 C   0  0  0  0  0  3  0  0  0  0  0  0
  -21.4610   -4.9420   24.8590 C   0  0  0  0  0  0  0  0  0  0  0  0
  -21.9020   -4.3310   23.6710 C   0  0  0  0  0  3  0  0  0  0  0  0
  -22.0700   -5.0990   22.5060 C   0  0  0  0  0  0  0  0  0  0  0  0
  -22.4750   -4.5010   21.3600 F   0  0  0  0  0  0  0  0  0  0  0  0
  -21.2920   -4.1990   25.9760 F   0  0  0  0  0  0  0  0  0  0  0  0
  -23.2260  -13.7980   21.2470 C   0  0  0  0  0  0  0  0  0  0  0  0
  -22.5740  -13.1100   22.1790 N   0  0  0  0  0  0  0  0  0  0  0  0
  -22.7640  -14.8430   20.7890 O   0  0  0  0  0  0  0  0  0  0  0  0
  -22.9600  -12.2640   22.5720 H   0  0  0  0  0  0  0  0  0  0  0  0
  -21.6760  -13.4330   22.5060 H   0  0  0  0  0  0  0  0  0  0  0  0
  -25.8320  -15.4100   20.2600 N   0  0  0  0  0  0  0  0  0  0  0  0
  -25.1180  -16.0900   20.4940 H   0  0  0  0  0  0  0  0  0  0  0  0
  -26.6740  -15.8330   19.8890 H   0  0  0  0  0  0  0  0  0  0  0  0
  -29.4570  -21.9760   19.6620 C   0  0  0  0  0  2  0  0  0  0  0  0
  -30.3840  -23.2230   19.7930 C   0  0  0  0  0  2  0  0  0  0  0  0
  -29.8440  -24.5680   20.3880 C   0  0  0  0  0  2  0  0  0  0  0  0
  -28.7170  -25.3140   19.6190 C   0  0  0  0  0  2  0  0  0  0  0  0
  -28.7000  -26.7310   19.9280 O   0  0  0  0  0  0  0  0  0  0  0  0
  -24.6530  -31.6390   23.1720 C   0  0  0  0  0  0  0  0  0  0  0  0
  -27.4920  -27.4170   19.9170 C   0  0  0  0  0  0  0  0  0  0  0  0
  -23.5070  -30.2260   21.5010 C   0  0  0  0  0  3  0  0  0  0  0  0
  -25.0230  -28.8210   20.0050 C   0  0  0  0  0  0  0  0  0  0  0  0
  -26.0110  -30.7220   21.2900 C   0  0  0  0  0  2  0  0  0  0  0  0
  -26.1630  -29.3780   20.5960 C   0  0  0  0  0  0  0  0  0  0  0  0
  -27.3980  -28.6870   20.5450 C   0  0  0  0  0  3  0  0  0  0  0  0
  -26.3310  -26.8890   19.3060 C   0  0  0  0  0  3  0  0  0  0  0  0
  -25.1040  -27.5770   19.3560 C   0  0  0  0  0  3  0  0  0  0  0  0
  -23.7360  -29.6090   20.0960 C   0  0  0  0  0  2  0  0  0  0  0  0
  -24.7430  -30.8760   22.0450 N   0  0  0  0  0  0  0  0  0  0  0  0
  -23.5640  -31.8350   23.7290 O   0  0  0  0  0  0  0  0  0  0  0  0
  -22.9230  -29.1380   22.4320 C   0  0  0  0  0  0  0  0  0  0  0  0
  -21.6300  -28.8250   22.2480 N   0  0  0  0  0  0  0  0  0  0  0  0
  -23.6300  -28.5810   23.2750 O   0  0  0  0  0  0  0  0  0  0  0  0
  -21.1180  -29.3290   21.5390 H   0  0  0  0  0  0  0  0  0  0  0  0
  -18.4060  -27.2190   22.5330 C   0  0  0  0  0  0  0  0  0  0  0  0
  -20.8830  -27.8030   22.9820 C   0  0  0  0  0  3  0  0  0  0  0  0
  -21.2090  -26.3880   22.4530 C   0  0  0  0  0  2  0  0  0  0  0  0
  -20.2360  -25.9080   21.3700 C   0  0  0  0  0  2  0  0  0  0  0  0
  -18.8020  -25.8900   21.9080 C   0  0  0  0  0  2  0  0  0  0  0  0
  -19.3850  -28.1240   23.0240 C   0  0  0  0  0  0  0  0  0  0  0  0
  -18.9650  -29.3600   23.5620 C   0  0  0  0  0  3  0  0  0  0  0  0
  -17.5990  -29.6940   23.6180 C   0  0  0  0  0  3  0  0  0  0  0  0
  -16.6340  -28.7890   23.1460 C   0  0  0  0  0  3  0  0  0  0  0  0
  -17.0370  -27.5530   22.6080 C   0  0  0  0  0  3  0  0  0  0  0  0
  -25.9080  -32.3200   23.7970 C   0  0  0  0  0  3  0  0  0  0  0  0
  -25.5450  -33.7060   24.1280 N   0  0  0  0  0  0  0  0  0  0  0  0
  -25.8340  -34.7680   23.3640 C   0  0  0  0  0  0  0  0  0  0  0  0
  -26.5060  -34.6860   22.3320 O   0  0  0  0  0  0  0  0  0  0  0  0
  -24.9480  -33.8390   24.9310 H   0  0  0  0  0  0  0  0  0  0  0  0
  -24.0310  -36.4810   23.0030 C   0  0  0  0  0  1  0  0  0  0  0  0
  -25.2900  -36.1360   23.8150 C   0  0  0  0  0  3  0  0  0  0  0  0
  -27.3910  -37.1090   24.6350 C   0  0  0  0  0  1  0  0  0  0  0  0
  -26.2790  -37.2290   23.6940 N   0  0  0  0  0  0  0  0  0  0  0  0
  -25.8390  -38.1330   23.8380 H   0  0  0  0  0  0  0  0  0  0  0  0
  -26.4520  -31.5670   25.0730 C   0  0  1  0  0  0  0  0  0  0  0  0
  -25.3620  -31.2630   26.1280 C   0  0  0  0  0  1  0  0  0  0  0  0
  -27.1130  -30.2250   24.6780 C   0  0  0  0  0  1  0  0  0  0  0  0
  -27.5560  -32.4170   25.7500 C   0  0  0  0  0  1  0  0  0  0  0  0
  2  1  1  0
  4  3  1  0
  5  6  1  0
  6 19  1  0
  6  3  2  0
  7  2  1  0
  7  4  2  0
  8  5  2  0
  8  7  1  0
  9  8  1  0
 10 19  1  0
 11 16  1  0
 12 13  1  0
 12 11  1  0
 14 13  1  0
 14 23  1  0
 14 15  1  0
 16 10  1  0
 16 15  1  0
 17 10  2  0
 19 18  1  0
 20 21  2  0
 21 40  1  0
 22 21  1  0
 22 25  1  0
 23 24  1  0
 23 20  1  0
 24 22  2  0
 25 26  1  0
 26 27  2  0
 28 31  1  0
 28 27  1  0
 29 28  2  0
 30 29  1  0
 30 25  2  0
 31 32  1  0
 32 33  1  0
 33 34  2  0
 35 34  1  0
 35 39  1  0
 36 35  2  0
 37 32  2  0
 37 36  1  0
 38 37  1  0
 40 41  1  0
 41 44  1  0
 41 43  1  0
 42 40  2  0
 45 20  1  0
 45 46  1  0
 47 45  1  0
 48 49  1  0
 48  2  1  0
 49 50  1  0
 51 52  1  0
 51 50  1  0
 53 64  2  0
 54 52  1  0
 54 59  1  0
 55 63  1  0
 55 65  1  0
 56 62  1  0
 56 58  1  0
 57 63  1  0
 58 57  1  0
 59 58  2  0
 60 61  1  0
 60 54  2  0
 61 56  2  0
 62 55  1  0
 63 53  1  0
 65 67  2  0
 66 65  1  0
 68 66  1  0
 69 78  2  0
 69 74  1  0
 70 66  1  0
 70 74  1  0
 71 70  1  0
 72 73  1  0
 72 71  1  0
 73 69  1  0
 74 75  2  0
 75 76  1  0
 77 76  2  0
 78 77  1  0
 79 53  1  0
 79 80  1  0
 79 89  1  0
 80 83  1  0
 81 85  1  0
 81 80  1  0
 82 81  2  0
 85 84  1  0
 87 85  1  0
 87 88  1  0
 87 86  1  0
 89 92  1  1
 89 90  1  0
 91 89  1  0
M  ISO  4  10 100  19 100  51 101  52 101
M  END
>  <TORSDO>  (56) 
F 21

>  <SCORE>  (56) 
-11.456

>  <name>  (56) 
56

>  <ligand_id>  (56) 
56

>  <original_smiles>  (56) 
[H]c1c([H])c([H])c2c(c1[H])C([H])([H])C([H])([H])C([H])([H])C2([H])N([H])C(=O)C1([H])N(C(=O)C([H])(N([H])C(=O)C([H])(N([H])C([H])([H])[H])C([H])([H])[H])C(C([H])([H])[H])(C([H])([H])[H])C([H])([H])[H])C([H])([H])c2c([H])c(OC([H])([H])C([H])([H])C([H])([H])C([H])([H])N(c3c([H])c([H])c(N(C(=O)N4C([H])([H])C([H])([H])C([H])([H])C([H])(n5nc(-c6c([H])c([H])c(Oc7c([H])c([H])c(F)c([H])c7F)c([H])c6[H])c(C(=O)N([H])[H])c5N([H])[H])C4([H])[H])C([H])([H])[H])c([H])c3F)C([H])([H])[H])c([H])c([H])c2C1([H])[H]

>  <smiles>  (56) 
[H]c1c([H])c([H])c2c(c1[H])C([H])([H])C([H])([H])C([H])([H])C2([H])N([H])C(=O)C1([H])N(C(=O)C([H])(N([H])C(=O)C([H])(N([H])C([H])([H])[H])C([H])([H])[H])C(C([H])([H])[H])(C([H])([H])[H])C([H])([H])[H])C([H])([H])c2c([H])c(OC([H])([H])C([H])([H])C([H])([H])C([H])([H])N(c3c([H])c([H])c(N(C(=O)N4C([H])([H])C([H])([H])C([H])([H])C([H])(n5nc(-c6c([H])c([H])c(Oc7c([H])c([H])c(F)c([H])c7F)c([H])c6[H])c(C(=O)N([H])[H])c5N([H])[H])C4([H])[H])C([H])([H])[H])c([H])c3F)C([H])([H])[H])c([H])c([H])c2C1([H])[H]

$$$$
57:0:0
     RDKit          3D

 93102  0  0  1  0  0  0  0  0999 V2000
  -29.2140  -22.9290   20.8970 C   0  0  0  0  0  0  0  0  0  0  0  0
  -30.4070  -24.2090   19.2620 C   0  0  0  0  0  2  0  0  0  0  0  0
  -30.8620  -22.7410   19.2950 C   0  0  0  0  0  2  0  0  0  0  0  0
  -29.4890  -24.3820   20.4740 C   0  0  0  0  0  3  0  0  0  0  0  0
  -30.0130  -22.0380   20.2590 N   0  0  0  0  0  0  0  0  0  0  0  0
  -28.3430  -22.6690   21.7340 O   0  0  0  0  0  0  0  0  0  0  0  0
  -29.7030  -18.5420   21.7790 C   0  0  0  0  0  3  0  0  0  0  0  0
  -31.4350  -18.5260   20.0870 C   0  0  0  0  0  3  0  0  0  0  0  0
  -29.4290  -19.8970   21.4860 C   0  0  0  0  0  3  0  0  0  0  0  0
  -31.1620  -19.8800   19.7980 C   0  0  0  0  0  3  0  0  0  0  0  0
  -30.7340  -17.8530   21.1080 C   0  0  0  0  0  0  0  0  0  0  0  0
  -30.1780  -20.6150   20.5140 C   0  0  0  0  0  0  0  0  0  0  0  0
  -31.1700  -16.4580   21.5600 C   0  0  0  0  0  2  0  0  0  0  0  0
  -30.9280  -14.4170   20.1410 C   0  0  0  0  0  0  0  0  0  0  0  0
  -30.4880  -12.3090   18.9240 C   0  0  0  0  0  2  0  0  0  0  0  0
  -29.5000  -12.5510   17.7660 C   0  0  0  0  0  2  0  0  0  0  0  0
  -28.0430  -12.4490   18.2590 C   0  0  0  0  0  2  0  0  0  0  0  0
  -27.7860  -13.2780   19.5460 C   0  0  0  0  0  3  0  0  0  0  0  0
  -28.8790  -13.0090   20.6020 C   0  0  0  0  0  2  0  0  0  0  0  0
  -30.1870  -13.2860   19.9820 N   0  0  0  0  0  0  0  0  0  0  0  0
  -31.9870  -14.6150   19.5370 O   0  0  0  0  0  0  0  0  0  0  0  0
  -30.4310  -15.3240   20.9960 N   0  0  0  0  0  0  0  0  0  0  0  0
  -29.5390  -15.1090   21.4130 H   0  0  0  0  0  0  0  0  0  0  0  0
  -25.4380  -13.9430   20.3660 C   0  0  0  0  0  0  0  0  0  0  0  0
  -24.3650  -13.1950   20.7690 C   0  0  0  0  0  0  0  0  0  0  0  0
  -24.7840  -11.8310   20.6990 C   0  0  0  0  0  0  0  0  0  0  0  0
  -26.4460  -13.0350   20.0780 N   0  0  0  0  0  0  0  0  0  0  0  0
  -26.0580  -11.7600   20.3340 N   0  0  0  0  0  0  0  0  0  0  0  0
  -24.0320  -10.5870   20.9040 C   0  0  0  0  0  0  0  0  0  0  0  0
  -24.4430   -9.6190   21.8470 C   0  0  0  0  0  3  0  0  0  0  0  0
  -23.6910   -8.4410   22.0370 C   0  0  0  0  0  3  0  0  0  0  0  0
  -22.5120   -8.2200   21.2850 C   0  0  0  0  0  0  0  0  0  0  0  0
  -22.1200   -9.1760   20.3310 C   0  0  0  0  0  3  0  0  0  0  0  0
  -22.8740  -10.3470   20.1380 C   0  0  0  0  0  3  0  0  0  0  0  0
  -21.7330   -7.0930   21.3830 O   0  0  0  0  0  0  0  0  0  0  0  0
  -21.6220   -6.3960   22.5600 C   0  0  0  0  0  0  0  0  0  0  0  0
  -21.1420   -7.0010   23.7430 C   0  0  0  0  0  3  0  0  0  0  0  0
  -20.9770   -6.2310   24.9110 C   0  0  0  0  0  3  0  0  0  0  0  0
  -21.2830   -4.8580   24.8970 C   0  0  0  0  0  0  0  0  0  0  0  0
  -21.7560   -4.2520   23.7210 C   0  0  0  0  0  3  0  0  0  0  0  0
  -21.9230   -5.0190   22.5540 C   0  0  0  0  0  0  0  0  0  0  0  0
  -22.3590   -4.4260   21.4170 F   0  0  0  0  0  0  0  0  0  0  0  0
  -21.1180   -4.1160   26.0180 F   0  0  0  0  0  0  0  0  0  0  0  0
  -22.9950  -13.7070   21.1120 C   0  0  0  0  0  0  0  0  0  0  0  0
  -22.2920  -13.0250   22.0090 N   0  0  0  0  0  0  0  0  0  0  0  0
  -22.5600  -14.7470   20.6200 O   0  0  0  0  0  0  0  0  0  0  0  0
  -22.6560  -12.1830   22.4290 H   0  0  0  0  0  0  0  0  0  0  0  0
  -21.3750  -13.3500   22.2810 H   0  0  0  0  0  0  0  0  0  0  0  0
  -25.6360  -15.3110   20.2020 N   0  0  0  0  0  0  0  0  0  0  0  0
  -24.9000  -15.9890   20.3620 H   0  0  0  0  0  0  0  0  0  0  0  0
  -26.4940  -15.7280   19.8610 H   0  0  0  0  0  0  0  0  0  0  0  0
  -28.2070  -25.2110   20.1980 C   0  0  0  0  0  2  0  0  0  0  0  0
  -28.4060  -26.6410   20.1360 O   0  0  0  0  0  0  0  0  0  0  0  0
  -24.5420  -31.8390   23.1410 C   0  0  0  0  0  0  0  0  0  0  0  0
  -27.2440  -27.3950   20.0940 C   0  0  0  0  0  0  0  0  0  0  0  0
  -23.3640  -30.4240   21.4940 C   0  0  0  0  0  3  0  0  0  0  0  0
  -24.8410  -28.9030   20.0840 C   0  0  0  0  0  0  0  0  0  0  0  0
  -25.8910  -30.8010   21.3160 C   0  0  0  0  0  2  0  0  0  0  0  0
  -25.9950  -29.4300   20.6780 C   0  0  0  0  0  0  0  0  0  0  0  0
  -27.2020  -28.6870   20.6750 C   0  0  0  0  0  3  0  0  0  0  0  0
  -26.0650  -26.8940   19.4900 C   0  0  0  0  0  3  0  0  0  0  0  0
  -24.8730  -27.6350   19.4860 C   0  0  0  0  0  3  0  0  0  0  0  0
  -23.5910  -29.7500   20.1170 C   0  0  0  0  0  2  0  0  0  0  0  0
  -24.6180  -31.0360   22.0430 N   0  0  0  0  0  0  0  0  0  0  0  0
  -23.4540  -32.1020   23.6700 O   0  0  0  0  0  0  0  0  0  0  0  0
  -22.7140  -29.3970   22.4490 C   0  0  0  0  0  0  0  0  0  0  0  0
  -21.3930  -29.1970   22.3080 N   0  0  0  0  0  0  0  0  0  0  0  0
  -23.3960  -28.7830   23.2740 O   0  0  0  0  0  0  0  0  0  0  0  0
  -20.9060  -29.7420   21.6110 H   0  0  0  0  0  0  0  0  0  0  0  0
  -18.0340  -27.9440   22.7530 C   0  0  0  0  0  0  0  0  0  0  0  0
  -20.5800  -28.2530   23.0730 C   0  0  0  0  0  3  0  0  0  0  0  0
  -20.7210  -26.8180   22.5170 C   0  0  0  0  0  2  0  0  0  0  0  0
  -19.6470  -26.4620   21.4850 C   0  0  0  0  0  2  0  0  0  0  0  0
  -18.2490  -26.5900   22.0980 C   0  0  0  0  0  2  0  0  0  0  0  0
  -19.1290  -28.7320   23.1960 C   0  0  0  0  0  0  0  0  0  0  0  0
  -18.8760  -29.9990   23.7660 C   0  0  0  0  0  3  0  0  0  0  0  0
  -17.5590  -30.4790   23.8970 C   0  0  0  0  0  3  0  0  0  0  0  0
  -16.4770  -29.6890   23.4700 C   0  0  0  0  0  3  0  0  0  0  0  0
  -16.7150  -28.4240   22.9040 C   0  0  0  0  0  3  0  0  0  0  0  0
  -25.8170  -32.4860   23.7690 C   0  0  0  0  0  3  0  0  0  0  0  0
  -26.3510  -31.7040   25.0320 C   0  0  1  0  0  0  0  0  0  0  0  0
  -25.2640  -31.4220   26.0960 C   0  0  0  0  0  1  0  0  0  0  0  0
  -26.9610  -30.3470   24.6110 C   0  0  0  0  0  1  0  0  0  0  0  0
  -27.4860  -32.5110   25.7060 C   0  0  0  0  0  1  0  0  0  0  0  0
  -25.4820  -33.8720   24.1190 N   0  0  0  0  0  0  0  0  0  0  0  0
  -25.8140  -34.9420   23.3830 C   0  0  0  0  0  0  0  0  0  0  0  0
  -26.5060  -34.8670   22.3640 O   0  0  0  0  0  0  0  0  0  0  0  0
  -24.8730  -34.0050   24.9120 H   0  0  0  0  0  0  0  0  0  0  0  0
  -24.0840  -36.7280   23.0050 C   0  0  0  0  0  1  0  0  0  0  0  0
  -25.2960  -36.3140   23.8550 C   0  0  0  0  0  3  0  0  0  0  0  0
  -27.3880  -37.1940   24.7920 C   0  0  0  0  0  1  0  0  0  0  0  0
  -26.3220  -37.3780   23.8090 N   0  0  0  0  0  0  0  0  0  0  0  0
  -25.9020  -38.2900   23.9650 H   0  0  0  0  0  0  0  0  0  0  0  0
  1  6  2  0
  2  3  1  0
  2  4  1  0
  3  5  1  0
  4 52  1  0
  4  1  1  0
  5 12  1  0
  5  1  1  0
  8 11  1  0
  9  7  1  0
 10  8  2  0
 10 12  1  0
 11 13  1  0
 11  7  2  0
 12  9  2  0
 14 22  1  0
 15 20  1  0
 16 17  1  0
 16 15  1  0
 18 17  1  0
 18 27  1  0
 18 19  1  0
 20 14  1  0
 20 19  1  0
 21 14  2  0
 22 23  1  0
 22 13  1  0
 24 25  2  0
 25 44  1  0
 26 25  1  0
 26 29  1  0
 27 28  1  0
 27 24  1  0
 28 26  2  0
 29 30  1  0
 30 31  2  0
 32 35  1  0
 32 31  1  0
 33 32  2  0
 34 33  1  0
 34 29  2  0
 35 36  1  0
 36 37  1  0
 37 38  2  0
 39 38  1  0
 39 43  1  0
 40 39  2  0
 41 36  2  0
 41 40  1  0
 42 41  1  0
 44 45  1  0
 45 48  1  0
 45 47  1  0
 46 44  2  0
 49 50  1  0
 49 24  1  0
 51 49  1  0
 53 52  1  0
 54 65  2  0
 55 53  1  0
 55 60  1  0
 56 64  1  0
 56 66  1  0
 57 63  1  0
 57 59  1  0
 58 64  1  0
 59 58  1  0
 60 59  2  0
 61 55  2  0
 62 61  1  0
 62 57  2  0
 63 56  1  0
 64 54  1  0
 66 68  2  0
 67 66  1  0
 69 67  1  0
 70 79  2  0
 70 75  1  0
 71 67  1  0
 71 75  1  0
 72 71  1  0
 73 74  1  0
 73 72  1  0
 74 70  1  0
 75 76  2  0
 76 77  1  0
 78 77  2  0
 79 78  1  0
 80 54  1  0
 80 85  1  0
 80 81  1  0
 81 84  1  1
 81 82  1  0
 83 81  1  0
 85 88  1  0
 86 90  1  0
 86 85  1  0
 87 86  2  0
 90 89  1  0
 92 90  1  0
 92 93  1  0
 92 91  1  0
M  ISO  4  14 100  22 100  52 101  53 101
M  END
>  <TORSDO>  (57) 
F 19

>  <SCORE>  (57) 
-13.405

>  <name>  (57) 
57

>  <ligand_id>  (57) 
57

>  <original_smiles>  (57) 
[H]c1c([H])c([H])c2c(c1[H])C([H])([H])C([H])([H])C([H])([H])C2([H])N([H])C(=O)C1([H])N(C(=O)C([H])(N([H])C(=O)C([H])(N([H])C([H])([H])[H])C([H])([H])[H])C(C([H])([H])[H])(C([H])([H])[H])C([H])([H])[H])C([H])([H])c2c([H])c(OC([H])([H])C3([H])C(=O)N(c4c([H])c([H])c(C([H])([H])N([H])C(=O)N5C([H])([H])C([H])([H])C([H])([H])C([H])(n6nc(-c7c([H])c([H])c(Oc8c([H])c([H])c(F)c([H])c8F)c([H])c7[H])c(C(=O)N([H])[H])c6N([H])[H])C5([H])[H])c([H])c4[H])C([H])([H])C3([H])[H])c([H])c([H])c2C1([H])[H]

>  <smiles>  (57) 
[H]c1c([H])c([H])c2c(c1[H])C([H])([H])C([H])([H])C([H])([H])C2([H])N([H])C(=O)C1([H])N(C(=O)C([H])(N([H])C(=O)C([H])(N([H])C([H])([H])[H])C([H])([H])[H])C(C([H])([H])[H])(C([H])([H])[H])C([H])([H])[H])C([H])([H])c2c([H])c(OC([H])([H])C3([H])C(=O)N(c4c([H])c([H])c(C([H])([H])N([H])C(=O)N5C([H])([H])C([H])([H])C([H])([H])C([H])(n6nc(-c7c([H])c([H])c(Oc8c([H])c([H])c(F)c([H])c8F)c([H])c7[H])c(C(=O)N([H])[H])c6N([H])[H])C5([H])[H])c([H])c4[H])C([H])([H])C3([H])[H])c([H])c([H])c2C1([H])[H]

$$$$
58:0:0
     RDKit          3D

 93102  0  0  1  0  0  0  0  0999 V2000
  -28.8310  -22.5240   20.6040 C   0  0  0  0  0  0  0  0  0  0  0  0
  -30.4040  -23.8590   19.4380 C   0  0  0  0  0  2  0  0  0  0  0  0
  -30.8770  -22.3960   19.5930 C   0  0  0  0  0  2  0  0  0  0  0  0
  -29.2510  -24.0240   20.4280 C   0  0  0  0  0  3  0  0  0  0  0  0
  -29.7780  -21.6240   20.1850 N   0  0  0  0  0  0  0  0  0  0  0  0
  -27.7370  -22.2350   21.0960 O   0  0  0  0  0  0  0  0  0  0  0  0
  -28.6960  -19.3560   20.6970 C   0  0  0  0  0  3  0  0  0  0  0  0
  -28.7400  -17.9340   20.7860 C   0  0  0  0  0  3  0  0  0  0  0  0
  -31.0290  -17.9450   20.0850 C   0  0  0  0  0  3  0  0  0  0  0  0
  -29.8160  -20.1390   20.2940 C   0  0  0  0  0  0  0  0  0  0  0  0
  -29.9000  -17.1790   20.4750 C   0  0  0  0  0  0  0  0  0  0  0  0
  -30.9930  -19.3710   20.0010 C   0  0  0  0  0  0  0  0  0  0  0  0
  -32.1420  -19.9870   19.6360 F   0  0  0  0  0  0  0  0  0  0  0  0
  -30.6140  -14.6980   20.0950 C   0  0  0  0  0  0  0  0  0  0  0  0
  -30.3500  -12.4960   18.9680 C   0  0  0  0  0  2  0  0  0  0  0  0
  -29.3350  -12.6600   17.8150 C   0  0  0  0  0  2  0  0  0  0  0  0
  -27.8900  -12.4800   18.3240 C   0  0  0  0  0  2  0  0  0  0  0  0
  -27.6030  -13.3080   19.6040 C   0  0  0  0  0  3  0  0  0  0  0  0
  -28.7210  -13.1120   20.6530 C   0  0  0  0  0  2  0  0  0  0  0  0
  -29.9990  -13.4750   20.0170 N   0  0  0  0  0  0  0  0  0  0  0  0
  -31.7420  -14.8800   19.6260 O   0  0  0  0  0  0  0  0  0  0  0  0
  -29.8350  -15.7170   20.5770 N   0  0  0  0  0  0  0  0  0  0  0  0
  -28.9700  -15.3710   20.9620 H   0  0  0  0  0  0  0  0  0  0  0  0
  -25.2520  -13.8880   20.4700 C   0  0  0  0  0  0  0  0  0  0  0  0
  -24.2050  -13.1050   20.8750 C   0  0  0  0  0  0  0  0  0  0  0  0
  -24.6640  -11.7550   20.7780 C   0  0  0  0  0  0  0  0  0  0  0  0
  -26.2810  -13.0150   20.1530 N   0  0  0  0  0  0  0  0  0  0  0  0
  -25.9340  -11.7240   20.3980 N   0  0  0  0  0  0  0  0  0  0  0  0
  -23.9460  -10.4870   20.9690 C   0  0  0  0  0  0  0  0  0  0  0  0
  -24.3930   -9.5190   21.8970 C   0  0  0  0  0  3  0  0  0  0  0  0
  -23.6760   -8.3160   22.0760 C   0  0  0  0  0  3  0  0  0  0  0  0
  -22.4990   -8.0720   21.3280 C   0  0  0  0  0  0  0  0  0  0  0  0
  -22.0740   -9.0280   20.3890 C   0  0  0  0  0  3  0  0  0  0  0  0
  -22.7910  -10.2230   20.2080 C   0  0  0  0  0  3  0  0  0  0  0  0
  -21.7540   -6.9210   21.4170 O   0  0  0  0  0  0  0  0  0  0  0  0
  -21.6650   -6.2100   22.5860 C   0  0  0  0  0  0  0  0  0  0  0  0
  -21.1640   -6.7870   23.7730 C   0  0  0  0  0  3  0  0  0  0  0  0
  -21.0270   -6.0010   24.9350 C   0  0  0  0  0  3  0  0  0  0  0  0
  -21.3780   -4.6370   24.9090 C   0  0  0  0  0  0  0  0  0  0  0  0
  -21.8710   -4.0590   23.7260 C   0  0  0  0  0  3  0  0  0  0  0  0
  -22.0110   -4.8430   22.5670 C   0  0  0  0  0  0  0  0  0  0  0  0
  -22.4670   -4.2770   21.4230 F   0  0  0  0  0  0  0  0  0  0  0  0
  -21.2380   -3.8800   26.0210 F   0  0  0  0  0  0  0  0  0  0  0  0
  -22.8270  -13.5730   21.2390 C   0  0  0  0  0  0  0  0  0  0  0  0
  -22.1470  -12.8520   22.1240 N   0  0  0  0  0  0  0  0  0  0  0  0
  -22.3620  -14.6150   20.7760 O   0  0  0  0  0  0  0  0  0  0  0  0
  -22.5340  -12.0080   22.5170 H   0  0  0  0  0  0  0  0  0  0  0  0
  -21.2250  -13.1470   22.4110 H   0  0  0  0  0  0  0  0  0  0  0  0
  -25.4090  -15.2640   20.3240 N   0  0  0  0  0  0  0  0  0  0  0  0
  -24.6440  -15.9100   20.4830 H   0  0  0  0  0  0  0  0  0  0  0  0
  -26.2270  -15.7100   19.9290 H   0  0  0  0  0  0  0  0  0  0  0  0
  -28.1330  -25.0870   20.0260 C   0  0  0  0  0  2  0  0  0  0  0  0
  -28.3470  -26.5390   20.2410 O   0  0  0  0  0  0  0  0  0  0  0  0
  -24.6150  -31.9090   23.2900 C   0  0  0  0  0  0  0  0  0  0  0  0
  -27.2220  -27.3800   20.1950 C   0  0  0  0  0  0  0  0  0  0  0  0
  -23.4040  -30.5230   21.6440 C   0  0  0  0  0  3  0  0  0  0  0  0
  -24.8490  -28.9830   20.2040 C   0  0  0  0  0  0  0  0  0  0  0  0
  -25.9410  -30.8440   21.4540 C   0  0  0  0  0  2  0  0  0  0  0  0
  -26.0190  -29.4700   20.7990 C   0  0  0  0  0  0  0  0  0  0  0  0
  -27.2080  -28.6820   20.7830 C   0  0  0  0  0  3  0  0  0  0  0  0
  -26.0250  -26.9460   19.5750 C   0  0  0  0  0  3  0  0  0  0  0  0
  -24.8530  -27.7260   19.5840 C   0  0  0  0  0  3  0  0  0  0  0  0
  -23.6120  -29.8560   20.2600 C   0  0  0  0  0  2  0  0  0  0  0  0
  -24.6720  -31.1080   22.1870 N   0  0  0  0  0  0  0  0  0  0  0  0
  -23.5330  -32.1840   23.8300 O   0  0  0  0  0  0  0  0  0  0  0  0
  -22.7420  -29.5010   22.6000 C   0  0  0  0  0  0  0  0  0  0  0  0
  -21.4180  -29.3210   22.4680 N   0  0  0  0  0  0  0  0  0  0  0  0
  -23.4200  -28.8750   23.4180 O   0  0  0  0  0  0  0  0  0  0  0  0
  -20.9290  -29.8800   21.7820 H   0  0  0  0  0  0  0  0  0  0  0  0
  -18.0410  -28.1180   22.9540 C   0  0  0  0  0  0  0  0  0  0  0  0
  -20.5990  -28.3790   23.2320 C   0  0  0  0  0  3  0  0  0  0  0  0
  -20.7040  -26.9500   22.6510 C   0  0  0  0  0  2  0  0  0  0  0  0
  -19.6040  -26.6300   21.6320 C   0  0  0  0  0  2  0  0  0  0  0  0
  -18.2210  -26.7710   22.2730 C   0  0  0  0  0  2  0  0  0  0  0  0
  -19.1580  -28.8800   23.3890 C   0  0  0  0  0  0  0  0  0  0  0  0
  -18.9370  -30.1420   23.9840 C   0  0  0  0  0  3  0  0  0  0  0  0
  -17.6310  -30.6400   24.1510 C   0  0  0  0  0  3  0  0  0  0  0  0
  -16.5290  -29.8760   23.7300 C   0  0  0  0  0  3  0  0  0  0  0  0
  -16.7340  -28.6170   23.1370 C   0  0  0  0  0  3  0  0  0  0  0  0
  -25.9010  -32.5340   23.9140 C   0  0  0  0  0  3  0  0  0  0  0  0
  -25.6010  -33.9350   24.2390 N   0  0  0  0  0  0  0  0  0  0  0  0
  -25.9140  -34.9820   23.4640 C   0  0  0  0  0  0  0  0  0  0  0  0
  -26.5580  -34.8710   22.4170 O   0  0  0  0  0  0  0  0  0  0  0  0
  -25.0310  -34.0980   25.0560 H   0  0  0  0  0  0  0  0  0  0  0  0
  -24.1620  -36.7600   23.1610 C   0  0  0  0  0  1  0  0  0  0  0  0
  -25.4390  -36.3740   23.9250 C   0  0  0  0  0  3  0  0  0  0  0  0
  -27.5990  -37.2830   24.6590 C   0  0  0  0  0  1  0  0  0  0  0  0
  -26.4600  -37.4300   23.7560 N   0  0  0  0  0  0  0  0  0  0  0  0
  -26.0530  -38.3490   23.9070 H   0  0  0  0  0  0  0  0  0  0  0  0
  -26.4080  -31.7630   25.1930 C   0  0  1  0  0  0  0  0  0  0  0  0
  -25.3100  -31.5330   26.2570 C   0  0  0  0  0  1  0  0  0  0  0  0
  -26.9880  -30.3830   24.8040 C   0  0  0  0  0  1  0  0  0  0  0  0
  -27.5590  -32.5550   25.8590 C   0  0  0  0  0  1  0  0  0  0  0  0
  1  6  2  0
  2  3  1  0
  2  4  1  0
  3  5  1  0
  4 52  1  0
  4  1  1  0
  5 10  1  0
  5  1  1  0
  7  8  1  0
  9 11  1  0
 10  7  2  0
 11 22  1  0
 11  8  2  0
 12  9  2  0
 12 10  1  0
 13 12  1  0
 14 22  1  0
 15 20  1  0
 16 17  1  0
 16 15  1  0
 18 17  1  0
 18 27  1  0
 18 19  1  0
 20 14  1  0
 20 19  1  0
 21 14  2  0
 22 23  1  0
 24 25  2  0
 25 44  1  0
 26 25  1  0
 26 29  1  0
 27 28  1  0
 27 24  1  0
 28 26  2  0
 29 30  1  0
 30 31  2  0
 32 35  1  0
 32 31  1  0
 33 32  2  0
 34 33  1  0
 34 29  2  0
 35 36  1  0
 36 37  1  0
 37 38  2  0
 39 38  1  0
 39 43  1  0
 40 39  2  0
 41 36  2  0
 41 40  1  0
 42 41  1  0
 44 45  1  0
 45 48  1  0
 45 47  1  0
 46 44  2  0
 49 24  1  0
 49 50  1  0
 51 49  1  0
 52 53  1  0
 54 65  2  0
 55 53  1  0
 55 60  1  0
 56 64  1  0
 56 66  1  0
 57 63  1  0
 57 59  1  0
 58 64  1  0
 59 58  1  0
 60 59  2  0
 61 62  1  0
 61 55  2  0
 62 57  2  0
 63 56  1  0
 64 54  1  0
 66 68  2  0
 67 66  1  0
 69 67  1  0
 70 79  2  0
 70 75  1  0
 71 67  1  0
 71 75  1  0
 72 71  1  0
 73 74  1  0
 73 72  1  0
 74 70  1  0
 75 76  2  0
 76 77  1  0
 78 77  2  0
 79 78  1  0
 80 54  1  0
 80 81  1  0
 80 90  1  0
 81 84  1  0
 82 86  1  0
 82 81  1  0
 83 82  2  0
 86 85  1  0
 88 89  1  0
 88 86  1  0
 88 87  1  0
 90 93  1  1
 90 91  1  0
 92 90  1  0
M  ISO  4  14 100  22 100  52 101  53 101
M  END
>  <TORSDO>  (58) 
F 18

>  <SCORE>  (58) 
-14.643

>  <name>  (58) 
58

>  <ligand_id>  (58) 
58

>  <original_smiles>  (58) 
[H]c1c([H])c([H])c2c(c1[H])C([H])([H])C([H])([H])C([H])([H])C2([H])N([H])C(=O)C1([H])N(C(=O)C([H])(N([H])C(=O)C([H])(N([H])C([H])([H])[H])C([H])([H])[H])C(C([H])([H])[H])(C([H])([H])[H])C([H])([H])[H])C([H])([H])c2c([H])c(OC([H])([H])C3([H])C(=O)N(c4c([H])c([H])c(N([H])C(=O)N5C([H])([H])C([H])([H])C([H])([H])C([H])(n6nc(-c7c([H])c([H])c(Oc8c([H])c([H])c(F)c([H])c8F)c([H])c7[H])c(C(=O)N([H])[H])c6N([H])[H])C5([H])[H])c([H])c4F)C([H])([H])C3([H])[H])c([H])c([H])c2C1([H])[H]

>  <smiles>  (58) 
[H]c1c([H])c([H])c2c(c1[H])C([H])([H])C([H])([H])C([H])([H])C2([H])N([H])C(=O)C1([H])N(C(=O)C([H])(N([H])C(=O)C([H])(N([H])C([H])([H])[H])C([H])([H])[H])C(C([H])([H])[H])(C([H])([H])[H])C([H])([H])[H])C([H])([H])c2c([H])c(OC([H])([H])C3([H])C(=O)N(c4c([H])c([H])c(N([H])C(=O)N5C([H])([H])C([H])([H])C([H])([H])C([H])(n6nc(-c7c([H])c([H])c(Oc8c([H])c([H])c(F)c([H])c8F)c([H])c7[H])c(C(=O)N([H])[H])c6N([H])[H])C5([H])[H])c([H])c4F)C([H])([H])C3([H])[H])c([H])c([H])c2C1([H])[H]

$$$$
59:0:0
     RDKit          3D

 91 99  0  0  1  0  0  0  0  0999 V2000
  -28.1090  -21.9760   21.7310 O   0  0  0  0  0  0  0  0  0  0  0  0
  -30.5840  -22.3630   21.5270 O   0  0  0  0  0  0  0  0  0  0  0  0
  -29.3450  -21.8270   20.9390 S   0  0  1  0  0  0  0  0  0  0  0  0
  -28.7490  -17.6950   20.8120 C   0  0  0  0  0  3  0  0  0  0  0  0
  -31.0960  -18.0090   20.3470 C   0  0  0  0  0  3  0  0  0  0  0  0
  -28.5470  -19.1000   20.8320 C   0  0  0  0  0  3  0  0  0  0  0  0
  -30.8980  -19.4280   20.3850 C   0  0  0  0  0  3  0  0  0  0  0  0
  -30.0180  -17.1090   20.5900 C   0  0  0  0  0  0  0  0  0  0  0  0
  -29.6210  -20.0000   20.6480 C   0  0  0  0  0  0  0  0  0  0  0  0
  -30.8450  -14.6950   20.0690 C   0  0  0  0  0  0  0  0  0  0  0  0
  -30.5730  -12.5120   18.9030 C   0  0  0  0  0  2  0  0  0  0  0  0
  -29.5620  -12.7140   17.7500 C   0  0  0  0  0  2  0  0  0  0  0  0
  -28.1100  -12.5550   18.2460 C   0  0  0  0  0  2  0  0  0  0  0  0
  -27.8310  -13.3500   19.5510 C   0  0  0  0  0  3  0  0  0  0  0  0
  -28.9480  -13.1020   20.5910 C   0  0  0  0  0  2  0  0  0  0  0  0
  -30.2350  -13.4720   19.9720 N   0  0  0  0  0  0  0  0  0  0  0  0
  -31.9480  -14.9180   19.5580 O   0  0  0  0  0  0  0  0  0  0  0  0
  -30.0890  -15.6570   20.6710 N   0  0  0  0  0  0  0  0  0  0  0  0
  -29.2870  -15.2400   21.1180 H   0  0  0  0  0  0  0  0  0  0  0  0
  -25.4700  -13.9330   20.3910 C   0  0  0  0  0  0  0  0  0  0  0  0
  -24.4240  -13.1510   20.8000 C   0  0  0  0  0  0  0  0  0  0  0  0
  -24.8840  -11.8000   20.7130 C   0  0  0  0  0  0  0  0  0  0  0  0
  -26.5040  -13.0590   20.0890 N   0  0  0  0  0  0  0  0  0  0  0  0
  -26.1560  -11.7710   20.3390 N   0  0  0  0  0  0  0  0  0  0  0  0
  -24.1670  -10.5350   20.9110 C   0  0  0  0  0  0  0  0  0  0  0  0
  -24.5850   -9.5910   21.8760 C   0  0  0  0  0  3  0  0  0  0  0  0
  -23.8700   -8.3880   22.0590 C   0  0  0  0  0  3  0  0  0  0  0  0
  -22.7210   -8.1190   21.2760 C   0  0  0  0  0  0  0  0  0  0  0  0
  -22.3230   -9.0490   20.3000 C   0  0  0  0  0  3  0  0  0  0  0  0
  -23.0400  -10.2450   20.1160 C   0  0  0  0  0  3  0  0  0  0  0  0
  -21.9810   -6.9660   21.3670 O   0  0  0  0  0  0  0  0  0  0  0  0
  -21.8240   -6.3030   22.5580 C   0  0  0  0  0  0  0  0  0  0  0  0
  -21.2470   -6.9230   23.6880 C   0  0  0  0  0  3  0  0  0  0  0  0
  -21.0430   -6.1830   24.8700 C   0  0  0  0  0  3  0  0  0  0  0  0
  -21.4040   -4.8230   24.9210 C   0  0  0  0  0  0  0  0  0  0  0  0
  -21.9740   -4.2030   23.7960 C   0  0  0  0  0  3  0  0  0  0  0  0
  -22.1800   -4.9390   22.6160 C   0  0  0  0  0  0  0  0  0  0  0  0
  -22.7090   -4.3310   21.5280 F   0  0  0  0  0  0  0  0  0  0  0  0
  -21.2010   -4.1090   26.0540 F   0  0  0  0  0  0  0  0  0  0  0  0
  -23.0420  -13.6190   21.1530 C   0  0  0  0  0  0  0  0  0  0  0  0
  -22.3550  -12.8990   22.0330 N   0  0  0  0  0  0  0  0  0  0  0  0
  -22.5780  -14.6580   20.6850 O   0  0  0  0  0  0  0  0  0  0  0  0
  -22.7420  -12.0570   22.4350 H   0  0  0  0  0  0  0  0  0  0  0  0
  -21.4290  -13.1920   22.3100 H   0  0  0  0  0  0  0  0  0  0  0  0
  -25.6220  -15.3070   20.2310 N   0  0  0  0  0  0  0  0  0  0  0  0
  -24.8420  -15.9460   20.3510 H   0  0  0  0  0  0  0  0  0  0  0  0
  -26.4260  -15.7430   19.7960 H   0  0  0  0  0  0  0  0  0  0  0  0
  -29.0680  -22.7770   19.3480 C   0  0  0  0  0  2  0  0  0  0  0  0
  -28.3410  -24.1990   19.3710 C   0  0  0  0  0  2  0  0  0  0  0  0
  -28.6460  -25.3140   20.4330 C   0  0  0  0  0  2  0  0  0  0  0  0
  -28.5460  -26.7190   20.0140 O   0  0  0  0  0  0  0  0  0  0  0  0
  -24.6640  -31.8760   23.1830 C   0  0  0  0  0  0  0  0  0  0  0  0
  -27.3510  -27.4340   20.0730 C   0  0  0  0  0  0  0  0  0  0  0  0
  -23.4730  -30.4900   21.5190 C   0  0  0  0  0  3  0  0  0  0  0  0
  -24.9410  -28.9640   20.0810 C   0  0  0  0  0  0  0  0  0  0  0  0
  -25.9980  -30.8540   21.3280 C   0  0  0  0  0  2  0  0  0  0  0  0
  -26.0960  -29.4790   20.6840 C   0  0  0  0  0  0  0  0  0  0  0  0
  -27.3020  -28.7280   20.6660 C   0  0  0  0  0  3  0  0  0  0  0  0
  -26.1750  -26.9480   19.4610 C   0  0  0  0  0  3  0  0  0  0  0  0
  -24.9800  -27.7020   19.4590 C   0  0  0  0  0  3  0  0  0  0  0  0
  -23.6910  -29.8190   20.1330 C   0  0  0  0  0  2  0  0  0  0  0  0
  -24.7310  -31.0890   22.0680 N   0  0  0  0  0  0  0  0  0  0  0  0
  -23.5810  -32.1320   23.7290 O   0  0  0  0  0  0  0  0  0  0  0  0
  -22.8210  -29.4580   22.4680 C   0  0  0  0  0  0  0  0  0  0  0  0
  -21.4960  -29.2770   22.3440 N   0  0  0  0  0  0  0  0  0  0  0  0
  -23.5070  -28.8190   23.2710 O   0  0  0  0  0  0  0  0  0  0  0  0
  -21.0010  -29.8430   21.6700 H   0  0  0  0  0  0  0  0  0  0  0  0
  -18.1240  -28.0850   22.8560 C   0  0  0  0  0  0  0  0  0  0  0  0
  -20.6870  -28.3230   23.1040 C   0  0  0  0  0  3  0  0  0  0  0  0
  -20.7740  -26.9060   22.4890 C   0  0  0  0  0  2  0  0  0  0  0  0
  -19.6590  -26.6160   21.4800 C   0  0  0  0  0  2  0  0  0  0  0  0
  -18.2860  -26.7530   22.1430 C   0  0  0  0  0  2  0  0  0  0  0  0
  -19.2520  -28.8300   23.2920 C   0  0  0  0  0  0  0  0  0  0  0  0
  -19.0450  -30.0800   23.9150 C   0  0  0  0  0  3  0  0  0  0  0  0
  -17.7450  -30.5840   24.1080 C   0  0  0  0  0  3  0  0  0  0  0  0
  -16.6330  -29.8360   23.6850 C   0  0  0  0  0  3  0  0  0  0  0  0
  -16.8240  -28.5880   23.0640 C   0  0  0  0  0  3  0  0  0  0  0  0
  -25.9440  -32.5070   23.8160 C   0  0  0  0  0  3  0  0  0  0  0  0
  -26.4520  -31.7320   25.0940 C   0  0  1  0  0  0  0  0  0  0  0  0
  -25.3480  -31.4910   26.1510 C   0  0  0  0  0  1  0  0  0  0  0  0
  -27.0380  -30.3590   24.6960 C   0  0  0  0  0  1  0  0  0  0  0  0
  -27.5960  -32.5240   25.7680 C   0  0  0  0  0  1  0  0  0  0  0  0
  -25.6350  -33.9030   24.1470 N   0  0  0  0  0  0  0  0  0  0  0  0
  -25.9900  -34.9590   23.3990 C   0  0  0  0  0  0  0  0  0  0  0  0
  -26.6800  -34.8560   22.3820 O   0  0  0  0  0  0  0  0  0  0  0  0
  -25.0240  -34.0570   24.9370 H   0  0  0  0  0  0  0  0  0  0  0  0
  -24.2870  -36.7640   23.0030 C   0  0  0  0  0  1  0  0  0  0  0  0
  -25.4980  -36.3470   23.8520 C   0  0  0  0  0  3  0  0  0  0  0  0
  -27.6100  -37.2130   24.7590 C   0  0  0  0  0  1  0  0  0  0  0  0
  -26.5440  -37.3920   23.7780 N   0  0  0  0  0  0  0  0  0  0  0  0
  -26.1380  -38.3150   23.9130 H   0  0  0  0  0  0  0  0  0  0  0  0
  3  2  2  0
  3  1  2  0
  4  6  1  0
  5  7  2  0
  5  8  1  0
  7  9  1  0
  8 18  1  0
  8  4  2  0
  9  6  2  0
  9  3  1  0
 10 18  1  0
 11 16  1  0
 12 13  1  0
 12 11  1  0
 14 13  1  0
 14 23  1  0
 14 15  1  0
 16 10  1  0
 16 15  1  0
 17 10  2  0
 18 19  1  0
 20 21  2  0
 21 40  1  0
 22 21  1  0
 22 25  1  0
 23 24  1  0
 23 20  1  0
 24 22  2  0
 25 26  1  0
 26 27  2  0
 28 31  1  0
 28 27  1  0
 29 28  2  0
 30 29  1  0
 30 25  2  0
 31 32  1  0
 32 37  2  0
 32 33  1  0
 33 34  2  0
 34 35  1  0
 35 39  1  0
 36 35  2  0
 37 36  1  0
 38 37  1  0
 40 41  1  0
 41 44  1  0
 41 43  1  0
 42 40  2  0
 45 46  1  0
 45 20  1  0
 47 45  1  0
 48 49  1  0
  3 48  1  6
 49 50  1  0
 51 53  1  0
 51 50  1  0
 52 63  2  0
 53 58  1  0
 54 62  1  0
 54 64  1  0
 55 61  1  0
 55 57  1  0
 56 62  1  0
 57 56  1  0
 58 57  2  0
 59 53  2  0
 60 59  1  0
 60 55  2  0
 61 54  1  0
 62 52  1  0
 64 66  2  0
 65 64  1  0
 67 65  1  0
 68 77  2  0
 68 73  1  0
 69 65  1  0
 69 73  1  0
 70 69  1  0
 71 72  1  0
 71 70  1  0
 72 68  1  0
 73 74  2  0
 74 75  1  0
 76 75  2  0
 77 76  1  0
 78 52  1  0
 78 83  1  0
 78 79  1  0
 79 82  1  1
 79 80  1  0
 81 79  1  0
 83 86  1  0
 84 88  1  0
 84 83  1  0
 85 84  2  0
 88 87  1  0
 90 88  1  0
 90 91  1  0
 90 89  1  0
M  ISO  4  10 100  18 100  50 101  51 101
M  END
>  <TORSDO>  (59) 
F 20

>  <SCORE>  (59) 
-13.453

>  <name>  (59) 
59

>  <ligand_id>  (59) 
59

>  <original_smiles>  (59) 
[H]c1c([H])c([H])c2c(c1[H])C([H])([H])C([H])([H])C([H])([H])C2([H])N([H])C(=O)C1([H])N(C(=O)C([H])(N([H])C(=O)C([H])(N([H])C([H])([H])[H])C([H])([H])[H])C(C([H])([H])[H])(C([H])([H])[H])C([H])([H])[H])C([H])([H])c2c([H])c(OC([H])([H])C([H])([H])C([H])([H])S(=O)(=O)c3c([H])c([H])c(N([H])C(=O)N4C([H])([H])C([H])([H])C([H])([H])C([H])(n5nc(-c6c([H])c([H])c(Oc7c([H])c([H])c(F)c([H])c7F)c([H])c6[H])c(C(=O)N([H])[H])c5N([H])[H])C4([H])[H])c([H])c3[H])c([H])c([H])c2C1([H])[H]

>  <smiles>  (59) 
[H]c1c([H])c([H])c2c(c1[H])C([H])([H])C([H])([H])C([H])([H])C2([H])N([H])C(=O)C1([H])N(C(=O)C([H])(N([H])C(=O)C([H])(N([H])C([H])([H])[H])C([H])([H])[H])C(C([H])([H])[H])(C([H])([H])[H])C([H])([H])[H])C([H])([H])c2c([H])c(OC([H])([H])C([H])([H])C([H])([H])S(=O)(=O)c3c([H])c([H])c(N([H])C(=O)N4C([H])([H])C([H])([H])C([H])([H])C([H])(n5nc(-c6c([H])c([H])c(Oc7c([H])c([H])c(F)c([H])c7F)c([H])c6[H])c(C(=O)N([H])[H])c5N([H])[H])C4([H])[H])c([H])c3[H])c([H])c([H])c2C1([H])[H]

$$$$
60:0:0
     RDKit          3D

100110  0  0  1  0  0  0  0  0999 V2000
  -29.8280  -22.2370   19.6940 N   0  0  0  0  0  4  0  0  0  0  0  0
  -30.7420  -22.1520   20.1070 H   0  0  0  0  0  0  0  0  0  0  0  0
  -29.1590  -22.2320   20.4450 H   0  0  0  0  0  0  0  0  0  0  0  0
  -31.2300  -19.3130   19.9420 C   0  0  0  0  0  3  0  0  0  0  0  0
  -31.3500  -18.0180   20.4980 C   0  0  0  0  0  3  0  0  0  0  0  0
  -29.9560  -19.7640   19.5440 C   0  0  0  0  0  0  0  0  0  0  0  0
  -28.8350  -18.9600   19.7160 C   0  0  0  0  0  0  0  0  0  0  0  0
  -30.2090  -17.1800   20.6320 C   0  0  0  0  0  0  0  0  0  0  0  0
  -28.9370  -17.6700   20.2650 C   0  0  0  0  0  0  0  0  0  0  0  0
  -27.5910  -19.6220   19.1880 C   0  0  0  0  0  2  0  0  0  0  0  0
  -28.1230  -20.8720   18.4440 C   0  0  0  0  0  2  0  0  0  0  0  0
  -29.6180  -21.0560   18.8310 C   0  0  0  0  0  3  0  0  0  0  0  0
  -27.8440  -16.8840   20.3980 F   0  0  0  0  0  0  0  0  0  0  0  0
  -30.9600  -14.8570   20.5120 C   0  0  0  0  0  0  0  0  0  0  0  0
  -30.7680  -12.5990   19.5470 C   0  0  0  0  0  2  0  0  0  0  0  0
  -29.8840  -12.6660   18.2850 C   0  0  0  0  0  2  0  0  0  0  0  0
  -28.3930  -12.5260   18.6530 C   0  0  0  0  0  2  0  0  0  0  0  0
  -27.9700  -13.4720   19.8090 C   0  0  0  0  0  3  0  0  0  0  0  0
  -28.9690  -13.3770   20.9840 C   0  0  0  0  0  2  0  0  0  0  0  0
  -30.3220  -13.6570   20.4670 N   0  0  0  0  0  0  0  0  0  0  0  0
  -32.0680  -15.0480   20.0020 O   0  0  0  0  0  0  0  0  0  0  0  0
  -30.2700  -15.8430   21.1040 N   0  0  0  0  0  0  0  0  0  0  0  0
  -29.4130  -15.5220   21.5280 H   0  0  0  0  0  0  0  0  0  0  0  0
  -25.5530  -14.0910   20.4600 C   0  0  0  0  0  0  0  0  0  0  0  0
  -24.4670  -13.3210   20.7790 C   0  0  0  0  0  0  0  0  0  0  0  0
  -24.9160  -11.9670   20.7290 C   0  0  0  0  0  0  0  0  0  0  0  0
  -26.5990  -13.2050   20.2420 N   0  0  0  0  0  0  0  0  0  0  0  0
  -26.2140  -11.9210   20.4570 N   0  0  0  0  0  0  0  0  0  0  0  0
  -24.1710  -10.7090   20.8720 C   0  0  0  0  0  0  0  0  0  0  0  0
  -24.5560   -9.7240   21.8070 C   0  0  0  0  0  3  0  0  0  0  0  0
  -23.8120   -8.5310   21.9380 C   0  0  0  0  0  3  0  0  0  0  0  0
  -22.6710   -8.3160   21.1310 C   0  0  0  0  0  0  0  0  0  0  0  0
  -22.3040   -9.2900   20.1850 C   0  0  0  0  0  3  0  0  0  0  0  0
  -23.0480  -10.4740   20.0540 C   0  0  0  0  0  3  0  0  0  0  0  0
  -21.9030   -7.1770   21.1690 O   0  0  0  0  0  0  0  0  0  0  0  0
  -21.7420   -6.4550   22.3250 C   0  0  0  0  0  0  0  0  0  0  0  0
  -21.1710   -7.0250   23.4850 C   0  0  0  0  0  3  0  0  0  0  0  0
  -20.9600   -6.2300   24.6280 C   0  0  0  0  0  3  0  0  0  0  0  0
  -21.3080   -4.8660   24.6130 C   0  0  0  0  0  0  0  0  0  0  0  0
  -21.8720   -4.2960   23.4580 C   0  0  0  0  0  3  0  0  0  0  0  0
  -22.0850   -5.0880   22.3150 C   0  0  0  0  0  0  0  0  0  0  0  0
  -22.6080   -4.5300   21.1980 F   0  0  0  0  0  0  0  0  0  0  0  0
  -21.0970   -4.1000   25.7080 F   0  0  0  0  0  0  0  0  0  0  0  0
  -23.0690  -13.8100   21.0310 C   0  0  0  0  0  0  0  0  0  0  0  0
  -22.3240  -13.1210   21.8880 N   0  0  0  0  0  0  0  0  0  0  0  0
  -22.6450  -14.8390   20.5050 O   0  0  0  0  0  0  0  0  0  0  0  0
  -22.6770  -12.2900   22.3380 H   0  0  0  0  0  0  0  0  0  0  0  0
  -21.3850  -13.4310   22.0980 H   0  0  0  0  0  0  0  0  0  0  0  0
  -25.7320  -15.4620   20.3270 N   0  0  0  0  0  0  0  0  0  0  0  0
  -24.9790  -16.1160   20.5050 H   0  0  0  0  0  0  0  0  0  0  0  0
  -26.6420  -15.9120   20.2940 H   0  0  0  0  0  0  0  0  0  0  0  0
  -29.7840  -23.5280   18.9730 C   0  0  0  0  0  2  0  0  0  0  0  0
  -31.6750  -25.9280   21.2740 C   0  0  0  0  0  3  0  0  0  0  0  0
  -30.6870  -26.8530   21.6480 C   0  0  0  0  0  3  0  0  0  0  0  0
  -31.3490  -24.8660   20.4110 C   0  0  0  0  0  3  0  0  0  0  0  0
  -29.3780  -26.7130   21.1530 C   0  0  0  0  0  3  0  0  0  0  0  0
  -30.0340  -24.7070   19.9110 C   0  0  0  0  0  0  0  0  0  0  0  0
  -29.0330  -25.6540   20.2830 C   0  0  0  0  0  0  0  0  0  0  0  0
  -27.5900  -25.6300   19.7850 C   0  0  0  0  0  2  0  0  0  0  0  0
  -27.3590  -26.6900   18.8610 O   0  0  0  0  0  0  0  0  0  0  0  0
  -24.5930  -31.6060   23.1730 C   0  0  0  0  0  0  0  0  0  0  0  0
  -26.2770  -27.4780   19.1590 C   0  0  0  0  0  0  0  0  0  0  0  0
  -23.0130  -30.5650   21.5770 C   0  0  0  0  0  3  0  0  0  0  0  0
  -24.0710  -29.1320   19.7500 C   0  0  0  0  0  0  0  0  0  0  0  0
  -25.5010  -30.7470   21.0190 C   0  0  0  0  0  2  0  0  0  0  0  0
  -25.3490  -29.4800   20.2040 C   0  0  0  0  0  0  0  0  0  0  0  0
  -26.4570  -28.6610   19.9030 C   0  0  0  0  0  3  0  0  0  0  0  0
  -24.9870  -27.1290   18.7090 C   0  0  0  0  0  3  0  0  0  0  0  0
  -23.8820  -27.9540   19.0020 C   0  0  0  0  0  3  0  0  0  0  0  0
  -22.9400  -30.0720   20.1070 C   0  0  0  0  0  2  0  0  0  0  0  0
  -24.3970  -30.9770   21.9800 N   0  0  0  0  0  0  0  0  0  0  0  0
  -23.6410  -31.8870   23.9130 O   0  0  0  0  0  0  0  0  0  0  0  0
  -22.4080  -29.4750   22.4900 C   0  0  0  0  0  0  0  0  0  0  0  0
  -21.0750  -29.3240   22.4370 N   0  0  0  0  0  0  0  0  0  0  0  0
  -23.1320  -28.7710   23.1990 O   0  0  0  0  0  0  0  0  0  0  0  0
  -20.5530  -29.9450   21.8340 H   0  0  0  0  0  0  0  0  0  0  0  0
  -17.7480  -27.9930   22.8800 C   0  0  0  0  0  0  0  0  0  0  0  0
  -20.2910  -28.3360   23.1750 C   0  0  0  0  0  3  0  0  0  0  0  0
  -20.4500  -26.9250   22.5580 C   0  0  0  0  0  2  0  0  0  0  0  0
  -19.3650  -26.5920   21.5280 C   0  0  0  0  0  2  0  0  0  0  0  0
  -17.9760  -26.6700   22.1690 C   0  0  0  0  0  2  0  0  0  0  0  0
  -18.8350  -28.7820   23.3380 C   0  0  0  0  0  0  0  0  0  0  0  0
  -18.5680  -30.0200   23.9610 C   0  0  0  0  0  3  0  0  0  0  0  0
  -17.2450  -30.4690   24.1310 C   0  0  0  0  0  3  0  0  0  0  0  0
  -16.1710  -29.6760   23.6900 C   0  0  0  0  0  3  0  0  0  0  0  0
  -16.4240  -28.4400   23.0700 C   0  0  0  0  0  3  0  0  0  0  0  0
  -26.0190  -32.0270   23.6530 C   0  0  0  0  0  3  0  0  0  0  0  0
  -26.6430  -31.0260   24.7010 C   0  0  1  0  0  0  0  0  0  0  0  0
  -25.7120  -30.7200   25.8990 C   0  0  0  0  0  1  0  0  0  0  0  0
  -27.0010  -29.6810   24.0270 C   0  0  0  0  0  1  0  0  0  0  0  0
  -27.9630  -31.6070   25.2600 C   0  0  0  0  0  1  0  0  0  0  0  0
  -25.9130  -33.3770   24.2200 N   0  0  0  0  0  0  0  0  0  0  0  0
  -26.3370  -34.4920   23.6110 C   0  0  0  0  0  0  0  0  0  0  0  0
  -26.9310  -34.4800   22.5290 O   0  0  0  0  0  0  0  0  0  0  0  0
  -25.3880  -33.4670   25.0760 H   0  0  0  0  0  0  0  0  0  0  0  0
  -24.8670  -36.5320   23.6390 C   0  0  0  0  0  1  0  0  0  0  0  0
  -26.0580  -35.8350   24.3140 C   0  0  0  0  0  3  0  0  0  0  0  0
  -28.3100  -36.2790   25.1860 C   0  0  0  0  0  1  0  0  0  0  0  0
  -27.2240  -36.7450   24.3270 N   0  0  0  0  0  0  0  0  0  0  0  0
  -26.9530  -37.6740   24.6340 H   0  0  0  0  0  0  0  0  0  0  0  0
  1  2  1  0
  1  3  1  0
  4  5  1  0
  5  8  2  0
  6  7  1  0
  6  4  2  0
  7  9  2  0
  8 22  1  0
  9 13  1  0
  9  8  1  0
 10  7  1  0
 11 12  1  0
 11 10  1  0
 12  6  1  0
 12  1  1  0
 14 22  1  0
 15 20  1  0
 16 17  1  0
 16 15  1  0
 18 17  1  0
 18 27  1  0
 18 19  1  0
 20 14  1  0
 20 19  1  0
 21 14  2  0
 22 23  1  0
 24 25  2  0
 25 44  1  0
 26 25  1  0
 26 29  1  0
 27 28  1  0
 27 24  1  0
 28 26  2  0
 29 30  1  0
 30 31  2  0
 32 35  1  0
 32 31  1  0
 33 32  2  0
 34 33  1  0
 34 29  2  0
 35 36  1  0
 36 37  1  0
 37 38  2  0
 39 38  1  0
 39 43  1  0
 40 39  2  0
 41 36  2  0
 41 40  1  0
 42 41  1  0
 44 45  1  0
 45 48  1  0
 45 47  1  0
 46 44  2  0
 49 24  1  0
 49 50  1  0
 51 49  1  0
 52  1  1  0
 52 57  1  0
 53 54  1  0
 55 53  2  0
 56 54  2  0
 57 58  2  0
 57 55  1  0
 58 56  1  0
 59 58  1  0
 60 62  1  0
 60 59  1  0
 61 72  2  0
 62 67  1  0
 63 71  1  0
 63 73  1  0
 64 70  1  0
 64 66  1  0
 65 71  1  0
 66 65  1  0
 67 66  2  0
 68 69  1  0
 68 62  2  0
 69 64  2  0
 70 63  1  0
 71 61  1  0
 73 75  2  0
 74 73  1  0
 76 74  1  0
 77 86  2  0
 77 82  1  0
 78 74  1  0
 78 82  1  0
 79 78  1  0
 80 81  1  0
 80 79  1  0
 81 77  1  0
 82 83  2  0
 83 84  1  0
 85 84  2  0
 86 85  1  0
 87 61  1  0
 87 92  1  0
 87 88  1  0
 88 91  1  1
 88 89  1  0
 90 88  1  0
 92 95  1  0
 93 92  1  0
 93 97  1  0
 94 93  2  0
 97 96  1  0
 97 99  1  0
 99100  1  0
 99 98  1  0
M  ISO  4  14 100  22 100  59 101  60 101
M  END
>  <TORSDO>  (60) 
F 20

>  <SCORE>  (60) 
-13.061

>  <name>  (60) 
60

>  <ligand_id>  (60) 
60

>  <original_smiles>  (60) 
[H]c1c([H])c([H])c(C([H])([H])[N+]([H])([H])C2([H])c3c([H])c([H])c(N([H])C(=O)N4C([H])([H])C([H])([H])C([H])([H])C([H])(n5nc(-c6c([H])c([H])c(Oc7c([H])c([H])c(F)c([H])c7F)c([H])c6[H])c(C(=O)N([H])[H])c5N([H])[H])C4([H])[H])c(F)c3C([H])([H])C2([H])[H])c(C([H])([H])Oc2c([H])c([H])c3c(c2[H])C([H])([H])N(C(=O)C([H])(N([H])C(=O)C([H])(N([H])C([H])([H])[H])C([H])([H])[H])C(C([H])([H])[H])(C([H])([H])[H])C([H])([H])[H])C([H])(C(=O)N([H])C2([H])c4c([H])c([H])c([H])c([H])c4C([H])([H])C([H])([H])C2([H])[H])C3([H])[H])c1[H]

>  <smiles>  (60) 
[H]c1c([H])c([H])c(C([H])([H])[N+]([H])([H])C2([H])c3c([H])c([H])c(N([H])C(=O)N4C([H])([H])C([H])([H])C([H])([H])C([H])(n5nc(-c6c([H])c([H])c(Oc7c([H])c([H])c(F)c([H])c7F)c([H])c6[H])c(C(=O)N([H])[H])c5N([H])[H])C4([H])[H])c(F)c3C([H])([H])C2([H])[H])c(C([H])([H])Oc2c([H])c([H])c3c(c2[H])C([H])([H])N(C(=O)C([H])(N([H])C(=O)C([H])(N([H])C([H])([H])[H])C([H])([H])[H])C(C([H])([H])[H])(C([H])([H])[H])C([H])([H])[H])C([H])(C(=O)N([H])C2([H])c4c([H])c([H])c([H])c([H])c4C([H])([H])C([H])([H])C2([H])[H])C3([H])[H])c1[H]

$$$$
61:0:0
     RDKit          3D

 94102  0  0  1  0  0  0  0  0999 V2000
  -31.1270  -21.1240   19.8420 C   0  0  0  0  0  2  0  0  0  0  0  0
  -31.5920  -18.8640   20.9680 C   0  0  0  0  0  3  0  0  0  0  0  0
  -29.5800  -19.0870   19.6300 C   0  0  0  0  0  3  0  0  0  0  0  0
  -30.7400  -19.6730   20.1800 C   0  0  0  0  0  0  0  0  0  0  0  0
  -30.1740  -16.8980   20.5830 C   0  0  0  0  0  0  0  0  0  0  0  0
  -31.3130  -17.4950   21.1760 C   0  0  0  0  0  0  0  0  0  0  0  0
  -29.2990  -17.7160   19.8270 C   0  0  0  0  0  0  0  0  0  0  0  0
  -32.1430  -16.7620   21.9580 F   0  0  0  0  0  0  0  0  0  0  0  0
  -27.8900  -17.0510   19.0850 Cl  0  0  0  0  0  0  0  0  0  0  0  0
  -30.5690  -14.5000   20.1870 C   0  0  0  0  0  0  0  0  0  0  0  0
  -30.1950  -12.3910   18.9700 C   0  0  0  0  0  2  0  0  0  0  0  0
  -29.1980  -12.6530   17.8230 C   0  0  0  0  0  2  0  0  0  0  0  0
  -27.7450  -12.5050   18.3170 C   0  0  0  0  0  2  0  0  0  0  0  0
  -27.4750  -13.2870   19.6310 C   0  0  0  0  0  3  0  0  0  0  0  0
  -28.5830  -13.0170   20.6740 C   0  0  0  0  0  2  0  0  0  0  0  0
  -29.8810  -13.3330   20.0540 N   0  0  0  0  0  0  0  0  0  0  0  0
  -31.6800  -14.6770   19.6830 O   0  0  0  0  0  0  0  0  0  0  0  0
  -29.8820  -15.5080   20.7550 N   0  0  0  0  0  0  0  0  0  0  0  0
  -28.9360  -15.2840   21.0130 H   0  0  0  0  0  0  0  0  0  0  0  0
  -25.1070  -13.8820   20.4470 C   0  0  0  0  0  0  0  0  0  0  0  0
  -24.0560  -13.1030   20.8510 C   0  0  0  0  0  0  0  0  0  0  0  0
  -24.5180  -11.7540   20.7810 C   0  0  0  0  0  0  0  0  0  0  0  0
  -26.1440  -13.0060   20.1620 N   0  0  0  0  0  0  0  0  0  0  0  0
  -25.7940  -11.7200   20.4200 N   0  0  0  0  0  0  0  0  0  0  0  0
  -23.8020  -10.4880   20.9840 C   0  0  0  0  0  0  0  0  0  0  0  0
  -24.2560   -9.5240   21.9120 C   0  0  0  0  0  3  0  0  0  0  0  0
  -23.5410   -8.3230   22.1020 C   0  0  0  0  0  3  0  0  0  0  0  0
  -22.3580   -8.0770   21.3660 C   0  0  0  0  0  0  0  0  0  0  0  0
  -21.9230   -9.0300   20.4280 C   0  0  0  0  0  3  0  0  0  0  0  0
  -22.6390  -10.2230   20.2350 C   0  0  0  0  0  3  0  0  0  0  0  0
  -21.6120   -6.9270   21.4670 O   0  0  0  0  0  0  0  0  0  0  0  0
  -21.5770   -6.1910   22.6230 C   0  0  0  0  0  0  0  0  0  0  0  0
  -21.1410   -6.7470   23.8470 C   0  0  0  0  0  3  0  0  0  0  0  0
  -21.0540   -5.9370   24.9960 C   0  0  0  0  0  3  0  0  0  0  0  0
  -21.3920   -4.5720   24.9240 C   0  0  0  0  0  0  0  0  0  0  0  0
  -21.8220   -4.0160   23.7060 C   0  0  0  0  0  3  0  0  0  0  0  0
  -21.9110   -4.8240   22.5590 C   0  0  0  0  0  0  0  0  0  0  0  0
  -22.3050   -4.2790   21.3830 F   0  0  0  0  0  0  0  0  0  0  0  0
  -21.3010   -3.7920   26.0260 F   0  0  0  0  0  0  0  0  0  0  0  0
  -22.6710  -13.5760   21.1860 C   0  0  0  0  0  0  0  0  0  0  0  0
  -21.9750  -12.8590   22.0630 N   0  0  0  0  0  0  0  0  0  0  0  0
  -22.2150  -14.6140   20.7080 O   0  0  0  0  0  0  0  0  0  0  0  0
  -22.3580  -12.0210   22.4730 H   0  0  0  0  0  0  0  0  0  0  0  0
  -21.0470  -13.1560   22.3290 H   0  0  0  0  0  0  0  0  0  0  0  0
  -25.2570  -15.2540   20.2840 N   0  0  0  0  0  0  0  0  0  0  0  0
  -24.4850  -15.8960   20.4250 H   0  0  0  0  0  0  0  0  0  0  0  0
  -26.0770  -15.7070   19.8950 H   0  0  0  0  0  0  0  0  0  0  0  0
  -30.3890  -21.8470   22.1230 C   0  0  0  0  0  1  0  0  0  0  0  0
  -30.5720  -22.2170   20.7000 N   0  0  2  0  0  4  0  0  0  0  0  0
  -31.3220  -22.8920   20.6970 H   0  0  0  0  0  0  0  0  0  0  0  0
  -29.4140  -22.9680   20.1250 C   0  0  0  0  0  2  0  0  0  0  0  0
  -29.4600  -24.4940   20.4340 C   0  0  0  0  0  2  0  0  0  0  0  0
  -28.2360  -25.2770   19.9010 C   0  0  0  0  0  2  0  0  0  0  0  0
  -28.3270  -26.6890   20.1700 O   0  0  0  0  0  0  0  0  0  0  0  0
  -24.5850  -31.9300   23.2220 C   0  0  0  0  0  0  0  0  0  0  0  0
  -27.1560  -27.4300   20.1440 C   0  0  0  0  0  0  0  0  0  0  0  0
  -23.3490  -30.5290   21.6030 C   0  0  0  0  0  3  0  0  0  0  0  0
  -24.7730  -28.9700   20.1710 C   0  0  0  0  0  0  0  0  0  0  0  0
  -25.8770  -30.8590   21.3780 C   0  0  0  0  0  2  0  0  0  0  0  0
  -25.9430  -29.4830   20.7450 C   0  0  0  0  0  0  0  0  0  0  0  0
  -27.1360  -28.7210   20.7260 C   0  0  0  0  0  3  0  0  0  0  0  0
  -25.9630  -26.9410   19.5570 C   0  0  0  0  0  3  0  0  0  0  0  0
  -24.7790  -27.6980   19.5750 C   0  0  0  0  0  3  0  0  0  0  0  0
  -23.5380  -29.8400   20.2250 C   0  0  0  0  0  2  0  0  0  0  0  0
  -24.6230  -31.1200   22.1260 N   0  0  0  0  0  0  0  0  0  0  0  0
  -23.5110  -32.2170   23.7710 O   0  0  0  0  0  0  0  0  0  0  0  0
  -22.6970  -29.5200   22.5760 C   0  0  0  0  0  0  0  0  0  0  0  0
  -21.3710  -29.3440   22.4560 N   0  0  0  0  0  0  0  0  0  0  0  0
  -23.3810  -28.8980   23.3940 O   0  0  0  0  0  0  0  0  0  0  0  0
  -20.8820  -29.8960   21.7670 H   0  0  0  0  0  0  0  0  0  0  0  0
  -17.9920  -28.1750   22.9830 C   0  0  0  0  0  0  0  0  0  0  0  0
  -20.5530  -28.4180   23.2400 C   0  0  0  0  0  3  0  0  0  0  0  0
  -20.6430  -26.9820   22.6750 C   0  0  0  0  0  2  0  0  0  0  0  0
  -19.5340  -26.6570   21.6700 C   0  0  0  0  0  2  0  0  0  0  0  0
  -18.1570  -26.8180   22.3190 C   0  0  0  0  0  2  0  0  0  0  0  0
  -19.1180  -28.9330   23.4010 C   0  0  0  0  0  0  0  0  0  0  0  0
  -18.9110  -30.2040   23.9800 C   0  0  0  0  0  3  0  0  0  0  0  0
  -17.6110  -30.7160   24.1460 C   0  0  0  0  0  3  0  0  0  0  0  0
  -16.4990  -29.9550   23.7450 C   0  0  0  0  0  3  0  0  0  0  0  0
  -16.6910  -28.6870   23.1690 C   0  0  0  0  0  3  0  0  0  0  0  0
  -25.8830  -32.5520   23.8250 C   0  0  0  0  0  3  0  0  0  0  0  0
  -25.5850  -33.9480   24.1700 N   0  0  0  0  0  0  0  0  0  0  0  0
  -25.9120  -35.0050   23.4120 C   0  0  0  0  0  0  0  0  0  0  0  0
  -26.5660  -34.9060   22.3710 O   0  0  0  0  0  0  0  0  0  0  0  0
  -25.0020  -34.1000   24.9800 H   0  0  0  0  0  0  0  0  0  0  0  0
  -24.1930  -36.8100   23.0820 C   0  0  0  0  0  1  0  0  0  0  0  0
  -25.4340  -36.3910   23.8850 C   0  0  0  0  0  3  0  0  0  0  0  0
  -27.5760  -37.2550   24.7200 C   0  0  0  0  0  1  0  0  0  0  0  0
  -26.4740  -37.4380   23.7790 N   0  0  0  0  0  0  0  0  0  0  0  0
  -26.0740  -38.3590   23.9340 H   0  0  0  0  0  0  0  0  0  0  0  0
  -26.4220  -31.7690   25.0840 C   0  0  1  0  0  0  0  0  0  0  0  0
  -25.3480  -31.5220   26.1690 C   0  0  0  0  0  1  0  0  0  0  0  0
  -26.9950  -30.3940   24.6670 C   0  0  0  0  0  1  0  0  0  0  0  0
  -27.5840  -32.5550   25.7330 C   0  0  0  0  0  1  0  0  0  0  0  0
  1  4  1  0
  1 49  1  0
  2  6  1  0
  3  7  2  0
  3  4  1  0
  4  2  2  0
  5 18  1  0
  5  6  2  0
  6  8  1  0
  7  5  1  0
  9  7  1  0
 10 18  1  0
 11 16  1  0
 12 13  1  0
 12 11  1  0
 14 13  1  0
 14 23  1  0
 14 15  1  0
 16 10  1  0
 16 15  1  0
 17 10  2  0
 18 19  1  0
 20 21  2  0
 21 40  1  0
 22 21  1  0
 22 25  1  0
 23 24  1  0
 23 20  1  0
 24 22  2  0
 25 26  1  0
 26 27  2  0
 28 31  1  0
 28 27  1  0
 29 28  2  0
 30 29  1  0
 30 25  2  0
 31 32  1  0
 32 33  1  0
 33 34  2  0
 35 34  1  0
 35 39  1  0
 36 35  2  0
 37 32  2  0
 37 36  1  0
 38 37  1  0
 40 41  1  0
 41 44  1  0
 41 43  1  0
 42 40  2  0
 45 46  1  0
 45 20  1  0
 47 45  1  0
 49 48  1  0
 49 50  1  1
 51 52  1  0
 51 49  1  0
 53 54  1  0
 53 52  1  0
 55 66  2  0
 56 54  1  0
 56 61  1  0
 57 65  1  0
 57 67  1  0
 58 64  1  0
 58 60  1  0
 59 65  1  0
 60 59  1  0
 61 60  2  0
 62 63  1  0
 62 56  2  0
 63 58  2  0
 64 57  1  0
 65 55  1  0
 67 69  2  0
 68 67  1  0
 70 68  1  0
 71 80  2  0
 71 76  1  0
 72 68  1  0
 72 76  1  0
 73 72  1  0
 74 75  1  0
 74 73  1  0
 75 71  1  0
 76 77  2  0
 77 78  1  0
 79 78  2  0
 80 79  1  0
 81 55  1  0
 81 82  1  0
 81 91  1  0
 82 85  1  0
 83 87  1  0
 83 82  1  0
 84 83  2  0
 87 86  1  0
 89 87  1  0
 89 90  1  0
 89 88  1  0
 91 94  1  1
 91 92  1  0
 93 91  1  0
M  ISO  4  10 100  18 100  53 101  54 101
M  END
>  <TORSDO>  (61) 
F 21

>  <SCORE>  (61) 
-13.293

>  <name>  (61) 
61

>  <ligand_id>  (61) 
61

>  <original_smiles>  (61) 
[H]c1c([H])c([H])c2c(c1[H])C([H])([H])C([H])([H])C([H])([H])C2([H])N([H])C(=O)C1([H])N(C(=O)C([H])(N([H])C(=O)C([H])(N([H])C([H])([H])[H])C([H])([H])[H])C(C([H])([H])[H])(C([H])([H])[H])C([H])([H])[H])C([H])([H])c2c([H])c(OC([H])([H])C([H])([H])C([H])([H])[N+]([H])(C([H])([H])[H])C([H])([H])c3c([H])c(F)c(N([H])C(=O)N4C([H])([H])C([H])([H])C([H])([H])C([H])(n5nc(-c6c([H])c([H])c(Oc7c([H])c([H])c(F)c([H])c7F)c([H])c6[H])c(C(=O)N([H])[H])c5N([H])[H])C4([H])[H])c(Cl)c3[H])c([H])c([H])c2C1([H])[H]

>  <smiles>  (61) 
[H]c1c([H])c([H])c2c(c1[H])C([H])([H])C([H])([H])C([H])([H])C2([H])N([H])C(=O)C1([H])N(C(=O)C([H])(N([H])C(=O)C([H])(N([H])C([H])([H])[H])C([H])([H])[H])C(C([H])([H])[H])(C([H])([H])[H])C([H])([H])[H])C([H])([H])c2c([H])c(OC([H])([H])C([H])([H])C([H])([H])[N+]([H])(C([H])([H])[H])C([H])([H])c3c([H])c(F)c(N([H])C(=O)N4C([H])([H])C([H])([H])C([H])([H])C([H])(n5nc(-c6c([H])c([H])c(Oc7c([H])c([H])c(F)c([H])c7F)c([H])c6[H])c(C(=O)N([H])[H])c5N([H])[H])C4([H])[H])c(Cl)c3[H])c([H])c([H])c2C1([H])[H]

$$$$
62:0:0
     RDKit          3D

 96104  0  0  1  0  0  0  0  0999 V2000
  -30.0560  -21.3450   22.6130 C   0  0  0  0  0  1  0  0  0  0  0  0
  -29.4830  -21.0730   21.2700 N   0  0  1  0  0  4  0  0  0  0  0  0
  -30.2620  -20.9230   20.6480 H   0  0  0  0  0  0  0  0  0  0  0  0
  -28.7070  -19.7970   21.2280 C   0  0  0  0  0  2  0  0  0  0  0  0
  -29.7860  -17.6050   20.4410 C   0  0  0  0  0  3  0  0  0  0  0  0
  -30.1070  -18.2880   22.7510 C   0  0  0  0  0  3  0  0  0  0  0  0
  -31.1310  -16.2260   21.9220 C   0  0  0  0  0  3  0  0  0  0  0  0
  -29.5570  -18.5390   21.4770 C   0  0  0  0  0  0  0  0  0  0  0  0
  -30.5940  -16.4430   20.6280 C   0  0  0  0  0  0  0  0  0  0  0  0
  -30.8870  -17.1360   22.9700 C   0  0  0  0  0  0  0  0  0  0  0  0
  -31.4140  -16.9070   24.1950 F   0  0  0  0  0  0  0  0  0  0  0  0
  -31.5610  -14.3750   19.6470 C   0  0  0  0  0  0  0  0  0  0  0  0
  -31.0590  -12.1380   18.7670 C   0  0  0  0  0  2  0  0  0  0  0  0
  -30.0800  -12.2750   17.5810 C   0  0  0  0  0  2  0  0  0  0  0  0
  -28.6170  -12.3480   18.0650 C   0  0  0  0  0  2  0  0  0  0  0  0
  -28.4040  -13.3220   19.2550 C   0  0  0  0  0  3  0  0  0  0  0  0
  -29.4860  -13.1240   20.3400 C   0  0  0  0  0  2  0  0  0  0  0  0
  -30.7970  -13.2510   19.6900 N   0  0  0  0  0  0  0  0  0  0  0  0
  -32.7490  -14.3540   19.3080 O   0  0  0  0  0  0  0  0  0  0  0  0
  -30.8580  -15.5380   19.5270 N   0  0  0  0  0  0  0  0  0  0  0  0
  -26.1370  -14.2000   20.0900 C   0  0  0  0  0  0  0  0  0  0  0  0
  -25.0060  -13.5560   20.5140 C   0  0  0  0  0  0  0  0  0  0  0  0
  -25.3080  -12.1600   20.4690 C   0  0  0  0  0  0  0  0  0  0  0  0
  -27.0590  -13.2040   19.8100 N   0  0  0  0  0  0  0  0  0  0  0  0
  -26.5680  -11.9730   20.1000 N   0  0  0  0  0  0  0  0  0  0  0  0
  -24.4540  -10.9890   20.7020 C   0  0  0  0  0  0  0  0  0  0  0  0
  -24.8120   -9.9860   21.6300 C   0  0  0  0  0  3  0  0  0  0  0  0
  -23.9670   -8.8780   21.8480 C   0  0  0  0  0  3  0  0  0  0  0  0
  -22.7470   -8.7650   21.1370 C   0  0  0  0  0  0  0  0  0  0  0  0
  -22.4070   -9.7540   20.1980 C   0  0  0  0  0  3  0  0  0  0  0  0
  -23.2530  -10.8530   19.9780 C   0  0  0  0  0  3  0  0  0  0  0  0
  -21.8730   -7.7130   21.2680 O   0  0  0  0  0  0  0  0  0  0  0  0
  -21.7460   -7.0230   22.4470 C   0  0  0  0  0  0  0  0  0  0  0  0
  -21.4150   -7.6700   23.6590 C   0  0  0  0  0  3  0  0  0  0  0  0
  -21.2260   -6.9140   24.8330 C   0  0  0  0  0  3  0  0  0  0  0  0
  -21.3590   -5.5120   24.7960 C   0  0  0  0  0  0  0  0  0  0  0  0
  -21.6840   -4.8660   23.5900 C   0  0  0  0  0  3  0  0  0  0  0  0
  -21.8730   -5.6200   22.4190 C   0  0  0  0  0  0  0  0  0  0  0  0
  -22.1640   -4.9900   21.2550 F   0  0  0  0  0  0  0  0  0  0  0  0
  -21.1720   -4.7840   25.9220 F   0  0  0  0  0  0  0  0  0  0  0  0
  -23.6870  -14.1890   20.8490 C   0  0  0  0  0  0  0  0  0  0  0  0
  -22.9480  -13.6040   21.7850 N   0  0  0  0  0  0  0  0  0  0  0  0
  -23.3260  -15.2370   20.3150 O   0  0  0  0  0  0  0  0  0  0  0  0
  -23.2560  -12.7580   22.2410 H   0  0  0  0  0  0  0  0  0  0  0  0
  -22.0610  -14.0090   22.0480 H   0  0  0  0  0  0  0  0  0  0  0  0
  -26.4530  -15.5410   19.8960 N   0  0  0  0  0  0  0  0  0  0  0  0
  -25.7840  -16.2890   20.0460 H   0  0  0  0  0  0  0  0  0  0  0  0
  -27.3460  -15.8690   19.5500 H   0  0  0  0  0  0  0  0  0  0  0  0
  -31.8960  -17.0330   17.7640 C   0  0  0  0  0  1  0  0  0  0  0  0
  -30.7640  -16.0540   18.1410 C   0  0  0  0  0  2  0  0  0  0  0  0
  -28.7350  -22.2480   20.7220 C   0  0  0  0  0  2  0  0  0  0  0  0
  -29.6620  -23.2680   20.0050 C   0  0  0  0  0  2  0  0  0  0  0  0
  -29.8290  -25.1430   18.3110 C   0  0  0  0  0  1  0  0  0  0  0  0
  -28.9850  -24.5630   19.4630 C   0  0  0  0  0  3  0  0  0  0  0  0
  -28.7410  -25.6280   20.5670 C   0  0  0  0  0  2  0  0  0  0  0  0
  -28.7200  -26.9810   20.0870 O   0  0  0  0  0  0  0  0  0  0  0  0
  -24.4860  -31.7860   23.1550 C   0  0  0  0  0  0  0  0  0  0  0  0
  -27.5040  -27.6180   20.0630 C   0  0  0  0  0  0  0  0  0  0  0  0
  -23.4330  -30.3850   21.4090 C   0  0  0  0  0  3  0  0  0  0  0  0
  -25.0290  -28.9770   20.0040 C   0  0  0  0  0  0  0  0  0  0  0  0
  -25.9360  -30.8930   21.3360 C   0  0  0  0  0  2  0  0  0  0  0  0
  -26.1270  -29.5510   20.6590 C   0  0  0  0  0  0  0  0  0  0  0  0
  -27.3690  -28.8820   20.6780 C   0  0  0  0  0  3  0  0  0  0  0  0
  -26.3940  -27.0520   19.4020 C   0  0  0  0  0  3  0  0  0  0  0  0
  -25.1580  -27.7280   19.3690 C   0  0  0  0  0  3  0  0  0  0  0  0
  -23.7390  -29.7650   20.0180 C   0  0  0  0  0  2  0  0  0  0  0  0
  -24.6340  -31.0350   22.0270 N   0  0  0  0  0  0  0  0  0  0  0  0
  -23.3700  -31.9770   23.6550 O   0  0  0  0  0  0  0  0  0  0  0  0
  -22.7960  -29.2960   22.3020 C   0  0  0  0  0  0  0  0  0  0  0  0
  -21.4820  -29.0750   22.1290 N   0  0  0  0  0  0  0  0  0  0  0  0
  -23.4800  -28.6570   23.1050 O   0  0  0  0  0  0  0  0  0  0  0  0
  -20.9900  -29.6460   21.4570 H   0  0  0  0  0  0  0  0  0  0  0  0
  -18.1390  -27.7560   22.4860 C   0  0  0  0  0  0  0  0  0  0  0  0
  -20.6810  -28.0710   22.8280 C   0  0  0  0  0  3  0  0  0  0  0  0
  -20.8380  -26.6770   22.1760 C   0  0  0  0  0  2  0  0  0  0  0  0
  -19.7680  -26.3810   21.1220 C   0  0  0  0  0  2  0  0  0  0  0  0
  -18.3700  -26.4510   21.7430 C   0  0  0  0  0  2  0  0  0  0  0  0
  -19.2250  -28.5240   22.9830 C   0  0  0  0  0  0  0  0  0  0  0  0
  -18.9570  -29.7470   23.6360 C   0  0  0  0  0  3  0  0  0  0  0  0
  -17.6350  -30.2010   23.7990 C   0  0  0  0  0  3  0  0  0  0  0  0
  -16.5620  -29.4290   23.3210 C   0  0  0  0  0  3  0  0  0  0  0  0
  -16.8150  -28.2080   22.6700 C   0  0  0  0  0  3  0  0  0  0  0  0
  -25.7080  -32.4580   23.8570 C   0  0  0  0  0  3  0  0  0  0  0  0
  -25.3230  -33.8360   24.1880 N   0  0  0  0  0  0  0  0  0  0  0  0
  -25.6530  -34.9130   23.4630 C   0  0  0  0  0  0  0  0  0  0  0  0
  -26.3830  -34.8520   22.4690 O   0  0  0  0  0  0  0  0  0  0  0  0
  -24.6760  -33.9530   24.9560 H   0  0  0  0  0  0  0  0  0  0  0  0
  -23.8610  -36.6280   23.0470 C   0  0  0  0  0  1  0  0  0  0  0  0
  -25.0830  -36.2730   23.9100 C   0  0  0  0  0  3  0  0  0  0  0  0
  -27.1380  -37.2440   24.8380 C   0  0  0  0  0  1  0  0  0  0  0  0
  -26.0700  -37.3730   23.8490 N   0  0  0  0  0  0  0  0  0  0  0  0
  -25.6160  -38.2720   23.9890 H   0  0  0  0  0  0  0  0  0  0  0  0
  -26.1880  -31.6850   25.1460 C   0  0  1  0  0  0  0  0  0  0  0  0
  -25.0500  -31.3870   26.1520 C   0  0  0  0  0  1  0  0  0  0  0  0
  -26.8400  -30.3370   24.7610 C   0  0  0  0  0  1  0  0  0  0  0  0
  -27.2720  -32.5080   25.8800 C   0  0  0  0  0  1  0  0  0  0  0  0
  2  1  1  0
  2  3  1  6
  4  2  1  0
  4  8  1  0
  5  9  2  0
  5  8  1  0
  6 10  1  0
  7 10  2  0
  8  6  2  0
  9  7  1  0
 10 11  1  0
 12 18  1  0
 13 18  1  0
 14 15  1  0
 14 13  1  0
 16 15  1  0
 16 24  1  0
 16 17  1  0
 18 17  1  0
 19 12  2  0
 20 12  1  0
 20  9  1  0
 21 22  2  0
 22 41  1  0
 23 22  1  0
 23 26  1  0
 24 21  1  0
 24 25  1  0
 25 23  2  0
 26 27  1  0
 27 28  2  0
 29 32  1  0
 29 28  1  0
 30 29  2  0
 31 30  1  0
 31 26  2  0
 32 33  1  0
 33 34  1  0
 34 35  2  0
 36 35  1  0
 36 40  1  0
 37 36  2  0
 38 33  2  0
 38 37  1  0
 39 38  1  0
 41 42  1  0
 42 45  1  0
 42 44  1  0
 43 41  2  0
 46 47  1  0
 46 21  1  0
 48 46  1  0
 49 50  1  0
 50 20  1  0
 51  2  1  0
 52 51  1  0
 54 53  1  0
 54 52  1  0
 54 55  1  0
 56 55  1  0
 57 68  2  0
 58 56  1  0
 58 63  1  0
 59 67  1  0
 59 69  1  0
 60 66  1  0
 60 62  1  0
 61 67  1  0
 62 63  2  0
 62 61  1  0
 64 58  2  0
 65 64  1  0
 65 60  2  0
 66 59  1  0
 67 57  1  0
 69 71  2  0
 70 69  1  0
 72 70  1  0
 73 82  2  0
 73 78  1  0
 74 70  1  0
 74 78  1  0
 75 74  1  0
 76 77  1  0
 76 75  1  0
 77 73  1  0
 78 79  2  0
 79 80  1  0
 81 80  2  0
 82 81  1  0
 83 57  1  0
 83 84  1  0
 83 93  1  0
 84 87  1  0
 85 89  1  0
 85 84  1  0
 86 85  2  0
 89 88  1  0
 91 89  1  0
 91 92  1  0
 91 90  1  0
 93 96  1  1
 93 94  1  0
 95 93  1  0
M  ISO  4  12 100  20 100  55 101  56 101
M  END
>  <TORSDO>  (62) 
F 23

>  <SCORE>  (62) 
-9.148

>  <name>  (62) 
62

>  <ligand_id>  (62) 
62

>  <original_smiles>  (62) 
[H]c1c([H])c([H])c2c(c1[H])C([H])([H])C([H])([H])C([H])([H])C2([H])N([H])C(=O)C1([H])N(C(=O)C([H])(N([H])C(=O)C([H])(N([H])C([H])([H])[H])C([H])([H])[H])C(C([H])([H])[H])(C([H])([H])[H])C([H])([H])[H])C([H])([H])c2c([H])c(OC([H])([H])C([H])(C([H])([H])[H])C([H])([H])C([H])([H])[N+]([H])(C([H])([H])[H])C([H])([H])c3c([H])c(F)c([H])c(N(C(=O)N4C([H])([H])C([H])([H])C([H])([H])C([H])(n5nc(-c6c([H])c([H])c(Oc7c([H])c([H])c(F)c([H])c7F)c([H])c6[H])c(C(=O)N([H])[H])c5N([H])[H])C4([H])[H])C([H])([H])C([H])([H])[H])c3[H])c([H])c([H])c2C1([H])[H]

>  <smiles>  (62) 
[H]c1c([H])c([H])c2c(c1[H])C([H])([H])C([H])([H])C([H])([H])C2([H])N([H])C(=O)C1([H])N(C(=O)C([H])(N([H])C(=O)C([H])(N([H])C([H])([H])[H])C([H])([H])[H])C(C([H])([H])[H])(C([H])([H])[H])C([H])([H])[H])C([H])([H])c2c([H])c(OC([H])([H])C([H])(C([H])([H])[H])C([H])([H])C([H])([H])[N+]([H])(C([H])([H])[H])C([H])([H])c3c([H])c(F)c([H])c(N(C(=O)N4C([H])([H])C([H])([H])C([H])([H])C([H])(n5nc(-c6c([H])c([H])c(Oc7c([H])c([H])c(F)c([H])c7F)c([H])c6[H])c(C(=O)N([H])[H])c5N([H])[H])C4([H])[H])C([H])([H])C([H])([H])[H])c3[H])c([H])c([H])c2C1([H])[H]

$$$$
63:0:0
     RDKit          3D

 91 99  0  0  1  0  0  0  0  0999 V2000
  -28.6230  -20.9810   20.3320 N   0  0  0  0  0  0  0  0  0  0  0  0
  -27.6450  -20.7030   20.3620 H   0  0  0  0  0  0  0  0  0  0  0  0
  -29.2590  -18.4820   20.4430 C   0  0  0  0  0  3  0  0  0  0  0  0
  -31.4720  -17.7890   19.7500 C   0  0  0  0  0  3  0  0  0  0  0  0
  -30.8800  -20.1800   19.7860 C   0  0  0  0  0  3  0  0  0  0  0  0
  -30.2000  -17.3850   20.2320 C   0  0  0  0  0  0  0  0  0  0  0  0
  -29.5700  -19.8910   20.2180 C   0  0  0  0  0  0  0  0  0  0  0  0
  -31.8050  -19.1460   19.5360 C   0  0  0  0  0  0  0  0  0  0  0  0
  -33.3760  -19.5530   18.9420 Cl  0  0  0  0  0  0  0  0  0  0  0  0
  -30.6100  -14.7660   20.3100 C   0  0  0  0  0  0  0  0  0  0  0  0
  -30.3570  -12.4910   19.3210 C   0  0  0  0  0  2  0  0  0  0  0  0
  -29.4110  -12.5920   18.1050 C   0  0  0  0  0  2  0  0  0  0  0  0
  -27.9420  -12.4290   18.5440 C   0  0  0  0  0  2  0  0  0  0  0  0
  -27.5900  -13.2930   19.7850 C   0  0  0  0  0  3  0  0  0  0  0  0
  -28.6660  -13.2140   20.8900 C   0  0  0  0  0  2  0  0  0  0  0  0
  -29.9570  -13.5550   20.2740 N   0  0  0  0  0  0  0  0  0  0  0  0
  -31.8050  -14.8020   20.0150 O   0  0  0  0  0  0  0  0  0  0  0  0
  -29.8680  -15.9400   20.4630 N   0  0  0  0  0  0  0  0  0  0  0  0
  -28.9080  -15.7630   20.7200 H   0  0  0  0  0  0  0  0  0  0  0  0
  -25.2080  -13.8660   20.5470 C   0  0  0  0  0  0  0  0  0  0  0  0
  -24.1490  -13.0880   20.9260 C   0  0  0  0  0  0  0  0  0  0  0  0
  -24.6140  -11.7380   20.8800 C   0  0  0  0  0  0  0  0  0  0  0  0
  -26.2540  -12.9920   20.2950 N   0  0  0  0  0  0  0  0  0  0  0  0
  -25.9030  -11.7040   20.5570 N   0  0  0  0  0  0  0  0  0  0  0  0
  -23.8870  -10.4750   21.0690 C   0  0  0  0  0  0  0  0  0  0  0  0
  -24.3330   -9.4970   21.9870 C   0  0  0  0  0  3  0  0  0  0  0  0
  -23.6080   -8.2980   22.1640 C   0  0  0  0  0  3  0  0  0  0  0  0
  -22.4210   -8.0710   21.4260 C   0  0  0  0  0  0  0  0  0  0  0  0
  -21.9980   -9.0370   20.4970 C   0  0  0  0  0  3  0  0  0  0  0  0
  -22.7220  -10.2260   20.3160 C   0  0  0  0  0  3  0  0  0  0  0  0
  -21.6630   -6.9280   21.5170 O   0  0  0  0  0  0  0  0  0  0  0  0
  -21.6390   -6.1680   22.6600 C   0  0  0  0  0  0  0  0  0  0  0  0
  -21.2410   -6.7090   23.9040 C   0  0  0  0  0  3  0  0  0  0  0  0
  -21.1590   -5.8760   25.0390 C   0  0  0  0  0  3  0  0  0  0  0  0
  -21.4650   -4.5070   24.9320 C   0  0  0  0  0  0  0  0  0  0  0  0
  -21.8550   -3.9660   23.6940 C   0  0  0  0  0  3  0  0  0  0  0  0
  -21.9400   -4.7950   22.5620 C   0  0  0  0  0  0  0  0  0  0  0  0
  -22.2940   -4.2640   21.3660 F   0  0  0  0  0  0  0  0  0  0  0  0
  -21.3820   -3.7050   26.0210 F   0  0  0  0  0  0  0  0  0  0  0  0
  -22.7520  -13.5620   21.2080 C   0  0  0  0  0  0  0  0  0  0  0  0
  -22.0250  -12.8690   22.0770 N   0  0  0  0  0  0  0  0  0  0  0  0
  -22.3090  -14.5850   20.6870 O   0  0  0  0  0  0  0  0  0  0  0  0
  -22.3900  -12.0470   22.5320 H   0  0  0  0  0  0  0  0  0  0  0  0
  -21.0860  -13.1740   22.2910 H   0  0  0  0  0  0  0  0  0  0  0  0
  -25.3630  -15.2380   20.3650 N   0  0  0  0  0  0  0  0  0  0  0  0
  -24.5920  -15.8850   20.4850 H   0  0  0  0  0  0  0  0  0  0  0  0
  -26.1930  -15.6800   19.9900 H   0  0  0  0  0  0  0  0  0  0  0  0
  -28.8930  -22.3650   20.8930 C   0  0  0  0  0  2  0  0  0  0  0  0
  -28.3810  -23.6820   20.1000 C   0  0  0  0  0  2  0  0  0  0  0  0
  -28.1740  -25.0750   20.8950 C   0  0  0  0  0  2  0  0  0  0  0  0
  -28.3110  -26.4210   20.2530 O   0  0  0  0  0  0  0  0  0  0  0  0
  -24.5980  -31.8820   23.2360 C   0  0  0  0  0  0  0  0  0  0  0  0
  -27.2060  -27.2870   20.2360 C   0  0  0  0  0  0  0  0  0  0  0  0
  -23.4000  -30.4770   21.5970 C   0  0  0  0  0  3  0  0  0  0  0  0
  -24.8550  -28.9160   20.1810 C   0  0  0  0  0  0  0  0  0  0  0  0
  -25.9390  -30.7910   21.4200 C   0  0  0  0  0  2  0  0  0  0  0  0
  -26.0210  -29.4070   20.7830 C   0  0  0  0  0  0  0  0  0  0  0  0
  -27.2030  -28.6050   20.7970 C   0  0  0  0  0  3  0  0  0  0  0  0
  -26.0220  -26.8480   19.6110 C   0  0  0  0  0  3  0  0  0  0  0  0
  -24.8590  -27.6440   19.5840 C   0  0  0  0  0  3  0  0  0  0  0  0
  -23.6170  -29.7920   20.2190 C   0  0  0  0  0  2  0  0  0  0  0  0
  -24.6640  -31.0700   22.1400 N   0  0  0  0  0  0  0  0  0  0  0  0
  -23.5150  -32.1620   23.7700 O   0  0  0  0  0  0  0  0  0  0  0  0
  -22.7380  -29.4650   22.5610 C   0  0  0  0  0  0  0  0  0  0  0  0
  -21.4130  -29.2830   22.4310 N   0  0  0  0  0  0  0  0  0  0  0  0
  -23.4180  -28.8440   23.3810 O   0  0  0  0  0  0  0  0  0  0  0  0
  -20.9250  -29.8360   21.7410 H   0  0  0  0  0  0  0  0  0  0  0  0
  -18.0390  -28.0790   22.9310 C   0  0  0  0  0  0  0  0  0  0  0  0
  -20.5950  -28.3450   23.2030 C   0  0  0  0  0  3  0  0  0  0  0  0
  -20.7000  -26.9120   22.6330 C   0  0  0  0  0  2  0  0  0  0  0  0
  -19.6020  -26.5830   21.6150 C   0  0  0  0  0  2  0  0  0  0  0  0
  -18.2190  -26.7290   22.2570 C   0  0  0  0  0  2  0  0  0  0  0  0
  -19.1540  -28.8450   23.3600 C   0  0  0  0  0  0  0  0  0  0  0  0
  -18.9330  -30.1080   23.9490 C   0  0  0  0  0  3  0  0  0  0  0  0
  -17.6270  -30.6090   24.1120 C   0  0  0  0  0  3  0  0  0  0  0  0
  -16.5260  -29.8400   23.6980 C   0  0  0  0  0  3  0  0  0  0  0  0
  -16.7310  -28.5770   23.1150 C   0  0  0  0  0  3  0  0  0  0  0  0
  -25.8790  -32.5190   23.8600 C   0  0  0  0  0  3  0  0  0  0  0  0
  -26.3930  -31.7560   25.1430 C   0  0  1  0  0  0  0  0  0  0  0  0
  -25.2990  -31.5230   26.2120 C   0  0  0  0  0  1  0  0  0  0  0  0
  -26.9750  -30.3760   24.7590 C   0  0  0  0  0  1  0  0  0  0  0  0
  -27.5400  -32.5550   25.8050 C   0  0  0  0  0  1  0  0  0  0  0  0
  -25.5660  -33.9190   24.1850 N   0  0  0  0  0  0  0  0  0  0  0  0
  -25.8990  -34.9720   23.4270 C   0  0  0  0  0  0  0  0  0  0  0  0
  -26.5700  -34.8670   22.3970 O   0  0  0  0  0  0  0  0  0  0  0  0
  -24.9640  -34.0720   24.9810 H   0  0  0  0  0  0  0  0  0  0  0  0
  -24.1680  -36.7630   23.0740 C   0  0  0  0  0  1  0  0  0  0  0  0
  -25.4100  -36.3590   23.8840 C   0  0  0  0  0  3  0  0  0  0  0  0
  -27.5480  -37.2460   24.7070 C   0  0  0  0  0  1  0  0  0  0  0  0
  -26.4400  -37.4140   23.7730 N   0  0  0  0  0  0  0  0  0  0  0  0
  -26.0320  -38.3330   23.9270 H   0  0  0  0  0  0  0  0  0  0  0  0
  1  2  1  0
  1 48  1  0
  4  6  2  0
  5  7  1  0
  6  3  1  0
  6 18  1  0
  7  1  1  0
  7  3  2  0
  8  4  1  0
  8  5  2  0
  9  8  1  0
 10 18  1  0
 11 16  1  0
 12 13  1  0
 12 11  1  0
 14 13  1  0
 14 23  1  0
 14 15  1  0
 16 10  1  0
 16 15  1  0
 17 10  2  0
 18 19  1  0
 20 21  2  0
 21 40  1  0
 22 21  1  0
 22 25  1  0
 23 20  1  0
 23 24  1  0
 24 22  2  0
 25 26  1  0
 26 27  2  0
 28 31  1  0
 28 27  1  0
 29 28  2  0
 30 29  1  0
 30 25  2  0
 31 32  1  0
 32 33  1  0
 33 34  2  0
 35 34  1  0
 35 39  1  0
 36 35  2  0
 37 32  2  0
 37 36  1  0
 38 37  1  0
 40 41  1  0
 41 44  1  0
 41 43  1  0
 42 40  2  0
 45 46  1  0
 45 20  1  0
 47 45  1  0
 49 48  1  0
 49 50  1  0
 51 50  1  0
 52 63  2  0
 53 51  1  0
 53 58  1  0
 54 62  1  0
 54 64  1  0
 55 61  1  0
 55 57  1  0
 56 62  1  0
 57 58  2  0
 57 56  1  0
 59 53  2  0
 60 59  1  0
 60 55  2  0
 61 54  1  0
 62 52  1  0
 64 66  2  0
 65 64  1  0
 67 65  1  0
 68 77  2  0
 68 73  1  0
 69 65  1  0
 69 73  1  0
 70 69  1  0
 71 72  1  0
 71 70  1  0
 72 68  1  0
 73 74  2  0
 74 75  1  0
 76 75  2  0
 77 76  1  0
 78 52  1  0
 78 83  1  0
 78 79  1  0
 79 82  1  1
 79 80  1  0
 81 79  1  0
 83 86  1  0
 84 88  1  0
 84 83  1  0
 85 84  2  0
 88 87  1  0
 90 88  1  0
 90 91  1  0
 90 89  1  0
M  ISO  4  10 100  18 100  50 101  51 101
M  END
>  <TORSDO>  (63) 
F 20

>  <SCORE>  (63) 
-13.879

>  <name>  (63) 
63

>  <ligand_id>  (63) 
63

>  <original_smiles>  (63) 
[H]c1c([H])c([H])c2c(c1[H])C([H])([H])C([H])([H])C([H])([H])C2([H])N([H])C(=O)C1([H])N(C(=O)C([H])(N([H])C(=O)C([H])(N([H])C([H])([H])[H])C([H])([H])[H])C(C([H])([H])[H])(C([H])([H])[H])C([H])([H])[H])C([H])([H])c2c([H])c(OC([H])([H])C([H])([H])C([H])([H])N([H])c3c([H])c(Cl)c([H])c(N([H])C(=O)N4C([H])([H])C([H])([H])C([H])([H])C([H])(n5nc(-c6c([H])c([H])c(Oc7c([H])c([H])c(F)c([H])c7F)c([H])c6[H])c(C(=O)N([H])[H])c5N([H])[H])C4([H])[H])c3[H])c([H])c([H])c2C1([H])[H]

>  <smiles>  (63) 
[H]c1c([H])c([H])c2c(c1[H])C([H])([H])C([H])([H])C([H])([H])C2([H])N([H])C(=O)C1([H])N(C(=O)C([H])(N([H])C(=O)C([H])(N([H])C([H])([H])[H])C([H])([H])[H])C(C([H])([H])[H])(C([H])([H])[H])C([H])([H])[H])C([H])([H])c2c([H])c(OC([H])([H])C([H])([H])C([H])([H])N([H])c3c([H])c(Cl)c([H])c(N([H])C(=O)N4C([H])([H])C([H])([H])C([H])([H])C([H])(n5nc(-c6c([H])c([H])c(Oc7c([H])c([H])c(F)c([H])c7F)c([H])c6[H])c(C(=O)N([H])[H])c5N([H])[H])C4([H])[H])c3[H])c([H])c([H])c2C1([H])[H]

$$$$
64:0:0
     RDKit          3D

 93102  0  0  1  0  0  0  0  0999 V2000
  -26.4640  -22.4000   19.7990 C   0  0  0  0  0  2  0  0  0  0  0  0
  -27.4040  -23.0830   18.7950 C   0  0  0  0  0  2  0  0  0  0  0  0
  -27.3590  -22.0120   20.9890 C   0  0  0  0  0  2  0  0  0  0  0  0
  -28.6410  -23.4140   19.6330 C   0  0  2  0  0  0  0  0  0  0  0  0
  -29.8990  -23.5550   18.7710 C   0  0  0  0  0  1  0  0  0  0  0  0
  -28.7360  -22.1290   20.5120 N   0  0  0  0  0  0  0  0  0  0  0  0
  -29.6880  -20.0250   21.5160 C   0  0  0  0  0  3  0  0  0  0  0  0
  -30.0170  -18.6220   21.5730 C   0  0  0  0  0  3  0  0  0  0  0  0
  -29.1840  -19.8110   19.2390 C   0  0  0  0  0  3  0  0  0  0  0  0
  -29.2360  -20.7260   20.3570 C   0  0  0  0  0  0  0  0  0  0  0  0
  -29.9500  -17.6800   20.4840 C   0  0  0  0  0  0  0  0  0  0  0  0
  -29.5200  -18.3770   19.2910 C   0  0  0  0  0  0  0  0  0  0  0  0
  -29.3680  -17.6500   18.1580 F   0  0  0  0  0  0  0  0  0  0  0  0
  -30.7380  -15.0990   19.9280 C   0  0  0  0  0  0  0  0  0  0  0  0
  -30.5400  -12.7640   18.9250 C   0  0  0  0  0  2  0  0  0  0  0  0
  -29.5320  -12.7280   17.7510 C   0  0  0  0  0  2  0  0  0  0  0  0
  -28.1020  -12.4930   18.2730 C   0  0  0  0  0  2  0  0  0  0  0  0
  -27.7630  -13.4130   19.4710 C   0  0  0  0  0  3  0  0  0  0  0  0
  -28.8780  -13.4140   20.5350 C   0  0  0  0  0  2  0  0  0  0  0  0
  -30.1290  -13.8370   19.8790 N   0  0  0  0  0  0  0  0  0  0  0  0
  -31.8170  -15.2240   19.3360 O   0  0  0  0  0  0  0  0  0  0  0  0
  -30.4090  -15.8240   22.1420 C   0  0  0  0  0  1  0  0  0  0  0  0
  -30.2110  -16.1630   20.7170 N   0  0  0  0  0  0  0  0  0  0  0  0
  -25.4570  -13.9820   20.4310 C   0  0  0  0  0  0  0  0  0  0  0  0
  -24.4090  -13.2010   20.8330 C   0  0  0  0  0  0  0  0  0  0  0  0
  -24.8430  -11.8480   20.6790 C   0  0  0  0  0  0  0  0  0  0  0  0
  -26.4600  -13.1060   20.0500 N   0  0  0  0  0  0  0  0  0  0  0  0
  -26.1040  -11.8120   20.2660 N   0  0  0  0  0  0  0  0  0  0  0  0
  -24.1100  -10.5870   20.8480 C   0  0  0  0  0  0  0  0  0  0  0  0
  -24.5530   -9.5850   21.7390 C   0  0  0  0  0  3  0  0  0  0  0  0
  -23.8170   -8.3910   21.8970 C   0  0  0  0  0  3  0  0  0  0  0  0
  -22.6240   -8.1880   21.1630 C   0  0  0  0  0  0  0  0  0  0  0  0
  -22.1980   -9.1790   20.2620 C   0  0  0  0  0  3  0  0  0  0  0  0
  -22.9350  -10.3650   20.1020 C   0  0  0  0  0  3  0  0  0  0  0  0
  -21.8590   -7.0480   21.2320 O   0  0  0  0  0  0  0  0  0  0  0  0
  -21.7760   -6.3070   22.3830 C   0  0  0  0  0  0  0  0  0  0  0  0
  -21.3320   -6.8660   23.6000 C   0  0  0  0  0  3  0  0  0  0  0  0
  -21.1950   -6.0500   24.7410 C   0  0  0  0  0  3  0  0  0  0  0  0
  -21.4920   -4.6760   24.6650 C   0  0  0  0  0  0  0  0  0  0  0  0
  -21.9310   -4.1170   23.4520 C   0  0  0  0  0  3  0  0  0  0  0  0
  -22.0690   -4.9300   22.3130 C   0  0  0  0  0  0  0  0  0  0  0  0
  -22.4720   -4.3810   21.1420 F   0  0  0  0  0  0  0  0  0  0  0  0
  -21.3550   -3.8900   25.7590 F   0  0  0  0  0  0  0  0  0  0  0  0
  -23.0480  -13.6820   21.2450 C   0  0  0  0  0  0  0  0  0  0  0  0
  -22.3900  -12.9590   22.1450 N   0  0  0  0  0  0  0  0  0  0  0  0
  -22.5820  -14.7310   20.8060 O   0  0  0  0  0  0  0  0  0  0  0  0
  -22.7820  -12.1080   22.5210 H   0  0  0  0  0  0  0  0  0  0  0  0
  -21.4810  -13.2620   22.4670 H   0  0  0  0  0  0  0  0  0  0  0  0
  -25.6380  -15.3580   20.3320 N   0  0  0  0  0  0  0  0  0  0  0  0
  -24.9040  -16.0190   20.5600 H   0  0  0  0  0  0  0  0  0  0  0  0
  -26.4820  -15.8030   19.9920 H   0  0  0  0  0  0  0  0  0  0  0  0
  -28.3360  -24.9170   20.3700 C   0  0  0  0  0  2  0  0  0  0  0  0
  -28.3780  -26.3510   19.7760 O   0  0  0  0  0  0  0  0  0  0  0  0
  -24.5710  -31.7840   22.9990 C   0  0  0  0  0  0  0  0  0  0  0  0
  -27.2670  -27.2610   19.8250 C   0  0  0  0  0  0  0  0  0  0  0  0
  -23.3970  -30.4020   21.3270 C   0  0  0  0  0  3  0  0  0  0  0  0
  -24.8800  -28.9130   19.8480 C   0  0  0  0  0  0  0  0  0  0  0  0
  -25.9380  -30.7590   21.1460 C   0  0  0  0  0  2  0  0  0  0  0  0
  -26.0480  -29.3880   20.4590 C   0  0  0  0  0  0  0  0  0  0  0  0
  -27.2430  -28.5790   20.4280 C   0  0  0  0  0  3  0  0  0  0  0  0
  -26.0700  -26.8730   19.1880 C   0  0  0  0  0  3  0  0  0  0  0  0
  -24.9030  -27.6690   19.1980 C   0  0  0  0  0  3  0  0  0  0  0  0
  -23.6270  -29.7720   19.9270 C   0  0  0  0  0  2  0  0  0  0  0  0
  -24.6550  -31.0040   21.8800 N   0  0  0  0  0  0  0  0  0  0  0  0
  -23.4840  -32.0170   23.5470 O   0  0  0  0  0  0  0  0  0  0  0  0
  -22.7610  -29.3460   22.2660 C   0  0  0  0  0  0  0  0  0  0  0  0
  -21.4320  -29.1650   22.1730 N   0  0  0  0  0  0  0  0  0  0  0  0
  -23.4640  -28.6920   23.0400 O   0  0  0  0  0  0  0  0  0  0  0  0
  -20.9170  -29.7480   21.5270 H   0  0  0  0  0  0  0  0  0  0  0  0
  -18.0850  -27.8990   22.7240 C   0  0  0  0  0  0  0  0  0  0  0  0
  -20.6490  -28.1810   22.9250 C   0  0  0  0  0  3  0  0  0  0  0  0
  -20.7490  -26.7780   22.2830 C   0  0  0  0  0  2  0  0  0  0  0  0
  -19.6210  -26.4880   21.2870 C   0  0  0  0  0  2  0  0  0  0  0  0
  -18.2570  -26.5860   21.9760 C   0  0  0  0  0  2  0  0  0  0  0  0
  -19.2080  -28.6560   23.1520 C   0  0  0  0  0  0  0  0  0  0  0  0
  -18.9910  -29.8860   23.8100 C   0  0  0  0  0  3  0  0  0  0  0  0
  -17.6860  -30.3590   24.0410 C   0  0  0  0  0  3  0  0  0  0  0  0
  -16.5790  -29.5980   23.6270 C   0  0  0  0  0  3  0  0  0  0  0  0
  -16.7790  -28.3700   22.9750 C   0  0  0  0  0  3  0  0  0  0  0  0
  -25.8360  -32.4390   23.6320 C   0  0  0  0  0  3  0  0  0  0  0  0
  -25.4800  -33.8110   24.0310 N   0  0  0  0  0  0  0  0  0  0  0  0
  -25.7580  -34.9120   23.3210 C   0  0  0  0  0  0  0  0  0  0  0  0
  -26.4090  -34.8820   22.2720 O   0  0  0  0  0  0  0  0  0  0  0  0
  -24.8990  -33.9060   24.8510 H   0  0  0  0  0  0  0  0  0  0  0  0
  -23.9540  -36.6540   23.0970 C   0  0  0  0  0  1  0  0  0  0  0  0
  -25.2320  -36.2600   23.8550 C   0  0  0  0  0  3  0  0  0  0  0  0
  -27.3530  -37.1900   24.6700 C   0  0  0  0  0  1  0  0  0  0  0  0
  -26.2220  -37.3560   23.7630 N   0  0  0  0  0  0  0  0  0  0  0  0
  -25.7850  -38.2530   23.9600 H   0  0  0  0  0  0  0  0  0  0  0  0
  -26.3980  -31.6370   24.8710 C   0  0  1  0  0  0  0  0  0  0  0  0
  -25.3310  -31.3270   25.9470 C   0  0  0  0  0  1  0  0  0  0  0  0
  -27.0150  -30.2940   24.4200 C   0  0  0  0  0  1  0  0  0  0  0  0
  -27.5350  -32.4400   25.5450 C   0  0  0  0  0  1  0  0  0  0  0  0
  1  3  1  0
  2  4  1  0
  2  1  1  0
  4  5  1  6
  4 52  1  0
  4  6  1  0
  6  3  1  0
  7  8  1  0
  9 12  2  0
  9 10  1  0
 10  6  1  0
 10  7  2  0
 11 23  1  0
 11  8  2  0
 12 11  1  0
 13 12  1  0
 14 23  1  0
 15 20  1  0
 16 17  1  0
 16 15  1  0
 18 17  1  0
 18 27  1  0
 18 19  1  0
 20 14  1  0
 20 19  1  0
 21 14  2  0
 23 22  1  0
 24 25  2  0
 25 44  1  0
 26 25  1  0
 26 29  1  0
 27 28  1  0
 27 24  1  0
 28 26  2  0
 29 30  1  0
 30 31  2  0
 32 35  1  0
 32 31  1  0
 33 32  2  0
 34 33  1  0
 34 29  2  0
 35 36  1  0
 36 37  1  0
 37 38  2  0
 39 38  1  0
 39 43  1  0
 40 39  2  0
 41 36  2  0
 41 40  1  0
 42 41  1  0
 44 45  1  0
 45 48  1  0
 45 47  1  0
 46 44  2  0
 49 24  1  0
 49 50  1  0
 51 49  1  0
 53 55  1  0
 53 52  1  0
 54 65  2  0
 55 60  1  0
 56 64  1  0
 56 66  1  0
 57 63  1  0
 57 59  1  0
 58 64  1  0
 59 58  1  0
 60 59  2  0
 61 62  1  0
 61 55  2  0
 62 57  2  0
 63 56  1  0
 64 54  1  0
 66 68  2  0
 67 66  1  0
 69 67  1  0
 70 79  2  0
 70 75  1  0
 71 67  1  0
 71 75  1  0
 72 71  1  0
 73 74  1  0
 73 72  1  0
 74 70  1  0
 75 76  2  0
 76 77  1  0
 78 77  2  0
 79 78  1  0
 80 54  1  0
 80 81  1  0
 80 90  1  0
 81 84  1  0
 82 86  1  0
 82 81  1  0
 83 82  2  0
 86 85  1  0
 88 86  1  0
 88 89  1  0
 88 87  1  0
 90 93  1  1
 90 91  1  0
 92 90  1  0
M  ISO  4  14 100  23 100  52 101  53 101
M  END
>  <TORSDO>  (64) 
F 18

>  <SCORE>  (64) 
-13.977

>  <name>  (64) 
64

>  <ligand_id>  (64) 
64

>  <original_smiles>  (64) 
[H]c1c([H])c([H])c2c(c1[H])C([H])([H])C([H])([H])C([H])([H])C2([H])N([H])C(=O)C1([H])N(C(=O)C([H])(N([H])C(=O)C([H])(N([H])C([H])([H])[H])C([H])([H])[H])C(C([H])([H])[H])(C([H])([H])[H])C([H])([H])[H])C([H])([H])c2c([H])c(OC([H])([H])C3(C([H])([H])[H])N(c4c([H])c([H])c(N(C(=O)N5C([H])([H])C([H])([H])C([H])([H])C([H])(n6nc(-c7c([H])c([H])c(Oc8c([H])c([H])c(F)c([H])c8F)c([H])c7[H])c(C(=O)N([H])[H])c6N([H])[H])C5([H])[H])C([H])([H])[H])c(F)c4[H])C([H])([H])C([H])([H])C3([H])[H])c([H])c([H])c2C1([H])[H]

>  <smiles>  (64) 
[H]c1c([H])c([H])c2c(c1[H])C([H])([H])C([H])([H])C([H])([H])C2([H])N([H])C(=O)C1([H])N(C(=O)C([H])(N([H])C(=O)C([H])(N([H])C([H])([H])[H])C([H])([H])[H])C(C([H])([H])[H])(C([H])([H])[H])C([H])([H])[H])C([H])([H])c2c([H])c(OC([H])([H])C3(C([H])([H])[H])N(c4c([H])c([H])c(N(C(=O)N5C([H])([H])C([H])([H])C([H])([H])C([H])(n6nc(-c7c([H])c([H])c(Oc8c([H])c([H])c(F)c([H])c8F)c([H])c7[H])c(C(=O)N([H])[H])c6N([H])[H])C5([H])[H])C([H])([H])[H])c(F)c4[H])C([H])([H])C([H])([H])C3([H])[H])c([H])c([H])c2C1([H])[H]

$$$$
65:0:0
     RDKit          3D

 91100  0  0  1  0  0  0  0  0999 V2000
  -28.1220  -24.0000   19.1170 C   0  0  0  0  0  2  0  0  0  0  0  0
  -29.2830  -24.2320   21.2260 C   0  0  0  0  0  2  0  0  0  0  0  0
  -28.0020  -22.4300   19.3680 C   0  0  0  0  0  2  0  0  0  0  0  0
  -29.2000  -22.6580   21.4570 C   0  0  0  0  0  2  0  0  0  0  0  0
  -28.1300  -24.9060   20.3980 C   0  0  0  0  0  3  0  0  0  0  0  0
  -29.0450  -21.8260   20.2380 N   0  0  0  0  0  0  0  0  0  0  0  0
  -28.3350  -19.4280   19.7210 C   0  0  0  0  0  3  0  0  0  0  0  0
  -30.3460  -19.7280   20.9470 C   0  0  0  0  0  3  0  0  0  0  0  0
  -28.5090  -18.0030   19.7980 C   0  0  0  0  0  3  0  0  0  0  0  0
  -30.5390  -18.2950   21.0040 C   0  0  0  0  0  3  0  0  0  0  0  0
  -29.2340  -20.3690   20.3060 C   0  0  0  0  0  0  0  0  0  0  0  0
  -29.6160  -17.3650   20.4350 C   0  0  0  0  0  0  0  0  0  0  0  0
  -30.5000  -14.8270   20.3720 C   0  0  0  0  0  0  0  0  0  0  0  0
  -30.3760  -12.5350   19.3600 C   0  0  0  0  0  2  0  0  0  0  0  0
  -29.4180  -12.5910   18.1470 C   0  0  0  0  0  2  0  0  0  0  0  0
  -27.9520  -12.4000   18.5880 C   0  0  0  0  0  2  0  0  0  0  0  0
  -27.5800  -13.2800   19.8110 C   0  0  0  0  0  3  0  0  0  0  0  0
  -28.6500  -13.1800   20.9210 C   0  0  0  0  0  2  0  0  0  0  0  0
  -29.9370  -13.5690   20.3250 N   0  0  0  0  0  0  0  0  0  0  0  0
  -31.6800  -14.9900   20.0430 O   0  0  0  0  0  0  0  0  0  0  0  0
  -29.6190  -15.8790   20.6010 N   0  0  0  0  0  0  0  0  0  0  0  0
  -28.6970  -15.5080   20.7690 H   0  0  0  0  0  0  0  0  0  0  0  0
  -25.1980  -13.8670   20.5640 C   0  0  0  0  0  0  0  0  0  0  0  0
  -24.1360  -13.0900   20.9370 C   0  0  0  0  0  0  0  0  0  0  0  0
  -24.5990  -11.7400   20.8890 C   0  0  0  0  0  0  0  0  0  0  0  0
  -26.2400  -12.9890   20.3090 N   0  0  0  0  0  0  0  0  0  0  0  0
  -25.8860  -11.7050   20.5680 N   0  0  0  0  0  0  0  0  0  0  0  0
  -23.8740  -10.4760   21.0730 C   0  0  0  0  0  0  0  0  0  0  0  0
  -24.3110   -9.5020   21.9970 C   0  0  0  0  0  3  0  0  0  0  0  0
  -23.5860   -8.3030   22.1700 C   0  0  0  0  0  3  0  0  0  0  0  0
  -22.4090   -8.0710   21.4180 C   0  0  0  0  0  0  0  0  0  0  0  0
  -21.9920   -9.0330   20.4830 C   0  0  0  0  0  3  0  0  0  0  0  0
  -22.7170  -10.2240   20.3080 C   0  0  0  0  0  3  0  0  0  0  0  0
  -21.6560   -6.9250   21.5000 O   0  0  0  0  0  0  0  0  0  0  0  0
  -21.6080   -6.1760   22.6480 C   0  0  0  0  0  0  0  0  0  0  0  0
  -21.1550   -6.7170   23.8720 C   0  0  0  0  0  3  0  0  0  0  0  0
  -21.0560   -5.8930   25.0120 C   0  0  0  0  0  3  0  0  0  0  0  0
  -21.3980   -4.5310   24.9290 C   0  0  0  0  0  0  0  0  0  0  0  0
  -21.8440   -3.9900   23.7100 C   0  0  0  0  0  3  0  0  0  0  0  0
  -21.9450   -4.8090   22.5720 C   0  0  0  0  0  0  0  0  0  0  0  0
  -22.3550   -4.2780   21.3950 F   0  0  0  0  0  0  0  0  0  0  0  0
  -21.2960   -3.7380   26.0200 F   0  0  0  0  0  0  0  0  0  0  0  0
  -22.7410  -13.5650   21.2240 C   0  0  0  0  0  0  0  0  0  0  0  0
  -22.0220  -12.8660   22.0940 N   0  0  0  0  0  0  0  0  0  0  0  0
  -22.2960  -14.5920   20.7110 O   0  0  0  0  0  0  0  0  0  0  0  0
  -22.3940  -12.0350   22.5310 H   0  0  0  0  0  0  0  0  0  0  0  0
  -21.0870  -13.1660   22.3300 H   0  0  0  0  0  0  0  0  0  0  0  0
  -25.3570  -15.2400   20.3950 N   0  0  0  0  0  0  0  0  0  0  0  0
  -24.5810  -15.8830   20.5100 H   0  0  0  0  0  0  0  0  0  0  0  0
  -26.1820  -15.6820   20.0150 H   0  0  0  0  0  0  0  0  0  0  0  0
  -28.2870  -26.4080   20.2390 O   0  0  0  0  0  0  0  0  0  0  0  0
  -24.6120  -31.9100   23.2850 C   0  0  0  0  0  0  0  0  0  0  0  0
  -27.1750  -27.2880   20.2180 C   0  0  0  0  0  0  0  0  0  0  0  0
  -23.3940  -30.5250   21.6440 C   0  0  0  0  0  3  0  0  0  0  0  0
  -24.8290  -28.9580   20.2110 C   0  0  0  0  0  0  0  0  0  0  0  0
  -25.9400  -30.8130   21.4560 C   0  0  0  0  0  2  0  0  0  0  0  0
  -26.0070  -29.4300   20.8030 C   0  0  0  0  0  0  0  0  0  0  0  0
  -27.1840  -28.6110   20.7850 C   0  0  0  0  0  3  0  0  0  0  0  0
  -25.9690  -26.8800   19.6100 C   0  0  0  0  0  3  0  0  0  0  0  0
  -24.8160  -27.6920   19.6020 C   0  0  0  0  0  3  0  0  0  0  0  0
  -23.6010  -29.8490   20.2630 C   0  0  0  0  0  2  0  0  0  0  0  0
  -24.6690  -31.1020   22.1850 N   0  0  0  0  0  0  0  0  0  0  0  0
  -23.5320  -32.1950   23.8230 O   0  0  0  0  0  0  0  0  0  0  0  0
  -22.7220  -29.5150   22.6050 C   0  0  0  0  0  0  0  0  0  0  0  0
  -21.3960  -29.3400   22.4740 N   0  0  0  0  0  0  0  0  0  0  0  0
  -23.3950  -28.8910   23.4290 O   0  0  0  0  0  0  0  0  0  0  0  0
  -20.9110  -29.8950   21.7830 H   0  0  0  0  0  0  0  0  0  0  0  0
  -18.0160  -28.1380   22.9570 C   0  0  0  0  0  0  0  0  0  0  0  0
  -20.5730  -28.4050   23.2440 C   0  0  0  0  0  3  0  0  0  0  0  0
  -20.6820  -26.9710   22.6760 C   0  0  0  0  0  2  0  0  0  0  0  0
  -19.5870  -26.6410   21.6560 C   0  0  0  0  0  2  0  0  0  0  0  0
  -18.2000  -26.7850   22.2890 C   0  0  0  0  0  2  0  0  0  0  0  0
  -19.1300  -28.9050   23.3910 C   0  0  0  0  0  0  0  0  0  0  0  0
  -18.9030  -30.1700   23.9770 C   0  0  0  0  0  3  0  0  0  0  0  0
  -17.5950  -30.6670   24.1330 C   0  0  0  0  0  3  0  0  0  0  0  0
  -16.4970  -29.8980   23.7140 C   0  0  0  0  0  3  0  0  0  0  0  0
  -16.7080  -28.6350   23.1310 C   0  0  0  0  0  3  0  0  0  0  0  0
  -25.8990  -32.5340   23.9070 C   0  0  0  0  0  3  0  0  0  0  0  0
  -25.6010  -33.9350   24.2370 N   0  0  0  0  0  0  0  0  0  0  0  0
  -25.9160  -34.9850   23.4660 C   0  0  0  0  0  0  0  0  0  0  0  0
  -26.5580  -34.8750   22.4170 O   0  0  0  0  0  0  0  0  0  0  0  0
  -25.0290  -34.0950   25.0530 H   0  0  0  0  0  0  0  0  0  0  0  0
  -24.1760  -36.7770   23.1660 C   0  0  0  0  0  1  0  0  0  0  0  0
  -25.4480  -36.3770   23.9310 C   0  0  0  0  0  3  0  0  0  0  0  0
  -27.6100  -37.2720   24.6750 C   0  0  0  0  0  1  0  0  0  0  0  0
  -26.4750  -37.4290   23.7700 N   0  0  0  0  0  0  0  0  0  0  0  0
  -26.0740  -38.3510   23.9220 H   0  0  0  0  0  0  0  0  0  0  0  0
  -26.4070  -31.7610   25.1850 C   0  0  1  0  0  0  0  0  0  0  0  0
  -25.3110  -31.5340   26.2540 C   0  0  0  0  0  1  0  0  0  0  0  0
  -26.9790  -30.3770   24.7990 C   0  0  0  0  0  1  0  0  0  0  0  0
  -27.5640  -32.5460   25.8470 C   0  0  0  0  0  1  0  0  0  0  0  0
  1  3  1  0
  1  5  1  0
  2  4  1  0
  3  6  1  0
  5 51  1  0
  5  2  1  0
  6 11  1  0
  6  4  1  0
  7  9  2  0
  7 11  1  0
  8 10  1  0
  9 12  1  0
 11  8  2  0
 12 21  1  0
 12 10  2  0
 13 21  1  0
 14 19  1  0
 15 16  1  0
 15 14  1  0
 17 16  1  0
 17 26  1  0
 17 18  1  0
 19 13  1  0
 19 18  1  0
 20 13  2  0
 21 22  1  0
 23 24  2  0
 24 43  1  0
 25 24  1  0
 25 28  1  0
 26 23  1  0
 26 27  1  0
 27 25  2  0
 28 29  1  0
 29 30  2  0
 31 34  1  0
 31 30  1  0
 32 31  2  0
 33 32  1  0
 33 28  2  0
 34 35  1  0
 35 36  1  0
 36 37  2  0
 38 37  1  0
 38 42  1  0
 39 38  2  0
 40 35  2  0
 40 39  1  0
 41 40  1  0
 43 44  1  0
 44 47  1  0
 44 46  1  0
 45 43  2  0
 48 49  1  0
 48 23  1  0
 50 48  1  0
 52 63  2  0
 53 51  1  0
 53 58  1  0
 54 62  1  0
 54 64  1  0
 55 61  1  0
 55 57  1  0
 56 62  1  0
 57 56  1  0
 58 57  2  0
 59 53  2  0
 60 59  1  0
 60 55  2  0
 61 54  1  0
 62 52  1  0
 64 66  2  0
 65 64  1  0
 67 65  1  0
 68 77  2  0
 68 73  1  0
 69 65  1  0
 69 73  1  0
 70 69  1  0
 71 72  1  0
 71 70  1  0
 72 68  1  0
 73 74  2  0
 74 75  1  0
 76 75  2  0
 77 76  1  0
 78 52  1  0
 78 79  1  0
 78 88  1  0
 79 82  1  0
 80 84  1  0
 80 79  1  0
 81 80  2  0
 84 83  1  0
 86 87  1  0
 86 84  1  0
 86 85  1  0
 88 91  1  1
 88 89  1  0
 90 88  1  0
M  ISO  4   5 101  13 100  21 100  51 101
M  END
>  <TORSDO>  (65) 
F 17

>  <SCORE>  (65) 
-15.343

>  <name>  (65) 
65

>  <ligand_id>  (65) 
65

>  <original_smiles>  (65) 
[H]c1c([H])c([H])c2c(c1[H])C([H])([H])C([H])([H])C([H])([H])C2([H])N([H])C(=O)C1([H])N(C(=O)C([H])(N([H])C(=O)C([H])(N([H])C([H])([H])[H])C([H])([H])[H])C(C([H])([H])[H])(C([H])([H])[H])C([H])([H])[H])C([H])([H])c2c([H])c(OC3([H])C([H])([H])C([H])([H])N(c4c([H])c([H])c(N([H])C(=O)N5C([H])([H])C([H])([H])C([H])([H])C([H])(n6nc(-c7c([H])c([H])c(Oc8c([H])c([H])c(F)c([H])c8F)c([H])c7[H])c(C(=O)N([H])[H])c6N([H])[H])C5([H])[H])c([H])c4[H])C([H])([H])C3([H])[H])c([H])c([H])c2C1([H])[H]

>  <smiles>  (65) 
[H]c1c([H])c([H])c2c(c1[H])C([H])([H])C([H])([H])C([H])([H])C2([H])N([H])C(=O)C1([H])N(C(=O)C([H])(N([H])C(=O)C([H])(N([H])C([H])([H])[H])C([H])([H])[H])C(C([H])([H])[H])(C([H])([H])[H])C([H])([H])[H])C([H])([H])c2c([H])c(OC3([H])C([H])([H])C([H])([H])N(c4c([H])c([H])c(N([H])C(=O)N5C([H])([H])C([H])([H])C([H])([H])C([H])(n6nc(-c7c([H])c([H])c(Oc8c([H])c([H])c(F)c([H])c8F)c([H])c7[H])c(C(=O)N([H])[H])c6N([H])[H])C5([H])[H])c([H])c4[H])C([H])([H])C3([H])[H])c([H])c([H])c2C1([H])[H]

$$$$
66:0:0
     RDKit          3D

 93102  0  0  1  0  0  0  0  0999 V2000
  -30.4610  -24.4010   21.4640 C   0  0  0  0  0  2  0  0  0  0  0  0
  -31.0690  -22.9850   21.5080 C   0  0  0  0  0  2  0  0  0  0  0  0
  -28.9190  -22.8800   20.4470 C   0  0  0  0  0  2  0  0  0  0  0  0
  -29.4000  -24.3360   20.3530 C   0  0  0  0  0  3  0  0  0  0  0  0
  -30.0530  -22.1110   20.9340 N   0  0  0  0  0  0  0  0  0  0  0  0
  -28.7730  -18.5840   21.0030 C   0  0  0  0  0  3  0  0  0  0  0  0
  -31.1120  -18.5750   21.6540 C   0  0  0  0  0  3  0  0  0  0  0  0
  -28.8130  -19.9870   20.8760 C   0  0  0  0  0  3  0  0  0  0  0  0
  -31.1480  -19.9840   21.5350 C   0  0  0  0  0  3  0  0  0  0  0  0
  -29.9270  -17.8610   21.3670 C   0  0  0  0  0  0  0  0  0  0  0  0
  -30.0060  -20.7100   21.1230 C   0  0  0  0  0  0  0  0  0  0  0  0
  -29.8990  -16.3280   21.3900 C   0  0  0  0  0  2  0  0  0  0  0  0
  -31.0200  -14.5130   20.1800 C   0  0  0  0  0  0  0  0  0  0  0  0
  -30.6410  -12.3710   19.0460 C   0  0  0  0  0  2  0  0  0  0  0  0
  -29.6910  -12.6280   17.8580 C   0  0  0  0  0  2  0  0  0  0  0  0
  -28.2180  -12.5320   18.3070 C   0  0  0  0  0  2  0  0  0  0  0  0
  -27.9190  -13.3380   19.6000 C   0  0  0  0  0  3  0  0  0  0  0  0
  -28.9940  -13.0900   20.6820 C   0  0  0  0  0  2  0  0  0  0  0  0
  -30.3070  -13.3590   20.0800 N   0  0  0  0  0  0  0  0  0  0  0  0
  -32.2090  -14.5860   19.8530 O   0  0  0  0  0  0  0  0  0  0  0  0
  -30.2650  -15.6400   20.1280 N   0  0  0  0  0  0  0  0  0  0  0  0
  -25.5350  -13.9810   20.3150 C   0  0  0  0  0  0  0  0  0  0  0  0
  -24.4600  -13.2250   20.6970 C   0  0  0  0  0  0  0  0  0  0  0  0
  -24.9060  -11.8680   20.6790 C   0  0  0  0  0  0  0  0  0  0  0  0
  -26.5690  -13.0850   20.0920 N   0  0  0  0  0  0  0  0  0  0  0  0
  -26.1940  -11.8100   20.3690 N   0  0  0  0  0  0  0  0  0  0  0  0
  -24.1670  -10.6170   20.8860 C   0  0  0  0  0  0  0  0  0  0  0  0
  -24.5690   -9.6760   21.8600 C   0  0  0  0  0  3  0  0  0  0  0  0
  -23.8330   -8.4860   22.0520 C   0  0  0  0  0  3  0  0  0  0  0  0
  -22.6810   -8.2310   21.2710 C   0  0  0  0  0  0  0  0  0  0  0  0
  -22.3000   -9.1600   20.2860 C   0  0  0  0  0  3  0  0  0  0  0  0
  -23.0360  -10.3400   20.0920 C   0  0  0  0  0  3  0  0  0  0  0  0
  -21.9190   -7.0930   21.3720 O   0  0  0  0  0  0  0  0  0  0  0  0
  -21.7930   -6.4130   22.5570 C   0  0  0  0  0  0  0  0  0  0  0  0
  -21.3000   -7.0360   23.7250 C   0  0  0  0  0  3  0  0  0  0  0  0
  -21.1230   -6.2830   24.9030 C   0  0  0  0  0  3  0  0  0  0  0  0
  -21.4280   -4.9080   24.9130 C   0  0  0  0  0  0  0  0  0  0  0  0
  -21.9140   -4.2850   23.7500 C   0  0  0  0  0  3  0  0  0  0  0  0
  -22.0940   -5.0360   22.5740 C   0  0  0  0  0  0  0  0  0  0  0  0
  -22.5430   -4.4270   21.4500 F   0  0  0  0  0  0  0  0  0  0  0  0
  -21.2500   -4.1830   26.0410 F   0  0  0  0  0  0  0  0  0  0  0  0
  -23.0680  -13.7210   20.9700 C   0  0  0  0  0  0  0  0  0  0  0  0
  -22.3400  -13.0490   21.8540 N   0  0  0  0  0  0  0  0  0  0  0  0
  -22.6360  -14.7400   20.4340 O   0  0  0  0  0  0  0  0  0  0  0  0
  -22.7020  -12.2240   22.3110 H   0  0  0  0  0  0  0  0  0  0  0  0
  -21.4070  -13.3650   22.0790 H   0  0  0  0  0  0  0  0  0  0  0  0
  -25.7150  -15.3470   20.1190 N   0  0  0  0  0  0  0  0  0  0  0  0
  -24.9580  -16.0140   20.2200 H   0  0  0  0  0  0  0  0  0  0  0  0
  -26.5680  -15.7650   19.7700 H   0  0  0  0  0  0  0  0  0  0  0  0
  -28.9950  -16.7530   18.2630 C   0  0  0  0  0  1  0  0  0  0  0  0
  -30.3640  -16.4650   18.8980 C   0  0  0  0  0  2  0  0  0  0  0  0
  -28.2160  -25.3170   20.4840 C   0  0  0  0  0  2  0  0  0  0  0  0
  -28.4430  -26.6510   19.9920 O   0  0  0  0  0  0  0  0  0  0  0  0
  -24.6280  -31.7820   23.1240 C   0  0  0  0  0  0  0  0  0  0  0  0
  -27.2920  -27.4140   19.9630 C   0  0  0  0  0  0  0  0  0  0  0  0
  -23.4270  -30.3980   21.4650 C   0  0  0  0  0  3  0  0  0  0  0  0
  -24.8880  -28.9050   20.0030 C   0  0  0  0  0  0  0  0  0  0  0  0
  -25.9500  -30.7810   21.2640 C   0  0  0  0  0  2  0  0  0  0  0  0
  -26.0450  -29.4240   20.6000 C   0  0  0  0  0  0  0  0  0  0  0  0
  -27.2530  -28.6860   20.5780 C   0  0  0  0  0  3  0  0  0  0  0  0
  -26.1230  -26.9290   19.3320 C   0  0  0  0  0  3  0  0  0  0  0  0
  -24.9220  -27.6560   19.3650 C   0  0  0  0  0  3  0  0  0  0  0  0
  -23.6360  -29.7490   20.0720 C   0  0  0  0  0  2  0  0  0  0  0  0
  -24.6870  -31.0000   22.0090 N   0  0  0  0  0  0  0  0  0  0  0  0
  -23.5460  -32.0360   23.6730 O   0  0  0  0  0  0  0  0  0  0  0  0
  -22.7910  -29.3520   22.4090 C   0  0  0  0  0  0  0  0  0  0  0  0
  -21.4670  -29.1620   22.2850 N   0  0  0  0  0  0  0  0  0  0  0  0
  -23.4840  -28.7170   23.2080 O   0  0  0  0  0  0  0  0  0  0  0  0
  -20.9700  -29.7270   21.6120 H   0  0  0  0  0  0  0  0  0  0  0  0
  -18.1040  -27.9360   22.7760 C   0  0  0  0  0  0  0  0  0  0  0  0
  -20.6600  -28.2060   23.0440 C   0  0  0  0  0  3  0  0  0  0  0  0
  -20.7710  -26.7850   22.4440 C   0  0  0  0  0  2  0  0  0  0  0  0
  -19.6680  -26.4720   21.4290 C   0  0  0  0  0  2  0  0  0  0  0  0
  -18.2870  -26.5970   22.0800 C   0  0  0  0  0  2  0  0  0  0  0  0
  -19.2190  -28.6980   23.2150 C   0  0  0  0  0  0  0  0  0  0  0  0
  -18.9940  -29.9510   23.8250 C   0  0  0  0  0  3  0  0  0  0  0  0
  -17.6870  -30.4420   24.0030 C   0  0  0  0  0  3  0  0  0  0  0  0
  -16.5870  -29.6760   23.5810 C   0  0  0  0  0  3  0  0  0  0  0  0
  -16.7950  -28.4250   22.9740 C   0  0  0  0  0  3  0  0  0  0  0  0
  -25.9120  -32.4140   23.7470 C   0  0  0  0  0  3  0  0  0  0  0  0
  -26.4500  -31.6190   25.0010 C   0  0  1  0  0  0  0  0  0  0  0  0
  -25.3690  -31.3450   26.0730 C   0  0  0  0  0  1  0  0  0  0  0  0
  -27.0440  -30.2580   24.5700 C   0  0  0  0  0  1  0  0  0  0  0  0
  -27.5980  -32.4110   25.6700 C   0  0  0  0  0  1  0  0  0  0  0  0
  -25.5910  -33.8010   24.1080 N   0  0  0  0  0  0  0  0  0  0  0  0
  -25.9170  -34.8720   23.3730 C   0  0  0  0  0  0  0  0  0  0  0  0
  -26.5920  -34.7970   22.3440 O   0  0  0  0  0  0  0  0  0  0  0  0
  -24.9890  -33.9310   24.9090 H   0  0  0  0  0  0  0  0  0  0  0  0
  -24.1790  -36.6590   23.0450 C   0  0  0  0  0  1  0  0  0  0  0  0
  -25.4140  -36.2440   23.8600 C   0  0  0  0  0  3  0  0  0  0  0  0
  -27.5340  -37.1210   24.7340 C   0  0  0  0  0  1  0  0  0  0  0  0
  -26.4400  -37.3070   23.7840 N   0  0  0  0  0  0  0  0  0  0  0  0
  -26.0270  -38.2200   23.9510 H   0  0  0  0  0  0  0  0  0  0  0  0
  1  2  1  0
  3  5  1  0
  4  3  1  0
  4 52  1  0
  4  1  1  0
  5 11  1  0
  5  2  1  0
  6 10  1  0
  8  6  2  0
  8 11  1  0
  9  7  1  0
 10 12  1  0
 10  7  2  0
 11  9  2  0
 14 19  1  0
 15 16  1  0
 15 14  1  0
 17 16  1  0
 17 25  1  0
 17 18  1  0
 19 13  1  0
 19 18  1  0
 20 13  2  0
 21 13  1  0
 21 12  1  0
 22 23  2  0
 23 42  1  0
 24 23  1  0
 24 27  1  0
 25 22  1  0
 25 26  1  0
 26 24  2  0
 27 28  1  0
 28 29  2  0
 30 33  1  0
 30 29  1  0
 31 30  2  0
 32 31  1  0
 32 27  2  0
 33 34  1  0
 34 39  2  0
 34 35  1  0
 35 36  2  0
 36 37  1  0
 37 41  1  0
 38 37  2  0
 39 38  1  0
 40 39  1  0
 42 43  1  0
 43 46  1  0
 43 45  1  0
 44 42  2  0
 47 48  1  0
 47 22  1  0
 49 47  1  0
 50 51  1  0
 51 21  1  0
 53 52  1  0
 54 65  2  0
 55 53  1  0
 55 60  1  0
 56 64  1  0
 56 66  1  0
 57 63  1  0
 57 59  1  0
 58 64  1  0
 59 58  1  0
 60 59  2  0
 61 62  1  0
 61 55  2  0
 62 57  2  0
 63 56  1  0
 64 54  1  0
 66 68  2  0
 67 66  1  0
 69 67  1  0
 70 79  2  0
 70 75  1  0
 71 67  1  0
 71 75  1  0
 72 71  1  0
 73 74  1  0
 73 72  1  0
 74 70  1  0
 75 76  2  0
 76 77  1  0
 78 77  2  0
 79 78  1  0
 80 54  1  0
 80 85  1  0
 80 81  1  0
 81 84  1  1
 81 82  1  0
 83 81  1  0
 85 88  1  0
 86 90  1  0
 86 85  1  0
 87 86  2  0
 90 89  1  0
 92 90  1  0
 92 93  1  0
 92 91  1  0
M  ISO  4  13 100  21 100  52 101  53 101
M  END
>  <TORSDO>  (66) 
F 20

>  <SCORE>  (66) 
-13.064

>  <name>  (66) 
66

>  <ligand_id>  (66) 
66

>  <original_smiles>  (66) 
[H]c1c([H])c([H])c2c(c1[H])C([H])([H])C([H])([H])C([H])([H])C2([H])N([H])C(=O)C1([H])N(C(=O)C([H])(N([H])C(=O)C([H])(N([H])C([H])([H])[H])C([H])([H])[H])C(C([H])([H])[H])(C([H])([H])[H])C([H])([H])[H])C([H])([H])c2c([H])c(OC([H])([H])C3([H])C([H])([H])N(c4c([H])c([H])c(C([H])([H])N(C(=O)N5C([H])([H])C([H])([H])C([H])([H])C([H])(n6nc(-c7c([H])c([H])c(Oc8c([H])c([H])c(F)c([H])c8F)c([H])c7[H])c(C(=O)N([H])[H])c6N([H])[H])C5([H])[H])C([H])([H])C([H])([H])[H])c([H])c4[H])C([H])([H])C3([H])[H])c([H])c([H])c2C1([H])[H]

>  <smiles>  (66) 
[H]c1c([H])c([H])c2c(c1[H])C([H])([H])C([H])([H])C([H])([H])C2([H])N([H])C(=O)C1([H])N(C(=O)C([H])(N([H])C(=O)C([H])(N([H])C([H])([H])[H])C([H])([H])[H])C(C([H])([H])[H])(C([H])([H])[H])C([H])([H])[H])C([H])([H])c2c([H])c(OC([H])([H])C3([H])C([H])([H])N(c4c([H])c([H])c(C([H])([H])N(C(=O)N5C([H])([H])C([H])([H])C([H])([H])C([H])(n6nc(-c7c([H])c([H])c(Oc8c([H])c([H])c(F)c([H])c8F)c([H])c7[H])c(C(=O)N([H])[H])c6N([H])[H])C5([H])[H])C([H])([H])C([H])([H])[H])c([H])c4[H])C([H])([H])C3([H])[H])c([H])c([H])c2C1([H])[H]

$$$$
67:0:0
     RDKit          3D

 94103  0  0  1  0  0  0  0  0999 V2000
  -31.5490  -23.4480   20.7950 C   0  0  0  0  0  2  0  0  0  0  0  0
  -30.7350  -24.6070   20.2300 C   0  0  0  0  0  2  0  0  0  0  0  0
  -30.4780  -22.5350   21.3850 C   0  0  0  0  0  2  0  0  0  0  0  0
  -29.3650  -24.0080   19.8400 C   0  0  0  0  0  3  0  0  0  0  0  0
  -29.3470  -22.5870   20.4310 N   0  0  1  0  0  4  0  0  0  0  0  0
  -28.4980  -22.4550   20.9610 H   0  0  0  0  0  0  0  0  0  0  0  0
  -29.3920  -21.4430   19.4300 C   0  0  0  0  0  2  0  0  0  0  0  0
  -30.8390  -19.2580   19.6460 C   0  0  0  0  0  3  0  0  0  0  0  0
  -30.9940  -17.8530   19.8670 C   0  0  0  0  0  3  0  0  0  0  0  0
  -28.5590  -19.1480   20.4010 C   0  0  0  0  0  3  0  0  0  0  0  0
  -29.6130  -19.9450   19.8860 C   0  0  0  0  0  0  0  0  0  0  0  0
  -29.9170  -17.0550   20.3400 C   0  0  0  0  0  0  0  0  0  0  0  0
  -28.7100  -17.7470   20.6180 C   0  0  0  0  0  0  0  0  0  0  0  0
  -27.6500  -17.0350   21.0730 F   0  0  0  0  0  0  0  0  0  0  0  0
  -30.6840  -14.5810   20.0630 C   0  0  0  0  0  0  0  0  0  0  0  0
  -30.4060  -12.3630   18.9730 C   0  0  0  0  0  2  0  0  0  0  0  0
  -29.4060  -12.5290   17.8050 C   0  0  0  0  0  2  0  0  0  0  0  0
  -27.9540  -12.3810   18.3000 C   0  0  0  0  0  2  0  0  0  0  0  0
  -27.6660  -13.2250   19.5700 C   0  0  0  0  0  3  0  0  0  0  0  0
  -28.7710  -13.0260   20.6330 C   0  0  0  0  0  2  0  0  0  0  0  0
  -30.0610  -13.3610   20.0050 N   0  0  0  0  0  0  0  0  0  0  0  0
  -31.8120  -14.7500   19.5920 O   0  0  0  0  0  0  0  0  0  0  0  0
  -29.9220  -15.6080   20.5480 N   0  0  0  0  0  0  0  0  0  0  0  0
  -29.0700  -15.2820   20.9790 H   0  0  0  0  0  0  0  0  0  0  0  0
  -25.3120  -13.8450   20.3990 C   0  0  0  0  0  0  0  0  0  0  0  0
  -24.2520  -13.0810   20.8050 C   0  0  0  0  0  0  0  0  0  0  0  0
  -24.6970  -11.7250   20.7390 C   0  0  0  0  0  0  0  0  0  0  0  0
  -26.3350  -12.9560   20.1090 N   0  0  0  0  0  0  0  0  0  0  0  0
  -25.9720  -11.6750   20.3720 N   0  0  0  0  0  0  0  0  0  0  0  0
  -23.9640  -10.4690   20.9470 C   0  0  0  0  0  0  0  0  0  0  0  0
  -24.4100   -9.4970   21.8700 C   0  0  0  0  0  3  0  0  0  0  0  0
  -23.6770   -8.3070   22.0650 C   0  0  0  0  0  3  0  0  0  0  0  0
  -22.4830   -8.0810   21.3390 C   0  0  0  0  0  0  0  0  0  0  0  0
  -22.0560   -9.0420   20.4060 C   0  0  0  0  0  3  0  0  0  0  0  0
  -22.7900  -10.2240   20.2090 C   0  0  0  0  0  3  0  0  0  0  0  0
  -21.7210   -6.9420   21.4440 O   0  0  0  0  0  0  0  0  0  0  0  0
  -21.6740   -6.2130   22.6050 C   0  0  0  0  0  0  0  0  0  0  0  0
  -21.2750   -6.7890   23.8310 C   0  0  0  0  0  3  0  0  0  0  0  0
  -21.1720   -5.9870   24.9860 C   0  0  0  0  0  3  0  0  0  0  0  0
  -21.4590   -4.6100   24.9150 C   0  0  0  0  0  0  0  0  0  0  0  0
  -21.8530   -4.0340   23.6940 C   0  0  0  0  0  3  0  0  0  0  0  0
  -21.9570   -4.8340   22.5420 C   0  0  0  0  0  0  0  0  0  0  0  0
  -22.3150   -4.2700   21.3630 F   0  0  0  0  0  0  0  0  0  0  0  0
  -21.3540   -3.8390   26.0220 F   0  0  0  0  0  0  0  0  0  0  0  0
  -22.8750  -13.5720   21.1470 C   0  0  0  0  0  0  0  0  0  0  0  0
  -22.1800  -12.8780   22.0410 N   0  0  0  0  0  0  0  0  0  0  0  0
  -22.4270  -14.6090   20.6580 O   0  0  0  0  0  0  0  0  0  0  0  0
  -22.5570  -12.0410   22.4590 H   0  0  0  0  0  0  0  0  0  0  0  0
  -21.2590  -13.1910   22.3140 H   0  0  0  0  0  0  0  0  0  0  0  0
  -25.4840  -15.2160   20.2360 N   0  0  0  0  0  0  0  0  0  0  0  0
  -24.7430  -15.8770   20.4370 H   0  0  0  0  0  0  0  0  0  0  0  0
  -26.3540  -15.6680   19.9870 H   0  0  0  0  0  0  0  0  0  0  0  0
  -28.1990  -25.0010   20.2800 C   0  0  0  0  0  2  0  0  0  0  0  0
  -28.3510  -26.4320   19.9180 O   0  0  0  0  0  0  0  0  0  0  0  0
  -24.5220  -31.6900   23.0520 C   0  0  0  0  0  0  0  0  0  0  0  0
  -27.2100  -27.2420   19.9210 C   0  0  0  0  0  0  0  0  0  0  0  0
  -23.3440  -30.3140   21.3730 C   0  0  0  0  0  3  0  0  0  0  0  0
  -24.8210  -28.8090   19.9280 C   0  0  0  0  0  0  0  0  0  0  0  0
  -25.8790  -30.6690   21.2110 C   0  0  0  0  0  2  0  0  0  0  0  0
  -25.9790  -29.3060   20.5400 C   0  0  0  0  0  0  0  0  0  0  0  0
  -27.1780  -28.5350   20.5250 C   0  0  0  0  0  3  0  0  0  0  0  0
  -26.0320  -26.7970   19.2790 C   0  0  0  0  0  3  0  0  0  0  0  0
  -24.8490  -27.5590   19.2890 C   0  0  0  0  0  3  0  0  0  0  0  0
  -23.5750  -29.6690   19.9820 C   0  0  0  0  0  2  0  0  0  0  0  0
  -24.6000  -30.9070   21.9360 N   0  0  0  0  0  0  0  0  0  0  0  0
  -23.4330  -31.9440   23.5860 O   0  0  0  0  0  0  0  0  0  0  0  0
  -22.6870  -29.2700   22.3070 C   0  0  0  0  0  0  0  0  0  0  0  0
  -21.3590  -29.1010   22.1840 N   0  0  0  0  0  0  0  0  0  0  0  0
  -23.3700  -28.6150   23.0990 O   0  0  0  0  0  0  0  0  0  0  0  0
  -20.8680  -29.6810   21.5170 H   0  0  0  0  0  0  0  0  0  0  0  0
  -17.9770  -27.9240   22.6890 C   0  0  0  0  0  0  0  0  0  0  0  0
  -20.5410  -28.1430   22.9300 C   0  0  0  0  0  3  0  0  0  0  0  0
  -20.6180  -26.7340   22.2990 C   0  0  0  0  0  2  0  0  0  0  0  0
  -19.4970  -26.4630   21.2900 C   0  0  0  0  0  2  0  0  0  0  0  0
  -18.1270  -26.5990   21.9600 C   0  0  0  0  0  2  0  0  0  0  0  0
  -19.1110  -28.6570   23.1310 C   0  0  0  0  0  0  0  0  0  0  0  0
  -18.9160  -29.8980   23.7730 C   0  0  0  0  0  3  0  0  0  0  0  0
  -17.6190  -30.4080   23.9770 C   0  0  0  0  0  3  0  0  0  0  0  0
  -16.5000  -29.6720   23.5510 C   0  0  0  0  0  3  0  0  0  0  0  0
  -16.6800  -28.4310   22.9130 C   0  0  0  0  0  3  0  0  0  0  0  0
  -25.7940  -32.3200   23.6970 C   0  0  0  0  0  3  0  0  0  0  0  0
  -26.3170  -31.5180   24.9520 C   0  0  1  0  0  0  0  0  0  0  0  0
  -25.2240  -31.2370   26.0090 C   0  0  0  0  0  1  0  0  0  0  0  0
  -26.9170  -30.1600   24.5210 C   0  0  0  0  0  1  0  0  0  0  0  0
  -27.4560  -32.3070   25.6400 C   0  0  0  0  0  1  0  0  0  0  0  0
  -25.4650  -33.7030   24.0680 N   0  0  0  0  0  0  0  0  0  0  0  0
  -25.7910  -34.7840   23.3450 C   0  0  0  0  0  0  0  0  0  0  0  0
  -26.4710  -34.7210   22.3180 O   0  0  0  0  0  0  0  0  0  0  0  0
  -24.8610  -33.8250   24.8680 H   0  0  0  0  0  0  0  0  0  0  0  0
  -24.0460  -36.5690   23.0290 C   0  0  0  0  0  1  0  0  0  0  0  0
  -25.2820  -36.1520   23.8420 C   0  0  0  0  0  3  0  0  0  0  0  0
  -27.3980  -37.0320   24.7250 C   0  0  0  0  0  1  0  0  0  0  0  0
  -26.3040  -37.2190   23.7750 N   0  0  0  0  0  0  0  0  0  0  0  0
  -25.8860  -38.1290   23.9460 H   0  0  0  0  0  0  0  0  0  0  0  0
  1  3  1  0
  2  1  1  0
  4  2  1  0
  4 53  1  0
  4  5  1  0
  5  6  1  1
  5  3  1  0
  7 11  1  0
  7  5  1  0
  8  9  2  0
  8 11  1  0
  9 12  1  0
 10 13  1  0
 11 10  2  0
 12 23  1  0
 12 13  2  0
 13 14  1  0
 15 23  1  0
 16 21  1  0
 17 18  1  0
 17 16  1  0
 19 18  1  0
 19 28  1  0
 19 20  1  0
 21 15  1  0
 21 20  1  0
 22 15  2  0
 23 24  1  0
 25 26  2  0
 26 45  1  0
 27 26  1  0
 27 30  1  0
 28 29  1  0
 28 25  1  0
 29 27  2  0
 30 31  1  0
 31 32  2  0
 33 36  1  0
 33 32  1  0
 34 33  2  0
 35 34  1  0
 35 30  2  0
 36 37  1  0
 37 38  1  0
 38 39  2  0
 40 39  1  0
 40 44  1  0
 41 40  2  0
 42 37  2  0
 42 41  1  0
 43 42  1  0
 45 46  1  0
 46 49  1  0
 46 48  1  0
 47 45  2  0
 50 25  1  0
 50 51  1  0
 52 50  1  0
 54 56  1  0
 54 53  1  0
 55 66  2  0
 56 61  1  0
 57 65  1  0
 57 67  1  0
 58 64  1  0
 58 60  1  0
 59 65  1  0
 60 59  1  0
 61 60  2  0
 62 63  1  0
 62 56  2  0
 63 58  2  0
 64 57  1  0
 65 55  1  0
 67 69  2  0
 68 67  1  0
 70 68  1  0
 71 80  2  0
 71 76  1  0
 72 68  1  0
 72 76  1  0
 73 72  1  0
 74 75  1  0
 74 73  1  0
 75 71  1  0
 76 77  2  0
 77 78  1  0
 79 78  2  0
 80 79  1  0
 81 55  1  0
 81 86  1  0
 81 82  1  0
 82 85  1  1
 82 83  1  0
 84 82  1  0
 86 89  1  0
 87 91  1  0
 87 86  1  0
 88 87  2  0
 91 90  1  0
 93 91  1  0
 93 94  1  0
 93 92  1  0
M  ISO  4  15 100  23 100  53 101  54 101
M  END
>  <TORSDO>  (67) 
F 19

>  <SCORE>  (67) 
-13.893

>  <name>  (67) 
67

>  <ligand_id>  (67) 
67

>  <original_smiles>  (67) 
[H]c1c([H])c([H])c2c(c1[H])C([H])([H])C([H])([H])C([H])([H])C2([H])N([H])C(=O)C1([H])N(C(=O)C([H])(N([H])C(=O)C([H])(N([H])C([H])([H])[H])C([H])([H])[H])C(C([H])([H])[H])(C([H])([H])[H])C([H])([H])[H])C([H])([H])c2c([H])c(OC([H])([H])C3([H])C([H])([H])C([H])([H])C([H])([H])[N+]3([H])C([H])([H])c3c([H])c([H])c(N([H])C(=O)N4C([H])([H])C([H])([H])C([H])([H])C([H])(n5nc(-c6c([H])c([H])c(Oc7c([H])c([H])c(F)c([H])c7F)c([H])c6[H])c(C(=O)N([H])[H])c5N([H])[H])C4([H])[H])c(F)c3[H])c([H])c([H])c2C1([H])[H]

>  <smiles>  (67) 
[H]c1c([H])c([H])c2c(c1[H])C([H])([H])C([H])([H])C([H])([H])C2([H])N([H])C(=O)C1([H])N(C(=O)C([H])(N([H])C(=O)C([H])(N([H])C([H])([H])[H])C([H])([H])[H])C(C([H])([H])[H])(C([H])([H])[H])C([H])([H])[H])C([H])([H])c2c([H])c(OC([H])([H])C3([H])C([H])([H])C([H])([H])C([H])([H])[N+]3([H])C([H])([H])c3c([H])c([H])c(N([H])C(=O)N4C([H])([H])C([H])([H])C([H])([H])C([H])(n5nc(-c6c([H])c([H])c(Oc7c([H])c([H])c(F)c([H])c7F)c([H])c6[H])c(C(=O)N([H])[H])c5N([H])[H])C4([H])[H])c(F)c3[H])c([H])c([H])c2C1([H])[H]

$$$$
68:0:0
     RDKit          3D

 92101  0  0  1  0  0  0  0  0999 V2000
  -28.7180  -22.7060   21.1780 C   0  0  0  0  0  0  0  0  0  0  0  0
  -30.0270  -23.4030   19.3230 C   0  0  0  0  0  3  0  0  0  0  0  0
  -30.0870  -21.8600   19.5240 C   0  0  0  0  0  3  0  0  0  0  0  0
  -29.2130  -24.0060   20.4890 C   0  0  0  0  0  3  0  0  0  0  0  0
  -29.2470  -21.5590   20.6740 N   0  0  0  0  0  0  0  0  0  0  0  0
  -27.9400  -22.7440   22.1370 O   0  0  0  0  0  0  0  0  0  0  0  0
  -29.0240  -20.2130   21.3130 C   0  0  0  0  0  2  0  0  0  0  0  0
  -29.9350  -17.0290   19.1450 C   0  0  0  0  0  3  0  0  0  0  0  0
  -29.5610  -18.3680   19.4690 C   0  0  0  0  0  3  0  0  0  0  0  0
  -29.8610  -17.8360   21.7960 C   0  0  0  0  0  3  0  0  0  0  0  0
  -30.2730  -16.0580   20.1360 C   0  0  0  0  0  0  0  0  0  0  0  0
  -29.5280  -18.8110   20.8130 C   0  0  0  0  0  0  0  0  0  0  0  0
  -30.2270  -16.4980   21.4780 C   0  0  0  0  0  0  0  0  0  0  0  0
  -30.5790  -15.6560   22.4810 F   0  0  0  0  0  0  0  0  0  0  0  0
  -30.8790  -14.7090   19.7180 C   0  0  0  0  0  0  0  0  0  0  0  0
  -30.4620  -12.4920   18.7030 C   0  0  0  0  0  2  0  0  0  0  0  0
  -29.4060  -12.6460   17.5870 C   0  0  0  0  0  2  0  0  0  0  0  0
  -27.9890  -12.4970   18.1670 C   0  0  0  0  0  2  0  0  0  0  0  0
  -27.7660  -13.3540   19.4430 C   0  0  0  0  0  3  0  0  0  0  0  0
  -28.9380  -13.2300   20.4390 C   0  0  0  0  0  2  0  0  0  0  0  0
  -30.1850  -13.5250   19.7250 N   0  0  0  0  0  0  0  0  0  0  0  0
  -31.9840  -14.7820   19.1780 O   0  0  0  0  0  0  0  0  0  0  0  0
  -25.4970  -13.9180   20.5060 C   0  0  0  0  0  0  0  0  0  0  0  0
  -24.4650  -13.1280   20.9420 C   0  0  0  0  0  0  0  0  0  0  0  0
  -24.8930  -11.7790   20.7540 C   0  0  0  0  0  0  0  0  0  0  0  0
  -26.4840  -13.0480   20.0740 N   0  0  0  0  0  0  0  0  0  0  0  0
  -26.1350  -11.7520   20.2850 N   0  0  0  0  0  0  0  0  0  0  0  0
  -24.1690  -10.5130   20.9350 C   0  0  0  0  0  0  0  0  0  0  0  0
  -24.6040   -9.5390   21.8610 C   0  0  0  0  0  3  0  0  0  0  0  0
  -23.8800   -8.3400   22.0340 C   0  0  0  0  0  3  0  0  0  0  0  0
  -22.7050   -8.1050   21.2800 C   0  0  0  0  0  0  0  0  0  0  0  0
  -22.2880   -9.0670   20.3430 C   0  0  0  0  0  3  0  0  0  0  0  0
  -23.0130  -10.2580   20.1700 C   0  0  0  0  0  3  0  0  0  0  0  0
  -21.9520   -6.9580   21.3610 O   0  0  0  0  0  0  0  0  0  0  0  0
  -21.8000   -6.2780   22.5430 C   0  0  0  0  0  0  0  0  0  0  0  0
  -21.2520   -6.8920   23.6900 C   0  0  0  0  0  3  0  0  0  0  0  0
  -21.0510   -6.1390   24.8630 C   0  0  0  0  0  3  0  0  0  0  0  0
  -21.3840   -4.7700   24.8890 C   0  0  0  0  0  0  0  0  0  0  0  0
  -21.9220   -4.1550   23.7440 C   0  0  0  0  0  3  0  0  0  0  0  0
  -22.1250   -4.9060   22.5740 C   0  0  0  0  0  0  0  0  0  0  0  0
  -22.6260   -4.3060   21.4670 F   0  0  0  0  0  0  0  0  0  0  0  0
  -21.1810   -4.0420   26.0120 F   0  0  0  0  0  0  0  0  0  0  0  0
  -23.1210  -13.5980   21.4180 C   0  0  0  0  0  0  0  0  0  0  0  0
  -22.5130  -12.8690   22.3470 N   0  0  0  0  0  0  0  0  0  0  0  0
  -22.6220  -14.6410   20.9970 O   0  0  0  0  0  0  0  0  0  0  0  0
  -22.9310  -12.0240   22.7060 H   0  0  0  0  0  0  0  0  0  0  0  0
  -21.6150  -13.1610   22.7060 H   0  0  0  0  0  0  0  0  0  0  0  0
  -25.6730  -15.2950   20.4180 N   0  0  0  0  0  0  0  0  0  0  0  0
  -24.9610  -15.9580   20.7060 H   0  0  0  0  0  0  0  0  0  0  0  0
  -26.5140  -15.7410   20.0730 H   0  0  0  0  0  0  0  0  0  0  0  0
  -28.0860  -25.0640   20.1170 C   0  0  0  0  0  2  0  0  0  0  0  0
  -28.3790  -26.5100   19.9670 O   0  0  0  0  0  0  0  0  0  0  0  0
  -24.5710  -31.7360   23.1280 C   0  0  0  0  0  0  0  0  0  0  0  0
  -27.2550  -27.3480   19.9170 C   0  0  0  0  0  0  0  0  0  0  0  0
  -23.3800  -30.3450   21.4720 C   0  0  0  0  0  3  0  0  0  0  0  0
  -24.8490  -28.8890   19.9760 C   0  0  0  0  0  0  0  0  0  0  0  0
  -25.9040  -30.7520   21.2510 C   0  0  0  0  0  2  0  0  0  0  0  0
  -26.0140  -29.3960   20.5670 C   0  0  0  0  0  0  0  0  0  0  0  0
  -27.2210  -28.6370   20.5290 C   0  0  0  0  0  3  0  0  0  0  0  0
  -26.0690  -26.9030   19.2850 C   0  0  0  0  0  3  0  0  0  0  0  0
  -24.8800  -27.6500   19.3230 C   0  0  0  0  0  3  0  0  0  0  0  0
  -23.5890  -29.7220   20.0690 C   0  0  0  0  0  2  0  0  0  0  0  0
  -24.6390  -30.9580   22.0090 N   0  0  0  0  0  0  0  0  0  0  0  0
  -23.4900  -31.9670   23.6870 O   0  0  0  0  0  0  0  0  0  0  0  0
  -22.7660  -29.2810   22.4130 C   0  0  0  0  0  0  0  0  0  0  0  0
  -21.4520  -29.0370   22.2730 N   0  0  0  0  0  0  0  0  0  0  0  0
  -23.4710  -28.6810   23.2280 O   0  0  0  0  0  0  0  0  0  0  0  0
  -20.9390  -29.5750   21.5900 H   0  0  0  0  0  0  0  0  0  0  0  0
  -18.1420  -27.6480   22.7150 C   0  0  0  0  0  0  0  0  0  0  0  0
  -20.6770  -28.0510   23.0280 C   0  0  0  0  0  3  0  0  0  0  0  0
  -20.8700  -26.6290   22.4500 C   0  0  0  0  0  2  0  0  0  0  0  0
  -19.8050  -26.2480   21.4170 C   0  0  0  0  0  2  0  0  0  0  0  0
  -18.4060  -26.3130   22.0390 C   0  0  0  0  0  2  0  0  0  0  0  0
  -19.2080  -28.4700   23.1660 C   0  0  0  0  0  0  0  0  0  0  0  0
  -18.9080  -29.7160   23.7590 C   0  0  0  0  0  3  0  0  0  0  0  0
  -17.5740  -30.1420   23.9050 C   0  0  0  0  0  3  0  0  0  0  0  0
  -16.5220  -29.3160   23.4710 C   0  0  0  0  0  3  0  0  0  0  0  0
  -16.8070  -28.0710   22.8820 C   0  0  0  0  0  3  0  0  0  0  0  0
  -25.8460  -32.3890   23.7460 C   0  0  0  0  0  3  0  0  0  0  0  0
  -26.3890  -31.6160   25.0100 C   0  0  1  0  0  0  0  0  0  0  0  0
  -25.3080  -31.3360   26.0800 C   0  0  0  0  0  1  0  0  0  0  0  0
  -27.0090  -30.2600   24.5990 C   0  0  0  0  0  1  0  0  0  0  0  0
  -27.5210  -32.4330   25.6770 C   0  0  0  0  0  1  0  0  0  0  0  0
  -25.5110  -33.7770   24.0910 N   0  0  0  0  0  0  0  0  0  0  0  0
  -25.8430  -34.8440   23.3520 C   0  0  0  0  0  0  0  0  0  0  0  0
  -26.5340  -34.7640   22.3320 O   0  0  0  0  0  0  0  0  0  0  0  0
  -24.9020  -33.9150   24.8840 H   0  0  0  0  0  0  0  0  0  0  0  0
  -24.1200  -36.6350   22.9640 C   0  0  0  0  0  1  0  0  0  0  0  0
  -25.3280  -36.2200   23.8180 C   0  0  0  0  0  3  0  0  0  0  0  0
  -27.4200  -37.0980   24.7580 C   0  0  0  0  0  1  0  0  0  0  0  0
  -26.3580  -37.2810   23.7720 N   0  0  0  0  0  0  0  0  0  0  0  0
  -25.9390  -38.1950   23.9240 H   0  0  0  0  0  0  0  0  0  0  0  0
  1  6  2  0
  2  3  2  0
  2  4  1  0
  3  5  1  0
  4 51  1  0
  4  1  1  0
  5  1  1  0
  5  7  1  0
  8  9  2  0
  8 11  1  0
  9 12  1  0
 11 13  2  0
 12  7  1  0
 12 10  2  0
 13 10  1  0
 13 14  1  0
 15 21  1  0
 15 11  1  0
 16 21  1  0
 17 18  1  0
 17 16  1  0
 19 18  1  0
 19 26  1  0
 19 20  1  0
 21 20  1  0
 22 15  2  0
 23 24  2  0
 24 43  1  0
 25 28  1  0
 25 24  1  0
 26 27  1  0
 26 23  1  0
 27 25  2  0
 28 29  1  0
 29 30  2  0
 31 34  1  0
 31 30  1  0
 32 31  2  0
 33 32  1  0
 33 28  2  0
 34 35  1  0
 35 40  2  0
 35 36  1  0
 36 37  2  0
 37 38  1  0
 38 42  1  0
 39 38  2  0
 40 39  1  0
 41 40  1  0
 43 44  1  0
 44 47  1  0
 44 46  1  0
 45 43  2  0
 48 23  1  0
 48 49  1  0
 50 48  1  0
 52 51  1  0
 53 64  2  0
 54 52  1  0
 54 59  1  0
 55 63  1  0
 55 65  1  0
 56 62  1  0
 56 58  1  0
 57 63  1  0
 58 57  1  0
 59 58  2  0
 60 61  1  0
 60 54  2  0
 61 56  2  0
 62 55  1  0
 63 53  1  0
 65 67  2  0
 66 65  1  0
 68 66  1  0
 69 78  2  0
 69 74  1  0
 70 66  1  0
 70 74  1  0
 71 70  1  0
 72 73  1  0
 72 71  1  0
 73 69  1  0
 74 75  2  0
 75 76  1  0
 77 76  2  0
 78 77  1  0
 79 53  1  0
 79 84  1  0
 79 80  1  0
 80 83  1  1
 80 81  1  0
 82 80  1  0
 84 87  1  0
 85 89  1  0
 85 84  1  0
 86 85  2  0
 89 88  1  0
 91 89  1  0
 91 92  1  0
 91 90  1  0
M  ISO  4  11 100  15 100  51 101  52 101
M  END
>  <TORSDO>  (68) 
F 19

>  <SCORE>  (68) 
-12.884

>  <name>  (68) 
68

>  <ligand_id>  (68) 
68

>  <original_smiles>  (68) 
[H]c1c([H])c([H])c2c(c1[H])C([H])([H])C([H])([H])C([H])([H])C2([H])N([H])C(=O)C1([H])N(C(=O)C([H])(N([H])C(=O)C([H])(N([H])C([H])([H])[H])C([H])([H])[H])C(C([H])([H])[H])(C([H])([H])[H])C([H])([H])[H])C([H])([H])c2c([H])c(OC([H])([H])C3([H])C(=O)N(C([H])([H])c4c([H])c([H])c(C(=O)N5C([H])([H])C([H])([H])C([H])([H])C([H])(n6nc(-c7c([H])c([H])c(Oc8c([H])c([H])c(F)c([H])c8F)c([H])c7[H])c(C(=O)N([H])[H])c6N([H])[H])C5([H])[H])c(F)c4[H])C([H])([H])C3([H])[H])c([H])c([H])c2C1([H])[H]

>  <smiles>  (68) 
[H]c1c([H])c([H])c2c(c1[H])C([H])([H])C([H])([H])C([H])([H])C2([H])N([H])C(=O)C1([H])N(C(=O)C([H])(N([H])C(=O)C([H])(N([H])C([H])([H])[H])C([H])([H])[H])C(C([H])([H])[H])(C([H])([H])[H])C([H])([H])[H])C([H])([H])c2c([H])c(OC([H])([H])C3([H])C(=O)N(C([H])([H])c4c([H])c([H])c(C(=O)N5C([H])([H])C([H])([H])C([H])([H])C([H])(n6nc(-c7c([H])c([H])c(Oc8c([H])c([H])c(F)c([H])c8F)c([H])c7[H])c(C(=O)N([H])[H])c6N([H])[H])C5([H])[H])c(F)c4[H])C([H])([H])C3([H])[H])c([H])c([H])c2C1([H])[H]

$$$$
69:0:0
     RDKit          3D

 94102  0  0  1  0  0  0  0  0999 V2000
  -32.6230  -20.8000   19.0400 C   0  0  0  0  0  1  0  0  0  0  0  0
  -31.4420  -21.3650   19.7390 N   0  0  1  0  0  4  0  0  0  0  0  0
  -30.6390  -21.0120   19.2440 H   0  0  0  0  0  0  0  0  0  0  0  0
  -31.3190  -20.8970   21.1470 C   0  0  0  0  0  2  0  0  0  0  0  0
  -31.9940  -18.4600   21.4480 C   0  0  0  0  0  3  0  0  0  0  0  0
  -31.6850  -17.0870   21.4540 C   0  0  0  0  0  3  0  0  0  0  0  0
  -29.3290  -17.6160   21.1110 C   0  0  0  0  0  3  0  0  0  0  0  0
  -30.9780  -19.4160   21.2380 C   0  0  0  0  0  0  0  0  0  0  0  0
  -30.3550  -16.6550   21.2400 C   0  0  0  0  0  0  0  0  0  0  0  0
  -29.6400  -18.9890   21.1000 C   0  0  0  0  0  0  0  0  0  0  0  0
  -28.6560  -19.9010   20.9190 F   0  0  0  0  0  0  0  0  0  0  0  0
  -30.5480  -14.4240   20.2470 C   0  0  0  0  0  0  0  0  0  0  0  0
  -30.1340  -12.3840   18.9290 C   0  0  0  0  0  2  0  0  0  0  0  0
  -29.1330  -12.6850   17.7970 C   0  0  0  0  0  2  0  0  0  0  0  0
  -27.6840  -12.5250   18.2960 C   0  0  0  0  0  2  0  0  0  0  0  0
  -27.4240  -13.2830   19.6240 C   0  0  0  0  0  3  0  0  0  0  0  0
  -28.5280  -12.9700   20.6590 C   0  0  0  0  0  2  0  0  0  0  0  0
  -29.8350  -13.2850   20.0520 N   0  0  0  0  0  0  0  0  0  0  0  0
  -31.5790  -14.6810   19.6160 O   0  0  0  0  0  0  0  0  0  0  0  0
  -30.0270  -15.2800   21.1410 N   0  0  0  0  0  0  0  0  0  0  0  0
  -29.1530  -14.9840   21.5500 H   0  0  0  0  0  0  0  0  0  0  0  0
  -25.0460  -13.8580   20.4290 C   0  0  0  0  0  0  0  0  0  0  0  0
  -24.0030  -13.0700   20.8350 C   0  0  0  0  0  0  0  0  0  0  0  0
  -24.4770  -11.7250   20.7750 C   0  0  0  0  0  0  0  0  0  0  0  0
  -26.0920  -12.9920   20.1510 N   0  0  0  0  0  0  0  0  0  0  0  0
  -25.7540  -11.7020   20.4140 N   0  0  0  0  0  0  0  0  0  0  0  0
  -23.7750  -10.4520   20.9880 C   0  0  0  0  0  0  0  0  0  0  0  0
  -24.2620   -9.4840   21.8920 C   0  0  0  0  0  3  0  0  0  0  0  0
  -23.5600   -8.2750   22.0930 C   0  0  0  0  0  3  0  0  0  0  0  0
  -22.3590   -8.0270   21.3890 C   0  0  0  0  0  0  0  0  0  0  0  0
  -21.8920   -8.9850   20.4710 C   0  0  0  0  0  3  0  0  0  0  0  0
  -22.5930  -10.1850   20.2690 C   0  0  0  0  0  3  0  0  0  0  0  0
  -21.6240   -6.8710   21.5000 O   0  0  0  0  0  0  0  0  0  0  0  0
  -21.6430   -6.1120   22.6440 C   0  0  0  0  0  0  0  0  0  0  0  0
  -21.2830   -6.6490   23.8990 C   0  0  0  0  0  3  0  0  0  0  0  0
  -21.2480   -5.8190   25.0360 C   0  0  0  0  0  3  0  0  0  0  0  0
  -21.5620   -4.4520   24.9210 C   0  0  0  0  0  0  0  0  0  0  0  0
  -21.9140   -3.9140   23.6700 C   0  0  0  0  0  3  0  0  0  0  0  0
  -21.9520   -4.7420   22.5340 C   0  0  0  0  0  0  0  0  0  0  0  0
  -22.2710   -4.2130   21.3280 F   0  0  0  0  0  0  0  0  0  0  0  0
  -21.5200   -3.6510   26.0110 F   0  0  0  0  0  0  0  0  0  0  0  0
  -22.6120  -13.5280   21.1700 C   0  0  0  0  0  0  0  0  0  0  0  0
  -21.9310  -12.8160   22.0630 N   0  0  0  0  0  0  0  0  0  0  0  0
  -22.1380  -14.5490   20.6750 O   0  0  0  0  0  0  0  0  0  0  0  0
  -22.3280  -11.9890   22.4830 H   0  0  0  0  0  0  0  0  0  0  0  0
  -21.0010  -13.1060   22.3310 H   0  0  0  0  0  0  0  0  0  0  0  0
  -25.1890  -15.2320   20.2550 N   0  0  0  0  0  0  0  0  0  0  0  0
  -24.4260  -15.8830   20.4000 H   0  0  0  0  0  0  0  0  0  0  0  0
  -26.0290  -15.6770   19.9090 H   0  0  0  0  0  0  0  0  0  0  0  0
  -31.3810  -22.8450   19.6210 C   0  0  0  0  0  2  0  0  0  0  0  0
  -29.9320  -23.3710   19.5970 C   0  0  0  0  0  2  0  0  0  0  0  0
  -29.8520  -24.9000   19.7540 C   0  0  0  0  0  2  0  0  0  0  0  0
  -28.4200  -25.4350   19.6240 C   0  0  0  0  0  2  0  0  0  0  0  0
  -28.4120  -26.8100   19.9910 O   0  0  0  0  0  0  0  0  0  0  0  0
  -24.6020  -31.8750   23.1910 C   0  0  0  0  0  0  0  0  0  0  0  0
  -27.2050  -27.4780   20.0220 C   0  0  0  0  0  0  0  0  0  0  0  0
  -23.3700  -30.4950   21.5470 C   0  0  0  0  0  3  0  0  0  0  0  0
  -24.8020  -28.9660   20.0950 C   0  0  0  0  0  0  0  0  0  0  0  0
  -25.8930  -30.8520   21.3220 C   0  0  0  0  0  2  0  0  0  0  0  0
  -25.9660  -29.4890   20.6690 C   0  0  0  0  0  0  0  0  0  0  0  0
  -27.1670  -28.7510   20.6320 C   0  0  0  0  0  3  0  0  0  0  0  0
  -26.0170  -26.9570   19.4590 C   0  0  0  0  0  3  0  0  0  0  0  0
  -24.8200  -27.6960   19.4910 C   0  0  0  0  0  3  0  0  0  0  0  0
  -23.5600  -29.8250   20.1600 C   0  0  0  0  0  2  0  0  0  0  0  0
  -24.6400  -31.0890   22.0780 N   0  0  0  0  0  0  0  0  0  0  0  0
  -23.5290  -32.1440   23.7480 O   0  0  0  0  0  0  0  0  0  0  0  0
  -22.7290  -29.4650   22.5050 C   0  0  0  0  0  0  0  0  0  0  0  0
  -21.4050  -29.2800   22.3840 N   0  0  0  0  0  0  0  0  0  0  0  0
  -23.4200  -28.8360   23.3120 O   0  0  0  0  0  0  0  0  0  0  0  0
  -20.9120  -29.8400   21.7030 H   0  0  0  0  0  0  0  0  0  0  0  0
  -18.0370  -28.0630   22.8680 C   0  0  0  0  0  0  0  0  0  0  0  0
  -20.5920  -28.3360   23.1510 C   0  0  0  0  0  3  0  0  0  0  0  0
  -20.7060  -26.9070   22.5720 C   0  0  0  0  0  2  0  0  0  0  0  0
  -19.6090  -26.5790   21.5530 C   0  0  0  0  0  2  0  0  0  0  0  0
  -18.2240  -26.7160   22.1920 C   0  0  0  0  0  2  0  0  0  0  0  0
  -19.1500  -28.8310   23.3030 C   0  0  0  0  0  0  0  0  0  0  0  0
  -18.9230  -30.0930   23.8940 C   0  0  0  0  0  3  0  0  0  0  0  0
  -17.6140  -30.5890   24.0520 C   0  0  0  0  0  3  0  0  0  0  0  0
  -16.5160  -29.8170   23.6360 C   0  0  0  0  0  3  0  0  0  0  0  0
  -16.7280  -28.5570   23.0500 C   0  0  0  0  0  3  0  0  0  0  0  0
  -25.8980  -32.4940   23.8020 C   0  0  0  0  0  3  0  0  0  0  0  0
  -25.5990  -33.8860   24.1560 N   0  0  0  0  0  0  0  0  0  0  0  0
  -25.9230  -34.9480   23.4050 C   0  0  0  0  0  0  0  0  0  0  0  0
  -26.5810  -34.8570   22.3650 O   0  0  0  0  0  0  0  0  0  0  0  0
  -25.0140  -34.0310   24.9660 H   0  0  0  0  0  0  0  0  0  0  0  0
  -24.1930  -36.7450   23.0960 C   0  0  0  0  0  1  0  0  0  0  0  0
  -25.4440  -36.3300   23.8860 C   0  0  0  0  0  3  0  0  0  0  0  0
  -27.5940  -37.1990   24.6930 C   0  0  0  0  0  1  0  0  0  0  0  0
  -26.4750  -37.3850   23.7730 N   0  0  0  0  0  0  0  0  0  0  0  0
  -26.0720  -38.3030   23.9430 H   0  0  0  0  0  0  0  0  0  0  0  0
  -26.4330  -31.7010   25.0580 C   0  0  1  0  0  0  0  0  0  0  0  0
  -25.3570  -31.4520   26.1400 C   0  0  0  0  0  1  0  0  0  0  0  0
  -27.0020  -30.3280   24.6330 C   0  0  0  0  0  1  0  0  0  0  0  0
  -27.5980  -32.4820   25.7130 C   0  0  0  0  0  1  0  0  0  0  0  0
  1  2  1  0
  2  4  1  0
  2  3  1  6
  4  8  1  0
  5  6  1  0
  7  9  1  0
  8  5  2  0
  9  6  2  0
 10  7  2  0
 10  8  1  0
 11 10  1  0
 12 20  1  0
 13 18  1  0
 14 15  1  0
 14 13  1  0
 16 15  1  0
 16 25  1  0
 16 17  1  0
 18 12  1  0
 18 17  1  0
 19 12  2  0
 20  9  1  0
 20 21  1  0
 22 23  2  0
 23 42  1  0
 24 23  1  0
 24 27  1  0
 25 26  1  0
 25 22  1  0
 26 24  2  0
 27 28  1  0
 28 29  2  0
 30 33  1  0
 30 29  1  0
 31 30  2  0
 32 31  1  0
 32 27  2  0
 33 34  1  0
 34 35  1  0
 35 36  2  0
 37 36  1  0
 37 41  1  0
 38 37  2  0
 39 34  2  0
 39 38  1  0
 40 39  1  0
 42 43  1  0
 43 46  1  0
 43 45  1  0
 44 42  2  0
 47 48  1  0
 47 22  1  0
 49 47  1  0
 50  2  1  0
 51 50  1  0
 51 52  1  0
 53 52  1  0
 53 54  1  0
 54 56  1  0
 55 66  2  0
 56 61  1  0
 57 65  1  0
 57 67  1  0
 58 64  1  0
 58 60  1  0
 59 65  1  0
 60 59  1  0
 61 60  2  0
 62 63  1  0
 62 56  2  0
 63 58  2  0
 64 57  1  0
 65 55  1  0
 67 69  2  0
 68 67  1  0
 70 68  1  0
 71 80  2  0
 71 76  1  0
 72 68  1  0
 72 76  1  0
 73 72  1  0
 74 75  1  0
 74 73  1  0
 75 71  1  0
 76 77  2  0
 77 78  1  0
 79 78  2  0
 80 79  1  0
 81 55  1  0
 81 82  1  0
 81 91  1  0
 82 85  1  0
 83 87  1  0
 83 82  1  0
 84 83  2  0
 87 86  1  0
 89 87  1  0
 89 90  1  0
 89 88  1  0
 91 94  1  1
 91 92  1  0
 93 91  1  0
M  ISO  4  12 100  20 100  53 101  54 101
M  END
>  <TORSDO>  (69) 
F 22

>  <SCORE>  (69) 
-12.809

>  <name>  (69) 
69

>  <ligand_id>  (69) 
69

>  <original_smiles>  (69) 
[H]c1c([H])c([H])c2c(c1[H])C([H])([H])C([H])([H])C([H])([H])C2([H])N([H])C(=O)C1([H])N(C(=O)C([H])(N([H])C(=O)C([H])(N([H])C([H])([H])[H])C([H])([H])[H])C(C([H])([H])[H])(C([H])([H])[H])C([H])([H])[H])C([H])([H])c2c([H])c(OC([H])([H])C([H])([H])C([H])([H])C([H])([H])[N+]([H])(C([H])([H])[H])C([H])([H])c3c([H])c([H])c(N([H])C(=O)N4C([H])([H])C([H])([H])C([H])([H])C([H])(n5nc(-c6c([H])c([H])c(Oc7c([H])c([H])c(F)c([H])c7F)c([H])c6[H])c(C(=O)N([H])[H])c5N([H])[H])C4([H])[H])c([H])c3F)c([H])c([H])c2C1([H])[H]

>  <smiles>  (69) 
[H]c1c([H])c([H])c2c(c1[H])C([H])([H])C([H])([H])C([H])([H])C2([H])N([H])C(=O)C1([H])N(C(=O)C([H])(N([H])C(=O)C([H])(N([H])C([H])([H])[H])C([H])([H])[H])C(C([H])([H])[H])(C([H])([H])[H])C([H])([H])[H])C([H])([H])c2c([H])c(OC([H])([H])C([H])([H])C([H])([H])C([H])([H])[N+]([H])(C([H])([H])[H])C([H])([H])c3c([H])c([H])c(N([H])C(=O)N4C([H])([H])C([H])([H])C([H])([H])C([H])(n5nc(-c6c([H])c([H])c(Oc7c([H])c([H])c(F)c([H])c7F)c([H])c6[H])c(C(=O)N([H])[H])c5N([H])[H])C4([H])[H])c([H])c3F)c([H])c([H])c2C1([H])[H]

$$$$
70:0:0
     RDKit          3D

 93102  0  0  1  0  0  0  0  0999 V2000
  -29.1410  -23.0940   21.1770 C   0  0  0  0  0  0  0  0  0  0  0  0
  -30.4490  -24.3850   19.6270 C   0  0  0  0  0  3  0  0  0  0  0  0
  -30.7110  -22.8780   19.4980 C   0  0  0  0  0  3  0  0  0  0  0  0
  -29.4430  -24.5420   20.7680 C   0  0  0  0  0  3  0  0  0  0  0  0
  -29.8160  -22.1910   20.4300 N   0  0  0  0  0  0  0  0  0  0  0  0
  -28.3800  -22.8540   22.1190 O   0  0  0  0  0  0  0  0  0  0  0  0
  -30.5970  -18.5530   19.7070 C   0  0  0  0  0  3  0  0  0  0  0  0
  -28.6100  -18.6310   21.0890 C   0  0  0  0  0  3  0  0  0  0  0  0
  -30.6810  -19.9610   19.7560 C   0  0  0  0  0  3  0  0  0  0  0  0
  -28.6930  -20.0390   21.1360 C   0  0  0  0  0  3  0  0  0  0  0  0
  -29.5530  -17.8730   20.3660 C   0  0  0  0  0  0  0  0  0  0  0  0
  -29.7280  -20.7410   20.4600 C   0  0  0  0  0  0  0  0  0  0  0  0
  -29.3850  -16.3530   20.2340 C   0  0  0  0  0  2  0  0  0  0  0  0
  -30.9600  -14.4770   19.9910 C   0  0  0  0  0  0  0  0  0  0  0  0
  -30.5310  -12.2810   18.9350 C   0  0  0  0  0  2  0  0  0  0  0  0
  -29.5560  -12.4280   17.7520 C   0  0  0  0  0  2  0  0  0  0  0  0
  -28.0950  -12.3400   18.2350 C   0  0  0  0  0  2  0  0  0  0  0  0
  -27.8140  -13.2650   19.4480 C   0  0  0  0  0  3  0  0  0  0  0  0
  -28.9010  -13.1010   20.5350 C   0  0  0  0  0  2  0  0  0  0  0  0
  -30.2140  -13.3350   19.9130 N   0  0  0  0  0  0  0  0  0  0  0  0
  -32.0560  -14.5880   19.4330 O   0  0  0  0  0  0  0  0  0  0  0  0
  -31.3440  -16.1120   21.7490 C   0  0  0  0  0  1  0  0  0  0  0  0
  -30.4700  -15.4890   20.7500 N   0  0  0  0  0  0  0  0  0  0  0  0
  -25.4850  -13.9990   20.2540 C   0  0  0  0  0  0  0  0  0  0  0  0
  -24.3940  -13.2830   20.6710 C   0  0  0  0  0  0  0  0  0  0  0  0
  -24.7840  -11.9090   20.6240 C   0  0  0  0  0  0  0  0  0  0  0  0
  -26.4710  -13.0630   19.9850 N   0  0  0  0  0  0  0  0  0  0  0  0
  -26.0570  -11.8010   20.2640 N   0  0  0  0  0  0  0  0  0  0  0  0
  -24.0030  -10.6850   20.8440 C   0  0  0  0  0  0  0  0  0  0  0  0
  -24.4090   -9.7110   21.7830 C   0  0  0  0  0  3  0  0  0  0  0  0
  -23.6320   -8.5510   21.9900 C   0  0  0  0  0  3  0  0  0  0  0  0
  -22.4350   -8.3580   21.2590 C   0  0  0  0  0  0  0  0  0  0  0  0
  -22.0490   -9.3210   20.3100 C   0  0  0  0  0  3  0  0  0  0  0  0
  -22.8260  -10.4720   20.1010 C   0  0  0  0  0  3  0  0  0  0  0  0
  -21.6290   -7.2530   21.3770 O   0  0  0  0  0  0  0  0  0  0  0  0
  -21.5460   -6.5430   22.5480 C   0  0  0  0  0  0  0  0  0  0  0  0
  -21.1650   -7.1530   23.7640 C   0  0  0  0  0  3  0  0  0  0  0  0
  -21.0250   -6.3730   24.9290 C   0  0  0  0  0  3  0  0  0  0  0  0
  -21.2580   -4.9850   24.8810 C   0  0  0  0  0  0  0  0  0  0  0  0
  -21.6330   -4.3750   23.6710 C   0  0  0  0  0  3  0  0  0  0  0  0
  -21.7740   -5.1520   22.5080 C   0  0  0  0  0  0  0  0  0  0  0  0
  -22.1140   -4.5570   21.3400 F   0  0  0  0  0  0  0  0  0  0  0  0
  -21.1170   -4.2330   25.9970 F   0  0  0  0  0  0  0  0  0  0  0  0
  -23.0350  -13.8310   20.9960 C   0  0  0  0  0  0  0  0  0  0  0  0
  -22.3100  -13.1790   21.8990 N   0  0  0  0  0  0  0  0  0  0  0  0
  -22.6250  -14.8730   20.4840 O   0  0  0  0  0  0  0  0  0  0  0  0
  -22.6520  -12.3350   22.3330 H   0  0  0  0  0  0  0  0  0  0  0  0
  -21.3980  -13.5290   22.1590 H   0  0  0  0  0  0  0  0  0  0  0  0
  -25.7130  -15.3580   20.0620 N   0  0  0  0  0  0  0  0  0  0  0  0
  -24.9830  -16.0500   20.1920 H   0  0  0  0  0  0  0  0  0  0  0  0
  -26.5590  -15.7470   19.6660 H   0  0  0  0  0  0  0  0  0  0  0  0
  -28.1660  -25.3160   20.3650 C   0  0  0  0  0  2  0  0  0  0  0  0
  -28.3680  -26.7340   20.2110 O   0  0  0  0  0  0  0  0  0  0  0  0
  -24.5590  -31.9310   23.2290 C   0  0  0  0  0  0  0  0  0  0  0  0
  -27.2040  -27.4800   20.1680 C   0  0  0  0  0  0  0  0  0  0  0  0
  -23.3480  -30.5060   21.6090 C   0  0  0  0  0  3  0  0  0  0  0  0
  -24.8020  -28.9760   20.1790 C   0  0  0  0  0  0  0  0  0  0  0  0
  -25.8700  -30.8840   21.3850 C   0  0  0  0  0  2  0  0  0  0  0  0
  -25.9630  -29.5110   20.7530 C   0  0  0  0  0  0  0  0  0  0  0  0
  -27.1680  -28.7720   20.7400 C   0  0  0  0  0  3  0  0  0  0  0  0
  -26.0250  -26.9690   19.5750 C   0  0  0  0  0  3  0  0  0  0  0  0
  -24.8290  -27.7050   19.5840 C   0  0  0  0  0  3  0  0  0  0  0  0
  -23.5500  -29.8200   20.2330 C   0  0  0  0  0  2  0  0  0  0  0  0
  -24.6120  -31.1220   22.1330 N   0  0  0  0  0  0  0  0  0  0  0  0
  -23.4810  -32.1970   23.7780 O   0  0  0  0  0  0  0  0  0  0  0  0
  -22.7170  -29.4850   22.5830 C   0  0  0  0  0  0  0  0  0  0  0  0
  -21.3950  -29.2830   22.4630 N   0  0  0  0  0  0  0  0  0  0  0  0
  -23.4130  -28.8770   23.4010 O   0  0  0  0  0  0  0  0  0  0  0  0
  -20.8940  -29.8280   21.7740 H   0  0  0  0  0  0  0  0  0  0  0  0
  -18.0400  -28.0400   22.9700 C   0  0  0  0  0  0  0  0  0  0  0  0
  -20.5910  -28.3440   23.2450 C   0  0  0  0  0  3  0  0  0  0  0  0
  -20.7200  -26.9060   22.6910 C   0  0  0  0  0  2  0  0  0  0  0  0
  -19.6270  -26.5480   21.6790 C   0  0  0  0  0  2  0  0  0  0  0  0
  -18.2400  -26.6830   22.3150 C   0  0  0  0  0  2  0  0  0  0  0  0
  -19.1450  -28.8270   23.3900 C   0  0  0  0  0  0  0  0  0  0  0  0
  -18.9030  -30.0970   23.9570 C   0  0  0  0  0  3  0  0  0  0  0  0
  -17.5900  -30.5800   24.1100 C   0  0  0  0  0  3  0  0  0  0  0  0
  -16.5000  -29.7900   23.7080 C   0  0  0  0  0  3  0  0  0  0  0  0
  -16.7260  -28.5220   23.1430 C   0  0  0  0  0  3  0  0  0  0  0  0
  -25.8450  -32.5760   23.8310 C   0  0  0  0  0  3  0  0  0  0  0  0
  -26.3800  -31.8230   25.1100 C   0  0  1  0  0  0  0  0  0  0  0  0
  -25.3010  -31.5890   26.1920 C   0  0  0  0  0  1  0  0  0  0  0  0
  -26.9710  -30.4460   24.7250 C   0  0  0  0  0  1  0  0  0  0  0  0
  -27.5300  -32.6350   25.7540 C   0  0  0  0  0  1  0  0  0  0  0  0
  -25.5340  -33.9760   24.1450 N   0  0  0  0  0  0  0  0  0  0  0  0
  -25.8500  -35.0200   23.3670 C   0  0  0  0  0  0  0  0  0  0  0  0
  -26.5090  -34.9070   22.3300 O   0  0  0  0  0  0  0  0  0  0  0  0
  -24.9550  -34.1390   24.9560 H   0  0  0  0  0  0  0  0  0  0  0  0
  -24.1030  -36.7900   23.0040 C   0  0  0  0  0  1  0  0  0  0  0  0
  -25.3560  -36.4100   23.8100 C   0  0  0  0  0  3  0  0  0  0  0  0
  -27.4940  -37.3190   24.6020 C   0  0  0  0  0  1  0  0  0  0  0  0
  -26.3770  -37.4700   23.6730 N   0  0  0  0  0  0  0  0  0  0  0  0
  -25.9650  -38.3880   23.8190 H   0  0  0  0  0  0  0  0  0  0  0  0
  1  6  2  0
  2  4  1  0
  3  2  2  0
  3  5  1  0
  4 52  1  0
  4  1  1  0
  5 12  1  0
  5  1  1  0
  7  9  2  0
  7 11  1  0
  8 10  1  0
  9 12  1  0
 11  8  2  0
 12 10  2  0
 13 11  1  0
 13 23  1  0
 14 23  1  0
 15 20  1  0
 16 17  1  0
 16 15  1  0
 18 17  1  0
 18 27  1  0
 18 19  1  0
 20 14  1  0
 20 19  1  0
 21 14  2  0
 23 22  1  0
 24 25  2  0
 25 44  1  0
 26 25  1  0
 26 29  1  0
 27 24  1  0
 27 28  1  0
 28 26  2  0
 29 30  1  0
 30 31  2  0
 32 35  1  0
 32 31  1  0
 33 32  2  0
 34 33  1  0
 34 29  2  0
 35 36  1  0
 36 37  1  0
 37 38  2  0
 39 38  1  0
 39 43  1  0
 40 39  2  0
 41 36  2  0
 41 40  1  0
 42 41  1  0
 44 45  1  0
 45 48  1  0
 45 47  1  0
 46 44  2  0
 49 50  1  0
 49 24  1  0
 51 49  1  0
 53 52  1  0
 54 65  2  0
 55 53  1  0
 55 60  1  0
 56 64  1  0
 56 66  1  0
 57 63  1  0
 57 59  1  0
 58 64  1  0
 59 58  1  0
 60 59  2  0
 61 62  1  0
 61 55  2  0
 62 57  2  0
 63 56  1  0
 64 54  1  0
 66 68  2  0
 67 66  1  0
 69 67  1  0
 70 79  2  0
 70 75  1  0
 71 67  1  0
 71 75  1  0
 72 71  1  0
 73 74  1  0
 73 72  1  0
 74 70  1  0
 75 76  2  0
 76 77  1  0
 78 77  2  0
 79 78  1  0
 80 54  1  0
 80 85  1  0
 80 81  1  0
 81 84  1  1
 81 82  1  0
 83 81  1  0
 85 88  1  0
 86 90  1  0
 86 85  1  0
 87 86  2  0
 90 89  1  0
 92 90  1  0
 92 93  1  0
 92 91  1  0
M  ISO  4  14 100  23 100  52 101  53 101
M  END
>  <TORSDO>  (70) 
F 19

>  <SCORE>  (70) 
-13.354

>  <name>  (70) 
70

>  <ligand_id>  (70) 
70

>  <original_smiles>  (70) 
[H]c1c([H])c([H])c2c(c1[H])C([H])([H])C([H])([H])C([H])([H])C2([H])N([H])C(=O)C1([H])N(C(=O)C([H])(N([H])C(=O)C([H])(N([H])C([H])([H])[H])C([H])([H])[H])C(C([H])([H])[H])(C([H])([H])[H])C([H])([H])[H])C([H])([H])c2c([H])c(OC([H])([H])C3([H])C(=O)N(c4c([H])c([H])c(C([H])([H])N(C(=O)N5C([H])([H])C([H])([H])C([H])([H])C([H])(n6nc(-c7c([H])c([H])c(Oc8c([H])c([H])c(F)c([H])c8F)c([H])c7[H])c(C(=O)N([H])[H])c6N([H])[H])C5([H])[H])C([H])([H])[H])c([H])c4[H])C([H])([H])C3([H])[H])c([H])c([H])c2C1([H])[H]

>  <smiles>  (70) 
[H]c1c([H])c([H])c2c(c1[H])C([H])([H])C([H])([H])C([H])([H])C2([H])N([H])C(=O)C1([H])N(C(=O)C([H])(N([H])C(=O)C([H])(N([H])C([H])([H])[H])C([H])([H])[H])C(C([H])([H])[H])(C([H])([H])[H])C([H])([H])[H])C([H])([H])c2c([H])c(OC([H])([H])C3([H])C(=O)N(c4c([H])c([H])c(C([H])([H])N(C(=O)N5C([H])([H])C([H])([H])C([H])([H])C([H])(n6nc(-c7c([H])c([H])c(Oc8c([H])c([H])c(F)c([H])c8F)c([H])c7[H])c(C(=O)N([H])[H])c6N([H])[H])C5([H])[H])C([H])([H])[H])c([H])c4[H])C([H])([H])C3([H])[H])c([H])c([H])c2C1([H])[H]

$$$$
71:0:0
     RDKit          3D

 93101  0  0  1  0  0  0  0  0999 V2000
  -27.0140  -21.2530   21.5060 C   0  0  0  0  0  1  0  0  0  0  0  0
  -28.2260  -21.1780   20.6530 N   0  0  1  0  0  4  0  0  0  0  0  0
  -28.9860  -20.9050   21.2580 H   0  0  0  0  0  0  0  0  0  0  0  0
  -28.1330  -20.0880   19.6550 C   0  0  0  0  0  2  0  0  0  0  0  0
  -30.2920  -18.7830   19.3550 C   0  0  0  0  0  3  0  0  0  0  0  0
  -28.6930  -18.0420   21.0410 C   0  0  0  0  0  3  0  0  0  0  0  0
  -31.1240  -17.6900   19.6620 C   0  0  0  0  0  3  0  0  0  0  0  0
  -29.5210  -16.9480   21.3460 C   0  0  0  0  0  3  0  0  0  0  0  0
  -29.0620  -18.9490   20.0270 C   0  0  0  0  0  0  0  0  0  0  0  0
  -30.7250  -16.7480   20.6380 C   0  0  0  0  0  0  0  0  0  0  0  0
  -31.8470  -14.7210   19.9450 C   0  0  0  0  0  0  0  0  0  0  0  0
  -31.3860  -12.5720   18.8290 C   0  0  0  0  0  2  0  0  0  0  0  0
  -30.3800  -12.7690   17.6790 C   0  0  0  0  0  2  0  0  0  0  0  0
  -28.9270  -12.7140   18.1900 C   0  0  0  0  0  2  0  0  0  0  0  0
  -28.6990  -13.6210   19.4270 C   0  0  0  0  0  3  0  0  0  0  0  0
  -29.7950  -13.3640   20.4860 C   0  0  0  0  0  2  0  0  0  0  0  0
  -31.1180  -13.5790   19.8630 N   0  0  0  0  0  0  0  0  0  0  0  0
  -32.8230  -14.9700   19.2280 O   0  0  0  0  0  0  0  0  0  0  0  0
  -31.4480  -15.5610   20.9060 N   0  0  0  0  0  0  0  0  0  0  0  0
  -31.0770  -15.0590   21.6990 H   0  0  0  0  0  0  0  0  0  0  0  0
  -26.4090  -14.3870   20.3300 C   0  0  0  0  0  0  0  0  0  0  0  0
  -25.3040  -13.6840   20.7340 C   0  0  0  0  0  0  0  0  0  0  0  0
  -25.6420  -12.3030   20.5940 C   0  0  0  0  0  0  0  0  0  0  0  0
  -27.3590  -13.4370   19.9810 N   0  0  0  0  0  0  0  0  0  0  0  0
  -26.9000  -12.1770   20.1910 N   0  0  0  0  0  0  0  0  0  0  0  0
  -24.8250  -11.0950   20.7690 C   0  0  0  0  0  0  0  0  0  0  0  0
  -25.1190  -10.1420   21.7700 C   0  0  0  0  0  3  0  0  0  0  0  0
  -24.3090   -8.9970   21.9290 C   0  0  0  0  0  3  0  0  0  0  0  0
  -23.1920   -8.7970   21.0860 C   0  0  0  0  0  0  0  0  0  0  0  0
  -22.9160   -9.7360   20.0770 C   0  0  0  0  0  3  0  0  0  0  0  0
  -23.7260  -10.8720   19.9160 C   0  0  0  0  0  3  0  0  0  0  0  0
  -22.3620   -7.7030   21.1500 O   0  0  0  0  0  0  0  0  0  0  0  0
  -22.0200   -7.1280   22.3480 C   0  0  0  0  0  0  0  0  0  0  0  0
  -21.3760   -7.8610   23.3690 C   0  0  0  0  0  3  0  0  0  0  0  0
  -20.9800   -7.2140   24.5570 C   0  0  0  0  0  3  0  0  0  0  0  0
  -21.2190   -5.8360   24.7210 C   0  0  0  0  0  0  0  0  0  0  0  0
  -21.8560   -5.1040   23.7030 C   0  0  0  0  0  3  0  0  0  0  0  0
  -22.2540   -5.7500   22.5200 C   0  0  0  0  0  0  0  0  0  0  0  0
  -22.8480   -5.0350   21.5330 F   0  0  0  0  0  0  0  0  0  0  0  0
  -20.8310   -5.2120   25.8580 F   0  0  0  0  0  0  0  0  0  0  0  0
  -23.9740  -14.2560   21.1360 C   0  0  0  0  0  0  0  0  0  0  0  0
  -23.2700  -13.5940   22.0470 N   0  0  0  0  0  0  0  0  0  0  0  0
  -23.5710  -15.3250   20.6780 O   0  0  0  0  0  0  0  0  0  0  0  0
  -23.6080  -12.7270   22.4410 H   0  0  0  0  0  0  0  0  0  0  0  0
  -22.3810  -13.9580   22.3580 H   0  0  0  0  0  0  0  0  0  0  0  0
  -26.6780  -15.7480   20.2160 N   0  0  0  0  0  0  0  0  0  0  0  0
  -25.9840  -16.4560   20.4310 H   0  0  0  0  0  0  0  0  0  0  0  0
  -27.5580  -16.1370   19.9020 H   0  0  0  0  0  0  0  0  0  0  0  0
  -28.6160  -22.4680   20.0270 C   0  0  0  0  0  2  0  0  0  0  0  0
  -28.9210  -23.6010   21.0260 C   0  0  0  0  0  2  0  0  0  0  0  0
  -29.3820  -24.8750   20.3030 C   0  0  0  0  0  2  0  0  0  0  0  0
  -29.3790  -26.1130   21.2110 C   0  0  0  0  0  2  0  0  0  0  0  0
  -29.2840  -27.3000   20.4290 O   0  0  0  0  0  0  0  0  0  0  0  0
  -24.7240  -31.8680   23.3900 C   0  0  0  0  0  0  0  0  0  0  0  0
  -28.0290  -27.8540   20.3990 C   0  0  0  0  0  0  0  0  0  0  0  0
  -23.7750  -30.3720   21.6620 C   0  0  0  0  0  3  0  0  0  0  0  0
  -25.4700  -29.0360   20.3060 C   0  0  0  0  0  0  0  0  0  0  0  0
  -26.2450  -31.0270   21.6080 C   0  0  0  0  0  2  0  0  0  0  0  0
  -26.5220  -29.6890   20.9620 C   0  0  0  0  0  0  0  0  0  0  0  0
  -27.8030  -29.1030   21.0090 C   0  0  0  0  0  3  0  0  0  0  0  0
  -26.9650  -27.2000   19.7410 C   0  0  0  0  0  3  0  0  0  0  0  0
  -25.6840  -27.7850   19.6980 C   0  0  0  0  0  3  0  0  0  0  0  0
  -24.1350  -29.7420   20.2890 C   0  0  0  0  0  2  0  0  0  0  0  0
  -24.9270  -31.1050   22.2790 N   0  0  0  0  0  0  0  0  0  0  0  0
  -23.5930  -32.0060   23.8730 O   0  0  0  0  0  0  0  0  0  0  0  0
  -23.1950  -29.2660   22.5710 C   0  0  0  0  0  0  0  0  0  0  0  0
  -21.9200  -28.9130   22.3410 N   0  0  0  0  0  0  0  0  0  0  0  0
  -23.8920  -28.7280   23.4350 O   0  0  0  0  0  0  0  0  0  0  0  0
  -21.4130  -29.4090   21.6210 H   0  0  0  0  0  0  0  0  0  0  0  0
  -18.7070  -27.2830   22.5700 C   0  0  0  0  0  0  0  0  0  0  0  0
  -21.1790  -27.8670   23.0440 C   0  0  0  0  0  3  0  0  0  0  0  0
  -21.5140  -26.4690   22.4780 C   0  0  0  0  0  2  0  0  0  0  0  0
  -20.5450  -26.0100   21.3820 C   0  0  0  0  0  2  0  0  0  0  0  0
  -19.1090  -25.9740   21.9120 C   0  0  0  0  0  2  0  0  0  0  0  0
  -19.6800  -28.1790   23.0880 C   0  0  0  0  0  0  0  0  0  0  0  0
  -19.2530  -29.3980   23.6600 C   0  0  0  0  0  3  0  0  0  0  0  0
  -17.8850  -29.7240   23.7220 C   0  0  0  0  0  3  0  0  0  0  0  0
  -16.9260  -28.8280   23.2200 C   0  0  0  0  0  3  0  0  0  0  0  0
  -17.3380  -27.6090   22.6510 C   0  0  0  0  0  3  0  0  0  0  0  0
  -25.8980  -32.6260   24.0880 C   0  0  0  0  0  3  0  0  0  0  0  0
  -25.4530  -34.0050   24.3250 N   0  0  0  0  0  0  0  0  0  0  0  0
  -25.7740  -35.0520   23.5530 C   0  0  0  0  0  0  0  0  0  0  0  0
  -26.5470  -34.9650   22.5950 O   0  0  0  0  0  0  0  0  0  0  0  0
  -24.7750  -34.1410   25.0620 H   0  0  0  0  0  0  0  0  0  0  0  0
  -23.9650  -36.6880   22.9420 C   0  0  0  0  0  1  0  0  0  0  0  0
  -25.1360  -36.4100   23.8990 C   0  0  0  0  0  3  0  0  0  0  0  0
  -27.0970  -37.4840   24.9160 C   0  0  0  0  0  1  0  0  0  0  0  0
  -26.0920  -37.5380   23.8560 N   0  0  0  0  0  0  0  0  0  0  0  0
  -25.6040  -38.4270   23.9270 H   0  0  0  0  0  0  0  0  0  0  0  0
  -26.3640  -31.9470   25.4340 C   0  0  1  0  0  0  0  0  0  0  0  0
  -25.2010  -31.6270   26.4010 C   0  0  0  0  0  1  0  0  0  0  0  0
  -27.1170  -30.6270   25.1470 C   0  0  0  0  0  1  0  0  0  0  0  0
  -27.3540  -32.8760   26.1740 C   0  0  0  0  0  1  0  0  0  0  0  0
  2  3  1  1
  2  1  1  0
  4  9  1  0
  4  2  1  0
  5  7  2  0
  5  9  1  0
  6  8  1  0
  7 10  1  0
  9  6  2  0
 10 19  1  0
 10  8  2  0
 11 19  1  0
 12 17  1  0
 13 14  1  0
 13 12  1  0
 15 14  1  0
 15 24  1  0
 15 16  1  0
 17 11  1  0
 17 16  1  0
 18 11  2  0
 19 20  1  0
 21 22  2  0
 22 41  1  0
 23 22  1  0
 23 26  1  0
 24 25  1  0
 24 21  1  0
 25 23  2  0
 26 27  1  0
 27 28  2  0
 29 32  1  0
 29 28  1  0
 30 29  2  0
 31 30  1  0
 31 26  2  0
 32 33  1  0
 33 38  2  0
 33 34  1  0
 34 35  2  0
 35 36  1  0
 36 40  1  0
 37 36  2  0
 38 37  1  0
 39 38  1  0
 41 42  1  0
 42 45  1  0
 42 44  1  0
 43 41  2  0
 46 21  1  0
 46 47  1  0
 48 46  1  0
 49  2  1  0
 49 50  1  0
 51 50  1  0
 51 52  1  0
 53 52  1  0
 54 65  2  0
 55 53  1  0
 55 60  1  0
 56 64  1  0
 56 66  1  0
 57 59  1  0
 58 64  1  0
 59 60  2  0
 59 58  1  0
 61 55  2  0
 62 61  1  0
 62 57  2  0
 63 57  1  0
 63 56  1  0
 64 54  1  0
 66 68  2  0
 67 66  1  0
 69 67  1  0
 70 79  2  0
 70 75  1  0
 71 67  1  0
 71 75  1  0
 72 71  1  0
 73 74  1  0
 73 72  1  0
 74 70  1  0
 75 76  2  0
 76 77  1  0
 78 77  2  0
 79 78  1  0
 80 54  1  0
 80 81  1  0
 80 90  1  0
 81 84  1  0
 82 86  1  0
 82 81  1  0
 83 82  2  0
 86 85  1  0
 88 86  1  0
 88 89  1  0
 88 87  1  0
 90 93  1  1
 90 91  1  0
 92 90  1  0
M  ISO  4  11 100  19 100  52 101  53 101
M  END
>  <TORSDO>  (71) 
F 22

>  <SCORE>  (71) 
-9.053

>  <name>  (71) 
71

>  <ligand_id>  (71) 
71

>  <original_smiles>  (71) 
[H]c1c([H])c([H])c2c(c1[H])C([H])([H])C([H])([H])C([H])([H])C2([H])N([H])C(=O)C1([H])N(C(=O)C([H])(N([H])C(=O)C([H])(N([H])C([H])([H])[H])C([H])([H])[H])C(C([H])([H])[H])(C([H])([H])[H])C([H])([H])[H])C([H])([H])c2c([H])c(OC([H])([H])C([H])([H])C([H])([H])C([H])([H])[N+]([H])(C([H])([H])[H])C([H])([H])c3c([H])c([H])c(N([H])C(=O)N4C([H])([H])C([H])([H])C([H])([H])C([H])(n5nc(-c6c([H])c([H])c(Oc7c([H])c([H])c(F)c([H])c7F)c([H])c6[H])c(C(=O)N([H])[H])c5N([H])[H])C4([H])[H])c([H])c3[H])c([H])c([H])c2C1([H])[H]

>  <smiles>  (71) 
[H]c1c([H])c([H])c2c(c1[H])C([H])([H])C([H])([H])C([H])([H])C2([H])N([H])C(=O)C1([H])N(C(=O)C([H])(N([H])C(=O)C([H])(N([H])C([H])([H])[H])C([H])([H])[H])C(C([H])([H])[H])(C([H])([H])[H])C([H])([H])[H])C([H])([H])c2c([H])c(OC([H])([H])C([H])([H])C([H])([H])C([H])([H])[N+]([H])(C([H])([H])[H])C([H])([H])c3c([H])c([H])c(N([H])C(=O)N4C([H])([H])C([H])([H])C([H])([H])C([H])(n5nc(-c6c([H])c([H])c(Oc7c([H])c([H])c(F)c([H])c7F)c([H])c6[H])c(C(=O)N([H])[H])c5N([H])[H])C4([H])[H])c([H])c3[H])c([H])c([H])c2C1([H])[H]

$$$$
72:0:0
     RDKit          3D

 92100  0  0  1  0  0  0  0  0999 V2000
  -29.5140  -22.7120   19.5740 N   0  0  0  0  0  0  0  0  0  0  0  0
  -30.1720  -18.9920   18.9080 C   0  0  0  0  0  3  0  0  0  0  0  0
  -28.5630  -19.1280   20.6740 C   0  0  0  0  0  3  0  0  0  0  0  0
  -30.1830  -20.4150   18.8270 C   0  0  0  0  0  3  0  0  0  0  0  0
  -28.5780  -20.5630   20.5930 C   0  0  0  0  0  3  0  0  0  0  0  0
  -29.3570  -18.2940   19.8320 C   0  0  0  0  0  0  0  0  0  0  0  0
  -29.3970  -21.2660   19.6640 C   0  0  0  0  0  0  0  0  0  0  0  0
  -29.1940  -16.7150   19.7660 C   0  0  0  0  0  2  0  0  0  0  0  0
  -30.6630  -14.6310   20.0070 C   0  0  0  0  0  0  0  0  0  0  0  0
  -30.3750  -12.3840   18.9680 C   0  0  0  0  0  2  0  0  0  0  0  0
  -29.3690  -12.4710   17.8010 C   0  0  0  0  0  2  0  0  0  0  0  0
  -27.9320  -12.2790   18.3200 C   0  0  0  0  0  2  0  0  0  0  0  0
  -27.6240  -13.1640   19.5570 C   0  0  0  0  0  3  0  0  0  0  0  0
  -28.7440  -13.0810   20.6180 C   0  0  0  0  0  2  0  0  0  0  0  0
  -30.0070  -13.4250   19.9530 N   0  0  0  0  0  0  0  0  0  0  0  0
  -31.7950  -14.7440   19.5250 O   0  0  0  0  0  0  0  0  0  0  0  0
  -30.6660  -16.3480   21.7240 C   0  0  0  0  0  1  0  0  0  0  0  0
  -30.0330  -15.7350   20.5560 N   0  0  0  0  0  0  0  0  0  0  0  0
  -25.2840  -13.7280   20.4440 C   0  0  0  0  0  0  0  0  0  0  0  0
  -24.2460  -12.9410   20.8620 C   0  0  0  0  0  0  0  0  0  0  0  0
  -24.7120  -11.5930   20.7710 C   0  0  0  0  0  0  0  0  0  0  0  0
  -26.3140  -12.8600   20.1240 N   0  0  0  0  0  0  0  0  0  0  0  0
  -25.9810  -11.5690   20.3820 N   0  0  0  0  0  0  0  0  0  0  0  0
  -24.0030  -10.3230   20.9740 C   0  0  0  0  0  0  0  0  0  0  0  0
  -24.4280   -9.3860   21.9420 C   0  0  0  0  0  3  0  0  0  0  0  0
  -23.7170   -8.1810   22.1330 C   0  0  0  0  0  3  0  0  0  0  0  0
  -22.5670   -7.9050   21.3550 C   0  0  0  0  0  0  0  0  0  0  0  0
  -22.1620   -8.8300   20.3770 C   0  0  0  0  0  3  0  0  0  0  0  0
  -22.8750  -10.0260   20.1850 C   0  0  0  0  0  3  0  0  0  0  0  0
  -21.8310   -6.7500   21.4520 O   0  0  0  0  0  0  0  0  0  0  0  0
  -21.7010   -6.0760   22.6400 C   0  0  0  0  0  0  0  0  0  0  0  0
  -21.1180   -6.6750   23.7770 C   0  0  0  0  0  3  0  0  0  0  0  0
  -20.9420   -5.9250   24.9570 C   0  0  0  0  0  3  0  0  0  0  0  0
  -21.3390   -4.5750   24.9990 C   0  0  0  0  0  0  0  0  0  0  0  0
  -21.9160   -3.9750   23.8660 C   0  0  0  0  0  3  0  0  0  0  0  0
  -22.0930   -4.7230   22.6890 C   0  0  0  0  0  0  0  0  0  0  0  0
  -22.6300   -4.1320   21.5930 F   0  0  0  0  0  0  0  0  0  0  0  0
  -21.1630   -3.8520   26.1300 F   0  0  0  0  0  0  0  0  0  0  0  0
  -22.8670  -13.4040   21.2320 C   0  0  0  0  0  0  0  0  0  0  0  0
  -22.1960  -12.6820   22.1210 N   0  0  0  0  0  0  0  0  0  0  0  0
  -22.3960  -14.4410   20.7670 O   0  0  0  0  0  0  0  0  0  0  0  0
  -22.5930  -11.8420   22.5160 H   0  0  0  0  0  0  0  0  0  0  0  0
  -21.2740  -12.9740   22.4140 H   0  0  0  0  0  0  0  0  0  0  0  0
  -25.4290  -15.1030   20.2880 N   0  0  0  0  0  0  0  0  0  0  0  0
  -24.6630  -15.7480   20.4510 H   0  0  0  0  0  0  0  0  0  0  0  0
  -26.2510  -15.5530   19.9070 H   0  0  0  0  0  0  0  0  0  0  0  0
  -30.8990  -23.1500   19.3470 C   0  0  0  0  0  2  0  0  0  0  0  0
  -33.3360  -22.8120   20.0160 C   0  0  0  0  0  1  0  0  0  0  0  0
  -31.8700  -22.6420   20.4280 C   0  0  0  0  0  2  0  0  0  0  0  0
  -28.6440  -23.7450   20.2490 C   0  0  0  0  0  2  0  0  0  0  0  0
  -28.3880  -25.1240   19.4500 C   0  0  0  0  0  2  0  0  0  0  0  0
  -28.3010  -26.4320   20.1480 O   0  0  0  0  0  0  0  0  0  0  0  0
  -24.7070  -31.7900   23.3750 C   0  0  0  0  0  0  0  0  0  0  0  0
  -27.1730  -27.2720   20.1240 C   0  0  0  0  0  0  0  0  0  0  0  0
  -23.4520  -30.4840   21.6960 C   0  0  0  0  0  3  0  0  0  0  0  0
  -24.8470  -28.9450   20.2020 C   0  0  0  0  0  0  0  0  0  0  0  0
  -25.9970  -30.7390   21.5010 C   0  0  0  0  0  2  0  0  0  0  0  0
  -26.0330  -29.3840   20.8020 C   0  0  0  0  0  0  0  0  0  0  0  0
  -27.1950  -28.5570   20.7530 C   0  0  0  0  0  3  0  0  0  0  0  0
  -25.9560  -26.8780   19.5230 C   0  0  0  0  0  3  0  0  0  0  0  0
  -24.8110  -27.6980   19.5580 C   0  0  0  0  0  3  0  0  0  0  0  0
  -23.6360  -29.8520   20.2900 C   0  0  0  0  0  2  0  0  0  0  0  0
  -24.7390  -31.0200   22.2470 N   0  0  0  0  0  0  0  0  0  0  0  0
  -23.6360  -32.0760   23.9290 O   0  0  0  0  0  0  0  0  0  0  0  0
  -22.7710  -29.4510   22.6240 C   0  0  0  0  0  0  0  0  0  0  0  0
  -21.4520  -29.2530   22.4450 N   0  0  0  0  0  0  0  0  0  0  0  0
  -23.4270  -28.8300   23.4650 O   0  0  0  0  0  0  0  0  0  0  0  0
  -20.9820  -29.8070   21.7430 H   0  0  0  0  0  0  0  0  0  0  0  0
  -18.0970  -27.9380   22.7430 C   0  0  0  0  0  0  0  0  0  0  0  0
  -20.6190  -28.2990   23.1780 C   0  0  0  0  0  3  0  0  0  0  0  0
  -20.8120  -26.8620   22.6400 C   0  0  0  0  0  2  0  0  0  0  0  0
  -19.7940  -26.4800   21.5610 C   0  0  0  0  0  2  0  0  0  0  0  0
  -18.3680  -26.5850   22.1080 C   0  0  0  0  0  2  0  0  0  0  0  0
  -19.1550  -28.7490   23.2320 C   0  0  0  0  0  0  0  0  0  0  0  0
  -18.8520  -30.0130   23.7810 C   0  0  0  0  0  3  0  0  0  0  0  0
  -17.5210  -30.4680   23.8500 C   0  0  0  0  0  3  0  0  0  0  0  0
  -16.4760  -29.6540   23.3810 C   0  0  0  0  0  3  0  0  0  0  0  0
  -16.7630  -28.3910   22.8320 C   0  0  0  0  0  3  0  0  0  0  0  0
  -26.0120  -32.3640   24.0070 C   0  0  0  0  0  3  0  0  0  0  0  0
  -25.7480  -33.7640   24.3700 N   0  0  0  0  0  0  0  0  0  0  0  0
  -26.1110  -34.8240   23.6360 C   0  0  0  0  0  0  0  0  0  0  0  0
  -26.7730  -34.7230   22.5990 O   0  0  0  0  0  0  0  0  0  0  0  0
  -25.1620  -33.9170   25.1770 H   0  0  0  0  0  0  0  0  0  0  0  0
  -24.4400  -36.6800   23.3370 C   0  0  0  0  0  1  0  0  0  0  0  0
  -25.6710  -36.2150   24.1300 C   0  0  0  0  0  3  0  0  0  0  0  0
  -27.8310  -37.0200   24.9780 C   0  0  0  0  0  1  0  0  0  0  0  0
  -26.7360  -37.2370   24.0360 N   0  0  0  0  0  0  0  0  0  0  0  0
  -26.3580  -38.1660   24.2020 H   0  0  0  0  0  0  0  0  0  0  0  0
  -26.5040  -31.5490   25.2660 C   0  0  1  0  0  0  0  0  0  0  0  0
  -25.4030  -31.3190   26.3280 C   0  0  0  0  0  1  0  0  0  0  0  0
  -27.0480  -30.1640   24.8440 C   0  0  0  0  0  1  0  0  0  0  0  0
  -27.6750  -32.2950   25.9480 C   0  0  0  0  0  1  0  0  0  0  0  0
  1  7  1  0
  1 50  1  0
  2  6  1  0
  4  2  2  0
  4  7  1  0
  5  3  1  0
  6  3  2  0
  7  5  2  0
  8  6  1  0
  8 18  1  0
  9 18  1  0
 10 15  1  0
 11 12  1  0
 11 10  1  0
 13 12  1  0
 13 22  1  0
 13 14  1  0
 15  9  1  0
 15 14  1  0
 16  9  2  0
 18 17  1  0
 19 20  2  0
 20 39  1  0
 21 20  1  0
 21 24  1  0
 22 23  1  0
 22 19  1  0
 23 21  2  0
 24 25  1  0
 25 26  2  0
 27 30  1  0
 27 26  1  0
 28 27  2  0
 29 28  1  0
 29 24  2  0
 30 31  1  0
 31 36  2  0
 31 32  1  0
 32 33  2  0
 33 34  1  0
 34 38  1  0
 35 34  2  0
 36 35  1  0
 37 36  1  0
 39 40  1  0
 40 43  1  0
 40 42  1  0
 41 39  2  0
 44 19  1  0
 44 45  1  0
 46 44  1  0
 47  1  1  0
 47 49  1  0
 48 49  1  0
 51 52  1  0
 51 50  1  0
 53 64  2  0
 54 52  1  0
 54 59  1  0
 55 63  1  0
 55 65  1  0
 56 62  1  0
 56 58  1  0
 57 63  1  0
 58 57  1  0
 59 58  2  0
 60 61  1  0
 60 54  2  0
 61 56  2  0
 62 55  1  0
 63 53  1  0
 65 67  2  0
 66 65  1  0
 68 66  1  0
 69 78  2  0
 69 74  1  0
 70 66  1  0
 70 74  1  0
 71 70  1  0
 72 73  1  0
 72 71  1  0
 73 69  1  0
 74 75  2  0
 75 76  1  0
 77 76  2  0
 78 77  1  0
 79 53  1  0
 79 80  1  0
 79 89  1  0
 80 83  1  0
 81 85  1  0
 81 80  1  0
 82 81  2  0
 85 84  1  0
 87 85  1  0
 87 88  1  0
 87 86  1  0
 89 92  1  1
 89 90  1  0
 91 89  1  0
M  ISO  4   9 100  18 100  51 101  52 101
M  END
>  <TORSDO>  (72) 
F 22

>  <SCORE>  (72) 
-12.708

>  <name>  (72) 
72

>  <ligand_id>  (72) 
72

>  <original_smiles>  (72) 
[H]c1c([H])c([H])c2c(c1[H])C([H])([H])C([H])([H])C([H])([H])C2([H])N([H])C(=O)C1([H])N(C(=O)C([H])(N([H])C(=O)C([H])(N([H])C([H])([H])[H])C([H])([H])[H])C(C([H])([H])[H])(C([H])([H])[H])C([H])([H])[H])C([H])([H])c2c([H])c(OC([H])([H])C([H])([H])N(c3c([H])c([H])c(C([H])([H])N(C(=O)N4C([H])([H])C([H])([H])C([H])([H])C([H])(n5nc(-c6c([H])c([H])c(Oc7c([H])c([H])c(F)c([H])c7F)c([H])c6[H])c(C(=O)N([H])[H])c5N([H])[H])C4([H])[H])C([H])([H])[H])c([H])c3[H])C([H])([H])C([H])([H])C([H])([H])[H])c([H])c([H])c2C1([H])[H]

>  <smiles>  (72) 
[H]c1c([H])c([H])c2c(c1[H])C([H])([H])C([H])([H])C([H])([H])C2([H])N([H])C(=O)C1([H])N(C(=O)C([H])(N([H])C(=O)C([H])(N([H])C([H])([H])[H])C([H])([H])[H])C(C([H])([H])[H])(C([H])([H])[H])C([H])([H])[H])C([H])([H])c2c([H])c(OC([H])([H])C([H])([H])N(c3c([H])c([H])c(C([H])([H])N(C(=O)N4C([H])([H])C([H])([H])C([H])([H])C([H])(n5nc(-c6c([H])c([H])c(Oc7c([H])c([H])c(F)c([H])c7F)c([H])c6[H])c(C(=O)N([H])[H])c5N([H])[H])C4([H])[H])C([H])([H])[H])c([H])c3[H])C([H])([H])C([H])([H])C([H])([H])[H])c([H])c([H])c2C1([H])[H]

$$$$
73:0:0
     RDKit          3D

 92100  0  0  1  0  0  0  0  0999 V2000
  -30.1560  -21.1630   20.9210 N   0  0  0  0  0  0  0  0  0  0  0  0
  -30.6620  -21.5730   21.7010 H   0  0  0  0  0  0  0  0  0  0  0  0
  -30.8900  -19.0180   21.8030 C   0  0  0  0  0  3  0  0  0  0  0  0
  -30.8570  -17.6060   21.8210 C   0  0  0  0  0  3  0  0  0  0  0  0
  -29.3460  -19.0360   19.9340 C   0  0  0  0  0  3  0  0  0  0  0  0
  -29.3190  -17.6210   19.9310 C   0  0  0  0  0  0  0  0  0  0  0  0
  -30.1180  -19.7530   20.8750 C   0  0  0  0  0  0  0  0  0  0  0  0
  -30.0670  -16.8930   20.8930 C   0  0  0  0  0  0  0  0  0  0  0  0
  -28.4670  -16.9230   18.8860 C   0  0  0  0  0  1  0  0  0  0  0  0
  -30.6530  -14.5100   20.4720 C   0  0  0  0  0  0  0  0  0  0  0  0
  -30.3800  -12.3510   19.3040 C   0  0  0  0  0  2  0  0  0  0  0  0
  -29.4250  -12.5600   18.1080 C   0  0  0  0  0  2  0  0  0  0  0  0
  -27.9530  -12.4130   18.5450 C   0  0  0  0  0  2  0  0  0  0  0  0
  -27.6210  -13.2360   19.8190 C   0  0  0  0  0  3  0  0  0  0  0  0
  -28.6840  -12.9960   20.9160 C   0  0  0  0  0  2  0  0  0  0  0  0
  -30.0050  -13.3180   20.3460 N   0  0  0  0  0  0  0  0  0  0  0  0
  -31.7750  -14.7220   20.0020 O   0  0  0  0  0  0  0  0  0  0  0  0
  -29.9100  -15.4830   21.0340 N   0  0  0  0  0  0  0  0  0  0  0  0
  -29.0020  -15.1760   21.3450 H   0  0  0  0  0  0  0  0  0  0  0  0
  -25.2230  -13.8490   20.5330 C   0  0  0  0  0  0  0  0  0  0  0  0
  -24.1550  -13.0750   20.9020 C   0  0  0  0  0  0  0  0  0  0  0  0
  -24.6140  -11.7240   20.8630 C   0  0  0  0  0  0  0  0  0  0  0  0
  -26.2670  -12.9660   20.2980 N   0  0  0  0  0  0  0  0  0  0  0  0
  -25.9040  -11.6840   20.5520 N   0  0  0  0  0  0  0  0  0  0  0  0
  -23.8880  -10.4620   21.0510 C   0  0  0  0  0  0  0  0  0  0  0  0
  -24.3280   -9.4890   21.9750 C   0  0  0  0  0  3  0  0  0  0  0  0
  -23.6030   -8.2900   22.1510 C   0  0  0  0  0  3  0  0  0  0  0  0
  -22.4250   -8.0570   21.4030 C   0  0  0  0  0  0  0  0  0  0  0  0
  -22.0030   -9.0200   20.4690 C   0  0  0  0  0  3  0  0  0  0  0  0
  -22.7290  -10.2100   20.2900 C   0  0  0  0  0  3  0  0  0  0  0  0
  -21.6710   -6.9110   21.4870 O   0  0  0  0  0  0  0  0  0  0  0  0
  -21.6360   -6.1570   22.6330 C   0  0  0  0  0  0  0  0  0  0  0  0
  -21.2190   -6.6980   23.8680 C   0  0  0  0  0  3  0  0  0  0  0  0
  -21.1290   -5.8710   25.0060 C   0  0  0  0  0  3  0  0  0  0  0  0
  -21.4480   -4.5030   24.9090 C   0  0  0  0  0  0  0  0  0  0  0  0
  -21.8590   -3.9610   23.6780 C   0  0  0  0  0  3  0  0  0  0  0  0
  -21.9490   -4.7860   22.5430 C   0  0  0  0  0  0  0  0  0  0  0  0
  -22.3260   -4.2540   21.3540 F   0  0  0  0  0  0  0  0  0  0  0  0
  -21.3550   -3.7050   25.9980 F   0  0  0  0  0  0  0  0  0  0  0  0
  -22.7590  -13.5530   21.1800 C   0  0  0  0  0  0  0  0  0  0  0  0
  -22.0340  -12.8520   22.0450 N   0  0  0  0  0  0  0  0  0  0  0  0
  -22.3200  -14.5810   20.6670 O   0  0  0  0  0  0  0  0  0  0  0  0
  -22.4020  -12.0200   22.4810 H   0  0  0  0  0  0  0  0  0  0  0  0
  -21.0980  -13.1540   22.2750 H   0  0  0  0  0  0  0  0  0  0  0  0
  -25.3840  -15.2190   20.3610 N   0  0  0  0  0  0  0  0  0  0  0  0
  -24.6100  -15.8660   20.4650 H   0  0  0  0  0  0  0  0  0  0  0  0
  -26.2310  -15.6660   20.0400 H   0  0  0  0  0  0  0  0  0  0  0  0
  -29.0480  -21.9630   20.3880 C   0  0  0  0  0  2  0  0  0  0  0  0
  -29.3640  -23.4810   20.3590 C   0  0  0  0  0  2  0  0  0  0  0  0
  -28.2420  -24.3240   19.7020 C   0  0  0  0  0  2  0  0  0  0  0  0
  -28.6630  -25.7420   19.2320 C   0  0  0  0  0  2  0  0  0  0  0  0
  -28.4450  -26.7870   20.1890 O   0  0  0  0  0  0  0  0  0  0  0  0
  -24.5780  -31.9310   23.2350 C   0  0  0  0  0  0  0  0  0  0  0  0
  -27.2470  -27.4780   20.1740 C   0  0  0  0  0  0  0  0  0  0  0  0
  -23.3790  -30.5200   21.5950 C   0  0  0  0  0  3  0  0  0  0  0  0
  -24.8390  -28.9730   20.1870 C   0  0  0  0  0  0  0  0  0  0  0  0
  -25.9060  -30.8760   21.4080 C   0  0  0  0  0  2  0  0  0  0  0  0
  -25.9940  -29.5010   20.7780 C   0  0  0  0  0  0  0  0  0  0  0  0
  -27.1940  -28.7560   20.7780 C   0  0  0  0  0  3  0  0  0  0  0  0
  -26.0660  -26.9570   19.5940 C   0  0  0  0  0  3  0  0  0  0  0  0
  -24.8680  -27.6970   19.6010 C   0  0  0  0  0  3  0  0  0  0  0  0
  -23.5950  -29.8320   20.2210 C   0  0  0  0  0  2  0  0  0  0  0  0
  -24.6390  -31.1250   22.1380 N   0  0  0  0  0  0  0  0  0  0  0  0
  -23.4950  -32.2060   23.7690 O   0  0  0  0  0  0  0  0  0  0  0  0
  -22.7260  -29.5020   22.5570 C   0  0  0  0  0  0  0  0  0  0  0  0
  -21.4020  -29.3170   22.4240 N   0  0  0  0  0  0  0  0  0  0  0  0
  -23.4060  -28.8810   23.3780 O   0  0  0  0  0  0  0  0  0  0  0  0
  -20.9140  -29.8710   21.7340 H   0  0  0  0  0  0  0  0  0  0  0  0
  -18.0250  -28.1280   22.9150 C   0  0  0  0  0  0  0  0  0  0  0  0
  -20.5830  -28.3820   23.1950 C   0  0  0  0  0  3  0  0  0  0  0  0
  -20.6840  -26.9490   22.6210 C   0  0  0  0  0  2  0  0  0  0  0  0
  -19.5850  -26.6260   21.6040 C   0  0  0  0  0  2  0  0  0  0  0  0
  -18.2010  -26.7760   22.2430 C   0  0  0  0  0  2  0  0  0  0  0  0
  -19.1440  -28.8880   23.3470 C   0  0  0  0  0  0  0  0  0  0  0  0
  -18.9280  -30.1560   23.9310 C   0  0  0  0  0  3  0  0  0  0  0  0
  -17.6240  -30.6600   24.0930 C   0  0  0  0  0  3  0  0  0  0  0  0
  -16.5190  -29.8950   23.6790 C   0  0  0  0  0  3  0  0  0  0  0  0
  -16.7200  -28.6320   23.0960 C   0  0  0  0  0  3  0  0  0  0  0  0
  -25.8630  -32.5650   23.8550 C   0  0  0  0  0  3  0  0  0  0  0  0
  -25.5550  -33.9650   24.1750 N   0  0  0  0  0  0  0  0  0  0  0  0
  -25.8890  -35.0120   23.4070 C   0  0  0  0  0  0  0  0  0  0  0  0
  -26.5630  -34.9000   22.3790 O   0  0  0  0  0  0  0  0  0  0  0  0
  -24.9620  -34.1280   24.9760 H   0  0  0  0  0  0  0  0  0  0  0  0
  -24.1650  -36.8010   23.0240 C   0  0  0  0  0  1  0  0  0  0  0  0
  -25.3990  -36.4030   23.8500 C   0  0  0  0  0  3  0  0  0  0  0  0
  -27.5250  -37.2930   24.6960 C   0  0  0  0  0  1  0  0  0  0  0  0
  -26.4320  -37.4550   23.7400 N   0  0  0  0  0  0  0  0  0  0  0  0
  -26.0260  -38.3760   23.8780 H   0  0  0  0  0  0  0  0  0  0  0  0
  -26.3760  -31.8000   25.1370 C   0  0  1  0  0  0  0  0  0  0  0  0
  -25.2820  -31.5650   26.2030 C   0  0  0  0  0  1  0  0  0  0  0  0
  -26.9610  -30.4210   24.7520 C   0  0  0  0  0  1  0  0  0  0  0  0
  -27.5260  -32.5980   25.7990 C   0  0  0  0  0  1  0  0  0  0  0  0
  1  2  1  0
  3  4  1  0
  5  7  1  0
  6  5  2  0
  6  8  1  0
  7  1  1  0
  7  3  2  0
  8 18  1  0
  8  4  2  0
  9  6  1  0
 10 18  1  0
 11 16  1  0
 12 13  1  0
 12 11  1  0
 14 13  1  0
 14 23  1  0
 14 15  1  0
 16 10  1  0
 16 15  1  0
 17 10  2  0
 18 19  1  0
 20 21  2  0
 21 40  1  0
 22 21  1  0
 22 25  1  0
 23 20  1  0
 23 24  1  0
 24 22  2  0
 25 26  1  0
 26 27  2  0
 28 31  1  0
 28 27  1  0
 29 28  2  0
 30 29  1  0
 30 25  2  0
 31 32  1  0
 32 33  1  0
 33 34  2  0
 35 34  1  0
 35 39  1  0
 36 35  2  0
 37 32  2  0
 37 36  1  0
 38 37  1  0
 40 41  1  0
 41 44  1  0
 41 43  1  0
 42 40  2  0
 45 46  1  0
 45 20  1  0
 47 45  1  0
 48  1  1  0
 49 48  1  0
 50 49  1  0
 51 50  1  0
 51 52  1  0
 53 64  2  0
 54 52  1  0
 54 59  1  0
 55 63  1  0
 55 65  1  0
 56 62  1  0
 56 58  1  0
 57 63  1  0
 58 57  1  0
 59 58  2  0
 60 61  1  0
 60 54  2  0
 61 56  2  0
 62 55  1  0
 63 53  1  0
 65 67  2  0
 66 65  1  0
 68 66  1  0
 69 78  2  0
 69 74  1  0
 70 66  1  0
 70 74  1  0
 71 70  1  0
 72 73  1  0
 72 71  1  0
 73 69  1  0
 74 75  2  0
 75 76  1  0
 77 76  2  0
 78 77  1  0
 79 53  1  0
 79 80  1  0
 79 89  1  0
 80 83  1  0
 81 85  1  0
 81 80  1  0
 82 81  2  0
 85 84  1  0
 87 85  1  0
 87 88  1  0
 87 86  1  0
 89 92  1  1
 89 90  1  0
 91 89  1  0
M  ISO  4  10 100  18 100  51 101  52 101
M  END
>  <TORSDO>  (73) 
F 21

>  <SCORE>  (73) 
-13.777

>  <name>  (73) 
73

>  <ligand_id>  (73) 
73

>  <original_smiles>  (73) 
[H]c1c([H])c([H])c2c(c1[H])C([H])([H])C([H])([H])C([H])([H])C2([H])N([H])C(=O)C1([H])N(C(=O)C([H])(N([H])C(=O)C([H])(N([H])C([H])([H])[H])C([H])([H])[H])C(C([H])([H])[H])(C([H])([H])[H])C([H])([H])[H])C([H])([H])c2c([H])c(OC([H])([H])C([H])([H])C([H])([H])C([H])([H])N([H])c3c([H])c([H])c(N([H])C(=O)N4C([H])([H])C([H])([H])C([H])([H])C([H])(n5nc(-c6c([H])c([H])c(Oc7c([H])c([H])c(F)c([H])c7F)c([H])c6[H])c(C(=O)N([H])[H])c5N([H])[H])C4([H])[H])c(C([H])([H])[H])c3[H])c([H])c([H])c2C1([H])[H]

>  <smiles>  (73) 
[H]c1c([H])c([H])c2c(c1[H])C([H])([H])C([H])([H])C([H])([H])C2([H])N([H])C(=O)C1([H])N(C(=O)C([H])(N([H])C(=O)C([H])(N([H])C([H])([H])[H])C([H])([H])[H])C(C([H])([H])[H])(C([H])([H])[H])C([H])([H])[H])C([H])([H])c2c([H])c(OC([H])([H])C([H])([H])C([H])([H])C([H])([H])N([H])c3c([H])c([H])c(N([H])C(=O)N4C([H])([H])C([H])([H])C([H])([H])C([H])(n5nc(-c6c([H])c([H])c(Oc7c([H])c([H])c(F)c([H])c7F)c([H])c6[H])c(C(=O)N([H])[H])c5N([H])[H])C4([H])[H])c(C([H])([H])[H])c3[H])c([H])c([H])c2C1([H])[H]

$$$$
74:0:0
     RDKit          3D

 94102  0  0  1  0  0  0  0  0999 V2000
  -30.6540  -21.9780   18.4350 C   0  0  0  0  0  1  0  0  0  0  0  0
  -29.6260  -21.8300   19.4660 N   0  0  0  0  0  0  0  0  0  0  0  0
  -28.3980  -17.8060   20.4070 C   0  0  0  0  0  3  0  0  0  0  0  0
  -27.5350  -18.8880   20.6460 C   0  0  0  0  0  3  0  0  0  0  0  0
  -30.0720  -19.3790   19.6120 C   0  0  0  0  0  3  0  0  0  0  0  0
  -29.6970  -18.0420   19.9170 C   0  0  0  0  0  0  0  0  0  0  0  0
  -29.2080  -20.5020   19.8190 C   0  0  0  0  0  0  0  0  0  0  0  0
  -27.9290  -20.2120   20.3780 C   0  0  0  0  0  0  0  0  0  0  0  0
  -27.0320  -21.1780   20.6760 F   0  0  0  0  0  0  0  0  0  0  0  0
  -30.7150  -16.9050   19.6710 C   0  0  0  0  0  2  0  0  0  0  0  0
  -31.1810  -14.5300   19.7960 C   0  0  0  0  0  0  0  0  0  0  0  0
  -30.6900  -12.3620   18.7150 C   0  0  0  0  0  2  0  0  0  0  0  0
  -29.6590  -12.5440   17.5830 C   0  0  0  0  0  2  0  0  0  0  0  0
  -28.2250  -12.4500   18.1340 C   0  0  0  0  0  2  0  0  0  0  0  0
  -28.0120  -13.3440   19.3830 C   0  0  0  0  0  3  0  0  0  0  0  0
  -29.1450  -13.1450   20.4130 C   0  0  0  0  0  2  0  0  0  0  0  0
  -30.4280  -13.3930   19.7360 N   0  0  0  0  0  0  0  0  0  0  0  0
  -32.2290  -14.6450   19.1510 O   0  0  0  0  0  0  0  0  0  0  0  0
  -30.9160  -15.7210   21.8730 C   0  0  0  0  0  1  0  0  0  0  0  0
  -30.6530  -15.6180   20.4260 N   0  0  0  0  0  0  0  0  0  0  0  0
  -25.7240  -14.0390   20.3270 C   0  0  0  0  0  0  0  0  0  0  0  0
  -24.6590  -13.3070   20.7750 C   0  0  0  0  0  0  0  0  0  0  0  0
  -25.0500  -11.9360   20.6720 C   0  0  0  0  0  0  0  0  0  0  0  0
  -26.6980  -13.1170   19.9800 N   0  0  0  0  0  0  0  0  0  0  0  0
  -26.3020  -11.8450   20.2450 N   0  0  0  0  0  0  0  0  0  0  0  0
  -24.2840  -10.7040   20.9010 C   0  0  0  0  0  0  0  0  0  0  0  0
  -24.6860   -9.7480   21.8600 C   0  0  0  0  0  3  0  0  0  0  0  0
  -23.9200   -8.5810   22.0730 C   0  0  0  0  0  3  0  0  0  0  0  0
  -22.7380   -8.3610   21.3270 C   0  0  0  0  0  0  0  0  0  0  0  0
  -22.3550   -9.3050   20.3560 C   0  0  0  0  0  3  0  0  0  0  0  0
  -23.1220  -10.4620   20.1420 C   0  0  0  0  0  3  0  0  0  0  0  0
  -21.9450   -7.2460   21.4490 O   0  0  0  0  0  0  0  0  0  0  0  0
  -21.8070   -6.5880   22.6450 C   0  0  0  0  0  0  0  0  0  0  0  0
  -21.3320   -7.2400   23.8050 C   0  0  0  0  0  3  0  0  0  0  0  0
  -21.1390   -6.5100   24.9930 C   0  0  0  0  0  3  0  0  0  0  0  0
  -21.4120   -5.1300   25.0260 C   0  0  0  0  0  0  0  0  0  0  0  0
  -21.8820   -4.4790   23.8720 C   0  0  0  0  0  3  0  0  0  0  0  0
  -22.0760   -5.2040   22.6850 C   0  0  0  0  0  0  0  0  0  0  0  0
  -22.5070   -4.5670   21.5700 F   0  0  0  0  0  0  0  0  0  0  0  0
  -21.2200   -4.4270   26.1670 F   0  0  0  0  0  0  0  0  0  0  0  0
  -23.3170  -13.8400   21.1900 C   0  0  0  0  0  0  0  0  0  0  0  0
  -22.6550  -13.1740   22.1290 N   0  0  0  0  0  0  0  0  0  0  0  0
  -22.8690  -14.8810   20.7100 O   0  0  0  0  0  0  0  0  0  0  0  0
  -23.0320  -12.3300   22.5340 H   0  0  0  0  0  0  0  0  0  0  0  0
  -21.7610  -13.5170   22.4510 H   0  0  0  0  0  0  0  0  0  0  0  0
  -25.9390  -15.4060   20.1690 N   0  0  0  0  0  0  0  0  0  0  0  0
  -25.2230  -16.0930   20.3790 H   0  0  0  0  0  0  0  0  0  0  0  0
  -26.7890  -15.8180   19.8070 H   0  0  0  0  0  0  0  0  0  0  0  0
  -29.1710  -23.0640   20.1580 C   0  0  0  0  0  2  0  0  0  0  0  0
  -27.3740  -23.1350   18.2970 C   0  0  0  0  0  1  0  0  0  0  0  0
  -26.9130  -24.1410   20.5270 C   0  0  0  0  0  1  0  0  0  0  0  0
  -28.0200  -23.9170   19.4720 C   0  0  1  0  0  0  0  0  0  0  0  0
  -28.5410  -25.3060   18.9040 C   0  0  0  0  0  2  0  0  0  0  0  0
  -28.4240  -26.5240   19.6950 O   0  0  0  0  0  0  0  0  0  0  0  0
  -24.5230  -31.5190   23.0270 C   0  0  0  0  0  0  0  0  0  0  0  0
  -27.2500  -27.2760   19.6800 C   0  0  0  0  0  0  0  0  0  0  0  0
  -23.3540  -30.1890   21.3080 C   0  0  0  0  0  3  0  0  0  0  0  0
  -24.8350  -28.7780   19.7860 C   0  0  0  0  0  0  0  0  0  0  0  0
  -25.8780  -30.5850   21.1530 C   0  0  0  0  0  2  0  0  0  0  0  0
  -25.9860  -29.2580   20.4250 C   0  0  0  0  0  0  0  0  0  0  0  0
  -27.1890  -28.5080   20.3820 C   0  0  0  0  0  3  0  0  0  0  0  0
  -26.0830  -26.8450   19.0090 C   0  0  0  0  0  3  0  0  0  0  0  0
  -24.8800  -27.5680   19.0770 C   0  0  0  0  0  3  0  0  0  0  0  0
  -23.5740  -29.6070   19.8900 C   0  0  0  0  0  2  0  0  0  0  0  0
  -24.6040  -30.7770   21.8870 N   0  0  0  0  0  0  0  0  0  0  0  0
  -23.4300  -31.7410   23.5720 O   0  0  0  0  0  0  0  0  0  0  0  0
  -22.7250  -29.0970   22.2020 C   0  0  0  0  0  0  0  0  0  0  0  0
  -21.4010  -28.9050   22.0670 N   0  0  0  0  0  0  0  0  0  0  0  0
  -23.4200  -28.4330   22.9720 O   0  0  0  0  0  0  0  0  0  0  0  0
  -20.8990  -29.4920   21.4160 H   0  0  0  0  0  0  0  0  0  0  0  0
  -18.0420  -27.6680   22.5510 C   0  0  0  0  0  0  0  0  0  0  0  0
  -20.6050  -27.9090   22.7810 C   0  0  0  0  0  3  0  0  0  0  0  0
  -20.6980  -26.5300   22.0880 C   0  0  0  0  0  2  0  0  0  0  0  0
  -19.5700  -26.2850   21.0810 C   0  0  0  0  0  2  0  0  0  0  0  0
  -18.2020  -26.3780   21.7650 C   0  0  0  0  0  2  0  0  0  0  0  0
  -19.1700  -28.3950   23.0120 C   0  0  0  0  0  0  0  0  0  0  0  0
  -18.9670  -29.6090   23.7050 C   0  0  0  0  0  3  0  0  0  0  0  0
  -17.6680  -30.0930   23.9430 C   0  0  0  0  0  3  0  0  0  0  0  0
  -16.5530  -29.3620   23.4990 C   0  0  0  0  0  3  0  0  0  0  0  0
  -16.7410  -28.1520   22.8080 C   0  0  0  0  0  3  0  0  0  0  0  0
  -25.7900  -32.1430   23.6870 C   0  0  0  0  0  3  0  0  0  0  0  0
  -25.4440  -33.5090   24.1100 N   0  0  0  0  0  0  0  0  0  0  0  0
  -25.7450  -34.6170   23.4200 C   0  0  0  0  0  0  0  0  0  0  0  0
  -26.4160  -34.5990   22.3850 O   0  0  0  0  0  0  0  0  0  0  0  0
  -24.8560  -33.5970   24.9260 H   0  0  0  0  0  0  0  0  0  0  0  0
  -23.9640  -36.3750   23.1940 C   0  0  0  0  0  1  0  0  0  0  0  0
  -25.2210  -35.9570   23.9700 C   0  0  0  0  0  3  0  0  0  0  0  0
  -27.3320  -36.8540   24.8510 C   0  0  0  0  0  1  0  0  0  0  0  0
  -26.2230  -37.0460   23.9190 N   0  0  0  0  0  0  0  0  0  0  0  0
  -25.7910  -37.9440   24.1210 H   0  0  0  0  0  0  0  0  0  0  0  0
  -26.3290  -31.3050   24.9100 C   0  0  1  0  0  0  0  0  0  0  0  0
  -25.2400  -30.9670   25.9560 C   0  0  0  0  0  1  0  0  0  0  0  0
  -26.9570  -29.9780   24.4280 C   0  0  0  0  0  1  0  0  0  0  0  0
  -27.4530  -32.0930   25.6240 C   0  0  0  0  0  1  0  0  0  0  0  0
  1  2  1  0
  2  7  1  0
  2 49  1  0
  3  4  1  0
  5  7  2  0
  5  6  1  0
  6  3  2  0
  7  8  1  0
  8  4  2  0
  8  9  1  0
 10  6  1  0
 10 20  1  0
 11 20  1  0
 12 17  1  0
 13 14  1  0
 13 12  1  0
 15 14  1  0
 15 24  1  0
 15 16  1  0
 17 11  1  0
 17 16  1  0
 18 11  2  0
 20 19  1  0
 21 22  2  0
 22 41  1  0
 23 22  1  0
 23 26  1  0
 24 25  1  0
 24 21  1  0
 25 23  2  0
 26 27  1  0
 27 28  2  0
 29 32  1  0
 29 28  1  0
 30 29  2  0
 31 30  1  0
 31 26  2  0
 32 33  1  0
 33 38  2  0
 33 34  1  0
 34 35  2  0
 35 36  1  0
 36 40  1  0
 37 36  2  0
 38 37  1  0
 39 38  1  0
 41 42  1  0
 42 45  1  0
 42 44  1  0
 43 41  2  0
 46 21  1  0
 46 47  1  0
 48 46  1  0
 52 50  1  6
 52 49  1  0
 52 51  1  0
 53 52  1  0
 53 54  1  0
 55 66  2  0
 56 54  1  0
 56 61  1  0
 57 65  1  0
 57 67  1  0
 58 64  1  0
 58 60  1  0
 59 65  1  0
 60 59  1  0
 61 60  2  0
 62 63  1  0
 62 56  2  0
 63 58  2  0
 64 57  1  0
 65 55  1  0
 67 69  2  0
 68 67  1  0
 70 68  1  0
 71 80  2  0
 71 76  1  0
 72 68  1  0
 72 76  1  0
 73 72  1  0
 74 75  1  0
 74 73  1  0
 75 71  1  0
 76 77  2  0
 77 78  1  0
 79 78  2  0
 80 79  1  0
 81 55  1  0
 81 82  1  0
 81 91  1  0
 82 85  1  0
 83 87  1  0
 83 82  1  0
 84 83  2  0
 87 86  1  0
 89 87  1  0
 89 90  1  0
 89 88  1  0
 91 94  1  1
 91 92  1  0
 93 91  1  0
M  ISO  4  11 100  20 100  53 101  54 101
M  END
>  <TORSDO>  (74) 
F 21

>  <SCORE>  (74) 
-11.874

>  <name>  (74) 
74

>  <ligand_id>  (74) 
74

>  <original_smiles>  (74) 
[H]c1c([H])c([H])c2c(c1[H])C([H])([H])C([H])([H])C([H])([H])C2([H])N([H])C(=O)C1([H])N(C(=O)C([H])(N([H])C(=O)C([H])(N([H])C([H])([H])[H])C([H])([H])[H])C(C([H])([H])[H])(C([H])([H])[H])C([H])([H])[H])C([H])([H])c2c([H])c(OC([H])([H])C(C([H])([H])[H])(C([H])([H])[H])C([H])([H])N(c3c([H])c(C([H])([H])N(C(=O)N4C([H])([H])C([H])([H])C([H])([H])C([H])(n5nc(-c6c([H])c([H])c(Oc7c([H])c([H])c(F)c([H])c7F)c([H])c6[H])c(C(=O)N([H])[H])c5N([H])[H])C4([H])[H])C([H])([H])[H])c([H])c([H])c3F)C([H])([H])[H])c([H])c([H])c2C1([H])[H]

>  <smiles>  (74) 
[H]c1c([H])c([H])c2c(c1[H])C([H])([H])C([H])([H])C([H])([H])C2([H])N([H])C(=O)C1([H])N(C(=O)C([H])(N([H])C(=O)C([H])(N([H])C([H])([H])[H])C([H])([H])[H])C(C([H])([H])[H])(C([H])([H])[H])C([H])([H])[H])C([H])([H])c2c([H])c(OC([H])([H])C(C([H])([H])[H])(C([H])([H])[H])C([H])([H])N(c3c([H])c(C([H])([H])N(C(=O)N4C([H])([H])C([H])([H])C([H])([H])C([H])(n5nc(-c6c([H])c([H])c(Oc7c([H])c([H])c(F)c([H])c7F)c([H])c6[H])c(C(=O)N([H])[H])c5N([H])[H])C4([H])[H])C([H])([H])[H])c([H])c([H])c3F)C([H])([H])[H])c([H])c([H])c2C1([H])[H]

$$$$
75:0:0
     RDKit          3D

 92101  0  0  1  0  0  0  0  0999 V2000
  -28.8230  -21.6870   21.5900 C   0  0  0  0  0  3  0  0  0  0  0  0
  -29.0420  -21.3480   20.3000 C   0  0  0  0  0  0  0  0  0  0  0  0
  -28.0460  -22.9210   22.1100 C   0  0  0  0  0  2  0  0  0  0  0  0
  -28.4980  -22.3740   19.2420 C   0  0  0  0  0  2  0  0  0  0  0  0
  -28.5120  -24.3740   21.7410 C   0  0  0  0  0  2  0  0  0  0  0  0
  -28.8490  -23.9410   19.3220 C   0  0  0  0  0  2  0  0  0  0  0  0
  -28.0910  -24.8910   20.3390 C   0  0  0  0  0  3  0  0  0  0  0  0
  -31.3090  -18.9060   18.4160 C   0  0  0  0  0  3  0  0  0  0  0  0
  -30.6350  -20.0470   18.8860 C   0  0  0  0  0  3  0  0  0  0  0  0
  -31.0600  -17.6290   18.9520 C   0  0  0  0  0  3  0  0  0  0  0  0
  -29.4430  -18.6300   20.4680 C   0  0  0  0  0  3  0  0  0  0  0  0
  -29.6720  -19.9700   19.9120 C   0  0  0  0  0  0  0  0  0  0  0  0
  -30.1330  -17.4170   20.0020 C   0  0  0  0  0  0  0  0  0  0  0  0
  -30.6420  -14.8410   20.2590 C   0  0  0  0  0  0  0  0  0  0  0  0
  -30.4380  -12.5540   19.2770 C   0  0  0  0  0  2  0  0  0  0  0  0
  -29.5030  -12.6190   18.0490 C   0  0  0  0  0  2  0  0  0  0  0  0
  -28.0360  -12.4380   18.4800 C   0  0  0  0  0  2  0  0  0  0  0  0
  -27.6570  -13.3230   19.6980 C   0  0  0  0  0  3  0  0  0  0  0  0
  -28.7180  -13.2570   20.8180 C   0  0  0  0  0  2  0  0  0  0  0  0
  -30.0080  -13.6150   20.2210 N   0  0  0  0  0  0  0  0  0  0  0  0
  -31.8370  -14.8940   19.9530 O   0  0  0  0  0  0  0  0  0  0  0  0
  -29.8960  -16.0080   20.4690 N   0  0  0  0  0  0  0  0  0  0  0  0
  -28.9890  -15.8420   20.8780 H   0  0  0  0  0  0  0  0  0  0  0  0
  -25.2660  -13.8910   20.4250 C   0  0  0  0  0  0  0  0  0  0  0  0
  -24.2080  -13.1080   20.7990 C   0  0  0  0  0  0  0  0  0  0  0  0
  -24.6840  -11.7610   20.7760 C   0  0  0  0  0  0  0  0  0  0  0  0
  -26.3170  -13.0210   20.1930 N   0  0  0  0  0  0  0  0  0  0  0  0
  -25.9760  -11.7350   20.4690 N   0  0  0  0  0  0  0  0  0  0  0  0
  -23.9690  -10.4930   20.9710 C   0  0  0  0  0  0  0  0  0  0  0  0
  -24.3990   -9.5400   21.9210 C   0  0  0  0  0  3  0  0  0  0  0  0
  -23.6820   -8.3380   22.1050 C   0  0  0  0  0  3  0  0  0  0  0  0
  -22.5220   -8.0790   21.3390 C   0  0  0  0  0  0  0  0  0  0  0  0
  -22.1100   -9.0200   20.3790 C   0  0  0  0  0  3  0  0  0  0  0  0
  -22.8280  -10.2130   20.1920 C   0  0  0  0  0  3  0  0  0  0  0  0
  -21.7780   -6.9270   21.4310 O   0  0  0  0  0  0  0  0  0  0  0  0
  -21.7090   -6.2060   22.5960 C   0  0  0  0  0  0  0  0  0  0  0  0
  -21.2320   -6.7730   23.7970 C   0  0  0  0  0  3  0  0  0  0  0  0
  -21.1120   -5.9770   24.9530 C   0  0  0  0  0  3  0  0  0  0  0  0
  -21.4610   -4.6130   24.9080 C   0  0  0  0  0  0  0  0  0  0  0  0
  -21.9310   -4.0450   23.7110 C   0  0  0  0  0  3  0  0  0  0  0  0
  -22.0520   -4.8390   22.5580 C   0  0  0  0  0  0  0  0  0  0  0  0
  -22.4860   -4.2810   21.4020 F   0  0  0  0  0  0  0  0  0  0  0  0
  -21.3390   -3.8460   26.0170 F   0  0  0  0  0  0  0  0  0  0  0  0
  -22.8060  -13.5730   21.0640 C   0  0  0  0  0  0  0  0  0  0  0  0
  -22.0820  -12.8750   21.9310 N   0  0  0  0  0  0  0  0  0  0  0  0
  -22.3610  -14.5920   20.5370 O   0  0  0  0  0  0  0  0  0  0  0  0
  -22.4560  -12.0520   22.3800 H   0  0  0  0  0  0  0  0  0  0  0  0
  -21.1410  -13.1690   22.1510 H   0  0  0  0  0  0  0  0  0  0  0  0
  -25.4150  -15.2610   20.2390 N   0  0  0  0  0  0  0  0  0  0  0  0
  -24.6380  -15.9050   20.3400 H   0  0  0  0  0  0  0  0  0  0  0  0
  -26.2520  -15.7050   19.8810 H   0  0  0  0  0  0  0  0  0  0  0  0
  -28.2920  -26.3920   20.2030 O   0  0  0  0  0  0  0  0  0  0  0  0
  -24.6180  -31.8990   23.2480 C   0  0  0  0  0  0  0  0  0  0  0  0
  -27.1910  -27.2880   20.1740 C   0  0  0  0  0  0  0  0  0  0  0  0
  -23.4030  -30.5070   21.6110 C   0  0  0  0  0  3  0  0  0  0  0  0
  -24.8420  -28.9530   20.1690 C   0  0  0  0  0  0  0  0  0  0  0  0
  -25.9460  -30.8060   21.4190 C   0  0  0  0  0  2  0  0  0  0  0  0
  -26.0190  -29.4230   20.7670 C   0  0  0  0  0  0  0  0  0  0  0  0
  -27.1960  -28.6040   20.7560 C   0  0  0  0  0  3  0  0  0  0  0  0
  -25.9960  -26.9000   19.5300 C   0  0  0  0  0  3  0  0  0  0  0  0
  -24.8380  -27.7010   19.5380 C   0  0  0  0  0  3  0  0  0  0  0  0
  -23.6090  -29.8350   20.2280 C   0  0  0  0  0  2  0  0  0  0  0  0
  -24.6750  -31.0900   22.1490 N   0  0  0  0  0  0  0  0  0  0  0  0
  -23.5370  -32.1760   23.7890 O   0  0  0  0  0  0  0  0  0  0  0  0
  -22.7430  -29.4910   22.5730 C   0  0  0  0  0  0  0  0  0  0  0  0
  -21.4160  -29.3070   22.4470 N   0  0  0  0  0  0  0  0  0  0  0  0
  -23.4230  -28.8680   23.3940 O   0  0  0  0  0  0  0  0  0  0  0  0
  -20.9250  -29.8620   21.7600 H   0  0  0  0  0  0  0  0  0  0  0  0
  -18.0460  -28.0860   22.9430 C   0  0  0  0  0  0  0  0  0  0  0  0
  -20.6020  -28.3660   23.2190 C   0  0  0  0  0  3  0  0  0  0  0  0
  -20.7160  -26.9340   22.6480 C   0  0  0  0  0  2  0  0  0  0  0  0
  -19.6190  -26.6000   21.6320 C   0  0  0  0  0  2  0  0  0  0  0  0
  -18.2350  -26.7360   22.2720 C   0  0  0  0  0  2  0  0  0  0  0  0
  -19.1580  -28.8580   23.3740 C   0  0  0  0  0  0  0  0  0  0  0  0
  -18.9280  -30.1210   23.9620 C   0  0  0  0  0  3  0  0  0  0  0  0
  -17.6180  -30.6120   24.1250 C   0  0  0  0  0  3  0  0  0  0  0  0
  -16.5210  -29.8360   23.7110 C   0  0  0  0  0  3  0  0  0  0  0  0
  -16.7360  -28.5760   23.1260 C   0  0  0  0  0  3  0  0  0  0  0  0
  -25.9040  -32.5300   23.8650 C   0  0  0  0  0  3  0  0  0  0  0  0
  -25.5980  -33.9290   24.1960 N   0  0  0  0  0  0  0  0  0  0  0  0
  -25.9200  -34.9820   23.4330 C   0  0  0  0  0  0  0  0  0  0  0  0
  -26.5750  -34.8770   22.3930 O   0  0  0  0  0  0  0  0  0  0  0  0
  -25.0160  -34.0850   25.0060 H   0  0  0  0  0  0  0  0  0  0  0  0
  -24.1900  -36.7790   23.1030 C   0  0  0  0  0  1  0  0  0  0  0  0
  -25.4410  -36.3720   23.8970 C   0  0  0  0  0  3  0  0  0  0  0  0
  -27.5850  -37.2570   24.7030 C   0  0  0  0  0  1  0  0  0  0  0  0
  -26.4730  -37.4230   23.7710 N   0  0  0  0  0  0  0  0  0  0  0  0
  -26.0700  -38.3440   23.9200 H   0  0  0  0  0  0  0  0  0  0  0  0
  -26.4210  -31.7600   25.1420 C   0  0  1  0  0  0  0  0  0  0  0  0
  -25.3290  -31.5290   26.2140 C   0  0  0  0  0  1  0  0  0  0  0  0
  -26.9990  -30.3800   24.7540 C   0  0  0  0  0  1  0  0  0  0  0  0
  -27.5750  -32.5530   25.8010 C   0  0  0  0  0  1  0  0  0  0  0  0
  1  3  1  0
  2  1  2  0
  4  6  1  0
  4  2  1  0
  5  3  1  0
  6  7  1  0
  7 52  1  0
  7  5  1  0
  8  9  2  0
  8 10  1  0
  9 12  1  0
 10 13  2  0
 12  2  1  0
 12 11  2  0
 13 11  1  0
 13 22  1  0
 14 22  1  0
 15 20  1  0
 16 17  1  0
 16 15  1  0
 18 17  1  0
 18 27  1  0
 18 19  1  0
 20 14  1  0
 20 19  1  0
 21 14  2  0
 22 23  1  0
 24 25  2  0
 25 44  1  0
 26 25  1  0
 26 29  1  0
 27 24  1  0
 27 28  1  0
 28 26  2  0
 29 30  1  0
 30 31  2  0
 32 35  1  0
 32 31  1  0
 33 32  2  0
 34 33  1  0
 34 29  2  0
 35 36  1  0
 36 37  1  0
 37 38  2  0
 39 38  1  0
 39 43  1  0
 40 39  2  0
 41 36  2  0
 41 40  1  0
 42 41  1  0
 44 45  1  0
 45 48  1  0
 45 47  1  0
 46 44  2  0
 49 50  1  0
 49 24  1  0
 51 49  1  0
 53 64  2  0
 54 52  1  0
 54 59  1  0
 55 63  1  0
 55 65  1  0
 56 62  1  0
 56 58  1  0
 57 63  1  0
 58 57  1  0
 59 58  2  0
 60 61  1  0
 60 54  2  0
 61 56  2  0
 62 55  1  0
 63 53  1  0
 65 67  2  0
 66 65  1  0
 68 66  1  0
 69 78  2  0
 69 74  1  0
 70 66  1  0
 70 74  1  0
 71 70  1  0
 72 73  1  0
 72 71  1  0
 73 69  1  0
 74 75  2  0
 75 76  1  0
 77 76  2  0
 78 77  1  0
 79 53  1  0
 79 80  1  0
 79 89  1  0
 80 83  1  0
 81 85  1  0
 81 80  1  0
 82 81  2  0
 85 84  1  0
 87 85  1  0
 87 88  1  0
 87 86  1  0
 89 92  1  1
 89 90  1  0
 91 89  1  0
M  ISO  4   7 101  14 100  22 100  52 101
M  END
>  <TORSDO>  (75) 
F 17

>  <SCORE>  (75) 
-15.139

>  <name>  (75) 
75

>  <ligand_id>  (75) 
75

>  <original_smiles>  (75) 
[H]C1=C(c2c([H])c([H])c([H])c(N([H])C(=O)N3C([H])([H])C([H])([H])C([H])([H])C([H])(n4nc(-c5c([H])c([H])c(Oc6c([H])c([H])c(F)c([H])c6F)c([H])c5[H])c(C(=O)N([H])[H])c4N([H])[H])C3([H])[H])c2[H])C([H])([H])C([H])([H])C([H])(Oc2c([H])c([H])c3c(c2[H])C([H])([H])N(C(=O)C([H])(N([H])C(=O)C([H])(N([H])C([H])([H])[H])C([H])([H])[H])C(C([H])([H])[H])(C([H])([H])[H])C([H])([H])[H])C([H])(C(=O)N([H])C2([H])c4c([H])c([H])c([H])c([H])c4C([H])([H])C([H])([H])C2([H])[H])C3([H])[H])C([H])([H])C1([H])[H]

>  <smiles>  (75) 
[H]C1=C(c2c([H])c([H])c([H])c(N([H])C(=O)N3C([H])([H])C([H])([H])C([H])([H])C([H])(n4nc(-c5c([H])c([H])c(Oc6c([H])c([H])c(F)c([H])c6F)c([H])c5[H])c(C(=O)N([H])[H])c4N([H])[H])C3([H])[H])c2[H])C([H])([H])C([H])([H])C([H])(Oc2c([H])c([H])c3c(c2[H])C([H])([H])N(C(=O)C([H])(N([H])C(=O)C([H])(N([H])C([H])([H])[H])C([H])([H])[H])C(C([H])([H])[H])(C([H])([H])[H])C([H])([H])[H])C([H])(C(=O)N([H])C2([H])c4c([H])c([H])c([H])c([H])c4C([H])([H])C([H])([H])C2([H])[H])C3([H])[H])C([H])([H])C1([H])[H]

$$$$
76:0:0
     RDKit          3D

 95103  0  0  1  0  0  0  0  0999 V2000
  -25.5090  -22.7600   19.3880 C   0  0  0  0  0  1  0  0  0  0  0  0
  -26.9440  -22.5120   19.6870 N   0  0  1  0  0  4  0  0  0  0  0  0
  -26.9880  -22.1150   20.6130 H   0  0  0  0  0  0  0  0  0  0  0  0
  -27.4750  -21.4490   18.7900 C   0  0  0  0  0  2  0  0  0  0  0  0
  -28.1190  -18.1340   20.6320 C   0  0  0  0  0  3  0  0  0  0  0  0
  -30.2620  -19.1940   20.1670 C   0  0  0  0  0  3  0  0  0  0  0  0
  -27.4500  -19.2490   20.0840 C   0  0  0  0  0  3  0  0  0  0  0  0
  -29.5970  -20.3110   19.6230 C   0  0  0  0  0  3  0  0  0  0  0  0
  -29.5300  -18.0840   20.6410 C   0  0  0  0  0  0  0  0  0  0  0  0
  -28.1880  -20.3290   19.5440 C   0  0  0  0  0  0  0  0  0  0  0  0
  -30.2630  -16.7930   21.0250 C   0  0  0  0  0  2  0  0  0  0  0  0
  -31.0380  -14.6550   20.1040 C   0  0  0  0  0  0  0  0  0  0  0  0
  -30.7050  -12.4480   19.0850 C   0  0  0  0  0  2  0  0  0  0  0  0
  -29.7390  -12.5680   17.8880 C   0  0  0  0  0  2  0  0  0  0  0  0
  -28.2670  -12.5330   18.3410 C   0  0  0  0  0  2  0  0  0  0  0  0
  -27.9630  -13.4300   19.5720 C   0  0  0  0  0  3  0  0  0  0  0  0
  -29.0350  -13.2550   20.6700 C   0  0  0  0  0  2  0  0  0  0  0  0
  -30.3480  -13.4890   20.0560 N   0  0  0  0  0  0  0  0  0  0  0  0
  -32.2350  -14.7520   19.8190 O   0  0  0  0  0  0  0  0  0  0  0  0
  -30.1010  -16.2500   18.5960 C   0  0  0  0  0  1  0  0  0  0  0  0
  -30.2530  -15.7500   19.9770 N   0  0  0  0  0  0  0  0  0  0  0  0
  -25.5920  -14.1000   20.3220 C   0  0  0  0  0  0  0  0  0  0  0  0
  -24.5130  -13.3560   20.7160 C   0  0  0  0  0  0  0  0  0  0  0  0
  -24.9420  -11.9940   20.6870 C   0  0  0  0  0  0  0  0  0  0  0  0
  -26.6150  -13.1920   20.0840 N   0  0  0  0  0  0  0  0  0  0  0  0
  -26.2260  -11.9210   20.3650 N   0  0  0  0  0  0  0  0  0  0  0  0
  -24.1920  -10.7490   20.8890 C   0  0  0  0  0  0  0  0  0  0  0  0
  -24.5950   -9.7910   21.8450 C   0  0  0  0  0  3  0  0  0  0  0  0
  -23.8490   -8.6070   22.0360 C   0  0  0  0  0  3  0  0  0  0  0  0
  -22.6840   -8.3740   21.2670 C   0  0  0  0  0  0  0  0  0  0  0  0
  -22.2970   -9.3190   20.3010 C   0  0  0  0  0  3  0  0  0  0  0  0
  -23.0440  -10.4940   20.1100 C   0  0  0  0  0  3  0  0  0  0  0  0
  -21.9100   -7.2440   21.3670 O   0  0  0  0  0  0  0  0  0  0  0  0
  -21.7980   -6.5490   22.5430 C   0  0  0  0  0  0  0  0  0  0  0  0
  -21.3340   -7.1590   23.7300 C   0  0  0  0  0  3  0  0  0  0  0  0
  -21.1720   -6.3890   24.8990 C   0  0  0  0  0  3  0  0  0  0  0  0
  -21.4610   -5.0110   24.8830 C   0  0  0  0  0  0  0  0  0  0  0  0
  -21.9170   -4.4010   23.7010 C   0  0  0  0  0  3  0  0  0  0  0  0
  -22.0830   -5.1670   22.5340 C   0  0  0  0  0  0  0  0  0  0  0  0
  -22.5030   -4.5690   21.3930 F   0  0  0  0  0  0  0  0  0  0  0  0
  -21.2960   -4.2730   26.0040 F   0  0  0  0  0  0  0  0  0  0  0  0
  -23.1280  -13.8670   21.0000 C   0  0  0  0  0  0  0  0  0  0  0  0
  -22.3990  -13.1970   21.8870 N   0  0  0  0  0  0  0  0  0  0  0  0
  -22.7040  -14.8950   20.4770 O   0  0  0  0  0  0  0  0  0  0  0  0
  -22.7510  -12.3620   22.3310 H   0  0  0  0  0  0  0  0  0  0  0  0
  -21.4730  -13.5250   22.1240 H   0  0  0  0  0  0  0  0  0  0  0  0
  -25.7920  -15.4620   20.1270 N   0  0  0  0  0  0  0  0  0  0  0  0
  -25.0480  -16.1430   20.2220 H   0  0  0  0  0  0  0  0  0  0  0  0
  -26.6460  -15.8550   19.7540 H   0  0  0  0  0  0  0  0  0  0  0  0
  -27.7760  -23.7580   19.7180 C   0  0  0  0  0  2  0  0  0  0  0  0
  -28.8290  -23.5280   22.0050 C   0  0  0  0  0  1  0  0  0  0  0  0
  -26.5670  -24.5720   21.8910 C   0  0  0  0  0  1  0  0  0  0  0  0
  -27.9100  -24.4250   21.1320 C   0  0  2  0  0  0  0  0  0  0  0  0
  -28.6090  -25.8310   21.0480 C   0  0  0  0  0  2  0  0  0  0  0  0
  -28.3070  -26.7140   19.9520 O   0  0  0  0  0  0  0  0  0  0  0  0
  -24.5680  -31.9020   23.1890 C   0  0  0  0  0  0  0  0  0  0  0  0
  -27.1690  -27.4820   20.0470 C   0  0  0  0  0  0  0  0  0  0  0  0
  -23.3500  -30.5210   21.5410 C   0  0  0  0  0  3  0  0  0  0  0  0
  -24.7920  -29.0060   20.0800 C   0  0  0  0  0  0  0  0  0  0  0  0
  -25.8760  -30.8750   21.3360 C   0  0  0  0  0  2  0  0  0  0  0  0
  -25.9540  -29.5120   20.6810 C   0  0  0  0  0  0  0  0  0  0  0  0
  -27.1500  -28.7550   20.6700 C   0  0  0  0  0  3  0  0  0  0  0  0
  -26.0010  -27.0150   19.4130 C   0  0  0  0  0  3  0  0  0  0  0  0
  -24.8110  -27.7580   19.4390 C   0  0  0  0  0  3  0  0  0  0  0  0
  -23.5490  -29.8650   20.1490 C   0  0  0  0  0  2  0  0  0  0  0  0
  -24.6160  -31.1150   22.0780 N   0  0  0  0  0  0  0  0  0  0  0  0
  -23.4910  -32.1620   23.7440 O   0  0  0  0  0  0  0  0  0  0  0  0
  -22.7150  -29.4800   22.4920 C   0  0  0  0  0  0  0  0  0  0  0  0
  -21.3890  -29.3000   22.3770 N   0  0  0  0  0  0  0  0  0  0  0  0
  -23.4070  -28.8390   23.2890 O   0  0  0  0  0  0  0  0  0  0  0  0
  -20.8980  -29.8560   21.6920 H   0  0  0  0  0  0  0  0  0  0  0  0
  -18.0200  -28.1010   22.9110 C   0  0  0  0  0  0  0  0  0  0  0  0
  -20.5820  -28.3530   23.1440 C   0  0  0  0  0  3  0  0  0  0  0  0
  -20.6780  -26.9350   22.5350 C   0  0  0  0  0  2  0  0  0  0  0  0
  -19.5570  -26.6300   21.5380 C   0  0  0  0  0  2  0  0  0  0  0  0
  -18.1860  -26.7640   22.2080 C   0  0  0  0  0  2  0  0  0  0  0  0
  -19.1460  -28.8550   23.3370 C   0  0  0  0  0  0  0  0  0  0  0  0
  -18.9390  -30.1070   23.9540 C   0  0  0  0  0  3  0  0  0  0  0  0
  -17.6400  -30.6100   24.1480 C   0  0  0  0  0  3  0  0  0  0  0  0
  -16.5290  -29.8520   23.7400 C   0  0  0  0  0  3  0  0  0  0  0  0
  -16.7180  -28.6000   23.1280 C   0  0  0  0  0  3  0  0  0  0  0  0
  -25.8570  -32.5310   23.8050 C   0  0  0  0  0  3  0  0  0  0  0  0
  -25.5430  -33.9210   24.1540 N   0  0  0  0  0  0  0  0  0  0  0  0
  -25.8580  -34.9840   23.4030 C   0  0  0  0  0  0  0  0  0  0  0  0
  -26.5130  -34.8990   22.3610 O   0  0  0  0  0  0  0  0  0  0  0  0
  -24.9630  -34.0630   24.9670 H   0  0  0  0  0  0  0  0  0  0  0  0
  -24.1100  -36.7670   23.0940 C   0  0  0  0  0  1  0  0  0  0  0  0
  -25.3670  -36.3650   23.8830 C   0  0  0  0  0  3  0  0  0  0  0  0
  -27.5100  -37.2530   24.6870 C   0  0  0  0  0  1  0  0  0  0  0  0
  -26.3910  -37.4260   23.7640 N   0  0  0  0  0  0  0  0  0  0  0  0
  -25.9840  -38.3430   23.9270 H   0  0  0  0  0  0  0  0  0  0  0  0
  -26.3890  -31.7440   25.0630 C   0  0  1  0  0  0  0  0  0  0  0  0
  -25.3090  -31.4920   26.1410 C   0  0  0  0  0  1  0  0  0  0  0  0
  -26.9720  -30.3740   24.6500 C   0  0  0  0  0  1  0  0  0  0  0  0
  -27.5450  -32.5350   25.7190 C   0  0  0  0  0  1  0  0  0  0  0  0
  1  2  1  0
  2 50  1  0
  2  3  1  1
  4 10  1  0
  4  2  1  0
  5  9  1  0
  6  9  2  0
  7  5  2  0
  8  6  1  0
  9 11  1  0
 10  8  2  0
 10  7  1  0
 13 18  1  0
 14 15  1  0
 14 13  1  0
 16 15  1  0
 16 25  1  0
 16 17  1  0
 18 12  1  0
 18 17  1  0
 19 12  2  0
 20 21  1  0
 21 12  1  0
 21 11  1  0
 22 23  2  0
 23 42  1  0
 24 23  1  0
 24 27  1  0
 25 22  1  0
 25 26  1  0
 26 24  2  0
 27 28  1  0
 28 29  2  0
 30 33  1  0
 30 29  1  0
 31 30  2  0
 32 31  1  0
 32 27  2  0
 33 34  1  0
 34 35  1  0
 35 36  2  0
 37 36  1  0
 37 41  1  0
 38 37  2  0
 39 34  2  0
 39 38  1  0
 40 39  1  0
 42 43  1  0
 43 46  1  0
 43 45  1  0
 44 42  2  0
 47 48  1  0
 47 22  1  0
 49 47  1  0
 50 53  1  0
 53 52  1  1
 53 51  1  0
 54 53  1  0
 55 57  1  0
 55 54  1  0
 56 67  2  0
 57 62  1  0
 58 66  1  0
 58 68  1  0
 59 65  1  0
 59 61  1  0
 60 66  1  0
 61 60  1  0
 62 61  2  0
 63 64  1  0
 63 57  2  0
 64 59  2  0
 65 58  1  0
 66 56  1  0
 68 70  2  0
 69 68  1  0
 71 69  1  0
 72 81  2  0
 72 77  1  0
 73 69  1  0
 73 77  1  0
 74 73  1  0
 75 76  1  0
 75 74  1  0
 76 72  1  0
 77 78  2  0
 78 79  1  0
 80 79  2  0
 81 80  1  0
 82 56  1  0
 82 83  1  0
 82 92  1  0
 83 86  1  0
 84 88  1  0
 84 83  1  0
 85 84  2  0
 88 87  1  0
 90 88  1  0
 90 91  1  0
 90 89  1  0
 92 95  1  1
 92 93  1  0
 94 92  1  0
M  ISO  4  12 100  21 100  54 101  55 101
M  END
>  <TORSDO>  (76) 
F 22

>  <SCORE>  (76) 
-12.864

>  <name>  (76) 
76

>  <ligand_id>  (76) 
76

>  <original_smiles>  (76) 
[H]c1c([H])c([H])c2c(c1[H])C([H])([H])C([H])([H])C([H])([H])C2([H])N([H])C(=O)C1([H])N(C(=O)C([H])(N([H])C(=O)C([H])(N([H])C([H])([H])[H])C([H])([H])[H])C(C([H])([H])[H])(C([H])([H])[H])C([H])([H])[H])C([H])([H])c2c([H])c(OC([H])([H])C(C([H])([H])[H])(C([H])([H])[H])C([H])([H])[N+]([H])(C([H])([H])[H])C([H])([H])c3c([H])c([H])c(C([H])([H])N(C(=O)N4C([H])([H])C([H])([H])C([H])([H])C([H])(n5nc(-c6c([H])c([H])c(Oc7c([H])c([H])c(F)c([H])c7F)c([H])c6[H])c(C(=O)N([H])[H])c5N([H])[H])C4([H])[H])C([H])([H])[H])c([H])c3[H])c([H])c([H])c2C1([H])[H]

>  <smiles>  (76) 
[H]c1c([H])c([H])c2c(c1[H])C([H])([H])C([H])([H])C([H])([H])C2([H])N([H])C(=O)C1([H])N(C(=O)C([H])(N([H])C(=O)C([H])(N([H])C([H])([H])[H])C([H])([H])[H])C(C([H])([H])[H])(C([H])([H])[H])C([H])([H])[H])C([H])([H])c2c([H])c(OC([H])([H])C(C([H])([H])[H])(C([H])([H])[H])C([H])([H])[N+]([H])(C([H])([H])[H])C([H])([H])c3c([H])c([H])c(C([H])([H])N(C(=O)N4C([H])([H])C([H])([H])C([H])([H])C([H])(n5nc(-c6c([H])c([H])c(Oc7c([H])c([H])c(F)c([H])c7F)c([H])c6[H])c(C(=O)N([H])[H])c5N([H])[H])C4([H])[H])C([H])([H])[H])c([H])c3[H])c([H])c([H])c2C1([H])[H]

$$$$
77:0:0
     RDKit          3D

 94103  0  0  1  0  0  0  0  0999 V2000
  -29.2310  -20.7170   21.0320 C   0  0  0  0  0  3  0  0  0  0  0  0
  -29.3040  -20.4610   18.6570 C   0  0  0  0  0  3  0  0  0  0  0  0
  -29.5800  -18.4210   20.0680 C   0  0  0  0  0  0  0  0  0  0  0  0
  -29.0850  -21.3350   19.7600 C   0  0  0  0  0  0  0  0  0  0  0  0
  -29.4870  -19.3110   21.1830 C   0  0  0  0  0  0  0  0  0  0  0  0
  -29.5310  -19.0570   18.7970 C   0  0  0  0  0  0  0  0  0  0  0  0
  -29.5410  -18.8010   22.4380 F   0  0  0  0  0  0  0  0  0  0  0  0
  -29.6230  -18.1020   17.3560 Cl  0  0  0  0  0  0  0  0  0  0  0  0
  -26.7460  -23.3530   21.0150 C   0  0  0  0  0  2  0  0  0  0  0  0
  -28.0460  -24.0530   21.4280 C   0  0  0  0  0  2  0  0  0  0  0  0
  -27.0790  -22.5810   19.7260 C   0  0  0  0  0  2  0  0  0  0  0  0
  -28.9250  -23.9680   20.1890 C   0  0  0  0  0  3  0  0  0  0  0  0
  -28.5330  -22.6600   19.5410 N   0  0  0  0  0  0  0  0  0  0  0  0
  -28.6730  -25.3130   19.3220 C   0  0  0  0  0  2  0  0  0  0  0  0
  -28.4800  -26.6380   19.9720 O   0  0  0  0  0  0  0  0  0  0  0  0
  -24.4960  -31.7800   23.0830 C   0  0  0  0  0  0  0  0  0  0  0  0
  -27.2780  -27.3730   19.9440 C   0  0  0  0  0  0  0  0  0  0  0  0
  -23.3360  -30.3480   21.4330 C   0  0  0  0  0  3  0  0  0  0  0  0
  -24.8330  -28.8660   19.9890 C   0  0  0  0  0  0  0  0  0  0  0  0
  -25.8520  -30.7790   21.2340 C   0  0  0  0  0  2  0  0  0  0  0  0
  -25.9820  -29.4110   20.5720 C   0  0  0  0  0  0  0  0  0  0  0  0
  -27.1960  -28.6660   20.5510 C   0  0  0  0  0  3  0  0  0  0  0  0
  -26.0850  -26.8660   19.3730 C   0  0  0  0  0  3  0  0  0  0  0  0
  -24.8790  -27.5930   19.3930 C   0  0  0  0  0  3  0  0  0  0  0  0
  -23.5740  -29.6970   20.0430 C   0  0  0  0  0  2  0  0  0  0  0  0
  -24.5790  -30.9890   21.9740 N   0  0  0  0  0  0  0  0  0  0  0  0
  -23.4060  -32.0030   23.6330 O   0  0  0  0  0  0  0  0  0  0  0  0
  -22.7190  -29.3010   22.3930 C   0  0  0  0  0  0  0  0  0  0  0  0
  -21.4040  -29.0520   22.2620 N   0  0  0  0  0  0  0  0  0  0  0  0
  -23.4260  -28.7160   23.2180 O   0  0  0  0  0  0  0  0  0  0  0  0
  -20.8890  -29.5780   21.5680 H   0  0  0  0  0  0  0  0  0  0  0  0
  -18.1000  -27.6420   22.7020 C   0  0  0  0  0  0  0  0  0  0  0  0
  -20.6310  -28.0670   23.0210 C   0  0  0  0  0  3  0  0  0  0  0  0
  -20.8420  -26.6460   22.4480 C   0  0  0  0  0  2  0  0  0  0  0  0
  -19.7750  -26.2440   21.4240 C   0  0  0  0  0  2  0  0  0  0  0  0
  -18.3710  -26.3050   22.0360 C   0  0  0  0  0  2  0  0  0  0  0  0
  -19.1580  -28.4770   23.1500 C   0  0  0  0  0  0  0  0  0  0  0  0
  -18.8410  -29.7230   23.7360 C   0  0  0  0  0  3  0  0  0  0  0  0
  -17.5020  -30.1430   23.8600 C   0  0  0  0  0  3  0  0  0  0  0  0
  -16.4610  -29.3070   23.4200 C   0  0  0  0  0  3  0  0  0  0  0  0
  -16.7590  -28.0550   22.8550 C   0  0  0  0  0  3  0  0  0  0  0  0
  -25.7600  -32.4590   23.6970 C   0  0  0  0  0  3  0  0  0  0  0  0
  -26.3430  -31.6740   24.9360 C   0  0  1  0  0  0  0  0  0  0  0  0
  -25.2810  -31.3210   26.0050 C   0  0  0  0  0  1  0  0  0  0  0  0
  -27.0140  -30.3590   24.4820 C   0  0  0  0  0  1  0  0  0  0  0  0
  -27.4480  -32.5100   25.6210 C   0  0  0  0  0  1  0  0  0  0  0  0
  -25.3920  -33.8300   24.0860 N   0  0  0  0  0  0  0  0  0  0  0  0
  -25.6520  -34.9240   23.3570 C   0  0  0  0  0  0  0  0  0  0  0  0
  -26.2960  -34.8900   22.3050 O   0  0  0  0  0  0  0  0  0  0  0  0
  -24.8310  -33.9270   24.9180 H   0  0  0  0  0  0  0  0  0  0  0  0
  -23.8450  -36.6470   23.0970 C   0  0  0  0  0  1  0  0  0  0  0  0
  -25.1130  -36.2690   23.8770 C   0  0  0  0  0  3  0  0  0  0  0  0
  -27.2100  -37.2230   24.7250 C   0  0  0  0  0  1  0  0  0  0  0  0
  -26.0950  -37.3710   23.7950 N   0  0  0  0  0  0  0  0  0  0  0  0
  -25.6480  -38.2660   23.9760 H   0  0  0  0  0  0  0  0  0  0  0  0
  -29.3960  -16.8440   20.2110 C   0  0  0  0  0  2  0  0  0  0  0  0
  -30.9200  -14.7570   19.9090 C   0  0  0  0  0  0  0  0  0  0  0  0
  -30.5640  -12.4730   18.9690 C   0  0  0  0  0  2  0  0  0  0  0  0
  -29.5800  -12.5270   17.7820 C   0  0  0  0  0  2  0  0  0  0  0  0
  -28.1320  -12.4070   18.2890 C   0  0  0  0  0  2  0  0  0  0  0  0
  -27.8320  -13.3500   19.4840 C   0  0  0  0  0  3  0  0  0  0  0  0
  -28.9370  -13.2970   20.5630 C   0  0  0  0  0  2  0  0  0  0  0  0
  -30.2190  -13.5740   19.8980 N   0  0  0  0  0  0  0  0  0  0  0  0
  -32.0210  -14.8270   19.3540 O   0  0  0  0  0  0  0  0  0  0  0  0
  -31.2760  -16.3030   21.7410 C   0  0  0  0  0  1  0  0  0  0  0  0
  -30.4550  -15.8440   20.6220 N   0  0  0  0  0  0  0  0  0  0  0  0
  -25.5180  -14.0110   20.3810 C   0  0  0  0  0  0  0  0  0  0  0  0
  -24.4400  -13.2710   20.7730 C   0  0  0  0  0  0  0  0  0  0  0  0
  -24.8280  -11.9000   20.6410 C   0  0  0  0  0  0  0  0  0  0  0  0
  -26.5050  -13.1000   20.0390 N   0  0  0  0  0  0  0  0  0  0  0  0
  -26.0960  -11.8210   20.2570 N   0  0  0  0  0  0  0  0  0  0  0  0
  -24.0510  -10.6660   20.8080 C   0  0  0  0  0  0  0  0  0  0  0  0
  -24.4060   -9.6920   21.7690 C   0  0  0  0  0  3  0  0  0  0  0  0
  -23.6280   -8.5260   21.9290 C   0  0  0  0  0  3  0  0  0  0  0  0
  -22.4820   -8.3220   21.1210 C   0  0  0  0  0  0  0  0  0  0  0  0
  -22.1490   -9.2820   20.1490 C   0  0  0  0  0  3  0  0  0  0  0  0
  -22.9290  -10.4400   19.9900 C   0  0  0  0  0  3  0  0  0  0  0  0
  -21.6810   -7.2070   21.1880 O   0  0  0  0  0  0  0  0  0  0  0  0
  -21.4480   -6.5520   22.3710 C   0  0  0  0  0  0  0  0  0  0  0  0
  -20.8340   -7.1930   23.4700 C   0  0  0  0  0  3  0  0  0  0  0  0
  -20.5450   -6.4630   24.6410 C   0  0  0  0  0  3  0  0  0  0  0  0
  -20.8680   -5.0940   24.7160 C   0  0  0  0  0  0  0  0  0  0  0  0
  -21.4740   -4.4530   23.6210 C   0  0  0  0  0  3  0  0  0  0  0  0
  -21.7590   -5.1800   22.4510 C   0  0  0  0  0  0  0  0  0  0  0  0
  -22.3240   -4.5500   21.3920 F   0  0  0  0  0  0  0  0  0  0  0  0
  -20.5880   -4.3920   25.8390 F   0  0  0  0  0  0  0  0  0  0  0  0
  -23.0850  -13.7950   21.1560 C   0  0  0  0  0  0  0  0  0  0  0  0
  -22.3780  -13.0930   22.0310 N   0  0  0  0  0  0  0  0  0  0  0  0
  -22.6680  -14.8670   20.7160 O   0  0  0  0  0  0  0  0  0  0  0  0
  -22.7260  -12.2230   22.4070 H   0  0  0  0  0  0  0  0  0  0  0  0
  -21.4730  -13.4310   22.3320 H   0  0  0  0  0  0  0  0  0  0  0  0
  -25.7350  -15.3830   20.2670 N   0  0  0  0  0  0  0  0  0  0  0  0
  -25.0030  -16.0550   20.4690 H   0  0  0  0  0  0  0  0  0  0  0  0
  -26.5790  -15.8090   19.9100 H   0  0  0  0  0  0  0  0  0  0  0  0
  1  5  1  0
  2  6  2  0
  2  4  1  0
  3 56  1  0
  3  5  2  0
  4  1  2  0
  5  7  1  0
  6  3  1  0
  8  6  1  0
  9 10  1  0
 11  9  1  0
 12 14  1  0
 12 10  1  0
 13 11  1  0
 13  4  1  0
 13 12  1  0
 14 15  1  0
 16 27  2  0
 17 15  1  0
 17 22  1  0
 18 26  1  0
 18 28  1  0
 19 25  1  0
 19 21  1  0
 20 26  1  0
 21 20  1  0
 22 21  2  0
 23 24  1  0
 23 17  2  0
 24 19  2  0
 25 18  1  0
 26 16  1  0
 28 30  2  0
 29 28  1  0
 31 29  1  0
 32 41  2  0
 32 37  1  0
 33 29  1  0
 33 37  1  0
 34 33  1  0
 35 36  1  0
 35 34  1  0
 36 32  1  0
 37 38  2  0
 38 39  1  0
 40 39  2  0
 41 40  1  0
 42 16  1  0
 42 47  1  0
 42 43  1  0
 43 46  1  1
 43 44  1  0
 45 43  1  0
 47 50  1  0
 48 52  1  0
 48 47  1  0
 49 48  2  0
 52 51  1  0
 54 52  1  0
 54 55  1  0
 54 53  1  0
 56 66  1  0
 57 66  1  0
 58 63  1  0
 59 60  1  0
 59 58  1  0
 61 60  1  0
 61 70  1  0
 61 62  1  0
 63 57  1  0
 63 62  1  0
 64 57  2  0
 66 65  1  0
 67 68  2  0
 68 87  1  0
 69 68  1  0
 69 72  1  0
 70 71  1  0
 70 67  1  0
 71 69  2  0
 72 73  1  0
 73 74  2  0
 75 78  1  0
 75 74  1  0
 76 75  2  0
 77 76  1  0
 77 72  2  0
 78 79  1  0
 79 84  2  0
 79 80  1  0
 80 81  2  0
 81 82  1  0
 82 86  1  0
 83 82  2  0
 84 83  1  0
 85 84  1  0
 87 88  1  0
 88 91  1  0
 88 90  1  0
 89 87  2  0
 92 67  1  0
 92 93  1  0
 94 92  1  0
M  ISO  4  14 101  15 101  57 100  66 100
M  END
>  <TORSDO>  (77) 
F 19

>  <SCORE>  (77) 
-12.684

>  <name>  (77) 
77

>  <ligand_id>  (77) 
77

>  <original_smiles>  (77) 
[H]c1c([H])c([H])c2c(c1[H])C([H])([H])C([H])([H])C([H])([H])C2([H])N([H])C(=O)C1([H])N(C(=O)C([H])(N([H])C(=O)C([H])(N([H])C([H])([H])[H])C([H])([H])[H])C(C([H])([H])[H])(C([H])([H])[H])C([H])([H])[H])C([H])([H])c2c([H])c(OC([H])([H])C3([H])N(c4c([H])c(F)c(C([H])([H])N(C(=O)N5C([H])([H])C([H])([H])C([H])([H])C([H])(n6nc(-c7c([H])c([H])c(Oc8c([H])c([H])c(F)c([H])c8F)c([H])c7[H])c(C(=O)N([H])[H])c6N([H])[H])C5([H])[H])C([H])([H])[H])c(Cl)c4[H])C([H])([H])C([H])([H])C3([H])[H])c([H])c([H])c2C1([H])[H]

>  <smiles>  (77) 
[H]c1c([H])c([H])c2c(c1[H])C([H])([H])C([H])([H])C([H])([H])C2([H])N([H])C(=O)C1([H])N(C(=O)C([H])(N([H])C(=O)C([H])(N([H])C([H])([H])[H])C([H])([H])[H])C(C([H])([H])[H])(C([H])([H])[H])C([H])([H])[H])C([H])([H])c2c([H])c(OC([H])([H])C3([H])N(c4c([H])c(F)c(C([H])([H])N(C(=O)N5C([H])([H])C([H])([H])C([H])([H])C([H])(n6nc(-c7c([H])c([H])c(Oc8c([H])c([H])c(F)c([H])c8F)c([H])c7[H])c(C(=O)N([H])[H])c6N([H])[H])C5([H])[H])C([H])([H])[H])c(Cl)c4[H])C([H])([H])C([H])([H])C3([H])[H])c([H])c([H])c2C1([H])[H]

$$$$
78:0:0
     RDKit          3D

 94103  0  0  1  0  0  0  0  0999 V2000
  -28.3920  -23.3560   23.1070 C   0  0  0  0  0  2  0  0  0  0  0  0
  -28.7680  -24.5390   22.2240 C   0  0  0  0  0  2  0  0  0  0  0  0
  -28.7620  -22.1490   22.2380 C   0  0  0  0  0  2  0  0  0  0  0  0
  -28.3280  -24.0760   20.8310 C   0  0  0  0  0  3  0  0  0  0  0  0
  -28.5790  -22.5450   20.8150 N   0  0  1  0  0  4  0  0  0  0  0  0
  -27.6840  -22.1540   20.5570 H   0  0  0  0  0  0  0  0  0  0  0  0
  -29.5390  -21.7930   19.9020 C   0  0  0  0  0  2  0  0  0  0  0  0
  -30.9590  -19.5550   20.1890 C   0  0  0  0  0  3  0  0  0  0  0  0
  -31.1070  -18.1300   20.3080 C   0  0  0  0  0  3  0  0  0  0  0  0
  -28.7220  -17.9230   20.2710 C   0  0  0  0  0  3  0  0  0  0  0  0
  -29.6910  -20.2140   20.0960 C   0  0  0  0  0  0  0  0  0  0  0  0
  -29.9820  -17.2630   20.3630 C   0  0  0  0  0  0  0  0  0  0  0  0
  -28.5740  -19.3380   20.1220 C   0  0  0  0  0  0  0  0  0  0  0  0
  -27.3320  -19.8670   20.0140 F   0  0  0  0  0  0  0  0  0  0  0  0
  -30.8460  -14.7640   20.2060 C   0  0  0  0  0  0  0  0  0  0  0  0
  -30.6570  -12.5180   19.1420 C   0  0  0  0  0  2  0  0  0  0  0  0
  -29.6900  -12.6440   17.9390 C   0  0  0  0  0  2  0  0  0  0  0  0
  -28.2220  -12.4800   18.3840 C   0  0  0  0  0  2  0  0  0  0  0  0
  -27.8810  -13.3420   19.6270 C   0  0  0  0  0  3  0  0  0  0  0  0
  -28.9520  -13.1620   20.7270 C   0  0  0  0  0  2  0  0  0  0  0  0
  -30.2540  -13.5250   20.1430 N   0  0  0  0  0  0  0  0  0  0  0  0
  -32.0090  -14.9330   19.8240 O   0  0  0  0  0  0  0  0  0  0  0  0
  -30.0000  -15.7970   20.5530 N   0  0  0  0  0  0  0  0  0  0  0  0
  -29.1140  -15.4280   20.8590 H   0  0  0  0  0  0  0  0  0  0  0  0
  -25.5030  -13.9700   20.3660 C   0  0  0  0  0  0  0  0  0  0  0  0
  -24.4330  -13.2110   20.7540 C   0  0  0  0  0  0  0  0  0  0  0  0
  -24.8810  -11.8550   20.7240 C   0  0  0  0  0  0  0  0  0  0  0  0
  -26.5350  -13.0760   20.1250 N   0  0  0  0  0  0  0  0  0  0  0  0
  -26.1660  -11.8000   20.4010 N   0  0  0  0  0  0  0  0  0  0  0  0
  -24.1460  -10.6000   20.9250 C   0  0  0  0  0  0  0  0  0  0  0  0
  -24.5470   -9.6570   21.8960 C   0  0  0  0  0  3  0  0  0  0  0  0
  -23.8130   -8.4660   22.0820 C   0  0  0  0  0  3  0  0  0  0  0  0
  -22.6650   -8.2100   21.2950 C   0  0  0  0  0  0  0  0  0  0  0  0
  -22.2860   -9.1410   20.3110 C   0  0  0  0  0  3  0  0  0  0  0  0
  -23.0200  -10.3240   20.1250 C   0  0  0  0  0  3  0  0  0  0  0  0
  -21.9040   -7.0710   21.3900 O   0  0  0  0  0  0  0  0  0  0  0  0
  -21.7660   -6.3930   22.5750 C   0  0  0  0  0  0  0  0  0  0  0  0
  -21.2380   -7.0090   23.7300 C   0  0  0  0  0  3  0  0  0  0  0  0
  -21.0510   -6.2560   24.9070 C   0  0  0  0  0  3  0  0  0  0  0  0
  -21.3830   -4.8870   24.9280 C   0  0  0  0  0  0  0  0  0  0  0  0
  -21.9040   -4.2710   23.7760 C   0  0  0  0  0  3  0  0  0  0  0  0
  -22.0920   -5.0220   22.6030 C   0  0  0  0  0  0  0  0  0  0  0  0
  -22.5760   -4.4180   21.4900 F   0  0  0  0  0  0  0  0  0  0  0  0
  -21.1960   -4.1620   26.0550 F   0  0  0  0  0  0  0  0  0  0  0  0
  -23.0430  -13.7030   21.0330 C   0  0  0  0  0  0  0  0  0  0  0  0
  -22.3160  -13.0230   21.9140 N   0  0  0  0  0  0  0  0  0  0  0  0
  -22.6070  -14.7250   20.5040 O   0  0  0  0  0  0  0  0  0  0  0  0
  -22.6840  -12.2010   22.3690 H   0  0  0  0  0  0  0  0  0  0  0  0
  -21.3830  -13.3340   22.1390 H   0  0  0  0  0  0  0  0  0  0  0  0
  -25.6820  -15.3350   20.1750 N   0  0  0  0  0  0  0  0  0  0  0  0
  -24.9100  -15.9890   20.2580 H   0  0  0  0  0  0  0  0  0  0  0  0
  -26.4920  -15.7320   19.7180 H   0  0  0  0  0  0  0  0  0  0  0  0
  -28.7590  -25.1100   19.6990 C   0  0  0  0  0  2  0  0  0  0  0  0
  -28.6710  -26.5660   20.0350 O   0  0  0  0  0  0  0  0  0  0  0  0
  -24.7240  -31.7830   23.0890 C   0  0  0  0  0  0  0  0  0  0  0  0
  -27.4960  -27.3360   19.9890 C   0  0  0  0  0  0  0  0  0  0  0  0
  -23.5770  -30.3830   21.4100 C   0  0  0  0  0  3  0  0  0  0  0  0
  -25.0870  -28.8870   19.9810 C   0  0  0  0  0  0  0  0  0  0  0  0
  -26.1110  -30.7660   21.2660 C   0  0  0  0  0  2  0  0  0  0  0  0
  -26.2340  -29.4000   20.5960 C   0  0  0  0  0  0  0  0  0  0  0  0
  -27.4390  -28.6360   20.5860 C   0  0  0  0  0  3  0  0  0  0  0  0
  -26.3200  -26.8660   19.3670 C   0  0  0  0  0  3  0  0  0  0  0  0
  -25.1320  -27.6280   19.3590 C   0  0  0  0  0  3  0  0  0  0  0  0
  -23.8270  -29.7300   20.0230 C   0  0  0  0  0  2  0  0  0  0  0  0
  -24.8210  -30.9930   21.9790 N   0  0  0  0  0  0  0  0  0  0  0  0
  -23.6280  -32.0220   23.6150 O   0  0  0  0  0  0  0  0  0  0  0  0
  -22.9290  -29.3340   22.3450 C   0  0  0  0  0  0  0  0  0  0  0  0
  -21.6020  -29.1570   22.2290 N   0  0  0  0  0  0  0  0  0  0  0  0
  -23.6200  -28.6830   23.1320 O   0  0  0  0  0  0  0  0  0  0  0  0
  -21.1020  -29.7280   21.5610 H   0  0  0  0  0  0  0  0  0  0  0  0
  -18.2300  -27.9760   22.7800 C   0  0  0  0  0  0  0  0  0  0  0  0
  -20.7970  -28.1940   22.9810 C   0  0  0  0  0  3  0  0  0  0  0  0
  -20.8620  -26.7890   22.3340 C   0  0  0  0  0  2  0  0  0  0  0  0
  -19.7270  -26.5300   21.3410 C   0  0  0  0  0  2  0  0  0  0  0  0
  -18.3660  -26.6620   22.0330 C   0  0  0  0  0  2  0  0  0  0  0  0
  -19.3700  -28.7040   23.2110 C   0  0  0  0  0  0  0  0  0  0  0  0
  -19.1860  -29.9400   23.8690 C   0  0  0  0  0  3  0  0  0  0  0  0
  -17.8930  -30.4480   24.1000 C   0  0  0  0  0  3  0  0  0  0  0  0
  -16.7670  -29.7160   23.6850 C   0  0  0  0  0  3  0  0  0  0  0  0
  -16.9360  -28.4820   23.0320 C   0  0  0  0  0  3  0  0  0  0  0  0
  -25.9820  -32.4410   23.7370 C   0  0  0  0  0  3  0  0  0  0  0  0
  -26.5090  -31.6590   25.0030 C   0  0  1  0  0  0  0  0  0  0  0  0
  -25.4130  -31.3640   26.0550 C   0  0  0  0  0  1  0  0  0  0  0  0
  -27.1390  -30.3090   24.5910 C   0  0  0  0  0  1  0  0  0  0  0  0
  -27.6300  -32.4720   25.6940 C   0  0  0  0  0  1  0  0  0  0  0  0
  -25.6290  -33.8220   24.0970 N   0  0  0  0  0  0  0  0  0  0  0  0
  -25.9350  -34.9010   23.3640 C   0  0  0  0  0  0  0  0  0  0  0  0
  -26.6160  -34.8410   22.3370 O   0  0  0  0  0  0  0  0  0  0  0  0
  -25.0350  -33.9410   24.9030 H   0  0  0  0  0  0  0  0  0  0  0  0
  -24.1630  -36.6540   23.0260 C   0  0  0  0  0  1  0  0  0  0  0  0
  -25.4030  -36.2650   23.8470 C   0  0  0  0  0  3  0  0  0  0  0  0
  -27.4990  -37.1890   24.7330 C   0  0  0  0  0  1  0  0  0  0  0  0
  -26.4080  -37.3500   23.7750 N   0  0  0  0  0  0  0  0  0  0  0  0
  -25.9740  -38.2550   23.9380 H   0  0  0  0  0  0  0  0  0  0  0  0
  2  1  1  0
  3  1  1  0
  4 53  1  0
  4  2  1  0
  5  4  1  0
  5  3  1  0
  5  6  1  6
  7 11  1  0
  7  5  1  0
  8  9  1  0
  9 12  2  0
 10 12  1  0
 11 13  1  0
 11  8  2  0
 12 23  1  0
 13 10  2  0
 14 13  1  0
 15 23  1  0
 16 21  1  0
 17 18  1  0
 17 16  1  0
 19 18  1  0
 19 28  1  0
 19 20  1  0
 21 15  1  0
 21 20  1  0
 22 15  2  0
 23 24  1  0
 25 26  2  0
 26 45  1  0
 27 26  1  0
 27 30  1  0
 28 25  1  0
 28 29  1  0
 29 27  2  0
 30 31  1  0
 31 32  2  0
 33 36  1  0
 33 32  1  0
 34 33  2  0
 35 34  1  0
 35 30  2  0
 36 37  1  0
 37 42  2  0
 37 38  1  0
 38 39  2  0
 39 40  1  0
 40 44  1  0
 41 40  2  0
 42 41  1  0
 43 42  1  0
 45 46  1  0
 46 49  1  0
 46 48  1  0
 47 45  2  0
 50 51  1  0
 50 25  1  0
 52 50  1  0
 53 54  1  0
 55 66  2  0
 56 54  1  0
 56 61  1  0
 57 65  1  0
 57 67  1  0
 58 64  1  0
 58 60  1  0
 59 65  1  0
 60 59  1  0
 61 60  2  0
 62 56  2  0
 63 62  1  0
 63 58  2  0
 64 57  1  0
 65 55  1  0
 67 69  2  0
 68 67  1  0
 70 68  1  0
 71 80  2  0
 71 76  1  0
 72 68  1  0
 72 76  1  0
 73 72  1  0
 74 75  1  0
 74 73  1  0
 75 71  1  0
 76 77  2  0
 77 78  1  0
 79 78  2  0
 80 79  1  0
 81 55  1  0
 81 86  1  0
 81 82  1  0
 82 85  1  1
 82 83  1  0
 84 82  1  0
 86 89  1  0
 87 91  1  0
 87 86  1  0
 88 87  2  0
 91 90  1  0
 93 91  1  0
 93 94  1  0
 93 92  1  0
M  ISO  4  15 100  23 100  53 101  54 101
M  END
>  <TORSDO>  (78) 
F 19

>  <SCORE>  (78) 
-13.287

>  <name>  (78) 
78

>  <ligand_id>  (78) 
78

>  <original_smiles>  (78) 
[H]c1c([H])c([H])c2c(c1[H])C([H])([H])C([H])([H])C([H])([H])C2([H])N([H])C(=O)C1([H])N(C(=O)C([H])(N([H])C(=O)C([H])(N([H])C([H])([H])[H])C([H])([H])[H])C(C([H])([H])[H])(C([H])([H])[H])C([H])([H])[H])C([H])([H])c2c([H])c(OC([H])([H])C3([H])C([H])([H])C([H])([H])C([H])([H])[N+]3([H])C([H])([H])c3c([H])c([H])c(N([H])C(=O)N4C([H])([H])C([H])([H])C([H])([H])C([H])(n5nc(-c6c([H])c([H])c(Oc7c([H])c([H])c(F)c([H])c7F)c([H])c6[H])c(C(=O)N([H])[H])c5N([H])[H])C4([H])[H])c([H])c3F)c([H])c([H])c2C1([H])[H]

>  <smiles>  (78) 
[H]c1c([H])c([H])c2c(c1[H])C([H])([H])C([H])([H])C([H])([H])C2([H])N([H])C(=O)C1([H])N(C(=O)C([H])(N([H])C(=O)C([H])(N([H])C([H])([H])[H])C([H])([H])[H])C(C([H])([H])[H])(C([H])([H])[H])C([H])([H])[H])C([H])([H])c2c([H])c(OC([H])([H])C3([H])C([H])([H])C([H])([H])C([H])([H])[N+]3([H])C([H])([H])c3c([H])c([H])c(N([H])C(=O)N4C([H])([H])C([H])([H])C([H])([H])C([H])(n5nc(-c6c([H])c([H])c(Oc7c([H])c([H])c(F)c([H])c7F)c([H])c6[H])c(C(=O)N([H])[H])c5N([H])[H])C4([H])[H])c([H])c3F)c([H])c([H])c2C1([H])[H]

$$$$
79:0:0
     RDKit          3D

 92100  0  0  1  0  0  0  0  0999 V2000
  -29.5140  -22.7120   19.5740 N   0  0  0  0  0  0  0  0  0  0  0  0
  -30.1720  -18.9920   18.9080 C   0  0  0  0  0  3  0  0  0  0  0  0
  -28.5630  -19.1280   20.6740 C   0  0  0  0  0  3  0  0  0  0  0  0
  -30.1830  -20.4150   18.8270 C   0  0  0  0  0  3  0  0  0  0  0  0
  -28.5780  -20.5630   20.5930 C   0  0  0  0  0  3  0  0  0  0  0  0
  -29.3570  -18.2940   19.8320 C   0  0  0  0  0  0  0  0  0  0  0  0
  -29.3970  -21.2660   19.6640 C   0  0  0  0  0  0  0  0  0  0  0  0
  -29.1940  -16.7150   19.7660 C   0  0  0  0  0  2  0  0  0  0  0  0
  -30.6630  -14.6310   20.0070 C   0  0  0  0  0  0  0  0  0  0  0  0
  -30.3750  -12.3840   18.9680 C   0  0  0  0  0  2  0  0  0  0  0  0
  -29.3690  -12.4710   17.8010 C   0  0  0  0  0  2  0  0  0  0  0  0
  -27.9320  -12.2790   18.3200 C   0  0  0  0  0  2  0  0  0  0  0  0
  -27.6240  -13.1640   19.5570 C   0  0  0  0  0  3  0  0  0  0  0  0
  -28.7440  -13.0810   20.6180 C   0  0  0  0  0  2  0  0  0  0  0  0
  -30.0070  -13.4250   19.9530 N   0  0  0  0  0  0  0  0  0  0  0  0
  -31.7950  -14.7440   19.5250 O   0  0  0  0  0  0  0  0  0  0  0  0
  -30.6660  -16.3480   21.7240 C   0  0  0  0  0  1  0  0  0  0  0  0
  -30.0330  -15.7350   20.5560 N   0  0  0  0  0  0  0  0  0  0  0  0
  -25.2840  -13.7280   20.4440 C   0  0  0  0  0  0  0  0  0  0  0  0
  -24.2460  -12.9410   20.8620 C   0  0  0  0  0  0  0  0  0  0  0  0
  -24.7120  -11.5930   20.7710 C   0  0  0  0  0  0  0  0  0  0  0  0
  -26.3140  -12.8600   20.1240 N   0  0  0  0  0  0  0  0  0  0  0  0
  -25.9810  -11.5690   20.3820 N   0  0  0  0  0  0  0  0  0  0  0  0
  -24.0030  -10.3230   20.9740 C   0  0  0  0  0  0  0  0  0  0  0  0
  -24.4280   -9.3860   21.9420 C   0  0  0  0  0  3  0  0  0  0  0  0
  -23.7170   -8.1810   22.1330 C   0  0  0  0  0  3  0  0  0  0  0  0
  -22.5670   -7.9050   21.3550 C   0  0  0  0  0  0  0  0  0  0  0  0
  -22.1620   -8.8300   20.3770 C   0  0  0  0  0  3  0  0  0  0  0  0
  -22.8750  -10.0260   20.1850 C   0  0  0  0  0  3  0  0  0  0  0  0
  -21.8310   -6.7500   21.4520 O   0  0  0  0  0  0  0  0  0  0  0  0
  -21.7010   -6.0760   22.6400 C   0  0  0  0  0  0  0  0  0  0  0  0
  -21.1180   -6.6750   23.7770 C   0  0  0  0  0  3  0  0  0  0  0  0
  -20.9420   -5.9250   24.9570 C   0  0  0  0  0  3  0  0  0  0  0  0
  -21.3390   -4.5750   24.9990 C   0  0  0  0  0  0  0  0  0  0  0  0
  -21.9160   -3.9750   23.8660 C   0  0  0  0  0  3  0  0  0  0  0  0
  -22.0930   -4.7230   22.6890 C   0  0  0  0  0  0  0  0  0  0  0  0
  -22.6300   -4.1320   21.5930 F   0  0  0  0  0  0  0  0  0  0  0  0
  -21.1630   -3.8520   26.1300 F   0  0  0  0  0  0  0  0  0  0  0  0
  -22.8670  -13.4040   21.2320 C   0  0  0  0  0  0  0  0  0  0  0  0
  -22.1960  -12.6820   22.1210 N   0  0  0  0  0  0  0  0  0  0  0  0
  -22.3960  -14.4410   20.7670 O   0  0  0  0  0  0  0  0  0  0  0  0
  -22.5930  -11.8420   22.5160 H   0  0  0  0  0  0  0  0  0  0  0  0
  -21.2740  -12.9740   22.4140 H   0  0  0  0  0  0  0  0  0  0  0  0
  -25.4290  -15.1030   20.2880 N   0  0  0  0  0  0  0  0  0  0  0  0
  -24.6630  -15.7480   20.4510 H   0  0  0  0  0  0  0  0  0  0  0  0
  -26.2510  -15.5530   19.9070 H   0  0  0  0  0  0  0  0  0  0  0  0
  -30.8990  -23.1500   19.3470 C   0  0  0  0  0  2  0  0  0  0  0  0
  -33.3360  -22.8120   20.0160 C   0  0  0  0  0  1  0  0  0  0  0  0
  -31.8700  -22.6420   20.4280 C   0  0  0  0  0  2  0  0  0  0  0  0
  -28.6440  -23.7450   20.2490 C   0  0  0  0  0  2  0  0  0  0  0  0
  -28.3880  -25.1240   19.4500 C   0  0  0  0  0  2  0  0  0  0  0  0
  -28.3010  -26.4320   20.1480 O   0  0  0  0  0  0  0  0  0  0  0  0
  -24.7070  -31.7900   23.3750 C   0  0  0  0  0  0  0  0  0  0  0  0
  -27.1730  -27.2720   20.1240 C   0  0  0  0  0  0  0  0  0  0  0  0
  -23.4520  -30.4840   21.6960 C   0  0  0  0  0  3  0  0  0  0  0  0
  -24.8470  -28.9450   20.2020 C   0  0  0  0  0  0  0  0  0  0  0  0
  -25.9970  -30.7390   21.5010 C   0  0  0  0  0  2  0  0  0  0  0  0
  -26.0330  -29.3840   20.8020 C   0  0  0  0  0  0  0  0  0  0  0  0
  -27.1950  -28.5570   20.7530 C   0  0  0  0  0  3  0  0  0  0  0  0
  -25.9560  -26.8780   19.5230 C   0  0  0  0  0  3  0  0  0  0  0  0
  -24.8110  -27.6980   19.5580 C   0  0  0  0  0  3  0  0  0  0  0  0
  -23.6360  -29.8520   20.2900 C   0  0  0  0  0  2  0  0  0  0  0  0
  -24.7390  -31.0200   22.2470 N   0  0  0  0  0  0  0  0  0  0  0  0
  -23.6360  -32.0760   23.9290 O   0  0  0  0  0  0  0  0  0  0  0  0
  -22.7710  -29.4510   22.6240 C   0  0  0  0  0  0  0  0  0  0  0  0
  -21.4520  -29.2530   22.4450 N   0  0  0  0  0  0  0  0  0  0  0  0
  -23.4270  -28.8300   23.4650 O   0  0  0  0  0  0  0  0  0  0  0  0
  -20.9820  -29.8070   21.7430 H   0  0  0  0  0  0  0  0  0  0  0  0
  -18.0970  -27.9380   22.7430 C   0  0  0  0  0  0  0  0  0  0  0  0
  -20.6190  -28.2990   23.1780 C   0  0  0  0  0  3  0  0  0  0  0  0
  -20.8120  -26.8620   22.6400 C   0  0  0  0  0  2  0  0  0  0  0  0
  -19.7940  -26.4800   21.5610 C   0  0  0  0  0  2  0  0  0  0  0  0
  -18.3680  -26.5850   22.1080 C   0  0  0  0  0  2  0  0  0  0  0  0
  -19.1550  -28.7490   23.2320 C   0  0  0  0  0  0  0  0  0  0  0  0
  -18.8520  -30.0130   23.7810 C   0  0  0  0  0  3  0  0  0  0  0  0
  -17.5210  -30.4680   23.8500 C   0  0  0  0  0  3  0  0  0  0  0  0
  -16.4760  -29.6540   23.3810 C   0  0  0  0  0  3  0  0  0  0  0  0
  -16.7630  -28.3910   22.8320 C   0  0  0  0  0  3  0  0  0  0  0  0
  -26.0120  -32.3640   24.0070 C   0  0  0  0  0  3  0  0  0  0  0  0
  -25.7480  -33.7640   24.3700 N   0  0  0  0  0  0  0  0  0  0  0  0
  -26.1110  -34.8240   23.6360 C   0  0  0  0  0  0  0  0  0  0  0  0
  -26.7730  -34.7230   22.5990 O   0  0  0  0  0  0  0  0  0  0  0  0
  -25.1620  -33.9170   25.1770 H   0  0  0  0  0  0  0  0  0  0  0  0
  -24.4400  -36.6800   23.3370 C   0  0  0  0  0  1  0  0  0  0  0  0
  -25.6710  -36.2150   24.1300 C   0  0  0  0  0  3  0  0  0  0  0  0
  -27.8310  -37.0200   24.9780 C   0  0  0  0  0  1  0  0  0  0  0  0
  -26.7360  -37.2370   24.0360 N   0  0  0  0  0  0  0  0  0  0  0  0
  -26.3580  -38.1660   24.2020 H   0  0  0  0  0  0  0  0  0  0  0  0
  -26.5040  -31.5490   25.2660 C   0  0  1  0  0  0  0  0  0  0  0  0
  -25.4030  -31.3190   26.3280 C   0  0  0  0  0  1  0  0  0  0  0  0
  -27.0480  -30.1640   24.8440 C   0  0  0  0  0  1  0  0  0  0  0  0
  -27.6750  -32.2950   25.9480 C   0  0  0  0  0  1  0  0  0  0  0  0
  1  7  1  0
  1 50  1  0
  2  6  1  0
  4  2  2  0
  4  7  1  0
  5  3  1  0
  6  3  2  0
  7  5  2  0
  8  6  1  0
  8 18  1  0
  9 18  1  0
 10 15  1  0
 11 12  1  0
 11 10  1  0
 13 12  1  0
 13 22  1  0
 13 14  1  0
 15  9  1  0
 15 14  1  0
 16  9  2  0
 18 17  1  0
 19 20  2  0
 20 39  1  0
 21 20  1  0
 21 24  1  0
 22 23  1  0
 22 19  1  0
 23 21  2  0
 24 25  1  0
 25 26  2  0
 27 30  1  0
 27 26  1  0
 28 27  2  0
 29 28  1  0
 29 24  2  0
 30 31  1  0
 31 36  2  0
 31 32  1  0
 32 33  2  0
 33 34  1  0
 34 38  1  0
 35 34  2  0
 36 35  1  0
 37 36  1  0
 39 40  1  0
 40 43  1  0
 40 42  1  0
 41 39  2  0
 44 19  1  0
 44 45  1  0
 46 44  1  0
 47  1  1  0
 47 49  1  0
 48 49  1  0
 51 52  1  0
 51 50  1  0
 53 64  2  0
 54 52  1  0
 54 59  1  0
 55 63  1  0
 55 65  1  0
 56 62  1  0
 56 58  1  0
 57 63  1  0
 58 57  1  0
 59 58  2  0
 60 61  1  0
 60 54  2  0
 61 56  2  0
 62 55  1  0
 63 53  1  0
 65 67  2  0
 66 65  1  0
 68 66  1  0
 69 78  2  0
 69 74  1  0
 70 66  1  0
 70 74  1  0
 71 70  1  0
 72 73  1  0
 72 71  1  0
 73 69  1  0
 74 75  2  0
 75 76  1  0
 77 76  2  0
 78 77  1  0
 79 53  1  0
 79 80  1  0
 79 89  1  0
 80 83  1  0
 81 85  1  0
 81 80  1  0
 82 81  2  0
 85 84  1  0
 87 85  1  0
 87 88  1  0
 87 86  1  0
 89 92  1  1
 89 90  1  0
 91 89  1  0
M  ISO  4   9 100  18 100  51 101  52 101
M  END
>  <TORSDO>  (79) 
F 22

>  <SCORE>  (79) 
-12.708

>  <name>  (79) 
79

>  <ligand_id>  (79) 
79

>  <original_smiles>  (79) 
[H]c1c([H])c([H])c2c(c1[H])C([H])([H])C([H])([H])C([H])([H])C2([H])N([H])C(=O)C1([H])N(C(=O)C([H])(N([H])C(=O)C([H])(N([H])C([H])([H])[H])C([H])([H])[H])C(C([H])([H])[H])(C([H])([H])[H])C([H])([H])[H])C([H])([H])c2c([H])c(OC([H])([H])C([H])([H])N(c3c([H])c([H])c(C([H])([H])N(C(=O)N4C([H])([H])C([H])([H])C([H])([H])C([H])(n5nc(-c6c([H])c([H])c(Oc7c([H])c([H])c(F)c([H])c7F)c([H])c6[H])c(C(=O)N([H])[H])c5N([H])[H])C4([H])[H])C([H])([H])[H])c([H])c3[H])C([H])([H])C([H])([H])C([H])([H])[H])c([H])c([H])c2C1([H])[H]

>  <smiles>  (79) 
[H]c1c([H])c([H])c2c(c1[H])C([H])([H])C([H])([H])C([H])([H])C2([H])N([H])C(=O)C1([H])N(C(=O)C([H])(N([H])C(=O)C([H])(N([H])C([H])([H])[H])C([H])([H])[H])C(C([H])([H])[H])(C([H])([H])[H])C([H])([H])[H])C([H])([H])c2c([H])c(OC([H])([H])C([H])([H])N(c3c([H])c([H])c(C([H])([H])N(C(=O)N4C([H])([H])C([H])([H])C([H])([H])C([H])(n5nc(-c6c([H])c([H])c(Oc7c([H])c([H])c(F)c([H])c7F)c([H])c6[H])c(C(=O)N([H])[H])c5N([H])[H])C4([H])[H])C([H])([H])[H])c([H])c3[H])C([H])([H])C([H])([H])C([H])([H])[H])c([H])c([H])c2C1([H])[H]

$$$$
80:0:0
     RDKit          3D

 93101  0  0  1  0  0  0  0  0999 V2000
  -27.5700  -21.2480   22.0030 C   0  0  0  0  0  1  0  0  0  0  0  0
  -28.4700  -21.9970   21.0830 N   0  0  1  0  0  4  0  0  0  0  0  0
  -29.3540  -22.0510   21.5700 H   0  0  0  0  0  0  0  0  0  0  0  0
  -28.7930  -21.2600   19.8220 C   0  0  0  0  0  2  0  0  0  0  0  0
  -28.6700  -18.7490   19.3140 C   0  0  0  0  0  3  0  0  0  0  0  0
  -29.0720  -17.4100   19.5190 C   0  0  0  0  0  3  0  0  0  0  0  0
  -30.7550  -18.1570   21.1000 C   0  0  0  0  0  3  0  0  0  0  0  0
  -29.2950  -19.8120   20.0070 C   0  0  0  0  0  0  0  0  0  0  0  0
  -30.1000  -17.0930   20.4360 C   0  0  0  0  0  0  0  0  0  0  0  0
  -30.3720  -19.5020   20.8700 C   0  0  0  0  0  0  0  0  0  0  0  0
  -31.0020  -20.5040   21.5290 F   0  0  0  0  0  0  0  0  0  0  0  0
  -31.0060  -14.8000   20.0890 C   0  0  0  0  0  0  0  0  0  0  0  0
  -30.7430  -12.6020   18.9750 C   0  0  0  0  0  2  0  0  0  0  0  0
  -29.7520  -12.7580   17.8000 C   0  0  0  0  0  2  0  0  0  0  0  0
  -28.2940  -12.6040   18.2820 C   0  0  0  0  0  2  0  0  0  0  0  0
  -27.9890  -13.4710   19.5350 C   0  0  0  0  0  3  0  0  0  0  0  0
  -29.0790  -13.2620   20.6100 C   0  0  0  0  0  2  0  0  0  0  0  0
  -30.3840  -13.5890   20.0080 N   0  0  0  0  0  0  0  0  0  0  0  0
  -32.0730  -15.0450   19.5180 O   0  0  0  0  0  0  0  0  0  0  0  0
  -30.3380  -15.7310   20.8030 N   0  0  0  0  0  0  0  0  0  0  0  0
  -29.5920  -15.3160   21.3410 H   0  0  0  0  0  0  0  0  0  0  0  0
  -25.6320  -14.1040   20.3650 C   0  0  0  0  0  0  0  0  0  0  0  0
  -24.5690  -13.3370   20.7610 C   0  0  0  0  0  0  0  0  0  0  0  0
  -25.0070  -11.9810   20.6730 C   0  0  0  0  0  0  0  0  0  0  0  0
  -26.6520  -13.2120   20.0650 N   0  0  0  0  0  0  0  0  0  0  0  0
  -26.2800  -11.9280   20.3030 N   0  0  0  0  0  0  0  0  0  0  0  0
  -24.2700  -10.7250   20.8640 C   0  0  0  0  0  0  0  0  0  0  0  0
  -24.6300   -9.8030   21.8710 C   0  0  0  0  0  3  0  0  0  0  0  0
  -23.8960   -8.6110   22.0450 C   0  0  0  0  0  3  0  0  0  0  0  0
  -22.7880   -8.3310   21.2090 C   0  0  0  0  0  0  0  0  0  0  0  0
  -22.4500   -9.2410   20.1930 C   0  0  0  0  0  3  0  0  0  0  0  0
  -23.1840  -10.4260   20.0180 C   0  0  0  0  0  3  0  0  0  0  0  0
  -22.0330   -7.1870   21.2870 O   0  0  0  0  0  0  0  0  0  0  0  0
  -21.7730   -6.5760   22.4880 C   0  0  0  0  0  0  0  0  0  0  0  0
  -21.0730   -7.2330   23.5220 C   0  0  0  0  0  3  0  0  0  0  0  0
  -20.7680   -6.5440   24.7130 C   0  0  0  0  0  3  0  0  0  0  0  0
  -21.1530   -5.2000   24.8680 C   0  0  0  0  0  0  0  0  0  0  0  0
  -21.8470   -4.5420   23.8370 C   0  0  0  0  0  3  0  0  0  0  0  0
  -22.1550   -5.2290   22.6490 C   0  0  0  0  0  0  0  0  0  0  0  0
  -22.8040   -4.5840   21.6490 F   0  0  0  0  0  0  0  0  0  0  0  0
  -20.8530   -4.5340   26.0080 F   0  0  0  0  0  0  0  0  0  0  0  0
  -23.1930  -13.8290   21.1080 C   0  0  0  0  0  0  0  0  0  0  0  0
  -22.4940  -13.1190   21.9880 N   0  0  0  0  0  0  0  0  0  0  0  0
  -22.7490  -14.8750   20.6380 O   0  0  0  0  0  0  0  0  0  0  0  0
  -22.8670  -12.2750   22.3950 H   0  0  0  0  0  0  0  0  0  0  0  0
  -21.5690  -13.4270   22.2580 H   0  0  0  0  0  0  0  0  0  0  0  0
  -25.8020  -15.4760   20.2230 N   0  0  0  0  0  0  0  0  0  0  0  0
  -25.0330  -16.1140   20.3920 H   0  0  0  0  0  0  0  0  0  0  0  0
  -26.6380  -15.9470   19.9060 H   0  0  0  0  0  0  0  0  0  0  0  0
  -27.9540  -23.3960   20.9130 C   0  0  0  0  0  2  0  0  0  0  0  0
  -28.9210  -24.4580   20.3090 C   0  0  0  0  0  2  0  0  0  0  0  0
  -28.6090  -25.8860   20.8450 C   0  0  0  0  0  2  0  0  0  0  0  0
  -28.6490  -26.9600   19.8840 O   0  0  0  0  0  0  0  0  0  0  0  0
  -24.6090  -31.8480   23.1520 C   0  0  0  0  0  0  0  0  0  0  0  0
  -27.4830  -27.6920   19.8840 C   0  0  0  0  0  0  0  0  0  0  0  0
  -23.4710  -30.4520   21.4600 C   0  0  0  0  0  3  0  0  0  0  0  0
  -25.0050  -29.0490   19.9720 C   0  0  0  0  0  0  0  0  0  0  0  0
  -25.9700  -30.9610   21.2570 C   0  0  0  0  0  2  0  0  0  0  0  0
  -26.1360  -29.6200   20.5720 C   0  0  0  0  0  0  0  0  0  0  0  0
  -27.3810  -28.9460   20.5320 C   0  0  0  0  0  3  0  0  0  0  0  0
  -26.3390  -27.1370   19.2730 C   0  0  0  0  0  3  0  0  0  0  0  0
  -25.1020  -27.8060   19.3240 C   0  0  0  0  0  3  0  0  0  0  0  0
  -23.7070  -29.8220   20.0610 C   0  0  0  0  0  2  0  0  0  0  0  0
  -24.7030  -31.0990   22.0160 N   0  0  0  0  0  0  0  0  0  0  0  0
  -23.5170  -32.0380   23.7040 O   0  0  0  0  0  0  0  0  0  0  0  0
  -22.8850  -29.3630   22.3880 C   0  0  0  0  0  0  0  0  0  0  0  0
  -21.5730  -29.1170   22.2620 N   0  0  0  0  0  0  0  0  0  0  0  0
  -23.6080  -28.7430   23.1750 O   0  0  0  0  0  0  0  0  0  0  0  0
  -21.0450  -29.6930   21.6230 H   0  0  0  0  0  0  0  0  0  0  0  0
  -18.2750  -27.7190   22.7400 C   0  0  0  0  0  0  0  0  0  0  0  0
  -20.8200  -28.0910   22.9820 C   0  0  0  0  0  3  0  0  0  0  0  0
  -20.9920  -26.7030   22.3160 C   0  0  0  0  0  2  0  0  0  0  0  0
  -19.8790  -26.3680   21.3170 C   0  0  0  0  0  2  0  0  0  0  0  0
  -18.5030  -26.4150   21.9910 C   0  0  0  0  0  2  0  0  0  0  0  0
  -19.3620  -28.5130   23.1920 C   0  0  0  0  0  0  0  0  0  0  0  0
  -19.0980  -29.7330   23.8520 C   0  0  0  0  0  3  0  0  0  0  0  0
  -17.7740  -30.1640   24.0560 C   0  0  0  0  0  3  0  0  0  0  0  0
  -16.7010  -29.3680   23.6210 C   0  0  0  0  0  3  0  0  0  0  0  0
  -16.9520  -28.1450   22.9720 C   0  0  0  0  0  3  0  0  0  0  0  0
  -25.8550  -32.5260   23.7960 C   0  0  0  0  0  3  0  0  0  0  0  0
  -25.4820  -33.9050   24.1360 N   0  0  0  0  0  0  0  0  0  0  0  0
  -25.7880  -34.9820   23.3990 C   0  0  0  0  0  0  0  0  0  0  0  0
  -26.4850  -34.9180   22.3820 O   0  0  0  0  0  0  0  0  0  0  0  0
  -24.8610  -34.0230   24.9230 H   0  0  0  0  0  0  0  0  0  0  0  0
  -24.0090  -36.7160   23.0170 C   0  0  0  0  0  1  0  0  0  0  0  0
  -25.2360  -36.3450   23.8630 C   0  0  0  0  0  3  0  0  0  0  0  0
  -27.3030  -37.2990   24.7840 C   0  0  0  0  0  1  0  0  0  0  0  0
  -26.2340  -37.4360   23.7980 N   0  0  0  0  0  0  0  0  0  0  0  0
  -25.7910  -38.3410   23.9310 H   0  0  0  0  0  0  0  0  0  0  0  0
  -26.3870  -31.7650   25.0720 C   0  0  1  0  0  0  0  0  0  0  0  0
  -25.2890  -31.4630   26.1190 C   0  0  0  0  0  1  0  0  0  0  0  0
  -27.0390  -30.4260   24.6610 C   0  0  0  0  0  1  0  0  0  0  0  0
  -27.4930  -32.6020   25.7570 C   0  0  0  0  0  1  0  0  0  0  0  0
  2  3  1  1
  2  1  1  0
  4  8  1  0
  4  2  1  0
  5  6  2  0
  5  8  1  0
  6  9  1  0
  8 10  2  0
  9 20  1  0
  9  7  2  0
 10  7  1  0
 10 11  1  0
 12 20  1  0
 13 18  1  0
 14 15  1  0
 14 13  1  0
 16 15  1  0
 16 25  1  0
 16 17  1  0
 18 12  1  0
 18 17  1  0
 19 12  2  0
 20 21  1  0
 22 23  2  0
 23 42  1  0
 24 23  1  0
 24 27  1  0
 25 26  1  0
 25 22  1  0
 26 24  2  0
 27 28  1  0
 28 29  2  0
 30 33  1  0
 30 29  1  0
 31 30  2  0
 32 31  1  0
 32 27  2  0
 33 34  1  0
 34 39  2  0
 34 35  1  0
 35 36  2  0
 36 37  1  0
 37 41  1  0
 38 37  2  0
 39 38  1  0
 40 39  1  0
 42 43  1  0
 43 46  1  0
 43 45  1  0
 44 42  2  0
 47 22  1  0
 47 48  1  0
 49 47  1  0
 50  2  1  0
 51 52  1  0
 51 50  1  0
 53 55  1  0
 53 52  1  0
 54 65  2  0
 55 60  1  0
 56 64  1  0
 56 66  1  0
 57 63  1  0
 57 59  1  0
 58 64  1  0
 59 58  1  0
 60 59  2  0
 61 62  1  0
 61 55  2  0
 62 57  2  0
 63 56  1  0
 64 54  1  0
 66 68  2  0
 67 66  1  0
 69 67  1  0
 70 79  2  0
 70 75  1  0
 71 67  1  0
 71 75  1  0
 72 71  1  0
 73 74  1  0
 73 72  1  0
 74 70  1  0
 75 76  2  0
 76 77  1  0
 78 77  2  0
 79 78  1  0
 80 54  1  0
 80 81  1  0
 80 90  1  0
 81 84  1  0
 82 86  1  0
 82 81  1  0
 83 82  2  0
 86 85  1  0
 88 86  1  0
 88 89  1  0
 88 87  1  0
 90 93  1  1
 90 91  1  0
 92 90  1  0
M  ISO  4  12 100  20 100  52 101  53 101
M  END
>  <TORSDO>  (80) 
F 21

>  <SCORE>  (80) 
-11.510

>  <name>  (80) 
80

>  <ligand_id>  (80) 
80

>  <original_smiles>  (80) 
[H]c1c([H])c([H])c2c(c1[H])C([H])([H])C([H])([H])C([H])([H])C2([H])N([H])C(=O)C1([H])N(C(=O)C([H])(N([H])C(=O)C([H])(N([H])C([H])([H])[H])C([H])([H])[H])C(C([H])([H])[H])(C([H])([H])[H])C([H])([H])[H])C([H])([H])c2c([H])c(OC([H])([H])C([H])([H])C([H])([H])[N+]([H])(C([H])([H])[H])C([H])([H])c3c([H])c([H])c(N([H])C(=O)N4C([H])([H])C([H])([H])C([H])([H])C([H])(n5nc(-c6c([H])c([H])c(Oc7c([H])c([H])c(F)c([H])c7F)c([H])c6[H])c(C(=O)N([H])[H])c5N([H])[H])C4([H])[H])c([H])c3F)c([H])c([H])c2C1([H])[H]

>  <smiles>  (80) 
[H]c1c([H])c([H])c2c(c1[H])C([H])([H])C([H])([H])C([H])([H])C2([H])N([H])C(=O)C1([H])N(C(=O)C([H])(N([H])C(=O)C([H])(N([H])C([H])([H])[H])C([H])([H])[H])C(C([H])([H])[H])(C([H])([H])[H])C([H])([H])[H])C([H])([H])c2c([H])c(OC([H])([H])C([H])([H])C([H])([H])[N+]([H])(C([H])([H])[H])C([H])([H])c3c([H])c([H])c(N([H])C(=O)N4C([H])([H])C([H])([H])C([H])([H])C([H])(n5nc(-c6c([H])c([H])c(Oc7c([H])c([H])c(F)c([H])c7F)c([H])c6[H])c(C(=O)N([H])[H])c5N([H])[H])C4([H])[H])c([H])c3F)c([H])c([H])c2C1([H])[H]

$$$$
81:0:0
     RDKit          3D

 92100  0  0  1  0  0  0  0  0999 V2000
  -29.3800  -21.7260   20.7770 N   0  0  0  0  0  0  0  0  0  0  0  0
  -29.3660  -18.1770   19.3550 C   0  0  0  0  0  3  0  0  0  0  0  0
  -29.1810  -19.5930   19.4400 C   0  0  0  0  0  3  0  0  0  0  0  0
  -30.8190  -18.2350   21.2690 C   0  0  0  0  0  3  0  0  0  0  0  0
  -30.1700  -17.4560   20.2800 C   0  0  0  0  0  0  0  0  0  0  0  0
  -29.7590  -20.3630   20.4850 C   0  0  0  0  0  0  0  0  0  0  0  0
  -30.6150  -19.6430   21.3740 C   0  0  0  0  0  0  0  0  0  0  0  0
  -31.2060  -20.3040   22.4000 F   0  0  0  0  0  0  0  0  0  0  0  0
  -30.9300  -14.9780   20.0210 C   0  0  0  0  0  0  0  0  0  0  0  0
  -30.7030  -12.7320   18.9720 C   0  0  0  0  0  2  0  0  0  0  0  0
  -29.7080  -12.8600   17.7970 C   0  0  0  0  0  2  0  0  0  0  0  0
  -28.2500  -12.7100   18.2830 C   0  0  0  0  0  2  0  0  0  0  0  0
  -27.9450  -13.5760   19.5320 C   0  0  0  0  0  3  0  0  0  0  0  0
  -29.0450  -13.4030   20.6050 C   0  0  0  0  0  2  0  0  0  0  0  0
  -30.3310  -13.7450   19.9780 N   0  0  0  0  0  0  0  0  0  0  0  0
  -32.0780  -15.1590   19.6060 O   0  0  0  0  0  0  0  0  0  0  0  0
  -30.0890  -16.0010   20.3730 N   0  0  0  0  0  0  0  0  0  0  0  0
  -29.1740  -15.6570   20.6180 H   0  0  0  0  0  0  0  0  0  0  0  0
  -25.6040  -14.2100   20.3850 C   0  0  0  0  0  0  0  0  0  0  0  0
  -24.5360  -13.4500   20.7770 C   0  0  0  0  0  0  0  0  0  0  0  0
  -24.9600  -12.0890   20.6730 C   0  0  0  0  0  0  0  0  0  0  0  0
  -26.6130  -13.3120   20.0680 N   0  0  0  0  0  0  0  0  0  0  0  0
  -26.2320  -12.0310   20.3010 N   0  0  0  0  0  0  0  0  0  0  0  0
  -24.2120  -10.8390   20.8510 C   0  0  0  0  0  0  0  0  0  0  0  0
  -24.6270   -9.8540   21.7730 C   0  0  0  0  0  3  0  0  0  0  0  0
  -23.8790   -8.6680   21.9380 C   0  0  0  0  0  3  0  0  0  0  0  0
  -22.7030   -8.4590   21.1790 C   0  0  0  0  0  0  0  0  0  0  0  0
  -22.3080   -9.4330   20.2450 C   0  0  0  0  0  3  0  0  0  0  0  0
  -23.0560  -10.6100   20.0780 C   0  0  0  0  0  3  0  0  0  0  0  0
  -21.9280   -7.3270   21.2530 O   0  0  0  0  0  0  0  0  0  0  0  0
  -21.8270   -6.6000   22.4120 C   0  0  0  0  0  0  0  0  0  0  0  0
  -21.3350   -7.1670   23.6070 C   0  0  0  0  0  3  0  0  0  0  0  0
  -21.1830   -6.3660   24.7570 C   0  0  0  0  0  3  0  0  0  0  0  0
  -21.5110   -4.9970   24.7090 C   0  0  0  0  0  0  0  0  0  0  0  0
  -21.9970   -4.4290   23.5180 C   0  0  0  0  0  3  0  0  0  0  0  0
  -22.1510   -5.2290   22.3720 C   0  0  0  0  0  0  0  0  0  0  0  0
  -22.5990   -4.6710   21.2210 F   0  0  0  0  0  0  0  0  0  0  0  0
  -21.3570   -4.2240   25.8110 F   0  0  0  0  0  0  0  0  0  0  0  0
  -23.1660  -13.9510   21.1330 C   0  0  0  0  0  0  0  0  0  0  0  0
  -22.4640  -13.2420   22.0100 N   0  0  0  0  0  0  0  0  0  0  0  0
  -22.7300  -15.0040   20.6700 O   0  0  0  0  0  0  0  0  0  0  0  0
  -22.8300  -12.3880   22.4040 H   0  0  0  0  0  0  0  0  0  0  0  0
  -21.5470  -13.5580   22.2920 H   0  0  0  0  0  0  0  0  0  0  0  0
  -25.7960  -15.5820   20.2510 N   0  0  0  0  0  0  0  0  0  0  0  0
  -25.0470  -16.2450   20.4230 H   0  0  0  0  0  0  0  0  0  0  0  0
  -26.6260  -16.0170   19.8720 H   0  0  0  0  0  0  0  0  0  0  0  0
  -26.9100  -21.9990   21.0400 C   0  0  0  0  0  1  0  0  0  0  0  0
  -28.2610  -21.7340   21.7250 C   0  0  0  0  0  2  0  0  0  0  0  0
  -29.4450  -22.8730   19.8090 C   0  0  0  0  0  2  0  0  0  0  0  0
  -29.1370  -24.3300   20.4120 C   0  0  0  0  0  3  0  0  0  0  0  0
  -29.1130  -25.5830   19.4370 C   0  0  0  0  0  3  0  0  0  0  0  0
  -28.9200  -26.9320   20.0170 O   0  0  0  0  0  0  0  0  0  0  0  0
  -24.7760  -31.8650   23.2240 C   0  0  0  0  0  0  0  0  0  0  0  0
  -27.7070  -27.6360   19.9910 C   0  0  0  0  0  0  0  0  0  0  0  0
  -23.6760  -30.4670   21.5120 C   0  0  0  0  0  3  0  0  0  0  0  0
  -25.2310  -29.0750   20.0370 C   0  0  0  0  0  0  0  0  0  0  0  0
  -26.1890  -30.9570   21.3670 C   0  0  0  0  0  2  0  0  0  0  0  0
  -26.3600  -29.6180   20.6620 C   0  0  0  0  0  0  0  0  0  0  0  0
  -27.5950  -28.9100   20.6290 C   0  0  0  0  0  3  0  0  0  0  0  0
  -26.5440  -27.1300   19.3640 C   0  0  0  0  0  3  0  0  0  0  0  0
  -25.3250  -27.8360   19.3840 C   0  0  0  0  0  3  0  0  0  0  0  0
  -23.9410  -29.8650   20.1070 C   0  0  0  0  0  2  0  0  0  0  0  0
  -24.8980  -31.1130   22.0930 N   0  0  0  0  0  0  0  0  0  0  0  0
  -23.6740  -32.0500   23.7600 O   0  0  0  0  0  0  0  0  0  0  0  0
  -23.0730  -29.3690   22.4210 C   0  0  0  0  0  0  0  0  0  0  0  0
  -21.7660  -29.1040   22.2600 N   0  0  0  0  0  0  0  0  0  0  0  0
  -23.7820  -28.7610   23.2270 O   0  0  0  0  0  0  0  0  0  0  0  0
  -21.2510  -29.6460   21.5810 H   0  0  0  0  0  0  0  0  0  0  0  0
  -18.4720  -27.6680   22.6600 C   0  0  0  0  0  0  0  0  0  0  0  0
  -21.0020  -28.0850   22.9830 C   0  0  0  0  0  3  0  0  0  0  0  0
  -21.2090  -26.6870   22.3570 C   0  0  0  0  0  2  0  0  0  0  0  0
  -20.1460  -26.3320   21.3110 C   0  0  0  0  0  2  0  0  0  0  0  0
  -18.7480  -26.3610   21.9350 C   0  0  0  0  0  2  0  0  0  0  0  0
  -19.5300  -28.4860   23.1370 C   0  0  0  0  0  0  0  0  0  0  0  0
  -19.2190  -29.7070   23.7730 C   0  0  0  0  0  3  0  0  0  0  0  0
  -17.8830  -30.1120   23.9400 C   0  0  0  0  0  3  0  0  0  0  0  0
  -16.8370  -29.2920   23.4810 C   0  0  0  0  0  3  0  0  0  0  0  0
  -17.1330  -28.0730   22.8450 C   0  0  0  0  0  3  0  0  0  0  0  0
  -26.0120  -32.5490   23.8870 C   0  0  0  0  0  3  0  0  0  0  0  0
  -25.6370  -33.9340   24.2030 N   0  0  0  0  0  0  0  0  0  0  0  0
  -25.9540  -34.9990   23.4540 C   0  0  0  0  0  0  0  0  0  0  0  0
  -26.6630  -34.9210   22.4460 O   0  0  0  0  0  0  0  0  0  0  0  0
  -25.0120  -34.0670   24.9830 H   0  0  0  0  0  0  0  0  0  0  0  0
  -24.1680  -36.7210   23.0410 C   0  0  0  0  0  1  0  0  0  0  0  0
  -25.3980  -36.3680   23.8910 C   0  0  0  0  0  3  0  0  0  0  0  0
  -27.4650  -37.3420   24.7900 C   0  0  0  0  0  1  0  0  0  0  0  0
  -26.3920  -37.4610   23.8070 N   0  0  0  0  0  0  0  0  0  0  0  0
  -25.9440  -38.3650   23.9340 H   0  0  0  0  0  0  0  0  0  0  0  0
  -26.5160  -31.8010   25.1830 C   0  0  1  0  0  0  0  0  0  0  0  0
  -25.3960  -31.5200   26.2130 C   0  0  0  0  0  1  0  0  0  0  0  0
  -27.1680  -30.4480   24.8160 C   0  0  0  0  0  1  0  0  0  0  0  0
  -27.6090  -32.6440   25.8830 C   0  0  0  0  0  1  0  0  0  0  0  0
  1 48  1  0
  2  3  2  0
  2  5  1  0
  3  6  1  0
  4  7  1  0
  5 17  1  0
  5  4  2  0
  6  1  1  0
  6  7  2  0
  7  8  1  0
  9 17  1  0
 10 15  1  0
 11 12  1  0
 11 10  1  0
 13 12  1  0
 13 22  1  0
 13 14  1  0
 15  9  1  0
 15 14  1  0
 16  9  2  0
 17 18  1  0
 19 20  2  0
 20 39  1  0
 21 20  1  0
 21 24  1  0
 22 23  1  0
 22 19  1  0
 23 21  2  0
 24 25  1  0
 25 26  2  0
 27 30  1  0
 27 26  1  0
 28 27  2  0
 29 28  1  0
 29 24  2  0
 30 31  1  0
 31 32  1  0
 32 33  2  0
 34 33  1  0
 34 38  1  0
 35 34  2  0
 36 31  2  0
 36 35  1  0
 37 36  1  0
 39 40  1  0
 40 43  1  0
 40 42  1  0
 41 39  2  0
 44 19  1  0
 44 45  1  0
 46 44  1  0
 47 48  1  0
 49 50  1  0
 49  1  1  0
 51 52  1  0
 51 50  2  0
 53 64  2  0
 54 52  1  0
 54 59  1  0
 55 63  1  0
 55 65  1  0
 56 62  1  0
 56 58  1  0
 57 63  1  0
 58 57  1  0
 59 58  2  0
 60 61  1  0
 60 54  2  0
 61 56  2  0
 62 55  1  0
 63 53  1  0
 65 67  2  0
 66 65  1  0
 68 66  1  0
 69 78  2  0
 69 74  1  0
 70 66  1  0
 70 74  1  0
 71 70  1  0
 72 73  1  0
 72 71  1  0
 73 69  1  0
 74 75  2  0
 75 76  1  0
 77 76  2  0
 78 77  1  0
 79 53  1  0
 79 80  1  0
 79 89  1  0
 80 83  1  0
 81 85  1  0
 81 80  1  0
 82 81  2  0
 85 84  1  0
 87 85  1  0
 87 88  1  0
 87 86  1  0
 89 92  1  1
 89 90  1  0
 91 89  1  0
M  ISO  4   9 100  17 100  51 101  52 101
M  END
>  <TORSDO>  (81) 
F 21

>  <SCORE>  (81) 
-12.407

>  <name>  (81) 
81

>  <ligand_id>  (81) 
81

>  <original_smiles>  (81) 
[H]c1c([H])c([H])c2c(c1[H])C([H])([H])C([H])([H])C([H])([H])C2([H])N([H])C(=O)C1([H])N(C(=O)C([H])(N([H])C(=O)C([H])(N([H])C([H])([H])[H])C([H])([H])[H])C(C([H])([H])[H])(C([H])([H])[H])C([H])([H])[H])C([H])([H])c2c([H])c(OC([H])([H])C([H])([H])C([H])([H])N(c3c([H])c([H])c(N([H])C(=O)N4C([H])([H])C([H])([H])C([H])([H])C([H])(n5nc(-c6c([H])c([H])c(Oc7c([H])c([H])c(F)c([H])c7F)c([H])c6[H])c(C(=O)N([H])[H])c5N([H])[H])C4([H])[H])c([H])c3F)C([H])([H])C([H])([H])[H])c([H])c([H])c2C1([H])[H]

>  <smiles>  (81) 
[H]c1c([H])c([H])c2c(c1[H])C([H])([H])C([H])([H])C([H])([H])C2([H])N([H])C(=O)C1([H])N(C(=O)C([H])(N([H])C(=O)C([H])(N([H])C([H])([H])[H])C([H])([H])[H])C(C([H])([H])[H])(C([H])([H])[H])C([H])([H])[H])C([H])([H])c2c([H])c(OC([H])([H])C([H])([H])C([H])([H])N(c3c([H])c([H])c(N([H])C(=O)N4C([H])([H])C([H])([H])C([H])([H])C([H])(n5nc(-c6c([H])c([H])c(Oc7c([H])c([H])c(F)c([H])c7F)c([H])c6[H])c(C(=O)N([H])[H])c5N([H])[H])C4([H])[H])c([H])c3F)C([H])([H])C([H])([H])[H])c([H])c([H])c2C1([H])[H]

$$$$
82:0:0
     RDKit          3D

 93101  0  0  1  0  0  0  0  0999 V2000
  -29.9410  -21.9250   20.5390 N   0  0  0  0  0  4  0  0  0  0  0  0
  -29.0340  -21.4940   20.5990 H   0  0  0  0  0  0  0  0  0  0  0  0
  -30.1860  -21.9970   19.5650 H   0  0  0  0  0  0  0  0  0  0  0  0
  -30.9270  -21.0390   21.2000 C   0  0  0  0  0  2  0  0  0  0  0  0
  -31.7930  -18.8290   20.2380 C   0  0  0  0  0  3  0  0  0  0  0  0
  -31.6810  -17.4350   20.0530 C   0  0  0  0  0  3  0  0  0  0  0  0
  -29.6040  -18.8670   21.2870 C   0  0  0  0  0  3  0  0  0  0  0  0
  -30.7620  -19.5550   20.8730 C   0  0  0  0  0  0  0  0  0  0  0  0
  -29.4810  -17.4720   21.1050 C   0  0  0  0  0  0  0  0  0  0  0  0
  -30.5310  -16.7340   20.4980 C   0  0  0  0  0  0  0  0  0  0  0  0
  -28.2170  -16.7820   21.5910 C   0  0  0  0  0  1  0  0  0  0  0  0
  -30.8700  -14.4280   19.5060 C   0  0  0  0  0  0  0  0  0  0  0  0
  -30.3110  -12.3690   18.2600 C   0  0  0  0  0  2  0  0  0  0  0  0
  -29.2210  -12.6940   17.2180 C   0  0  0  0  0  2  0  0  0  0  0  0
  -27.8120  -12.6060   17.8390 C   0  0  0  0  0  2  0  0  0  0  0  0
  -27.7020  -13.3760   19.1830 C   0  0  0  0  0  3  0  0  0  0  0  0
  -28.8780  -13.0010   20.1130 C   0  0  0  0  0  2  0  0  0  0  0  0
  -30.1370  -13.2870   19.3960 N   0  0  0  0  0  0  0  0  0  0  0  0
  -31.8870  -14.6340   18.8360 O   0  0  0  0  0  0  0  0  0  0  0  0
  -30.3540  -15.3220   20.3710 N   0  0  0  0  0  0  0  0  0  0  0  0
  -29.5910  -14.9460   20.9110 H   0  0  0  0  0  0  0  0  0  0  0  0
  -25.4470  -14.0660   20.2170 C   0  0  0  0  0  0  0  0  0  0  0  0
  -24.4020  -13.3290   20.7070 C   0  0  0  0  0  0  0  0  0  0  0  0
  -24.7890  -11.9600   20.5730 C   0  0  0  0  0  0  0  0  0  0  0  0
  -26.4100  -13.1480   19.8260 N   0  0  0  0  0  0  0  0  0  0  0  0
  -26.0220  -11.8750   20.0930 N   0  0  0  0  0  0  0  0  0  0  0  0
  -24.0340  -10.7250   20.8210 C   0  0  0  0  0  0  0  0  0  0  0  0
  -24.4660   -9.7740   21.7720 C   0  0  0  0  0  3  0  0  0  0  0  0
  -23.7140   -8.6020   22.0040 C   0  0  0  0  0  3  0  0  0  0  0  0
  -22.5170   -8.3740   21.2860 C   0  0  0  0  0  0  0  0  0  0  0  0
  -22.1040   -9.3120   20.3240 C   0  0  0  0  0  3  0  0  0  0  0  0
  -22.8560  -10.4750   20.0900 C   0  0  0  0  0  3  0  0  0  0  0  0
  -21.7340   -7.2520   21.4270 O   0  0  0  0  0  0  0  0  0  0  0  0
  -21.5790   -6.6330   22.6410 C   0  0  0  0  0  0  0  0  0  0  0  0
  -21.0820   -7.3190   23.7710 C   0  0  0  0  0  3  0  0  0  0  0  0
  -20.8720   -6.6260   24.9800 C   0  0  0  0  0  3  0  0  0  0  0  0
  -21.1470   -5.2490   25.0590 C   0  0  0  0  0  0  0  0  0  0  0  0
  -21.6370   -4.5620   23.9340 C   0  0  0  0  0  3  0  0  0  0  0  0
  -21.8500   -5.2510   22.7290 C   0  0  0  0  0  0  0  0  0  0  0  0
  -22.3000   -4.5810   21.6410 F   0  0  0  0  0  0  0  0  0  0  0  0
  -20.9390   -4.5810   26.2180 F   0  0  0  0  0  0  0  0  0  0  0  0
  -23.0790  -13.8560   21.1800 C   0  0  0  0  0  0  0  0  0  0  0  0
  -22.4560  -13.1790   22.1400 N   0  0  0  0  0  0  0  0  0  0  0  0
  -22.6100  -14.9030   20.7340 O   0  0  0  0  0  0  0  0  0  0  0  0
  -22.8510  -12.3320   22.5200 H   0  0  0  0  0  0  0  0  0  0  0  0
  -21.5750  -13.5140   22.5000 H   0  0  0  0  0  0  0  0  0  0  0  0
  -25.6500  -15.4330   20.0540 N   0  0  0  0  0  0  0  0  0  0  0  0
  -24.9290  -16.1140   20.2660 H   0  0  0  0  0  0  0  0  0  0  0  0
  -26.4560  -15.8390   19.5960 H   0  0  0  0  0  0  0  0  0  0  0  0
  -29.8810  -23.2800   21.1480 C   0  0  0  0  0  2  0  0  0  0  0  0
  -29.2660  -24.3680   20.2350 C   0  0  0  0  0  2  0  0  0  0  0  0
  -29.0050  -25.6890   20.9970 C   0  0  0  0  0  2  0  0  0  0  0  0
  -28.9140  -26.8010   20.1040 O   0  0  0  0  0  0  0  0  0  0  0  0
  -24.6100  -31.5830   23.1790 C   0  0  0  0  0  0  0  0  0  0  0  0
  -27.7070  -27.4540   20.1060 C   0  0  0  0  0  0  0  0  0  0  0  0
  -23.6010  -30.2010   21.3920 C   0  0  0  0  0  3  0  0  0  0  0  0
  -25.2340  -28.8090   20.0150 C   0  0  0  0  0  0  0  0  0  0  0  0
  -26.1080  -30.7060   21.3920 C   0  0  0  0  0  2  0  0  0  0  0  0
  -26.3150  -29.3710   20.7070 C   0  0  0  0  0  0  0  0  0  0  0  0
  -27.5570  -28.7000   20.7540 C   0  0  0  0  0  3  0  0  0  0  0  0
  -26.6140  -26.8950   19.4160 C   0  0  0  0  0  3  0  0  0  0  0  0
  -25.3760  -27.5670   19.3680 C   0  0  0  0  0  3  0  0  0  0  0  0
  -23.9440  -29.5980   20.0030 C   0  0  0  0  0  2  0  0  0  0  0  0
  -24.7870  -30.8430   22.0490 N   0  0  0  0  0  0  0  0  0  0  0  0
  -23.4810  -31.7720   23.6530 O   0  0  0  0  0  0  0  0  0  0  0  0
  -22.9430  -29.1030   22.2570 C   0  0  0  0  0  0  0  0  0  0  0  0
  -21.6340  -28.8820   22.0490 N   0  0  0  0  0  0  0  0  0  0  0  0
  -23.6070  -28.4550   23.0680 O   0  0  0  0  0  0  0  0  0  0  0  0
  -21.1580  -29.4610   21.3700 H   0  0  0  0  0  0  0  0  0  0  0  0
  -18.2780  -27.5710   22.3200 C   0  0  0  0  0  0  0  0  0  0  0  0
  -20.8140  -27.8730   22.7180 C   0  0  0  0  0  3  0  0  0  0  0  0
  -20.9810  -26.4890   22.0480 C   0  0  0  0  0  2  0  0  0  0  0  0
  -19.9310  -26.2120   20.9680 C   0  0  0  0  0  2  0  0  0  0  0  0
  -18.5200  -26.2780   21.5600 C   0  0  0  0  0  2  0  0  0  0  0  0
  -19.3570  -28.3290   22.8490 C   0  0  0  0  0  0  0  0  0  0  0  0
  -19.0800  -29.5430   23.5130 C   0  0  0  0  0  3  0  0  0  0  0  0
  -17.7570  -30.0010   23.6560 C   0  0  0  0  0  3  0  0  0  0  0  0
  -16.6920  -29.2400   23.1450 C   0  0  0  0  0  3  0  0  0  0  0  0
  -16.9530  -28.0270   22.4820 C   0  0  0  0  0  3  0  0  0  0  0  0
  -25.8140  -32.2470   23.9190 C   0  0  0  0  0  3  0  0  0  0  0  0
  -25.4140  -33.6130   24.2800 N   0  0  0  0  0  0  0  0  0  0  0  0
  -25.7490  -34.7100   23.5870 C   0  0  0  0  0  0  0  0  0  0  0  0
  -26.4970  -34.6820   22.6070 O   0  0  0  0  0  0  0  0  0  0  0  0
  -24.7550  -33.7070   25.0400 H   0  0  0  0  0  0  0  0  0  0  0  0
  -23.9740  -36.4380   23.1580 C   0  0  0  0  0  1  0  0  0  0  0  0
  -25.1600  -36.0540   24.0590 C   0  0  0  0  0  3  0  0  0  0  0  0
  -27.1690  -36.9920   25.1110 C   0  0  0  0  0  1  0  0  0  0  0  0
  -26.1480  -37.1540   24.0800 N   0  0  0  0  0  0  0  0  0  0  0  0
  -25.6870  -38.0480   24.2280 H   0  0  0  0  0  0  0  0  0  0  0  0
  -26.2780  -31.4460   25.1970 C   0  0  1  0  0  0  0  0  0  0  0  0
  -25.1230  -31.0930   26.1610 C   0  0  0  0  0  1  0  0  0  0  0  0
  -26.9750  -30.1270   24.7870 C   0  0  0  0  0  1  0  0  0  0  0  0
  -27.3230  -32.2720   25.9830 C   0  0  0  0  0  1  0  0  0  0  0  0
  1  2  1  0
  1 50  1  0
  1  4  1  0
  3  1  1  0
  5  8  1  0
  6  5  2  0
  6 10  1  0
  8  4  1  0
  8  7  2  0
  9  7  1  0
  9 11  1  0
 10  9  2  0
 12 20  1  0
 13 18  1  0
 14 15  1  0
 14 13  1  0
 16 15  1  0
 16 25  1  0
 16 17  1  0
 18 12  1  0
 18 17  1  0
 19 12  2  0
 20 10  1  0
 20 21  1  0
 22 23  2  0
 23 42  1  0
 24 23  1  0
 24 27  1  0
 25 26  1  0
 25 22  1  0
 26 24  2  0
 27 28  1  0
 28 29  2  0
 30 33  1  0
 30 29  1  0
 31 30  2  0
 32 31  1  0
 32 27  2  0
 33 34  1  0
 34 39  2  0
 34 35  1  0
 35 36  2  0
 36 37  1  0
 37 41  1  0
 38 37  2  0
 39 38  1  0
 40 39  1  0
 42 43  1  0
 43 46  1  0
 43 45  1  0
 44 42  2  0
 47 22  1  0
 47 48  1  0
 49 47  1  0
 51 52  1  0
 51 50  1  0
 53 55  1  0
 53 52  1  0
 54 65  2  0
 55 60  1  0
 56 64  1  0
 56 66  1  0
 57 59  1  0
 58 64  1  0
 59 60  2  0
 59 58  1  0
 61 55  2  0
 62 61  1  0
 62 57  2  0
 63 57  1  0
 63 56  1  0
 64 54  1  0
 66 68  2  0
 67 66  1  0
 69 67  1  0
 70 79  2  0
 70 75  1  0
 71 67  1  0
 71 75  1  0
 72 71  1  0
 73 74  1  0
 73 72  1  0
 74 70  1  0
 75 76  2  0
 76 77  1  0
 78 77  2  0
 79 78  1  0
 80 54  1  0
 80 81  1  0
 80 90  1  0
 81 84  1  0
 82 86  1  0
 82 81  1  0
 83 82  2  0
 86 85  1  0
 86 88  1  0
 88 89  1  0
 88 87  1  0
 90 93  1  1
 90 91  1  0
 92 90  1  0
M  ISO  4  12 100  20 100  52 101  53 101
M  END
>  <TORSDO>  (82) 
F 21

>  <SCORE>  (82) 
-9.626

>  <name>  (82) 
82

>  <ligand_id>  (82) 
82

>  <original_smiles>  (82) 
[H]c1c([H])c([H])c2c(c1[H])C([H])([H])C([H])([H])C([H])([H])C2([H])N([H])C(=O)C1([H])N(C(=O)C([H])(N([H])C(=O)C([H])(N([H])C([H])([H])[H])C([H])([H])[H])C(C([H])([H])[H])(C([H])([H])[H])C([H])([H])[H])C([H])([H])c2c([H])c(OC([H])([H])C([H])([H])C([H])([H])[N+]([H])([H])C([H])([H])c3c([H])c([H])c(N([H])C(=O)N4C([H])([H])C([H])([H])C([H])([H])C([H])(n5nc(-c6c([H])c([H])c(Oc7c([H])c([H])c(F)c([H])c7F)c([H])c6[H])c(C(=O)N([H])[H])c5N([H])[H])C4([H])[H])c(C([H])([H])[H])c3[H])c([H])c([H])c2C1([H])[H]

>  <smiles>  (82) 
[H]c1c([H])c([H])c2c(c1[H])C([H])([H])C([H])([H])C([H])([H])C2([H])N([H])C(=O)C1([H])N(C(=O)C([H])(N([H])C(=O)C([H])(N([H])C([H])([H])[H])C([H])([H])[H])C(C([H])([H])[H])(C([H])([H])[H])C([H])([H])[H])C([H])([H])c2c([H])c(OC([H])([H])C([H])([H])C([H])([H])[N+]([H])([H])C([H])([H])c3c([H])c([H])c(N([H])C(=O)N4C([H])([H])C([H])([H])C([H])([H])C([H])(n5nc(-c6c([H])c([H])c(Oc7c([H])c([H])c(F)c([H])c7F)c([H])c6[H])c(C(=O)N([H])[H])c5N([H])[H])C4([H])[H])c(C([H])([H])[H])c3[H])c([H])c([H])c2C1([H])[H]

$$$$
83:0:0
     RDKit          3D

 93101  0  0  1  0  0  0  0  0999 V2000
  -29.5260  -21.0480   20.1120 N   0  0  0  0  0  0  0  0  0  0  0  0
  -30.0130  -18.4640   20.0610 C   0  0  0  0  0  3  0  0  0  0  0  0
  -30.7820  -17.3400   22.0780 C   0  0  0  0  0  3  0  0  0  0  0  0
  -30.2480  -19.7410   22.1020 C   0  0  0  0  0  3  0  0  0  0  0  0
  -30.4380  -17.2290   20.7150 C   0  0  0  0  0  0  0  0  0  0  0  0
  -29.9200  -19.7690   20.7240 C   0  0  0  0  0  0  0  0  0  0  0  0
  -30.6830  -18.5700   22.7550 C   0  0  0  0  0  0  0  0  0  0  0  0
  -30.9850  -18.6230   24.0760 F   0  0  0  0  0  0  0  0  0  0  0  0
  -31.1100  -14.7420   20.1180 C   0  0  0  0  0  0  0  0  0  0  0  0
  -30.8470  -12.4650   19.1040 C   0  0  0  0  0  2  0  0  0  0  0  0
  -29.8910  -12.5700   17.8950 C   0  0  0  0  0  2  0  0  0  0  0  0
  -28.4120  -12.4750   18.3340 C   0  0  0  0  0  2  0  0  0  0  0  0
  -28.0950  -13.3720   19.5620 C   0  0  0  0  0  3  0  0  0  0  0  0
  -29.1650  -13.2190   20.6640 C   0  0  0  0  0  2  0  0  0  0  0  0
  -30.4640  -13.5310   20.0520 N   0  0  0  0  0  0  0  0  0  0  0  0
  -32.3060  -14.8360   19.8220 O   0  0  0  0  0  0  0  0  0  0  0  0
  -30.2870  -15.8570   20.1810 N   0  0  0  0  0  0  0  0  0  0  0  0
  -29.3230  -15.5630   20.1430 H   0  0  0  0  0  0  0  0  0  0  0  0
  -25.7530  -14.0870   20.3230 C   0  0  0  0  0  0  0  0  0  0  0  0
  -24.6560  -13.3700   20.7160 C   0  0  0  0  0  0  0  0  0  0  0  0
  -25.0490  -11.9960   20.6790 C   0  0  0  0  0  0  0  0  0  0  0  0
  -26.7460  -13.1540   20.0730 N   0  0  0  0  0  0  0  0  0  0  0  0
  -26.3290  -11.8910   20.3460 N   0  0  0  0  0  0  0  0  0  0  0  0
  -24.2620  -10.7740   20.8780 C   0  0  0  0  0  0  0  0  0  0  0  0
  -24.6480   -9.7940   21.8190 C   0  0  0  0  0  3  0  0  0  0  0  0
  -23.8640   -8.6360   22.0090 C   0  0  0  0  0  3  0  0  0  0  0  0
  -22.6810   -8.4480   21.2560 C   0  0  0  0  0  0  0  0  0  0  0  0
  -22.3150   -9.4150   20.3020 C   0  0  0  0  0  3  0  0  0  0  0  0
  -23.0990  -10.5650   20.1110 C   0  0  0  0  0  3  0  0  0  0  0  0
  -21.8720   -7.3430   21.3530 O   0  0  0  0  0  0  0  0  0  0  0  0
  -21.7610   -6.6310   22.5190 C   0  0  0  0  0  0  0  0  0  0  0  0
  -21.3500   -7.2390   23.7260 C   0  0  0  0  0  3  0  0  0  0  0  0
  -21.1820   -6.4590   24.8870 C   0  0  0  0  0  3  0  0  0  0  0  0
  -21.4140   -5.0720   24.8420 C   0  0  0  0  0  0  0  0  0  0  0  0
  -21.8180   -4.4630   23.6410 C   0  0  0  0  0  3  0  0  0  0  0  0
  -21.9880   -5.2400   22.4830 C   0  0  0  0  0  0  0  0  0  0  0  0
  -22.3550   -4.6460   21.3220 F   0  0  0  0  0  0  0  0  0  0  0  0
  -21.2450   -4.3180   25.9540 F   0  0  0  0  0  0  0  0  0  0  0  0
  -23.2900  -13.9200   21.0070 C   0  0  0  0  0  0  0  0  0  0  0  0
  -22.5470  -13.2750   21.9000 N   0  0  0  0  0  0  0  0  0  0  0  0
  -22.8910  -14.9570   20.4780 O   0  0  0  0  0  0  0  0  0  0  0  0
  -22.8830  -12.4380   22.3560 H   0  0  0  0  0  0  0  0  0  0  0  0
  -21.6300  -13.6260   22.1360 H   0  0  0  0  0  0  0  0  0  0  0  0
  -25.9780  -15.4460   20.1280 N   0  0  0  0  0  0  0  0  0  0  0  0
  -25.2210  -16.1200   20.1910 H   0  0  0  0  0  0  0  0  0  0  0  0
  -26.7960  -15.8280   19.6740 H   0  0  0  0  0  0  0  0  0  0  0  0
  -31.2810  -21.4380   18.3640 C   0  0  0  0  0  1  0  0  0  0  0  0
  -29.8050  -21.1520   18.6760 C   0  0  0  0  0  2  0  0  0  0  0  0
  -30.6050  -22.7440   21.6540 C   0  0  0  0  0  1  0  0  0  0  0  0
  -29.3220  -22.3550   20.8870 C   0  0  0  0  0  3  0  0  0  0  0  0
  -28.8010  -23.6870   20.1000 C   0  0  0  0  0  2  0  0  0  0  0  0
  -28.3220  -25.0060   20.9140 C   0  0  0  0  0  2  0  0  0  0  0  0
  -28.4790  -26.4010   20.3880 O   0  0  0  0  0  0  0  0  0  0  0  0
  -24.6270  -31.8340   23.2730 C   0  0  0  0  0  0  0  0  0  0  0  0
  -27.3610  -27.2540   20.3490 C   0  0  0  0  0  0  0  0  0  0  0  0
  -23.4860  -30.4160   21.6070 C   0  0  0  0  0  3  0  0  0  0  0  0
  -24.9900  -28.8610   20.2360 C   0  0  0  0  0  0  0  0  0  0  0  0
  -26.0260  -30.7500   21.4950 C   0  0  0  0  0  2  0  0  0  0  0  0
  -26.1370  -29.3640   20.8650 C   0  0  0  0  0  0  0  0  0  0  0  0
  -27.3290  -28.5750   20.9040 C   0  0  0  0  0  3  0  0  0  0  0  0
  -26.1950  -26.8050   19.6960 C   0  0  0  0  0  3  0  0  0  0  0  0
  -25.0240  -27.5900   19.6370 C   0  0  0  0  0  3  0  0  0  0  0  0
  -23.7470  -29.7320   20.2380 C   0  0  0  0  0  2  0  0  0  0  0  0
  -24.7310  -31.0180   22.1820 N   0  0  0  0  0  0  0  0  0  0  0  0
  -23.5260  -32.1060   23.7730 O   0  0  0  0  0  0  0  0  0  0  0  0
  -22.7990  -29.4010   22.5540 C   0  0  0  0  0  0  0  0  0  0  0  0
  -21.4800  -29.2060   22.3810 N   0  0  0  0  0  0  0  0  0  0  0  0
  -23.4540  -28.7930   23.4050 O   0  0  0  0  0  0  0  0  0  0  0  0
  -21.0090  -29.7470   21.6690 H   0  0  0  0  0  0  0  0  0  0  0  0
  -18.1100  -27.9440   22.7470 C   0  0  0  0  0  0  0  0  0  0  0  0
  -20.6460  -28.2660   23.1320 C   0  0  0  0  0  3  0  0  0  0  0  0
  -20.8080  -26.8280   22.5910 C   0  0  0  0  0  2  0  0  0  0  0  0
  -19.7630  -26.4590   21.5340 C   0  0  0  0  0  2  0  0  0  0  0  0
  -18.3490  -26.5860   22.1070 C   0  0  0  0  0  2  0  0  0  0  0  0
  -19.1900  -28.7390   23.2140 C   0  0  0  0  0  0  0  0  0  0  0  0
  -18.9160  -30.0060   23.7710 C   0  0  0  0  0  3  0  0  0  0  0  0
  -17.5940  -30.4810   23.8660 C   0  0  0  0  0  3  0  0  0  0  0  0
  -16.5280  -29.6850   23.4150 C   0  0  0  0  0  3  0  0  0  0  0  0
  -16.7860  -28.4170   22.8630 C   0  0  0  0  0  3  0  0  0  0  0  0
  -25.8850  -32.4810   23.9310 C   0  0  0  0  0  3  0  0  0  0  0  0
  -25.5610  -33.8850   24.2280 N   0  0  0  0  0  0  0  0  0  0  0  0
  -25.9140  -34.9260   23.4640 C   0  0  0  0  0  0  0  0  0  0  0  0
  -26.6140  -34.8080   22.4550 O   0  0  0  0  0  0  0  0  0  0  0  0
  -24.9430  -34.0500   25.0090 H   0  0  0  0  0  0  0  0  0  0  0  0
  -24.1840  -36.7040   23.0380 C   0  0  0  0  0  1  0  0  0  0  0  0
  -25.4100  -36.3220   23.8830 C   0  0  0  0  0  3  0  0  0  0  0  0
  -27.5260  -37.2290   24.7390 C   0  0  0  0  0  1  0  0  0  0  0  0
  -26.4400  -37.3780   23.7730 N   0  0  0  0  0  0  0  0  0  0  0  0
  -26.0280  -38.2980   23.9010 H   0  0  0  0  0  0  0  0  0  0  0  0
  -26.3550  -31.7330   25.2390 C   0  0  1  0  0  0  0  0  0  0  0  0
  -25.2240  -31.5130   26.2700 C   0  0  0  0  0  1  0  0  0  0  0  0
  -26.9560  -30.3500   24.8920 C   0  0  0  0  0  1  0  0  0  0  0  0
  -27.4790  -32.5420   25.9290 C   0  0  0  0  0  1  0  0  0  0  0  0
  1  6  1  0
  1 50  1  0
  2  5  2  0
  2  6  1  0
  3  7  2  0
  4  7  1  0
  5  3  1  0
  6  4  2  0
  7  8  1  0
  9 17  1  0
 10 15  1  0
 11 12  1  0
 11 10  1  0
 13 12  1  0
 13 22  1  0
 13 14  1  0
 15  9  1  0
 15 14  1  0
 16  9  2  0
 17  5  1  0
 18 17  1  0
 19 20  2  0
 20 39  1  0
 21 20  1  0
 21 24  1  0
 22 19  1  0
 22 23  1  0
 23 21  2  0
 24 25  1  0
 25 26  2  0
 27 30  1  0
 27 26  1  0
 28 27  2  0
 29 28  1  0
 29 24  2  0
 30 31  1  0
 31 32  1  0
 32 33  2  0
 34 33  1  0
 34 38  1  0
 35 34  2  0
 36 31  2  0
 36 35  1  0
 37 36  1  0
 39 40  1  0
 40 43  1  0
 40 42  1  0
 41 39  2  0
 44 45  1  0
 44 19  1  0
 46 44  1  0
 47 48  1  0
 48  1  1  0
 50 49  1  0
 51 50  1  0
 51 52  1  0
 53 52  1  0
 54 65  2  0
 55 53  1  0
 55 60  1  0
 56 64  1  0
 56 66  1  0
 57 63  1  0
 57 59  1  0
 58 64  1  0
 59 60  2  0
 59 58  1  0
 61 55  2  0
 62 61  1  0
 62 57  2  0
 63 56  1  0
 64 54  1  0
 66 68  2  0
 67 66  1  0
 69 67  1  0
 70 79  2  0
 70 75  1  0
 71 67  1  0
 71 75  1  0
 72 71  1  0
 73 74  1  0
 73 72  1  0
 74 70  1  0
 75 76  2  0
 76 77  1  0
 78 77  2  0
 79 78  1  0
 80 54  1  0
 80 81  1  0
 80 90  1  0
 81 84  1  0
 82 86  1  0
 82 81  1  0
 83 82  2  0
 86 85  1  0
 88 86  1  0
 88 89  1  0
 88 87  1  0
 90 93  1  1
 90 91  1  0
 92 90  1  0
M  ISO  4   9 100  17 100  52 101  53 101
M  END
>  <TORSDO>  (83) 
F 21

>  <SCORE>  (83) 
-12.905

>  <name>  (83) 
83

>  <ligand_id>  (83) 
83

>  <original_smiles>  (83) 
[H]c1c([H])c([H])c2c(c1[H])C([H])([H])C([H])([H])C([H])([H])C2([H])N([H])C(=O)C1([H])N(C(=O)C([H])(N([H])C(=O)C([H])(N([H])C([H])([H])[H])C([H])([H])[H])C(C([H])([H])[H])(C([H])([H])[H])C([H])([H])[H])C([H])([H])c2c([H])c(OC([H])([H])C([H])([H])C([H])(N(c3c([H])c(F)c([H])c(N([H])C(=O)N4C([H])([H])C([H])([H])C([H])([H])C([H])(n5nc(-c6c([H])c([H])c(Oc7c([H])c([H])c(F)c([H])c7F)c([H])c6[H])c(C(=O)N([H])[H])c5N([H])[H])C4([H])[H])c3[H])C([H])([H])C([H])([H])[H])C([H])([H])[H])c([H])c([H])c2C1([H])[H]

>  <smiles>  (83) 
[H]c1c([H])c([H])c2c(c1[H])C([H])([H])C([H])([H])C([H])([H])C2([H])N([H])C(=O)C1([H])N(C(=O)C([H])(N([H])C(=O)C([H])(N([H])C([H])([H])[H])C([H])([H])[H])C(C([H])([H])[H])(C([H])([H])[H])C([H])([H])[H])C([H])([H])c2c([H])c(OC([H])([H])C([H])([H])C([H])(N(c3c([H])c(F)c([H])c(N([H])C(=O)N4C([H])([H])C([H])([H])C([H])([H])C([H])(n5nc(-c6c([H])c([H])c(Oc7c([H])c([H])c(F)c([H])c7F)c([H])c6[H])c(C(=O)N([H])[H])c5N([H])[H])C4([H])[H])c3[H])C([H])([H])C([H])([H])[H])C([H])([H])[H])c([H])c([H])c2C1([H])[H]

$$$$
84:0:0
     RDKit          3D

 93101  0  0  1  0  0  0  0  0999 V2000
  -30.8650  -21.6140   20.9110 C   0  0  0  0  0  1  0  0  0  0  0  0
  -29.4310  -21.6980   20.5430 N   0  0  1  0  0  4  0  0  0  0  0  0
  -29.3990  -21.7670   19.5340 H   0  0  0  0  0  0  0  0  0  0  0  0
  -28.6800  -20.4430   20.8440 C   0  0  0  0  0  2  0  0  0  0  0  0
  -29.8710  -16.8420   18.6690 C   0  0  0  0  0  3  0  0  0  0  0  0
  -29.6470  -18.0440   17.9720 C   0  0  0  0  0  3  0  0  0  0  0  0
  -29.3560  -17.9730   20.7620 C   0  0  0  0  0  3  0  0  0  0  0  0
  -29.1380  -19.1960   20.0700 C   0  0  0  0  0  0  0  0  0  0  0  0
  -29.7320  -16.7940   20.0760 C   0  0  0  0  0  0  0  0  0  0  0  0
  -29.2790  -19.2140   18.6580 C   0  0  0  0  0  0  0  0  0  0  0  0
  -28.9870  -20.6490   17.7350 Cl  0  0  0  0  0  0  0  0  0  0  0  0
  -30.6420  -14.5270   20.4250 C   0  0  0  0  0  0  0  0  0  0  0  0
  -30.3860  -12.3540   19.3220 C   0  0  0  0  0  2  0  0  0  0  0  0
  -29.4490  -12.5880   18.1170 C   0  0  0  0  0  2  0  0  0  0  0  0
  -27.9610  -12.4830   18.5230 C   0  0  0  0  0  2  0  0  0  0  0  0
  -27.6280  -13.2870   19.8090 C   0  0  0  0  0  3  0  0  0  0  0  0
  -28.6800  -13.0160   20.9110 C   0  0  0  0  0  2  0  0  0  0  0  0
  -30.0090  -13.3260   20.3570 N   0  0  0  0  0  0  0  0  0  0  0  0
  -31.7910  -14.7100   20.0080 O   0  0  0  0  0  0  0  0  0  0  0  0
  -29.8640  -15.5630   20.7940 N   0  0  0  0  0  0  0  0  0  0  0  0
  -29.0670  -15.3100   21.3600 H   0  0  0  0  0  0  0  0  0  0  0  0
  -25.2220  -13.9050   20.4990 C   0  0  0  0  0  0  0  0  0  0  0  0
  -24.1490  -13.1380   20.8640 C   0  0  0  0  0  0  0  0  0  0  0  0
  -24.6080  -11.7850   20.8440 C   0  0  0  0  0  0  0  0  0  0  0  0
  -26.2680  -13.0200   20.2790 N   0  0  0  0  0  0  0  0  0  0  0  0
  -25.9000  -11.7400   20.5430 N   0  0  0  0  0  0  0  0  0  0  0  0
  -23.8770  -10.5260   21.0380 C   0  0  0  0  0  0  0  0  0  0  0  0
  -24.3080   -9.5590   21.9730 C   0  0  0  0  0  3  0  0  0  0  0  0
  -23.5800   -8.3650   22.1570 C   0  0  0  0  0  3  0  0  0  0  0  0
  -22.4050   -8.1280   21.4030 C   0  0  0  0  0  0  0  0  0  0  0  0
  -21.9910   -9.0840   20.4580 C   0  0  0  0  0  3  0  0  0  0  0  0
  -22.7210  -10.2710   20.2750 C   0  0  0  0  0  3  0  0  0  0  0  0
  -21.6500   -6.9850   21.4910 O   0  0  0  0  0  0  0  0  0  0  0  0
  -21.6080   -6.2370   22.6400 C   0  0  0  0  0  0  0  0  0  0  0  0
  -21.1970   -6.7870   23.8740 C   0  0  0  0  0  3  0  0  0  0  0  0
  -21.1040   -5.9660   25.0160 C   0  0  0  0  0  3  0  0  0  0  0  0
  -21.4110   -4.5960   24.9240 C   0  0  0  0  0  0  0  0  0  0  0  0
  -21.8130   -4.0440   23.6950 C   0  0  0  0  0  3  0  0  0  0  0  0
  -21.9080   -4.8610   22.5550 C   0  0  0  0  0  0  0  0  0  0  0  0
  -22.2750   -4.3230   21.3680 F   0  0  0  0  0  0  0  0  0  0  0  0
  -21.3150   -3.8040   26.0170 F   0  0  0  0  0  0  0  0  0  0  0  0
  -22.7490  -13.6220   21.1240 C   0  0  0  0  0  0  0  0  0  0  0  0
  -22.0080  -12.9350   21.9860 N   0  0  0  0  0  0  0  0  0  0  0  0
  -22.3180  -14.6440   20.5910 O   0  0  0  0  0  0  0  0  0  0  0  0
  -22.3650  -12.1130   22.4490 H   0  0  0  0  0  0  0  0  0  0  0  0
  -21.0680  -13.2430   22.1890 H   0  0  0  0  0  0  0  0  0  0  0  0
  -25.3830  -15.2750   20.3170 N   0  0  0  0  0  0  0  0  0  0  0  0
  -24.6080  -15.9180   20.4350 H   0  0  0  0  0  0  0  0  0  0  0  0
  -26.2250  -15.7260   19.9850 H   0  0  0  0  0  0  0  0  0  0  0  0
  -28.7360  -22.9120   21.0680 C   0  0  0  0  0  2  0  0  0  0  0  0
  -29.2490  -24.2880   20.5270 C   0  0  0  0  0  2  0  0  0  0  0  0
  -28.0760  -25.2430   20.1950 C   0  0  0  0  0  2  0  0  0  0  0  0
  -28.3450  -26.6650   20.1820 O   0  0  0  0  0  0  0  0  0  0  0  0
  -24.6010  -31.9250   23.2630 C   0  0  0  0  0  0  0  0  0  0  0  0
  -27.2070  -27.4570   20.1460 C   0  0  0  0  0  0  0  0  0  0  0  0
  -23.3880  -30.5360   21.6210 C   0  0  0  0  0  3  0  0  0  0  0  0
  -24.8310  -29.0090   20.1790 C   0  0  0  0  0  0  0  0  0  0  0  0
  -25.9240  -30.8680   21.4330 C   0  0  0  0  0  2  0  0  0  0  0  0
  -25.9970  -29.5050   20.7740 C   0  0  0  0  0  0  0  0  0  0  0  0
  -27.1880  -28.7360   20.7570 C   0  0  0  0  0  3  0  0  0  0  0  0
  -26.0180  -27.0020   19.5220 C   0  0  0  0  0  3  0  0  0  0  0  0
  -24.8380  -27.7570   19.5490 C   0  0  0  0  0  3  0  0  0  0  0  0
  -23.5970  -29.8780   20.2330 C   0  0  0  0  0  2  0  0  0  0  0  0
  -24.6550  -31.1270   22.1610 N   0  0  0  0  0  0  0  0  0  0  0  0
  -23.5230  -32.2020   23.8070 O   0  0  0  0  0  0  0  0  0  0  0  0
  -22.7390  -29.5080   22.5760 C   0  0  0  0  0  0  0  0  0  0  0  0
  -21.4140  -29.3260   22.4570 N   0  0  0  0  0  0  0  0  0  0  0  0
  -23.4240  -28.8770   23.3870 O   0  0  0  0  0  0  0  0  0  0  0  0
  -20.9220  -29.8840   21.7740 H   0  0  0  0  0  0  0  0  0  0  0  0
  -18.0410  -28.1270   22.9620 C   0  0  0  0  0  0  0  0  0  0  0  0
  -20.6000  -28.3890   23.2310 C   0  0  0  0  0  3  0  0  0  0  0  0
  -20.7050  -26.9550   22.6580 C   0  0  0  0  0  2  0  0  0  0  0  0
  -19.6010  -26.6290   21.6480 C   0  0  0  0  0  2  0  0  0  0  0  0
  -18.2190  -26.7750   22.2920 C   0  0  0  0  0  2  0  0  0  0  0  0
  -19.1600  -28.8890   23.3890 C   0  0  0  0  0  0  0  0  0  0  0  0
  -18.9390  -30.1530   23.9800 C   0  0  0  0  0  3  0  0  0  0  0  0
  -17.6340  -30.6520   24.1490 C   0  0  0  0  0  3  0  0  0  0  0  0
  -16.5300  -29.8860   23.7350 C   0  0  0  0  0  3  0  0  0  0  0  0
  -16.7350  -28.6260   23.1460 C   0  0  0  0  0  3  0  0  0  0  0  0
  -25.8920  -32.5540   23.8730 C   0  0  0  0  0  3  0  0  0  0  0  0
  -25.5910  -33.9550   24.2000 N   0  0  0  0  0  0  0  0  0  0  0  0
  -25.9180  -35.0030   23.4320 C   0  0  0  0  0  0  0  0  0  0  0  0
  -26.5770  -34.8910   22.3950 O   0  0  0  0  0  0  0  0  0  0  0  0
  -25.0060  -34.1140   25.0080 H   0  0  0  0  0  0  0  0  0  0  0  0
  -24.1860  -36.7920   23.0860 C   0  0  0  0  0  1  0  0  0  0  0  0
  -25.4340  -36.3920   23.8880 C   0  0  0  0  0  3  0  0  0  0  0  0
  -27.5770  -37.2760   24.6960 C   0  0  0  0  0  1  0  0  0  0  0  0
  -26.4670  -37.4430   23.7610 N   0  0  0  0  0  0  0  0  0  0  0  0
  -26.0640  -38.3640   23.9100 H   0  0  0  0  0  0  0  0  0  0  0  0
  -26.4120  -31.7860   25.1490 C   0  0  1  0  0  0  0  0  0  0  0  0
  -25.3220  -31.5570   26.2240 C   0  0  0  0  0  1  0  0  0  0  0  0
  -26.9920  -30.4050   24.7600 C   0  0  0  0  0  1  0  0  0  0  0  0
  -27.5680  -32.5810   25.8020 C   0  0  0  0  0  1  0  0  0  0  0  0
  2  4  1  0
  2  1  1  0
  2 50  1  0
  2  3  1  6
  5  9  1  0
  6 10  1  0
  6  5  2  0
  8  7  1  0
  8  4  1  0
  9  7  2  0
  9 20  1  0
 10  8  2  0
 11 10  1  0
 12 20  1  0
 13 18  1  0
 14 15  1  0
 14 13  1  0
 16 15  1  0
 16 25  1  0
 16 17  1  0
 18 12  1  0
 18 17  1  0
 19 12  2  0
 20 21  1  0
 22 23  2  0
 23 42  1  0
 24 23  1  0
 24 27  1  0
 25 22  1  0
 25 26  1  0
 26 24  2  0
 27 28  1  0
 28 29  2  0
 30 33  1  0
 30 29  1  0
 31 30  2  0
 32 31  1  0
 32 27  2  0
 33 34  1  0
 34 35  1  0
 35 36  2  0
 37 36  1  0
 37 41  1  0
 38 37  2  0
 39 34  2  0
 39 38  1  0
 40 39  1  0
 42 43  1  0
 43 46  1  0
 43 45  1  0
 44 42  2  0
 47 48  1  0
 47 22  1  0
 49 47  1  0
 51 50  1  0
 52 51  1  0
 53 52  1  0
 54 65  2  0
 55 53  1  0
 55 60  1  0
 56 64  1  0
 56 66  1  0
 57 63  1  0
 57 59  1  0
 58 64  1  0
 59 58  1  0
 60 59  2  0
 61 62  1  0
 61 55  2  0
 62 57  2  0
 63 56  1  0
 64 54  1  0
 66 68  2  0
 67 66  1  0
 69 67  1  0
 70 79  2  0
 70 75  1  0
 71 67  1  0
 71 75  1  0
 72 71  1  0
 73 74  1  0
 73 72  1  0
 74 70  1  0
 75 76  2  0
 76 77  1  0
 78 77  2  0
 79 78  1  0
 80 54  1  0
 80 81  1  0
 80 90  1  0
 81 84  1  0
 82 86  1  0
 82 81  1  0
 83 82  2  0
 86 85  1  0
 88 86  1  0
 88 89  1  0
 88 87  1  0
 90 93  1  1
 90 91  1  0
 92 90  1  0
M  ISO  4  12 100  20 100  52 101  53 101
M  END
>  <TORSDO>  (84) 
F 21

>  <SCORE>  (84) 
-13.541

>  <name>  (84) 
84

>  <ligand_id>  (84) 
84

>  <original_smiles>  (84) 
[H]c1c([H])c([H])c2c(c1[H])C([H])([H])C([H])([H])C([H])([H])C2([H])N([H])C(=O)C1([H])N(C(=O)C([H])(N([H])C(=O)C([H])(N([H])C([H])([H])[H])C([H])([H])[H])C(C([H])([H])[H])(C([H])([H])[H])C([H])([H])[H])C([H])([H])c2c([H])c(OC([H])([H])C([H])([H])C([H])([H])[N+]([H])(C([H])([H])[H])C([H])([H])c3c([H])c(N([H])C(=O)N4C([H])([H])C([H])([H])C([H])([H])C([H])(n5nc(-c6c([H])c([H])c(Oc7c([H])c([H])c(F)c([H])c7F)c([H])c6[H])c(C(=O)N([H])[H])c5N([H])[H])C4([H])[H])c([H])c([H])c3Cl)c([H])c([H])c2C1([H])[H]

>  <smiles>  (84) 
[H]c1c([H])c([H])c2c(c1[H])C([H])([H])C([H])([H])C([H])([H])C2([H])N([H])C(=O)C1([H])N(C(=O)C([H])(N([H])C(=O)C([H])(N([H])C([H])([H])[H])C([H])([H])[H])C(C([H])([H])[H])(C([H])([H])[H])C([H])([H])[H])C([H])([H])c2c([H])c(OC([H])([H])C([H])([H])C([H])([H])[N+]([H])(C([H])([H])[H])C([H])([H])c3c([H])c(N([H])C(=O)N4C([H])([H])C([H])([H])C([H])([H])C([H])(n5nc(-c6c([H])c([H])c(Oc7c([H])c([H])c(F)c([H])c7F)c([H])c6[H])c(C(=O)N([H])[H])c5N([H])[H])C4([H])[H])c([H])c([H])c3Cl)c([H])c([H])c2C1([H])[H]

$$$$
85:0:0
     RDKit          3D

 93102  0  0  1  0  0  0  0  0999 V2000
  -29.5270  -23.3000   21.3090 C   0  0  0  0  0  0  0  0  0  0  0  0
  -30.3240  -23.8050   19.1200 C   0  0  0  0  0  2  0  0  0  0  0  0
  -30.9630  -22.5150   19.6650 C   0  0  0  0  0  2  0  0  0  0  0  0
  -29.6390  -24.4730   20.3240 C   0  0  0  0  0  3  0  0  0  0  0  0
  -30.2890  -22.2540   20.9300 N   0  0  0  0  0  0  0  0  0  0  0  0
  -28.8800  -23.3680   22.3590 O   0  0  0  0  0  0  0  0  0  0  0  0
  -30.7790  -21.1930   21.8280 C   0  0  0  0  0  2  0  0  0  0  0  0
  -29.3740  -19.1050   21.3430 C   0  0  0  0  0  3  0  0  0  0  0  0
  -31.7840  -18.9410   21.1340 C   0  0  0  0  0  3  0  0  0  0  0  0
  -29.2670  -17.7110   21.1310 C   0  0  0  0  0  3  0  0  0  0  0  0
  -31.6780  -17.5480   20.9160 C   0  0  0  0  0  3  0  0  0  0  0  0
  -30.6380  -19.7310   21.3780 C   0  0  0  0  0  0  0  0  0  0  0  0
  -30.4150  -16.9070   20.9320 C   0  0  0  0  0  0  0  0  0  0  0  0
  -30.9140  -14.5430   20.1450 C   0  0  0  0  0  0  0  0  0  0  0  0
  -30.5840  -12.4150   18.9300 C   0  0  0  0  0  2  0  0  0  0  0  0
  -29.5680  -12.6370   17.7880 C   0  0  0  0  0  2  0  0  0  0  0  0
  -28.1200  -12.4800   18.2960 C   0  0  0  0  0  2  0  0  0  0  0  0
  -27.8510  -13.2820   19.5960 C   0  0  0  0  0  3  0  0  0  0  0  0
  -28.9640  -13.0140   20.6350 C   0  0  0  0  0  2  0  0  0  0  0  0
  -30.2570  -13.3570   20.0130 N   0  0  0  0  0  0  0  0  0  0  0  0
  -32.0020  -14.7620   19.6020 O   0  0  0  0  0  0  0  0  0  0  0  0
  -30.2190  -15.4910   20.8120 N   0  0  0  0  0  0  0  0  0  0  0  0
  -29.3410  -15.1490   21.1720 H   0  0  0  0  0  0  0  0  0  0  0  0
  -25.4960  -13.8750   20.4500 C   0  0  0  0  0  0  0  0  0  0  0  0
  -24.4470  -13.0940   20.8550 C   0  0  0  0  0  0  0  0  0  0  0  0
  -24.9010  -11.7440   20.7580 C   0  0  0  0  0  0  0  0  0  0  0  0
  -26.5240  -12.9980   20.1370 N   0  0  0  0  0  0  0  0  0  0  0  0
  -26.1730  -11.7100   20.3790 N   0  0  0  0  0  0  0  0  0  0  0  0
  -24.1830  -10.4770   20.9490 C   0  0  0  0  0  0  0  0  0  0  0  0
  -24.6240   -9.5120   21.8810 C   0  0  0  0  0  3  0  0  0  0  0  0
  -23.9070   -8.3090   22.0590 C   0  0  0  0  0  3  0  0  0  0  0  0
  -22.7340   -8.0640   21.3060 C   0  0  0  0  0  0  0  0  0  0  0  0
  -22.3130   -9.0180   20.3620 C   0  0  0  0  0  3  0  0  0  0  0  0
  -23.0300  -10.2120   20.1820 C   0  0  0  0  0  3  0  0  0  0  0  0
  -21.9880   -6.9140   21.3940 O   0  0  0  0  0  0  0  0  0  0  0  0
  -21.8940   -6.2050   22.5640 C   0  0  0  0  0  0  0  0  0  0  0  0
  -21.3820   -6.7830   23.7460 C   0  0  0  0  0  3  0  0  0  0  0  0
  -21.2390   -5.9990   24.9090 C   0  0  0  0  0  3  0  0  0  0  0  0
  -21.5950   -4.6380   24.8890 C   0  0  0  0  0  0  0  0  0  0  0  0
  -22.0980   -4.0580   23.7090 C   0  0  0  0  0  3  0  0  0  0  0  0
  -22.2440   -4.8400   22.5500 C   0  0  0  0  0  0  0  0  0  0  0  0
  -22.7100   -4.2720   21.4120 F   0  0  0  0  0  0  0  0  0  0  0  0
  -21.4490   -3.8810   26.0010 F   0  0  0  0  0  0  0  0  0  0  0  0
  -23.0680  -13.5660   21.2160 C   0  0  0  0  0  0  0  0  0  0  0  0
  -22.3850  -12.8430   22.0980 N   0  0  0  0  0  0  0  0  0  0  0  0
  -22.6060  -14.6070   20.7540 O   0  0  0  0  0  0  0  0  0  0  0  0
  -22.7730  -11.9990   22.4930 H   0  0  0  0  0  0  0  0  0  0  0  0
  -21.4620  -13.1390   22.3800 H   0  0  0  0  0  0  0  0  0  0  0  0
  -25.6570  -15.2500   20.3040 N   0  0  0  0  0  0  0  0  0  0  0  0
  -24.8960  -15.9010   20.4660 H   0  0  0  0  0  0  0  0  0  0  0  0
  -26.4800  -15.6910   19.9130 H   0  0  0  0  0  0  0  0  0  0  0  0
  -28.3150  -25.2340   20.0110 C   0  0  0  0  0  2  0  0  0  0  0  0
  -28.4410  -26.6730   20.0730 O   0  0  0  0  0  0  0  0  0  0  0  0
  -24.6180  -31.8420   23.1570 C   0  0  0  0  0  0  0  0  0  0  0  0
  -27.2650  -27.4070   20.0520 C   0  0  0  0  0  0  0  0  0  0  0  0
  -23.4080  -30.4330   21.5260 C   0  0  0  0  0  3  0  0  0  0  0  0
  -24.8590  -28.9100   20.0840 C   0  0  0  0  0  0  0  0  0  0  0  0
  -25.9290  -30.8120   21.3000 C   0  0  0  0  0  2  0  0  0  0  0  0
  -26.0210  -29.4390   20.6570 C   0  0  0  0  0  0  0  0  0  0  0  0
  -27.2270  -28.6980   20.6330 C   0  0  0  0  0  3  0  0  0  0  0  0
  -26.0780  -26.9000   19.4690 C   0  0  0  0  0  3  0  0  0  0  0  0
  -24.8820  -27.6410   19.4870 C   0  0  0  0  0  3  0  0  0  0  0  0
  -23.6090  -29.7580   20.1450 C   0  0  0  0  0  2  0  0  0  0  0  0
  -24.6710  -31.0430   22.0540 N   0  0  0  0  0  0  0  0  0  0  0  0
  -23.5390  -32.1040   23.7090 O   0  0  0  0  0  0  0  0  0  0  0  0
  -22.7740  -29.4050   22.4920 C   0  0  0  0  0  0  0  0  0  0  0  0
  -21.4510  -29.2080   22.3760 N   0  0  0  0  0  0  0  0  0  0  0  0
  -23.4700  -28.7870   23.3020 O   0  0  0  0  0  0  0  0  0  0  0  0
  -20.9490  -29.7620   21.6960 H   0  0  0  0  0  0  0  0  0  0  0  0
  -18.0970  -27.9610   22.8820 C   0  0  0  0  0  0  0  0  0  0  0  0
  -20.6500  -28.2630   23.1540 C   0  0  0  0  0  3  0  0  0  0  0  0
  -20.7760  -26.8300   22.5880 C   0  0  0  0  0  2  0  0  0  0  0  0
  -19.6800  -26.4820   21.5760 C   0  0  0  0  0  2  0  0  0  0  0  0
  -18.2950  -26.6100   22.2170 C   0  0  0  0  0  2  0  0  0  0  0  0
  -19.2030  -28.7440   23.3070 C   0  0  0  0  0  0  0  0  0  0  0  0
  -18.9620  -30.0090   23.8860 C   0  0  0  0  0  3  0  0  0  0  0  0
  -17.6490  -30.4920   24.0450 C   0  0  0  0  0  3  0  0  0  0  0  0
  -16.5580  -29.7060   23.6350 C   0  0  0  0  0  3  0  0  0  0  0  0
  -16.7830  -28.4430   23.0590 C   0  0  0  0  0  3  0  0  0  0  0  0
  -25.9030  -32.4850   23.7650 C   0  0  0  0  0  3  0  0  0  0  0  0
  -26.4580  -31.6990   25.0160 C   0  0  1  0  0  0  0  0  0  0  0  0
  -25.3890  -31.4190   26.0980 C   0  0  0  0  0  1  0  0  0  0  0  0
  -27.0590  -30.3430   24.5820 C   0  0  0  0  0  1  0  0  0  0  0  0
  -27.6030  -32.5040   25.6740 C   0  0  0  0  0  1  0  0  0  0  0  0
  -25.5790  -33.8710   24.1230 N   0  0  0  0  0  0  0  0  0  0  0  0
  -25.8960  -34.9420   23.3810 C   0  0  0  0  0  0  0  0  0  0  0  0
  -26.5610  -34.8650   22.3460 O   0  0  0  0  0  0  0  0  0  0  0  0
  -24.9860  -34.0050   24.9290 H   0  0  0  0  0  0  0  0  0  0  0  0
  -24.1510  -36.7230   23.0550 C   0  0  0  0  0  1  0  0  0  0  0  0
  -25.3920  -36.3140   23.8670 C   0  0  0  0  0  3  0  0  0  0  0  0
  -27.5120  -37.2010   24.7320 C   0  0  0  0  0  1  0  0  0  0  0  0
  -26.4150  -37.3790   23.7840 N   0  0  0  0  0  0  0  0  0  0  0  0
  -25.9990  -38.2910   23.9490 H   0  0  0  0  0  0  0  0  0  0  0  0
  1  6  2  0
  2  3  1  0
  2  4  1  0
  3  5  1  0
  4 52  1  0
  4  1  1  0
  5  1  1  0
  5  7  1  0
  8 12  1  0
  9 12  2  0
 10  8  2  0
 11 13  2  0
 11  9  1  0
 12  7  1  0
 13 10  1  0
 14 22  1  0
 15 20  1  0
 16 17  1  0
 16 15  1  0
 18 17  1  0
 18 27  1  0
 18 19  1  0
 20 14  1  0
 20 19  1  0
 21 14  2  0
 22 13  1  0
 22 23  1  0
 24 25  2  0
 25 44  1  0
 26 25  1  0
 26 29  1  0
 27 28  1  0
 27 24  1  0
 28 26  2  0
 29 30  1  0
 30 31  2  0
 32 35  1  0
 32 31  1  0
 33 32  2  0
 34 33  1  0
 34 29  2  0
 35 36  1  0
 36 37  1  0
 37 38  2  0
 39 38  1  0
 39 43  1  0
 40 39  2  0
 41 36  2  0
 41 40  1  0
 42 41  1  0
 44 45  1  0
 45 48  1  0
 45 47  1  0
 46 44  2  0
 49 24  1  0
 49 50  1  0
 51 49  1  0
 52 53  1  0
 54 65  2  0
 55 53  1  0
 55 60  1  0
 56 64  1  0
 56 66  1  0
 57 63  1  0
 57 59  1  0
 58 64  1  0
 59 58  1  0
 60 59  2  0
 61 62  1  0
 61 55  2  0
 62 57  2  0
 63 56  1  0
 64 54  1  0
 66 68  2  0
 67 66  1  0
 69 67  1  0
 70 79  2  0
 70 75  1  0
 71 67  1  0
 71 75  1  0
 72 71  1  0
 73 74  1  0
 73 72  1  0
 74 70  1  0
 75 76  2  0
 76 77  1  0
 78 77  2  0
 79 78  1  0
 80 54  1  0
 80 85  1  0
 80 81  1  0
 81 84  1  1
 81 82  1  0
 83 81  1  0
 85 88  1  0
 86 90  1  0
 86 85  1  0
 87 86  2  0
 90 89  1  0
 92 90  1  0
 92 93  1  0
 92 91  1  0
M  ISO  4  14 100  22 100  52 101  53 101
M  END
>  <TORSDO>  (85) 
F 19

>  <SCORE>  (85) 
-13.651

>  <name>  (85) 
85

>  <ligand_id>  (85) 
85

>  <original_smiles>  (85) 
[H]c1c([H])c([H])c2c(c1[H])C([H])([H])C([H])([H])C([H])([H])C2([H])N([H])C(=O)C1([H])N(C(=O)C([H])(N([H])C(=O)C([H])(N([H])C([H])([H])[H])C([H])([H])[H])C(C([H])([H])[H])(C([H])([H])[H])C([H])([H])[H])C([H])([H])c2c([H])c(OC([H])([H])C3([H])C(=O)N(C([H])([H])c4c([H])c([H])c(N([H])C(=O)N5C([H])([H])C([H])([H])C([H])([H])C([H])(n6nc(-c7c([H])c([H])c(Oc8c([H])c([H])c(F)c([H])c8F)c([H])c7[H])c(C(=O)N([H])[H])c6N([H])[H])C5([H])[H])c([H])c4[H])C([H])([H])C3([H])[H])c([H])c([H])c2C1([H])[H]

>  <smiles>  (85) 
[H]c1c([H])c([H])c2c(c1[H])C([H])([H])C([H])([H])C([H])([H])C2([H])N([H])C(=O)C1([H])N(C(=O)C([H])(N([H])C(=O)C([H])(N([H])C([H])([H])[H])C([H])([H])[H])C(C([H])([H])[H])(C([H])([H])[H])C([H])([H])[H])C([H])([H])c2c([H])c(OC([H])([H])C3([H])C(=O)N(C([H])([H])c4c([H])c([H])c(N([H])C(=O)N5C([H])([H])C([H])([H])C([H])([H])C([H])(n6nc(-c7c([H])c([H])c(Oc8c([H])c([H])c(F)c([H])c8F)c([H])c7[H])c(C(=O)N([H])[H])c6N([H])[H])C5([H])[H])c([H])c4[H])C([H])([H])C3([H])[H])c([H])c([H])c2C1([H])[H]

$$$$
86:0:0
     RDKit          3D

 91100  0  0  1  0  0  0  0  0999 V2000
  -27.2060  -23.4930   20.6470 C   0  0  0  0  0  2  0  0  0  0  0  0
  -27.4490  -22.0480   21.1350 C   0  0  0  0  0  2  0  0  0  0  0  0
  -29.3990  -22.8000   19.9780 C   0  0  0  0  0  2  0  0  0  0  0  0
  -28.5920  -24.0950   20.4080 C   0  0  0  0  0  3  0  0  0  0  0  0
  -28.6940  -21.5990   20.5070 N   0  0  0  0  0  0  0  0  0  0  0  0
  -28.2290  -19.1550   20.8710 C   0  0  0  0  0  3  0  0  0  0  0  0
  -30.3800  -19.7750   20.0250 C   0  0  0  0  0  3  0  0  0  0  0  0
  -28.5740  -17.7730   20.7710 C   0  0  0  0  0  3  0  0  0  0  0  0
  -30.7310  -18.3890   19.9270 C   0  0  0  0  0  3  0  0  0  0  0  0
  -29.1010  -20.2090   20.4710 C   0  0  0  0  0  0  0  0  0  0  0  0
  -29.8300  -17.3390   20.2700 C   0  0  0  0  0  0  0  0  0  0  0  0
  -30.8080  -14.9280   20.2420 C   0  0  0  0  0  0  0  0  0  0  0  0
  -30.7000  -12.6000   19.3780 C   0  0  0  0  0  2  0  0  0  0  0  0
  -29.7730  -12.5360   18.1420 C   0  0  0  0  0  2  0  0  0  0  0  0
  -28.2760  -12.4810   18.5230 C   0  0  0  0  0  2  0  0  0  0  0  0
  -27.8770  -13.3780   19.7300 C   0  0  0  0  0  3  0  0  0  0  0  0
  -28.9290  -13.3560   20.8570 C   0  0  0  0  0  2  0  0  0  0  0  0
  -30.2190  -13.6890   20.2470 N   0  0  0  0  0  0  0  0  0  0  0  0
  -32.0330  -15.0270   20.1220 O   0  0  0  0  0  0  0  0  0  0  0  0
  -29.8270  -15.9450   18.3060 C   0  0  0  0  0  1  0  0  0  0  0  0
  -30.0000  -15.9640   19.7710 N   0  0  0  0  0  0  0  0  0  0  0  0
  -25.4890  -13.9700   20.4240 C   0  0  0  0  0  0  0  0  0  0  0  0
  -24.4240  -13.1920   20.7930 C   0  0  0  0  0  0  0  0  0  0  0  0
  -24.8950  -11.8440   20.7730 C   0  0  0  0  0  0  0  0  0  0  0  0
  -26.5370  -13.0880   20.2130 N   0  0  0  0  0  0  0  0  0  0  0  0
  -26.1900  -11.8060   20.4850 N   0  0  0  0  0  0  0  0  0  0  0  0
  -24.1760  -10.5780   20.9520 C   0  0  0  0  0  0  0  0  0  0  0  0
  -24.5710   -9.6380   21.9280 C   0  0  0  0  0  3  0  0  0  0  0  0
  -23.8500   -8.4360   22.0930 C   0  0  0  0  0  3  0  0  0  0  0  0
  -22.7240   -8.1670   21.2790 C   0  0  0  0  0  0  0  0  0  0  0  0
  -22.3530   -9.0950   20.2900 C   0  0  0  0  0  3  0  0  0  0  0  0
  -23.0740  -10.2880   20.1230 C   0  0  0  0  0  3  0  0  0  0  0  0
  -21.9810   -7.0140   21.3520 O   0  0  0  0  0  0  0  0  0  0  0  0
  -21.8150   -6.3390   22.5340 C   0  0  0  0  0  0  0  0  0  0  0  0
  -21.2280   -6.9490   23.6650 C   0  0  0  0  0  3  0  0  0  0  0  0
  -21.0140   -6.1980   24.8380 C   0  0  0  0  0  3  0  0  0  0  0  0
  -21.3800   -4.8390   24.8810 C   0  0  0  0  0  0  0  0  0  0  0  0
  -21.9620   -4.2300   23.7550 C   0  0  0  0  0  3  0  0  0  0  0  0
  -22.1750   -4.9770   22.5830 C   0  0  0  0  0  0  0  0  0  0  0  0
  -22.7170   -4.3810   21.4950 F   0  0  0  0  0  0  0  0  0  0  0  0
  -21.1680   -4.1140   26.0040 F   0  0  0  0  0  0  0  0  0  0  0  0
  -23.0230  -13.6630   21.0440 C   0  0  0  0  0  0  0  0  0  0  0  0
  -22.2950  -12.9660   21.9100 N   0  0  0  0  0  0  0  0  0  0  0  0
  -22.5840  -14.6800   20.5140 O   0  0  0  0  0  0  0  0  0  0  0  0
  -22.6660  -12.1380   22.3530 H   0  0  0  0  0  0  0  0  0  0  0  0
  -21.3540  -13.2600   22.1300 H   0  0  0  0  0  0  0  0  0  0  0  0
  -25.6460  -15.3350   20.2140 N   0  0  0  0  0  0  0  0  0  0  0  0
  -24.8540  -15.9690   20.2120 H   0  0  0  0  0  0  0  0  0  0  0  0
  -26.4350  -15.6930   19.6880 H   0  0  0  0  0  0  0  0  0  0  0  0
  -28.6060  -25.3730   19.4520 C   0  0  0  0  0  2  0  0  0  0  0  0
  -28.4500  -26.7190   20.0230 O   0  0  0  0  0  0  0  0  0  0  0  0
  -24.5960  -31.8950   23.1410 C   0  0  0  0  0  0  0  0  0  0  0  0
  -27.2680  -27.4630   19.9790 C   0  0  0  0  0  0  0  0  0  0  0  0
  -23.3960  -30.5030   21.4860 C   0  0  0  0  0  3  0  0  0  0  0  0
  -24.8580  -28.9960   20.0210 C   0  0  0  0  0  0  0  0  0  0  0  0
  -25.9210  -30.8760   21.2800 C   0  0  0  0  0  2  0  0  0  0  0  0
  -26.0180  -29.5100   20.6110 C   0  0  0  0  0  0  0  0  0  0  0  0
  -27.2200  -28.7530   20.5840 C   0  0  0  0  0  3  0  0  0  0  0  0
  -26.0830  -26.9790   19.3830 C   0  0  0  0  0  3  0  0  0  0  0  0
  -24.8930  -27.7320   19.4020 C   0  0  0  0  0  3  0  0  0  0  0  0
  -23.6020  -29.8420   20.0960 C   0  0  0  0  0  2  0  0  0  0  0  0
  -24.6560  -31.1090   22.0260 N   0  0  0  0  0  0  0  0  0  0  0  0
  -23.5160  -32.1450   23.6930 O   0  0  0  0  0  0  0  0  0  0  0  0
  -22.7670  -29.4630   22.4410 C   0  0  0  0  0  0  0  0  0  0  0  0
  -21.4420  -29.2700   22.3300 N   0  0  0  0  0  0  0  0  0  0  0  0
  -23.4670  -28.8320   23.2370 O   0  0  0  0  0  0  0  0  0  0  0  0
  -20.9400  -29.8280   21.6520 H   0  0  0  0  0  0  0  0  0  0  0  0
  -18.0860  -28.0230   22.8650 C   0  0  0  0  0  0  0  0  0  0  0  0
  -20.6440  -28.3070   23.0940 C   0  0  0  0  0  3  0  0  0  0  0  0
  -20.7540  -26.8880   22.4890 C   0  0  0  0  0  2  0  0  0  0  0  0
  -19.6370  -26.5750   21.4880 C   0  0  0  0  0  2  0  0  0  0  0  0
  -18.2640  -26.6920   22.1560 C   0  0  0  0  0  2  0  0  0  0  0  0
  -19.2030  -28.7890   23.2900 C   0  0  0  0  0  0  0  0  0  0  0  0
  -18.9830  -30.0370   23.9120 C   0  0  0  0  0  3  0  0  0  0  0  0
  -17.6770  -30.5190   24.1140 C   0  0  0  0  0  3  0  0  0  0  0  0
  -16.5730  -29.7520   23.7050 C   0  0  0  0  0  3  0  0  0  0  0  0
  -16.7790  -28.5040   23.0890 C   0  0  0  0  0  3  0  0  0  0  0  0
  -25.8770  -32.5370   23.7590 C   0  0  0  0  0  3  0  0  0  0  0  0
  -25.5480  -33.9200   24.1350 N   0  0  0  0  0  0  0  0  0  0  0  0
  -25.8450  -35.0020   23.4030 C   0  0  0  0  0  0  0  0  0  0  0  0
  -26.5000  -34.9400   22.3580 O   0  0  0  0  0  0  0  0  0  0  0  0
  -24.9790  -34.0400   24.9600 H   0  0  0  0  0  0  0  0  0  0  0  0
  -24.0880  -36.7780   23.1040 C   0  0  0  0  0  1  0  0  0  0  0  0
  -25.3330  -36.3670   23.9050 C   0  0  0  0  0  3  0  0  0  0  0  0
  -27.4490  -37.2580   24.7770 C   0  0  0  0  0  1  0  0  0  0  0  0
  -26.3490  -37.4410   23.8310 N   0  0  0  0  0  0  0  0  0  0  0  0
  -25.9310  -38.3490   24.0090 H   0  0  0  0  0  0  0  0  0  0  0  0
  -26.4350  -31.7410   25.0050 C   0  0  1  0  0  0  0  0  0  0  0  0
  -25.3680  -31.4530   26.0840 C   0  0  0  0  0  1  0  0  0  0  0  0
  -27.0440  -30.3890   24.5660 C   0  0  0  0  0  1  0  0  0  0  0  0
  -27.5820  -32.5430   25.6620 C   0  0  0  0  0  1  0  0  0  0  0  0
  1  2  1  0
  3  4  1  0
  3  5  1  0
  4 50  1  0
  4  1  1  0
  5  2  1  0
  7 10  1  0
  8  6  1  0
  9  7  2  0
  9 11  1  0
 10  5  1  0
 10  6  2  0
 11  8  2  0
 12 18  1  0
 13 18  1  0
 14 15  1  0
 14 13  1  0
 16 15  1  0
 16 25  1  0
 16 17  1  0
 18 17  1  0
 19 12  2  0
 20 21  1  0
 21 12  1  0
 21 11  1  0
 22 23  2  0
 23 42  1  0
 24 23  1  0
 24 27  1  0
 25 22  1  0
 25 26  1  0
 26 24  2  0
 27 28  1  0
 28 29  2  0
 30 33  1  0
 30 29  1  0
 31 30  2  0
 32 31  1  0
 32 27  2  0
 33 34  1  0
 34 39  2  0
 34 35  1  0
 35 36  2  0
 36 37  1  0
 37 41  1  0
 38 37  2  0
 39 38  1  0
 40 39  1  0
 42 43  1  0
 43 46  1  0
 43 45  1  0
 44 42  2  0
 47 22  1  0
 48 47  1  0
 49 47  1  0
 50 51  1  0
 52 63  2  0
 53 51  1  0
 53 58  1  0
 54 62  1  0
 54 64  1  0
 55 61  1  0
 55 57  1  0
 56 62  1  0
 57 56  1  0
 58 57  2  0
 59 60  1  0
 59 53  2  0
 60 55  2  0
 61 54  1  0
 62 52  1  0
 64 66  2  0
 65 64  1  0
 67 65  1  0
 68 77  2  0
 68 73  1  0
 69 65  1  0
 69 73  1  0
 70 69  1  0
 71 72  1  0
 71 70  1  0
 72 68  1  0
 73 74  2  0
 74 75  1  0
 76 75  2  0
 77 76  1  0
 78 52  1  0
 78 79  1  0
 78 88  1  0
 79 82  1  0
 80 84  1  0
 80 79  1  0
 81 80  2  0
 84 83  1  0
 86 84  1  0
 86 87  1  0
 86 85  1  0
 88 91  1  1
 88 89  1  0
 90 88  1  0
M  ISO  4  12 100  21 100  50 101  51 101
M  END
>  <TORSDO>  (86) 
F 18

>  <SCORE>  (86) 
-13.403

>  <name>  (86) 
86

>  <ligand_id>  (86) 
86

>  <original_smiles>  (86) 
[H]c1c([H])c([H])c2c(c1[H])C([H])([H])C([H])([H])C([H])([H])C2([H])N([H])C(=O)C1([H])N(C(=O)C([H])(N([H])C(=O)C([H])(N([H])C([H])([H])[H])C([H])([H])[H])C(C([H])([H])[H])(C([H])([H])[H])C([H])([H])[H])C([H])([H])c2c([H])c(OC([H])([H])C3([H])C([H])([H])N(c4c([H])c([H])c(N(C(=O)N5C([H])([H])C([H])([H])C([H])([H])C([H])(n6nc(-c7c([H])c([H])c(Oc8c([H])c([H])c(F)c([H])c8F)c([H])c7[H])c(C(=O)N([H])[H])c6N([H])[H])C5([H])[H])C([H])([H])[H])c([H])c4[H])C([H])([H])C3([H])[H])c([H])c([H])c2C1([H])[H]

>  <smiles>  (86) 
[H]c1c([H])c([H])c2c(c1[H])C([H])([H])C([H])([H])C([H])([H])C2([H])N([H])C(=O)C1([H])N(C(=O)C([H])(N([H])C(=O)C([H])(N([H])C([H])([H])[H])C([H])([H])[H])C(C([H])([H])[H])(C([H])([H])[H])C([H])([H])[H])C([H])([H])c2c([H])c(OC([H])([H])C3([H])C([H])([H])N(c4c([H])c([H])c(N(C(=O)N5C([H])([H])C([H])([H])C([H])([H])C([H])(n6nc(-c7c([H])c([H])c(Oc8c([H])c([H])c(F)c([H])c8F)c([H])c7[H])c(C(=O)N([H])[H])c6N([H])[H])C5([H])[H])C([H])([H])[H])c([H])c4[H])C([H])([H])C3([H])[H])c([H])c([H])c2C1([H])[H]

$$$$
87:0:0
     RDKit          3D

 95103  0  0  1  0  0  0  0  0999 V2000
  -29.1550  -21.7040   20.7750 C   0  0  0  0  0  3  0  0  0  0  0  0
  -30.7940  -19.6230   20.2290 C   0  0  0  0  0  3  0  0  0  0  0  0
  -31.0370  -18.2000   20.1930 C   0  0  0  0  0  3  0  0  0  0  0  0
  -28.4720  -19.2160   20.6640 C   0  0  0  0  0  3  0  0  0  0  0  0
  -29.5010  -20.1770   20.4880 C   0  0  0  0  0  0  0  0  0  0  0  0
  -29.9890  -17.2580   20.4270 C   0  0  0  0  0  0  0  0  0  0  0  0
  -28.7080  -17.8180   20.6420 C   0  0  0  0  0  0  0  0  0  0  0  0
  -27.6710  -16.9740   20.8620 F   0  0  0  0  0  0  0  0  0  0  0  0
  -30.8650  -14.7900   20.0580 C   0  0  0  0  0  0  0  0  0  0  0  0
  -30.6450  -12.5650   18.9510 C   0  0  0  0  0  2  0  0  0  0  0  0
  -29.6560  -12.7200   17.7730 C   0  0  0  0  0  2  0  0  0  0  0  0
  -28.1960  -12.5540   18.2460 C   0  0  0  0  0  2  0  0  0  0  0  0
  -27.8820  -13.3820   19.5210 C   0  0  0  0  0  3  0  0  0  0  0  0
  -28.9800  -13.1840   20.5930 C   0  0  0  0  0  2  0  0  0  0  0  0
  -30.2720  -13.5520   19.9830 N   0  0  0  0  0  0  0  0  0  0  0  0
  -32.0070  -14.9840   19.6320 O   0  0  0  0  0  0  0  0  0  0  0  0
  -30.0400  -15.7930   20.4920 N   0  0  0  0  0  0  0  0  0  0  0  0
  -29.1740  -15.4150   20.8460 H   0  0  0  0  0  0  0  0  0  0  0  0
  -25.5070  -13.9710   20.3100 C   0  0  0  0  0  0  0  0  0  0  0  0
  -24.4510  -13.1940   20.7000 C   0  0  0  0  0  0  0  0  0  0  0  0
  -24.9140  -11.8440   20.6460 C   0  0  0  0  0  0  0  0  0  0  0  0
  -26.5490  -13.0950   20.0430 N   0  0  0  0  0  0  0  0  0  0  0  0
  -26.1970  -11.8100   20.3040 N   0  0  0  0  0  0  0  0  0  0  0  0
  -24.1940  -10.5800   20.8450 C   0  0  0  0  0  0  0  0  0  0  0  0
  -24.5930   -9.6520   21.8320 C   0  0  0  0  0  3  0  0  0  0  0  0
  -23.8740   -8.4510   22.0160 C   0  0  0  0  0  3  0  0  0  0  0  0
  -22.7410   -8.1710   21.2140 C   0  0  0  0  0  0  0  0  0  0  0  0
  -22.3640   -9.0890   20.2170 C   0  0  0  0  0  3  0  0  0  0  0  0
  -23.0840  -10.2810   20.0320 C   0  0  0  0  0  3  0  0  0  0  0  0
  -21.9970   -7.0210   21.3050 O   0  0  0  0  0  0  0  0  0  0  0  0
  -21.8170   -6.3730   22.4990 C   0  0  0  0  0  0  0  0  0  0  0  0
  -21.2150   -7.0070   23.6080 C   0  0  0  0  0  3  0  0  0  0  0  0
  -20.9860   -6.2830   24.7950 C   0  0  0  0  0  3  0  0  0  0  0  0
  -21.3480   -4.9250   24.8730 C   0  0  0  0  0  0  0  0  0  0  0  0
  -21.9420   -4.2900   23.7690 C   0  0  0  0  0  3  0  0  0  0  0  0
  -22.1740   -5.0120   22.5840 C   0  0  0  0  0  0  0  0  0  0  0  0
  -22.7260   -4.3890   21.5160 F   0  0  0  0  0  0  0  0  0  0  0  0
  -21.1210   -4.2260   26.0090 F   0  0  0  0  0  0  0  0  0  0  0  0
  -23.0620  -13.6680   21.0170 C   0  0  0  0  0  0  0  0  0  0  0  0
  -22.3590  -12.9630   21.8960 N   0  0  0  0  0  0  0  0  0  0  0  0
  -22.6100  -14.7000   20.5230 O   0  0  0  0  0  0  0  0  0  0  0  0
  -22.7380  -12.1290   22.3210 H   0  0  0  0  0  0  0  0  0  0  0  0
  -21.4270  -13.2600   22.1490 H   0  0  0  0  0  0  0  0  0  0  0  0
  -25.6580  -15.3430   20.1430 N   0  0  0  0  0  0  0  0  0  0  0  0
  -24.9010  -15.9880   20.3370 H   0  0  0  0  0  0  0  0  0  0  0  0
  -26.5410  -15.8140   19.9840 H   0  0  0  0  0  0  0  0  0  0  0  0
  -29.7160  -22.0940   22.1740 C   0  0  1  0  0  0  0  0  0  0  0  0
  -29.4150  -21.1700   23.0870 F   0  0  0  0  0  0  0  0  0  0  0  0
  -31.0430  -22.2190   22.1090 F   0  0  0  0  0  0  0  0  0  0  0  0
  -29.2080  -23.2530   22.5880 F   0  0  0  0  0  0  0  0  0  0  0  0
  -29.5400  -22.7780   19.8020 N   0  0  0  0  0  0  0  0  0  0  0  0
  -30.3970  -23.1650   20.1850 H   0  0  0  0  0  0  0  0  0  0  0  0
  -28.6310  -23.9560   19.5160 C   0  0  0  0  0  2  0  0  0  0  0  0
  -28.5240  -25.2330   20.4770 C   0  0  0  0  0  2  0  0  0  0  0  0
  -28.4590  -26.6030   19.9090 O   0  0  0  0  0  0  0  0  0  0  0  0
  -24.6730  -31.8320   23.1780 C   0  0  0  0  0  0  0  0  0  0  0  0
  -27.2960  -27.3770   19.9890 C   0  0  0  0  0  0  0  0  0  0  0  0
  -23.4570  -30.4530   21.5260 C   0  0  0  0  0  3  0  0  0  0  0  0
  -24.9000  -28.9390   20.0530 C   0  0  0  0  0  0  0  0  0  0  0  0
  -25.9840  -30.8130   21.2980 C   0  0  0  0  0  2  0  0  0  0  0  0
  -26.0710  -29.4440   20.6310 C   0  0  0  0  0  0  0  0  0  0  0  0
  -27.2730  -28.6780   20.5820 C   0  0  0  0  0  3  0  0  0  0  0  0
  -26.0990  -26.9080   19.4090 C   0  0  0  0  0  3  0  0  0  0  0  0
  -24.9140  -27.6760   19.4330 C   0  0  0  0  0  3  0  0  0  0  0  0
  -23.6550  -29.8010   20.1300 C   0  0  0  0  0  2  0  0  0  0  0  0
  -24.7240  -31.0490   22.0580 N   0  0  0  0  0  0  0  0  0  0  0  0
  -23.5980  -32.0820   23.7400 O   0  0  0  0  0  0  0  0  0  0  0  0
  -22.8210  -29.4130   22.4790 C   0  0  0  0  0  0  0  0  0  0  0  0
  -21.4950  -29.2240   22.3740 N   0  0  0  0  0  0  0  0  0  0  0  0
  -23.5210  -28.7790   23.2730 O   0  0  0  0  0  0  0  0  0  0  0  0
  -20.9860  -29.7900   21.7110 H   0  0  0  0  0  0  0  0  0  0  0  0
  -18.1430  -27.9750   22.9070 C   0  0  0  0  0  0  0  0  0  0  0  0
  -20.7020  -28.2610   23.1410 C   0  0  0  0  0  3  0  0  0  0  0  0
  -20.8130  -26.8420   22.5370 C   0  0  0  0  0  2  0  0  0  0  0  0
  -19.6990  -26.5240   21.5340 C   0  0  0  0  0  2  0  0  0  0  0  0
  -18.3250  -26.6420   22.2010 C   0  0  0  0  0  2  0  0  0  0  0  0
  -19.2600  -28.7420   23.3340 C   0  0  0  0  0  0  0  0  0  0  0  0
  -19.0340  -29.9910   23.9520 C   0  0  0  0  0  3  0  0  0  0  0  0
  -17.7250  -30.4720   24.1480 C   0  0  0  0  0  3  0  0  0  0  0  0
  -16.6230  -29.7020   23.7370 C   0  0  0  0  0  3  0  0  0  0  0  0
  -16.8350  -28.4550   23.1210 C   0  0  0  0  0  3  0  0  0  0  0  0
  -25.9600  -32.4650   23.7900 C   0  0  0  0  0  3  0  0  0  0  0  0
  -25.6460  -33.8560   24.1520 N   0  0  0  0  0  0  0  0  0  0  0  0
  -25.9610  -34.9250   23.4080 C   0  0  0  0  0  0  0  0  0  0  0  0
  -26.6160  -34.8450   22.3660 O   0  0  0  0  0  0  0  0  0  0  0  0
  -25.0670  -33.9910   24.9670 H   0  0  0  0  0  0  0  0  0  0  0  0
  -24.2210  -36.7150   23.1080 C   0  0  0  0  0  1  0  0  0  0  0  0
  -25.4710  -36.3000   23.8990 C   0  0  0  0  0  3  0  0  0  0  0  0
  -27.6070  -37.1820   24.7330 C   0  0  0  0  0  1  0  0  0  0  0  0
  -26.4980  -37.3610   23.7990 N   0  0  0  0  0  0  0  0  0  0  0  0
  -26.0870  -38.2750   23.9680 H   0  0  0  0  0  0  0  0  0  0  0  0
  -26.5070  -31.6770   25.0450 C   0  0  1  0  0  0  0  0  0  0  0  0
  -25.4360  -31.4100   26.1270 C   0  0  0  0  0  1  0  0  0  0  0  0
  -27.0950  -30.3130   24.6160 C   0  0  0  0  0  1  0  0  0  0  0  0
  -27.6600  -32.4700   25.7020 C   0  0  0  0  0  1  0  0  0  0  0  0
  1 51  1  0
  1 47  1  0
  2  5  1  0
  3  2  2  0
  3  6  1  0
  5  4  2  0
  5  1  1  0
  6 17  1  0
  6  7  2  0
  7  4  1  0
  7  8  1  0
  9 17  1  0
 10 15  1  0
 11 12  1  0
 11 10  1  0
 13 12  1  0
 13 22  1  0
 13 14  1  0
 15  9  1  0
 15 14  1  0
 16  9  2  0
 17 18  1  0
 19 20  2  0
 20 39  1  0
 21 20  1  0
 21 24  1  0
 22 23  1  0
 22 19  1  0
 23 21  2  0
 24 25  1  0
 25 26  2  0
 27 30  1  0
 27 26  1  0
 28 27  2  0
 29 28  1  0
 29 24  2  0
 30 31  1  0
 31 36  2  0
 31 32  1  0
 32 33  2  0
 33 34  1  0
 34 38  1  0
 35 34  2  0
 36 35  1  0
 37 36  1  0
 39 40  1  0
 40 43  1  0
 40 42  1  0
 41 39  2  0
 44 19  1  0
 44 45  1  0
 46 44  1  0
 47 50  1  1
 47 48  1  0
 49 47  1  0
 51 52  1  0
 53 51  1  0
 53 54  1  0
 55 57  1  0
 55 54  1  0
 56 67  2  0
 57 62  1  0
 58 66  1  0
 58 68  1  0
 59 65  1  0
 59 61  1  0
 60 66  1  0
 61 60  1  0
 62 61  2  0
 63 64  1  0
 63 57  2  0
 64 59  2  0
 65 58  1  0
 66 56  1  0
 68 70  2  0
 69 68  1  0
 71 69  1  0
 72 81  2  0
 72 77  1  0
 73 69  1  0
 73 77  1  0
 74 73  1  0
 75 76  1  0
 75 74  1  0
 76 72  1  0
 77 78  2  0
 78 79  1  0
 80 79  2  0
 81 80  1  0
 82 56  1  0
 82 83  1  0
 82 92  1  0
 83 86  1  0
 84 88  1  0
 84 83  1  0
 85 84  2  0
 88 87  1  0
 90 88  1  0
 90 91  1  0
 90 89  1  0
 92 95  1  1
 92 93  1  0
 94 92  1  0
M  ISO  4   9 100  17 100  54 101  55 101
M  END
>  <TORSDO>  (87) 
F 21

>  <SCORE>  (87) 
-13.302

>  <name>  (87) 
87

>  <ligand_id>  (87) 
87

>  <original_smiles>  (87) 
[H]c1c([H])c([H])c2c(c1[H])C([H])([H])C([H])([H])C([H])([H])C2([H])N([H])C(=O)C1([H])N(C(=O)C([H])(N([H])C(=O)C([H])(N([H])C([H])([H])[H])C([H])([H])[H])C(C([H])([H])[H])(C([H])([H])[H])C([H])([H])[H])C([H])([H])c2c([H])c(OC([H])([H])C([H])([H])N([H])C([H])(c3c([H])c([H])c(N([H])C(=O)N4C([H])([H])C([H])([H])C([H])([H])C([H])(n5nc(-c6c([H])c([H])c(Oc7c([H])c([H])c(F)c([H])c7F)c([H])c6[H])c(C(=O)N([H])[H])c5N([H])[H])C4([H])[H])c(F)c3[H])C(F)(F)F)c([H])c([H])c2C1([H])[H]

>  <smiles>  (87) 
[H]c1c([H])c([H])c2c(c1[H])C([H])([H])C([H])([H])C([H])([H])C2([H])N([H])C(=O)C1([H])N(C(=O)C([H])(N([H])C(=O)C([H])(N([H])C([H])([H])[H])C([H])([H])[H])C(C([H])([H])[H])(C([H])([H])[H])C([H])([H])[H])C([H])([H])c2c([H])c(OC([H])([H])C([H])([H])N([H])C([H])(c3c([H])c([H])c(N([H])C(=O)N4C([H])([H])C([H])([H])C([H])([H])C([H])(n5nc(-c6c([H])c([H])c(Oc7c([H])c([H])c(F)c([H])c7F)c([H])c6[H])c(C(=O)N([H])[H])c5N([H])[H])C4([H])[H])c(F)c3[H])C(F)(F)F)c([H])c([H])c2C1([H])[H]

$$$$
88:0:0
     RDKit          3D

 93101  0  0  1  0  0  0  0  0999 V2000
  -28.8120  -20.8220   20.3370 C   0  0  0  0  0  3  0  0  0  0  0  0
  -29.3370  -21.9770   19.8590 C   0  0  0  0  0  3  0  0  0  0  0  0
  -30.3040  -19.0320   19.3010 C   0  0  0  0  0  3  0  0  0  0  0  0
  -30.7540  -17.6890   19.2280 C   0  0  0  0  0  3  0  0  0  0  0  0
  -29.3440  -17.1320   21.1220 C   0  0  0  0  0  3  0  0  0  0  0  0
  -29.3460  -19.4350   20.2640 C   0  0  0  0  0  0  0  0  0  0  0  0
  -28.8990  -18.4660   21.2020 C   0  0  0  0  0  0  0  0  0  0  0  0
  -30.2600  -16.7190   20.1360 C   0  0  0  0  0  0  0  0  0  0  0  0
  -27.9290  -18.8220   22.3190 C   0  0  0  0  0  1  0  0  0  0  0  0
  -30.9260  -14.5310   19.1030 C   0  0  0  0  0  0  0  0  0  0  0  0
  -30.3470  -12.4430   17.9160 C   0  0  0  0  0  2  0  0  0  0  0  0
  -29.1480  -12.7060   16.9800 C   0  0  0  0  0  2  0  0  0  0  0  0
  -27.8120  -12.5510   17.7340 C   0  0  0  0  0  2  0  0  0  0  0  0
  -27.7920  -13.3340   19.0730 C   0  0  0  0  0  3  0  0  0  0  0  0
  -29.0640  -13.0270   19.8930 C   0  0  0  0  0  2  0  0  0  0  0  0
  -30.2430  -13.3550   19.0650 N   0  0  0  0  0  0  0  0  0  0  0  0
  -31.8060  -14.8290   18.2890 O   0  0  0  0  0  0  0  0  0  0  0  0
  -30.5870  -15.3290   20.1300 N   0  0  0  0  0  0  0  0  0  0  0  0
  -30.1230  -14.8090   20.8580 H   0  0  0  0  0  0  0  0  0  0  0  0
  -25.7130  -13.9410   20.4690 C   0  0  0  0  0  0  0  0  0  0  0  0
  -24.6980  -13.1750   20.9780 C   0  0  0  0  0  0  0  0  0  0  0  0
  -25.0010  -11.8270   20.6130 C   0  0  0  0  0  0  0  0  0  0  0  0
  -26.5750  -13.0590   19.8350 N   0  0  0  0  0  0  0  0  0  0  0  0
  -26.1620  -11.7740   19.9740 N   0  0  0  0  0  0  0  0  0  0  0  0
  -24.2270  -10.5910   20.7860 C   0  0  0  0  0  0  0  0  0  0  0  0
  -24.7040   -9.5240   21.5780 C   0  0  0  0  0  3  0  0  0  0  0  0
  -23.9310   -8.3540   21.7410 C   0  0  0  0  0  3  0  0  0  0  0  0
  -22.6680   -8.2430   21.1120 C   0  0  0  0  0  0  0  0  0  0  0  0
  -22.2090   -9.2990   20.3050 C   0  0  0  0  0  3  0  0  0  0  0  0
  -22.9810  -10.4610   20.1390 C   0  0  0  0  0  3  0  0  0  0  0  0
  -21.8610   -7.1340   21.1940 O   0  0  0  0  0  0  0  0  0  0  0  0
  -21.7540   -6.4050   22.3510 C   0  0  0  0  0  0  0  0  0  0  0  0
  -21.3300   -6.9890   23.5640 C   0  0  0  0  0  3  0  0  0  0  0  0
  -21.1670   -6.1870   24.7120 C   0  0  0  0  0  3  0  0  0  0  0  0
  -21.4210   -4.8030   24.6470 C   0  0  0  0  0  0  0  0  0  0  0  0
  -21.8410   -4.2210   23.4390 C   0  0  0  0  0  3  0  0  0  0  0  0
  -22.0050   -5.0190   22.2940 C   0  0  0  0  0  0  0  0  0  0  0  0
  -22.3890   -4.4470   21.1270 F   0  0  0  0  0  0  0  0  0  0  0  0
  -21.2580   -4.0330   25.7480 F   0  0  0  0  0  0  0  0  0  0  0  0
  -23.4670  -13.6690   21.6830 C   0  0  0  0  0  0  0  0  0  0  0  0
  -22.9340  -12.8810   22.6100 N   0  0  0  0  0  0  0  0  0  0  0  0
  -23.0000  -14.7830   21.4490 O   0  0  0  0  0  0  0  0  0  0  0  0
  -23.3300  -11.9750   22.8130 H   0  0  0  0  0  0  0  0  0  0  0  0
  -22.1220  -13.1880   23.1270 H   0  0  0  0  0  0  0  0  0  0  0  0
  -25.9670  -15.3080   20.4770 N   0  0  0  0  0  0  0  0  0  0  0  0
  -25.3370  -15.9800   20.9010 H   0  0  0  0  0  0  0  0  0  0  0  0
  -26.7640  -15.7420   20.0260 H   0  0  0  0  0  0  0  0  0  0  0  0
  -29.4370  -24.4000   19.9620 C   0  0  0  0  0  0  0  0  0  0  0  0
  -27.2580  -23.2760   20.2320 C   0  0  0  0  0  1  0  0  0  0  0  0
  -28.7060  -23.2460   19.9750 N   0  0  0  0  0  0  0  0  0  0  0  0
  -30.5710  -24.4580   19.4670 O   0  0  0  0  0  0  0  0  0  0  0  0
  -28.9020  -25.6670   20.6880 C   0  0  0  0  0  2  0  0  0  0  0  0
  -28.8960  -26.8260   19.8370 O   0  0  0  0  0  0  0  0  0  0  0  0
  -24.6490  -31.5900   23.0240 C   0  0  0  0  0  0  0  0  0  0  0  0
  -27.6960  -27.4970   19.8390 C   0  0  0  0  0  0  0  0  0  0  0  0
  -23.5940  -30.1820   21.2830 C   0  0  0  0  0  3  0  0  0  0  0  0
  -25.2000  -28.8160   19.8420 C   0  0  0  0  0  0  0  0  0  0  0  0
  -26.0940  -30.7270   21.1870 C   0  0  0  0  0  2  0  0  0  0  0  0
  -26.2990  -29.3980   20.4890 C   0  0  0  0  0  0  0  0  0  0  0  0
  -27.5530  -28.7460   20.4850 C   0  0  0  0  0  3  0  0  0  0  0  0
  -26.5860  -26.9260   19.1860 C   0  0  0  0  0  3  0  0  0  0  0  0
  -25.3380  -27.5780   19.1900 C   0  0  0  0  0  3  0  0  0  0  0  0
  -23.8950  -29.5810   19.8840 C   0  0  0  0  0  2  0  0  0  0  0  0
  -24.7940  -30.8460   21.8900 N   0  0  0  0  0  0  0  0  0  0  0  0
  -23.5360  -31.7630   23.5400 O   0  0  0  0  0  0  0  0  0  0  0  0
  -22.9880  -29.0760   22.1760 C   0  0  0  0  0  0  0  0  0  0  0  0
  -21.6820  -28.8180   22.0060 N   0  0  0  0  0  0  0  0  0  0  0  0
  -23.6910  -28.4570   22.9790 O   0  0  0  0  0  0  0  0  0  0  0  0
  -21.1750  -29.3660   21.3240 H   0  0  0  0  0  0  0  0  0  0  0  0
  -18.3760  -27.4090   22.3670 C   0  0  0  0  0  0  0  0  0  0  0  0
  -20.9060  -27.8020   22.7170 C   0  0  0  0  0  3  0  0  0  0  0  0
  -21.1020  -26.4070   22.0790 C   0  0  0  0  0  2  0  0  0  0  0  0
  -20.0510  -26.0920   21.0090 C   0  0  0  0  0  2  0  0  0  0  0  0
  -18.6520  -26.1090   21.6300 C   0  0  0  0  0  2  0  0  0  0  0  0
  -19.4360  -28.2140   22.8620 C   0  0  0  0  0  0  0  0  0  0  0  0
  -19.1320  -29.4310   23.5090 C   0  0  0  0  0  3  0  0  0  0  0  0
  -17.7960  -29.8460   23.6670 C   0  0  0  0  0  3  0  0  0  0  0  0
  -16.7480  -29.0380   23.1900 C   0  0  0  0  0  3  0  0  0  0  0  0
  -17.0400  -27.8220   22.5460 C   0  0  0  0  0  3  0  0  0  0  0  0
  -25.8690  -32.2780   23.7110 C   0  0  0  0  0  3  0  0  0  0  0  0
  -26.4080  -31.4820   24.9630 C   0  0  1  0  0  0  0  0  0  0  0  0
  -25.3050  -31.0980   25.9770 C   0  0  0  0  0  1  0  0  0  0  0  0
  -27.1160  -30.1810   24.5200 C   0  0  0  0  0  1  0  0  0  0  0  0
  -27.4680  -32.3280   25.7060 C   0  0  0  0  0  1  0  0  0  0  0  0
  -25.4540  -33.6330   24.0970 N   0  0  0  0  0  0  0  0  0  0  0  0
  -25.7210  -34.7400   23.3900 C   0  0  0  0  0  0  0  0  0  0  0  0
  -26.4140  -34.7310   22.3690 O   0  0  0  0  0  0  0  0  0  0  0  0
  -24.8380  -33.7090   24.8930 H   0  0  0  0  0  0  0  0  0  0  0  0
  -23.8690  -36.4100   23.0790 C   0  0  0  0  0  1  0  0  0  0  0  0
  -25.1240  -36.0670   23.8950 C   0  0  0  0  0  3  0  0  0  0  0  0
  -27.1700  -37.0730   24.8050 C   0  0  0  0  0  1  0  0  0  0  0  0
  -26.0770  -37.1970   23.8440 N   0  0  0  0  0  0  0  0  0  0  0  0
  -25.6010  -38.0780   24.0190 H   0  0  0  0  0  0  0  0  0  0  0  0
  2 50  1  0
  2  1  2  0
  3  6  1  0
  4  3  2  0
  4  8  1  0
  5  7  1  0
  6  1  1  0
  6  7  2  0
  7  9  1  0
  8  5  2  0
 10 18  1  0
 11 16  1  0
 12 13  1  0
 12 11  1  0
 14 13  1  0
 14 23  1  0
 14 15  1  0
 16 10  1  0
 16 15  1  0
 17 10  2  0
 18  8  1  0
 18 19  1  0
 20 45  1  0
 20 21  2  0
 21 40  1  0
 22 25  1  0
 22 21  1  0
 23 24  1  0
 23 20  1  0
 24 22  2  0
 25 26  1  0
 26 27  2  0
 28 31  1  0
 28 27  1  0
 29 28  2  0
 30 29  1  0
 30 25  2  0
 31 32  1  0
 32 33  1  0
 33 34  2  0
 35 34  1  0
 35 39  1  0
 36 35  2  0
 37 32  2  0
 37 36  1  0
 38 37  1  0
 40 41  1  0
 41 43  1  0
 41 44  1  0
 42 40  2  0
 45 46  1  0
 47 45  1  0
 48 50  1  0
 48 52  1  0
 50 49  1  0
 51 48  2  0
 53 55  1  0
 53 52  1  0
 54 65  2  0
 55 60  1  0
 56 64  1  0
 56 66  1  0
 57 63  1  0
 57 59  1  0
 58 64  1  0
 59 58  1  0
 60 59  2  0
 61 62  1  0
 61 55  2  0
 62 57  2  0
 63 56  1  0
 64 54  1  0
 66 68  2  0
 67 66  1  0
 69 67  1  0
 70 79  2  0
 70 75  1  0
 71 67  1  0
 71 75  1  0
 72 71  1  0
 73 74  1  0
 73 72  1  0
 74 70  1  0
 75 76  2  0
 76 77  1  0
 78 77  2  0
 79 78  1  0
 80 54  1  0
 80 85  1  0
 80 81  1  0
 81 84  1  1
 81 82  1  0
 83 81  1  0
 85 88  1  0
 86 90  1  0
 86 85  1  0
 87 86  2  0
 90 89  1  0
 92 90  1  0
 92 93  1  0
 92 91  1  0
M  ISO  4  10 100  18 100  52 101  53 101
M  END
>  <TORSDO>  (88) 
F 19

>  <SCORE>  (88) 
-5.037

>  <name>  (88) 
88

>  <ligand_id>  (88) 
88

>  <original_smiles>  (88) 
[H]C(=C([H])N(C(=O)C([H])([H])Oc1c([H])c([H])c2c(c1[H])C([H])([H])N(C(=O)C([H])(N([H])C(=O)C([H])(N([H])C([H])([H])[H])C([H])([H])[H])C(C([H])([H])[H])(C([H])([H])[H])C([H])([H])[H])C([H])(C(=O)N([H])C1([H])c3c([H])c([H])c([H])c([H])c3C([H])([H])C([H])([H])C1([H])[H])C2([H])[H])C([H])([H])[H])c1c([H])c([H])c(N([H])C(=O)N2C([H])([H])C([H])([H])C([H])([H])C([H])(n3nc(-c4c([H])c([H])c(Oc5c([H])c([H])c(F)c([H])c5F)c([H])c4[H])c(C(=O)N([H])[H])c3N([H])[H])C2([H])[H])c([H])c1C([H])([H])[H]

>  <smiles>  (88) 
[H]C(=C([H])N(C(=O)C([H])([H])Oc1c([H])c([H])c2c(c1[H])C([H])([H])N(C(=O)C([H])(N([H])C(=O)C([H])(N([H])C([H])([H])[H])C([H])([H])[H])C(C([H])([H])[H])(C([H])([H])[H])C([H])([H])[H])C([H])(C(=O)N([H])C1([H])c3c([H])c([H])c([H])c([H])c3C([H])([H])C([H])([H])C1([H])[H])C2([H])[H])C([H])([H])[H])c1c([H])c([H])c(N([H])C(=O)N2C([H])([H])C([H])([H])C([H])([H])C([H])(n3nc(-c4c([H])c([H])c(Oc5c([H])c([H])c(F)c([H])c5F)c([H])c4[H])c(C(=O)N([H])[H])c3N([H])[H])C2([H])[H])c([H])c1C([H])([H])[H]

$$$$
89:0:0
     RDKit          3D

 92100  0  0  1  0  0  0  0  0999 V2000
  -30.0670  -21.6640   20.7520 C   0  0  0  0  0  2  0  0  0  0  0  0
  -31.2660  -19.3570   20.4240 C   0  0  0  0  0  3  0  0  0  0  0  0
  -31.2940  -17.9270   20.4300 C   0  0  0  0  0  3  0  0  0  0  0  0
  -28.8970  -17.9110   20.6420 C   0  0  0  0  0  3  0  0  0  0  0  0
  -30.0580  -20.1010   20.5470 C   0  0  0  0  0  0  0  0  0  0  0  0
  -30.1030  -17.1630   20.5580 C   0  0  0  0  0  0  0  0  0  0  0  0
  -28.8690  -19.3370   20.6370 C   0  0  0  0  0  0  0  0  0  0  0  0
  -27.6800  -19.9770   20.7500 F   0  0  0  0  0  0  0  0  0  0  0  0
  -30.7820  -14.6890   20.0850 C   0  0  0  0  0  0  0  0  0  0  0  0
  -30.4820  -12.4950   18.9560 C   0  0  0  0  0  2  0  0  0  0  0  0
  -29.4670  -12.6760   17.8030 C   0  0  0  0  0  2  0  0  0  0  0  0
  -28.0180  -12.5310   18.3110 C   0  0  0  0  0  2  0  0  0  0  0  0
  -27.7500  -13.3590   19.5970 C   0  0  0  0  0  3  0  0  0  0  0  0
  -28.8660  -13.1340   20.6430 C   0  0  0  0  0  2  0  0  0  0  0  0
  -30.1490  -13.4770   20.0060 N   0  0  0  0  0  0  0  0  0  0  0  0
  -31.9030  -14.8660   19.5980 O   0  0  0  0  0  0  0  0  0  0  0  0
  -30.0260  -15.7020   20.6090 N   0  0  0  0  0  0  0  0  0  0  0  0
  -29.1760  -15.3450   21.0190 H   0  0  0  0  0  0  0  0  0  0  0  0
  -25.4120  -13.9850   20.4640 C   0  0  0  0  0  0  0  0  0  0  0  0
  -24.3510  -13.2220   20.8720 C   0  0  0  0  0  0  0  0  0  0  0  0
  -24.7830  -11.8620   20.7740 C   0  0  0  0  0  0  0  0  0  0  0  0
  -26.4220  -13.0910   20.1440 N   0  0  0  0  0  0  0  0  0  0  0  0
  -26.0520  -11.8090   20.3880 N   0  0  0  0  0  0  0  0  0  0  0  0
  -24.0430  -10.6090   20.9660 C   0  0  0  0  0  0  0  0  0  0  0  0
  -24.4810   -9.6230   21.8780 C   0  0  0  0  0  3  0  0  0  0  0  0
  -23.7400   -8.4350   22.0590 C   0  0  0  0  0  3  0  0  0  0  0  0
  -22.5460   -8.2250   21.3280 C   0  0  0  0  0  0  0  0  0  0  0  0
  -22.1280   -9.1990   20.4030 C   0  0  0  0  0  3  0  0  0  0  0  0
  -22.8700  -10.3770   20.2200 C   0  0  0  0  0  3  0  0  0  0  0  0
  -21.7760   -7.0900   21.4200 O   0  0  0  0  0  0  0  0  0  0  0  0
  -21.7050   -6.3620   22.5810 C   0  0  0  0  0  0  0  0  0  0  0  0
  -21.2480   -6.9290   23.7900 C   0  0  0  0  0  3  0  0  0  0  0  0
  -21.1230   -6.1260   24.9410 C   0  0  0  0  0  3  0  0  0  0  0  0
  -21.4470   -4.7580   24.8850 C   0  0  0  0  0  0  0  0  0  0  0  0
  -21.8960   -4.1900   23.6800 C   0  0  0  0  0  3  0  0  0  0  0  0
  -22.0220   -4.9900   22.5300 C   0  0  0  0  0  0  0  0  0  0  0  0
  -22.4350   -4.4330   21.3670 F   0  0  0  0  0  0  0  0  0  0  0  0
  -21.3210   -3.9840   25.9880 F   0  0  0  0  0  0  0  0  0  0  0  0
  -22.9820  -13.7170   21.2410 C   0  0  0  0  0  0  0  0  0  0  0  0
  -22.3010  -13.0180   22.1410 N   0  0  0  0  0  0  0  0  0  0  0  0
  -22.5300  -14.7590   20.7660 O   0  0  0  0  0  0  0  0  0  0  0  0
  -22.6820  -12.1740   22.5450 H   0  0  0  0  0  0  0  0  0  0  0  0
  -21.3850  -13.3290   22.4310 H   0  0  0  0  0  0  0  0  0  0  0  0
  -25.5970  -15.3570   20.3180 N   0  0  0  0  0  0  0  0  0  0  0  0
  -24.8560  -16.0250   20.4950 H   0  0  0  0  0  0  0  0  0  0  0  0
  -26.4270  -15.7830   19.9280 H   0  0  0  0  0  0  0  0  0  0  0  0
  -29.5040  -22.2290   18.4140 C   0  0  0  0  0  1  0  0  0  0  0  0
  -29.2830  -22.5860   19.8360 N   0  0  2  0  0  4  0  0  0  0  0  0
  -28.3110  -22.3860   20.0310 H   0  0  0  0  0  0  0  0  0  0  0  0
  -29.4750  -24.0800   20.1160 C   0  0  0  0  0  3  0  0  0  0  0  0
  -28.3670  -25.0820   19.5650 C   0  0  0  0  0  3  0  0  0  0  0  0
  -28.4920  -26.5280   19.8510 O   0  0  0  0  0  0  0  0  0  0  0  0
  -24.5810  -31.6850   23.0190 C   0  0  0  0  0  0  0  0  0  0  0  0
  -27.3330  -27.3200   19.8160 C   0  0  0  0  0  0  0  0  0  0  0  0
  -23.4140  -30.2890   21.3510 C   0  0  0  0  0  3  0  0  0  0  0  0
  -24.9080  -28.8370   19.8690 C   0  0  0  0  0  0  0  0  0  0  0  0
  -25.9400  -30.7030   21.1600 C   0  0  0  0  0  2  0  0  0  0  0  0
  -26.0620  -29.3490   20.4760 C   0  0  0  0  0  0  0  0  0  0  0  0
  -27.2750  -28.6020   20.4420 C   0  0  0  0  0  3  0  0  0  0  0  0
  -26.1550  -26.8640   19.1770 C   0  0  0  0  0  3  0  0  0  0  0  0
  -24.9570  -27.6010   19.2090 C   0  0  0  0  0  3  0  0  0  0  0  0
  -23.6410  -29.6620   19.9510 C   0  0  0  0  0  2  0  0  0  0  0  0
  -24.6640  -30.9100   21.9000 N   0  0  0  0  0  0  0  0  0  0  0  0
  -23.4930  -31.9100   23.5680 O   0  0  0  0  0  0  0  0  0  0  0  0
  -22.7980  -29.2220   22.2860 C   0  0  0  0  0  0  0  0  0  0  0  0
  -21.4780  -29.0090   22.1680 N   0  0  0  0  0  0  0  0  0  0  0  0
  -23.5060  -28.5910   23.0760 O   0  0  0  0  0  0  0  0  0  0  0  0
  -20.9680  -29.5670   21.4970 H   0  0  0  0  0  0  0  0  0  0  0  0
  -18.1350  -27.7270   22.6890 C   0  0  0  0  0  0  0  0  0  0  0  0
  -20.6920  -28.0280   22.9180 C   0  0  0  0  0  3  0  0  0  0  0  0
  -20.8120  -26.6220   22.2840 C   0  0  0  0  0  2  0  0  0  0  0  0
  -19.6950  -26.3160   21.2820 C   0  0  0  0  0  2  0  0  0  0  0  0
  -18.3240  -26.4080   21.9590 C   0  0  0  0  0  2  0  0  0  0  0  0
  -19.2470  -28.4950   23.1260 C   0  0  0  0  0  0  0  0  0  0  0  0
  -19.0150  -29.7310   23.7680 C   0  0  0  0  0  3  0  0  0  0  0  0
  -17.7040  -30.1950   23.9840 C   0  0  0  0  0  3  0  0  0  0  0  0
  -16.6070  -29.4240   23.5640 C   0  0  0  0  0  3  0  0  0  0  0  0
  -16.8230  -28.1940   22.9200 C   0  0  0  0  0  3  0  0  0  0  0  0
  -25.8460  -32.3450   23.6490 C   0  0  0  0  0  3  0  0  0  0  0  0
  -26.4040  -31.5510   24.8940 C   0  0  1  0  0  0  0  0  0  0  0  0
  -25.3270  -31.2310   25.9580 C   0  0  0  0  0  1  0  0  0  0  0  0
  -27.0390  -30.2120   24.4500 C   0  0  0  0  0  1  0  0  0  0  0  0
  -27.5270  -32.3670   25.5750 C   0  0  0  0  0  1  0  0  0  0  0  0
  -25.4870  -33.7180   24.0300 N   0  0  0  0  0  0  0  0  0  0  0  0
  -25.7770  -34.8090   23.3090 C   0  0  0  0  0  0  0  0  0  0  0  0
  -26.4460  -34.7670   22.2720 O   0  0  0  0  0  0  0  0  0  0  0  0
  -24.8890  -33.8210   24.8370 H   0  0  0  0  0  0  0  0  0  0  0  0
  -23.9830  -36.5500   23.0270 C   0  0  0  0  0  1  0  0  0  0  0  0
  -25.2420  -36.1610   23.8170 C   0  0  0  0  0  3  0  0  0  0  0  0
  -27.3410  -37.1000   24.6790 C   0  0  0  0  0  1  0  0  0  0  0  0
  -26.2350  -37.2550   23.7390 N   0  0  0  0  0  0  0  0  0  0  0  0
  -25.7950  -38.1540   23.9150 H   0  0  0  0  0  0  0  0  0  0  0  0
  2  3  2  0
  2  5  1  0
  3  6  1  0
  5  7  2  0
  5  1  1  0
  6 17  1  0
  6  4  2  0
  7  4  1  0
  7  8  1  0
  9 17  1  0
 10 15  1  0
 11 12  1  0
 11 10  1  0
 13 12  1  0
 13 22  1  0
 13 14  1  0
 15  9  1  0
 15 14  1  0
 16  9  2  0
 17 18  1  0
 19 20  2  0
 20 39  1  0
 21 20  1  0
 21 24  1  0
 22 23  1  0
 22 19  1  0
 23 21  2  0
 24 25  1  0
 25 26  2  0
 27 30  1  0
 27 26  1  0
 28 27  2  0
 29 28  1  0
 29 24  2  0
 30 31  1  0
 31 32  1  0
 32 33  2  0
 34 33  1  0
 34 38  1  0
 35 34  2  0
 36 31  2  0
 36 35  1  0
 37 36  1  0
 39 40  1  0
 40 43  1  0
 40 42  1  0
 41 39  2  0
 44 19  1  0
 44 45  1  0
 46 44  1  0
 47 48  1  0
 48 49  1  1
 48 50  1  0
 48  1  1  0
 51 52  1  0
 51 50  2  0
 53 64  2  0
 54 52  1  0
 54 59  1  0
 55 63  1  0
 55 65  1  0
 56 62  1  0
 56 58  1  0
 57 63  1  0
 58 57  1  0
 59 58  2  0
 60 61  1  0
 60 54  2  0
 61 56  2  0
 62 55  1  0
 63 53  1  0
 65 67  2  0
 66 65  1  0
 68 66  1  0
 69 78  2  0
 69 74  1  0
 70 66  1  0
 70 74  1  0
 71 70  1  0
 72 73  1  0
 72 71  1  0
 73 69  1  0
 74 75  2  0
 75 76  1  0
 77 76  2  0
 78 77  1  0
 79 53  1  0
 79 84  1  0
 79 80  1  0
 80 83  1  1
 80 81  1  0
 82 80  1  0
 84 87  1  0
 85 89  1  0
 85 84  1  0
 86 85  2  0
 89 88  1  0
 91 89  1  0
 91 92  1  0
 91 90  1  0
M  ISO  4   9 100  17 100  51 101  52 101
M  END
>  <TORSDO>  (89) 
F 20

>  <SCORE>  (89) 
-13.419

>  <name>  (89) 
89

>  <ligand_id>  (89) 
89

>  <original_smiles>  (89) 
[H]c1c([H])c([H])c2c(c1[H])C([H])([H])C([H])([H])C([H])([H])C2([H])N([H])C(=O)C1([H])N(C(=O)C([H])(N([H])C(=O)C([H])(N([H])C([H])([H])[H])C([H])([H])[H])C(C([H])([H])[H])(C([H])([H])[H])C([H])([H])[H])C([H])([H])c2c([H])c(OC([H])([H])C([H])([H])[N+]([H])(C([H])([H])[H])C([H])([H])c3c([H])c([H])c(N([H])C(=O)N4C([H])([H])C([H])([H])C([H])([H])C([H])(n5nc(-c6c([H])c([H])c(Oc7c([H])c([H])c(F)c([H])c7F)c([H])c6[H])c(C(=O)N([H])[H])c5N([H])[H])C4([H])[H])c([H])c3F)c([H])c([H])c2C1([H])[H]

>  <smiles>  (89) 
[H]c1c([H])c([H])c2c(c1[H])C([H])([H])C([H])([H])C([H])([H])C2([H])N([H])C(=O)C1([H])N(C(=O)C([H])(N([H])C(=O)C([H])(N([H])C([H])([H])[H])C([H])([H])[H])C(C([H])([H])[H])(C([H])([H])[H])C([H])([H])[H])C([H])([H])c2c([H])c(OC([H])([H])C([H])([H])[N+]([H])(C([H])([H])[H])C([H])([H])c3c([H])c([H])c(N([H])C(=O)N4C([H])([H])C([H])([H])C([H])([H])C([H])(n5nc(-c6c([H])c([H])c(Oc7c([H])c([H])c(F)c([H])c7F)c([H])c6[H])c(C(=O)N([H])[H])c5N([H])[H])C4([H])[H])c([H])c3F)c([H])c([H])c2C1([H])[H]

$$$$
90:0:0
     RDKit          3D

 90 98  0  0  1  0  0  0  0  0999 V2000
  -30.8930  -18.6120   20.2590 C   0  0  0  0  0  3  0  0  0  0  0  0
  -30.5070  -20.0210   20.1540 C   0  0  0  0  0  3  0  0  0  0  0  0
  -28.6970  -17.9800   19.6940 C   0  0  0  0  0  3  0  0  0  0  0  0
  -29.9950  -17.5010   20.0630 C   0  0  0  0  0  0  0  0  0  0  0  0
  -29.1780  -20.4900   19.8540 C   0  0  0  0  0  0  0  0  0  0  0  0
  -28.3100  -19.3690   19.5840 C   0  0  0  0  0  0  0  0  0  0  0  0
  -26.6600  -19.6690   19.1520 Cl  0  0  0  0  0  0  0  0  0  0  0  0
  -30.8030  -14.8890   19.9240 C   0  0  0  0  0  0  0  0  0  0  0  0
  -30.5450  -12.5470   18.9650 C   0  0  0  0  0  2  0  0  0  0  0  0
  -29.5490  -12.5380   17.7800 C   0  0  0  0  0  2  0  0  0  0  0  0
  -28.0990  -12.3830   18.2760 C   0  0  0  0  0  2  0  0  0  0  0  0
  -27.7900  -13.3200   19.4720 C   0  0  0  0  0  3  0  0  0  0  0  0
  -28.8920  -13.2540   20.5440 C   0  0  0  0  0  2  0  0  0  0  0  0
  -30.1600  -13.6450   19.9010 N   0  0  0  0  0  0  0  0  0  0  0  0
  -31.9180  -14.9560   19.3920 O   0  0  0  0  0  0  0  0  0  0  0  0
  -29.9730  -15.9350   21.9490 C   0  0  0  0  0  1  0  0  0  0  0  0
  -30.1880  -16.0420   20.4990 N   0  0  0  0  0  0  0  0  0  0  0  0
  -25.4930  -14.0020   20.3800 C   0  0  0  0  0  0  0  0  0  0  0  0
  -24.4120  -13.2730   20.7900 C   0  0  0  0  0  0  0  0  0  0  0  0
  -24.7950  -11.9010   20.6780 C   0  0  0  0  0  0  0  0  0  0  0  0
  -26.4660  -13.0790   20.0370 N   0  0  0  0  0  0  0  0  0  0  0  0
  -26.0580  -11.8070   20.2800 N   0  0  0  0  0  0  0  0  0  0  0  0
  -24.0090  -10.6740   20.8670 C   0  0  0  0  0  0  0  0  0  0  0  0
  -24.4340   -9.6520   21.7440 C   0  0  0  0  0  3  0  0  0  0  0  0
  -23.6530   -8.4910   21.9230 C   0  0  0  0  0  3  0  0  0  0  0  0
  -22.4300   -8.3430   21.2260 C   0  0  0  0  0  0  0  0  0  0  0  0
  -22.0220   -9.3530   20.3360 C   0  0  0  0  0  3  0  0  0  0  0  0
  -22.8050  -10.5070   20.1550 C   0  0  0  0  0  3  0  0  0  0  0  0
  -21.6190   -7.2390   21.3160 O   0  0  0  0  0  0  0  0  0  0  0  0
  -21.5840   -6.4620   22.4470 C   0  0  0  0  0  0  0  0  0  0  0  0
  -21.2500   -6.9990   23.7090 C   0  0  0  0  0  3  0  0  0  0  0  0
  -21.1600   -6.1510   24.8320 C   0  0  0  0  0  3  0  0  0  0  0  0
  -21.3920   -4.7700   24.6920 C   0  0  0  0  0  0  0  0  0  0  0  0
  -21.7180   -4.2330   23.4340 C   0  0  0  0  0  3  0  0  0  0  0  0
  -21.8100   -5.0780   22.3140 C   0  0  0  0  0  0  0  0  0  0  0  0
  -22.1040   -4.5520   21.1000 F   0  0  0  0  0  0  0  0  0  0  0  0
  -21.2970   -3.9550   25.7680 F   0  0  0  0  0  0  0  0  0  0  0  0
  -23.0630  -13.8150   21.1680 C   0  0  0  0  0  0  0  0  0  0  0  0
  -22.3620  -13.1390   22.0710 N   0  0  0  0  0  0  0  0  0  0  0  0
  -22.6440  -14.8710   20.6960 O   0  0  0  0  0  0  0  0  0  0  0  0
  -22.7160  -12.2830   22.4730 H   0  0  0  0  0  0  0  0  0  0  0  0
  -21.4590  -13.4820   22.3650 H   0  0  0  0  0  0  0  0  0  0  0  0
  -25.7240  -15.3670   20.2430 N   0  0  0  0  0  0  0  0  0  0  0  0
  -25.0030  -16.0570   20.4240 H   0  0  0  0  0  0  0  0  0  0  0  0
  -26.5630  -15.7620   19.8400 H   0  0  0  0  0  0  0  0  0  0  0  0
  -27.9390  -21.9360   21.3050 C   0  0  0  0  0  1  0  0  0  0  0  0
  -28.6370  -21.8760   20.0180 N   0  0  0  0  0  0  0  0  0  0  0  0
  -29.0200  -23.2960   19.5080 C   0  0  0  0  0  3  0  0  0  0  0  0
  -27.9760  -24.6030   19.7320 C   0  0  0  0  0  3  0  0  0  0  0  0
  -28.2350  -26.1250   19.5580 O   0  0  0  0  0  0  0  0  0  0  0  0
  -24.6220  -31.5540   23.0020 C   0  0  0  0  0  0  0  0  0  0  0  0
  -27.1590  -27.0790   19.6180 C   0  0  0  0  0  0  0  0  0  0  0  0
  -23.3880  -30.2440   21.3200 C   0  0  0  0  0  3  0  0  0  0  0  0
  -24.8090  -28.7790   19.7640 C   0  0  0  0  0  0  0  0  0  0  0  0
  -25.9320  -30.5570   21.0920 C   0  0  0  0  0  2  0  0  0  0  0  0
  -26.0020  -29.2090   20.3590 C   0  0  0  0  0  0  0  0  0  0  0  0
  -27.1790  -28.3770   20.2680 C   0  0  0  0  0  3  0  0  0  0  0  0
  -25.9370  -26.7540   18.9860 C   0  0  0  0  0  3  0  0  0  0  0  0
  -24.7870  -27.5660   19.0630 C   0  0  0  0  0  3  0  0  0  0  0  0
  -23.5740  -29.6540   19.8980 C   0  0  0  0  0  2  0  0  0  0  0  0
  -24.6690  -30.8030   21.8600 N   0  0  0  0  0  0  0  0  0  0  0  0
  -23.5480  -31.7950   23.5760 O   0  0  0  0  0  0  0  0  0  0  0  0
  -22.7510  -29.1720   22.2380 C   0  0  0  0  0  0  0  0  0  0  0  0
  -21.4210  -28.9910   22.1370 N   0  0  0  0  0  0  0  0  0  0  0  0
  -23.4520  -28.5070   23.0040 O   0  0  0  0  0  0  0  0  0  0  0  0
  -20.9120  -29.5790   21.4920 H   0  0  0  0  0  0  0  0  0  0  0  0
  -18.0660  -27.7300   22.6590 C   0  0  0  0  0  0  0  0  0  0  0  0
  -20.6300  -28.0020   22.8730 C   0  0  0  0  0  3  0  0  0  0  0  0
  -20.7300  -26.6080   22.2100 C   0  0  0  0  0  2  0  0  0  0  0  0
  -19.6020  -26.3350   21.2090 C   0  0  0  0  0  2  0  0  0  0  0  0
  -18.2380  -26.4260   21.8980 C   0  0  0  0  0  2  0  0  0  0  0  0
  -19.1900  -28.4780   23.1020 C   0  0  0  0  0  0  0  0  0  0  0  0
  -18.9750  -29.7010   23.7750 C   0  0  0  0  0  3  0  0  0  0  0  0
  -17.6690  -30.1730   24.0100 C   0  0  0  0  0  3  0  0  0  0  0  0
  -16.5620  -29.4210   23.5830 C   0  0  0  0  0  3  0  0  0  0  0  0
  -16.7620  -28.2020   22.9120 C   0  0  0  0  0  3  0  0  0  0  0  0
  -25.9110  -32.1670   23.6280 C   0  0  0  0  0  3  0  0  0  0  0  0
  -26.4520  -31.3420   24.8610 C   0  0  1  0  0  0  0  0  0  0  0  0
  -25.3790  -31.0640   25.9410 C   0  0  0  0  0  1  0  0  0  0  0  0
  -27.0200  -29.9800   24.4040 C   0  0  0  0  0  1  0  0  0  0  0  0
  -27.6210  -32.1050   25.5280 C   0  0  0  0  0  1  0  0  0  0  0  0
  -25.6020  -33.5470   24.0300 N   0  0  0  0  0  0  0  0  0  0  0  0
  -25.9240  -34.6390   23.3230 C   0  0  0  0  0  0  0  0  0  0  0  0
  -26.5800  -34.5880   22.2790 O   0  0  0  0  0  0  0  0  0  0  0  0
  -25.0180  -33.6620   24.8450 H   0  0  0  0  0  0  0  0  0  0  0  0
  -24.1850  -36.4430   23.0990 C   0  0  0  0  0  1  0  0  0  0  0  0
  -25.4460  -36.0030   23.8590 C   0  0  0  0  0  3  0  0  0  0  0  0
  -27.5940  -36.8570   24.6870 C   0  0  0  0  0  1  0  0  0  0  0  0
  -26.4730  -37.0640   23.7730 N   0  0  0  0  0  0  0  0  0  0  0  0
  -26.0680  -37.9750   23.9710 H   0  0  0  0  0  0  0  0  0  0  0  0
  2  1  1  0
  3  4  1  0
  4  1  2  0
  4 17  1  0
  5 47  1  0
  5  2  2  0
  6  3  2  0
  6  5  1  0
  7  6  1  0
  8 17  1  0
  9 14  1  0
 10 11  1  0
 10  9  1  0
 12 11  1  0
 12 21  1  0
 12 13  1  0
 14  8  1  0
 14 13  1  0
 15  8  2  0
 17 16  1  0
 18 19  2  0
 19 38  1  0
 20 19  1  0
 20 23  1  0
 21 22  1  0
 21 18  1  0
 22 20  2  0
 23 24  1  0
 24 25  2  0
 26 29  1  0
 26 25  1  0
 27 26  2  0
 28 27  1  0
 28 23  2  0
 29 30  1  0
 30 31  1  0
 31 32  2  0
 33 32  1  0
 33 37  1  0
 34 33  2  0
 35 30  2  0
 35 34  1  0
 36 35  1  0
 38 39  1  0
 39 42  1  0
 39 41  1  0
 40 38  2  0
 43 18  1  0
 43 44  1  0
 45 43  1  0
 47 46  1  0
 48 49  2  0
 48 47  1  0
 50 52  1  0
 50 49  1  0
 51 62  2  0
 52 57  1  0
 53 61  1  0
 53 63  1  0
 54 60  1  0
 54 56  1  0
 55 61  1  0
 56 55  1  0
 57 56  2  0
 58 59  1  0
 58 52  2  0
 59 54  2  0
 60 53  1  0
 61 51  1  0
 63 65  2  0
 64 63  1  0
 66 64  1  0
 67 76  2  0
 67 72  1  0
 68 64  1  0
 68 72  1  0
 69 68  1  0
 70 71  1  0
 70 69  1  0
 71 67  1  0
 72 73  2  0
 73 74  1  0
 75 74  2  0
 76 75  1  0
 77 51  1  0
 77 82  1  0
 77 78  1  0
 78 81  1  1
 78 79  1  0
 80 78  1  0
 82 85  1  0
 83 87  1  0
 83 82  1  0
 84 83  2  0
 87 86  1  0
 89 87  1  0
 89 90  1  0
 89 88  1  0
M  ISO  4   8 100  17 100  49 101  50 101
M  END
>  <TORSDO>  (90) 
F 19

>  <SCORE>  (90) 
-13.136

>  <name>  (90) 
90

>  <ligand_id>  (90) 
90

>  <original_smiles>  (90) 
[H]c1c([H])c([H])c2c(c1[H])C([H])([H])C([H])([H])C([H])([H])C2([H])N([H])C(=O)C1([H])N(C(=O)C([H])(N([H])C(=O)C([H])(N([H])C([H])([H])[H])C([H])([H])[H])C(C([H])([H])[H])(C([H])([H])[H])C([H])([H])[H])C([H])([H])c2c([H])c(OC([H])([H])C([H])([H])N(c3c([H])c([H])c(N(C(=O)N4C([H])([H])C([H])([H])C([H])([H])C([H])(n5nc(-c6c([H])c([H])c(Oc7c([H])c([H])c(F)c([H])c7F)c([H])c6[H])c(C(=O)N([H])[H])c5N([H])[H])C4([H])[H])C([H])([H])[H])c([H])c3Cl)C([H])([H])[H])c([H])c([H])c2C1([H])[H]

>  <smiles>  (90) 
[H]c1c([H])c([H])c2c(c1[H])C([H])([H])C([H])([H])C([H])([H])C2([H])N([H])C(=O)C1([H])N(C(=O)C([H])(N([H])C(=O)C([H])(N([H])C([H])([H])[H])C([H])([H])[H])C(C([H])([H])[H])(C([H])([H])[H])C([H])([H])[H])C([H])([H])c2c([H])c(OC([H])([H])C([H])([H])N(c3c([H])c([H])c(N(C(=O)N4C([H])([H])C([H])([H])C([H])([H])C([H])(n5nc(-c6c([H])c([H])c(Oc7c([H])c([H])c(F)c([H])c7F)c([H])c6[H])c(C(=O)N([H])[H])c5N([H])[H])C4([H])[H])C([H])([H])[H])c([H])c3Cl)C([H])([H])[H])c([H])c([H])c2C1([H])[H]

$$$$
91:0:0
     RDKit          3D

 91 99  0  0  1  0  0  0  0  0999 V2000
  -29.7990  -22.5450   21.9020 C   0  0  0  0  0  1  0  0  0  0  0  0
  -29.2640  -22.8360   20.5490 N   0  0  1  0  0  4  0  0  0  0  0  0
  -30.0760  -23.0550   19.9900 H   0  0  0  0  0  0  0  0  0  0  0  0
  -28.6660  -21.5920   19.9070 C   0  0  0  0  0  2  0  0  0  0  0  0
  -30.5190  -19.7030   19.6980 C   0  0  0  0  0  3  0  0  0  0  0  0
  -28.4380  -19.1190   20.7390 C   0  0  0  0  0  3  0  0  0  0  0  0
  -30.8980  -18.3250   19.7130 C   0  0  0  0  0  3  0  0  0  0  0  0
  -28.8050  -17.7390   20.7330 C   0  0  0  0  0  3  0  0  0  0  0  0
  -29.2500  -20.1390   20.1660 C   0  0  0  0  0  0  0  0  0  0  0  0
  -30.0230  -17.2910   20.1640 C   0  0  0  0  0  0  0  0  0  0  0  0
  -30.8980  -14.8580   20.2820 C   0  0  0  0  0  0  0  0  0  0  0  0
  -30.7230  -12.5190   19.4500 C   0  0  0  0  0  2  0  0  0  0  0  0
  -29.8160  -12.4730   18.1990 C   0  0  0  0  0  2  0  0  0  0  0  0
  -28.3280  -12.3980   18.5960 C   0  0  0  0  0  2  0  0  0  0  0  0
  -27.9240  -13.3550   19.7520 C   0  0  0  0  0  3  0  0  0  0  0  0
  -28.9580  -13.3470   20.8970 C   0  0  0  0  0  2  0  0  0  0  0  0
  -30.2630  -13.6410   20.2940 N   0  0  0  0  0  0  0  0  0  0  0  0
  -32.1300  -14.9100   20.2090 O   0  0  0  0  0  0  0  0  0  0  0  0
  -30.1410  -15.8340   18.2330 C   0  0  0  0  0  1  0  0  0  0  0  0
  -30.1760  -15.8990   19.7110 N   0  0  0  0  0  0  0  0  0  0  0  0
  -25.5280  -13.9830   20.4330 C   0  0  0  0  0  0  0  0  0  0  0  0
  -24.4480  -13.2230   20.7930 C   0  0  0  0  0  0  0  0  0  0  0  0
  -24.8990  -11.8680   20.7870 C   0  0  0  0  0  0  0  0  0  0  0  0
  -26.5690  -13.0900   20.2270 N   0  0  0  0  0  0  0  0  0  0  0  0
  -26.1950  -11.8150   20.5060 N   0  0  0  0  0  0  0  0  0  0  0  0
  -24.1600  -10.6130   20.9710 C   0  0  0  0  0  0  0  0  0  0  0  0
  -24.5500   -9.6630   21.9400 C   0  0  0  0  0  3  0  0  0  0  0  0
  -23.8140   -8.4700   22.1110 C   0  0  0  0  0  3  0  0  0  0  0  0
  -22.6730   -8.2220   21.3130 C   0  0  0  0  0  0  0  0  0  0  0  0
  -22.3030   -9.1580   20.3340 C   0  0  0  0  0  3  0  0  0  0  0  0
  -23.0390  -10.3430   20.1600 C   0  0  0  0  0  3  0  0  0  0  0  0
  -21.9070   -7.0820   21.3930 O   0  0  0  0  0  0  0  0  0  0  0  0
  -21.7730   -6.3890   22.5680 C   0  0  0  0  0  0  0  0  0  0  0  0
  -21.2350   -6.9850   23.7310 C   0  0  0  0  0  3  0  0  0  0  0  0
  -21.0530   -6.2130   24.8960 C   0  0  0  0  0  3  0  0  0  0  0  0
  -21.3980   -4.8480   24.8980 C   0  0  0  0  0  0  0  0  0  0  0  0
  -21.9240   -4.2520   23.7400 C   0  0  0  0  0  3  0  0  0  0  0  0
  -22.1100   -5.0210   22.5770 C   0  0  0  0  0  0  0  0  0  0  0  0
  -22.6000   -4.4390   21.4580 F   0  0  0  0  0  0  0  0  0  0  0  0
  -21.2150   -4.1050   26.0150 F   0  0  0  0  0  0  0  0  0  0  0  0
  -23.0500  -13.7130   21.0250 C   0  0  0  0  0  0  0  0  0  0  0  0
  -22.2980  -13.0440   21.8930 N   0  0  0  0  0  0  0  0  0  0  0  0
  -22.6280  -14.7250   20.4650 O   0  0  0  0  0  0  0  0  0  0  0  0
  -22.6440  -12.2250   22.3690 H   0  0  0  0  0  0  0  0  0  0  0  0
  -21.3540  -13.3520   22.0810 H   0  0  0  0  0  0  0  0  0  0  0  0
  -25.7060  -15.3500   20.2380 N   0  0  0  0  0  0  0  0  0  0  0  0
  -24.9330  -16.0000   20.3190 H   0  0  0  0  0  0  0  0  0  0  0  0
  -26.5450  -15.7730   19.8610 H   0  0  0  0  0  0  0  0  0  0  0  0
  -28.3800  -24.0940   20.5550 C   0  0  0  0  0  2  0  0  0  0  0  0
  -28.8280  -25.3430   19.6800 C   0  0  0  0  0  2  0  0  0  0  0  0
  -28.6380  -26.7020   20.2220 O   0  0  0  0  0  0  0  0  0  0  0  0
  -24.5860  -31.8160   23.1980 C   0  0  0  0  0  0  0  0  0  0  0  0
  -27.4460  -27.4300   20.1390 C   0  0  0  0  0  0  0  0  0  0  0  0
  -23.4730  -30.4090   21.4970 C   0  0  0  0  0  3  0  0  0  0  0  0
  -25.0150  -28.9330   20.0840 C   0  0  0  0  0  0  0  0  0  0  0  0
  -25.9990  -30.8240   21.3890 C   0  0  0  0  0  2  0  0  0  0  0  0
  -26.1440  -29.4640   20.7210 C   0  0  0  0  0  0  0  0  0  0  0  0
  -27.3570  -28.7230   20.7360 C   0  0  0  0  0  3  0  0  0  0  0  0
  -26.2890  -26.9330   19.4960 C   0  0  0  0  0  3  0  0  0  0  0  0
  -25.0890  -27.6740   19.4650 C   0  0  0  0  0  3  0  0  0  0  0  0
  -23.7470  -29.7650   20.1110 C   0  0  0  0  0  2  0  0  0  0  0  0
  -24.7020  -31.0340   22.0850 N   0  0  0  0  0  0  0  0  0  0  0  0
  -23.4820  -32.0440   23.7120 O   0  0  0  0  0  0  0  0  0  0  0  0
  -22.8230  -29.3510   22.4210 C   0  0  0  0  0  0  0  0  0  0  0  0
  -21.5020  -29.1530   22.2760 N   0  0  0  0  0  0  0  0  0  0  0  0
  -23.5060  -28.7150   23.2270 O   0  0  0  0  0  0  0  0  0  0  0  0
  -21.0090  -29.7190   21.5990 H   0  0  0  0  0  0  0  0  0  0  0  0
  -18.1380  -27.9120   22.7410 C   0  0  0  0  0  0  0  0  0  0  0  0
  -20.6950  -28.1790   23.0120 C   0  0  0  0  0  3  0  0  0  0  0  0
  -20.8040  -26.7730   22.3790 C   0  0  0  0  0  2  0  0  0  0  0  0
  -19.7010  -26.4850   21.3560 C   0  0  0  0  0  2  0  0  0  0  0  0
  -18.3200  -26.5940   22.0090 C   0  0  0  0  0  2  0  0  0  0  0  0
  -19.2530  -28.6640   23.1980 C   0  0  0  0  0  0  0  0  0  0  0  0
  -19.0260  -29.9010   23.8400 C   0  0  0  0  0  3  0  0  0  0  0  0
  -17.7190  -30.3870   24.0290 C   0  0  0  0  0  3  0  0  0  0  0  0
  -16.6180  -29.6310   23.5880 C   0  0  0  0  0  3  0  0  0  0  0  0
  -16.8280  -28.3950   22.9510 C   0  0  0  0  0  3  0  0  0  0  0  0
  -25.8310  -32.4790   23.8660 C   0  0  0  0  0  3  0  0  0  0  0  0
  -26.3180  -31.7240   25.1640 C   0  0  1  0  0  0  0  0  0  0  0  0
  -25.1910  -31.4650   26.1920 C   0  0  0  0  0  1  0  0  0  0  0  0
  -26.9500  -30.3580   24.8040 C   0  0  0  0  0  1  0  0  0  0  0  0
  -27.4180  -32.5520   25.8690 C   0  0  0  0  0  1  0  0  0  0  0  0
  -25.4770  -33.8710   24.1800 N   0  0  0  0  0  0  0  0  0  0  0  0
  -25.8060  -34.9300   23.4290 C   0  0  0  0  0  0  0  0  0  0  0  0
  -26.5120  -34.8400   22.4200 O   0  0  0  0  0  0  0  0  0  0  0  0
  -24.8570  -34.0130   24.9640 H   0  0  0  0  0  0  0  0  0  0  0  0
  -24.0510  -36.6830   23.0090 C   0  0  0  0  0  1  0  0  0  0  0  0
  -25.2710  -36.3080   23.8650 C   0  0  0  0  0  3  0  0  0  0  0  0
  -27.3510  -37.2490   24.7710 C   0  0  0  0  0  1  0  0  0  0  0  0
  -26.2820  -37.3840   23.7850 N   0  0  0  0  0  0  0  0  0  0  0  0
  -25.8500  -38.2950   23.9080 H   0  0  0  0  0  0  0  0  0  0  0  0
  2 49  1  0
  2  1  1  0
  2  3  1  6
  4  9  1  0
  4  2  1  0
  5  7  2  0
  5  9  1  0
  7 10  1  0
  8  6  1  0
  9  6  2  0
 10  8  2  0
 11 17  1  0
 12 17  1  0
 13 14  1  0
 13 12  1  0
 15 14  1  0
 15 24  1  0
 15 16  1  0
 17 16  1  0
 18 11  2  0
 19 20  1  0
 20 10  1  0
 20 11  1  0
 21 22  2  0
 22 41  1  0
 23 22  1  0
 23 26  1  0
 24 21  1  0
 24 25  1  0
 25 23  2  0
 26 27  1  0
 27 28  2  0
 29 32  1  0
 29 28  1  0
 30 29  2  0
 31 30  1  0
 31 26  2  0
 32 33  1  0
 33 38  2  0
 33 34  1  0
 34 35  2  0
 35 36  1  0
 36 40  1  0
 37 36  2  0
 38 37  1  0
 39 38  1  0
 41 42  1  0
 42 45  1  0
 42 44  1  0
 43 41  2  0
 46 47  1  0
 46 21  1  0
 48 46  1  0
 50 51  1  0
 50 49  1  0
 52 63  2  0
 53 51  1  0
 53 58  1  0
 54 62  1  0
 54 64  1  0
 55 61  1  0
 55 57  1  0
 56 62  1  0
 57 58  2  0
 57 56  1  0
 59 53  2  0
 60 59  1  0
 60 55  2  0
 61 54  1  0
 62 52  1  0
 64 66  2  0
 65 64  1  0
 67 65  1  0
 68 77  2  0
 68 73  1  0
 69 65  1  0
 69 73  1  0
 70 69  1  0
 71 72  1  0
 71 70  1  0
 72 68  1  0
 73 74  2  0
 74 75  1  0
 76 75  2  0
 77 76  1  0
 78 52  1  0
 78 83  1  0
 78 79  1  0
 79 82  1  1
 79 80  1  0
 81 79  1  0
 83 86  1  0
 84 88  1  0
 84 83  1  0
 85 84  2  0
 88 87  1  0
 90 88  1  0
 90 91  1  0
 90 89  1  0
M  ISO  4  11 100  20 100  50 101  51 101
M  END
>  <TORSDO>  (91) 
F 20

>  <SCORE>  (91) 
-13.032

>  <name>  (91) 
91

>  <ligand_id>  (91) 
91

>  <original_smiles>  (91) 
[H]c1c([H])c([H])c2c(c1[H])C([H])([H])C([H])([H])C([H])([H])C2([H])N([H])C(=O)C1([H])N(C(=O)C([H])(N([H])C(=O)C([H])(N([H])C([H])([H])[H])C([H])([H])[H])C(C([H])([H])[H])(C([H])([H])[H])C([H])([H])[H])C([H])([H])c2c([H])c(OC([H])([H])C([H])([H])[N+]([H])(C([H])([H])[H])C([H])([H])c3c([H])c([H])c(N(C(=O)N4C([H])([H])C([H])([H])C([H])([H])C([H])(n5nc(-c6c([H])c([H])c(Oc7c([H])c([H])c(F)c([H])c7F)c([H])c6[H])c(C(=O)N([H])[H])c5N([H])[H])C4([H])[H])C([H])([H])[H])c([H])c3[H])c([H])c([H])c2C1([H])[H]

>  <smiles>  (91) 
[H]c1c([H])c([H])c2c(c1[H])C([H])([H])C([H])([H])C([H])([H])C2([H])N([H])C(=O)C1([H])N(C(=O)C([H])(N([H])C(=O)C([H])(N([H])C([H])([H])[H])C([H])([H])[H])C(C([H])([H])[H])(C([H])([H])[H])C([H])([H])[H])C([H])([H])c2c([H])c(OC([H])([H])C([H])([H])[N+]([H])(C([H])([H])[H])C([H])([H])c3c([H])c([H])c(N(C(=O)N4C([H])([H])C([H])([H])C([H])([H])C([H])(n5nc(-c6c([H])c([H])c(Oc7c([H])c([H])c(F)c([H])c7F)c([H])c6[H])c(C(=O)N([H])[H])c5N([H])[H])C4([H])[H])C([H])([H])[H])c([H])c3[H])c([H])c([H])c2C1([H])[H]

$$$$
92:0:0
     RDKit          3D

 94102  0  0  1  0  0  0  0  0999 V2000
  -30.5600  -22.0030   18.8500 C   0  0  0  0  0  2  0  0  0  0  0  0
  -29.2170  -18.4200   18.9320 C   0  0  0  0  0  3  0  0  0  0  0  0
  -29.5930  -19.6920   18.4760 C   0  0  0  0  0  3  0  0  0  0  0  0
  -30.1160  -18.9420   21.1340 C   0  0  0  0  0  3  0  0  0  0  0  0
  -29.5400  -18.0050   20.2450 C   0  0  0  0  0  0  0  0  0  0  0  0
  -30.1900  -20.6170   19.3530 C   0  0  0  0  0  0  0  0  0  0  0  0
  -30.4250  -20.2460   20.6960 C   0  0  0  0  0  0  0  0  0  0  0  0
  -30.9740  -21.1330   21.5610 F   0  0  0  0  0  0  0  0  0  0  0  0
  -29.2830  -16.5590   20.6810 C   0  0  0  0  0  2  0  0  0  0  0  0
  -30.7900  -14.5780   20.8170 C   0  0  0  0  0  0  0  0  0  0  0  0
  -30.5600  -12.3470   19.8690 C   0  0  0  0  0  2  0  0  0  0  0  0
  -29.7140  -12.4600   18.5810 C   0  0  0  0  0  2  0  0  0  0  0  0
  -28.2110  -12.3530   18.9040 C   0  0  0  0  0  2  0  0  0  0  0  0
  -27.7720  -13.2720   20.0750 C   0  0  0  0  0  3  0  0  0  0  0  0
  -28.7420  -13.1890   21.2760 C   0  0  0  0  0  2  0  0  0  0  0  0
  -30.1030  -13.4090   20.7720 N   0  0  0  0  0  0  0  0  0  0  0  0
  -32.0220  -14.6130   20.8410 O   0  0  0  0  0  0  0  0  0  0  0  0
  -30.7930  -15.8550   18.7740 C   0  0  0  0  0  1  0  0  0  0  0  0
  -30.1840  -15.5430   20.0840 N   0  0  0  0  0  0  0  0  0  0  0  0
  -25.3370  -13.9010   20.6120 C   0  0  0  0  0  0  0  0  0  0  0  0
  -24.2410  -13.1390   20.9220 C   0  0  0  0  0  0  0  0  0  0  0  0
  -24.6980  -11.7870   20.9510 C   0  0  0  0  0  0  0  0  0  0  0  0
  -26.3910  -13.0140   20.4750 N   0  0  0  0  0  0  0  0  0  0  0  0
  -26.0070  -11.7400   20.7460 N   0  0  0  0  0  0  0  0  0  0  0  0
  -23.9570  -10.5290   21.1130 C   0  0  0  0  0  0  0  0  0  0  0  0
  -24.3390   -9.5710   22.0770 C   0  0  0  0  0  3  0  0  0  0  0  0
  -23.6010   -8.3750   22.2280 C   0  0  0  0  0  3  0  0  0  0  0  0
  -22.4700   -8.1330   21.4140 C   0  0  0  0  0  0  0  0  0  0  0  0
  -22.1110   -9.0840   20.4390 C   0  0  0  0  0  3  0  0  0  0  0  0
  -22.8460  -10.2690   20.2860 C   0  0  0  0  0  3  0  0  0  0  0  0
  -21.7080   -6.9920   21.4670 O   0  0  0  0  0  0  0  0  0  0  0  0
  -21.6130   -6.2460   22.6150 C   0  0  0  0  0  0  0  0  0  0  0  0
  -21.1570   -6.8030   23.8300 C   0  0  0  0  0  3  0  0  0  0  0  0
  -21.0080   -5.9830   24.9690 C   0  0  0  0  0  3  0  0  0  0  0  0
  -21.3050   -4.6100   24.8920 C   0  0  0  0  0  0  0  0  0  0  0  0
  -21.7500   -4.0530   23.6810 C   0  0  0  0  0  3  0  0  0  0  0  0
  -21.9030   -4.8710   22.5450 C   0  0  0  0  0  0  0  0  0  0  0  0
  -22.3130   -4.3230   21.3770 F   0  0  0  0  0  0  0  0  0  0  0  0
  -21.1570   -3.8190   25.9820 F   0  0  0  0  0  0  0  0  0  0  0  0
  -22.8260  -13.6210   21.0710 C   0  0  0  0  0  0  0  0  0  0  0  0
  -22.0350  -12.9440   21.8970 N   0  0  0  0  0  0  0  0  0  0  0  0
  -22.4270  -14.6280   20.4870 O   0  0  0  0  0  0  0  0  0  0  0  0
  -22.3730  -12.1310   22.3910 H   0  0  0  0  0  0  0  0  0  0  0  0
  -21.0830  -13.2430   22.0400 H   0  0  0  0  0  0  0  0  0  0  0  0
  -25.5190  -15.2650   20.4170 N   0  0  0  0  0  0  0  0  0  0  0  0
  -24.7430  -15.9150   20.4520 H   0  0  0  0  0  0  0  0  0  0  0  0
  -26.3840  -15.6930   20.1180 H   0  0  0  0  0  0  0  0  0  0  0  0
  -28.6910  -22.9080   17.4750 C   0  0  0  0  0  1  0  0  0  0  0  0
  -29.3620  -22.8790   18.8000 N   0  0  2  0  0  4  0  0  0  0  0  0
  -28.7090  -22.4430   19.4330 H   0  0  0  0  0  0  0  0  0  0  0  0
  -29.5700  -24.2410   19.3490 C   0  0  0  0  0  2  0  0  0  0  0  0
  -28.5970  -24.5050   20.5080 C   0  0  0  0  0  2  0  0  0  0  0  0
  -28.7310  -25.9170   21.0760 C   0  0  0  0  0  2  0  0  0  0  0  0
  -28.4640  -26.8440   20.0380 O   0  0  0  0  0  0  0  0  0  0  0  0
  -24.6150  -31.8840   23.2360 C   0  0  0  0  0  0  0  0  0  0  0  0
  -27.2660  -27.4960   20.1330 C   0  0  0  0  0  0  0  0  0  0  0  0
  -23.4010  -30.4780   21.6010 C   0  0  0  0  0  3  0  0  0  0  0  0
  -24.8510  -28.9400   20.1750 C   0  0  0  0  0  0  0  0  0  0  0  0
  -25.9180  -30.8540   21.3850 C   0  0  0  0  0  2  0  0  0  0  0  0
  -26.0030  -29.4820   20.7580 C   0  0  0  0  0  0  0  0  0  0  0  0
  -27.2140  -28.7650   20.7390 C   0  0  0  0  0  3  0  0  0  0  0  0
  -26.1020  -26.9420   19.5630 C   0  0  0  0  0  3  0  0  0  0  0  0
  -24.8890  -27.6620   19.5840 C   0  0  0  0  0  3  0  0  0  0  0  0
  -23.6030  -29.7920   20.2220 C   0  0  0  0  0  2  0  0  0  0  0  0
  -24.6630  -31.0870   22.1320 N   0  0  0  0  0  0  0  0  0  0  0  0
  -23.5380  -32.1520   23.7860 O   0  0  0  0  0  0  0  0  0  0  0  0
  -22.7620  -29.4570   22.5650 C   0  0  0  0  0  0  0  0  0  0  0  0
  -21.4380  -29.2700   22.4450 N   0  0  0  0  0  0  0  0  0  0  0  0
  -23.4530  -28.8350   23.3760 O   0  0  0  0  0  0  0  0  0  0  0  0
  -20.9450  -29.8190   21.7540 H   0  0  0  0  0  0  0  0  0  0  0  0
  -18.0700  -28.0690   22.9520 C   0  0  0  0  0  0  0  0  0  0  0  0
  -20.6260  -28.3320   23.2180 C   0  0  0  0  0  3  0  0  0  0  0  0
  -20.7330  -26.9010   22.6430 C   0  0  0  0  0  2  0  0  0  0  0  0
  -19.6280  -26.5750   21.6320 C   0  0  0  0  0  2  0  0  0  0  0  0
  -18.2480  -26.7180   22.2800 C   0  0  0  0  0  2  0  0  0  0  0  0
  -19.1880  -28.8340   23.3790 C   0  0  0  0  0  0  0  0  0  0  0  0
  -18.9680  -30.0990   23.9660 C   0  0  0  0  0  3  0  0  0  0  0  0
  -17.6640  -30.5970   24.1330 C   0  0  0  0  0  3  0  0  0  0  0  0
  -16.5600  -29.8300   23.7240 C   0  0  0  0  0  3  0  0  0  0  0  0
  -16.7640  -28.5680   23.1380 C   0  0  0  0  0  3  0  0  0  0  0  0
  -25.9080  -32.5130   23.8460 C   0  0  0  0  0  3  0  0  0  0  0  0
  -25.6000  -33.9100   24.1800 N   0  0  0  0  0  0  0  0  0  0  0  0
  -25.9310  -34.9630   23.4180 C   0  0  0  0  0  0  0  0  0  0  0  0
  -26.5990  -34.8610   22.3860 O   0  0  0  0  0  0  0  0  0  0  0  0
  -25.0050  -34.0660   24.9790 H   0  0  0  0  0  0  0  0  0  0  0  0
  -24.2020  -36.7520   23.0660 C   0  0  0  0  0  1  0  0  0  0  0  0
  -25.4450  -36.3510   23.8760 C   0  0  0  0  0  3  0  0  0  0  0  0
  -27.5820  -37.2340   24.7010 C   0  0  0  0  0  1  0  0  0  0  0  0
  -26.4770  -37.4050   23.7610 N   0  0  0  0  0  0  0  0  0  0  0  0
  -26.0700  -38.3240   23.9140 H   0  0  0  0  0  0  0  0  0  0  0  0
  -26.4400  -31.7380   25.1140 C   0  0  1  0  0  0  0  0  0  0  0  0
  -25.3580  -31.4930   26.1930 C   0  0  0  0  0  1  0  0  0  0  0  0
  -27.0220  -30.3650   24.7100 C   0  0  0  0  0  1  0  0  0  0  0  0
  -27.5990  -32.5320   25.7640 C   0  0  0  0  0  1  0  0  0  0  0  0
  1  6  1  0
  2  5  1  0
  3  2  2  0
  3  6  1  0
  5  9  1  0
  5  4  2  0
  6  7  2  0
  7  4  1  0
  7  8  1  0
 10 17  2  0
 11 16  1  0
 12 13  1  0
 12 11  1  0
 14 13  1  0
 14 23  1  0
 14 15  1  0
 16 10  1  0
 16 15  1  0
 18 19  1  0
 19  9  1  0
 19 10  1  0
 20 21  2  0
 21 22  1  0
 21 40  1  0
 22 25  1  0
 23 20  1  0
 23 24  1  0
 24 22  2  0
 25 26  1  0
 26 27  2  0
 28 31  1  0
 28 27  1  0
 29 28  2  0
 30 29  1  0
 30 25  2  0
 31 32  1  0
 32 33  1  0
 33 34  2  0
 35 34  1  0
 35 39  1  0
 36 35  2  0
 37 32  2  0
 37 36  1  0
 38 37  1  0
 40 41  1  0
 41 44  1  0
 41 43  1  0
 42 40  2  0
 45 46  1  0
 45 20  1  0
 47 45  1  0
 48 49  1  0
 49  1  1  0
 49 51  1  0
 49 50  1  1
 51 52  1  0
 52 53  1  0
 54 56  1  0
 54 53  1  0
 55 66  2  0
 56 61  1  0
 57 65  1  0
 57 67  1  0
 58 64  1  0
 58 60  1  0
 59 65  1  0
 60 59  1  0
 61 60  2  0
 62 63  1  0
 62 56  2  0
 63 58  2  0
 64 57  1  0
 65 55  1  0
 67 69  2  0
 68 67  1  0
 70 68  1  0
 71 80  2  0
 71 76  1  0
 72 68  1  0
 72 76  1  0
 73 72  1  0
 74 75  1  0
 74 73  1  0
 75 71  1  0
 76 77  2  0
 77 78  1  0
 79 78  2  0
 80 79  1  0
 81 55  1  0
 81 82  1  0
 81 91  1  0
 82 85  1  0
 83 87  1  0
 83 82  1  0
 84 83  2  0
 87 86  1  0
 89 87  1  0
 89 90  1  0
 89 88  1  0
 91 94  1  1
 91 92  1  0
 93 91  1  0
M  ISO  4  10 100  19 100  53 101  54 101
M  END
>  <TORSDO>  (92) 
F 22

>  <SCORE>  (92) 
-13.102

>  <name>  (92) 
92

>  <ligand_id>  (92) 
92

>  <original_smiles>  (92) 
[H]c1c([H])c([H])c2c(c1[H])C([H])([H])C([H])([H])C([H])([H])C2([H])N([H])C(=O)C1([H])N(C(=O)C([H])(N([H])C(=O)C([H])(N([H])C([H])([H])[H])C([H])([H])[H])C(C([H])([H])[H])(C([H])([H])[H])C([H])([H])[H])C([H])([H])c2c([H])c(OC([H])([H])C([H])([H])C([H])([H])[N+]([H])(C([H])([H])[H])C([H])([H])c3c([H])c([H])c(C([H])([H])N(C(=O)N4C([H])([H])C([H])([H])C([H])([H])C([H])(n5nc(-c6c([H])c([H])c(Oc7c([H])c([H])c(F)c([H])c7F)c([H])c6[H])c(C(=O)N([H])[H])c5N([H])[H])C4([H])[H])C([H])([H])[H])c([H])c3F)c([H])c([H])c2C1([H])[H]

>  <smiles>  (92) 
[H]c1c([H])c([H])c2c(c1[H])C([H])([H])C([H])([H])C([H])([H])C2([H])N([H])C(=O)C1([H])N(C(=O)C([H])(N([H])C(=O)C([H])(N([H])C([H])([H])[H])C([H])([H])[H])C(C([H])([H])[H])(C([H])([H])[H])C([H])([H])[H])C([H])([H])c2c([H])c(OC([H])([H])C([H])([H])C([H])([H])[N+]([H])(C([H])([H])[H])C([H])([H])c3c([H])c([H])c(C([H])([H])N(C(=O)N4C([H])([H])C([H])([H])C([H])([H])C([H])(n5nc(-c6c([H])c([H])c(Oc7c([H])c([H])c(F)c([H])c7F)c([H])c6[H])c(C(=O)N([H])[H])c5N([H])[H])C4([H])[H])C([H])([H])[H])c([H])c3F)c([H])c([H])c2C1([H])[H]

$$$$
93:0:0
     RDKit          3D

 94103  0  0  1  0  0  0  0  0999 V2000
  -27.6390  -23.0690   22.6470 C   0  0  0  0  0  2  0  0  0  0  0  0
  -28.0880  -24.4540   22.1950 C   0  0  0  0  0  2  0  0  0  0  0  0
  -27.6480  -22.2670   21.3500 C   0  0  0  0  0  2  0  0  0  0  0  0
  -28.9970  -24.2210   20.9680 C   0  0  0  0  0  3  0  0  0  0  0  0
  -28.8450  -22.7330   20.6130 N   0  0  1  0  0  4  0  0  0  0  0  0
  -28.6550  -22.6440   19.6250 H   0  0  0  0  0  0  0  0  0  0  0  0
  -30.0540  -21.8480   20.8880 C   0  0  0  0  0  2  0  0  0  0  0  0
  -29.0650  -19.5540   20.0120 C   0  0  0  0  0  3  0  0  0  0  0  0
  -29.1340  -18.1360   19.8910 C   0  0  0  0  0  3  0  0  0  0  0  0
  -30.9790  -18.0540   21.4280 C   0  0  0  0  0  3  0  0  0  0  0  0
  -29.9690  -20.2710   20.8330 C   0  0  0  0  0  0  0  0  0  0  0  0
  -30.1260  -17.3430   20.5440 C   0  0  0  0  0  0  0  0  0  0  0  0
  -30.9010  -19.4760   21.5640 C   0  0  0  0  0  0  0  0  0  0  0  0
  -31.7910  -20.0950   22.3760 F   0  0  0  0  0  0  0  0  0  0  0  0
  -30.9740  -14.9040   20.7690 C   0  0  0  0  0  0  0  0  0  0  0  0
  -30.8290  -12.5650   19.9470 C   0  0  0  0  0  2  0  0  0  0  0  0
  -29.9870  -12.4840   18.6520 C   0  0  0  0  0  2  0  0  0  0  0  0
  -28.4780  -12.4270   18.9620 C   0  0  0  0  0  2  0  0  0  0  0  0
  -28.0150  -13.4100   20.0730 C   0  0  0  0  0  3  0  0  0  0  0  0
  -28.9840  -13.4190   21.2740 C   0  0  0  0  0  2  0  0  0  0  0  0
  -30.3260  -13.6950   20.7480 N   0  0  0  0  0  0  0  0  0  0  0  0
  -32.2070  -14.9500   20.7790 O   0  0  0  0  0  0  0  0  0  0  0  0
  -30.3680  -15.8280   18.6570 C   0  0  0  0  0  1  0  0  0  0  0  0
  -30.3050  -15.9390   20.1320 N   0  0  0  0  0  0  0  0  0  0  0  0
  -25.5880  -14.0560   20.6110 C   0  0  0  0  0  0  0  0  0  0  0  0
  -24.4830  -13.3030   20.9000 C   0  0  0  0  0  0  0  0  0  0  0  0
  -24.9250  -11.9440   20.9270 C   0  0  0  0  0  0  0  0  0  0  0  0
  -26.6340  -13.1560   20.4730 N   0  0  0  0  0  0  0  0  0  0  0  0
  -26.2360  -11.8840   20.7300 N   0  0  0  0  0  0  0  0  0  0  0  0
  -24.1690  -10.6950   21.0700 C   0  0  0  0  0  0  0  0  0  0  0  0
  -24.5250   -9.7220   22.0300 C   0  0  0  0  0  3  0  0  0  0  0  0
  -23.7700   -8.5370   22.1610 C   0  0  0  0  0  3  0  0  0  0  0  0
  -22.6450   -8.3160   21.3320 C   0  0  0  0  0  0  0  0  0  0  0  0
  -22.3080   -9.2770   20.3620 C   0  0  0  0  0  3  0  0  0  0  0  0
  -23.0640  -10.4540   20.2280 C   0  0  0  0  0  3  0  0  0  0  0  0
  -21.8670   -7.1840   21.3720 O   0  0  0  0  0  0  0  0  0  0  0  0
  -21.7320   -6.4440   22.5200 C   0  0  0  0  0  0  0  0  0  0  0  0
  -21.2360   -7.0080   23.7160 C   0  0  0  0  0  3  0  0  0  0  0  0
  -21.0490   -6.1950   24.8520 C   0  0  0  0  0  3  0  0  0  0  0  0
  -21.3470   -4.8200   24.7920 C   0  0  0  0  0  0  0  0  0  0  0  0
  -21.8360   -4.2570   23.6000 C   0  0  0  0  0  3  0  0  0  0  0  0
  -22.0250   -5.0660   22.4660 C   0  0  0  0  0  0  0  0  0  0  0  0
  -22.4760   -4.5150   21.3140 F   0  0  0  0  0  0  0  0  0  0  0  0
  -21.1590   -4.0370   25.8800 F   0  0  0  0  0  0  0  0  0  0  0  0
  -23.0750  -13.8030   21.0470 C   0  0  0  0  0  0  0  0  0  0  0  0
  -22.2700  -13.1350   21.8660 N   0  0  0  0  0  0  0  0  0  0  0  0
  -22.6940  -14.8210   20.4690 O   0  0  0  0  0  0  0  0  0  0  0  0
  -22.5880  -12.3130   22.3570 H   0  0  0  0  0  0  0  0  0  0  0  0
  -21.3210  -13.4520   22.0070 H   0  0  0  0  0  0  0  0  0  0  0  0
  -25.7900  -15.4220   20.4310 N   0  0  0  0  0  0  0  0  0  0  0  0
  -25.0330  -16.0940   20.4840 H   0  0  0  0  0  0  0  0  0  0  0  0
  -26.6820  -15.8430   20.2080 H   0  0  0  0  0  0  0  0  0  0  0  0
  -28.6250  -25.2710   19.8310 C   0  0  0  0  0  2  0  0  0  0  0  0
  -28.6080  -26.7130   20.1910 O   0  0  0  0  0  0  0  0  0  0  0  0
  -24.6640  -31.9260   23.2100 C   0  0  0  0  0  0  0  0  0  0  0  0
  -27.4420  -27.4940   20.1190 C   0  0  0  0  0  0  0  0  0  0  0  0
  -23.5210  -30.5220   21.5330 C   0  0  0  0  0  3  0  0  0  0  0  0
  -25.0300  -29.0390   20.1020 C   0  0  0  0  0  0  0  0  0  0  0  0
  -26.0530  -30.9120   21.3910 C   0  0  0  0  0  2  0  0  0  0  0  0
  -26.1760  -29.5490   20.7250 C   0  0  0  0  0  0  0  0  0  0  0  0
  -27.3800  -28.7850   20.7280 C   0  0  0  0  0  3  0  0  0  0  0  0
  -26.2730  -27.0480   19.4550 C   0  0  0  0  0  3  0  0  0  0  0  0
  -25.0800  -27.7940   19.4620 C   0  0  0  0  0  3  0  0  0  0  0  0
  -23.7710  -29.8770   20.1460 C   0  0  0  0  0  2  0  0  0  0  0  0
  -24.7640  -31.1380   22.1010 N   0  0  0  0  0  0  0  0  0  0  0  0
  -23.5660  -32.1670   23.7320 O   0  0  0  0  0  0  0  0  0  0  0  0
  -22.8760  -29.4700   22.4660 C   0  0  0  0  0  0  0  0  0  0  0  0
  -21.5510  -29.2830   22.3410 N   0  0  0  0  0  0  0  0  0  0  0  0
  -23.5660  -28.8270   23.2620 O   0  0  0  0  0  0  0  0  0  0  0  0
  -21.0530  -29.8580   21.6760 H   0  0  0  0  0  0  0  0  0  0  0  0
  -18.1790  -28.0830   22.8630 C   0  0  0  0  0  0  0  0  0  0  0  0
  -20.7440  -28.3190   23.0900 C   0  0  0  0  0  3  0  0  0  0  0  0
  -20.8260  -26.9120   22.4550 C   0  0  0  0  0  2  0  0  0  0  0  0
  -19.7010  -26.6350   21.4520 C   0  0  0  0  0  2  0  0  0  0  0  0
  -18.3340  -26.7600   22.1300 C   0  0  0  0  0  2  0  0  0  0  0  0
  -19.3100  -28.8220   23.2990 C   0  0  0  0  0  0  0  0  0  0  0  0
  -19.1110  -30.0600   23.9460 C   0  0  0  0  0  3  0  0  0  0  0  0
  -17.8130  -30.5600   24.1610 C   0  0  0  0  0  3  0  0  0  0  0  0
  -16.6960  -29.8190   23.7400 C   0  0  0  0  0  3  0  0  0  0  0  0
  -16.8800  -28.5810   23.0970 C   0  0  0  0  0  3  0  0  0  0  0  0
  -25.9220  -32.5830   23.8590 C   0  0  0  0  0  3  0  0  0  0  0  0
  -26.4250  -31.8210   25.1460 C   0  0  1  0  0  0  0  0  0  0  0  0
  -25.3130  -31.5610   26.1900 C   0  0  0  0  0  1  0  0  0  0  0  0
  -27.0440  -30.4550   24.7670 C   0  0  0  0  0  1  0  0  0  0  0  0
  -27.5440  -32.6380   25.8330 C   0  0  0  0  0  1  0  0  0  0  0  0
  -25.5780  -33.9750   24.1840 N   0  0  0  0  0  0  0  0  0  0  0  0
  -25.9080  -35.0360   23.4350 C   0  0  0  0  0  0  0  0  0  0  0  0
  -26.6050  -34.9470   22.4200 O   0  0  0  0  0  0  0  0  0  0  0  0
  -24.9600  -34.1160   24.9700 H   0  0  0  0  0  0  0  0  0  0  0  0
  -24.1590  -36.8000   23.0370 C   0  0  0  0  0  1  0  0  0  0  0  0
  -25.3830  -36.4130   23.8830 C   0  0  0  0  0  3  0  0  0  0  0  0
  -27.4750  -37.3330   24.7810 C   0  0  0  0  0  1  0  0  0  0  0  0
  -26.4000  -37.4840   23.8040 N   0  0  0  0  0  0  0  0  0  0  0  0
  -25.9740  -38.3970   23.9420 H   0  0  0  0  0  0  0  0  0  0  0  0
  2  1  1  0
  3  1  1  0
  4 53  1  0
  4  2  1  0
  5  7  1  0
  5  4  1  0
  5  3  1  0
  5  6  1  6
  8 11  1  0
  9  8  2  0
  9 12  1  0
 10 13  1  0
 11  7  1  0
 11 13  2  0
 12 10  2  0
 13 14  1  0
 15 22  2  0
 16 21  1  0
 17 18  1  0
 17 16  1  0
 19 18  1  0
 19 28  1  0
 19 20  1  0
 21 15  1  0
 21 20  1  0
 23 24  1  0
 24 12  1  0
 24 15  1  0
 25 26  2  0
 26 27  1  0
 26 45  1  0
 27 30  1  0
 28 25  1  0
 28 29  1  0
 29 27  2  0
 30 31  1  0
 31 32  2  0
 33 36  1  0
 33 32  1  0
 34 33  2  0
 35 34  1  0
 35 30  2  0
 36 37  1  0
 37 38  1  0
 38 39  2  0
 40 39  1  0
 40 44  1  0
 41 40  2  0
 42 37  2  0
 42 41  1  0
 43 42  1  0
 45 46  1  0
 46 49  1  0
 46 48  1  0
 47 45  2  0
 50 51  1  0
 50 25  1  0
 52 50  1  0
 53 54  1  0
 55 66  2  0
 56 54  1  0
 56 61  1  0
 57 65  1  0
 57 67  1  0
 58 64  1  0
 58 60  1  0
 59 65  1  0
 60 61  2  0
 60 59  1  0
 62 63  1  0
 62 56  2  0
 63 58  2  0
 64 57  1  0
 65 55  1  0
 67 69  2  0
 68 67  1  0
 70 68  1  0
 71 80  2  0
 71 76  1  0
 72 68  1  0
 72 76  1  0
 73 72  1  0
 74 75  1  0
 74 73  1  0
 75 71  1  0
 76 77  2  0
 77 78  1  0
 79 78  2  0
 80 79  1  0
 81 55  1  0
 81 86  1  0
 81 82  1  0
 82 85  1  1
 82 83  1  0
 84 82  1  0
 86 89  1  0
 87 91  1  0
 87 86  1  0
 88 87  2  0
 91 90  1  0
 93 91  1  0
 93 94  1  0
 93 92  1  0
M  ISO  4  15 100  24 100  53 101  54 101
M  END
>  <TORSDO>  (93) 
F 19

>  <SCORE>  (93) 
-13.245

>  <name>  (93) 
93

>  <ligand_id>  (93) 
93

>  <original_smiles>  (93) 
[H]c1c([H])c([H])c2c(c1[H])C([H])([H])C([H])([H])C([H])([H])C2([H])N([H])C(=O)C1([H])N(C(=O)C([H])(N([H])C(=O)C([H])(N([H])C([H])([H])[H])C([H])([H])[H])C(C([H])([H])[H])(C([H])([H])[H])C([H])([H])[H])C([H])([H])c2c([H])c(OC([H])([H])C3([H])C([H])([H])C([H])([H])C([H])([H])[N+]3([H])C([H])([H])c3c([H])c([H])c(N(C(=O)N4C([H])([H])C([H])([H])C([H])([H])C([H])(n5nc(-c6c([H])c([H])c(Oc7c([H])c([H])c(F)c([H])c7F)c([H])c6[H])c(C(=O)N([H])[H])c5N([H])[H])C4([H])[H])C([H])([H])[H])c([H])c3F)c([H])c([H])c2C1([H])[H]

>  <smiles>  (93) 
[H]c1c([H])c([H])c2c(c1[H])C([H])([H])C([H])([H])C([H])([H])C2([H])N([H])C(=O)C1([H])N(C(=O)C([H])(N([H])C(=O)C([H])(N([H])C([H])([H])[H])C([H])([H])[H])C(C([H])([H])[H])(C([H])([H])[H])C([H])([H])[H])C([H])([H])c2c([H])c(OC([H])([H])C3([H])C([H])([H])C([H])([H])C([H])([H])[N+]3([H])C([H])([H])c3c([H])c([H])c(N(C(=O)N4C([H])([H])C([H])([H])C([H])([H])C([H])(n5nc(-c6c([H])c([H])c(Oc7c([H])c([H])c(F)c([H])c7F)c([H])c6[H])c(C(=O)N([H])[H])c5N([H])[H])C4([H])[H])C([H])([H])[H])c([H])c3F)c([H])c([H])c2C1([H])[H]

$$$$
94:0:0
     RDKit          3D

 93102  0  0  1  0  0  0  0  0999 V2000
  -28.9900  -19.4670   20.6830 C   0  0  0  0  0  3  0  0  0  0  0  0
  -28.9070  -18.0450   20.7820 C   0  0  0  0  0  3  0  0  0  0  0  0
  -31.2430  -17.8440   20.2740 C   0  0  0  0  0  3  0  0  0  0  0  0
  -31.3340  -19.2660   20.1860 C   0  0  0  0  0  0  0  0  0  0  0  0
  -30.2070  -20.1330   20.3800 C   0  0  0  0  0  0  0  0  0  0  0  0
  -30.0230  -17.1870   20.5670 C   0  0  0  0  0  0  0  0  0  0  0  0
  -31.5900  -22.1120   20.0920 C   0  0  0  0  0  0  0  0  0  0  0  0
  -32.6910  -19.8760   19.8900 C   0  0  0  0  0  2  0  0  0  0  0  0
  -32.5380  -21.2560   19.2580 C   0  0  0  0  0  2  0  0  0  0  0  0
  -30.3410  -21.6140   20.3060 N   0  0  0  0  0  0  0  0  0  0  0  0
  -32.0210  -23.1750   20.5520 O   0  0  0  0  0  0  0  0  0  0  0  0
  -30.5880  -14.6770   20.2100 C   0  0  0  0  0  0  0  0  0  0  0  0
  -30.2900  -12.4710   19.1000 C   0  0  0  0  0  2  0  0  0  0  0  0
  -29.3040  -12.6400   17.9230 C   0  0  0  0  0  2  0  0  0  0  0  0
  -27.8460  -12.4870   18.4010 C   0  0  0  0  0  2  0  0  0  0  0  0
  -27.5440  -13.3150   19.6800 C   0  0  0  0  0  3  0  0  0  0  0  0
  -28.6480  -13.1330   20.7480 C   0  0  0  0  0  2  0  0  0  0  0  0
  -29.9380  -13.4720   20.1270 N   0  0  0  0  0  0  0  0  0  0  0  0
  -31.7240  -14.8170   19.7490 O   0  0  0  0  0  0  0  0  0  0  0  0
  -29.8520  -15.7340   20.6770 N   0  0  0  0  0  0  0  0  0  0  0  0
  -28.9560  -15.4470   21.0400 H   0  0  0  0  0  0  0  0  0  0  0  0
  -25.1840  -13.8990   20.5150 C   0  0  0  0  0  0  0  0  0  0  0  0
  -24.1300  -13.1200   20.9100 C   0  0  0  0  0  0  0  0  0  0  0  0
  -24.5850  -11.7680   20.8240 C   0  0  0  0  0  0  0  0  0  0  0  0
  -26.2140  -13.0230   20.2140 N   0  0  0  0  0  0  0  0  0  0  0  0
  -25.8610  -11.7340   20.4590 N   0  0  0  0  0  0  0  0  0  0  0  0
  -23.8590  -10.5050   21.0120 C   0  0  0  0  0  0  0  0  0  0  0  0
  -24.3070   -9.5270   21.9280 C   0  0  0  0  0  3  0  0  0  0  0  0
  -23.5840   -8.3280   22.1060 C   0  0  0  0  0  3  0  0  0  0  0  0
  -22.3980   -8.0980   21.3690 C   0  0  0  0  0  0  0  0  0  0  0  0
  -21.9700   -9.0640   20.4420 C   0  0  0  0  0  3  0  0  0  0  0  0
  -22.6940  -10.2550   20.2620 C   0  0  0  0  0  3  0  0  0  0  0  0
  -21.6470   -6.9500   21.4560 O   0  0  0  0  0  0  0  0  0  0  0  0
  -21.5850   -6.2170   22.6130 C   0  0  0  0  0  0  0  0  0  0  0  0
  -21.1020   -6.7680   23.8200 C   0  0  0  0  0  3  0  0  0  0  0  0
  -20.9880   -5.9590   24.9690 C   0  0  0  0  0  3  0  0  0  0  0  0
  -21.3480   -4.5990   24.9110 C   0  0  0  0  0  0  0  0  0  0  0  0
  -21.8250   -4.0480   23.7090 C   0  0  0  0  0  3  0  0  0  0  0  0
  -21.9400   -4.8540   22.5630 C   0  0  0  0  0  0  0  0  0  0  0  0
  -22.3790   -4.3110   21.4020 F   0  0  0  0  0  0  0  0  0  0  0  0
  -21.2320   -3.8200   26.0120 F   0  0  0  0  0  0  0  0  0  0  0  0
  -22.7470  -13.5960   21.2510 C   0  0  0  0  0  0  0  0  0  0  0  0
  -22.0560  -12.8840   22.1350 N   0  0  0  0  0  0  0  0  0  0  0  0
  -22.2910  -14.6330   20.7730 O   0  0  0  0  0  0  0  0  0  0  0  0
  -22.4380  -12.0460   22.5470 H   0  0  0  0  0  0  0  0  0  0  0  0
  -21.1290  -13.1840   22.4040 H   0  0  0  0  0  0  0  0  0  0  0  0
  -25.3450  -15.2730   20.3630 N   0  0  0  0  0  0  0  0  0  0  0  0
  -24.5790  -15.9230   20.5040 H   0  0  0  0  0  0  0  0  0  0  0  0
  -26.1650  -15.7140   19.9680 H   0  0  0  0  0  0  0  0  0  0  0  0
  -29.1600  -22.5660   20.4280 C   0  0  0  0  0  2  0  0  0  0  0  0
  -29.3730  -24.1610   20.3480 C   0  0  0  0  0  3  0  0  0  0  0  0
  -28.1370  -25.1000   20.0620 C   0  0  0  0  0  3  0  0  0  0  0  0
  -28.3350  -26.5540   20.2130 O   0  0  0  0  0  0  0  0  0  0  0  0
  -24.6010  -31.9100   23.2590 C   0  0  0  0  0  0  0  0  0  0  0  0
  -27.2040  -27.3810   20.1700 C   0  0  0  0  0  0  0  0  0  0  0  0
  -23.3940  -30.5270   21.6100 C   0  0  0  0  0  3  0  0  0  0  0  0
  -24.8370  -28.9840   20.1740 C   0  0  0  0  0  0  0  0  0  0  0  0
  -25.9320  -30.8430   21.4270 C   0  0  0  0  0  2  0  0  0  0  0  0
  -26.0070  -29.4710   20.7710 C   0  0  0  0  0  0  0  0  0  0  0  0
  -27.1930  -28.6820   20.7570 C   0  0  0  0  0  3  0  0  0  0  0  0
  -26.0070  -26.9390   19.5590 C   0  0  0  0  0  3  0  0  0  0  0  0
  -24.8370  -27.7220   19.5620 C   0  0  0  0  0  3  0  0  0  0  0  0
  -23.6020  -29.8610   20.2250 C   0  0  0  0  0  2  0  0  0  0  0  0
  -24.6610  -31.1100   22.1550 N   0  0  0  0  0  0  0  0  0  0  0  0
  -23.5180  -32.1880   23.7940 O   0  0  0  0  0  0  0  0  0  0  0  0
  -22.7280  -29.5050   22.5610 C   0  0  0  0  0  0  0  0  0  0  0  0
  -21.4020  -29.3310   22.4260 N   0  0  0  0  0  0  0  0  0  0  0  0
  -23.4010  -28.8720   23.3770 O   0  0  0  0  0  0  0  0  0  0  0  0
  -20.9180  -29.8920   21.7380 H   0  0  0  0  0  0  0  0  0  0  0  0
  -18.0150  -28.1680   22.9190 C   0  0  0  0  0  0  0  0  0  0  0  0
  -20.5760  -28.3940   23.1870 C   0  0  0  0  0  3  0  0  0  0  0  0
  -20.6600  -26.9680   22.5950 C   0  0  0  0  0  2  0  0  0  0  0  0
  -19.5520  -26.6710   21.5790 C   0  0  0  0  0  2  0  0  0  0  0  0
  -18.1730  -26.8250   22.2270 C   0  0  0  0  0  2  0  0  0  0  0  0
  -19.1430  -28.9120   23.3560 C   0  0  0  0  0  0  0  0  0  0  0  0
  -18.9400  -30.1700   23.9630 C   0  0  0  0  0  3  0  0  0  0  0  0
  -17.6410  -30.6840   24.1390 C   0  0  0  0  0  3  0  0  0  0  0  0
  -16.5270  -29.9360   23.7180 C   0  0  0  0  0  3  0  0  0  0  0  0
  -16.7140  -28.6800   23.1150 C   0  0  0  0  0  3  0  0  0  0  0  0
  -25.8860  -32.5320   23.8880 C   0  0  0  0  0  3  0  0  0  0  0  0
  -26.3870  -31.7560   25.1680 C   0  0  1  0  0  0  0  0  0  0  0  0
  -25.2840  -31.5290   26.2280 C   0  0  0  0  0  1  0  0  0  0  0  0
  -26.9590  -30.3730   24.7790 C   0  0  0  0  0  1  0  0  0  0  0  0
  -27.5400  -32.5400   25.8360 C   0  0  0  0  0  1  0  0  0  0  0  0
  -25.5830  -33.9320   24.2180 N   0  0  0  0  0  0  0  0  0  0  0  0
  -25.9040  -34.9820   23.4510 C   0  0  0  0  0  0  0  0  0  0  0  0
  -26.5580  -34.8740   22.4110 O   0  0  0  0  0  0  0  0  0  0  0  0
  -24.9980  -34.0890   25.0270 H   0  0  0  0  0  0  0  0  0  0  0  0
  -24.1700  -36.7730   23.1250 C   0  0  0  0  0  1  0  0  0  0  0  0
  -25.4270  -36.3720   23.9130 C   0  0  0  0  0  3  0  0  0  0  0  0
  -27.5760  -37.2640   24.6980 C   0  0  0  0  0  1  0  0  0  0  0  0
  -26.4580  -37.4250   23.7730 N   0  0  0  0  0  0  0  0  0  0  0  0
  -26.0540  -38.3460   23.9190 H   0  0  0  0  0  0  0  0  0  0  0  0
  1  2  1  0
  3  6  1  0
  4  3  2  0
  4  5  1  0
  5  1  2  0
  6 20  1  0
  6  2  2  0
  7 10  1  0
  7 11  2  0
  8  4  1  0
  9  8  1  0
  9  7  1  0
 10  5  1  0
 10 50  1  0
 12 20  1  0
 13 18  1  0
 14 15  1  0
 14 13  1  0
 16 15  1  0
 16 25  1  0
 16 17  1  0
 18 12  1  0
 18 17  1  0
 19 12  2  0
 20 21  1  0
 22 23  2  0
 23 42  1  0
 24 23  1  0
 24 27  1  0
 25 26  1  0
 25 22  1  0
 26 24  2  0
 27 28  1  0
 28 29  2  0
 30 33  1  0
 30 29  1  0
 31 30  2  0
 32 31  1  0
 32 27  2  0
 33 34  1  0
 34 35  1  0
 35 36  2  0
 37 36  1  0
 37 41  1  0
 38 37  2  0
 39 34  2  0
 39 38  1  0
 40 39  1  0
 42 43  1  0
 43 46  1  0
 43 45  1  0
 44 42  2  0
 47 48  1  0
 47 22  1  0
 49 47  1  0
 51 50  1  0
 52 53  1  0
 52 51  2  0
 54 65  2  0
 55 53  1  0
 55 60  1  0
 56 64  1  0
 56 66  1  0
 57 63  1  0
 57 59  1  0
 58 64  1  0
 59 58  1  0
 60 59  2  0
 61 62  1  0
 61 55  2  0
 62 57  2  0
 63 56  1  0
 64 54  1  0
 66 68  2  0
 67 66  1  0
 69 67  1  0
 70 79  2  0
 70 75  1  0
 71 67  1  0
 71 75  1  0
 72 71  1  0
 73 74  1  0
 73 72  1  0
 74 70  1  0
 75 76  2  0
 76 77  1  0
 78 77  2  0
 79 78  1  0
 80 54  1  0
 80 85  1  0
 80 81  1  0
 81 84  1  1
 81 82  1  0
 83 81  1  0
 85 88  1  0
 86 90  1  0
 86 85  1  0
 87 86  2  0
 90 89  1  0
 92 90  1  0
 92 93  1  0
 92 91  1  0
M  ISO  4  12 100  20 100  52 101  53 101
M  END
>  <TORSDO>  (94) 
F 19

>  <SCORE>  (94) 
-14.297

>  <name>  (94) 
94

>  <ligand_id>  (94) 
94

>  <original_smiles>  (94) 
[H]c1c([H])c([H])c2c(c1[H])C([H])([H])C([H])([H])C([H])([H])C2([H])N([H])C(=O)C1([H])N(C(=O)C([H])(N([H])C(=O)C([H])(N([H])C([H])([H])[H])C([H])([H])[H])C(C([H])([H])[H])(C([H])([H])[H])C([H])([H])[H])C([H])([H])c2c([H])c(OC([H])([H])C([H])([H])C([H])([H])N3C(=O)C([H])([H])C([H])([H])c4c([H])c(N([H])C(=O)N5C([H])([H])C([H])([H])C([H])([H])C([H])(n6nc(-c7c([H])c([H])c(Oc8c([H])c([H])c(F)c([H])c8F)c([H])c7[H])c(C(=O)N([H])[H])c6N([H])[H])C5([H])[H])c([H])c([H])c43)c([H])c([H])c2C1([H])[H]

>  <smiles>  (94) 
[H]c1c([H])c([H])c2c(c1[H])C([H])([H])C([H])([H])C([H])([H])C2([H])N([H])C(=O)C1([H])N(C(=O)C([H])(N([H])C(=O)C([H])(N([H])C([H])([H])[H])C([H])([H])[H])C(C([H])([H])[H])(C([H])([H])[H])C([H])([H])[H])C([H])([H])c2c([H])c(OC([H])([H])C([H])([H])C([H])([H])N3C(=O)C([H])([H])C([H])([H])c4c([H])c(N([H])C(=O)N5C([H])([H])C([H])([H])C([H])([H])C([H])(n6nc(-c7c([H])c([H])c(Oc8c([H])c([H])c(F)c([H])c8F)c([H])c7[H])c(C(=O)N([H])[H])c6N([H])[H])C5([H])[H])c([H])c([H])c43)c([H])c([H])c2C1([H])[H]

$$$$
95:0:0
     RDKit          3D

 93102  0  0  1  0  0  0  0  0999 V2000
  -28.2130  -23.3270   22.6370 C   0  0  0  0  0  2  0  0  0  0  0  0
  -29.3270  -24.2400   22.1170 C   0  0  0  0  0  2  0  0  0  0  0  0
  -28.4020  -22.0810   21.7700 C   0  0  0  0  0  2  0  0  0  0  0  0
  -29.2480  -24.0380   20.5940 C   0  0  0  0  0  3  0  0  0  0  0  0
  -28.8980  -22.5510   20.4460 N   0  0  1  0  0  4  0  0  0  0  0  0
  -28.1240  -22.4860   19.8000 H   0  0  0  0  0  0  0  0  0  0  0  0
  -29.9700  -21.6380   19.8740 C   0  0  0  0  0  2  0  0  0  0  0  0
  -30.9080  -19.3790   20.8190 C   0  0  0  0  0  3  0  0  0  0  0  0
  -28.8930  -19.2690   19.5110 C   0  0  0  0  0  3  0  0  0  0  0  0
  -30.9170  -17.9560   20.9430 C   0  0  0  0  0  3  0  0  0  0  0  0
  -28.8900  -17.8530   19.6490 C   0  0  0  0  0  3  0  0  0  0  0  0
  -29.8970  -20.0770   20.0980 C   0  0  0  0  0  0  0  0  0  0  0  0
  -29.9000  -17.1540   20.3600 C   0  0  0  0  0  0  0  0  0  0  0  0
  -30.6330  -14.6690   20.3540 C   0  0  0  0  0  0  0  0  0  0  0  0
  -30.4340  -12.4300   19.3060 C   0  0  0  0  0  2  0  0  0  0  0  0
  -29.4970  -12.5790   18.0880 C   0  0  0  0  0  2  0  0  0  0  0  0
  -28.0190  -12.4230   18.5080 C   0  0  0  0  0  2  0  0  0  0  0  0
  -27.6550  -13.2790   19.7500 C   0  0  0  0  0  3  0  0  0  0  0  0
  -28.7090  -13.1150   20.8670 C   0  0  0  0  0  2  0  0  0  0  0  0
  -30.0250  -13.4430   20.2940 N   0  0  0  0  0  0  0  0  0  0  0  0
  -31.8160  -14.8280   20.0420 O   0  0  0  0  0  0  0  0  0  0  0  0
  -29.7730  -15.7130   20.5460 N   0  0  0  0  0  0  0  0  0  0  0  0
  -28.8250  -15.3830   20.6490 H   0  0  0  0  0  0  0  0  0  0  0  0
  -25.2570  -13.8890   20.4490 C   0  0  0  0  0  0  0  0  0  0  0  0
  -24.1870  -13.1200   20.8240 C   0  0  0  0  0  0  0  0  0  0  0  0
  -24.6490  -11.7680   20.8090 C   0  0  0  0  0  0  0  0  0  0  0  0
  -26.3010  -13.0040   20.2300 N   0  0  0  0  0  0  0  0  0  0  0  0
  -25.9410  -11.7240   20.5070 N   0  0  0  0  0  0  0  0  0  0  0  0
  -23.9190  -10.5090   21.0030 C   0  0  0  0  0  0  0  0  0  0  0  0
  -24.3410   -9.5520   21.9500 C   0  0  0  0  0  3  0  0  0  0  0  0
  -23.6130   -8.3570   22.1320 C   0  0  0  0  0  3  0  0  0  0  0  0
  -22.4500   -8.1110   21.3650 C   0  0  0  0  0  0  0  0  0  0  0  0
  -22.0470   -9.0570   20.4070 C   0  0  0  0  0  3  0  0  0  0  0  0
  -22.7760  -10.2440   20.2240 C   0  0  0  0  0  3  0  0  0  0  0  0
  -21.6940   -6.9690   21.4550 O   0  0  0  0  0  0  0  0  0  0  0  0
  -21.6260   -6.2390   22.6160 C   0  0  0  0  0  0  0  0  0  0  0  0
  -21.1670   -6.8040   23.8260 C   0  0  0  0  0  3  0  0  0  0  0  0
  -21.0470   -6.0010   24.9770 C   0  0  0  0  0  3  0  0  0  0  0  0
  -21.3760   -4.6330   24.9200 C   0  0  0  0  0  0  0  0  0  0  0  0
  -21.8280   -4.0680   23.7150 C   0  0  0  0  0  3  0  0  0  0  0  0
  -21.9490   -4.8680   22.5660 C   0  0  0  0  0  0  0  0  0  0  0  0
  -22.3650   -4.3130   21.4020 F   0  0  0  0  0  0  0  0  0  0  0  0
  -21.2520   -3.8600   26.0230 F   0  0  0  0  0  0  0  0  0  0  0  0
  -22.7900  -13.6040   21.0800 C   0  0  0  0  0  0  0  0  0  0  0  0
  -22.0530  -12.9200   21.9490 N   0  0  0  0  0  0  0  0  0  0  0  0
  -22.3600  -14.6250   20.5470 O   0  0  0  0  0  0  0  0  0  0  0  0
  -22.4120  -12.0960   22.4090 H   0  0  0  0  0  0  0  0  0  0  0  0
  -21.1140  -13.2280   22.1570 H   0  0  0  0  0  0  0  0  0  0  0  0
  -25.4210  -15.2570   20.2530 N   0  0  0  0  0  0  0  0  0  0  0  0
  -24.6330  -15.8950   20.3060 H   0  0  0  0  0  0  0  0  0  0  0  0
  -26.2490  -15.6910   19.8680 H   0  0  0  0  0  0  0  0  0  0  0  0
  -28.1770  -25.0670   20.0010 C   0  0  0  0  0  2  0  0  0  0  0  0
  -28.3960  -26.5240   20.1640 O   0  0  0  0  0  0  0  0  0  0  0  0
  -24.6580  -31.8780   23.2180 C   0  0  0  0  0  0  0  0  0  0  0  0
  -27.2720  -27.3630   20.1130 C   0  0  0  0  0  0  0  0  0  0  0  0
  -23.4470  -30.4960   21.5670 C   0  0  0  0  0  3  0  0  0  0  0  0
  -24.8990  -28.9630   20.1220 C   0  0  0  0  0  0  0  0  0  0  0  0
  -25.9860  -30.8200   21.3760 C   0  0  0  0  0  2  0  0  0  0  0  0
  -26.0680  -29.4500   20.7190 C   0  0  0  0  0  0  0  0  0  0  0  0
  -27.2570  -28.6620   20.7070 C   0  0  0  0  0  3  0  0  0  0  0  0
  -26.0770  -26.9280   19.4890 C   0  0  0  0  0  3  0  0  0  0  0  0
  -24.9080  -27.7080   19.4990 C   0  0  0  0  0  3  0  0  0  0  0  0
  -23.6590  -29.8340   20.1800 C   0  0  0  0  0  2  0  0  0  0  0  0
  -24.7160  -31.0820   22.1110 N   0  0  0  0  0  0  0  0  0  0  0  0
  -23.5780  -32.1460   23.7640 O   0  0  0  0  0  0  0  0  0  0  0  0
  -22.7960  -29.4630   22.5190 C   0  0  0  0  0  0  0  0  0  0  0  0
  -21.4690  -29.2830   22.4040 N   0  0  0  0  0  0  0  0  0  0  0  0
  -23.4850  -28.8250   23.3190 O   0  0  0  0  0  0  0  0  0  0  0  0
  -20.9680  -29.8520   21.7330 H   0  0  0  0  0  0  0  0  0  0  0  0
  -18.0990  -28.0890   22.9340 C   0  0  0  0  0  0  0  0  0  0  0  0
  -20.6610  -28.3390   23.1760 C   0  0  0  0  0  3  0  0  0  0  0  0
  -20.7480  -26.9090   22.5870 C   0  0  0  0  0  2  0  0  0  0  0  0
  -19.6360  -26.6030   21.5790 C   0  0  0  0  0  2  0  0  0  0  0  0
  -18.2620  -26.7470   22.2390 C   0  0  0  0  0  2  0  0  0  0  0  0
  -19.2240  -28.8430   23.3600 C   0  0  0  0  0  0  0  0  0  0  0  0
  -19.0130  -30.1010   23.9660 C   0  0  0  0  0  3  0  0  0  0  0  0
  -17.7110  -30.6040   24.1490 C   0  0  0  0  0  3  0  0  0  0  0  0
  -16.6010  -29.8460   23.7390 C   0  0  0  0  0  3  0  0  0  0  0  0
  -16.7950  -28.5890   23.1390 C   0  0  0  0  0  3  0  0  0  0  0  0
  -25.9440  -32.5100   23.8350 C   0  0  0  0  0  3  0  0  0  0  0  0
  -26.4690  -31.7350   25.1060 C   0  0  1  0  0  0  0  0  0  0  0  0
  -25.3790  -31.4940   26.1770 C   0  0  0  0  0  1  0  0  0  0  0  0
  -27.0520  -30.3610   24.7040 C   0  0  0  0  0  1  0  0  0  0  0  0
  -27.6230  -32.5280   25.7660 C   0  0  0  0  0  1  0  0  0  0  0  0
  -25.6360  -33.9060   24.1760 N   0  0  0  0  0  0  0  0  0  0  0  0
  -25.9540  -34.9640   23.4180 C   0  0  0  0  0  0  0  0  0  0  0  0
  -26.6090  -34.8670   22.3760 O   0  0  0  0  0  0  0  0  0  0  0  0
  -25.0600  -34.0540   24.9920 H   0  0  0  0  0  0  0  0  0  0  0  0
  -24.2140  -36.7520   23.0940 C   0  0  0  0  0  1  0  0  0  0  0  0
  -25.4680  -36.3500   23.8890 C   0  0  0  0  0  3  0  0  0  0  0  0
  -27.6090  -37.2370   24.6990 C   0  0  0  0  0  1  0  0  0  0  0  0
  -26.4960  -37.4050   23.7690 N   0  0  0  0  0  0  0  0  0  0  0  0
  -26.0910  -38.3230   23.9300 H   0  0  0  0  0  0  0  0  0  0  0  0
  2  1  1  0
  3  1  1  0
  4 52  1  0
  4  2  1  0
  5  4  1  0
  5  3  1  0
  5  6  1  6
  7 12  1  0
  7  5  1  0
  8 10  1  0
  9 11  2  0
  9 12  1  0
 11 13  1  0
 12  8  2  0
 13 22  1  0
 13 10  2  0
 14 22  1  0
 15 20  1  0
 16 17  1  0
 16 15  1  0
 18 17  1  0
 18 27  1  0
 18 19  1  0
 20 14  1  0
 20 19  1  0
 21 14  2  0
 22 23  1  0
 24 25  2  0
 25 44  1  0
 26 25  1  0
 26 29  1  0
 27 24  1  0
 27 28  1  0
 28 26  2  0
 29 30  1  0
 30 31  2  0
 32 35  1  0
 32 31  1  0
 33 32  2  0
 34 33  1  0
 34 29  2  0
 35 36  1  0
 36 37  1  0
 37 38  2  0
 39 38  1  0
 39 43  1  0
 40 39  2  0
 41 36  2  0
 41 40  1  0
 42 41  1  0
 44 45  1  0
 45 48  1  0
 45 47  1  0
 46 44  2  0
 49 50  1  0
 49 24  1  0
 51 49  1  0
 52 53  1  0
 54 65  2  0
 55 53  1  0
 55 60  1  0
 56 64  1  0
 56 66  1  0
 57 63  1  0
 57 59  1  0
 58 64  1  0
 59 58  1  0
 60 59  2  0
 61 62  1  0
 61 55  2  0
 62 57  2  0
 63 56  1  0
 64 54  1  0
 66 68  2  0
 67 66  1  0
 69 67  1  0
 70 79  2  0
 70 75  1  0
 71 67  1  0
 71 75  1  0
 72 71  1  0
 73 74  1  0
 73 72  1  0
 74 70  1  0
 75 76  2  0
 76 77  1  0
 78 77  2  0
 79 78  1  0
 80 54  1  0
 80 85  1  0
 80 81  1  0
 81 84  1  1
 81 82  1  0
 83 81  1  0
 85 88  1  0
 86 90  1  0
 86 85  1  0
 87 86  2  0
 90 89  1  0
 92 90  1  0
 92 93  1  0
 92 91  1  0
M  ISO  4  14 100  22 100  52 101  53 101
M  END
>  <TORSDO>  (95) 
F 19

>  <SCORE>  (95) 
-14.020

>  <name>  (95) 
95

>  <ligand_id>  (95) 
95

>  <original_smiles>  (95) 
[H]c1c([H])c([H])c2c(c1[H])C([H])([H])C([H])([H])C([H])([H])C2([H])N([H])C(=O)C1([H])N(C(=O)C([H])(N([H])C(=O)C([H])(N([H])C([H])([H])[H])C([H])([H])[H])C(C([H])([H])[H])(C([H])([H])[H])C([H])([H])[H])C([H])([H])c2c([H])c(OC([H])([H])C3([H])C([H])([H])C([H])([H])C([H])([H])[N+]3([H])C([H])([H])c3c([H])c([H])c(N([H])C(=O)N4C([H])([H])C([H])([H])C([H])([H])C([H])(n5nc(-c6c([H])c([H])c(Oc7c([H])c([H])c(F)c([H])c7F)c([H])c6[H])c(C(=O)N([H])[H])c5N([H])[H])C4([H])[H])c([H])c3[H])c([H])c([H])c2C1([H])[H]

>  <smiles>  (95) 
[H]c1c([H])c([H])c2c(c1[H])C([H])([H])C([H])([H])C([H])([H])C2([H])N([H])C(=O)C1([H])N(C(=O)C([H])(N([H])C(=O)C([H])(N([H])C([H])([H])[H])C([H])([H])[H])C(C([H])([H])[H])(C([H])([H])[H])C([H])([H])[H])C([H])([H])c2c([H])c(OC([H])([H])C3([H])C([H])([H])C([H])([H])C([H])([H])[N+]3([H])C([H])([H])c3c([H])c([H])c(N([H])C(=O)N4C([H])([H])C([H])([H])C([H])([H])C([H])(n5nc(-c6c([H])c([H])c(Oc7c([H])c([H])c(F)c([H])c7F)c([H])c6[H])c(C(=O)N([H])[H])c5N([H])[H])C4([H])[H])c([H])c3[H])c([H])c([H])c2C1([H])[H]

$$$$
96:0:0
     RDKit          3D

 95104  0  0  1  0  0  0  0  0999 V2000
  -27.5530  -21.4490   19.3140 C   0  0  0  0  0  1  0  0  0  0  0  0
  -28.9280  -22.0220   19.2950 N   0  0  2  0  0  4  0  0  0  0  0  0
  -29.2140  -22.0910   20.2590 H   0  0  0  0  0  0  0  0  0  0  0  0
  -30.3210  -24.0980   18.7460 C   0  0  0  0  0  2  0  0  0  0  0  0
  -30.0330  -25.6080   18.7400 C   0  0  0  0  0  2  0  0  0  0  0  0
  -28.0890  -24.3910   19.5440 C   0  0  0  0  0  2  0  0  0  0  0  0
  -28.9470  -23.4060   18.7410 C   0  0  0  0  0  3  0  0  0  0  0  0
  -28.5330  -25.7670   19.0350 C   0  0  0  0  0  3  0  0  0  0  0  0
  -28.3370  -26.8010   19.9950 O   0  0  0  0  0  0  0  0  0  0  0  0
  -24.5520  -31.8710   23.2130 C   0  0  0  0  0  0  0  0  0  0  0  0
  -27.1300  -27.4660   20.0310 C   0  0  0  0  0  0  0  0  0  0  0  0
  -23.3080  -30.4900   21.5800 C   0  0  0  0  0  3  0  0  0  0  0  0
  -24.7280  -28.9570   20.1220 C   0  0  0  0  0  0  0  0  0  0  0  0
  -25.8300  -30.8380   21.3440 C   0  0  0  0  0  2  0  0  0  0  0  0
  -25.8950  -29.4720   20.7000 C   0  0  0  0  0  0  0  0  0  0  0  0
  -27.0910  -28.7230   20.6690 C   0  0  0  0  0  3  0  0  0  0  0  0
  -25.9400  -26.9620   19.4510 C   0  0  0  0  0  3  0  0  0  0  0  0
  -24.7430  -27.6970   19.5040 C   0  0  0  0  0  3  0  0  0  0  0  0
  -23.4870  -29.8180   20.1920 C   0  0  0  0  0  2  0  0  0  0  0  0
  -24.5820  -31.0810   22.1040 N   0  0  0  0  0  0  0  0  0  0  0  0
  -23.4810  -32.1470   23.7720 O   0  0  0  0  0  0  0  0  0  0  0  0
  -22.6700  -29.4640   22.5440 C   0  0  0  0  0  0  0  0  0  0  0  0
  -21.3450  -29.2830   22.4290 N   0  0  0  0  0  0  0  0  0  0  0  0
  -23.3630  -28.8320   23.3460 O   0  0  0  0  0  0  0  0  0  0  0  0
  -20.8490  -29.8440   21.7510 H   0  0  0  0  0  0  0  0  0  0  0  0
  -17.9750  -28.0870   22.9480 C   0  0  0  0  0  0  0  0  0  0  0  0
  -20.5340  -28.3440   23.2040 C   0  0  0  0  0  3  0  0  0  0  0  0
  -20.6340  -26.9140   22.6250 C   0  0  0  0  0  2  0  0  0  0  0  0
  -19.5250  -26.5930   21.6180 C   0  0  0  0  0  2  0  0  0  0  0  0
  -18.1470  -26.7390   22.2700 C   0  0  0  0  0  2  0  0  0  0  0  0
  -19.0970  -28.8480   23.3720 C   0  0  0  0  0  0  0  0  0  0  0  0
  -18.8830  -30.1110   23.9660 C   0  0  0  0  0  3  0  0  0  0  0  0
  -17.5790  -30.6160   24.1350 C   0  0  0  0  0  3  0  0  0  0  0  0
  -16.4720  -29.8510   23.7260 C   0  0  0  0  0  3  0  0  0  0  0  0
  -16.6710  -28.5880   23.1420 C   0  0  0  0  0  3  0  0  0  0  0  0
  -25.8520  -32.4880   23.8140 C   0  0  0  0  0  3  0  0  0  0  0  0
  -26.3950  -31.6960   25.0660 C   0  0  1  0  0  0  0  0  0  0  0  0
  -25.3240  -31.4430   26.1520 C   0  0  0  0  0  1  0  0  0  0  0  0
  -26.9640  -30.3230   24.6400 C   0  0  0  0  0  1  0  0  0  0  0  0
  -27.5640  -32.4750   25.7160 C   0  0  0  0  0  1  0  0  0  0  0  0
  -25.5560  -33.8820   24.1680 N   0  0  0  0  0  0  0  0  0  0  0  0
  -25.8740  -34.9420   23.4130 C   0  0  0  0  0  0  0  0  0  0  0  0
  -26.5220  -34.8500   22.3670 O   0  0  0  0  0  0  0  0  0  0  0  0
  -24.9770  -34.0290   24.9820 H   0  0  0  0  0  0  0  0  0  0  0  0
  -24.1370  -36.7370   23.1160 C   0  0  0  0  0  1  0  0  0  0  0  0
  -25.3980  -36.3270   23.8940 C   0  0  0  0  0  3  0  0  0  0  0  0
  -27.5560  -37.1980   24.6780 C   0  0  0  0  0  1  0  0  0  0  0  0
  -26.4290  -37.3800   23.7660 N   0  0  0  0  0  0  0  0  0  0  0  0
  -26.0300  -38.2990   23.9380 H   0  0  0  0  0  0  0  0  0  0  0  0
  -29.9230  -21.1140   18.6550 C   0  0  0  0  0  2  0  0  0  0  0  0
  -29.1380  -17.3980   19.1830 C   0  0  0  0  0  3  0  0  0  0  0  0
  -30.1980  -18.2660   21.2000 C   0  0  0  0  0  3  0  0  0  0  0  0
  -29.2910  -18.6510   18.5610 C   0  0  0  0  0  3  0  0  0  0  0  0
  -30.3640  -19.5160   20.5770 C   0  0  0  0  0  3  0  0  0  0  0  0
  -29.5680  -17.2100   20.5130 C   0  0  0  0  0  0  0  0  0  0  0  0
  -29.8820  -19.7220   19.2670 C   0  0  0  0  0  0  0  0  0  0  0  0
  -29.3310  -15.8800   21.2070 C   0  0  0  0  0  2  0  0  0  0  0  0
  -30.6740  -14.2470   19.9590 C   0  0  0  0  0  0  0  0  0  0  0  0
  -30.1670  -12.1990   18.6730 C   0  0  0  0  0  2  0  0  0  0  0  0
  -29.1170  -12.4630   17.5780 C   0  0  0  0  0  2  0  0  0  0  0  0
  -27.6880  -12.3240   18.1410 C   0  0  0  0  0  2  0  0  0  0  0  0
  -27.4920  -13.1260   19.4530 C   0  0  0  0  0  3  0  0  0  0  0  0
  -28.6360  -12.8150   20.4480 C   0  0  0  0  0  2  0  0  0  0  0  0
  -29.9170  -13.1280   19.7860 N   0  0  0  0  0  0  0  0  0  0  0  0
  -31.6420  -14.5060   19.2330 O   0  0  0  0  0  0  0  0  0  0  0  0
  -31.6190  -15.3390   21.9080 C   0  0  0  0  0  1  0  0  0  0  0  0
  -30.4620  -14.9460   21.0980 N   0  0  0  0  0  0  0  0  0  0  0  0
  -25.1780  -13.7730   20.3830 C   0  0  0  0  0  0  0  0  0  0  0  0
  -24.1290  -13.0140   20.8320 C   0  0  0  0  0  0  0  0  0  0  0  0
  -24.5550  -11.6540   20.7290 C   0  0  0  0  0  0  0  0  0  0  0  0
  -26.1780  -12.8750   20.0420 N   0  0  0  0  0  0  0  0  0  0  0  0
  -25.8110  -11.5950   20.3040 N   0  0  0  0  0  0  0  0  0  0  0  0
  -23.8230  -10.4030   20.9580 C   0  0  0  0  0  0  0  0  0  0  0  0
  -24.2980   -9.4230   21.8580 C   0  0  0  0  0  3  0  0  0  0  0  0
  -23.5670   -8.2360   22.0740 C   0  0  0  0  0  3  0  0  0  0  0  0
  -22.3480   -8.0190   21.3900 C   0  0  0  0  0  0  0  0  0  0  0  0
  -21.8900   -8.9860   20.4780 C   0  0  0  0  0  3  0  0  0  0  0  0
  -22.6220  -10.1650   20.2590 C   0  0  0  0  0  3  0  0  0  0  0  0
  -21.5850   -6.8830   21.5180 O   0  0  0  0  0  0  0  0  0  0  0  0
  -21.5690   -6.1520   22.6780 C   0  0  0  0  0  0  0  0  0  0  0  0
  -21.2090   -6.7280   23.9160 C   0  0  0  0  0  3  0  0  0  0  0  0
  -21.1390   -5.9260   25.0720 C   0  0  0  0  0  3  0  0  0  0  0  0
  -21.4200   -4.5490   24.9910 C   0  0  0  0  0  0  0  0  0  0  0  0
  -21.7730   -3.9730   23.7580 C   0  0  0  0  0  3  0  0  0  0  0  0
  -21.8450   -4.7720   22.6040 C   0  0  0  0  0  0  0  0  0  0  0  0
  -22.1650   -4.2090   21.4150 F   0  0  0  0  0  0  0  0  0  0  0  0
  -21.3460   -3.7750   26.1000 F   0  0  0  0  0  0  0  0  0  0  0  0
  -22.7740  -13.5130   21.2430 C   0  0  0  0  0  0  0  0  0  0  0  0
  -22.1140  -12.8100   22.1580 N   0  0  0  0  0  0  0  0  0  0  0  0
  -22.3110  -14.5580   20.7880 O   0  0  0  0  0  0  0  0  0  0  0  0
  -22.5030  -11.9630   22.5450 H   0  0  0  0  0  0  0  0  0  0  0  0
  -21.2080  -13.1220   22.4740 H   0  0  0  0  0  0  0  0  0  0  0  0
  -25.3570  -15.1430   20.2170 N   0  0  0  0  0  0  0  0  0  0  0  0
  -24.6160  -15.8090   20.4060 H   0  0  0  0  0  0  0  0  0  0  0  0
  -26.1780  -15.5710   19.8090 H   0  0  0  0  0  0  0  0  0  0  0  0
  2  1  1  0
  2  3  1  1
  5  4  1  0
  5  8  1  0
  7  4  1  0
  7  2  1  0
  7  6  1  0
  8  6  1  0
  8  9  1  0
  9 11  1  0
 10 21  2  0
 11 16  1  0
 12 20  1  0
 12 22  1  0
 13 19  1  0
 13 15  1  0
 14 20  1  0
 15 14  1  0
 16 15  2  0
 17 18  1  0
 17 11  2  0
 18 13  2  0
 19 12  1  0
 20 10  1  0
 22 24  2  0
 23 22  1  0
 25 23  1  0
 26 35  2  0
 26 31  1  0
 27 23  1  0
 27 31  1  0
 28 27  1  0
 29 30  1  0
 29 28  1  0
 30 26  1  0
 31 32  2  0
 32 33  1  0
 34 33  2  0
 35 34  1  0
 36 10  1  0
 36 41  1  0
 36 37  1  0
 37 40  1  1
 37 38  1  0
 39 37  1  0
 41 44  1  0
 42 46  1  0
 42 41  1  0
 43 42  2  0
 46 45  1  0
 48 46  1  0
 48 49  1  0
 48 47  1  0
 50 56  1  0
 50  2  1  0
 51 55  1  0
 53 51  2  0
 53 56  1  0
 54 52  1  0
 55 52  2  0
 55 57  1  0
 56 54  2  0
 58 67  1  0
 59 64  1  0
 60 61  1  0
 60 59  1  0
 62 61  1  0
 62 71  1  0
 62 63  1  0
 64 58  1  0
 64 63  1  0
 65 58  2  0
 67 57  1  0
 67 66  1  0
 68 69  2  0
 69 88  1  0
 70 69  1  0
 70 73  1  0
 71 72  1  0
 71 68  1  0
 72 70  2  0
 73 74  1  0
 74 75  2  0
 76 79  1  0
 76 75  1  0
 77 76  2  0
 78 77  1  0
 78 73  2  0
 79 80  1  0
 80 81  1  0
 81 82  2  0
 83 82  1  0
 83 87  1  0
 84 83  2  0
 85 80  2  0
 85 84  1  0
 86 85  1  0
 88 89  1  0
 89 92  1  0
 89 91  1  0
 90 88  2  0
 93 68  1  0
 93 94  1  0
 95 93  1  0
M  ISO  4   8 101   9 101  58 100  67 100
M  END
>  <TORSDO>  (96) 
F 20

>  <SCORE>  (96) 
-13.131

>  <name>  (96) 
96

>  <ligand_id>  (96) 
96

>  <original_smiles>  (96) 
[H]c1c([H])c([H])c2c(c1[H])C([H])([H])C([H])([H])C([H])([H])C2([H])N([H])C(=O)C1([H])N(C(=O)C([H])(N([H])C(=O)C([H])(N([H])C([H])([H])[H])C([H])([H])[H])C(C([H])([H])[H])(C([H])([H])[H])C([H])([H])[H])C([H])([H])c2c([H])c(OC3([H])C([H])([H])C([H])([H])C([H])([N+]([H])(C([H])([H])[H])C([H])([H])c4c([H])c([H])c(C([H])([H])N(C(=O)N5C([H])([H])C([H])([H])C([H])([H])C([H])(n6nc(-c7c([H])c([H])c(Oc8c([H])c([H])c(F)c([H])c8F)c([H])c7[H])c(C(=O)N([H])[H])c6N([H])[H])C5([H])[H])C([H])([H])[H])c([H])c4[H])C3([H])[H])c([H])c([H])c2C1([H])[H]

>  <smiles>  (96) 
[H]c1c([H])c([H])c2c(c1[H])C([H])([H])C([H])([H])C([H])([H])C2([H])N([H])C(=O)C1([H])N(C(=O)C([H])(N([H])C(=O)C([H])(N([H])C([H])([H])[H])C([H])([H])[H])C(C([H])([H])[H])(C([H])([H])[H])C([H])([H])[H])C([H])([H])c2c([H])c(OC3([H])C([H])([H])C([H])([H])C([H])([N+]([H])(C([H])([H])[H])C([H])([H])c4c([H])c([H])c(C([H])([H])N(C(=O)N5C([H])([H])C([H])([H])C([H])([H])C([H])(n6nc(-c7c([H])c([H])c(Oc8c([H])c([H])c(F)c([H])c8F)c([H])c7[H])c(C(=O)N([H])[H])c6N([H])[H])C5([H])[H])C([H])([H])[H])c([H])c4[H])C3([H])[H])c([H])c([H])c2C1([H])[H]

$$$$
97:0:0
     RDKit          3D

 95103  0  0  1  0  0  0  0  0999 V2000
  -29.9770  -20.2850   20.5000 N   0  0  2  0  0  4  0  0  0  0  0  0
  -29.3280  -20.3100   21.2720 H   0  0  0  0  0  0  0  0  0  0  0  0
  -32.4700  -20.7430   20.0950 C   0  0  0  0  0  1  0  0  0  0  0  0
  -31.2850  -20.7040   21.0860 C   0  0  0  0  0  2  0  0  0  0  0  0
  -29.9260  -18.8210   20.1110 C   0  0  0  0  0  2  0  0  0  0  0  0
  -31.3590  -15.9120   22.3550 C   0  0  0  0  0  3  0  0  0  0  0  0
  -31.0480  -16.4270   23.6230 C   0  0  0  0  0  3  0  0  0  0  0  0
  -29.9750  -18.3260   22.5740 C   0  0  0  0  0  3  0  0  0  0  0  0
  -30.3150  -17.8600   21.2730 C   0  0  0  0  0  0  0  0  0  0  0  0
  -30.9670  -16.5680   21.1590 C   0  0  0  0  0  0  0  0  0  0  0  0
  -30.3310  -17.6250   23.7360 C   0  0  0  0  0  0  0  0  0  0  0  0
  -29.9170  -18.2500   25.2910 Cl  0  0  0  0  0  0  0  0  0  0  0  0
  -31.8200  -14.7070   19.6520 C   0  0  0  0  0  0  0  0  0  0  0  0
  -31.2690  -12.5950   18.4920 C   0  0  0  0  0  2  0  0  0  0  0  0
  -30.2630  -12.9110   17.3640 C   0  0  0  0  0  2  0  0  0  0  0  0
  -28.8100  -12.9030   17.8820 C   0  0  0  0  0  2  0  0  0  0  0  0
  -28.6460  -13.6910   19.2080 C   0  0  0  0  0  3  0  0  0  0  0  0
  -29.7550  -13.3390   20.2190 C   0  0  0  0  0  2  0  0  0  0  0  0
  -31.0470  -13.5820   19.5650 N   0  0  0  0  0  0  0  0  0  0  0  0
  -32.9580  -14.7460   19.1800 O   0  0  0  0  0  0  0  0  0  0  0  0
  -31.1850  -15.8900   19.9020 N   0  0  0  0  0  0  0  0  0  0  0  0
  -31.3260  -16.5300   19.1360 H   0  0  0  0  0  0  0  0  0  0  0  0
  -26.3780  -14.4900   20.1060 C   0  0  0  0  0  0  0  0  0  0  0  0
  -25.2770  -13.8100   20.5510 C   0  0  0  0  0  0  0  0  0  0  0  0
  -25.6120  -12.4220   20.4780 C   0  0  0  0  0  0  0  0  0  0  0  0
  -27.3150  -13.5220   19.7870 N   0  0  0  0  0  0  0  0  0  0  0  0
  -26.8650  -12.2730   20.0680 N   0  0  0  0  0  0  0  0  0  0  0  0
  -24.7950  -11.2260   20.7210 C   0  0  0  0  0  0  0  0  0  0  0  0
  -25.1780  -10.2480   21.6640 C   0  0  0  0  0  3  0  0  0  0  0  0
  -24.3710   -9.1120   21.8880 C   0  0  0  0  0  3  0  0  0  0  0  0
  -23.1610   -8.9530   21.1710 C   0  0  0  0  0  0  0  0  0  0  0  0
  -22.7960   -9.9140   20.2120 C   0  0  0  0  0  3  0  0  0  0  0  0
  -23.6050  -11.0410   19.9880 C   0  0  0  0  0  3  0  0  0  0  0  0
  -22.3250   -7.8720   21.3050 O   0  0  0  0  0  0  0  0  0  0  0  0
  -22.1650   -7.2270   22.5050 C   0  0  0  0  0  0  0  0  0  0  0  0
  -21.8060   -7.9190   23.6810 C   0  0  0  0  0  3  0  0  0  0  0  0
  -21.5870   -7.2080   24.8780 C   0  0  0  0  0  3  0  0  0  0  0  0
  -21.7130   -5.8080   24.8950 C   0  0  0  0  0  0  0  0  0  0  0  0
  -22.0620   -5.1130   23.7220 C   0  0  0  0  0  3  0  0  0  0  0  0
  -22.2860   -5.8210   22.5300 C   0  0  0  0  0  0  0  0  0  0  0  0
  -22.6060   -5.1490   21.3960 F   0  0  0  0  0  0  0  0  0  0  0  0
  -21.4940   -5.1190   26.0400 F   0  0  0  0  0  0  0  0  0  0  0  0
  -23.9530  -14.4030   20.9340 C   0  0  0  0  0  0  0  0  0  0  0  0
  -23.2760  -13.8080   21.9090 N   0  0  0  0  0  0  0  0  0  0  0  0
  -23.5300  -15.4260   20.3980 O   0  0  0  0  0  0  0  0  0  0  0  0
  -23.6330  -12.9750   22.3540 H   0  0  0  0  0  0  0  0  0  0  0  0
  -22.3830  -14.1770   22.2020 H   0  0  0  0  0  0  0  0  0  0  0  0
  -26.6590  -15.8430   19.9320 N   0  0  0  0  0  0  0  0  0  0  0  0
  -25.9960  -16.5840   20.1310 H   0  0  0  0  0  0  0  0  0  0  0  0
  -27.5590  -16.1900   19.6230 H   0  0  0  0  0  0  0  0  0  0  0  0
  -29.3990  -21.3060   19.5430 C   0  0  0  0  0  2  0  0  0  0  0  0
  -28.8110  -22.5920   20.2460 C   0  0  0  0  0  2  0  0  0  0  0  0
  -29.1110  -24.0110   19.6190 C   0  0  0  0  0  2  0  0  0  0  0  0
  -27.9120  -25.0160   19.5910 C   0  0  0  0  0  2  0  0  0  0  0  0
  -28.1890  -26.4550   19.5710 O   0  0  0  0  0  0  0  0  0  0  0  0
  -24.5840  -31.6570   22.9800 C   0  0  0  0  0  0  0  0  0  0  0  0
  -27.0650  -27.2840   19.6120 C   0  0  0  0  0  0  0  0  0  0  0  0
  -23.3190  -30.3530   21.3100 C   0  0  0  0  0  3  0  0  0  0  0  0
  -24.7100  -28.8780   19.7650 C   0  0  0  0  0  0  0  0  0  0  0  0
  -25.8490  -30.6810   21.0560 C   0  0  0  0  0  2  0  0  0  0  0  0
  -25.8990  -29.3380   20.3450 C   0  0  0  0  0  0  0  0  0  0  0  0
  -27.0820  -28.5500   20.2640 C   0  0  0  0  0  3  0  0  0  0  0  0
  -25.8470  -26.8730   19.0210 C   0  0  0  0  0  3  0  0  0  0  0  0
  -24.6820  -27.6490   19.0970 C   0  0  0  0  0  3  0  0  0  0  0  0
  -23.4820  -29.7510   19.8920 C   0  0  0  0  0  2  0  0  0  0  0  0
  -24.6040  -30.9090   21.8410 N   0  0  0  0  0  0  0  0  0  0  0  0
  -23.5190  -31.9090   23.5630 O   0  0  0  0  0  0  0  0  0  0  0  0
  -22.6870  -29.2860   22.2340 C   0  0  0  0  0  0  0  0  0  0  0  0
  -21.3540  -29.1280   22.1460 N   0  0  0  0  0  0  0  0  0  0  0  0
  -23.3870  -28.6080   22.9880 O   0  0  0  0  0  0  0  0  0  0  0  0
  -20.8480  -29.7340   21.5170 H   0  0  0  0  0  0  0  0  0  0  0  0
  -17.9820  -27.9480   22.7170 C   0  0  0  0  0  0  0  0  0  0  0  0
  -20.5540  -28.1590   22.8950 C   0  0  0  0  0  3  0  0  0  0  0  0
  -20.6070  -26.7580   22.2420 C   0  0  0  0  0  2  0  0  0  0  0  0
  -19.4610  -26.5060   21.2560 C   0  0  0  0  0  2  0  0  0  0  0  0
  -18.1090  -26.6350   21.9620 C   0  0  0  0  0  2  0  0  0  0  0  0
  -19.1300  -28.6690   23.1420 C   0  0  0  0  0  0  0  0  0  0  0  0
  -18.9570  -29.8990   23.8120 C   0  0  0  0  0  3  0  0  0  0  0  0
  -17.6680  -30.4080   24.0630 C   0  0  0  0  0  3  0  0  0  0  0  0
  -16.5360  -29.6850   23.6510 C   0  0  0  0  0  3  0  0  0  0  0  0
  -16.6920  -28.4570   22.9820 C   0  0  0  0  0  3  0  0  0  0  0  0
  -25.8900  -32.2500   23.5920 C   0  0  0  0  0  3  0  0  0  0  0  0
  -25.5930  -33.6240   24.0170 N   0  0  0  0  0  0  0  0  0  0  0  0
  -25.9330  -34.7240   23.3320 C   0  0  0  0  0  0  0  0  0  0  0  0
  -26.6060  -34.6860   22.2980 O   0  0  0  0  0  0  0  0  0  0  0  0
  -25.0000  -33.7250   24.8270 H   0  0  0  0  0  0  0  0  0  0  0  0
  -24.2370  -36.5650   23.0850 C   0  0  0  0  0  1  0  0  0  0  0  0
  -25.4580  -36.0810   23.8840 C   0  0  0  0  0  3  0  0  0  0  0  0
  -27.5920  -36.8710   24.8070 C   0  0  0  0  0  1  0  0  0  0  0  0
  -26.5060  -37.1260   23.8640 N   0  0  0  0  0  0  0  0  0  0  0  0
  -26.1100  -38.0390   24.0750 H   0  0  0  0  0  0  0  0  0  0  0  0
  -26.4520  -31.4000   24.8000 C   0  0  1  0  0  0  0  0  0  0  0  0
  -25.3910  -31.0770   25.8780 C   0  0  0  0  0  1  0  0  0  0  0  0
  -27.0410  -30.0600   24.3000 C   0  0  0  0  0  1  0  0  0  0  0  0
  -27.6130  -32.1630   25.4790 C   0  0  0  0  0  1  0  0  0  0  0  0
  1  4  1  0
  1  2  1  1
  3  4  1  0
  5  1  1  0
  5  9  1  0
  6  7  1  0
  7 11  2  0
  8 11  1  0
  9  8  2  0
 10  9  1  0
 10  6  2  0
 11 12  1  0
 13 21  1  0
 14 19  1  0
 15 16  1  0
 15 14  1  0
 17 16  1  0
 17 26  1  0
 17 18  1  0
 19 13  1  0
 19 18  1  0
 20 13  2  0
 21 10  1  0
 22 21  1  0
 23 24  2  0
 24 43  1  0
 25 24  1  0
 25 28  1  0
 26 27  1  0
 26 23  1  0
 27 25  2  0
 28 29  1  0
 29 30  2  0
 31 34  1  0
 31 30  1  0
 32 31  2  0
 33 32  1  0
 33 28  2  0
 34 35  1  0
 35 40  2  0
 35 36  1  0
 36 37  2  0
 37 38  1  0
 38 42  1  0
 39 38  2  0
 40 39  1  0
 41 40  1  0
 43 44  1  0
 44 47  1  0
 44 46  1  0
 45 43  2  0
 48 23  1  0
 48 49  1  0
 50 48  1  0
 51 52  1  0
 51  1  1  0
 53 52  1  0
 54 53  1  0
 55 54  1  0
 55 57  1  0
 56 67  2  0
 57 62  1  0
 58 66  1  0
 58 68  1  0
 59 65  1  0
 59 61  1  0
 60 66  1  0
 61 60  1  0
 62 61  2  0
 63 64  1  0
 63 57  2  0
 64 59  2  0
 65 58  1  0
 66 56  1  0
 68 70  2  0
 69 68  1  0
 71 69  1  0
 72 81  2  0
 72 77  1  0
 73 69  1  0
 73 77  1  0
 74 73  1  0
 75 76  1  0
 75 74  1  0
 76 72  1  0
 77 78  2  0
 78 79  1  0
 80 79  2  0
 81 80  1  0
 82 56  1  0
 82 83  1  0
 82 92  1  0
 83 86  1  0
 84 88  1  0
 84 83  1  0
 85 84  2  0
 88 87  1  0
 90 88  1  0
 90 91  1  0
 90 89  1  0
 92 95  1  1
 92 93  1  0
 94 92  1  0
M  ISO  4  13 100  21 100  54 101  55 101
M  END
>  <TORSDO>  (97) 
F 23

>  <SCORE>  (97) 
-5.549

>  <name>  (97) 
97

>  <ligand_id>  (97) 
97

>  <original_smiles>  (97) 
[H]c1c([H])c([H])c2c(c1[H])C([H])([H])C([H])([H])C([H])([H])C2([H])N([H])C(=O)C1([H])N(C(=O)C([H])(N([H])C(=O)C([H])(N([H])C([H])([H])[H])C([H])([H])[H])C(C([H])([H])[H])(C([H])([H])[H])C([H])([H])[H])C([H])([H])c2c([H])c(OC([H])([H])C([H])([H])C([H])([H])C([H])([H])[N+]([H])(C([H])([H])c3c([H])c(Cl)c([H])c([H])c3N([H])C(=O)N3C([H])([H])C([H])([H])C([H])([H])C([H])(n4nc(-c5c([H])c([H])c(Oc6c([H])c([H])c(F)c([H])c6F)c([H])c5[H])c(C(=O)N([H])[H])c4N([H])[H])C3([H])[H])C([H])([H])C([H])([H])[H])c([H])c([H])c2C1([H])[H]

>  <smiles>  (97) 
[H]c1c([H])c([H])c2c(c1[H])C([H])([H])C([H])([H])C([H])([H])C2([H])N([H])C(=O)C1([H])N(C(=O)C([H])(N([H])C(=O)C([H])(N([H])C([H])([H])[H])C([H])([H])[H])C(C([H])([H])[H])(C([H])([H])[H])C([H])([H])[H])C([H])([H])c2c([H])c(OC([H])([H])C([H])([H])C([H])([H])C([H])([H])[N+]([H])(C([H])([H])c3c([H])c(Cl)c([H])c([H])c3N([H])C(=O)N3C([H])([H])C([H])([H])C([H])([H])C([H])(n4nc(-c5c([H])c([H])c(Oc6c([H])c([H])c(F)c([H])c6F)c([H])c5[H])c(C(=O)N([H])[H])c4N([H])[H])C3([H])[H])C([H])([H])C([H])([H])[H])c([H])c([H])c2C1([H])[H]

$$$$
