0:0:0
     RDKit          3D

 91 99  0  0  1  0  0  0  0  0999 V2000
  -29.9950  -21.5290   20.3470 N   0  0  0  0  0  0  0  0  0  0  0  0
  -30.9320  -21.9270   20.3000 H   0  0  0  0  0  0  0  0  0  0  0  0
  -31.1130  -19.3350   20.4640 C   0  0  0  0  0  3  0  0  0  0  0  0
  -31.1210  -17.9090   20.5340 C   0  0  0  0  0  3  0  0  0  0  0  0
  -28.7100  -19.3490   20.3720 C   0  0  0  0  0  3  0  0  0  0  0  0
  -29.9160  -20.0970   20.3860 C   0  0  0  0  0  0  0  0  0  0  0  0
  -29.9120  -17.1680   20.5350 C   0  0  0  0  0  0  0  0  0  0  0  0
  -28.7140  -17.9250   20.4500 C   0  0  0  0  0  0  0  0  0  0  0  0
  -27.5320  -17.2600   20.4430 F   0  0  0  0  0  0  0  0  0  0  0  0
  -30.5860  -14.6780   20.2440 C   0  0  0  0  0  0  0  0  0  0  0  0
  -30.3220  -12.4700   19.1360 C   0  0  0  0  0  2  0  0  0  0  0  0
  -29.3330  -12.6360   17.9620 C   0  0  0  0  0  2  0  0  0  0  0  0
  -27.8760  -12.4780   18.4420 C   0  0  0  0  0  2  0  0  0  0  0  0
  -27.5700  -13.3140   19.7140 C   0  0  0  0  0  3  0  0  0  0  0  0
  -28.6690  -13.1180   20.7830 C   0  0  0  0  0  2  0  0  0  0  0  0
  -29.9600  -13.4620   20.1660 N   0  0  0  0  0  0  0  0  0  0  0  0
  -31.7320  -14.8400   19.8190 O   0  0  0  0  0  0  0  0  0  0  0  0
  -29.7960  -15.7170   20.6490 N   0  0  0  0  0  0  0  0  0  0  0  0
  -28.8780  -15.4180   20.9420 H   0  0  0  0  0  0  0  0  0  0  0  0
  -25.2070  -13.9130   20.5280 C   0  0  0  0  0  0  0  0  0  0  0  0
  -24.1470  -13.1380   20.9140 C   0  0  0  0  0  0  0  0  0  0  0  0
  -24.5980  -11.7850   20.8350 C   0  0  0  0  0  0  0  0  0  0  0  0
  -26.2370  -13.0310   20.2390 N   0  0  0  0  0  0  0  0  0  0  0  0
  -25.8760  -11.7450   20.4830 N   0  0  0  0  0  0  0  0  0  0  0  0
  -23.8670  -10.5240   21.0210 C   0  0  0  0  0  0  0  0  0  0  0  0
  -24.3030   -9.5480   21.9440 C   0  0  0  0  0  3  0  0  0  0  0  0
  -23.5740   -8.3520   22.1170 C   0  0  0  0  0  3  0  0  0  0  0  0
  -22.3960   -8.1240   21.3670 C   0  0  0  0  0  0  0  0  0  0  0  0
  -21.9800   -9.0880   20.4330 C   0  0  0  0  0  3  0  0  0  0  0  0
  -22.7090  -10.2760   20.2580 C   0  0  0  0  0  3  0  0  0  0  0  0
  -21.6380   -6.9800   21.4510 O   0  0  0  0  0  0  0  0  0  0  0  0
  -21.5630   -6.2490   22.6100 C   0  0  0  0  0  0  0  0  0  0  0  0
  -21.0800   -6.8090   23.8130 C   0  0  0  0  0  3  0  0  0  0  0  0
  -20.9540   -6.0030   24.9620 C   0  0  0  0  0  3  0  0  0  0  0  0
  -21.3000   -4.6390   24.9100 C   0  0  0  0  0  0  0  0  0  0  0  0
  -21.7770   -4.0810   23.7110 C   0  0  0  0  0  3  0  0  0  0  0  0
  -21.9050   -4.8830   22.5630 C   0  0  0  0  0  0  0  0  0  0  0  0
  -22.3440   -4.3340   21.4050 F   0  0  0  0  0  0  0  0  0  0  0  0
  -21.1720   -3.8640   26.0110 F   0  0  0  0  0  0  0  0  0  0  0  0
  -22.7630  -13.6190   21.2470 C   0  0  0  0  0  0  0  0  0  0  0  0
  -22.0610  -12.9050   22.1200 N   0  0  0  0  0  0  0  0  0  0  0  0
  -22.3160  -14.6620   20.7710 O   0  0  0  0  0  0  0  0  0  0  0  0
  -22.4360  -12.0610   22.5260 H   0  0  0  0  0  0  0  0  0  0  0  0
  -21.1350  -13.2080   22.3860 H   0  0  0  0  0  0  0  0  0  0  0  0
  -25.3720  -15.2870   20.3860 N   0  0  0  0  0  0  0  0  0  0  0  0
  -24.6190  -15.9360   20.5810 H   0  0  0  0  0  0  0  0  0  0  0  0
  -26.2380  -15.7570   20.1540 H   0  0  0  0  0  0  0  0  0  0  0  0
  -28.8750  -22.4930   20.1460 C   0  0  0  0  0  2  0  0  0  0  0  0
  -29.2490  -24.0370   20.2920 C   0  0  0  0  0  3  0  0  0  0  0  0
  -28.1090  -25.0860   19.9540 C   0  0  0  0  0  3  0  0  0  0  0  0
  -28.3260  -26.5330   20.1740 O   0  0  0  0  0  0  0  0  0  0  0  0
  -24.5850  -31.8920   23.2290 C   0  0  0  0  0  0  0  0  0  0  0  0
  -27.1980  -27.3700   20.1340 C   0  0  0  0  0  0  0  0  0  0  0  0
  -23.3760  -30.4990   21.5890 C   0  0  0  0  0  3  0  0  0  0  0  0
  -24.8230  -28.9650   20.1480 C   0  0  0  0  0  0  0  0  0  0  0  0
  -25.9130  -30.8300   21.3930 C   0  0  0  0  0  2  0  0  0  0  0  0
  -25.9940  -29.4570   20.7400 C   0  0  0  0  0  0  0  0  0  0  0  0
  -27.1840  -28.6710   20.7230 C   0  0  0  0  0  3  0  0  0  0  0  0
  -25.9990  -26.9320   19.5190 C   0  0  0  0  0  3  0  0  0  0  0  0
  -24.8280  -27.7080   19.5300 C   0  0  0  0  0  3  0  0  0  0  0  0
  -23.5840  -29.8330   20.2040 C   0  0  0  0  0  2  0  0  0  0  0  0
  -24.6430  -31.0910   22.1280 N   0  0  0  0  0  0  0  0  0  0  0  0
  -23.5030  -32.1650   23.7710 O   0  0  0  0  0  0  0  0  0  0  0  0
  -22.7220  -29.4740   22.5470 C   0  0  0  0  0  0  0  0  0  0  0  0
  -21.3970  -29.2910   22.4210 N   0  0  0  0  0  0  0  0  0  0  0  0
  -23.4060  -28.8480   23.3610 O   0  0  0  0  0  0  0  0  0  0  0  0
  -20.9060  -29.8500   21.7370 H   0  0  0  0  0  0  0  0  0  0  0  0
  -18.0230  -28.0940   22.9330 C   0  0  0  0  0  0  0  0  0  0  0  0
  -20.5820  -28.3490   23.1890 C   0  0  0  0  0  3  0  0  0  0  0  0
  -20.6790  -26.9220   22.6030 C   0  0  0  0  0  2  0  0  0  0  0  0
  -19.5700  -26.6070   21.5940 C   0  0  0  0  0  2  0  0  0  0  0  0
  -18.1930  -26.7490   22.2480 C   0  0  0  0  0  2  0  0  0  0  0  0
  -19.1450  -28.8520   23.3610 C   0  0  0  0  0  0  0  0  0  0  0  0
  -18.9300  -30.1120   23.9630 C   0  0  0  0  0  3  0  0  0  0  0  0
  -17.6280  -30.6130   24.1410 C   0  0  0  0  0  3  0  0  0  0  0  0
  -16.5210  -29.8520   23.7290 C   0  0  0  0  0  3  0  0  0  0  0  0
  -16.7180  -28.5950   23.1310 C   0  0  0  0  0  3  0  0  0  0  0  0
  -25.8700  -32.5240   23.8490 C   0  0  0  0  0  3  0  0  0  0  0  0
  -26.3900  -31.7510   25.1220 C   0  0  1  0  0  0  0  0  0  0  0  0
  -25.2990  -31.5040   26.1900 C   0  0  0  0  0  1  0  0  0  0  0  0
  -26.9790  -30.3770   24.7240 C   0  0  0  0  0  1  0  0  0  0  0  0
  -27.5390  -32.5470   25.7860 C   0  0  0  0  0  1  0  0  0  0  0  0
  -25.5600  -33.9220   24.1820 N   0  0  0  0  0  0  0  0  0  0  0  0
  -25.8630  -34.9740   23.4100 C   0  0  0  0  0  0  0  0  0  0  0  0
  -26.5040  -34.8710   22.3600 O   0  0  0  0  0  0  0  0  0  0  0  0
  -24.9890  -34.0750   25.0010 H   0  0  0  0  0  0  0  0  0  0  0  0
  -24.1050  -36.7470   23.1100 C   0  0  0  0  0  1  0  0  0  0  0  0
  -25.3790  -36.3610   23.8760 C   0  0  0  0  0  3  0  0  0  0  0  0
  -27.5310  -37.2760   24.6280 C   0  0  0  0  0  1  0  0  0  0  0  0
  -26.3970  -37.4220   23.7180 N   0  0  0  0  0  0  0  0  0  0  0  0
  -25.9860  -38.3400   23.8690 H   0  0  0  0  0  0  0  0  0  0  0  0
  1  6  1  0
  2  1  1  0
  3  4  1  0
  4  7  2  0
  5  6  1  0
  5  8  2  0
  6  3  2  0
  7 18  1  0
  8  7  1  0
  9  8  1  0
 10 18  1  0
 11 16  1  0
 12 13  1  0
 12 11  1  0
 14 13  1  0
 14 23  1  0
 14 15  1  0
 16 10  1  0
 16 15  1  0
 17 10  2  0
 18 19  1  0
 20 21  2  0
 21 40  1  0
 22 21  1  0
 22 25  1  0
 23 24  1  0
 23 20  1  0
 24 22  2  0
 25 26  1  0
 26 27  2  0
 28 31  1  0
 28 27  1  0
 29 28  2  0
 30 29  1  0
 30 25  2  0
 31 32  1  0
 32 33  1  0
 33 34  2  0
 35 34  1  0
 35 39  1  0
 36 35  2  0
 37 32  2  0
 37 36  1  0
 38 37  1  0
 40 41  1  0
 41 44  1  0
 41 43  1  0
 42 40  2  0
 45 20  1  0
 45 46  1  0
 47 45  1  0
 48 49  1  0
 48  1  1  0
 50 51  1  0
 50 49  2  0
 52 63  2  0
 53 51  1  0
 53 58  1  0
 54 62  1  0
 54 64  1  0
 55 61  1  0
 55 57  1  0
 56 62  1  0
 57 56  1  0
 58 57  2  0
 59 60  1  0
 59 53  2  0
 60 55  2  0
 61 54  1  0
 62 52  1  0
 64 66  2  0
 65 64  1  0
 67 65  1  0
 68 77  2  0
 68 73  1  0
 69 65  1  0
 69 73  1  0
 70 69  1  0
 71 72  1  0
 71 70  1  0
 72 68  1  0
 73 74  2  0
 74 75  1  0
 76 75  2  0
 77 76  1  0
 78 52  1  0
 78 83  1  0
 78 79  1  0
 79 82  1  1
 79 80  1  0
 81 79  1  0
 83 86  1  0
 84 88  1  0
 84 83  1  0
 85 84  2  0
 88 87  1  0
 90 91  1  0
 90 88  1  0
 90 89  1  0
M  ISO  4  10 100  18 100  50 101  51 101
M  END
>  <TORSDO>  (1) 
F 20

>  <SCORE>  (1) 
-14.064

>  <name>  (1) 
0

>  <ligand_id>  (1) 
0

>  <original_smiles>  (1) 
[H]c1c([H])c([H])c2c(c1[H])C([H])([H])C([H])([H])C([H])([H])C2([H])N([H])C(=O)C1([H])N(C(=O)C([H])(N([H])C(=O)C([H])(N([H])C([H])([H])[H])C([H])([H])[H])C(C([H])([H])[H])(C([H])([H])[H])C([H])([H])[H])C([H])([H])c2c([H])c(OC([H])([H])C([H])([H])C([H])([H])N([H])c3c([H])c([H])c(N([H])C(=O)N4C([H])([H])C([H])([H])C([H])([H])C([H])(n5nc(-c6c([H])c([H])c(Oc7c([H])c([H])c(F)c([H])c7F)c([H])c6[H])c(C(=O)N([H])[H])c5N([H])[H])C4([H])[H])c(F)c3[H])c([H])c([H])c2C1([H])[H]

>  <smiles>  (1) 
[H]c1c([H])c([H])c2c(c1[H])C([H])([H])C([H])([H])C([H])([H])C2([H])N([H])C(=O)C1([H])N(C(=O)C([H])(N([H])C(=O)C([H])(N([H])C([H])([H])[H])C([H])([H])[H])C(C([H])([H])[H])(C([H])([H])[H])C([H])([H])[H])C([H])([H])c2c([H])c(OC([H])([H])C([H])([H])C([H])([H])N([H])c3c([H])c([H])c(N([H])C(=O)N4C([H])([H])C([H])([H])C([H])([H])C([H])(n5nc(-c6c([H])c([H])c(Oc7c([H])c([H])c(F)c([H])c7F)c([H])c6[H])c(C(=O)N([H])[H])c5N([H])[H])C4([H])[H])c(F)c3[H])c([H])c([H])c2C1([H])[H]

$$$$
1:0:0
     RDKit          3D

 93102  0  0  1  0  0  0  0  0999 V2000
  -26.8460  -22.9510   21.3450 C   0  0  0  0  0  2  0  0  0  0  0  0
  -28.2270  -23.4300   21.7780 C   0  0  0  0  0  2  0  0  0  0  0  0
  -27.1300  -22.1000   20.0780 C   0  0  0  0  0  2  0  0  0  0  0  0
  -28.9200  -23.5280   20.4270 C   0  0  0  0  0  3  0  0  0  0  0  0
  -28.5820  -22.1210   19.8550 N   0  0  0  0  0  0  0  0  0  0  0  0
  -29.0420  -19.9310   21.2270 C   0  0  0  0  0  3  0  0  0  0  0  0
  -29.3210  -18.5050   21.2860 C   0  0  0  0  0  3  0  0  0  0  0  0
  -29.9140  -18.4890   19.0000 C   0  0  0  0  0  0  0  0  0  0  0  0
  -29.1430  -20.7380   20.0410 C   0  0  0  0  0  0  0  0  0  0  0  0
  -29.7770  -17.6980   20.1880 C   0  0  0  0  0  0  0  0  0  0  0  0
  -29.6220  -19.9270   18.9390 C   0  0  0  0  0  0  0  0  0  0  0  0
  -30.3210  -17.7480   17.7380 C   0  0  0  0  0  1  0  0  0  0  0  0
  -29.7500  -20.5430   17.7390 F   0  0  0  0  0  0  0  0  0  0  0  0
  -30.6870  -15.1090   19.8250 C   0  0  0  0  0  0  0  0  0  0  0  0
  -30.5560  -12.7740   18.8560 C   0  0  0  0  0  2  0  0  0  0  0  0
  -29.5140  -12.7400   17.7100 C   0  0  0  0  0  2  0  0  0  0  0  0
  -28.0930  -12.5060   18.2530 C   0  0  0  0  0  2  0  0  0  0  0  0
  -27.7710  -13.4260   19.4590 C   0  0  0  0  0  3  0  0  0  0  0  0
  -28.9100  -13.4130   20.5050 C   0  0  0  0  0  2  0  0  0  0  0  0
  -30.1440  -13.8270   19.8290 N   0  0  0  0  0  0  0  0  0  0  0  0
  -31.8000  -15.2610   19.3160 O   0  0  0  0  0  0  0  0  0  0  0  0
  -29.9100  -16.1780   20.3350 N   0  0  0  0  0  0  0  0  0  0  0  0
  -29.2210  -15.8030   20.9660 H   0  0  0  0  0  0  0  0  0  0  0  0
  -25.4470  -13.9930   20.3930 C   0  0  0  0  0  0  0  0  0  0  0  0
  -24.4080  -13.2020   20.8150 C   0  0  0  0  0  0  0  0  0  0  0  0
  -24.8630  -11.8560   20.6880 C   0  0  0  0  0  0  0  0  0  0  0  0
  -26.4670  -13.1210   20.0450 N   0  0  0  0  0  0  0  0  0  0  0  0
  -26.1270  -11.8300   20.2810 N   0  0  0  0  0  0  0  0  0  0  0  0
  -24.1510  -10.5860   20.8820 C   0  0  0  0  0  0  0  0  0  0  0  0
  -24.5840   -9.6300   21.8270 C   0  0  0  0  0  3  0  0  0  0  0  0
  -23.8670   -8.4260   22.0060 C   0  0  0  0  0  3  0  0  0  0  0  0
  -22.7020   -8.1750   21.2420 C   0  0  0  0  0  0  0  0  0  0  0  0
  -22.2940   -9.1150   20.2790 C   0  0  0  0  0  3  0  0  0  0  0  0
  -23.0130  -10.3080   20.0970 C   0  0  0  0  0  3  0  0  0  0  0  0
  -21.9510   -7.0290   21.3360 O   0  0  0  0  0  0  0  0  0  0  0  0
  -21.7960   -6.3660   22.5270 C   0  0  0  0  0  0  0  0  0  0  0  0
  -21.2310   -6.9900   23.6620 C   0  0  0  0  0  3  0  0  0  0  0  0
  -21.0330   -6.2470   24.8440 C   0  0  0  0  0  3  0  0  0  0  0  0
  -21.3840   -4.8850   24.8880 C   0  0  0  0  0  0  0  0  0  0  0  0
  -21.9400   -4.2620   23.7580 C   0  0  0  0  0  3  0  0  0  0  0  0
  -22.1450   -5.0020   22.5780 C   0  0  0  0  0  0  0  0  0  0  0  0
  -22.6610   -4.3940   21.4850 F   0  0  0  0  0  0  0  0  0  0  0  0
  -21.1810   -4.1680   26.0190 F   0  0  0  0  0  0  0  0  0  0  0  0
  -23.0400  -13.6670   21.2200 C   0  0  0  0  0  0  0  0  0  0  0  0
  -22.3890  -12.9320   22.1210 N   0  0  0  0  0  0  0  0  0  0  0  0
  -22.5600  -14.7070   20.7760 O   0  0  0  0  0  0  0  0  0  0  0  0
  -22.7980  -12.0940   22.5070 H   0  0  0  0  0  0  0  0  0  0  0  0
  -21.4700  -13.2130   22.4330 H   0  0  0  0  0  0  0  0  0  0  0  0
  -25.6000  -15.3680   20.2630 N   0  0  0  0  0  0  0  0  0  0  0  0
  -24.8640  -16.0260   20.5050 H   0  0  0  0  0  0  0  0  0  0  0  0
  -26.4650  -15.8230   19.9920 H   0  0  0  0  0  0  0  0  0  0  0  0
  -28.3210  -24.9070   19.6280 C   0  0  0  0  0  2  0  0  0  0  0  0
  -28.3120  -26.4060   20.0510 O   0  0  0  0  0  0  0  0  0  0  0  0
  -24.5240  -31.8620   23.1420 C   0  0  0  0  0  0  0  0  0  0  0  0
  -27.1860  -27.3130   19.9750 C   0  0  0  0  0  0  0  0  0  0  0  0
  -23.3200  -30.4640   21.5010 C   0  0  0  0  0  3  0  0  0  0  0  0
  -24.7790  -28.9550   20.0290 C   0  0  0  0  0  0  0  0  0  0  0  0
  -25.8560  -30.8230   21.2750 C   0  0  0  0  0  2  0  0  0  0  0  0
  -25.9580  -29.4490   20.5990 C   0  0  0  0  0  0  0  0  0  0  0  0
  -27.1540  -28.6440   20.5520 C   0  0  0  0  0  3  0  0  0  0  0  0
  -25.9680  -26.9170   19.3700 C   0  0  0  0  0  3  0  0  0  0  0  0
  -24.7920  -27.6970   19.4100 C   0  0  0  0  0  3  0  0  0  0  0  0
  -23.5310  -29.8110   20.1060 C   0  0  0  0  0  2  0  0  0  0  0  0
  -24.5860  -31.0710   22.0270 N   0  0  0  0  0  0  0  0  0  0  0  0
  -23.4440  -32.1060   23.7020 O   0  0  0  0  0  0  0  0  0  0  0  0
  -22.6920  -29.4250   22.4660 C   0  0  0  0  0  0  0  0  0  0  0  0
  -21.3780  -29.1710   22.3250 N   0  0  0  0  0  0  0  0  0  0  0  0
  -23.3880  -28.8470   23.3020 O   0  0  0  0  0  0  0  0  0  0  0  0
  -20.8890  -29.6570   21.5850 H   0  0  0  0  0  0  0  0  0  0  0  0
  -18.0690  -27.7550   22.8320 C   0  0  0  0  0  0  0  0  0  0  0  0
  -20.5990  -28.2050   23.1110 C   0  0  0  0  0  3  0  0  0  0  0  0
  -20.8090  -26.7710   22.5720 C   0  0  0  0  0  2  0  0  0  0  0  0
  -19.7380  -26.3380   21.5680 C   0  0  0  0  0  2  0  0  0  0  0  0
  -18.3450  -26.4050   22.1990 C   0  0  0  0  0  2  0  0  0  0  0  0
  -19.1230  -28.6050   23.2620 C   0  0  0  0  0  0  0  0  0  0  0  0
  -18.7960  -29.8490   23.8500 C   0  0  0  0  0  3  0  0  0  0  0  0
  -17.4520  -30.2420   24.0040 C   0  0  0  0  0  3  0  0  0  0  0  0
  -16.4180  -29.3950   23.5640 C   0  0  0  0  0  3  0  0  0  0  0  0
  -16.7280  -28.1590   22.9800 C   0  0  0  0  0  3  0  0  0  0  0  0
  -25.7970  -32.5200   23.7530 C   0  0  0  0  0  3  0  0  0  0  0  0
  -25.4540  -33.9060   24.1060 N   0  0  0  0  0  0  0  0  0  0  0  0
  -25.7510  -34.9810   23.3630 C   0  0  0  0  0  0  0  0  0  0  0  0
  -26.4010  -34.9050   22.3160 O   0  0  0  0  0  0  0  0  0  0  0  0
  -24.8610  -34.0330   24.9130 H   0  0  0  0  0  0  0  0  0  0  0  0
  -23.9770  -36.7450   23.0730 C   0  0  0  0  0  1  0  0  0  0  0  0
  -25.2440  -36.3540   23.8510 C   0  0  0  0  0  3  0  0  0  0  0  0
  -27.3760  -37.2740   24.6490 C   0  0  0  0  0  1  0  0  0  0  0  0
  -26.2530  -37.4300   23.7300 N   0  0  0  0  0  0  0  0  0  0  0  0
  -25.8320  -38.3400   23.9010 H   0  0  0  0  0  0  0  0  0  0  0  0
  -26.3470  -31.7540   25.0200 C   0  0  1  0  0  0  0  0  0  0  0  0
  -25.2740  -31.4930   26.1030 C   0  0  0  0  0  1  0  0  0  0  0  0
  -26.9540  -30.3900   24.6190 C   0  0  0  0  0  1  0  0  0  0  0  0
  -27.4880  -32.5750   25.6680 C   0  0  0  0  0  1  0  0  0  0  0  0
  1  2  1  0
  3  1  1  0
  4 52  1  0
  4  2  1  0
  5  9  1  0
  5  3  1  0
  5  4  1  0
  6  7  1  0
  8 10  1  0
  9  6  2  0
 10 22  1  0
 10  7  2  0
 11  8  2  0
 11  9  1  0
 12  8  1  0
 13 11  1  0
 14 20  1  0
 14 22  1  0
 15 20  1  0
 16 17  1  0
 16 15  1  0
 18 17  1  0
 18 27  1  0
 18 19  1  0
 20 19  1  0
 21 14  2  0
 22 23  1  0
 24 25  2  0
 25 44  1  0
 26 25  1  0
 26 29  1  0
 27 28  1  0
 27 24  1  0
 28 26  2  0
 29 30  1  0
 30 31  2  0
 32 35  1  0
 32 31  1  0
 33 32  2  0
 34 33  1  0
 34 29  2  0
 35 36  1  0
 36 41  2  0
 36 37  1  0
 37 38  2  0
 38 39  1  0
 39 43  1  0
 40 39  2  0
 41 40  1  0
 42 41  1  0
 44 45  1  0
 45 48  1  0
 45 47  1  0
 46 44  2  0
 49 24  1  0
 49 50  1  0
 51 49  1  0
 52 53  1  0
 54 65  2  0
 55 53  1  0
 55 60  1  0
 56 64  1  0
 56 66  1  0
 57 63  1  0
 57 59  1  0
 58 64  1  0
 59 58  1  0
 60 59  2  0
 61 62  1  0
 61 55  2  0
 62 57  2  0
 63 56  1  0
 64 54  1  0
 66 68  2  0
 67 66  1  0
 69 67  1  0
 70 79  2  0
 70 75  1  0
 71 67  1  0
 71 75  1  0
 72 71  1  0
 73 74  1  0
 73 72  1  0
 74 70  1  0
 75 76  2  0
 76 77  1  0
 78 77  2  0
 79 78  1  0
 80 54  1  0
 80 81  1  0
 80 90  1  0
 81 84  1  0
 82 86  1  0
 82 81  1  0
 83 82  2  0
 86 85  1  0
 88 86  1  0
 88 89  1  0
 88 87  1  0
 90 93  1  1
 90 91  1  0
 92 90  1  0
M  ISO  4  14 100  22 100  52 101  53 101
M  END
>  <TORSDO>  (2) 
F 18

>  <SCORE>  (2) 
-14.087

>  <name>  (2) 
1

>  <ligand_id>  (2) 
1

>  <original_smiles>  (2) 
[H]c1c([H])c([H])c2c(c1[H])C([H])([H])C([H])([H])C([H])([H])C2([H])N([H])C(=O)C1([H])N(C(=O)C([H])(N([H])C(=O)C([H])(N([H])C([H])([H])[H])C([H])([H])[H])C(C([H])([H])[H])(C([H])([H])[H])C([H])([H])[H])C([H])([H])c2c([H])c(OC([H])([H])C3([H])N(c4c([H])c([H])c(N([H])C(=O)N5C([H])([H])C([H])([H])C([H])([H])C([H])(n6nc(-c7c([H])c([H])c(Oc8c([H])c([H])c(F)c([H])c8F)c([H])c7[H])c(C(=O)N([H])[H])c6N([H])[H])C5([H])[H])c(C([H])([H])[H])c4F)C([H])([H])C([H])([H])C3([H])[H])c([H])c([H])c2C1([H])[H]

>  <smiles>  (2) 
[H]c1c([H])c([H])c2c(c1[H])C([H])([H])C([H])([H])C([H])([H])C2([H])N([H])C(=O)C1([H])N(C(=O)C([H])(N([H])C(=O)C([H])(N([H])C([H])([H])[H])C([H])([H])[H])C(C([H])([H])[H])(C([H])([H])[H])C([H])([H])[H])C([H])([H])c2c([H])c(OC([H])([H])C3([H])N(c4c([H])c([H])c(N([H])C(=O)N5C([H])([H])C([H])([H])C([H])([H])C([H])(n6nc(-c7c([H])c([H])c(Oc8c([H])c([H])c(F)c([H])c8F)c([H])c7[H])c(C(=O)N([H])[H])c6N([H])[H])C5([H])[H])c(C([H])([H])[H])c4F)C([H])([H])C([H])([H])C3([H])[H])c([H])c([H])c2C1([H])[H]

$$$$
2:0:0
     RDKit          3D

 97107  0  0  1  0  0  0  0  0999 V2000
  -30.9540  -20.0340   20.7200 C   0  0  0  0  0  3  0  0  0  0  0  0
  -30.9440  -18.5770   20.6410 C   0  0  0  0  0  3  0  0  0  0  0  0
  -28.7000  -18.6880   19.9240 C   0  0  0  0  0  0  0  0  0  0  0  0
  -29.8810  -20.9050   20.3090 C   0  0  0  0  0  0  0  0  0  0  0  0
  -29.8060  -17.7780   20.2710 C   0  0  0  0  0  0  0  0  0  0  0  0
  -28.8110  -20.1480   19.7900 C   0  0  0  0  0  0  0  0  0  0  0  0
  -27.5420  -21.1290   19.0960 Cl  0  0  0  0  0  0  0  0  0  0  0  0
  -30.5530  -15.0730   19.9900 C   0  0  0  0  0  0  0  0  0  0  0  0
  -30.4340  -12.7270   18.9680 C   0  0  0  0  0  2  0  0  0  0  0  0
  -29.4240  -12.6790   17.7940 C   0  0  0  0  0  2  0  0  0  0  0  0
  -27.9870  -12.4510   18.2980 C   0  0  0  0  0  2  0  0  0  0  0  0
  -27.6510  -13.3340   19.5230 C   0  0  0  0  0  3  0  0  0  0  0  0
  -28.7660  -13.3290   20.5900 C   0  0  0  0  0  2  0  0  0  0  0  0
  -29.9930  -13.7890   19.9270 N   0  0  0  0  0  0  0  0  0  0  0  0
  -31.7270  -15.1670   19.5990 O   0  0  0  0  0  0  0  0  0  0  0  0
  -29.7420  -16.2130   20.3230 N   0  0  0  0  0  0  0  0  0  0  0  0
  -28.8390  -15.8850   20.6280 H   0  0  0  0  0  0  0  0  0  0  0  0
  -25.3000  -13.8540   20.3480 C   0  0  0  0  0  0  0  0  0  0  0  0
  -24.2710  -13.1010   20.8090 C   0  0  0  0  0  0  0  0  0  0  0  0
  -24.7400  -11.7560   20.7340 C   0  0  0  0  0  0  0  0  0  0  0  0
  -26.3470  -13.0050   20.0800 N   0  0  0  0  0  0  0  0  0  0  0  0
  -26.0150  -11.7210   20.3560 N   0  0  0  0  0  0  0  0  0  0  0  0
  -24.0150  -10.5030   20.9300 C   0  0  0  0  0  0  0  0  0  0  0  0
  -24.4580   -9.5340   21.8530 C   0  0  0  0  0  3  0  0  0  0  0  0
  -23.7240   -8.3450   22.0440 C   0  0  0  0  0  3  0  0  0  0  0  0
  -22.5340   -8.1240   21.3100 C   0  0  0  0  0  0  0  0  0  0  0  0
  -22.1100   -9.0840   20.3760 C   0  0  0  0  0  3  0  0  0  0  0  0
  -22.8470  -10.2630   20.1830 C   0  0  0  0  0  3  0  0  0  0  0  0
  -21.7710   -6.9890   21.4140 O   0  0  0  0  0  0  0  0  0  0  0  0
  -21.7000   -6.2760   22.5830 C   0  0  0  0  0  0  0  0  0  0  0  0
  -21.2130   -6.8530   23.7760 C   0  0  0  0  0  3  0  0  0  0  0  0
  -21.0910   -6.0650   24.9380 C   0  0  0  0  0  3  0  0  0  0  0  0
  -21.4450   -4.7020   24.9040 C   0  0  0  0  0  0  0  0  0  0  0  0
  -21.9210   -4.1260   23.7130 C   0  0  0  0  0  3  0  0  0  0  0  0
  -22.0440   -4.9100   22.5550 C   0  0  0  0  0  0  0  0  0  0  0  0
  -22.4820   -4.3450   21.4040 F   0  0  0  0  0  0  0  0  0  0  0  0
  -21.3210   -3.9430   26.0180 F   0  0  0  0  0  0  0  0  0  0  0  0
  -22.9010  -13.5970   21.1770 C   0  0  0  0  0  0  0  0  0  0  0  0
  -22.2210  -12.9120   22.0860 N   0  0  0  0  0  0  0  0  0  0  0  0
  -22.4480  -14.6390   20.6990 O   0  0  0  0  0  0  0  0  0  0  0  0
  -22.5900  -12.0610   22.4870 H   0  0  0  0  0  0  0  0  0  0  0  0
  -21.2990  -13.2250   22.3560 H   0  0  0  0  0  0  0  0  0  0  0  0
  -25.4080  -15.1910   20.0930 N   0  0  0  0  0  0  0  0  0  0  0  0
  -24.6210  -15.7980   20.2880 H   0  0  0  0  0  0  0  0  0  0  0  0
  -26.2360  -15.6940   19.8190 H   0  0  0  0  0  0  0  0  0  0  0  0
  -31.3470  -24.0480   21.0610 C   0  0  0  0  0  2  0  0  0  0  0  0
  -30.7920  -24.2510   19.6440 C   0  0  0  0  0  2  0  0  0  0  0  0
  -30.5670  -22.8680   21.6500 C   0  0  0  0  0  2  0  0  0  0  0  0
  -29.4090  -23.6010   19.6960 C   0  0  0  0  0  3  0  0  0  0  0  0
  -29.7340  -22.3640   20.5690 N   0  0  0  0  0  0  0  0  0  0  0  0
  -28.2770  -24.7590   20.1610 C   0  0  0  0  0  2  0  0  0  0  0  0
  -28.3620  -26.2870   19.9260 O   0  0  0  0  0  0  0  0  0  0  0  0
  -24.4950  -31.7020   23.0740 C   0  0  0  0  0  0  0  0  0  0  0  0
  -27.2250  -27.1680   19.9410 C   0  0  0  0  0  0  0  0  0  0  0  0
  -23.3370  -30.3400   21.3730 C   0  0  0  0  0  3  0  0  0  0  0  0
  -24.8340  -28.8260   19.9270 C   0  0  0  0  0  0  0  0  0  0  0  0
  -25.8820  -30.6610   21.2530 C   0  0  0  0  0  2  0  0  0  0  0  0
  -25.9920  -29.2910   20.5650 C   0  0  0  0  0  0  0  0  0  0  0  0
  -27.1830  -28.4790   20.5550 C   0  0  0  0  0  3  0  0  0  0  0  0
  -26.0360  -26.7870   19.2720 C   0  0  0  0  0  3  0  0  0  0  0  0
  -24.8660  -27.5830   19.2720 C   0  0  0  0  0  3  0  0  0  0  0  0
  -23.5840  -29.6940   19.9810 C   0  0  0  0  0  2  0  0  0  0  0  0
  -24.5890  -30.9230   21.9560 N   0  0  0  0  0  0  0  0  0  0  0  0
  -23.3990  -31.9580   23.5930 O   0  0  0  0  0  0  0  0  0  0  0  0
  -22.6520  -29.3020   22.2960 C   0  0  0  0  0  0  0  0  0  0  0  0
  -21.3230  -29.1520   22.1680 N   0  0  0  0  0  0  0  0  0  0  0  0
  -23.3230  -28.6330   23.0870 O   0  0  0  0  0  0  0  0  0  0  0  0
  -20.8390  -29.7440   21.5080 H   0  0  0  0  0  0  0  0  0  0  0  0
  -17.9290  -27.9830   22.6340 C   0  0  0  0  0  0  0  0  0  0  0  0
  -20.4940  -28.1920   22.8980 C   0  0  0  0  0  3  0  0  0  0  0  0
  -20.5750  -26.7910   22.2510 C   0  0  0  0  0  2  0  0  0  0  0  0
  -19.4610  -26.5340   21.2320 C   0  0  0  0  0  2  0  0  0  0  0  0
  -18.0850  -26.6660   21.8910 C   0  0  0  0  0  2  0  0  0  0  0  0
  -19.0630  -28.7080   23.0920 C   0  0  0  0  0  0  0  0  0  0  0  0
  -18.8640  -29.9430   23.7440 C   0  0  0  0  0  3  0  0  0  0  0  0
  -17.5690  -30.4500   23.9550 C   0  0  0  0  0  3  0  0  0  0  0  0
  -16.4500  -29.7200   23.5150 C   0  0  0  0  0  3  0  0  0  0  0  0
  -16.6330  -28.4910   22.8550 C   0  0  0  0  0  3  0  0  0  0  0  0
  -25.7580  -32.3250   23.7430 C   0  0  0  0  0  3  0  0  0  0  0  0
  -26.2580  -31.5160   25.0030 C   0  0  1  0  0  0  0  0  0  0  0  0
  -25.1530  -31.2610   26.0530 C   0  0  0  0  0  1  0  0  0  0  0  0
  -26.8380  -30.1420   24.5860 C   0  0  0  0  0  1  0  0  0  0  0  0
  -27.4050  -32.2850   25.6960 C   0  0  0  0  0  1  0  0  0  0  0  0
  -25.4300  -33.7100   24.1160 N   0  0  0  0  0  0  0  0  0  0  0  0
  -25.7480  -34.7900   23.3910 C   0  0  0  0  0  0  0  0  0  0  0  0
  -26.4120  -34.7270   22.3520 O   0  0  0  0  0  0  0  0  0  0  0  0
  -24.8370  -33.8350   24.9250 H   0  0  0  0  0  0  0  0  0  0  0  0
  -23.9850  -36.5640   23.1260 C   0  0  0  0  0  1  0  0  0  0  0  0
  -25.2510  -36.1580   23.8970 C   0  0  0  0  0  3  0  0  0  0  0  0
  -27.3820  -37.0650   24.7120 C   0  0  0  0  0  1  0  0  0  0  0  0
  -26.2630  -37.2300   23.7880 N   0  0  0  0  0  0  0  0  0  0  0  0
  -25.8400  -38.1380   23.9630 H   0  0  0  0  0  0  0  0  0  0  0  0
  -25.1390  -17.3720   20.4260 C   0  0  0  0  0  2  0  0  0  0  0  0
  -25.0190  -18.1650   19.0860 C   0  0  0  0  0  2  0  0  0  0  0  0
  -26.6450  -17.1620   20.6980 C   0  0  0  0  0  2  0  0  0  0  0  0
  -26.4560  -18.3940   18.5660 C   0  0  0  0  0  2  0  0  0  0  0  0
  -27.2280  -18.2950   19.8750 C   0  0  0  0  0  3  0  0  0  0  0  0
  2  1  1  0
  3  5  1  0
  4 50  1  0
  4  1  2  0
  5 16  1  0
  5  2  2  0
  6  3  2  0
  6  4  1  0
  7  6  1  0
  8 16  1  0
  9 14  1  0
 10 11  1  0
 10  9  1  0
 12 11  1  0
 12 21  1  0
 12 13  1  0
 14  8  1  0
 14 13  1  0
 15  8  2  0
 16 17  1  0
 18 19  2  0
 19 38  1  0
 20 19  1  0
 20 23  1  0
 21 18  1  0
 21 22  1  0
 22 20  2  0
 23 24  1  0
 24 25  2  0
 26 29  1  0
 26 25  1  0
 27 26  2  0
 28 27  1  0
 28 23  2  0
 29 30  1  0
 30 31  1  0
 31 32  2  0
 33 32  1  0
 33 37  1  0
 34 33  2  0
 35 30  2  0
 35 34  1  0
 36 35  1  0
 38 39  1  0
 39 42  1  0
 39 41  1  0
 40 38  2  0
 43 44  1  0
 43 18  1  0
 45 43  1  0
 46 48  1  0
 47 49  1  0
 47 46  1  0
 49 51  1  0
 49 50  1  0
 50 48  1  0
 52 54  1  0
 52 51  1  0
 53 64  2  0
 54 59  1  0
 55 63  1  0
 55 65  1  0
 56 62  1  0
 56 58  1  0
 57 63  1  0
 58 57  1  0
 59 58  2  0
 60 54  2  0
 61 60  1  0
 61 56  2  0
 62 55  1  0
 63 53  1  0
 65 67  2  0
 66 65  1  0
 68 66  1  0
 69 78  2  0
 69 74  1  0
 70 66  1  0
 70 74  1  0
 71 70  1  0
 72 73  1  0
 72 71  1  0
 73 69  1  0
 74 75  2  0
 75 76  1  0
 77 76  2  0
 78 77  1  0
 79 53  1  0
 79 84  1  0
 79 80  1  0
 80 83  1  1
 80 81  1  0
 82 80  1  0
 84 87  1  0
 85 89  1  0
 85 84  1  0
 86 85  2  0
 89 88  1  0
 91 89  1  0
 91 92  1  0
 91 90  1  0
 93 95  1  0
 94 93  1  0
 96 94  1  0
 96 97  1  0
 97  3  1  0
 97 95  1  0
M  ISO  4   8 100  16 100  51 101  52 101
M  END
>  <TORSDO>  (3) 
F 19

>  <SCORE>  (3) 
-12.240

>  <name>  (3) 
2

>  <ligand_id>  (3) 
2

>  <original_smiles>  (3) 
[H]c1c([H])c([H])c2c(c1[H])C([H])([H])C([H])([H])C([H])([H])C2([H])N([H])C(=O)C1([H])N(C(=O)C([H])(N([H])C(=O)C([H])(N([H])C([H])([H])[H])C([H])([H])[H])C(C([H])([H])[H])(C([H])([H])[H])C([H])([H])[H])C([H])([H])c2c([H])c(OC([H])([H])C3([H])N(c4c([H])c([H])c(N([H])C(=O)N5C([H])([H])C([H])([H])C([H])([H])C([H])(n6nc(-c7c([H])c([H])c(Oc8c([H])c([H])c(F)c([H])c8F)c([H])c7[H])c(C(=O)N([H])[H])c6N([H])[H])C5([H])[H])c(C5([H])C([H])([H])C([H])([H])C([H])([H])C5([H])[H])c4Cl)C([H])([H])C([H])([H])C3([H])[H])c([H])c([H])c2C1([H])[H]

>  <smiles>  (3) 
[H]c1c([H])c([H])c2c(c1[H])C([H])([H])C([H])([H])C([H])([H])C2([H])N([H])C(=O)C1([H])N(C(=O)C([H])(N([H])C(=O)C([H])(N([H])C([H])([H])[H])C([H])([H])[H])C(C([H])([H])[H])(C([H])([H])[H])C([H])([H])[H])C([H])([H])c2c([H])c(OC([H])([H])C3([H])N(c4c([H])c([H])c(N([H])C(=O)N5C([H])([H])C([H])([H])C([H])([H])C([H])(n6nc(-c7c([H])c([H])c(Oc8c([H])c([H])c(F)c([H])c8F)c([H])c7[H])c(C(=O)N([H])[H])c6N([H])[H])C5([H])[H])c(C5([H])C([H])([H])C([H])([H])C([H])([H])C5([H])[H])c4Cl)C([H])([H])C([H])([H])C3([H])[H])c([H])c([H])c2C1([H])[H]

$$$$
3:0:0
     RDKit          3D

 93101  0  0  1  0  0  0  0  0999 V2000
  -31.5690  -18.9470   21.7970 C   0  0  0  0  0  3  0  0  0  0  0  0
  -31.5170  -20.3040   21.4280 C   0  0  0  0  0  3  0  0  0  0  0  0
  -30.5880  -18.0200   21.3750 C   0  0  0  0  0  0  0  0  0  0  0  0
  -30.4770  -20.7990   20.6220 C   0  0  0  0  0  0  0  0  0  0  0  0
  -29.5350  -18.5040   20.5480 C   0  0  0  0  0  0  0  0  0  0  0  0
  -29.4870  -19.8780   20.1680 C   0  0  0  0  0  0  0  0  0  0  0  0
  -28.2720  -17.4480   20.0000 Cl  0  0  0  0  0  0  0  0  0  0  0  0
  -28.2250  -20.3970   19.0950 Cl  0  0  0  0  0  0  0  0  0  0  0  0
  -30.5190  -22.1790   20.2950 N   0  0  0  0  0  0  0  0  0  0  0  0
  -31.4130  -22.6140   20.4980 H   0  0  0  0  0  0  0  0  0  0  0  0
  -29.3720  -23.0270   20.6370 C   0  0  0  0  0  2  0  0  0  0  0  0
  -29.6080  -24.5430   20.4040 C   0  0  0  0  0  2  0  0  0  0  0  0
  -28.2680  -25.3090   20.3260 C   0  0  0  0  0  2  0  0  0  0  0  0
  -28.3960  -26.7380   20.2330 O   0  0  0  0  0  0  0  0  0  0  0  0
  -24.5710  -31.9450   23.2560 C   0  0  0  0  0  0  0  0  0  0  0  0
  -27.2160  -27.4650   20.2140 C   0  0  0  0  0  0  0  0  0  0  0  0
  -23.3660  -30.5360   21.6200 C   0  0  0  0  0  3  0  0  0  0  0  0
  -24.8200  -28.9860   20.2100 C   0  0  0  0  0  0  0  0  0  0  0  0
  -25.8960  -30.8840   21.4280 C   0  0  0  0  0  2  0  0  0  0  0  0
  -25.9800  -29.5080   20.7950 C   0  0  0  0  0  0  0  0  0  0  0  0
  -27.1800  -28.7570   20.7890 C   0  0  0  0  0  3  0  0  0  0  0  0
  -26.0290  -26.9590   19.6290 C   0  0  0  0  0  3  0  0  0  0  0  0
  -24.8400  -27.7130   19.6220 C   0  0  0  0  0  3  0  0  0  0  0  0
  -23.5760  -29.8460   20.2460 C   0  0  0  0  0  2  0  0  0  0  0  0
  -24.6300  -31.1350   22.1600 N   0  0  0  0  0  0  0  0  0  0  0  0
  -23.4900  -32.2250   23.7890 O   0  0  0  0  0  0  0  0  0  0  0  0
  -22.7080  -29.5230   22.5840 C   0  0  0  0  0  0  0  0  0  0  0  0
  -21.3830  -29.3480   22.4550 N   0  0  0  0  0  0  0  0  0  0  0  0
  -23.3860  -28.8990   23.4040 O   0  0  0  0  0  0  0  0  0  0  0  0
  -20.9000  -29.9030   21.7640 H   0  0  0  0  0  0  0  0  0  0  0  0
  -17.9970  -28.1870   22.9590 C   0  0  0  0  0  0  0  0  0  0  0  0
  -20.5580  -28.4190   23.2250 C   0  0  0  0  0  3  0  0  0  0  0  0
  -20.6440  -26.9860   22.6510 C   0  0  0  0  0  2  0  0  0  0  0  0
  -19.5360  -26.6740   21.6390 C   0  0  0  0  0  2  0  0  0  0  0  0
  -18.1580  -26.8360   22.2850 C   0  0  0  0  0  2  0  0  0  0  0  0
  -19.1240  -28.9380   23.3870 C   0  0  0  0  0  0  0  0  0  0  0  0
  -18.9200  -30.2050   23.9760 C   0  0  0  0  0  3  0  0  0  0  0  0
  -17.6200  -30.7210   24.1410 C   0  0  0  0  0  3  0  0  0  0  0  0
  -16.5080  -29.9650   23.7310 C   0  0  0  0  0  3  0  0  0  0  0  0
  -16.6960  -28.7010   23.1460 C   0  0  0  0  0  3  0  0  0  0  0  0
  -25.8580  -32.5760   23.8740 C   0  0  0  0  0  3  0  0  0  0  0  0
  -25.5520  -33.9780   24.1940 N   0  0  0  0  0  0  0  0  0  0  0  0
  -25.8970  -35.0240   23.4320 C   0  0  0  0  0  0  0  0  0  0  0  0
  -26.5760  -34.9100   22.4070 O   0  0  0  0  0  0  0  0  0  0  0  0
  -24.9490  -34.1410   24.9860 H   0  0  0  0  0  0  0  0  0  0  0  0
  -24.1820  -36.8230   23.0450 C   0  0  0  0  0  1  0  0  0  0  0  0
  -25.4100  -36.4180   23.8760 C   0  0  0  0  0  3  0  0  0  0  0  0
  -27.5390  -37.2910   24.7290 C   0  0  0  0  0  1  0  0  0  0  0  0
  -26.4500  -37.4630   23.7700 N   0  0  0  0  0  0  0  0  0  0  0  0
  -26.0490  -38.3870   23.9100 H   0  0  0  0  0  0  0  0  0  0  0  0
  -26.3720  -31.8120   25.1550 C   0  0  1  0  0  0  0  0  0  0  0  0
  -25.2730  -31.5710   26.2160 C   0  0  0  0  0  1  0  0  0  0  0  0
  -26.9650  -30.4350   24.7720 C   0  0  0  0  0  1  0  0  0  0  0  0
  -27.5130  -32.6170   25.8190 C   0  0  0  0  0  1  0  0  0  0  0  0
  -30.7290  -16.5870   21.9390 C   0  0  0  0  0  2  0  0  0  0  0  0
  -30.6900  -14.5110   20.5000 C   0  0  0  0  0  0  0  0  0  0  0  0
  -30.3580  -12.4030   19.2470 C   0  0  0  0  0  2  0  0  0  0  0  0
  -29.4010  -12.6210   18.0570 C   0  0  0  0  0  2  0  0  0  0  0  0
  -27.9350  -12.4600   18.5030 C   0  0  0  0  0  2  0  0  0  0  0  0
  -27.6050  -13.2820   19.7770 C   0  0  0  0  0  3  0  0  0  0  0  0
  -28.6670  -13.0450   20.8730 C   0  0  0  0  0  2  0  0  0  0  0  0
  -29.9880  -13.3620   20.3010 N   0  0  0  0  0  0  0  0  0  0  0  0
  -31.7830  -14.7310   19.9750 O   0  0  0  0  0  0  0  0  0  0  0  0
  -30.0980  -15.4250   21.2910 N   0  0  0  0  0  0  0  0  0  0  0  0
  -29.1750  -15.1850   21.6180 H   0  0  0  0  0  0  0  0  0  0  0  0
  -25.2030  -13.8790   20.4850 C   0  0  0  0  0  0  0  0  0  0  0  0
  -24.1390  -13.1030   20.8570 C   0  0  0  0  0  0  0  0  0  0  0  0
  -24.6100  -11.7540   20.8360 C   0  0  0  0  0  0  0  0  0  0  0  0
  -26.2540  -13.0040   20.2590 N   0  0  0  0  0  0  0  0  0  0  0  0
  -25.9000  -11.7210   20.5290 N   0  0  0  0  0  0  0  0  0  0  0  0
  -23.8910  -10.4880   21.0310 C   0  0  0  0  0  0  0  0  0  0  0  0
  -24.3340   -9.5230   21.9640 C   0  0  0  0  0  3  0  0  0  0  0  0
  -23.6160   -8.3230   22.1470 C   0  0  0  0  0  3  0  0  0  0  0  0
  -22.4400   -8.0780   21.3990 C   0  0  0  0  0  0  0  0  0  0  0  0
  -22.0160   -9.0290   20.4550 C   0  0  0  0  0  3  0  0  0  0  0  0
  -22.7350  -10.2210   20.2690 C   0  0  0  0  0  3  0  0  0  0  0  0
  -21.6930   -6.9290   21.4920 O   0  0  0  0  0  0  0  0  0  0  0  0
  -21.6600   -6.1810   22.6410 C   0  0  0  0  0  0  0  0  0  0  0  0
  -21.2500   -6.7300   23.8760 C   0  0  0  0  0  3  0  0  0  0  0  0
  -21.1690   -5.9100   25.0180 C   0  0  0  0  0  3  0  0  0  0  0  0
  -21.4850   -4.5420   24.9280 C   0  0  0  0  0  0  0  0  0  0  0  0
  -21.8870   -3.9920   23.6980 C   0  0  0  0  0  3  0  0  0  0  0  0
  -21.9720   -4.8090   22.5570 C   0  0  0  0  0  0  0  0  0  0  0  0
  -22.3420   -4.2690   21.3710 F   0  0  0  0  0  0  0  0  0  0  0  0
  -21.3960   -3.7510   26.0230 F   0  0  0  0  0  0  0  0  0  0  0  0
  -22.7390  -13.5730   21.1270 C   0  0  0  0  0  0  0  0  0  0  0  0
  -22.0140  -12.8740   21.9930 N   0  0  0  0  0  0  0  0  0  0  0  0
  -22.2960  -14.5940   20.6020 O   0  0  0  0  0  0  0  0  0  0  0  0
  -22.3830  -12.0460   22.4350 H   0  0  0  0  0  0  0  0  0  0  0  0
  -21.0750  -13.1720   22.2210 H   0  0  0  0  0  0  0  0  0  0  0  0
  -25.3610  -15.2500   20.3010 N   0  0  0  0  0  0  0  0  0  0  0  0
  -24.5880  -15.8980   20.4070 H   0  0  0  0  0  0  0  0  0  0  0  0
  -26.2160  -15.6980   20.0000 H   0  0  0  0  0  0  0  0  0  0  0  0
  2  1  1  0
  3  1  2  0
  3 55  1  0
  4  2  2  0
  5  3  1  0
  6  5  2  0
  6  4  1  0
  7  5  1  0
  8  6  1  0
  9 10  1  0
  9  4  1  0
  9 11  1  0
 12 11  1  0
 13 12  1  0
 14 13  1  0
 15 26  2  0
 16 14  1  0
 16 21  1  0
 17 25  1  0
 17 27  1  0
 18 24  1  0
 18 20  1  0
 19 25  1  0
 20 19  1  0
 21 20  2  0
 22 16  2  0
 23 22  1  0
 23 18  2  0
 24 17  1  0
 25 15  1  0
 27 29  2  0
 28 27  1  0
 30 28  1  0
 31 40  2  0
 31 36  1  0
 32 28  1  0
 32 36  1  0
 33 32  1  0
 34 35  1  0
 34 33  1  0
 35 31  1  0
 36 37  2  0
 37 38  1  0
 39 38  2  0
 40 39  1  0
 41 15  1  0
 41 42  1  0
 41 51  1  0
 42 45  1  0
 43 47  1  0
 43 42  1  0
 44 43  2  0
 47 46  1  0
 49 47  1  0
 49 50  1  0
 49 48  1  0
 51 54  1  1
 51 52  1  0
 53 51  1  0
 56 64  1  0
 57 62  1  0
 58 59  1  0
 58 57  1  0
 60 59  1  0
 60 69  1  0
 60 61  1  0
 62 56  1  0
 62 61  1  0
 63 56  2  0
 64 65  1  0
 64 55  1  0
 66 67  2  0
 67 86  1  0
 68 67  1  0
 68 71  1  0
 69 66  1  0
 69 70  1  0
 70 68  2  0
 71 72  1  0
 72 73  2  0
 74 77  1  0
 74 73  1  0
 75 74  2  0
 76 75  1  0
 76 71  2  0
 77 78  1  0
 78 79  1  0
 79 80  2  0
 81 80  1  0
 81 85  1  0
 82 81  2  0
 83 78  2  0
 83 82  1  0
 84 83  1  0
 86 87  1  0
 87 90  1  0
 87 89  1  0
 88 86  2  0
 91 92  1  0
 91 66  1  0
 93 91  1  0
M  ISO  4  13 101  14 101  56 100  64 100
M  END
>  <TORSDO>  (4) 
F 21

>  <SCORE>  (4) 
-13.942

>  <name>  (4) 
3

>  <ligand_id>  (4) 
3

>  <original_smiles>  (4) 
[H]c1c([H])c([H])c2c(c1[H])C([H])([H])C([H])([H])C([H])([H])C2([H])N([H])C(=O)C1([H])N(C(=O)C([H])(N([H])C(=O)C([H])(N([H])C([H])([H])[H])C([H])([H])[H])C(C([H])([H])[H])(C([H])([H])[H])C([H])([H])[H])C([H])([H])c2c([H])c(OC([H])([H])C([H])([H])C([H])([H])N([H])c3c([H])c([H])c(C([H])([H])N([H])C(=O)N4C([H])([H])C([H])([H])C([H])([H])C([H])(n5nc(-c6c([H])c([H])c(Oc7c([H])c([H])c(F)c([H])c7F)c([H])c6[H])c(C(=O)N([H])[H])c5N([H])[H])C4([H])[H])c(Cl)c3Cl)c([H])c([H])c2C1([H])[H]

>  <smiles>  (4) 
[H]c1c([H])c([H])c2c(c1[H])C([H])([H])C([H])([H])C([H])([H])C2([H])N([H])C(=O)C1([H])N(C(=O)C([H])(N([H])C(=O)C([H])(N([H])C([H])([H])[H])C([H])([H])[H])C(C([H])([H])[H])(C([H])([H])[H])C([H])([H])[H])C([H])([H])c2c([H])c(OC([H])([H])C([H])([H])C([H])([H])N([H])c3c([H])c([H])c(C([H])([H])N([H])C(=O)N4C([H])([H])C([H])([H])C([H])([H])C([H])(n5nc(-c6c([H])c([H])c(Oc7c([H])c([H])c(F)c([H])c7F)c([H])c6[H])c(C(=O)N([H])[H])c5N([H])[H])C4([H])[H])c(Cl)c3Cl)c([H])c([H])c2C1([H])[H]

$$$$
4:0:0
     RDKit          3D

 92101  0  0  1  0  0  0  0  0999 V2000
  -29.7710  -23.2000   22.3580 C   0  0  0  0  0  2  0  0  0  0  0  0
  -30.4370  -23.7210   21.0810 C   0  0  0  0  0  2  0  0  0  0  0  0
  -28.6720  -22.2390   21.8800 C   0  0  0  0  0  2  0  0  0  0  0  0
  -29.4430  -23.3580   19.9820 C   0  0  0  0  0  3  0  0  0  0  0  0
  -28.9390  -21.9710   20.4640 N   0  0  0  0  0  0  0  0  0  0  0  0
  -30.6110  -19.9220   20.0430 C   0  0  0  0  0  3  0  0  0  0  0  0
  -30.8500  -18.4730   20.0240 C   0  0  0  0  0  3  0  0  0  0  0  0
  -28.3520  -19.5200   20.5340 C   0  0  0  0  0  3  0  0  0  0  0  0
  -28.5700  -18.0930   20.5300 C   0  0  0  0  0  0  0  0  0  0  0  0
  -29.3340  -20.5370   20.3120 C   0  0  0  0  0  0  0  0  0  0  0  0
  -29.8400  -17.4710   20.2710 C   0  0  0  0  0  0  0  0  0  0  0  0
  -27.3520  -17.2420   20.8620 C   0  0  0  0  0  1  0  0  0  0  0  0
  -30.7270  -14.8730   19.7970 C   0  0  0  0  0  0  0  0  0  0  0  0
  -30.5140  -12.5770   18.7440 C   0  0  0  0  0  2  0  0  0  0  0  0
  -29.4570  -12.6290   17.6130 C   0  0  0  0  0  2  0  0  0  0  0  0
  -28.0360  -12.4220   18.1740 C   0  0  0  0  0  2  0  0  0  0  0  0
  -27.7690  -13.2820   19.4380 C   0  0  0  0  0  3  0  0  0  0  0  0
  -28.9300  -13.1780   20.4530 C   0  0  0  0  0  2  0  0  0  0  0  0
  -30.1550  -13.6050   19.7580 N   0  0  0  0  0  0  0  0  0  0  0  0
  -31.8650  -15.0180   19.3350 O   0  0  0  0  0  0  0  0  0  0  0  0
  -29.9160  -15.9410   20.2350 N   0  0  0  0  0  0  0  0  0  0  0  0
  -29.0820  -15.5390   20.6330 H   0  0  0  0  0  0  0  0  0  0  0  0
  -25.4710  -13.8600   20.4160 C   0  0  0  0  0  0  0  0  0  0  0  0
  -24.4370  -13.0840   20.8600 C   0  0  0  0  0  0  0  0  0  0  0  0
  -24.8740  -11.7300   20.7250 C   0  0  0  0  0  0  0  0  0  0  0  0
  -26.4750  -12.9810   20.0430 N   0  0  0  0  0  0  0  0  0  0  0  0
  -26.1280  -11.6920   20.2890 N   0  0  0  0  0  0  0  0  0  0  0  0
  -24.1460  -10.4700   20.9250 C   0  0  0  0  0  0  0  0  0  0  0  0
  -24.5860   -9.5030   21.8560 C   0  0  0  0  0  3  0  0  0  0  0  0
  -23.8560   -8.3090   22.0450 C   0  0  0  0  0  3  0  0  0  0  0  0
  -22.6750   -8.0740   21.3040 C   0  0  0  0  0  0  0  0  0  0  0  0
  -22.2540   -9.0300   20.3620 C   0  0  0  0  0  3  0  0  0  0  0  0
  -22.9840  -10.2150   20.1700 C   0  0  0  0  0  3  0  0  0  0  0  0
  -21.9170   -6.9320   21.4030 O   0  0  0  0  0  0  0  0  0  0  0  0
  -21.7840   -6.2580   22.5900 C   0  0  0  0  0  0  0  0  0  0  0  0
  -21.3010   -6.8890   23.7560 C   0  0  0  0  0  3  0  0  0  0  0  0
  -21.1140   -6.1420   24.9370 C   0  0  0  0  0  3  0  0  0  0  0  0
  -21.4010   -4.7650   24.9520 C   0  0  0  0  0  0  0  0  0  0  0  0
  -21.8790   -4.1320   23.7900 C   0  0  0  0  0  3  0  0  0  0  0  0
  -22.0670   -4.8760   22.6120 C   0  0  0  0  0  0  0  0  0  0  0  0
  -22.5060   -4.2580   21.4890 F   0  0  0  0  0  0  0  0  0  0  0  0
  -21.2150   -4.0440   26.0820 F   0  0  0  0  0  0  0  0  0  0  0  0
  -23.0810  -13.5660   21.2880 C   0  0  0  0  0  0  0  0  0  0  0  0
  -22.4390  -12.8560   22.2070 N   0  0  0  0  0  0  0  0  0  0  0  0
  -22.6040  -14.6080   20.8400 O   0  0  0  0  0  0  0  0  0  0  0  0
  -22.8400  -12.0130   22.5900 H   0  0  0  0  0  0  0  0  0  0  0  0
  -21.5340  -13.1610   22.5360 H   0  0  0  0  0  0  0  0  0  0  0  0
  -25.6280  -15.2350   20.2690 N   0  0  0  0  0  0  0  0  0  0  0  0
  -24.8600  -15.8710   20.4460 H   0  0  0  0  0  0  0  0  0  0  0  0
  -26.3960  -15.6720   19.7770 H   0  0  0  0  0  0  0  0  0  0  0  0
  -28.3620  -24.6450   19.8240 C   0  0  0  0  0  2  0  0  0  0  0  0
  -28.6500  -26.1700   19.8350 O   0  0  0  0  0  0  0  0  0  0  0  0
  -25.0040  -31.5830   23.2540 C   0  0  0  0  0  0  0  0  0  0  0  0
  -27.5790  -27.1330   19.8660 C   0  0  0  0  0  0  0  0  0  0  0  0
  -23.7990  -30.3190   21.5150 C   0  0  0  0  0  3  0  0  0  0  0  0
  -25.2440  -28.8600   19.9740 C   0  0  0  0  0  0  0  0  0  0  0  0
  -26.3530  -30.6000   21.3650 C   0  0  0  0  0  2  0  0  0  0  0  0
  -26.4260  -29.2640   20.6100 C   0  0  0  0  0  0  0  0  0  0  0  0
  -27.5940  -28.4190   20.5390 C   0  0  0  0  0  3  0  0  0  0  0  0
  -26.3690  -26.8300   19.2010 C   0  0  0  0  0  3  0  0  0  0  0  0
  -25.2280  -27.6560   19.2560 C   0  0  0  0  0  3  0  0  0  0  0  0
  -24.0170  -29.7500   20.0880 C   0  0  0  0  0  2  0  0  0  0  0  0
  -25.0720  -30.8500   22.1020 N   0  0  0  0  0  0  0  0  0  0  0  0
  -23.9190  -31.8270   23.8040 O   0  0  0  0  0  0  0  0  0  0  0  0
  -23.1230  -29.2400   22.3970 C   0  0  0  0  0  0  0  0  0  0  0  0
  -21.8000  -29.0570   22.2360 N   0  0  0  0  0  0  0  0  0  0  0  0
  -23.7900  -28.5720   23.1910 O   0  0  0  0  0  0  0  0  0  0  0  0
  -21.3170  -29.6500   21.5730 H   0  0  0  0  0  0  0  0  0  0  0  0
  -18.4250  -27.7990   22.6190 C   0  0  0  0  0  0  0  0  0  0  0  0
  -20.9790  -28.0620   22.9300 C   0  0  0  0  0  3  0  0  0  0  0  0
  -21.0980  -26.6750   22.2570 C   0  0  0  0  0  2  0  0  0  0  0  0
  -20.0080  -26.4160   21.2110 C   0  0  0  0  0  2  0  0  0  0  0  0
  -18.6190  -26.5030   21.8510 C   0  0  0  0  0  2  0  0  0  0  0  0
  -19.5330  -28.5390   23.1120 C   0  0  0  0  0  0  0  0  0  0  0  0
  -19.2960  -29.7530   23.7920 C   0  0  0  0  0  3  0  0  0  0  0  0
  -17.9840  -30.2280   23.9820 C   0  0  0  0  0  3  0  0  0  0  0  0
  -16.8910  -29.4860   23.5040 C   0  0  0  0  0  3  0  0  0  0  0  0
  -17.1130  -28.2730   22.8290 C   0  0  0  0  0  3  0  0  0  0  0  0
  -26.2840  -32.1670   23.9250 C   0  0  0  0  0  3  0  0  0  0  0  0
  -25.9970  -33.5610   24.2980 N   0  0  0  0  0  0  0  0  0  0  0  0
  -26.3450  -34.6320   23.5730 C   0  0  0  0  0  0  0  0  0  0  0  0
  -27.0090  -34.5500   22.5360 O   0  0  0  0  0  0  0  0  0  0  0  0
  -25.4060  -33.7000   25.1050 H   0  0  0  0  0  0  0  0  0  0  0  0
  -24.6380  -36.4620   23.3020 C   0  0  0  0  0  1  0  0  0  0  0  0
  -25.8870  -36.0160   24.0780 C   0  0  0  0  0  3  0  0  0  0  0  0
  -28.0450  -36.8540   24.9000 C   0  0  0  0  0  1  0  0  0  0  0  0
  -26.9330  -37.0570   23.9750 N   0  0  0  0  0  0  0  0  0  0  0  0
  -26.5410  -37.9790   24.1470 H   0  0  0  0  0  0  0  0  0  0  0  0
  -26.7500  -31.3450   25.1900 C   0  0  1  0  0  0  0  0  0  0  0  0
  -25.6270  -31.1030   26.2260 C   0  0  0  0  0  1  0  0  0  0  0  0
  -27.3080  -29.9640   24.7730 C   0  0  0  0  0  1  0  0  0  0  0  0
  -27.9040  -32.0890   25.9020 C   0  0  0  0  0  1  0  0  0  0  0  0
  2  1  1  0
  3  1  1  0
  4 51  1  0
  4  5  1  0
  4  2  1  0
  5  3  1  0
  6 10  1  0
  7  6  2  0
  7 11  1  0
  9  8  1  0
  9 12  1  0
 10  5  1  0
 10  8  2  0
 11  9  2  0
 13 21  1  0
 14 19  1  0
 15 16  1  0
 15 14  1  0
 17 16  1  0
 17 26  1  0
 17 18  1  0
 19 13  1  0
 19 18  1  0
 20 13  2  0
 21 11  1  0
 21 22  1  0
 23 24  2  0
 24 43  1  0
 25 24  1  0
 25 28  1  0
 26 27  1  0
 26 23  1  0
 27 25  2  0
 28 29  1  0
 29 30  2  0
 31 34  1  0
 31 30  1  0
 32 31  2  0
 33 32  1  0
 33 28  2  0
 34 35  1  0
 35 40  2  0
 35 36  1  0
 36 37  2  0
 37 38  1  0
 38 42  1  0
 39 38  2  0
 40 39  1  0
 41 40  1  0
 43 44  1  0
 44 47  1  0
 44 46  1  0
 45 43  2  0
 48 23  1  0
 48 49  1  0
 50 48  1  0
 51 52  1  0
 52 54  1  0
 53 64  2  0
 54 59  1  0
 55 63  1  0
 55 65  1  0
 56 62  1  0
 56 58  1  0
 57 63  1  0
 58 57  1  0
 59 58  2  0
 60 61  1  0
 60 54  2  0
 61 56  2  0
 62 55  1  0
 63 53  1  0
 65 67  2  0
 66 65  1  0
 68 66  1  0
 69 78  2  0
 69 74  1  0
 70 66  1  0
 70 74  1  0
 71 70  1  0
 72 73  1  0
 72 71  1  0
 73 69  1  0
 74 75  2  0
 75 76  1  0
 77 76  2  0
 78 77  1  0
 79 53  1  0
 79 80  1  0
 79 89  1  0
 80 83  1  0
 81 85  1  0
 81 80  1  0
 82 81  2  0
 85 84  1  0
 87 85  1  0
 87 88  1  0
 87 86  1  0
 89 92  1  1
 89 90  1  0
 91 89  1  0
M  ISO  4  13 100  21 100  51 101  52 101
M  END
>  <TORSDO>  (5) 
F 18

>  <SCORE>  (5) 
-12.983

>  <name>  (5) 
4

>  <ligand_id>  (5) 
4

>  <original_smiles>  (5) 
[H]c1c([H])c([H])c2c(c1[H])C([H])([H])C([H])([H])C([H])([H])C2([H])N([H])C(=O)C1([H])N(C(=O)C([H])(N([H])C(=O)C([H])(N([H])C([H])([H])[H])C([H])([H])[H])C(C([H])([H])[H])(C([H])([H])[H])C([H])([H])[H])C([H])([H])c2c([H])c(OC([H])([H])C3([H])N(c4c([H])c([H])c(N([H])C(=O)N5C([H])([H])C([H])([H])C([H])([H])C([H])(n6nc(-c7c([H])c([H])c(Oc8c([H])c([H])c(F)c([H])c8F)c([H])c7[H])c(C(=O)N([H])[H])c6N([H])[H])C5([H])[H])c(C([H])([H])[H])c4[H])C([H])([H])C([H])([H])C3([H])[H])c([H])c([H])c2C1([H])[H]

>  <smiles>  (5) 
[H]c1c([H])c([H])c2c(c1[H])C([H])([H])C([H])([H])C([H])([H])C2([H])N([H])C(=O)C1([H])N(C(=O)C([H])(N([H])C(=O)C([H])(N([H])C([H])([H])[H])C([H])([H])[H])C(C([H])([H])[H])(C([H])([H])[H])C([H])([H])[H])C([H])([H])c2c([H])c(OC([H])([H])C3([H])N(c4c([H])c([H])c(N([H])C(=O)N5C([H])([H])C([H])([H])C([H])([H])C([H])(n6nc(-c7c([H])c([H])c(Oc8c([H])c([H])c(F)c([H])c8F)c([H])c7[H])c(C(=O)N([H])[H])c6N([H])[H])C5([H])[H])c(C([H])([H])[H])c4[H])C([H])([H])C([H])([H])C3([H])[H])c([H])c([H])c2C1([H])[H]

$$$$
5:0:0
     RDKit          3D

 93102  0  0  1  0  0  0  0  0999 V2000
  -30.2150  -23.8290   18.5290 C   0  0  0  0  0  2  0  0  0  0  0  0
  -28.6880  -23.9220   18.6180 C   0  0  0  0  0  2  0  0  0  0  0  0
  -30.6660  -23.3840   19.9260 C   0  0  0  0  0  2  0  0  0  0  0  0
  -28.3860  -23.7140   20.1020 C   0  0  0  0  0  3  0  0  0  0  0  0
  -29.4830  -22.8000   20.5570 N   0  0  0  0  0  0  0  0  0  0  0  0
  -28.7440  -19.1320   19.6450 C   0  0  0  0  0  3  0  0  0  0  0  0
  -28.5560  -20.5390   19.8270 C   0  0  0  0  0  3  0  0  0  0  0  0
  -30.8270  -19.2440   20.8300 C   0  0  0  0  0  3  0  0  0  0  0  0
  -29.9120  -18.4560   20.0960 C   0  0  0  0  0  0  0  0  0  0  0  0
  -29.5200  -21.3530   20.4860 C   0  0  0  0  0  0  0  0  0  0  0  0
  -30.6300  -20.6370   21.0390 C   0  0  0  0  0  0  0  0  0  0  0  0
  -31.5710  -21.3100   21.7480 F   0  0  0  0  0  0  0  0  0  0  0  0
  -30.2800  -17.0010   19.6120 C   0  0  0  0  0  2  0  0  0  0  0  0
  -30.8480  -14.5880   20.1100 C   0  0  0  0  0  0  0  0  0  0  0  0
  -30.4720  -12.4020   18.9750 C   0  0  0  0  0  2  0  0  0  0  0  0
  -29.4810  -12.5920   17.8050 C   0  0  0  0  0  2  0  0  0  0  0  0
  -28.0280  -12.4490   18.2990 C   0  0  0  0  0  2  0  0  0  0  0  0
  -27.7530  -13.2810   19.5790 C   0  0  0  0  0  3  0  0  0  0  0  0
  -28.8580  -13.0660   20.6360 C   0  0  0  0  0  2  0  0  0  0  0  0
  -30.1430  -13.4120   20.0080 N   0  0  0  0  0  0  0  0  0  0  0  0
  -31.9730  -14.6730   19.6070 O   0  0  0  0  0  0  0  0  0  0  0  0
  -29.7200  -15.9500   21.8360 C   0  0  0  0  0  1  0  0  0  0  0  0
  -30.1740  -15.7490   20.4570 N   0  0  0  0  0  0  0  0  0  0  0  0
  -25.4070  -13.9080   20.4100 C   0  0  0  0  0  0  0  0  0  0  0  0
  -24.3440  -13.1450   20.8170 C   0  0  0  0  0  0  0  0  0  0  0  0
  -24.7830  -11.7860   20.7490 C   0  0  0  0  0  0  0  0  0  0  0  0
  -26.4240  -13.0140   20.1210 N   0  0  0  0  0  0  0  0  0  0  0  0
  -26.0600  -11.7330   20.3830 N   0  0  0  0  0  0  0  0  0  0  0  0
  -24.0480  -10.5330   20.9520 C   0  0  0  0  0  0  0  0  0  0  0  0
  -24.4860   -9.5610   21.8800 C   0  0  0  0  0  3  0  0  0  0  0  0
  -23.7500   -8.3720   22.0730 C   0  0  0  0  0  3  0  0  0  0  0  0
  -22.5640   -8.1460   21.3370 C   0  0  0  0  0  0  0  0  0  0  0  0
  -22.1450   -9.1030   20.3970 C   0  0  0  0  0  3  0  0  0  0  0  0
  -22.8800  -10.2850   20.2020 C   0  0  0  0  0  3  0  0  0  0  0  0
  -21.8000   -7.0080   21.4380 O   0  0  0  0  0  0  0  0  0  0  0  0
  -21.7320   -6.2860   22.6040 C   0  0  0  0  0  0  0  0  0  0  0  0
  -21.3020   -6.8690   23.8150 C   0  0  0  0  0  3  0  0  0  0  0  0
  -21.1820   -6.0760   24.9740 C   0  0  0  0  0  3  0  0  0  0  0  0
  -21.4810   -4.7000   24.9220 C   0  0  0  0  0  0  0  0  0  0  0  0
  -21.9030   -4.1180   23.7140 C   0  0  0  0  0  3  0  0  0  0  0  0
  -22.0240   -4.9090   22.5570 C   0  0  0  0  0  0  0  0  0  0  0  0
  -22.4120   -4.3380   21.3920 F   0  0  0  0  0  0  0  0  0  0  0  0
  -21.3570   -3.9360   26.0310 F   0  0  0  0  0  0  0  0  0  0  0  0
  -22.9670  -13.6390   21.1540 C   0  0  0  0  0  0  0  0  0  0  0  0
  -22.2700  -12.9410   22.0450 N   0  0  0  0  0  0  0  0  0  0  0  0
  -22.5200  -14.6740   20.6630 O   0  0  0  0  0  0  0  0  0  0  0  0
  -22.6490  -12.1030   22.4600 H   0  0  0  0  0  0  0  0  0  0  0  0
  -21.3460  -13.2480   22.3110 H   0  0  0  0  0  0  0  0  0  0  0  0
  -25.5840  -15.2780   20.2450 N   0  0  0  0  0  0  0  0  0  0  0  0
  -24.8370  -15.9450   20.3960 H   0  0  0  0  0  0  0  0  0  0  0  0
  -26.4350  -15.7060   19.9010 H   0  0  0  0  0  0  0  0  0  0  0  0
  -28.2890  -25.1120   20.8960 C   0  0  0  0  0  2  0  0  0  0  0  0
  -28.4020  -26.4290   20.2300 O   0  0  0  0  0  0  0  0  0  0  0  0
  -24.6040  -31.7940   23.2040 C   0  0  0  0  0  0  0  0  0  0  0  0
  -27.2770  -27.2530   20.2090 C   0  0  0  0  0  0  0  0  0  0  0  0
  -23.4290  -30.3860   21.5510 C   0  0  0  0  0  3  0  0  0  0  0  0
  -24.9060  -28.8390   20.1470 C   0  0  0  0  0  0  0  0  0  0  0  0
  -25.9640  -30.7250   21.3950 C   0  0  0  0  0  2  0  0  0  0  0  0
  -26.0640  -29.3450   20.7520 C   0  0  0  0  0  0  0  0  0  0  0  0
  -27.2560  -28.5650   20.7690 C   0  0  0  0  0  3  0  0  0  0  0  0
  -26.0980  -26.7820   19.5960 C   0  0  0  0  0  3  0  0  0  0  0  0
  -24.9250  -27.5620   19.5600 C   0  0  0  0  0  3  0  0  0  0  0  0
  -23.6650  -29.7090   20.1740 C   0  0  0  0  0  2  0  0  0  0  0  0
  -24.6840  -30.9850   22.1090 N   0  0  0  0  0  0  0  0  0  0  0  0
  -23.5140  -32.0690   23.7240 O   0  0  0  0  0  0  0  0  0  0  0  0
  -22.7620  -29.3670   22.5040 C   0  0  0  0  0  0  0  0  0  0  0  0
  -21.4390  -29.1770   22.3550 N   0  0  0  0  0  0  0  0  0  0  0  0
  -23.4330  -28.7500   23.3360 O   0  0  0  0  0  0  0  0  0  0  0  0
  -20.9550  -29.7280   21.6610 H   0  0  0  0  0  0  0  0  0  0  0  0
  -18.0650  -27.9480   22.7880 C   0  0  0  0  0  0  0  0  0  0  0  0
  -20.6140  -28.2380   23.1170 C   0  0  0  0  0  3  0  0  0  0  0  0
  -20.7470  -26.8030   22.5580 C   0  0  0  0  0  2  0  0  0  0  0  0
  -19.6740  -26.4580   21.5210 C   0  0  0  0  0  2  0  0  0  0  0  0
  -18.2750  -26.5950   22.1290 C   0  0  0  0  0  2  0  0  0  0  0  0
  -19.1660  -28.7260   23.2370 C   0  0  0  0  0  0  0  0  0  0  0  0
  -18.9190  -29.9930   23.8080 C   0  0  0  0  0  3  0  0  0  0  0  0
  -17.6040  -30.4820   23.9410 C   0  0  0  0  0  3  0  0  0  0  0  0
  -16.5180  -29.7010   23.5090 C   0  0  0  0  0  3  0  0  0  0  0  0
  -16.7500  -28.4360   22.9380 C   0  0  0  0  0  3  0  0  0  0  0  0
  -25.8780  -32.4340   23.8420 C   0  0  0  0  0  3  0  0  0  0  0  0
  -26.3870  -31.6640   25.1220 C   0  0  1  0  0  0  0  0  0  0  0  0
  -25.2830  -31.4260   26.1770 C   0  0  0  0  0  1  0  0  0  0  0  0
  -26.9810  -30.2900   24.7340 C   0  0  0  0  0  1  0  0  0  0  0  0
  -27.5220  -32.4680   25.8000 C   0  0  0  0  0  1  0  0  0  0  0  0
  -25.5580  -33.8290   24.1700 N   0  0  0  0  0  0  0  0  0  0  0  0
  -25.8910  -34.8870   23.4160 C   0  0  0  0  0  0  0  0  0  0  0  0
  -26.5710  -34.7890   22.3910 O   0  0  0  0  0  0  0  0  0  0  0  0
  -24.9620  -33.9830   24.9700 H   0  0  0  0  0  0  0  0  0  0  0  0
  -24.1510  -36.6640   23.0550 C   0  0  0  0  0  1  0  0  0  0  0  0
  -25.3900  -36.2690   23.8750 C   0  0  0  0  0  3  0  0  0  0  0  0
  -27.5130  -37.1670   24.7210 C   0  0  0  0  0  1  0  0  0  0  0  0
  -26.4140  -37.3300   23.7740 N   0  0  0  0  0  0  0  0  0  0  0  0
  -25.9980  -38.2460   23.9260 H   0  0  0  0  0  0  0  0  0  0  0  0
  1  2  1  0
  1  3  1  0
  2  4  1  0
  3  5  1  0
  4  5  1  0
  4 52  1  0
  6  7  2  0
  6  9  1  0
  7 10  1  0
  8 11  1  0
  9  8  2  0
 10  5  1  0
 10 11  2  0
 11 12  1  0
 13  9  1  0
 13 23  1  0
 14 23  1  0
 15 20  1  0
 16 17  1  0
 16 15  1  0
 18 17  1  0
 18 27  1  0
 18 19  1  0
 20 14  1  0
 20 19  1  0
 21 14  2  0
 23 22  1  0
 24 25  2  0
 25 44  1  0
 26 25  1  0
 26 29  1  0
 27 28  1  0
 27 24  1  0
 28 26  2  0
 29 30  1  0
 30 31  2  0
 32 35  1  0
 32 31  1  0
 33 32  2  0
 34 33  1  0
 34 29  2  0
 35 36  1  0
 36 37  1  0
 37 38  2  0
 39 38  1  0
 39 43  1  0
 40 39  2  0
 41 36  2  0
 41 40  1  0
 42 41  1  0
 44 45  1  0
 45 48  1  0
 45 47  1  0
 46 44  2  0
 49 50  1  0
 49 24  1  0
 51 49  1  0
 53 52  1  0
 54 65  2  0
 55 53  1  0
 55 60  1  0
 56 64  1  0
 56 66  1  0
 57 63  1  0
 57 59  1  0
 58 64  1  0
 59 60  2  0
 59 58  1  0
 61 55  2  0
 62 61  1  0
 62 57  2  0
 63 56  1  0
 64 54  1  0
 66 68  2  0
 67 66  1  0
 69 67  1  0
 70 79  2  0
 70 75  1  0
 71 67  1  0
 71 75  1  0
 72 71  1  0
 73 74  1  0
 73 72  1  0
 74 70  1  0
 75 76  2  0
 76 77  1  0
 78 77  2  0
 79 78  1  0
 80 54  1  0
 80 85  1  0
 80 81  1  0
 81 84  1  1
 81 82  1  0
 83 81  1  0
 85 88  1  0
 86 90  1  0
 86 85  1  0
 87 86  2  0
 90 89  1  0
 92 90  1  0
 92 93  1  0
 92 91  1  0
M  ISO  4  14 100  23 100  52 101  53 101
M  END
>  <TORSDO>  (6) 
F 19

>  <SCORE>  (6) 
-14.123

>  <name>  (6) 
5

>  <ligand_id>  (6) 
5

>  <original_smiles>  (6) 
[H]c1c([H])c([H])c2c(c1[H])C([H])([H])C([H])([H])C([H])([H])C2([H])N([H])C(=O)C1([H])N(C(=O)C([H])(N([H])C(=O)C([H])(N([H])C([H])([H])[H])C([H])([H])[H])C(C([H])([H])[H])(C([H])([H])[H])C([H])([H])[H])C([H])([H])c2c([H])c(OC([H])([H])C3([H])N(c4c([H])c([H])c(C([H])([H])N(C(=O)N5C([H])([H])C([H])([H])C([H])([H])C([H])(n6nc(-c7c([H])c([H])c(Oc8c([H])c([H])c(F)c([H])c8F)c([H])c7[H])c(C(=O)N([H])[H])c6N([H])[H])C5([H])[H])C([H])([H])[H])c([H])c4F)C([H])([H])C([H])([H])C3([H])[H])c([H])c([H])c2C1([H])[H]

>  <smiles>  (6) 
[H]c1c([H])c([H])c2c(c1[H])C([H])([H])C([H])([H])C([H])([H])C2([H])N([H])C(=O)C1([H])N(C(=O)C([H])(N([H])C(=O)C([H])(N([H])C([H])([H])[H])C([H])([H])[H])C(C([H])([H])[H])(C([H])([H])[H])C([H])([H])[H])C([H])([H])c2c([H])c(OC([H])([H])C3([H])N(c4c([H])c([H])c(C([H])([H])N(C(=O)N5C([H])([H])C([H])([H])C([H])([H])C([H])(n6nc(-c7c([H])c([H])c(Oc8c([H])c([H])c(F)c([H])c8F)c([H])c7[H])c(C(=O)N([H])[H])c6N([H])[H])C5([H])[H])C([H])([H])[H])c([H])c4F)C([H])([H])C([H])([H])C3([H])[H])c([H])c([H])c2C1([H])[H]

$$$$
6:0:0
     RDKit          3D

 91 99  0  0  1  0  0  0  0  0999 V2000
  -30.6270  -21.8030   18.8200 C   0  0  0  0  0  1  0  0  0  0  0  0
  -29.9820  -21.5290   20.1080 N   0  0  0  0  0  0  0  0  0  0  0  0
  -28.6770  -17.9570   20.5380 C   0  0  0  0  0  3  0  0  0  0  0  0
  -28.7020  -19.3790   20.4110 C   0  0  0  0  0  3  0  0  0  0  0  0
  -31.0800  -17.8970   20.6050 C   0  0  0  0  0  3  0  0  0  0  0  0
  -29.8630  -17.1690   20.6210 C   0  0  0  0  0  0  0  0  0  0  0  0
  -29.9190  -20.1050   20.3530 C   0  0  0  0  0  0  0  0  0  0  0  0
  -31.1090  -19.3180   20.4700 C   0  0  0  0  0  0  0  0  0  0  0  0
  -32.3210  -19.9280   20.4400 F   0  0  0  0  0  0  0  0  0  0  0  0
  -30.5700  -14.6650   20.4080 C   0  0  0  0  0  0  0  0  0  0  0  0
  -30.3590  -12.4300   19.3340 C   0  0  0  0  0  2  0  0  0  0  0  0
  -29.4260  -12.5950   18.1150 C   0  0  0  0  0  2  0  0  0  0  0  0
  -27.9540  -12.4020   18.5270 C   0  0  0  0  0  2  0  0  0  0  0  0
  -27.5850  -13.2510   19.7750 C   0  0  0  0  0  3  0  0  0  0  0  0
  -28.6370  -13.1050   20.8980 C   0  0  0  0  0  2  0  0  0  0  0  0
  -29.9550  -13.4410   20.3300 N   0  0  0  0  0  0  0  0  0  0  0  0
  -31.7330  -14.8230   20.0290 O   0  0  0  0  0  0  0  0  0  0  0  0
  -29.7520  -15.7110   20.7570 N   0  0  0  0  0  0  0  0  0  0  0  0
  -28.8320  -15.3870   21.0110 H   0  0  0  0  0  0  0  0  0  0  0  0
  -25.1950  -13.8440   20.4850 C   0  0  0  0  0  0  0  0  0  0  0  0
  -24.1280  -13.0730   20.8530 C   0  0  0  0  0  0  0  0  0  0  0  0
  -24.5950  -11.7200   20.8340 C   0  0  0  0  0  0  0  0  0  0  0  0
  -26.2380  -12.9650   20.2570 N   0  0  0  0  0  0  0  0  0  0  0  0
  -25.8870  -11.6820   20.5270 N   0  0  0  0  0  0  0  0  0  0  0  0
  -23.8720  -10.4590   21.0290 C   0  0  0  0  0  0  0  0  0  0  0  0
  -24.3110   -9.4960   21.9660 C   0  0  0  0  0  3  0  0  0  0  0  0
  -23.5920   -8.2960   22.1480 C   0  0  0  0  0  3  0  0  0  0  0  0
  -22.4190   -8.0510   21.3970 C   0  0  0  0  0  0  0  0  0  0  0  0
  -22.0000   -9.0010   20.4500 C   0  0  0  0  0  3  0  0  0  0  0  0
  -22.7180  -10.1930   20.2650 C   0  0  0  0  0  3  0  0  0  0  0  0
  -21.6670   -6.9030   21.4910 O   0  0  0  0  0  0  0  0  0  0  0  0
  -21.6290   -6.1610   22.6430 C   0  0  0  0  0  0  0  0  0  0  0  0
  -21.2130   -6.7130   23.8740 C   0  0  0  0  0  3  0  0  0  0  0  0
  -21.1230   -5.8950   25.0190 C   0  0  0  0  0  3  0  0  0  0  0  0
  -21.4380   -4.5260   24.9350 C   0  0  0  0  0  0  0  0  0  0  0  0
  -21.8480   -3.9730   23.7100 C   0  0  0  0  0  3  0  0  0  0  0  0
  -21.9430   -4.7880   22.5660 C   0  0  0  0  0  0  0  0  0  0  0  0
  -22.3170   -4.2460   21.3820 F   0  0  0  0  0  0  0  0  0  0  0  0
  -21.3460   -3.7390   26.0310 F   0  0  0  0  0  0  0  0  0  0  0  0
  -22.7280  -13.5440   21.1190 C   0  0  0  0  0  0  0  0  0  0  0  0
  -22.0030  -12.8490   21.9880 N   0  0  0  0  0  0  0  0  0  0  0  0
  -22.2870  -14.5640   20.5910 O   0  0  0  0  0  0  0  0  0  0  0  0
  -22.3790  -12.0250   22.4340 H   0  0  0  0  0  0  0  0  0  0  0  0
  -21.0620  -13.1360   22.2060 H   0  0  0  0  0  0  0  0  0  0  0  0
  -25.3670  -15.2140   20.2950 N   0  0  0  0  0  0  0  0  0  0  0  0
  -24.6060  -15.8800   20.3440 H   0  0  0  0  0  0  0  0  0  0  0  0
  -26.2240  -15.6250   19.9440 H   0  0  0  0  0  0  0  0  0  0  0  0
  -28.9060  -22.5040   20.4650 C   0  0  0  0  0  2  0  0  0  0  0  0
  -29.3030  -24.0540   20.4480 C   0  0  0  0  0  3  0  0  0  0  0  0
  -28.1230  -25.0700   20.1520 C   0  0  0  0  0  3  0  0  0  0  0  0
  -28.3440  -26.5310   20.1960 O   0  0  0  0  0  0  0  0  0  0  0  0
  -24.6050  -31.8770   23.2190 C   0  0  0  0  0  0  0  0  0  0  0  0
  -27.2100  -27.3560   20.1360 C   0  0  0  0  0  0  0  0  0  0  0  0
  -23.3870  -30.4840   21.5880 C   0  0  0  0  0  3  0  0  0  0  0  0
  -24.8320  -28.9430   20.1390 C   0  0  0  0  0  0  0  0  0  0  0  0
  -25.9200  -30.8200   21.3760 C   0  0  0  0  0  2  0  0  0  0  0  0
  -26.0000  -29.4450   20.7220 C   0  0  0  0  0  0  0  0  0  0  0  0
  -27.1950  -28.6640   20.7100 C   0  0  0  0  0  3  0  0  0  0  0  0
  -26.0160  -26.9040   19.5290 C   0  0  0  0  0  3  0  0  0  0  0  0
  -24.8400  -27.6780   19.5350 C   0  0  0  0  0  3  0  0  0  0  0  0
  -23.5840  -29.8010   20.2060 C   0  0  0  0  0  2  0  0  0  0  0  0
  -24.6570  -31.0750   22.1170 N   0  0  0  0  0  0  0  0  0  0  0  0
  -23.5270  -32.1530   23.7640 O   0  0  0  0  0  0  0  0  0  0  0  0
  -22.7310  -29.4670   22.5500 C   0  0  0  0  0  0  0  0  0  0  0  0
  -21.4050  -29.2910   22.4290 N   0  0  0  0  0  0  0  0  0  0  0  0
  -23.4130  -28.8380   23.3610 O   0  0  0  0  0  0  0  0  0  0  0  0
  -20.9140  -29.8440   21.7380 H   0  0  0  0  0  0  0  0  0  0  0  0
  -18.0240  -28.1140   22.9420 C   0  0  0  0  0  0  0  0  0  0  0  0
  -20.5870  -28.3560   23.1990 C   0  0  0  0  0  3  0  0  0  0  0  0
  -20.6770  -26.9270   22.6140 C   0  0  0  0  0  2  0  0  0  0  0  0
  -19.5640  -26.6200   21.6060 C   0  0  0  0  0  2  0  0  0  0  0  0
  -18.1880  -26.7680   22.2590 C   0  0  0  0  0  2  0  0  0  0  0  0
  -19.1510  -28.8680   23.3690 C   0  0  0  0  0  0  0  0  0  0  0  0
  -18.9420  -30.1310   23.9640 C   0  0  0  0  0  3  0  0  0  0  0  0
  -17.6420  -30.6380   24.1430 C   0  0  0  0  0  3  0  0  0  0  0  0
  -16.5300  -29.8790   23.7350 C   0  0  0  0  0  3  0  0  0  0  0  0
  -16.7240  -28.6200   23.1380 C   0  0  0  0  0  3  0  0  0  0  0  0
  -25.8920  -32.5040   23.8390 C   0  0  0  0  0  3  0  0  0  0  0  0
  -26.4100  -31.7210   25.1060 C   0  0  1  0  0  0  0  0  0  0  0  0
  -25.3220  -31.4790   26.1780 C   0  0  0  0  0  1  0  0  0  0  0  0
  -26.9840  -30.3450   24.6990 C   0  0  0  0  0  1  0  0  0  0  0  0
  -27.5740  -32.5030   25.7610 C   0  0  0  0  0  1  0  0  0  0  0  0
  -25.5880  -33.9010   24.1780 N   0  0  0  0  0  0  0  0  0  0  0  0
  -25.9230  -34.9550   23.4230 C   0  0  0  0  0  0  0  0  0  0  0  0
  -26.5860  -34.8540   22.3870 O   0  0  0  0  0  0  0  0  0  0  0  0
  -24.9830  -34.0530   24.9730 H   0  0  0  0  0  0  0  0  0  0  0  0
  -24.1930  -36.7490   23.0970 C   0  0  0  0  0  1  0  0  0  0  0  0
  -25.4470  -36.3440   23.8900 C   0  0  0  0  0  3  0  0  0  0  0  0
  -27.5950  -37.2160   24.6930 C   0  0  0  0  0  1  0  0  0  0  0  0
  -26.4800  -37.3950   23.7650 N   0  0  0  0  0  0  0  0  0  0  0  0
  -26.0800  -38.3170   23.9200 H   0  0  0  0  0  0  0  0  0  0  0  0
  1  2  1  0
  2  7  1  0
  2 48  1  0
  3  6  1  0
  4  3  2  0
  5  6  2  0
  6 18  1  0
  7  4  1  0
  7  8  2  0
  8  5  1  0
  9  8  1  0
 10 18  1  0
 11 16  1  0
 12 13  1  0
 12 11  1  0
 14 13  1  0
 14 23  1  0
 14 15  1  0
 16 10  1  0
 16 15  1  0
 17 10  2  0
 18 19  1  0
 20 21  2  0
 21 40  1  0
 22 21  1  0
 22 25  1  0
 23 20  1  0
 23 24  1  0
 24 22  2  0
 25 26  1  0
 26 27  2  0
 28 31  1  0
 28 27  1  0
 29 28  2  0
 30 29  1  0
 30 25  2  0
 31 32  1  0
 32 33  1  0
 33 34  2  0
 35 34  1  0
 35 39  1  0
 36 35  2  0
 37 32  2  0
 37 36  1  0
 38 37  1  0
 40 41  1  0
 41 44  1  0
 41 43  1  0
 42 40  2  0
 45 46  1  0
 45 20  1  0
 47 45  1  0
 49 48  1  0
 50 51  1  0
 50 49  2  0
 52 63  2  0
 53 51  1  0
 53 58  1  0
 54 62  1  0
 54 64  1  0
 55 61  1  0
 55 57  1  0
 56 62  1  0
 57 56  1  0
 58 57  2  0
 59 60  1  0
 59 53  2  0
 60 55  2  0
 61 54  1  0
 62 52  1  0
 64 66  2  0
 65 64  1  0
 67 65  1  0
 68 77  2  0
 68 73  1  0
 69 65  1  0
 69 73  1  0
 70 69  1  0
 71 72  1  0
 71 70  1  0
 72 68  1  0
 73 74  2  0
 74 75  1  0
 76 75  2  0
 77 76  1  0
 78 52  1  0
 78 83  1  0
 78 79  1  0
 79 82  1  1
 79 80  1  0
 81 79  1  0
 83 86  1  0
 84 88  1  0
 84 83  1  0
 85 84  2  0
 88 87  1  0
 90 88  1  0
 90 91  1  0
 90 89  1  0
M  ISO  4  10 100  18 100  50 101  51 101
M  END
>  <TORSDO>  (7) 
F 20

>  <SCORE>  (7) 
-14.004

>  <name>  (7) 
6

>  <ligand_id>  (7) 
6

>  <original_smiles>  (7) 
[H]c1c([H])c([H])c2c(c1[H])C([H])([H])C([H])([H])C([H])([H])C2([H])N([H])C(=O)C1([H])N(C(=O)C([H])(N([H])C(=O)C([H])(N([H])C([H])([H])[H])C([H])([H])[H])C(C([H])([H])[H])(C([H])([H])[H])C([H])([H])[H])C([H])([H])c2c([H])c(OC([H])([H])C([H])([H])C([H])([H])N(c3c([H])c([H])c(N([H])C(=O)N4C([H])([H])C([H])([H])C([H])([H])C([H])(n5nc(-c6c([H])c([H])c(Oc7c([H])c([H])c(F)c([H])c7F)c([H])c6[H])c(C(=O)N([H])[H])c5N([H])[H])C4([H])[H])c([H])c3F)C([H])([H])[H])c([H])c([H])c2C1([H])[H]

>  <smiles>  (7) 
[H]c1c([H])c([H])c2c(c1[H])C([H])([H])C([H])([H])C([H])([H])C2([H])N([H])C(=O)C1([H])N(C(=O)C([H])(N([H])C(=O)C([H])(N([H])C([H])([H])[H])C([H])([H])[H])C(C([H])([H])[H])(C([H])([H])[H])C([H])([H])[H])C([H])([H])c2c([H])c(OC([H])([H])C([H])([H])C([H])([H])N(c3c([H])c([H])c(N([H])C(=O)N4C([H])([H])C([H])([H])C([H])([H])C([H])(n5nc(-c6c([H])c([H])c(Oc7c([H])c([H])c(F)c([H])c7F)c([H])c6[H])c(C(=O)N([H])[H])c5N([H])[H])C4([H])[H])c([H])c3F)C([H])([H])[H])c([H])c([H])c2C1([H])[H]

$$$$
7:0:0
     RDKit          3D

 97106  0  0  1  0  0  0  0  0999 V2000
  -29.2840  -20.6680   20.7460 C   0  0  0  0  0  2  0  0  0  0  0  0
  -30.4430  -14.2950   19.1920 C   0  0  0  0  0  0  0  0  0  0  0  0
  -29.7110  -12.3490   17.8590 C   0  0  0  0  0  2  0  0  0  0  0  0
  -28.5110  -12.7250   16.9680 C   0  0  0  0  0  2  0  0  0  0  0  0
  -27.1870  -12.5090   17.7240 C   0  0  0  0  0  2  0  0  0  0  0  0
  -27.2020  -13.1690   19.1240 C   0  0  0  0  0  3  0  0  0  0  0  0
  -28.4950  -12.8480   19.9080 C   0  0  0  0  0  2  0  0  0  0  0  0
  -29.6580  -13.1880   19.0710 N   0  0  0  0  0  0  0  0  0  0  0  0
  -31.2640  -14.6170   18.3270 O   0  0  0  0  0  0  0  0  0  0  0  0
  -30.5870  -18.5190   21.3210 C   0  0  0  0  0  3  0  0  0  0  0  0
  -28.7100  -18.3620   19.7670 C   0  0  0  0  0  3  0  0  0  0  0  0
  -30.7620  -17.1260   21.1860 C   0  0  0  0  0  0  0  0  0  0  0  0
  -29.5400  -19.1530   20.6070 C   0  0  0  0  0  0  0  0  0  0  0  0
  -29.9720  -16.3560   20.3390 C   0  0  0  0  0  0  0  0  0  0  0  0
  -28.9300  -16.9710   19.6100 C   0  0  0  0  0  0  0  0  0  0  0  0
  -31.7780  -16.2670   21.8770 C   0  0  0  0  0  2  0  0  0  0  0  0
  -31.3740  -14.8160   21.4630 C   0  0  1  0  0  0  0  0  0  0  0  0
  -32.6340  -14.0000   21.0820 C   0  0  0  0  0  1  0  0  0  0  0  0
  -30.6820  -14.1080   22.6480 C   0  0  0  0  0  1  0  0  0  0  0  0
  -30.3750  -14.9880   20.3600 N   0  0  0  0  0  0  0  0  0  0  0  0
  -28.1470  -16.2590   18.7700 F   0  0  0  0  0  0  0  0  0  0  0  0
  -25.0760  -13.7040   20.4630 C   0  0  0  0  0  0  0  0  0  0  0  0
  -24.1140  -12.8980   21.0090 C   0  0  0  0  0  0  0  0  0  0  0  0
  -24.5200  -11.5550   20.7300 C   0  0  0  0  0  0  0  0  0  0  0  0
  -26.0060  -12.8490   19.8930 N   0  0  0  0  0  0  0  0  0  0  0  0
  -25.6910  -11.5480   20.1040 N   0  0  0  0  0  0  0  0  0  0  0  0
  -23.8360  -10.2780   20.9680 C   0  0  0  0  0  0  0  0  0  0  0  0
  -24.3760   -9.3030   21.8340 C   0  0  0  0  0  3  0  0  0  0  0  0
  -23.6910   -8.0920   22.0630 C   0  0  0  0  0  3  0  0  0  0  0  0
  -22.4510   -7.8460   21.4260 C   0  0  0  0  0  0  0  0  0  0  0  0
  -21.9290   -8.8110   20.5450 C   0  0  0  0  0  3  0  0  0  0  0  0
  -22.6160  -10.0140   20.3150 C   0  0  0  0  0  3  0  0  0  0  0  0
  -21.7280   -6.6850   21.5680 O   0  0  0  0  0  0  0  0  0  0  0  0
  -21.7100   -5.9870   22.7470 C   0  0  0  0  0  0  0  0  0  0  0  0
  -21.2630   -6.5730   23.9520 C   0  0  0  0  0  3  0  0  0  0  0  0
  -21.1940   -5.8000   25.1260 C   0  0  0  0  0  3  0  0  0  0  0  0
  -21.5620   -4.4420   25.0990 C   0  0  0  0  0  0  0  0  0  0  0  0
  -22.0040   -3.8540   23.9000 C   0  0  0  0  0  3  0  0  0  0  0  0
  -22.0740   -4.6240   22.7260 C   0  0  0  0  0  0  0  0  0  0  0  0
  -22.4780   -4.0500   21.5670 F   0  0  0  0  0  0  0  0  0  0  0  0
  -21.4880   -3.6970   26.2270 F   0  0  0  0  0  0  0  0  0  0  0  0
  -22.8390  -13.3410   21.6700 C   0  0  0  0  0  0  0  0  0  0  0  0
  -22.3610  -12.5830   22.6480 N   0  0  0  0  0  0  0  0  0  0  0  0
  -22.2880  -14.3950   21.3500 O   0  0  0  0  0  0  0  0  0  0  0  0
  -22.8200  -11.7270   22.9210 H   0  0  0  0  0  0  0  0  0  0  0  0
  -21.5210  -12.8620   23.1360 H   0  0  0  0  0  0  0  0  0  0  0  0
  -25.2280  -15.0860   20.3850 N   0  0  0  0  0  0  0  0  0  0  0  0
  -24.5360  -15.7390   20.7380 H   0  0  0  0  0  0  0  0  0  0  0  0
  -25.9920  -15.5400   19.9010 H   0  0  0  0  0  0  0  0  0  0  0  0
  -30.0650  -21.6060   19.8560 N   0  0  1  0  0  4  0  0  0  0  0  0
  -30.7690  -22.0160   20.4520 H   0  0  0  0  0  0  0  0  0  0  0  0
  -32.0110  -21.7410   18.2060 C   0  0  0  0  0  1  0  0  0  0  0  0
  -30.8400  -20.9170   18.7740 C   0  0  0  0  0  2  0  0  0  0  0  0
  -29.2200  -22.7400   19.3290 C   0  0  0  0  0  2  0  0  0  0  0  0
  -29.2180  -24.0730   20.1470 C   0  0  0  0  0  2  0  0  0  0  0  0
  -28.1450  -25.0640   19.6040 C   0  0  0  0  0  2  0  0  0  0  0  0
  -28.2590  -26.4570   19.9910 O   0  0  0  0  0  0  0  0  0  0  0  0
  -24.6160  -31.7220   23.1500 C   0  0  0  0  0  0  0  0  0  0  0  0
  -27.1050  -27.2370   19.9690 C   0  0  0  0  0  0  0  0  0  0  0  0
  -23.3380  -30.3430   21.5450 C   0  0  0  0  0  3  0  0  0  0  0  0
  -24.7280  -28.8030   20.0570 C   0  0  0  0  0  0  0  0  0  0  0  0
  -25.8650  -30.6690   21.2650 C   0  0  0  0  0  2  0  0  0  0  0  0
  -25.9140  -29.2980   20.6150 C   0  0  0  0  0  0  0  0  0  0  0  0
  -27.1000  -28.5220   20.5710 C   0  0  0  0  0  3  0  0  0  0  0  0
  -25.8980  -26.7850   19.3790 C   0  0  0  0  0  3  0  0  0  0  0  0
  -24.7170  -27.5470   19.4330 C   0  0  0  0  0  3  0  0  0  0  0  0
  -23.4940  -29.6730   20.1540 C   0  0  0  0  0  2  0  0  0  0  0  0
  -24.6260  -30.9280   22.0420 N   0  0  0  0  0  0  0  0  0  0  0  0
  -23.5560  -32.0000   23.7280 O   0  0  0  0  0  0  0  0  0  0  0  0
  -22.7140  -29.3190   22.5230 C   0  0  0  0  0  0  0  0  0  0  0  0
  -21.4000  -29.0810   22.3820 N   0  0  0  0  0  0  0  0  0  0  0  0
  -23.4090  -28.7440   23.3640 O   0  0  0  0  0  0  0  0  0  0  0  0
  -20.8990  -29.6020   21.6770 H   0  0  0  0  0  0  0  0  0  0  0  0
  -18.0830  -27.7030   22.8020 C   0  0  0  0  0  0  0  0  0  0  0  0
  -20.6090  -28.1310   23.1630 C   0  0  0  0  0  3  0  0  0  0  0  0
  -20.8210  -26.6850   22.6610 C   0  0  0  0  0  2  0  0  0  0  0  0
  -19.7850  -26.2480   21.6220 C   0  0  0  0  0  2  0  0  0  0  0  0
  -18.3700  -26.3370   22.2020 C   0  0  0  0  0  2  0  0  0  0  0  0
  -19.1350  -28.5530   23.2380 C   0  0  0  0  0  0  0  0  0  0  0  0
  -18.8180  -29.8270   23.7550 C   0  0  0  0  0  3  0  0  0  0  0  0
  -17.4790  -30.2540   23.8470 C   0  0  0  0  0  3  0  0  0  0  0  0
  -16.4420  -29.4030   23.4280 C   0  0  0  0  0  3  0  0  0  0  0  0
  -16.7440  -28.1320   22.9090 C   0  0  0  0  0  3  0  0  0  0  0  0
  -25.9280  -32.3400   23.7250 C   0  0  0  0  0  3  0  0  0  0  0  0
  -25.6290  -33.7250   24.1140 N   0  0  0  0  0  0  0  0  0  0  0  0
  -25.9320  -34.8050   23.3820 C   0  0  0  0  0  0  0  0  0  0  0  0
  -26.5630  -34.7410   22.3250 O   0  0  0  0  0  0  0  0  0  0  0  0
  -25.0680  -33.8480   24.9430 H   0  0  0  0  0  0  0  0  0  0  0  0
  -24.1980  -36.6120   23.1490 C   0  0  0  0  0  1  0  0  0  0  0  0
  -25.4600  -36.1750   23.9070 C   0  0  0  0  0  3  0  0  0  0  0  0
  -27.6170  -37.0270   24.7120 C   0  0  0  0  0  1  0  0  0  0  0  0
  -26.4890  -37.2310   23.8080 N   0  0  0  0  0  0  0  0  0  0  0  0
  -26.0870  -38.1460   24.0000 H   0  0  0  0  0  0  0  0  0  0  0  0
  -26.5100  -31.5310   24.9500 C   0  0  1  0  0  0  0  0  0  0  0  0
  -25.4670  -31.2230   26.0480 C   0  0  0  0  0  1  0  0  0  0  0  0
  -27.1110  -30.1850   24.4790 C   0  0  0  0  0  1  0  0  0  0  0  0
  -27.6640  -32.3280   25.6040 C   0  0  0  0  0  1  0  0  0  0  0  0
  2 20  1  0
  3  8  1  0
  4  5  1  0
  4  3  1  0
  6  5  1  0
  6 25  1  0
  6  7  1  0
  8  2  1  0
  8  7  1  0
  9  2  2  0
 11 13  1  0
 12 10  1  0
 12 16  1  0
 13  1  1  0
 13 10  2  0
 14 20  1  0
 14 12  2  0
 15 11  2  0
 15 14  1  0
 17 16  1  0
 17 19  1  1
 18 17  1  0
 20 17  1  0
 21 15  1  0
 22 23  2  0
 23 42  1  0
 24 27  1  0
 24 23  1  0
 25 26  1  0
 25 22  1  0
 26 24  2  0
 27 28  1  0
 28 29  2  0
 30 33  1  0
 30 29  1  0
 31 30  2  0
 32 31  1  0
 32 27  2  0
 33 34  1  0
 34 35  1  0
 35 36  2  0
 37 36  1  0
 37 41  1  0
 38 37  2  0
 39 34  2  0
 39 38  1  0
 40 39  1  0
 42 43  1  0
 43 45  1  0
 43 46  1  0
 44 42  2  0
 47 22  1  0
 47 48  1  0
 49 47  1  0
 50 51  1  1
 50  1  1  0
 52 53  1  0
 53 50  1  0
 54 50  1  0
 54 55  1  0
 56 57  1  0
 56 55  1  0
 58 69  2  0
 59 57  1  0
 59 64  1  0
 60 68  1  0
 60 70  1  0
 61 67  1  0
 61 63  1  0
 62 68  1  0
 63 62  1  0
 64 63  2  0
 65 66  1  0
 65 59  2  0
 66 61  2  0
 67 60  1  0
 68 58  1  0
 70 72  2  0
 71 70  1  0
 73 71  1  0
 74 83  2  0
 74 79  1  0
 75 71  1  0
 75 79  1  0
 76 75  1  0
 77 78  1  0
 77 76  1  0
 78 74  1  0
 79 80  2  0
 80 81  1  0
 82 81  2  0
 83 82  1  0
 84 58  1  0
 84 85  1  0
 84 94  1  0
 85 88  1  0
 86 90  1  0
 86 85  1  0
 87 86  2  0
 90 89  1  0
 92 90  1  0
 92 93  1  0
 92 91  1  0
 94 97  1  1
 94 95  1  0
 96 94  1  0
M  ISO  4   2 100  20 100  56 101  57 101
M  END
>  <TORSDO>  (8) 
F 21

>  <SCORE>  (8) 
-8.612

>  <name>  (8) 
7

>  <ligand_id>  (8) 
7

>  <original_smiles>  (8) 
[H]c1c([H])c([H])c2c(c1[H])C([H])([H])C([H])([H])C([H])([H])C2([H])N([H])C(=O)C1([H])N(C(=O)C([H])(N([H])C(=O)C([H])(N([H])C([H])([H])[H])C([H])([H])[H])C(C([H])([H])[H])(C([H])([H])[H])C([H])([H])[H])C([H])([H])c2c([H])c(OC([H])([H])C([H])([H])C([H])([H])[N+]([H])(C([H])([H])c3c([H])c(F)c4c(c3[H])C([H])([H])C(C([H])([H])[H])(C([H])([H])[H])N4C(=O)N3C([H])([H])C([H])([H])C([H])([H])C([H])(n4nc(-c5c([H])c([H])c(Oc6c([H])c([H])c(F)c([H])c6F)c([H])c5[H])c(C(=O)N([H])[H])c4N([H])[H])C3([H])[H])C([H])([H])C([H])([H])[H])c([H])c([H])c2C1([H])[H]

>  <smiles>  (8) 
[H]c1c([H])c([H])c2c(c1[H])C([H])([H])C([H])([H])C([H])([H])C2([H])N([H])C(=O)C1([H])N(C(=O)C([H])(N([H])C(=O)C([H])(N([H])C([H])([H])[H])C([H])([H])[H])C(C([H])([H])[H])(C([H])([H])[H])C([H])([H])[H])C([H])([H])c2c([H])c(OC([H])([H])C([H])([H])C([H])([H])[N+]([H])(C([H])([H])c3c([H])c(F)c4c(c3[H])C([H])([H])C(C([H])([H])[H])(C([H])([H])[H])N4C(=O)N3C([H])([H])C([H])([H])C([H])([H])C([H])(n4nc(-c5c([H])c([H])c(Oc6c([H])c([H])c(F)c([H])c6F)c([H])c5[H])c(C(=O)N([H])[H])c4N([H])[H])C3([H])[H])C([H])([H])C([H])([H])[H])c([H])c([H])c2C1([H])[H]

$$$$
8:0:0
     RDKit          3D

100110  0  0  1  0  0  0  0  0999 V2000
  -29.6420  -24.5590   17.2460 C   0  0  0  0  0  3  0  0  0  0  0  0
  -29.8070  -23.2000   16.9100 C   0  0  0  0  0  3  0  0  0  0  0  0
  -28.7720  -23.9040   19.4080 C   0  0  0  0  0  0  0  0  0  0  0  0
  -29.1230  -24.9390   18.5030 C   0  0  0  0  0  0  0  0  0  0  0  0
  -28.9210  -22.5540   19.0840 C   0  0  0  0  0  0  0  0  0  0  0  0
  -29.4510  -22.1860   17.8230 C   0  0  0  0  0  0  0  0  0  0  0  0
  -28.2090  -24.0320   20.7930 C   0  0  0  0  0  3  0  0  0  0  0  0
  -28.0290  -22.5680   21.2220 C   0  0  0  0  0  3  0  0  0  0  0  0
  -28.4560  -21.7110   20.1110 N   0  0  0  0  0  0  0  0  0  0  0  0
  -29.6680  -20.5450   17.3480 Cl  0  0  0  0  0  0  0  0  0  0  0  0
  -28.5020  -18.0710   20.8780 C   0  0  0  0  0  3  0  0  0  0  0  0
  -30.7520  -18.9510   21.1520 C   0  0  0  0  0  3  0  0  0  0  0  0
  -28.0330  -19.3620   20.5640 C   0  0  0  0  0  3  0  0  0  0  0  0
  -30.2880  -20.2430   20.8230 C   0  0  0  0  0  3  0  0  0  0  0  0
  -29.8710  -17.8460   21.1280 C   0  0  0  0  0  0  0  0  0  0  0  0
  -28.9320  -20.4450   20.4860 C   0  0  0  0  0  0  0  0  0  0  0  0
  -30.4060  -16.4170   21.2810 C   0  0  0  0  0  2  0  0  0  0  0  0
  -31.6030  -14.5730   20.2170 C   0  0  0  0  0  0  0  0  0  0  0  0
  -31.1580  -12.4660   19.0450 C   0  0  0  0  0  2  0  0  0  0  0  0
  -30.2370  -12.7570   17.8460 C   0  0  0  0  0  2  0  0  0  0  0  0
  -28.7490  -12.7850   18.2620 C   0  0  0  0  0  2  0  0  0  0  0  0
  -28.4740  -13.5670   19.5810 C   0  0  0  0  0  3  0  0  0  0  0  0
  -29.5130  -13.2140   20.6620 C   0  0  0  0  0  2  0  0  0  0  0  0
  -30.8380  -13.4540   20.0810 N   0  0  0  0  0  0  0  0  0  0  0  0
  -32.8220  -14.5410   20.0440 O   0  0  0  0  0  0  0  0  0  0  0  0
  -30.9270  -15.7520   20.0520 N   0  0  0  0  0  0  0  0  0  0  0  0
  -26.1090  -14.3470   20.2240 C   0  0  0  0  0  0  0  0  0  0  0  0
  -24.9870  -13.6550   20.5870 C   0  0  0  0  0  0  0  0  0  0  0  0
  -25.3610  -12.2780   20.5910 C   0  0  0  0  0  0  0  0  0  0  0  0
  -27.1000  -13.3950   20.0400 N   0  0  0  0  0  0  0  0  0  0  0  0
  -26.6520  -12.1460   20.3170 N   0  0  0  0  0  0  0  0  0  0  0  0
  -24.5530  -11.0700   20.7810 C   0  0  0  0  0  0  0  0  0  0  0  0
  -24.9120  -10.0900   21.7310 C   0  0  0  0  0  3  0  0  0  0  0  0
  -24.1090   -8.9440   21.9120 C   0  0  0  0  0  3  0  0  0  0  0  0
  -22.9330   -8.7730   21.1420 C   0  0  0  0  0  0  0  0  0  0  0  0
  -22.5950   -9.7410   20.1810 C   0  0  0  0  0  3  0  0  0  0  0  0
  -23.3980  -10.8790   19.9970 C   0  0  0  0  0  3  0  0  0  0  0  0
  -22.1080   -7.6780   21.2340 O   0  0  0  0  0  0  0  0  0  0  0  0
  -21.9630   -6.9830   22.4070 C   0  0  0  0  0  0  0  0  0  0  0  0
  -21.5570   -7.6150   23.6030 C   0  0  0  0  0  3  0  0  0  0  0  0
  -21.3480   -6.8520   24.7690 C   0  0  0  0  0  3  0  0  0  0  0  0
  -21.5390   -5.4570   24.7410 C   0  0  0  0  0  0  0  0  0  0  0  0
  -21.9410   -4.8250   23.5520 C   0  0  0  0  0  3  0  0  0  0  0  0
  -22.1500   -5.5860   22.3870 C   0  0  0  0  0  0  0  0  0  0  0  0
  -22.5140   -4.9700   21.2370 F   0  0  0  0  0  0  0  0  0  0  0  0
  -21.3350   -4.7220   25.8590 F   0  0  0  0  0  0  0  0  0  0  0  0
  -23.6180  -14.2290   20.8170 C   0  0  0  0  0  0  0  0  0  0  0  0
  -22.8360  -13.6140   21.6970 N   0  0  0  0  0  0  0  0  0  0  0  0
  -23.2480  -15.2580   20.2530 O   0  0  0  0  0  0  0  0  0  0  0  0
  -23.1460  -12.7830   22.1810 H   0  0  0  0  0  0  0  0  0  0  0  0
  -21.9140  -13.9770   21.8880 H   0  0  0  0  0  0  0  0  0  0  0  0
  -26.3580  -15.6990   20.0140 N   0  0  0  0  0  0  0  0  0  0  0  0
  -25.6240  -16.3940   20.0780 H   0  0  0  0  0  0  0  0  0  0  0  0
  -27.2210  -16.0600   19.6330 H   0  0  0  0  0  0  0  0  0  0  0  0
  -32.0850  -16.1240   17.7620 C   0  0  0  0  0  1  0  0  0  0  0  0
  -31.0140  -16.5750   18.7910 C   0  0  0  0  0  3  0  0  0  0  0  0
  -29.4720  -17.8250   17.0880 C   0  0  0  0  0  1  0  0  0  0  0  0
  -29.6180  -16.7100   18.1290 C   0  0  0  0  0  2  0  0  0  0  0  0
  -28.9870  -26.4300   18.7890 C   0  0  0  0  0  2  0  0  0  0  0  0
  -28.4610  -26.7720   20.0670 O   0  0  0  0  0  0  0  0  0  0  0  0
  -24.6010  -31.8180   23.2180 C   0  0  0  0  0  0  0  0  0  0  0  0
  -27.2690  -27.4560   20.0730 C   0  0  0  0  0  0  0  0  0  0  0  0
  -23.3960  -30.4310   21.5570 C   0  0  0  0  0  3  0  0  0  0  0  0
  -24.8560  -28.9130   20.1170 C   0  0  0  0  0  0  0  0  0  0  0  0
  -25.9140  -30.8030   21.3680 C   0  0  0  0  0  2  0  0  0  0  0  0
  -26.0020  -29.4370   20.7250 C   0  0  0  0  0  0  0  0  0  0  0  0
  -27.2050  -28.7020   20.7250 C   0  0  0  0  0  3  0  0  0  0  0  0
  -26.1110  -26.9390   19.4510 C   0  0  0  0  0  3  0  0  0  0  0  0
  -24.9000  -27.6570   19.4850 C   0  0  0  0  0  3  0  0  0  0  0  0
  -23.6070  -29.7620   20.1710 C   0  0  0  0  0  2  0  0  0  0  0  0
  -24.6540  -31.0320   22.1070 N   0  0  0  0  0  0  0  0  0  0  0  0
  -23.5210  -32.0850   23.7620 O   0  0  0  0  0  0  0  0  0  0  0  0
  -22.7460  -29.4010   22.5090 C   0  0  0  0  0  0  0  0  0  0  0  0
  -21.4190  -29.2320   22.3920 N   0  0  0  0  0  0  0  0  0  0  0  0
  -23.4330  -28.7550   23.3060 O   0  0  0  0  0  0  0  0  0  0  0  0
  -20.9260  -29.8030   21.7200 H   0  0  0  0  0  0  0  0  0  0  0  0
  -18.0390  -28.0720   22.9060 C   0  0  0  0  0  0  0  0  0  0  0  0
  -20.6020  -28.2900   23.1530 C   0  0  0  0  0  3  0  0  0  0  0  0
  -20.6800  -26.8700   22.5470 C   0  0  0  0  0  2  0  0  0  0  0  0
  -19.5620  -26.5840   21.5380 C   0  0  0  0  0  2  0  0  0  0  0  0
  -18.1890  -26.7340   22.2030 C   0  0  0  0  0  2  0  0  0  0  0  0
  -19.1720  -28.8110   23.3390 C   0  0  0  0  0  0  0  0  0  0  0  0
  -18.9790  -30.0650   23.9550 C   0  0  0  0  0  3  0  0  0  0  0  0
  -17.6830  -30.5820   24.1450 C   0  0  0  0  0  3  0  0  0  0  0  0
  -16.5640  -29.8400   23.7280 C   0  0  0  0  0  3  0  0  0  0  0  0
  -16.7420  -28.5880   23.1140 C   0  0  0  0  0  3  0  0  0  0  0  0
  -25.8890  -32.4410   23.8430 C   0  0  0  0  0  3  0  0  0  0  0  0
  -25.5860  -33.8400   24.1700 N   0  0  0  0  0  0  0  0  0  0  0  0
  -25.9340  -34.8900   23.4130 C   0  0  0  0  0  0  0  0  0  0  0  0
  -26.6120  -34.7810   22.3870 O   0  0  0  0  0  0  0  0  0  0  0  0
  -24.9860  -34.0000   24.9660 H   0  0  0  0  0  0  0  0  0  0  0  0
  -24.2170  -36.6860   23.0410 C   0  0  0  0  0  1  0  0  0  0  0  0
  -25.4500  -36.2800   23.8630 C   0  0  0  0  0  3  0  0  0  0  0  0
  -27.5830  -37.1530   24.7070 C   0  0  0  0  0  1  0  0  0  0  0  0
  -26.4880  -37.3290   23.7580 N   0  0  0  0  0  0  0  0  0  0  0  0
  -26.0830  -38.2490   23.9100 H   0  0  0  0  0  0  0  0  0  0  0  0
  -26.4020  -31.6630   25.1170 C   0  0  1  0  0  0  0  0  0  0  0  0
  -25.3080  -31.4320   26.1850 C   0  0  0  0  0  1  0  0  0  0  0  0
  -26.9740  -30.2810   24.7200 C   0  0  0  0  0  1  0  0  0  0  0  0
  -27.5580  -32.4480   25.7810 C   0  0  0  0  0  1  0  0  0  0  0  0
  1  4  1  0
  2  1  2  0
  2  6  1  0
  3  7  1  0
  4 59  1  0
  4  3  2  0
  5  3  1  0
  5  9  1  0
  6  5  2  0
  7  8  2  0
  9 16  1  0
  9  8  1  0
 10  6  1  0
 11 15  1  0
 13 11  2  0
 14 12  1  0
 15 12  2  0
 15 17  1  0
 16 13  1  0
 16 14  2  0
 19 24  1  0
 20 21  1  0
 20 19  1  0
 22 21  1  0
 22 30  1  0
 22 23  1  0
 24 18  1  0
 24 23  1  0
 25 18  2  0
 26 18  1  0
 26 17  1  0
 27 28  2  0
 28 29  1  0
 28 47  1  0
 29 32  1  0
 30 27  1  0
 30 31  1  0
 31 29  2  0
 32 33  1  0
 33 34  2  0
 35 38  1  0
 35 34  1  0
 36 35  2  0
 37 36  1  0
 37 32  2  0
 38 39  1  0
 39 40  1  0
 40 41  2  0
 42 41  1  0
 42 46  1  0
 43 42  2  0
 44 39  2  0
 44 43  1  0
 45 44  1  0
 47 48  1  0
 48 51  1  0
 48 50  1  0
 49 47  2  0
 52 53  1  0
 52 27  1  0
 54 52  1  0
 56 55  1  0
 56 26  1  0
 57 58  1  0
 58 56  1  0
 59 60  1  0
 60 62  1  0
 61 72  2  0
 62 67  1  0
 63 71  1  0
 63 73  1  0
 64 70  1  0
 64 66  1  0
 65 71  1  0
 66 65  1  0
 67 66  2  0
 68 69  1  0
 68 62  2  0
 69 64  2  0
 70 63  1  0
 71 61  1  0
 73 75  2  0
 74 73  1  0
 76 74  1  0
 77 86  2  0
 77 82  1  0
 78 74  1  0
 78 82  1  0
 79 78  1  0
 80 81  1  0
 80 79  1  0
 81 77  1  0
 82 83  2  0
 83 84  1  0
 85 84  2  0
 86 85  1  0
 87 61  1  0
 87 88  1  0
 87 97  1  0
 88 91  1  0
 89 93  1  0
 89 88  1  0
 90 89  2  0
 93 92  1  0
 95 93  1  0
 95 96  1  0
 95 94  1  0
 97100  1  1
 97 98  1  0
 99 97  1  0
M  ISO  4  18 100  26 100  59 101  60 101
M  END
>  <TORSDO>  (9) 
F 21

>  <SCORE>  (9) 
-11.974

>  <name>  (9) 
8

>  <ligand_id>  (9) 
8

>  <original_smiles>  (9) 
[H]c1c([H])c([H])c2c(c1[H])C([H])([H])C([H])([H])C([H])([H])C2([H])N([H])C(=O)C1([H])N(C(=O)C([H])(N([H])C(=O)C([H])(N([H])C([H])([H])[H])C([H])([H])[H])C(C([H])([H])[H])(C([H])([H])[H])C([H])([H])[H])C([H])([H])c2c([H])c(OC([H])([H])c3c([H])c([H])c(Cl)c4c3C([H])([H])C([H])([H])N4c3c([H])c([H])c(C([H])([H])N(C(=O)N4C([H])([H])C([H])([H])C([H])([H])C([H])(n5nc(-c6c([H])c([H])c(Oc7c([H])c([H])c(F)c([H])c7F)c([H])c6[H])c(C(=O)N([H])[H])c5N([H])[H])C4([H])[H])C([H])(C([H])([H])[H])C([H])([H])C([H])([H])[H])c([H])c3[H])c([H])c([H])c2C1([H])[H]

>  <smiles>  (9) 
[H]c1c([H])c([H])c2c(c1[H])C([H])([H])C([H])([H])C([H])([H])C2([H])N([H])C(=O)C1([H])N(C(=O)C([H])(N([H])C(=O)C([H])(N([H])C([H])([H])[H])C([H])([H])[H])C(C([H])([H])[H])(C([H])([H])[H])C([H])([H])[H])C([H])([H])c2c([H])c(OC([H])([H])c3c([H])c([H])c(Cl)c4c3C([H])([H])C([H])([H])N4c3c([H])c([H])c(C([H])([H])N(C(=O)N4C([H])([H])C([H])([H])C([H])([H])C([H])(n5nc(-c6c([H])c([H])c(Oc7c([H])c([H])c(F)c([H])c7F)c([H])c6[H])c(C(=O)N([H])[H])c5N([H])[H])C4([H])[H])C([H])(C([H])([H])[H])C([H])([H])C([H])([H])[H])c([H])c3[H])c([H])c([H])c2C1([H])[H]

$$$$
9:0:0
     RDKit          3D

 94103  0  0  1  0  0  0  0  0999 V2000
  -29.3700  -22.7370   20.2600 C   0  0  0  0  0  0  0  0  0  0  0  0
  -27.0750  -23.2530   20.6140 C   0  0  0  0  0  2  0  0  0  0  0  0
  -27.3420  -21.7410   20.5690 C   0  0  0  0  0  2  0  0  0  0  0  0
  -28.3420  -23.9210   20.0970 C   0  0  0  0  0  3  0  0  0  0  0  0
  -28.7880  -21.4930   20.4280 N   0  0  0  0  0  0  0  0  0  0  0  0
  -30.5760  -22.9830   20.2230 O   0  0  0  0  0  0  0  0  0  0  0  0
  -30.9120  -18.1200   20.4240 C   0  0  0  0  0  3  0  0  0  0  0  0
  -28.3010  -19.0370   20.5780 C   0  0  0  0  0  3  0  0  0  0  0  0
  -30.6350  -19.5400   20.3880 C   0  0  0  0  0  0  0  0  0  0  0  0
  -29.2860  -20.0670   20.4620 C   0  0  0  0  0  0  0  0  0  0  0  0
  -29.8940  -17.1370   20.5630 C   0  0  0  0  0  0  0  0  0  0  0  0
  -28.5850  -17.6500   20.6410 C   0  0  0  0  0  0  0  0  0  0  0  0
  -31.8600  -20.4320   20.2870 C   0  0  0  0  0  1  0  0  0  0  0  0
  -27.5620  -16.7770   20.7880 F   0  0  0  0  0  0  0  0  0  0  0  0
  -30.7530  -14.7090   20.0790 C   0  0  0  0  0  0  0  0  0  0  0  0
  -30.5010  -12.5040   18.9310 C   0  0  0  0  0  2  0  0  0  0  0  0
  -29.4950  -12.6660   17.7680 C   0  0  0  0  0  2  0  0  0  0  0  0
  -28.0450  -12.4920   18.2640 C   0  0  0  0  0  2  0  0  0  0  0  0
  -27.7520  -13.3110   19.5510 C   0  0  0  0  0  3  0  0  0  0  0  0
  -28.8620  -13.1030   20.6060 C   0  0  0  0  0  2  0  0  0  0  0  0
  -30.1450  -13.4800   19.9850 N   0  0  0  0  0  0  0  0  0  0  0  0
  -31.8530  -14.9240   19.5590 O   0  0  0  0  0  0  0  0  0  0  0  0
  -30.0250  -15.6830   20.7080 N   0  0  0  0  0  0  0  0  0  0  0  0
  -29.2310  -15.2860   21.1860 H   0  0  0  0  0  0  0  0  0  0  0  0
  -25.3820  -13.8850   20.3630 C   0  0  0  0  0  0  0  0  0  0  0  0
  -24.3330  -13.1030   20.7620 C   0  0  0  0  0  0  0  0  0  0  0  0
  -24.8020  -11.7550   20.6980 C   0  0  0  0  0  0  0  0  0  0  0  0
  -26.4240  -13.0160   20.0840 N   0  0  0  0  0  0  0  0  0  0  0  0
  -26.0800  -11.7280   20.3390 N   0  0  0  0  0  0  0  0  0  0  0  0
  -24.0890  -10.4890   20.9000 C   0  0  0  0  0  0  0  0  0  0  0  0
  -24.5240   -9.5360   21.8450 C   0  0  0  0  0  3  0  0  0  0  0  0
  -23.8070   -8.3360   22.0350 C   0  0  0  0  0  3  0  0  0  0  0  0
  -22.6390   -8.0800   21.2800 C   0  0  0  0  0  0  0  0  0  0  0  0
  -22.2220   -9.0220   20.3220 C   0  0  0  0  0  3  0  0  0  0  0  0
  -22.9410  -10.2130   20.1290 C   0  0  0  0  0  3  0  0  0  0  0  0
  -21.8940   -6.9300   21.3760 O   0  0  0  0  0  0  0  0  0  0  0  0
  -21.7970   -6.2320   22.5550 C   0  0  0  0  0  0  0  0  0  0  0  0
  -21.3060   -6.8280   23.7360 C   0  0  0  0  0  3  0  0  0  0  0  0
  -21.1590   -6.0560   24.9050 C   0  0  0  0  0  3  0  0  0  0  0  0
  -21.4940   -4.6880   24.8930 C   0  0  0  0  0  0  0  0  0  0  0  0
  -21.9790   -4.0910   23.7150 C   0  0  0  0  0  3  0  0  0  0  0  0
  -22.1270   -4.8620   22.5490 C   0  0  0  0  0  0  0  0  0  0  0  0
  -22.5750   -4.2780   21.4110 F   0  0  0  0  0  0  0  0  0  0  0  0
  -21.3470   -3.9440   26.0130 F   0  0  0  0  0  0  0  0  0  0  0  0
  -22.9480  -13.5720   21.1040 C   0  0  0  0  0  0  0  0  0  0  0  0
  -22.2650  -12.8620   21.9930 N   0  0  0  0  0  0  0  0  0  0  0  0
  -22.4860  -14.6060   20.6240 O   0  0  0  0  0  0  0  0  0  0  0  0
  -22.6530  -12.0230   22.3960 H   0  0  0  0  0  0  0  0  0  0  0  0
  -21.3400  -13.1590   22.2710 H   0  0  0  0  0  0  0  0  0  0  0  0
  -25.5230  -15.2590   20.2050 N   0  0  0  0  0  0  0  0  0  0  0  0
  -24.7650  -15.8920   20.4300 H   0  0  0  0  0  0  0  0  0  0  0  0
  -26.4190  -15.7330   20.1600 H   0  0  0  0  0  0  0  0  0  0  0  0
  -28.6180  -25.3530   20.7600 C   0  0  0  0  0  2  0  0  0  0  0  0
  -28.4460  -26.6130   20.0150 O   0  0  0  0  0  0  0  0  0  0  0  0
  -24.5590  -31.8450   23.1430 C   0  0  0  0  0  0  0  0  0  0  0  0
  -27.2690  -27.3570   20.1060 C   0  0  0  0  0  0  0  0  0  0  0  0
  -23.3730  -30.4170   21.5130 C   0  0  0  0  0  3  0  0  0  0  0  0
  -24.8530  -28.8780   20.0980 C   0  0  0  0  0  0  0  0  0  0  0  0
  -25.9000  -30.7940   21.3100 C   0  0  0  0  0  2  0  0  0  0  0  0
  -26.0080  -29.4130   20.6810 C   0  0  0  0  0  0  0  0  0  0  0  0
  -27.2220  -28.6670   20.6690 C   0  0  0  0  0  3  0  0  0  0  0  0
  -26.0920  -26.8550   19.5200 C   0  0  0  0  0  3  0  0  0  0  0  0
  -24.8930  -27.6020   19.5110 C   0  0  0  0  0  3  0  0  0  0  0  0
  -23.5950  -29.7270   20.1410 C   0  0  0  0  0  2  0  0  0  0  0  0
  -24.6290  -31.0370   22.0480 N   0  0  0  0  0  0  0  0  0  0  0  0
  -23.4750  -32.1000   23.6860 O   0  0  0  0  0  0  0  0  0  0  0  0
  -22.7370  -29.3940   22.4820 C   0  0  0  0  0  0  0  0  0  0  0  0
  -21.4110  -29.2040   22.3740 N   0  0  0  0  0  0  0  0  0  0  0  0
  -23.4340  -28.7710   23.2860 O   0  0  0  0  0  0  0  0  0  0  0  0
  -20.9060  -29.7620   21.6990 H   0  0  0  0  0  0  0  0  0  0  0  0
  -18.0490  -28.0010   22.9330 C   0  0  0  0  0  0  0  0  0  0  0  0
  -20.6120  -28.2570   23.1510 C   0  0  0  0  0  3  0  0  0  0  0  0
  -20.7030  -26.8310   22.5570 C   0  0  0  0  0  2  0  0  0  0  0  0
  -19.5810  -26.5180   21.5650 C   0  0  0  0  0  2  0  0  0  0  0  0
  -18.2110  -26.6600   22.2370 C   0  0  0  0  0  2  0  0  0  0  0  0
  -19.1760  -28.7590   23.3480 C   0  0  0  0  0  0  0  0  0  0  0  0
  -18.9700  -30.0170   23.9540 C   0  0  0  0  0  3  0  0  0  0  0  0
  -17.6700  -30.5120   24.1600 C   0  0  0  0  0  3  0  0  0  0  0  0
  -16.5570  -29.7510   23.7670 C   0  0  0  0  0  3  0  0  0  0  0  0
  -16.7460  -28.5000   23.1530 C   0  0  0  0  0  3  0  0  0  0  0  0
  -25.8360  -32.5040   23.7570 C   0  0  0  0  0  3  0  0  0  0  0  0
  -25.5060  -33.8980   24.0860 N   0  0  0  0  0  0  0  0  0  0  0  0
  -25.8170  -34.9550   23.3250 C   0  0  0  0  0  0  0  0  0  0  0  0
  -26.4830  -34.8620   22.2890 O   0  0  0  0  0  0  0  0  0  0  0  0
  -24.9250  -34.0440   24.9000 H   0  0  0  0  0  0  0  0  0  0  0  0
  -24.0620  -36.7190   22.9700 C   0  0  0  0  0  1  0  0  0  0  0  0
  -25.3090  -36.3350   23.7830 C   0  0  0  0  0  3  0  0  0  0  0  0
  -27.4280  -37.2560   24.6160 C   0  0  0  0  0  1  0  0  0  0  0  0
  -26.3250  -37.4040   23.6700 N   0  0  0  0  0  0  0  0  0  0  0  0
  -25.9030  -38.3160   23.8170 H   0  0  0  0  0  0  0  0  0  0  0  0
  -26.3710  -31.7450   25.0330 C   0  0  1  0  0  0  0  0  0  0  0  0
  -25.2870  -31.4940   26.1070 C   0  0  0  0  0  1  0  0  0  0  0  0
  -26.9820  -30.3790   24.6430 C   0  0  0  0  0  1  0  0  0  0  0  0
  -27.5090  -32.5640   25.6890 C   0  0  0  0  0  1  0  0  0  0  0  0
  1  5  1  0
  3  2  1  0
  4  1  1  0
  4  2  1  0
  4 53  1  0
  5 10  1  0
  5  3  1  0
  6  1  2  0
  7 11  1  0
  8 12  1  0
  9  7  2  0
  9 10  1  0
 10  8  2  0
 11 12  2  0
 11 23  1  0
 12 14  1  0
 13  9  1  0
 15 23  1  0
 16 21  1  0
 17 18  1  0
 17 16  1  0
 19 18  1  0
 19 28  1  0
 19 20  1  0
 21 15  1  0
 21 20  1  0
 22 15  2  0
 23 24  1  0
 25 26  2  0
 26 45  1  0
 27 26  1  0
 27 30  1  0
 28 29  1  0
 28 25  1  0
 29 27  2  0
 30 31  1  0
 31 32  2  0
 33 36  1  0
 33 32  1  0
 34 33  2  0
 35 34  1  0
 35 30  2  0
 36 37  1  0
 37 38  1  0
 38 39  2  0
 40 39  1  0
 40 44  1  0
 41 40  2  0
 42 37  2  0
 42 41  1  0
 43 42  1  0
 45 46  1  0
 46 49  1  0
 46 48  1  0
 47 45  2  0
 50 25  1  0
 50 51  1  0
 52 50  1  0
 54 56  1  0
 54 53  1  0
 55 66  2  0
 56 61  1  0
 57 65  1  0
 57 67  1  0
 58 64  1  0
 58 60  1  0
 59 65  1  0
 60 59  1  0
 61 60  2  0
 62 56  2  0
 63 62  1  0
 63 58  2  0
 64 57  1  0
 65 55  1  0
 67 69  2  0
 68 67  1  0
 70 68  1  0
 71 80  2  0
 71 76  1  0
 72 68  1  0
 72 76  1  0
 73 72  1  0
 74 75  1  0
 74 73  1  0
 75 71  1  0
 76 77  2  0
 77 78  1  0
 79 78  2  0
 80 79  1  0
 81 55  1  0
 81 82  1  0
 81 91  1  0
 82 85  1  0
 83 87  1  0
 83 82  1  0
 84 83  2  0
 87 86  1  0
 89 87  1  0
 89 90  1  0
 89 88  1  0
 91 94  1  1
 91 92  1  0
 93 91  1  0
M  ISO  4  15 100  23 100  53 101  54 101
M  END
>  <TORSDO>  (10) 
F 18

>  <SCORE>  (10) 
-14.419

>  <name>  (10) 
9

>  <ligand_id>  (10) 
9

>  <original_smiles>  (10) 
[H]c1c([H])c([H])c2c(c1[H])C([H])([H])C([H])([H])C([H])([H])C2([H])N([H])C(=O)C1([H])N(C(=O)C([H])(N([H])C(=O)C([H])(N([H])C([H])([H])[H])C([H])([H])[H])C(C([H])([H])[H])(C([H])([H])[H])C([H])([H])[H])C([H])([H])c2c([H])c(OC([H])([H])C3([H])C(=O)N(c4c([H])c(F)c(N([H])C(=O)N5C([H])([H])C([H])([H])C([H])([H])C([H])(n6nc(-c7c([H])c([H])c(Oc8c([H])c([H])c(F)c([H])c8F)c([H])c7[H])c(C(=O)N([H])[H])c6N([H])[H])C5([H])[H])c([H])c4C([H])([H])[H])C([H])([H])C3([H])[H])c([H])c([H])c2C1([H])[H]

>  <smiles>  (10) 
[H]c1c([H])c([H])c2c(c1[H])C([H])([H])C([H])([H])C([H])([H])C2([H])N([H])C(=O)C1([H])N(C(=O)C([H])(N([H])C(=O)C([H])(N([H])C([H])([H])[H])C([H])([H])[H])C(C([H])([H])[H])(C([H])([H])[H])C([H])([H])[H])C([H])([H])c2c([H])c(OC([H])([H])C3([H])C(=O)N(c4c([H])c(F)c(N([H])C(=O)N5C([H])([H])C([H])([H])C([H])([H])C([H])(n6nc(-c7c([H])c([H])c(Oc8c([H])c([H])c(F)c([H])c8F)c([H])c7[H])c(C(=O)N([H])[H])c6N([H])[H])C5([H])[H])c([H])c4C([H])([H])[H])C([H])([H])C3([H])[H])c([H])c([H])c2C1([H])[H]

$$$$
10:0:0
     RDKit          3D

 92101  0  0  1  0  0  0  0  0999 V2000
  -29.5550  -23.1830   22.4950 C   0  0  0  0  0  2  0  0  0  0  0  0
  -30.2200  -23.7540   21.2400 C   0  0  0  0  0  2  0  0  0  0  0  0
  -28.4640  -22.2300   21.9780 C   0  0  0  0  0  2  0  0  0  0  0  0
  -29.2250  -23.4350   20.1290 C   0  0  0  0  0  3  0  0  0  0  0  0
  -28.7320  -22.0240   20.5520 N   0  0  0  0  0  0  0  0  0  0  0  0
  -30.4760  -20.0270   20.2220 C   0  0  0  0  0  3  0  0  0  0  0  0
  -30.7530  -18.5850   20.1940 C   0  0  0  0  0  3  0  0  0  0  0  0
  -28.1790  -19.5660   20.4500 C   0  0  0  0  0  3  0  0  0  0  0  0
  -29.1620  -20.6060   20.3660 C   0  0  0  0  0  0  0  0  0  0  0  0
  -29.7400  -17.5640   20.3050 C   0  0  0  0  0  0  0  0  0  0  0  0
  -28.4440  -18.1500   20.4230 C   0  0  0  0  0  0  0  0  0  0  0  0
  -27.3900  -17.3050   20.5290 F   0  0  0  0  0  0  0  0  0  0  0  0
  -30.6450  -14.9560   19.9720 C   0  0  0  0  0  0  0  0  0  0  0  0
  -30.4770  -12.6480   18.9400 C   0  0  0  0  0  2  0  0  0  0  0  0
  -29.4540  -12.6820   17.7780 C   0  0  0  0  0  2  0  0  0  0  0  0
  -28.0180  -12.4690   18.2990 C   0  0  0  0  0  2  0  0  0  0  0  0
  -27.7060  -13.3370   19.5460 C   0  0  0  0  0  3  0  0  0  0  0  0
  -28.8390  -13.2570   20.5930 C   0  0  0  0  0  2  0  0  0  0  0  0
  -30.0790  -13.6850   19.9290 N   0  0  0  0  0  0  0  0  0  0  0  0
  -31.8060  -15.0950   19.5660 O   0  0  0  0  0  0  0  0  0  0  0  0
  -29.8060  -16.0350   20.3170 N   0  0  0  0  0  0  0  0  0  0  0  0
  -28.9230  -15.6650   20.6320 H   0  0  0  0  0  0  0  0  0  0  0  0
  -25.3760  -13.8980   20.4580 C   0  0  0  0  0  0  0  0  0  0  0  0
  -24.3350  -13.1120   20.8700 C   0  0  0  0  0  0  0  0  0  0  0  0
  -24.7910  -11.7630   20.7630 C   0  0  0  0  0  0  0  0  0  0  0  0
  -26.4000  -13.0280   20.1210 N   0  0  0  0  0  0  0  0  0  0  0  0
  -26.0600  -11.7350   20.3670 N   0  0  0  0  0  0  0  0  0  0  0  0
  -24.0730  -10.4970   20.9610 C   0  0  0  0  0  0  0  0  0  0  0  0
  -24.5080   -9.5400   21.9040 C   0  0  0  0  0  3  0  0  0  0  0  0
  -23.7880   -8.3390   22.0880 C   0  0  0  0  0  3  0  0  0  0  0  0
  -22.6200   -8.0880   21.3300 C   0  0  0  0  0  0  0  0  0  0  0  0
  -22.2040   -9.0360   20.3770 C   0  0  0  0  0  3  0  0  0  0  0  0
  -22.9250  -10.2270   20.1900 C   0  0  0  0  0  3  0  0  0  0  0  0
  -21.8720   -6.9390   21.4250 O   0  0  0  0  0  0  0  0  0  0  0  0
  -21.7580   -6.2480   22.6040 C   0  0  0  0  0  0  0  0  0  0  0  0
  -21.2390   -6.8500   23.7720 C   0  0  0  0  0  3  0  0  0  0  0  0
  -21.0740   -6.0850   24.9440 C   0  0  0  0  0  3  0  0  0  0  0  0
  -21.4170   -4.7200   24.9480 C   0  0  0  0  0  0  0  0  0  0  0  0
  -21.9280   -4.1170   23.7840 C   0  0  0  0  0  3  0  0  0  0  0  0
  -22.0950   -4.8800   22.6140 C   0  0  0  0  0  0  0  0  0  0  0  0
  -22.5680   -4.2900   21.4900 F   0  0  0  0  0  0  0  0  0  0  0  0
  -21.2500   -3.9820   26.0710 F   0  0  0  0  0  0  0  0  0  0  0  0
  -22.9620  -13.5840   21.2510 C   0  0  0  0  0  0  0  0  0  0  0  0
  -22.2970  -12.8730   22.1540 N   0  0  0  0  0  0  0  0  0  0  0  0
  -22.4900  -14.6190   20.7820 O   0  0  0  0  0  0  0  0  0  0  0  0
  -22.6910  -12.0370   22.5570 H   0  0  0  0  0  0  0  0  0  0  0  0
  -21.3780  -13.1710   22.4490 H   0  0  0  0  0  0  0  0  0  0  0  0
  -25.5250  -15.2740   20.3220 N   0  0  0  0  0  0  0  0  0  0  0  0
  -24.7760  -15.9130   20.5610 H   0  0  0  0  0  0  0  0  0  0  0  0
  -26.3810  -15.7580   20.0820 H   0  0  0  0  0  0  0  0  0  0  0  0
  -28.1260  -24.7110   20.0240 C   0  0  0  0  0  2  0  0  0  0  0  0
  -28.3920  -26.2390   20.0610 O   0  0  0  0  0  0  0  0  0  0  0  0
  -24.6310  -31.7370   23.2070 C   0  0  0  0  0  0  0  0  0  0  0  0
  -27.3080  -27.1870   20.0380 C   0  0  0  0  0  0  0  0  0  0  0  0
  -23.4670  -30.3910   21.5020 C   0  0  0  0  0  3  0  0  0  0  0  0
  -24.9510  -28.8880   20.0430 C   0  0  0  0  0  0  0  0  0  0  0  0
  -26.0190  -30.6960   21.3790 C   0  0  0  0  0  2  0  0  0  0  0  0
  -26.1180  -29.3320   20.6780 C   0  0  0  0  0  0  0  0  0  0  0  0
  -27.2970  -28.4990   20.6570 C   0  0  0  0  0  3  0  0  0  0  0  0
  -26.1100  -26.8410   19.3720 C   0  0  0  0  0  3  0  0  0  0  0  0
  -24.9600  -27.6570   19.3750 C   0  0  0  0  0  3  0  0  0  0  0  0
  -23.7120  -29.7670   20.1030 C   0  0  0  0  0  2  0  0  0  0  0  0
  -24.7260  -30.9600   22.0850 N   0  0  0  0  0  0  0  0  0  0  0  0
  -23.5360  -31.9900   23.7310 O   0  0  0  0  0  0  0  0  0  0  0  0
  -22.7880  -29.3410   22.4170 C   0  0  0  0  0  0  0  0  0  0  0  0
  -21.4600  -29.1770   22.2800 N   0  0  0  0  0  0  0  0  0  0  0  0
  -23.4570  -28.6770   23.2130 O   0  0  0  0  0  0  0  0  0  0  0  0
  -20.9780  -29.7630   21.6120 H   0  0  0  0  0  0  0  0  0  0  0  0
  -18.0630  -28.0220   22.7840 C   0  0  0  0  0  0  0  0  0  0  0  0
  -20.6340  -28.2090   23.0070 C   0  0  0  0  0  3  0  0  0  0  0  0
  -20.6900  -26.8170   22.3360 C   0  0  0  0  0  2  0  0  0  0  0  0
  -19.5560  -26.5870   21.3300 C   0  0  0  0  0  2  0  0  0  0  0  0
  -18.1930  -26.7180   22.0150 C   0  0  0  0  0  2  0  0  0  0  0  0
  -19.2090  -28.7300   23.2360 C   0  0  0  0  0  0  0  0  0  0  0  0
  -19.0310  -29.9530   23.9180 C   0  0  0  0  0  3  0  0  0  0  0  0
  -17.7430  -30.4680   24.1510 C   0  0  0  0  0  3  0  0  0  0  0  0
  -16.6120  -29.7560   23.7130 C   0  0  0  0  0  3  0  0  0  0  0  0
  -16.7740  -28.5340   23.0360 C   0  0  0  0  0  3  0  0  0  0  0  0
  -25.8940  -32.3600   23.8760 C   0  0  0  0  0  3  0  0  0  0  0  0
  -25.5750  -33.7530   24.2240 N   0  0  0  0  0  0  0  0  0  0  0  0
  -25.8890  -34.8180   23.4750 C   0  0  0  0  0  0  0  0  0  0  0  0
  -26.5440  -34.7310   22.4320 O   0  0  0  0  0  0  0  0  0  0  0  0
  -24.9880  -33.8930   25.0320 H   0  0  0  0  0  0  0  0  0  0  0  0
  -24.1230  -36.5900   23.1930 C   0  0  0  0  0  1  0  0  0  0  0  0
  -25.4000  -36.1990   23.9550 C   0  0  0  0  0  3  0  0  0  0  0  0
  -27.5460  -37.1200   24.7170 C   0  0  0  0  0  1  0  0  0  0  0  0
  -26.4140  -37.2670   23.8070 N   0  0  0  0  0  0  0  0  0  0  0  0
  -25.9970  -38.1820   23.9620 H   0  0  0  0  0  0  0  0  0  0  0  0
  -26.3720  -31.5680   25.1560 C   0  0  1  0  0  0  0  0  0  0  0  0
  -25.2470  -31.3170   26.1870 C   0  0  0  0  0  1  0  0  0  0  0  0
  -26.9650  -30.1950   24.7640 C   0  0  0  0  0  1  0  0  0  0  0  0
  -27.5030  -32.3510   25.8630 C   0  0  0  0  0  1  0  0  0  0  0  0
  2  1  1  0
  3  1  1  0
  4 51  1  0
  4  5  1  0
  4  2  1  0
  5  3  1  0
  6  9  1  0
  7  6  2  0
  7 10  1  0
  9  8  2  0
  9  5  1  0
 10 21  1  0
 10 11  2  0
 11  8  1  0
 11 12  1  0
 13 21  1  0
 14 19  1  0
 15 16  1  0
 15 14  1  0
 17 16  1  0
 17 26  1  0
 17 18  1  0
 19 13  1  0
 19 18  1  0
 20 13  2  0
 21 22  1  0
 23 24  2  0
 24 43  1  0
 25 24  1  0
 25 28  1  0
 26 27  1  0
 26 23  1  0
 27 25  2  0
 28 29  1  0
 29 30  2  0
 31 34  1  0
 31 30  1  0
 32 31  2  0
 33 32  1  0
 33 28  2  0
 34 35  1  0
 35 40  2  0
 35 36  1  0
 36 37  2  0
 37 38  1  0
 38 42  1  0
 39 38  2  0
 40 39  1  0
 41 40  1  0
 43 44  1  0
 44 47  1  0
 44 46  1  0
 45 43  2  0
 48 23  1  0
 48 49  1  0
 50 48  1  0
 51 52  1  0
 53 64  2  0
 54 52  1  0
 54 59  1  0
 55 63  1  0
 55 65  1  0
 56 62  1  0
 56 58  1  0
 57 63  1  0
 58 57  1  0
 59 58  2  0
 60 61  1  0
 60 54  2  0
 61 56  2  0
 62 55  1  0
 63 53  1  0
 65 67  2  0
 66 65  1  0
 68 66  1  0
 69 78  2  0
 69 74  1  0
 70 66  1  0
 70 74  1  0
 71 70  1  0
 72 73  1  0
 72 71  1  0
 73 69  1  0
 74 75  2  0
 75 76  1  0
 77 76  2  0
 78 77  1  0
 79 53  1  0
 79 80  1  0
 79 89  1  0
 80 83  1  0
 81 85  1  0
 81 80  1  0
 82 81  2  0
 85 84  1  0
 87 85  1  0
 87 88  1  0
 87 86  1  0
 89 92  1  1
 89 90  1  0
 91 89  1  0
M  ISO  4  13 100  21 100  51 101  52 101
M  END
>  <TORSDO>  (11) 
F 18

>  <SCORE>  (11) 
-14.730

>  <name>  (11) 
10

>  <ligand_id>  (11) 
10

>  <original_smiles>  (11) 
[H]c1c([H])c([H])c2c(c1[H])C([H])([H])C([H])([H])C([H])([H])C2([H])N([H])C(=O)C1([H])N(C(=O)C([H])(N([H])C(=O)C([H])(N([H])C([H])([H])[H])C([H])([H])[H])C(C([H])([H])[H])(C([H])([H])[H])C([H])([H])[H])C([H])([H])c2c([H])c(OC([H])([H])C3([H])N(c4c([H])c([H])c(N([H])C(=O)N5C([H])([H])C([H])([H])C([H])([H])C([H])(n6nc(-c7c([H])c([H])c(Oc8c([H])c([H])c(F)c([H])c8F)c([H])c7[H])c(C(=O)N([H])[H])c6N([H])[H])C5([H])[H])c(F)c4[H])C([H])([H])C([H])([H])C3([H])[H])c([H])c([H])c2C1([H])[H]

>  <smiles>  (11) 
[H]c1c([H])c([H])c2c(c1[H])C([H])([H])C([H])([H])C([H])([H])C2([H])N([H])C(=O)C1([H])N(C(=O)C([H])(N([H])C(=O)C([H])(N([H])C([H])([H])[H])C([H])([H])[H])C(C([H])([H])[H])(C([H])([H])[H])C([H])([H])[H])C([H])([H])c2c([H])c(OC([H])([H])C3([H])N(c4c([H])c([H])c(N([H])C(=O)N5C([H])([H])C([H])([H])C([H])([H])C([H])(n6nc(-c7c([H])c([H])c(Oc8c([H])c([H])c(F)c([H])c8F)c([H])c7[H])c(C(=O)N([H])[H])c6N([H])[H])C5([H])[H])c(F)c4[H])C([H])([H])C([H])([H])C3([H])[H])c([H])c([H])c2C1([H])[H]

$$$$
11:0:0
     RDKit          3D

 93102  0  0  1  0  0  0  0  0999 V2000
  -29.2510  -22.5560   20.7100 C   0  0  0  0  0  0  0  0  0  0  0  0
  -29.7630  -23.6140   18.6510 C   0  0  0  0  0  2  0  0  0  0  0  0
  -30.2880  -22.1600   18.7060 C   0  0  0  0  0  2  0  0  0  0  0  0
  -29.4490  -23.9890   20.1020 C   0  0  0  0  0  3  0  0  0  0  0  0
  -29.7030  -21.5480   19.9000 N   0  0  0  0  0  0  0  0  0  0  0  0
  -28.7760  -22.4010   21.8390 O   0  0  0  0  0  0  0  0  0  0  0  0
  -31.0520  -19.4210   20.0390 C   0  0  0  0  0  3  0  0  0  0  0  0
  -31.1990  -18.0060   20.1930 C   0  0  0  0  0  3  0  0  0  0  0  0
  -28.8350  -17.8320   20.5510 C   0  0  0  0  0  3  0  0  0  0  0  0
  -29.7950  -20.0930   20.1390 C   0  0  0  0  0  0  0  0  0  0  0  0
  -30.0850  -17.1650   20.4500 C   0  0  0  0  0  0  0  0  0  0  0  0
  -28.6760  -19.2420   20.3880 C   0  0  0  0  0  0  0  0  0  0  0  0
  -27.0600  -19.8550   20.3980 Cl  0  0  0  0  0  0  0  0  0  0  0  0
  -30.9020  -14.7070   20.0680 C   0  0  0  0  0  0  0  0  0  0  0  0
  -30.6730  -12.5050   18.9330 C   0  0  0  0  0  2  0  0  0  0  0  0
  -29.6540  -12.6670   17.7810 C   0  0  0  0  0  2  0  0  0  0  0  0
  -28.2090  -12.4750   18.2860 C   0  0  0  0  0  2  0  0  0  0  0  0
  -27.9180  -13.2860   19.5780 C   0  0  0  0  0  3  0  0  0  0  0  0
  -29.0390  -13.0860   20.6220 C   0  0  0  0  0  2  0  0  0  0  0  0
  -30.3120  -13.4720   19.9890 N   0  0  0  0  0  0  0  0  0  0  0  0
  -32.0240  -14.9140   19.5930 O   0  0  0  0  0  0  0  0  0  0  0  0
  -30.1090  -15.7030   20.5790 N   0  0  0  0  0  0  0  0  0  0  0  0
  -29.2800  -15.3190   21.0050 H   0  0  0  0  0  0  0  0  0  0  0  0
  -25.5680  -13.8440   20.4570 C   0  0  0  0  0  0  0  0  0  0  0  0
  -24.5260  -13.0500   20.8550 C   0  0  0  0  0  0  0  0  0  0  0  0
  -24.9910  -11.7040   20.7410 C   0  0  0  0  0  0  0  0  0  0  0  0
  -26.5990  -12.9790   20.1260 N   0  0  0  0  0  0  0  0  0  0  0  0
  -26.2610  -11.6850   20.3560 N   0  0  0  0  0  0  0  0  0  0  0  0
  -24.2820  -10.4310   20.9230 C   0  0  0  0  0  0  0  0  0  0  0  0
  -24.7060   -9.4790   21.8770 C   0  0  0  0  0  3  0  0  0  0  0  0
  -23.9970   -8.2700   22.0460 C   0  0  0  0  0  3  0  0  0  0  0  0
  -22.8500   -8.0050   21.2610 C   0  0  0  0  0  0  0  0  0  0  0  0
  -22.4470   -8.9450   20.2970 C   0  0  0  0  0  3  0  0  0  0  0  0
  -23.1550  -10.1450   20.1270 C   0  0  0  0  0  3  0  0  0  0  0  0
  -22.1150   -6.8470   21.3370 O   0  0  0  0  0  0  0  0  0  0  0  0
  -21.9390   -6.1830   22.5240 C   0  0  0  0  0  0  0  0  0  0  0  0
  -21.3300   -6.7980   23.6390 C   0  0  0  0  0  3  0  0  0  0  0  0
  -21.1060   -6.0580   24.8180 C   0  0  0  0  0  3  0  0  0  0  0  0
  -21.4820   -4.7030   24.8800 C   0  0  0  0  0  0  0  0  0  0  0  0
  -22.0840   -4.0870   23.7680 C   0  0  0  0  0  3  0  0  0  0  0  0
  -22.3090   -4.8240   22.5930 C   0  0  0  0  0  0  0  0  0  0  0  0
  -22.8700   -4.2200   21.5180 F   0  0  0  0  0  0  0  0  0  0  0  0
  -21.2600   -3.9890   26.0090 F   0  0  0  0  0  0  0  0  0  0  0  0
  -23.1450  -13.5080   21.2280 C   0  0  0  0  0  0  0  0  0  0  0  0
  -22.4760  -12.7780   22.1120 N   0  0  0  0  0  0  0  0  0  0  0  0
  -22.6720  -14.5470   20.7710 O   0  0  0  0  0  0  0  0  0  0  0  0
  -22.8740  -11.9370   22.5040 H   0  0  0  0  0  0  0  0  0  0  0  0
  -21.5520  -13.0650   22.4040 H   0  0  0  0  0  0  0  0  0  0  0  0
  -25.7180  -15.2210   20.3280 N   0  0  0  0  0  0  0  0  0  0  0  0
  -24.9570  -15.8640   20.5180 H   0  0  0  0  0  0  0  0  0  0  0  0
  -26.5350  -15.6790   19.9450 H   0  0  0  0  0  0  0  0  0  0  0  0
  -28.3040  -25.0810   20.3060 C   0  0  0  0  0  2  0  0  0  0  0  0
  -28.5460  -26.5000   19.9390 O   0  0  0  0  0  0  0  0  0  0  0  0
  -24.8360  -31.7530   23.2310 C   0  0  0  0  0  0  0  0  0  0  0  0
  -27.4400  -27.3630   19.9460 C   0  0  0  0  0  0  0  0  0  0  0  0
  -23.6390  -30.4750   21.4910 C   0  0  0  0  0  3  0  0  0  0  0  0
  -25.0930  -28.9970   19.9950 C   0  0  0  0  0  0  0  0  0  0  0  0
  -26.1840  -30.7710   21.3660 C   0  0  0  0  0  2  0  0  0  0  0  0
  -26.2570  -29.4340   20.6400 C   0  0  0  0  0  0  0  0  0  0  0  0
  -27.4340  -28.6290   20.6070 C   0  0  0  0  0  3  0  0  0  0  0  0
  -26.2600  -26.9870   19.2640 C   0  0  0  0  0  3  0  0  0  0  0  0
  -25.0970  -27.7780   19.2980 C   0  0  0  0  0  3  0  0  0  0  0  0
  -23.8660  -29.8820   20.0750 C   0  0  0  0  0  2  0  0  0  0  0  0
  -24.9040  -31.0130   22.0860 N   0  0  0  0  0  0  0  0  0  0  0  0
  -23.7480  -32.0130   23.7660 O   0  0  0  0  0  0  0  0  0  0  0  0
  -22.9490  -29.4110   22.3760 C   0  0  0  0  0  0  0  0  0  0  0  0
  -21.6190  -29.2790   22.2360 N   0  0  0  0  0  0  0  0  0  0  0  0
  -23.6090  -28.7100   23.1470 O   0  0  0  0  0  0  0  0  0  0  0  0
  -21.1480  -29.8990   21.5910 H   0  0  0  0  0  0  0  0  0  0  0  0
  -18.1980  -28.2080   22.7150 C   0  0  0  0  0  0  0  0  0  0  0  0
  -20.7710  -28.3130   22.9370 C   0  0  0  0  0  3  0  0  0  0  0  0
  -20.7860  -26.9400   22.2260 C   0  0  0  0  0  2  0  0  0  0  0  0
  -19.6450  -26.7710   21.2170 C   0  0  0  0  0  2  0  0  0  0  0  0
  -18.2880  -26.9220   21.9110 C   0  0  0  0  0  2  0  0  0  0  0  0
  -19.3640  -28.8680   23.1840 C   0  0  0  0  0  0  0  0  0  0  0  0
  -19.2250  -30.0790   23.8970 C   0  0  0  0  0  3  0  0  0  0  0  0
  -17.9510  -30.6240   24.1480 C   0  0  0  0  0  3  0  0  0  0  0  0
  -16.8000  -29.9570   23.6960 C   0  0  0  0  0  3  0  0  0  0  0  0
  -16.9250  -28.7510   22.9830 C   0  0  0  0  0  3  0  0  0  0  0  0
  -26.1180  -32.3260   23.9100 C   0  0  0  0  0  3  0  0  0  0  0  0
  -25.8240  -33.7070   24.3200 N   0  0  0  0  0  0  0  0  0  0  0  0
  -26.1790  -34.7980   23.6290 C   0  0  0  0  0  0  0  0  0  0  0  0
  -26.8580  -34.7470   22.6010 O   0  0  0  0  0  0  0  0  0  0  0  0
  -25.2230  -33.8210   25.1230 H   0  0  0  0  0  0  0  0  0  0  0  0
  -24.4770  -36.6330   23.3670 C   0  0  0  0  0  1  0  0  0  0  0  0
  -25.7050  -36.1630   24.1650 C   0  0  0  0  0  3  0  0  0  0  0  0
  -27.8360  -36.9740   25.0760 C   0  0  0  0  0  1  0  0  0  0  0  0
  -26.7520  -37.2060   24.1240 N   0  0  0  0  0  0  0  0  0  0  0  0
  -26.3550  -38.1230   24.3120 H   0  0  0  0  0  0  0  0  0  0  0  0
  -26.6000  -31.4710   25.1450 C   0  0  1  0  0  0  0  0  0  0  0  0
  -25.4840  -31.1860   26.1780 C   0  0  0  0  0  1  0  0  0  0  0  0
  -27.1700  -30.1100   24.6830 C   0  0  0  0  0  1  0  0  0  0  0  0
  -27.7490  -32.2060   25.8750 C   0  0  0  0  0  1  0  0  0  0  0  0
  1  6  2  0
  2  3  1  0
  2  4  1  0
  3  5  1  0
  4 52  1  0
  4  1  1  0
  5 10  1  0
  5  1  1  0
  7 10  2  0
  7  8  1  0
  8 11  2  0
 10 12  1  0
 11  9  1  0
 11 22  1  0
 12 13  1  0
 12  9  2  0
 14 22  1  0
 15 20  1  0
 16 17  1  0
 16 15  1  0
 18 17  1  0
 18 27  1  0
 18 19  1  0
 20 14  1  0
 20 19  1  0
 21 14  2  0
 22 23  1  0
 24 25  2  0
 25 44  1  0
 26 25  1  0
 26 29  1  0
 27 28  1  0
 27 24  1  0
 28 26  2  0
 29 30  1  0
 30 31  2  0
 32 35  1  0
 32 31  1  0
 33 32  2  0
 34 33  1  0
 34 29  2  0
 35 36  1  0
 36 41  2  0
 36 37  1  0
 37 38  2  0
 38 39  1  0
 39 43  1  0
 40 39  2  0
 41 40  1  0
 42 41  1  0
 44 45  1  0
 45 48  1  0
 45 47  1  0
 46 44  2  0
 49 24  1  0
 49 50  1  0
 51 49  1  0
 53 55  1  0
 53 52  1  0
 54 65  2  0
 55 60  1  0
 56 64  1  0
 56 66  1  0
 57 63  1  0
 57 59  1  0
 58 64  1  0
 59 58  1  0
 60 59  2  0
 61 62  1  0
 61 55  2  0
 62 57  2  0
 63 56  1  0
 64 54  1  0
 66 68  2  0
 67 66  1  0
 69 67  1  0
 70 79  2  0
 70 75  1  0
 71 67  1  0
 71 75  1  0
 72 71  1  0
 73 74  1  0
 73 72  1  0
 74 70  1  0
 75 76  2  0
 76 77  1  0
 78 77  2  0
 79 78  1  0
 80 54  1  0
 80 81  1  0
 80 90  1  0
 81 84  1  0
 82 86  1  0
 82 81  1  0
 83 82  2  0
 86 85  1  0
 88 86  1  0
 88 89  1  0
 88 87  1  0
 90 93  1  1
 90 91  1  0
 92 90  1  0
M  ISO  4  14 100  22 100  52 101  53 101
M  END
>  <TORSDO>  (12) 
F 18

>  <SCORE>  (12) 
-13.374

>  <name>  (12) 
11

>  <ligand_id>  (12) 
11

>  <original_smiles>  (12) 
[H]c1c([H])c([H])c2c(c1[H])C([H])([H])C([H])([H])C([H])([H])C2([H])N([H])C(=O)C1([H])N(C(=O)C([H])(N([H])C(=O)C([H])(N([H])C([H])([H])[H])C([H])([H])[H])C(C([H])([H])[H])(C([H])([H])[H])C([H])([H])[H])C([H])([H])c2c([H])c(OC([H])([H])C3([H])C(=O)N(c4c([H])c([H])c(N([H])C(=O)N5C([H])([H])C([H])([H])C([H])([H])C([H])(n6nc(-c7c([H])c([H])c(Oc8c([H])c([H])c(F)c([H])c8F)c([H])c7[H])c(C(=O)N([H])[H])c6N([H])[H])C5([H])[H])c([H])c4Cl)C([H])([H])C3([H])[H])c([H])c([H])c2C1([H])[H]

>  <smiles>  (12) 
[H]c1c([H])c([H])c2c(c1[H])C([H])([H])C([H])([H])C([H])([H])C2([H])N([H])C(=O)C1([H])N(C(=O)C([H])(N([H])C(=O)C([H])(N([H])C([H])([H])[H])C([H])([H])[H])C(C([H])([H])[H])(C([H])([H])[H])C([H])([H])[H])C([H])([H])c2c([H])c(OC([H])([H])C3([H])C(=O)N(c4c([H])c([H])c(N([H])C(=O)N5C([H])([H])C([H])([H])C([H])([H])C([H])(n6nc(-c7c([H])c([H])c(Oc8c([H])c([H])c(F)c([H])c8F)c([H])c7[H])c(C(=O)N([H])[H])c6N([H])[H])C5([H])[H])c([H])c4Cl)C([H])([H])C3([H])[H])c([H])c([H])c2C1([H])[H]

$$$$
12:0:0
     RDKit          3D

 95104  0  0  1  0  0  0  0  0999 V2000
  -31.5100  -23.1290   18.1730 C   0  0  0  0  0  2  0  0  0  0  0  0
  -31.0000  -24.5500   18.4310 C   0  0  0  0  0  2  0  0  0  0  0  0
  -31.2870  -22.2250   19.3960 C   0  0  0  0  0  2  0  0  0  0  0  0
  -29.2820  -23.5810   20.0210 C   0  0  0  0  0  2  0  0  0  0  0  0
  -29.5030  -24.4920   18.7690 C   0  0  0  0  0  3  0  0  0  0  0  0
  -29.8690  -22.1950   19.8560 N   0  0  2  0  0  4  0  0  0  0  0  0
  -29.3310  -21.7530   19.1280 H   0  0  0  0  0  0  0  0  0  0  0  0
  -29.7130  -21.3250   21.0690 C   0  0  0  0  0  2  0  0  0  0  0  0
  -31.1020  -19.1530   21.3680 C   0  0  0  0  0  3  0  0  0  0  0  0
  -31.2430  -17.7390   21.3490 C   0  0  0  0  0  3  0  0  0  0  0  0
  -29.0380  -17.5600   20.3660 C   0  0  0  0  0  3  0  0  0  0  0  0
  -29.9290  -19.7960   20.8880 C   0  0  0  0  0  0  0  0  0  0  0  0
  -30.1970  -16.9190   20.8620 C   0  0  0  0  0  0  0  0  0  0  0  0
  -28.9050  -18.9680   20.3590 C   0  0  0  0  0  0  0  0  0  0  0  0
  -27.4450  -19.6470   19.7280 Cl  0  0  0  0  0  0  0  0  0  0  0  0
  -30.9000  -14.5540   20.2470 C   0  0  0  0  0  0  0  0  0  0  0  0
  -30.5860  -12.4260   19.0160 C   0  0  0  0  0  2  0  0  0  0  0  0
  -29.5830  -12.6610   17.8670 C   0  0  0  0  0  2  0  0  0  0  0  0
  -28.1260  -12.5170   18.3560 C   0  0  0  0  0  2  0  0  0  0  0  0
  -27.8530  -13.3090   19.6610 C   0  0  0  0  0  3  0  0  0  0  0  0
  -28.9510  -13.0190   20.7080 C   0  0  0  0  0  2  0  0  0  0  0  0
  -30.2540  -13.3600   20.1030 N   0  0  0  0  0  0  0  0  0  0  0  0
  -31.9930  -14.7870   19.7200 O   0  0  0  0  0  0  0  0  0  0  0  0
  -30.1900  -15.4820   20.9270 N   0  0  0  0  0  0  0  0  0  0  0  0
  -29.3440  -15.0890   21.3120 H   0  0  0  0  0  0  0  0  0  0  0  0
  -25.4940  -13.9310   20.4930 C   0  0  0  0  0  0  0  0  0  0  0  0
  -24.4320  -13.1630   20.8890 C   0  0  0  0  0  0  0  0  0  0  0  0
  -24.8690  -11.8070   20.7930 C   0  0  0  0  0  0  0  0  0  0  0  0
  -26.5150  -13.0420   20.1880 N   0  0  0  0  0  0  0  0  0  0  0  0
  -26.1430  -11.7570   20.4230 N   0  0  0  0  0  0  0  0  0  0  0  0
  -24.1320  -10.5500   20.9750 C   0  0  0  0  0  0  0  0  0  0  0  0
  -24.5420   -9.5830   21.9200 C   0  0  0  0  0  3  0  0  0  0  0  0
  -23.8070   -8.3920   22.0900 C   0  0  0  0  0  3  0  0  0  0  0  0
  -22.6470   -8.1560   21.3140 C   0  0  0  0  0  0  0  0  0  0  0  0
  -22.2560   -9.1100   20.3580 C   0  0  0  0  0  3  0  0  0  0  0  0
  -22.9920  -10.2950   20.1870 C   0  0  0  0  0  3  0  0  0  0  0  0
  -21.8880   -7.0130   21.3910 O   0  0  0  0  0  0  0  0  0  0  0  0
  -21.7420   -6.3220   22.5660 C   0  0  0  0  0  0  0  0  0  0  0  0
  -21.1890   -6.9220   23.7180 C   0  0  0  0  0  3  0  0  0  0  0  0
  -20.9920   -6.1580   24.8860 C   0  0  0  0  0  3  0  0  0  0  0  0
  -21.3400   -4.7940   24.9020 C   0  0  0  0  0  0  0  0  0  0  0  0
  -21.8870   -4.1940   23.7540 C   0  0  0  0  0  3  0  0  0  0  0  0
  -22.0860   -4.9550   22.5880 C   0  0  0  0  0  0  0  0  0  0  0  0
  -22.5940   -4.3670   21.4790 F   0  0  0  0  0  0  0  0  0  0  0  0
  -21.1440   -4.0570   26.0200 F   0  0  0  0  0  0  0  0  0  0  0  0
  -23.0560  -13.6520   21.2400 C   0  0  0  0  0  0  0  0  0  0  0  0
  -22.3580  -12.9440   22.1210 N   0  0  0  0  0  0  0  0  0  0  0  0
  -22.6100  -14.6980   20.7690 O   0  0  0  0  0  0  0  0  0  0  0  0
  -22.7310  -12.0980   22.5260 H   0  0  0  0  0  0  0  0  0  0  0  0
  -21.4370  -13.2550   22.3960 H   0  0  0  0  0  0  0  0  0  0  0  0
  -25.6700  -15.3040   20.3450 N   0  0  0  0  0  0  0  0  0  0  0  0
  -24.9030  -15.9550   20.4700 H   0  0  0  0  0  0  0  0  0  0  0  0
  -26.4750  -15.7240   19.9010 H   0  0  0  0  0  0  0  0  0  0  0  0
  -28.8250  -25.9080   18.6820 C   0  0  0  0  0  2  0  0  0  0  0  0
  -28.5490  -26.6640   19.8820 O   0  0  0  0  0  0  0  0  0  0  0  0
  -24.6470  -31.7340   23.1230 C   0  0  0  0  0  0  0  0  0  0  0  0
  -27.3650  -27.3950   19.9130 C   0  0  0  0  0  0  0  0  0  0  0  0
  -23.4650  -30.3550   21.4480 C   0  0  0  0  0  3  0  0  0  0  0  0
  -24.9420  -28.8790   19.9870 C   0  0  0  0  0  0  0  0  0  0  0  0
  -25.9880  -30.7520   21.2610 C   0  0  0  0  0  2  0  0  0  0  0  0
  -26.0970  -29.3970   20.5860 C   0  0  0  0  0  0  0  0  0  0  0  0
  -27.3080  -28.6600   20.5540 C   0  0  0  0  0  3  0  0  0  0  0  0
  -26.1710  -26.8840   19.3510 C   0  0  0  0  0  3  0  0  0  0  0  0
  -24.9740  -27.6190   19.3720 C   0  0  0  0  0  3  0  0  0  0  0  0
  -23.6860  -29.7180   20.0520 C   0  0  0  0  0  2  0  0  0  0  0  0
  -24.7190  -30.9610   22.0030 N   0  0  0  0  0  0  0  0  0  0  0  0
  -23.5610  -31.9730   23.6700 O   0  0  0  0  0  0  0  0  0  0  0  0
  -22.8300  -29.2970   22.3800 C   0  0  0  0  0  0  0  0  0  0  0  0
  -21.5050  -29.1090   22.2610 N   0  0  0  0  0  0  0  0  0  0  0  0
  -23.5260  -28.6510   23.1680 O   0  0  0  0  0  0  0  0  0  0  0  0
  -21.0040  -29.6830   21.5980 H   0  0  0  0  0  0  0  0  0  0  0  0
  -18.1400  -27.8990   22.7800 C   0  0  0  0  0  0  0  0  0  0  0  0
  -20.7050  -28.1410   23.0080 C   0  0  0  0  0  3  0  0  0  0  0  0
  -20.7920  -26.7340   22.3710 C   0  0  0  0  0  2  0  0  0  0  0  0
  -19.6670  -26.4570   21.3680 C   0  0  0  0  0  2  0  0  0  0  0  0
  -18.2990  -26.5790   22.0460 C   0  0  0  0  0  2  0  0  0  0  0  0
  -19.2700  -28.6400   23.2180 C   0  0  0  0  0  0  0  0  0  0  0  0
  -19.0680  -29.8780   23.8660 C   0  0  0  0  0  3  0  0  0  0  0  0
  -17.7690  -30.3750   24.0800 C   0  0  0  0  0  3  0  0  0  0  0  0
  -16.6540  -29.6300   23.6590 C   0  0  0  0  0  3  0  0  0  0  0  0
  -16.8400  -28.3940   23.0140 C   0  0  0  0  0  3  0  0  0  0  0  0
  -25.9220  -32.3720   23.7580 C   0  0  0  0  0  3  0  0  0  0  0  0
  -26.4490  -31.5820   25.0190 C   0  0  1  0  0  0  0  0  0  0  0  0
  -25.3600  -31.3090   26.0820 C   0  0  0  0  0  1  0  0  0  0  0  0
  -27.0490  -30.2210   24.5970 C   0  0  0  0  0  1  0  0  0  0  0  0
  -27.5890  -32.3790   25.6970 C   0  0  0  0  0  1  0  0  0  0  0  0
  -25.5920  -33.7580   24.1150 N   0  0  0  0  0  0  0  0  0  0  0  0
  -25.9170  -34.8290   23.3780 C   0  0  0  0  0  0  0  0  0  0  0  0
  -26.5960  -34.7560   22.3500 O   0  0  0  0  0  0  0  0  0  0  0  0
  -24.9880  -33.8890   24.9130 H   0  0  0  0  0  0  0  0  0  0  0  0
  -24.1660  -36.6040   23.0450 C   0  0  0  0  0  1  0  0  0  0  0  0
  -25.4060  -36.2010   23.8580 C   0  0  0  0  0  3  0  0  0  0  0  0
  -27.5200  -37.1000   24.7250 C   0  0  0  0  0  1  0  0  0  0  0  0
  -26.4230  -37.2710   23.7760 N   0  0  0  0  0  0  0  0  0  0  0  0
  -26.0010  -38.1810   23.9430 H   0  0  0  0  0  0  0  0  0  0  0  0
  1  2  1  0
  1  3  1  0
  2  5  1  0
  3  6  1  0
  5 54  1  0
  5  4  1  0
  6  4  1  0
  6  8  1  0
  6  7  1  6
 10  9  1  0
 11 13  1  0
 12  8  1  0
 12  9  2  0
 13 24  1  0
 13 10  2  0
 14 11  2  0
 14 12  1  0
 15 14  1  0
 16 24  1  0
 17 22  1  0
 18 19  1  0
 18 17  1  0
 20 19  1  0
 20 29  1  0
 20 21  1  0
 22 16  1  0
 22 21  1  0
 23 16  2  0
 24 25  1  0
 26 27  2  0
 27 46  1  0
 28 27  1  0
 28 31  1  0
 29 30  1  0
 29 26  1  0
 30 28  2  0
 31 32  1  0
 32 33  2  0
 34 37  1  0
 34 33  1  0
 35 34  2  0
 36 35  1  0
 36 31  2  0
 37 38  1  0
 38 43  2  0
 38 39  1  0
 39 40  2  0
 40 41  1  0
 41 45  1  0
 42 41  2  0
 43 42  1  0
 44 43  1  0
 46 47  1  0
 47 50  1  0
 47 49  1  0
 48 46  2  0
 51 52  1  0
 51 26  1  0
 53 51  1  0
 54 55  1  0
 55 57  1  0
 56 67  2  0
 57 62  1  0
 58 66  1  0
 58 68  1  0
 59 65  1  0
 59 61  1  0
 60 66  1  0
 61 60  1  0
 62 61  2  0
 63 64  1  0
 63 57  2  0
 64 59  2  0
 65 58  1  0
 66 56  1  0
 68 70  2  0
 69 68  1  0
 71 69  1  0
 72 81  2  0
 72 77  1  0
 73 69  1  0
 73 77  1  0
 74 73  1  0
 75 76  1  0
 75 74  1  0
 76 72  1  0
 77 78  2  0
 78 79  1  0
 80 79  2  0
 81 80  1  0
 82 56  1  0
 82 87  1  0
 82 83  1  0
 83 86  1  1
 83 84  1  0
 85 83  1  0
 87 90  1  0
 88 92  1  0
 88 87  1  0
 89 88  2  0
 92 91  1  0
 94 92  1  0
 94 95  1  0
 94 93  1  0
M  ISO  4  16 100  24 100  54 101  55 101
M  END
>  <TORSDO>  (13) 
F 19

>  <SCORE>  (13) 
-14.118

>  <name>  (13) 
12

>  <ligand_id>  (13) 
12

>  <original_smiles>  (13) 
[H]c1c([H])c([H])c2c(c1[H])C([H])([H])C([H])([H])C([H])([H])C2([H])N([H])C(=O)C1([H])N(C(=O)C([H])(N([H])C(=O)C([H])(N([H])C([H])([H])[H])C([H])([H])[H])C(C([H])([H])[H])(C([H])([H])[H])C([H])([H])[H])C([H])([H])c2c([H])c(OC([H])([H])C3([H])C([H])([H])C([H])([H])C([H])([H])[N+]([H])(C([H])([H])c4c([H])c([H])c(N([H])C(=O)N5C([H])([H])C([H])([H])C([H])([H])C([H])(n6nc(-c7c([H])c([H])c(Oc8c([H])c([H])c(F)c([H])c8F)c([H])c7[H])c(C(=O)N([H])[H])c6N([H])[H])C5([H])[H])c([H])c4Cl)C3([H])[H])c([H])c([H])c2C1([H])[H]

>  <smiles>  (13) 
[H]c1c([H])c([H])c2c(c1[H])C([H])([H])C([H])([H])C([H])([H])C2([H])N([H])C(=O)C1([H])N(C(=O)C([H])(N([H])C(=O)C([H])(N([H])C([H])([H])[H])C([H])([H])[H])C(C([H])([H])[H])(C([H])([H])[H])C([H])([H])[H])C([H])([H])c2c([H])c(OC([H])([H])C3([H])C([H])([H])C([H])([H])C([H])([H])[N+]([H])(C([H])([H])c4c([H])c([H])c(N([H])C(=O)N5C([H])([H])C([H])([H])C([H])([H])C([H])(n6nc(-c7c([H])c([H])c(Oc8c([H])c([H])c(F)c([H])c8F)c([H])c7[H])c(C(=O)N([H])[H])c6N([H])[H])C5([H])[H])c([H])c4Cl)C3([H])[H])c([H])c([H])c2C1([H])[H]

$$$$
13:0:0
     RDKit          3D

 92 97  0  0  1  0  0  0  0  0999 V2000
  -30.5270  -16.2230   20.4850 C   0  0  0  0  0  0  0  0  0  0  0  0
  -30.6410  -13.6780   19.4300 C   0  0  0  0  0  2  0  0  0  0  0  0
  -29.7890  -13.1540   18.2300 C   0  0  0  0  0  2  0  0  0  0  0  0
  -28.3900  -12.7110   18.6800 C   0  0  0  0  0  2  0  0  0  0  0  0
  -27.8330  -13.6720   19.7490 C   0  0  0  0  0  3  0  0  0  0  0  0
  -28.8560  -14.0790   20.8460 C   0  0  0  0  0  2  0  0  0  0  0  0
  -29.9530  -14.8600   20.1740 N   0  0  0  0  0  0  0  0  0  0  0  0
  -31.7500  -15.9550   20.5880 O   0  0  0  0  0  0  0  0  0  0  0  0
  -30.0090  -17.7890   20.2670 N   0  0  0  0  0  0  0  0  0  0  0  0
  -31.3450  -17.8140   16.7470 C   0  0  0  0  0  3  0  0  0  0  0  0
  -30.3660  -18.5590   16.0750 C   0  0  0  0  0  3  0  0  0  0  0  0
  -31.2190  -17.5810   18.1260 C   0  0  0  0  0  3  0  0  0  0  0  0
  -29.2650  -19.0670   16.7840 C   0  0  0  0  0  3  0  0  0  0  0  0
  -30.0900  -18.0410   18.8560 C   0  0  0  0  0  0  0  0  0  0  0  0
  -29.1120  -18.8210   18.1700 C   0  0  0  0  0  0  0  0  0  0  0  0
  -27.1320  -20.2710   18.1130 C   0  0  0  0  0  1  0  0  0  0  0  0
  -27.9650  -19.3010   18.8210 N   0  0  0  0  0  0  0  0  0  0  0  0
  -26.8500  -17.0520   18.8230 C   0  0  0  0  0  1  0  0  0  0  0  0
  -27.2980  -18.2890   19.6200 C   0  0  0  0  0  2  0  0  0  0  0  0
  -25.4510  -14.1410   20.4980 C   0  0  0  0  0  0  0  0  0  0  0  0
  -24.3800  -13.3510   20.7780 C   0  0  0  0  0  0  0  0  0  0  0  0
  -24.8690  -12.0100   20.7480 C   0  0  0  0  0  0  0  0  0  0  0  0
  -26.5160  -13.2950   20.2560 N   0  0  0  0  0  0  0  0  0  0  0  0
  -26.1760  -11.9960   20.4800 N   0  0  0  0  0  0  0  0  0  0  0  0
  -24.1450  -10.7450   20.9100 C   0  0  0  0  0  0  0  0  0  0  0  0
  -24.5530   -9.7770   21.8550 C   0  0  0  0  0  3  0  0  0  0  0  0
  -23.8200   -8.5810   22.0130 C   0  0  0  0  0  3  0  0  0  0  0  0
  -22.6650   -8.3460   21.2290 C   0  0  0  0  0  0  0  0  0  0  0  0
  -22.2720   -9.3070   20.2780 C   0  0  0  0  0  3  0  0  0  0  0  0
  -23.0080  -10.4930   20.1170 C   0  0  0  0  0  3  0  0  0  0  0  0
  -21.9070   -7.2030   21.2940 O   0  0  0  0  0  0  0  0  0  0  0  0
  -21.8550   -6.4390   22.4330 C   0  0  0  0  0  0  0  0  0  0  0  0
  -21.4390   -6.9730   23.6700 C   0  0  0  0  0  3  0  0  0  0  0  0
  -21.3330   -6.1350   24.7990 C   0  0  0  0  0  3  0  0  0  0  0  0
  -21.6350   -4.7650   24.6910 C   0  0  0  0  0  0  0  0  0  0  0  0
  -22.0450   -4.2290   23.4560 C   0  0  0  0  0  3  0  0  0  0  0  0
  -22.1520   -5.0650   22.3300 C   0  0  0  0  0  0  0  0  0  0  0  0
  -22.5280   -4.5390   21.1390 F   0  0  0  0  0  0  0  0  0  0  0  0
  -21.5230   -3.9570   25.7720 F   0  0  0  0  0  0  0  0  0  0  0  0
  -22.9680  -13.8230   20.9780 C   0  0  0  0  0  0  0  0  0  0  0  0
  -22.2080  -13.1410   21.8260 N   0  0  0  0  0  0  0  0  0  0  0  0
  -22.5490  -14.8360   20.4190 O   0  0  0  0  0  0  0  0  0  0  0  0
  -22.5610  -12.3290   22.3090 H   0  0  0  0  0  0  0  0  0  0  0  0
  -21.2580  -13.4360   21.9980 H   0  0  0  0  0  0  0  0  0  0  0  0
  -25.5970  -15.5140   20.4270 N   0  0  0  0  0  0  0  0  0  0  0  0
  -24.8350  -16.1260   20.6950 H   0  0  0  0  0  0  0  0  0  0  0  0
  -26.5020  -15.9590   20.4600 H   0  0  0  0  0  0  0  0  0  0  0  0
  -29.6530  -19.5130   21.0040 C   0  0  0  0  0  1  0  0  0  0  0  0
  -29.5220  -21.5820   20.6320 C   0  0  0  0  0  1  0  0  0  0  0  0
  -30.8160  -21.8930   20.7230 F   0  0  0  0  0  0  0  0  0  0  0  0
  -28.6590  -23.4490   21.1110 C   0  0  0  0  0 15  0  0  0  0  0  0
  -28.6560  -25.3440   21.0060 O   0  0  0  0  0  1  0  0  0  0  0  0
  -24.8390  -32.0170   23.3930 C   0  0  0  0  0  0  0  0  0  0  0  0
  -27.6560  -26.6270   20.9050 C   0  0  0  0  0  0  0  0  0  0  0  0
  -23.7950  -30.4870   21.7830 C   0  0  0  0  0  3  0  0  0  0  0  0
  -25.3650  -28.7460   20.5870 C   0  0  0  0  0  0  0  0  0  0  0  0
  -26.3840  -30.6220   21.8360 C   0  0  0  0  0  2  0  0  0  0  0  0
  -26.5200  -29.1280   21.2770 C   0  0  0  0  0  0  0  0  0  0  0  0
  -27.6420  -28.1040   21.3850 C   0  0  0  0  0  3  0  0  0  0  0  0
  -26.4510  -26.5120   20.1450 C   0  0  0  0  0  3  0  0  0  0  0  0
  -25.3860  -27.4680   19.9980 C   0  0  0  0  0  3  0  0  0  0  0  0
  -24.1450  -29.6940   20.4880 C   0  0  0  0  0  2  0  0  0  0  0  0
  -25.0310  -31.0840   22.3900 N   0  0  0  0  0  0  0  0  0  0  0  0
  -23.7070  -32.3290   23.8060 O   0  0  0  0  0  0  0  0  0  0  0  0
  -23.0150  -29.5750   22.7720 C   0  0  0  0  0  0  0  0  0  0  0  0
  -21.6960  -29.3850   22.5690 N   0  0  0  0  0  0  0  0  0  0  0  0
  -23.6180  -29.0270   23.6970 O   0  0  0  0  0  0  0  0  0  0  0  0
  -21.2560  -29.8680   21.7960 H   0  0  0  0  0  0  0  0  0  0  0  0
  -18.3090  -28.1030   22.9370 C   0  0  0  0  0  0  0  0  0  0  0  0
  -20.8370  -28.4780   23.3450 C   0  0  0  0  0  3  0  0  0  0  0  0
  -21.0180  -27.0140   22.8790 C   0  0  0  0  0  2  0  0  0  0  0  0
  -19.9990  -26.5900   21.8170 C   0  0  0  0  0  2  0  0  0  0  0  0
  -18.5720  -26.7240   22.3580 C   0  0  0  0  0  2  0  0  0  0  0  0
  -19.3710  -28.9340   23.3850 C   0  0  0  0  0  0  0  0  0  0  0  0
  -19.0690  -30.2170   23.8890 C   0  0  0  0  0  3  0  0  0  0  0  0
  -17.7380  -30.6730   23.9480 C   0  0  0  0  0  3  0  0  0  0  0  0
  -16.6900  -29.8420   23.5140 C   0  0  0  0  0  3  0  0  0  0  0  0
  -16.9760  -28.5600   23.0150 C   0  0  0  0  0  3  0  0  0  0  0  0
  -26.0330  -32.7470   24.0770 C   0  0  0  0  0  3  0  0  0  0  0  0
  -25.6530  -34.1590   24.3070 N   0  0  0  0  0  0  0  0  0  0  0  0
  -26.0060  -35.1950   23.5310 C   0  0  0  0  0  0  0  0  0  0  0  0
  -26.7370  -35.0650   22.5470 O   0  0  0  0  0  0  0  0  0  0  0  0
  -25.0060  -34.3290   25.0620 H   0  0  0  0  0  0  0  0  0  0  0  0
  -24.2580  -36.9370   23.0210 C   0  0  0  0  0  1  0  0  0  0  0  0
  -25.4700  -36.5940   23.9020 C   0  0  0  0  0  3  0  0  0  0  0  0
  -27.5450  -37.5730   24.7840 C   0  0  0  0  0  1  0  0  0  0  0  0
  -26.4850  -37.6680   23.7850 N   0  0  0  0  0  0  0  0  0  0  0  0
  -26.0500  -38.5840   23.8700 H   0  0  0  0  0  0  0  0  0  0  0  0
  -26.4550  -32.0860   25.4500 C   0  0  1  0  0  0  0  0  0  0  0  0
  -25.2730  -31.8600   26.4230 C   0  0  0  0  0  1  0  0  0  0  0  0
  -27.1340  -30.7180   25.2240 C   0  0  0  0  0  1  0  0  0  0  0  0
  -27.5020  -32.9760   26.1610 C   0  0  0  0  0  1  0  0  0  0  0  0
  1  8  2  0
  2  7  1  0
  3  4  1  0
  3  2  1  0
  5  4  1  0
  5 23  1  0
  5  6  1  0
  7  1  1  0
  7  6  1  0
  9  1  1  0
  9 48  1  0
 10 12  1  0
 11 10  2  0
 11 13  1  0
 12 14  2  0
 13 15  2  0
 14  9  1  0
 15 17  1  0
 15 14  1  0
 16 17  1  0
 17 19  1  0
 18 19  1  0
 20 21  2  0
 21 40  1  0
 22 21  1  0
 22 25  1  0
 23 24  1  0
 23 20  1  0
 24 22  2  0
 25 26  1  0
 26 27  2  0
 28 31  1  0
 28 27  1  0
 29 28  2  0
 30 29  1  0
 30 25  2  0
 31 32  1  0
 32 33  1  0
 33 34  2  0
 35 34  1  0
 35 39  1  0
 36 35  2  0
 37 32  2  0
 37 36  1  0
 38 37  1  0
 40 41  1  0
 41 44  1  0
 41 43  1  0
 42 40  2  0
 45 47  1  0
 45 20  1  0
 45 46  1  0
 49 50  1  0
 53 64  2  0
 54 52  1  0
 54 59  1  0
 55 63  1  0
 55 65  1  0
 56 58  1  0
 57 63  1  0
 58 59  2  0
 58 57  1  0
 60 54  2  0
 61 60  1  0
 61 56  2  0
 62 56  1  0
 62 55  1  0
 63 53  1  0
 65 67  2  0
 66 65  1  0
 68 66  1  0
 69 78  2  0
 69 74  1  0
 70 66  1  0
 70 74  1  0
 71 70  1  0
 72 73  1  0
 72 71  1  0
 73 69  1  0
 74 75  2  0
 75 76  1  0
 77 76  2  0
 78 77  1  0
 79 53  1  0
 79 80  1  0
 79 89  1  0
 80 83  1  0
 81 85  1  0
 81 80  1  0
 82 81  2  0
 85 84  1  0
 87 88  1  0
 87 85  1  0
 87 86  1  0
 89 92  1  1
 89 90  1  0
 91 89  1  0
M  ISO  4   1 100   9 100  51 101  52 101
M  END
>  <TORSDO>  (14) 
F 21

>  <SCORE>  (14) 
-14.404

>  <name>  (14) 
13

>  <ligand_id>  (14) 
13

>  <original_smiles>  (14) 
[H]c1c([H])c([H])c(N(C(=O)N2C([H])([H])C([H])([H])C([H])([H])C([H])(n3nc(-c4c([H])c([H])c(Oc5c([H])c([H])c(F)c([H])c5F)c([H])c4[H])c(C(=O)N([H])[H])c3N([H])[H])C2([H])[H])C([H])([H])C([H])(F)C([H])([H])Oc2c([H])c([H])c3c(c2[H])C([H])([H])N(C(=O)C([H])(N([H])C(=O)C([H])(N([H])C([H])([H])[H])C([H])([H])[H])C(C([H])([H])[H])(C([H])([H])[H])C([H])([H])[H])C([H])(C(=O)N([H])C2([H])c4c([H])c([H])c([H])c([H])c4C([H])([H])C([H])([H])C2([H])[H])C3([H])[H])c(N(C([H])([H])[H])C([H])([H])C([H])([H])[H])c1[H]

>  <smiles>  (14) 
[H]c1c([H])c([H])c(N(C(=O)N2C([H])([H])C([H])([H])C([H])([H])C([H])(n3nc(-c4c([H])c([H])c(Oc5c([H])c([H])c(F)c([H])c5F)c([H])c4[H])c(C(=O)N([H])[H])c3N([H])[H])C2([H])[H])C([H])([H])C([H])(F)C([H])([H])Oc2c([H])c([H])c3c(c2[H])C([H])([H])N(C(=O)C([H])(N([H])C(=O)C([H])(N([H])C([H])([H])[H])C([H])([H])[H])C(C([H])([H])[H])(C([H])([H])[H])C([H])([H])[H])C([H])(C(=O)N([H])C2([H])c4c([H])c([H])c([H])c([H])c4C([H])([H])C([H])([H])C2([H])[H])C3([H])[H])c(N(C([H])([H])[H])C([H])([H])C([H])([H])[H])c1[H]

$$$$
14:0:0
     RDKit          3D

 92101  0  0  1  0  0  0  0  0999 V2000
  -31.4150  -14.9380   19.2810 C   0  0  0  0  0  0  0  0  0  0  0  0
  -31.0820  -12.6060   18.3070 C   0  0  0  0  0  2  0  0  0  0  0  0
  -29.9720  -12.5880   17.2280 C   0  0  0  0  0  2  0  0  0  0  0  0
  -28.5840  -12.4040   17.8670 C   0  0  0  0  0  2  0  0  0  0  0  0
  -28.3800  -13.3310   19.0900 C   0  0  0  0  0  3  0  0  0  0  0  0
  -29.5840  -13.2810   20.0480 C   0  0  0  0  0  2  0  0  0  0  0  0
  -30.7790  -13.6890   19.2920 N   0  0  0  0  0  0  0  0  0  0  0  0
  -32.4360  -15.0400   18.5890 O   0  0  0  0  0  0  0  0  0  0  0  0
  -30.5950  -18.2820   18.6210 C   0  0  0  0  0  3  0  0  0  0  0  0
  -30.3110  -19.7230   18.5210 C   0  0  0  0  0  3  0  0  0  0  0  0
  -30.2100  -19.8480   20.8560 C   0  0  0  0  0  3  0  0  0  0  0  0
  -30.5110  -18.4400   20.9700 C   0  0  0  0  0  0  0  0  0  0  0  0
  -30.7100  -17.5370   19.8570 C   0  0  0  0  0  0  0  0  0  0  0  0
  -30.0790  -20.5930   19.6500 C   0  0  0  0  0  0  0  0  0  0  0  0
  -30.6290  -17.9420   22.3990 C   0  0  0  0  0  2  0  0  0  0  0  0
  -31.3130  -15.6950   21.5010 C   0  0  0  0  0  2  0  0  0  0  0  0
  -30.4700  -16.4370   22.5420 C   0  0  0  0  0  3  0  0  0  0  0  0
  -30.9760  -16.0220   20.0950 N   0  0  0  0  0  0  0  0  0  0  0  0
  -28.7440  -16.0010   22.4130 Cl  0  0  0  0  0  0  0  0  0  0  0  0
  -26.1880  -13.9720   20.2510 C   0  0  0  0  0  0  0  0  0  0  0  0
  -25.1540  -13.2240   20.7450 C   0  0  0  0  0  0  0  0  0  0  0  0
  -25.5240  -11.8590   20.5450 C   0  0  0  0  0  0  0  0  0  0  0  0
  -27.1220  -13.0650   19.7810 N   0  0  0  0  0  0  0  0  0  0  0  0
  -26.7410  -11.7820   20.0180 N   0  0  0  0  0  0  0  0  0  0  0  0
  -24.7630  -10.6230   20.7680 C   0  0  0  0  0  0  0  0  0  0  0  0
  -25.1910   -9.6460   21.6940 C   0  0  0  0  0  3  0  0  0  0  0  0
  -24.4290   -8.4760   21.9040 C   0  0  0  0  0  3  0  0  0  0  0  0
  -23.2240   -8.2750   21.1900 C   0  0  0  0  0  0  0  0  0  0  0  0
  -22.8140   -9.2390   20.2530 C   0  0  0  0  0  3  0  0  0  0  0  0
  -23.5770  -10.4010   20.0410 C   0  0  0  0  0  3  0  0  0  0  0  0
  -22.4340   -7.1580   21.3090 O   0  0  0  0  0  0  0  0  0  0  0  0
  -22.2380   -6.5410   22.5200 C   0  0  0  0  0  0  0  0  0  0  0  0
  -21.6500   -7.2160   23.6120 C   0  0  0  0  0  3  0  0  0  0  0  0
  -21.4020   -6.5250   24.8160 C   0  0  0  0  0  3  0  0  0  0  0  0
  -21.7320   -5.1600   24.9250 C   0  0  0  0  0  0  0  0  0  0  0  0
  -22.3130   -4.4860   23.8370 C   0  0  0  0  0  3  0  0  0  0  0  0
  -22.5610   -5.1750   22.6360 C   0  0  0  0  0  0  0  0  0  0  0  0
  -23.1010   -4.5160   21.5830 F   0  0  0  0  0  0  0  0  0  0  0  0
  -21.4880   -4.4930   26.0770 F   0  0  0  0  0  0  0  0  0  0  0  0
  -23.8550  -13.7470   21.2830 C   0  0  0  0  0  0  0  0  0  0  0  0
  -23.2560  -13.0400   22.2360 N   0  0  0  0  0  0  0  0  0  0  0  0
  -23.3850  -14.8150   20.8940 O   0  0  0  0  0  0  0  0  0  0  0  0
  -23.6530  -12.1740   22.5700 H   0  0  0  0  0  0  0  0  0  0  0  0
  -22.3920  -13.3700   22.6380 H   0  0  0  0  0  0  0  0  0  0  0  0
  -26.3990  -15.3420   20.1380 N   0  0  0  0  0  0  0  0  0  0  0  0
  -25.7300  -16.0230   20.4740 H   0  0  0  0  0  0  0  0  0  0  0  0
  -27.2580  -15.7610   19.8010 H   0  0  0  0  0  0  0  0  0  0  0  0
  -29.6740  -22.0230   19.7560 N   0  0  0  0  0  0  0  0  0  0  0  0
  -29.4840  -22.2660   20.7260 H   0  0  0  0  0  0  0  0  0  0  0  0
  -29.7130  -23.3310   18.9150 C   0  0  0  0  0  3  0  0  0  0  0  0
  -28.7210  -24.6380   19.3200 C   0  0  0  0  0  3  0  0  0  0  0  0
  -28.6940  -26.0880   18.7540 O   0  0  0  0  0  0  0  0  0  0  0  0
  -24.9280  -30.9620   22.8200 C   0  0  0  0  0  0  0  0  0  0  0  0
  -27.5660  -26.9600   18.9530 C   0  0  0  0  0  0  0  0  0  0  0  0
  -23.6950  -29.7240   21.0800 C   0  0  0  0  0  3  0  0  0  0  0  0
  -25.1250  -28.4890   19.3410 C   0  0  0  0  0  0  0  0  0  0  0  0
  -26.2010  -30.2160   20.7750 C   0  0  0  0  0  2  0  0  0  0  0  0
  -26.3170  -28.9420   19.9240 C   0  0  0  0  0  0  0  0  0  0  0  0
  -27.5370  -28.1970   19.7120 C   0  0  0  0  0  3  0  0  0  0  0  0
  -26.3410  -26.6110   18.3450 C   0  0  0  0  0  3  0  0  0  0  0  0
  -25.1480  -27.3390   18.5370 C   0  0  0  0  0  3  0  0  0  0  0  0
  -23.8480  -29.2700   19.6050 C   0  0  0  0  0  2  0  0  0  0  0  0
  -24.9650  -30.3160   21.6140 N   0  0  0  0  0  0  0  0  0  0  0  0
  -23.8720  -31.0800   23.4600 O   0  0  0  0  0  0  0  0  0  0  0  0
  -23.1680  -28.5390   21.9270 C   0  0  0  0  0  0  0  0  0  0  0  0
  -21.8590  -28.2460   21.8230 N   0  0  0  0  0  0  0  0  0  0  0  0
  -23.9370  -27.8920   22.6420 O   0  0  0  0  0  0  0  0  0  0  0  0
  -21.2880  -28.8280   21.2260 H   0  0  0  0  0  0  0  0  0  0  0  0
  -18.6450  -26.6350   22.2680 C   0  0  0  0  0  0  0  0  0  0  0  0
  -21.1720  -27.1390   22.4960 C   0  0  0  0  0  3  0  0  0  0  0  0
  -21.4000  -25.8060   21.7470 C   0  0  0  0  0  2  0  0  0  0  0  0
  -20.2970  -25.4890   20.7320 C   0  0  0  0  0  2  0  0  0  0  0  0
  -18.9350  -25.4040   21.4260 C   0  0  0  0  0  2  0  0  0  0  0  0
  -19.6950  -27.4580   22.7570 C   0  0  0  0  0  0  0  0  0  0  0  0
  -19.3670  -28.6080   23.5090 C   0  0  0  0  0  3  0  0  0  0  0  0
  -18.0250  -28.9390   23.7730 C   0  0  0  0  0  3  0  0  0  0  0  0
  -16.9910  -28.1120   23.2980 C   0  0  0  0  0  3  0  0  0  0  0  0
  -17.3030  -26.9620   22.5520 C   0  0  0  0  0  3  0  0  0  0  0  0
  -26.2080  -31.6000   23.4410 C   0  0  0  0  0  3  0  0  0  0  0  0
  -25.8320  -32.9110   23.9920 N   0  0  0  0  0  0  0  0  0  0  0  0
  -26.0780  -34.0880   23.4000 C   0  0  0  0  0  0  0  0  0  0  0  0
  -26.7140  -34.1850   22.3470 O   0  0  0  0  0  0  0  0  0  0  0  0
  -25.2600  -32.9040   24.8240 H   0  0  0  0  0  0  0  0  0  0  0  0
  -24.2580  -35.8260   23.3710 C   0  0  0  0  0  1  0  0  0  0  0  0
  -25.5370  -35.3580   24.0850 C   0  0  0  0  0  3  0  0  0  0  0  0
  -27.6420  -36.2120   25.0160 C   0  0  0  0  0  1  0  0  0  0  0  0
  -26.5140  -36.4690   24.1260 N   0  0  0  0  0  0  0  0  0  0  0  0
  -26.0670  -37.3330   24.4210 H   0  0  0  0  0  0  0  0  0  0  0  0
  -26.8660  -30.7020   24.5610 C   0  0  1  0  0  0  0  0  0  0  0  0
  -25.8750  -30.2480   25.6570 C   0  0  0  0  0  1  0  0  0  0  0  0
  -27.5020  -29.4330   23.9470 C   0  0  0  0  0  1  0  0  0  0  0  0
  -28.0140  -31.4790   25.2470 C   0  0  0  0  0  1  0  0  0  0  0  0
  1  7  1  0
  1 18  1  0
  2  7  1  0
  3  4  1  0
  3  2  1  0
  5  4  1  0
  5 23  1  0
  5  6  1  0
  7  6  1  0
  8  1  2  0
  9 13  1  0
 10  9  2  0
 10 14  1  0
 11 12  1  0
 12 15  1  0
 13 18  1  0
 13 12  2  0
 14 48  1  0
 14 11  2  0
 15 17  1  0
 16 17  1  0
 17 19  1  0
 18 16  1  0
 20 21  2  0
 21 40  1  0
 22 21  1  0
 22 25  1  0
 23 24  1  0
 23 20  1  0
 24 22  2  0
 25 26  1  0
 26 27  2  0
 28 31  1  0
 28 27  1  0
 29 28  2  0
 30 29  1  0
 30 25  2  0
 31 32  1  0
 32 37  2  0
 32 33  1  0
 33 34  2  0
 34 35  1  0
 35 39  1  0
 36 35  2  0
 37 36  1  0
 38 37  1  0
 40 41  1  0
 41 43  1  0
 41 44  1  0
 42 40  2  0
 45 20  1  0
 45 46  1  0
 47 45  1  0
 48 49  1  0
 50 51  2  0
 50 48  1  0
 52 54  1  0
 52 51  1  0
 53 64  2  0
 54 59  1  0
 55 63  1  0
 55 65  1  0
 56 62  1  0
 56 58  1  0
 57 63  1  0
 58 57  1  0
 59 58  2  0
 60 61  1  0
 60 54  2  0
 61 56  2  0
 62 55  1  0
 63 53  1  0
 65 67  2  0
 66 65  1  0
 68 66  1  0
 69 78  2  0
 69 74  1  0
 70 66  1  0
 70 74  1  0
 71 70  1  0
 72 73  1  0
 72 71  1  0
 73 69  1  0
 74 75  2  0
 75 76  1  0
 77 76  2  0
 78 77  1  0
 79 53  1  0
 79 80  1  0
 79 89  1  0
 80 83  1  0
 81 80  1  0
 81 85  1  0
 82 81  2  0
 85 84  1  0
 85 87  1  0
 87 88  1  0
 87 86  1  0
 89 92  1  1
 89 90  1  0
 91 89  1  0
M  ISO  4   1 100  18 100  51 101  52 101
M  END
>  <TORSDO>  (15) 
F 18

>  <SCORE>  (15) 
-7.126

>  <name>  (15) 
14

>  <ligand_id>  (15) 
14

>  <original_smiles>  (15) 
[H]c1c([H])c([H])c2c(c1[H])C([H])([H])C([H])([H])C([H])([H])C2([H])N([H])C(=O)C1([H])N(C(=O)C([H])(N([H])C(=O)C([H])(N([H])C([H])([H])[H])C([H])([H])[H])C(C([H])([H])[H])(C([H])([H])[H])C([H])([H])[H])C([H])([H])c2c([H])c(OC([H])([H])C([H])([H])N([H])c3c([H])c([H])c4c(c3[H])C([H])([H])C([H])(Cl)C([H])([H])N4C(=O)N3C([H])([H])C([H])([H])C([H])([H])C([H])(n4nc(-c5c([H])c([H])c(Oc6c([H])c([H])c(F)c([H])c6F)c([H])c5[H])c(C(=O)N([H])[H])c4N([H])[H])C3([H])[H])c([H])c([H])c2C1([H])[H]

>  <smiles>  (15) 
[H]c1c([H])c([H])c2c(c1[H])C([H])([H])C([H])([H])C([H])([H])C2([H])N([H])C(=O)C1([H])N(C(=O)C([H])(N([H])C(=O)C([H])(N([H])C([H])([H])[H])C([H])([H])[H])C(C([H])([H])[H])(C([H])([H])[H])C([H])([H])[H])C([H])([H])c2c([H])c(OC([H])([H])C([H])([H])N([H])c3c([H])c([H])c4c(c3[H])C([H])([H])C([H])(Cl)C([H])([H])N4C(=O)N3C([H])([H])C([H])([H])C([H])([H])C([H])(n4nc(-c5c([H])c([H])c(Oc6c([H])c([H])c(F)c([H])c6F)c([H])c5[H])c(C(=O)N([H])[H])c4N([H])[H])C3([H])[H])c([H])c([H])c2C1([H])[H]

$$$$
15:0:0
     RDKit          3D

 94103  0  0  1  0  0  0  0  0999 V2000
  -30.2040  -22.1660   21.1020 N   0  0  0  0  0  0  0  0  0  0  0  0
  -31.1400  -22.5450   21.2140 H   0  0  0  0  0  0  0  0  0  0  0  0
  -28.8480  -18.6460   20.9650 C   0  0  0  0  0  3  0  0  0  0  0  0
  -28.8950  -20.0570   20.8690 C   0  0  0  0  0  3  0  0  0  0  0  0
  -31.1830  -18.6050   21.6260 C   0  0  0  0  0  3  0  0  0  0  0  0
  -29.9910  -17.9050   21.3430 C   0  0  0  0  0  0  0  0  0  0  0  0
  -30.0890  -20.7590   21.1580 C   0  0  0  0  0  0  0  0  0  0  0  0
  -31.2310  -20.0140   21.5390 C   0  0  0  0  0  0  0  0  0  0  0  0
  -32.3870  -20.6630   21.8230 F   0  0  0  0  0  0  0  0  0  0  0  0
  -29.9400  -16.3710   21.4240 C   0  0  0  0  0  2  0  0  0  0  0  0
  -30.9600  -14.5470   20.0910 C   0  0  0  0  0  0  0  0  0  0  0  0
  -30.6150  -12.3960   18.9470 C   0  0  0  0  0  2  0  0  0  0  0  0
  -29.6490  -12.6320   17.7680 C   0  0  0  0  0  2  0  0  0  0  0  0
  -28.1820  -12.5200   18.2280 C   0  0  0  0  0  2  0  0  0  0  0  0
  -27.8840  -13.3370   19.5150 C   0  0  0  0  0  3  0  0  0  0  0  0
  -28.9650  -13.0910   20.5930 C   0  0  0  0  0  2  0  0  0  0  0  0
  -30.2750  -13.3760   19.9900 N   0  0  0  0  0  0  0  0  0  0  0  0
  -32.1270  -14.6720   19.7040 O   0  0  0  0  0  0  0  0  0  0  0  0
  -30.0230  -16.4410   18.9290 C   0  0  0  0  0  1  0  0  0  0  0  0
  -30.1680  -15.6460   20.1570 N   0  0  0  0  0  0  0  0  0  0  0  0
  -25.5050  -13.9620   20.2670 C   0  0  0  0  0  0  0  0  0  0  0  0
  -24.4390  -13.1970   20.6540 C   0  0  0  0  0  0  0  0  0  0  0  0
  -24.8910  -11.8420   20.6220 C   0  0  0  0  0  0  0  0  0  0  0  0
  -26.5410  -13.0730   20.0210 N   0  0  0  0  0  0  0  0  0  0  0  0
  -26.1750  -11.7950   20.2930 N   0  0  0  0  0  0  0  0  0  0  0  0
  -24.1620  -10.5850   20.8290 C   0  0  0  0  0  0  0  0  0  0  0  0
  -24.5680   -9.6490   21.8050 C   0  0  0  0  0  3  0  0  0  0  0  0
  -23.8400   -8.4550   21.9980 C   0  0  0  0  0  3  0  0  0  0  0  0
  -22.6940   -8.1880   21.2130 C   0  0  0  0  0  0  0  0  0  0  0  0
  -22.3070   -9.1130   20.2270 C   0  0  0  0  0  3  0  0  0  0  0  0
  -23.0350  -10.2980   20.0320 C   0  0  0  0  0  3  0  0  0  0  0  0
  -21.9390   -7.0440   21.3130 O   0  0  0  0  0  0  0  0  0  0  0  0
  -21.7990   -6.3760   22.5040 C   0  0  0  0  0  0  0  0  0  0  0  0
  -21.2630   -7.0020   23.6500 C   0  0  0  0  0  3  0  0  0  0  0  0
  -21.0710   -6.2590   24.8320 C   0  0  0  0  0  3  0  0  0  0  0  0
  -21.4050   -4.8920   24.8670 C   0  0  0  0  0  0  0  0  0  0  0  0
  -21.9340   -4.2670   23.7250 C   0  0  0  0  0  3  0  0  0  0  0  0
  -22.1280   -5.0060   22.5460 C   0  0  0  0  0  0  0  0  0  0  0  0
  -22.6180   -4.3930   21.4410 F   0  0  0  0  0  0  0  0  0  0  0  0
  -21.2140   -4.1760   26.0000 F   0  0  0  0  0  0  0  0  0  0  0  0
  -23.0480  -13.6820   20.9490 C   0  0  0  0  0  0  0  0  0  0  0  0
  -22.3370  -12.9990   21.8400 N   0  0  0  0  0  0  0  0  0  0  0  0
  -22.6020  -14.7020   20.4250 O   0  0  0  0  0  0  0  0  0  0  0  0
  -22.7090  -12.1720   22.2820 H   0  0  0  0  0  0  0  0  0  0  0  0
  -21.4060  -13.3070   22.0810 H   0  0  0  0  0  0  0  0  0  0  0  0
  -25.6780  -15.3320   20.0840 N   0  0  0  0  0  0  0  0  0  0  0  0
  -24.9260  -15.9990   20.2150 H   0  0  0  0  0  0  0  0  0  0  0  0
  -26.5390  -15.7590   19.7670 H   0  0  0  0  0  0  0  0  0  0  0  0
  -29.0310  -23.0790   19.0700 C   0  0  0  0  0  2  0  0  0  0  0  0
  -28.5810  -24.5090   18.7010 C   0  0  0  0  0  2  0  0  0  0  0  0
  -29.3180  -24.5330   20.9790 C   0  0  0  0  0  2  0  0  0  0  0  0
  -29.1450  -23.0480   20.6040 C   0  0  0  0  0  3  0  0  0  0  0  0
  -28.3300  -25.2320   20.0340 C   0  0  0  0  0  3  0  0  0  0  0  0
  -28.4600  -26.6700   19.9680 O   0  0  0  0  0  0  0  0  0  0  0  0
  -24.5220  -31.7450   23.0520 C   0  0  0  0  0  0  0  0  0  0  0  0
  -27.2830  -27.4000   19.9250 C   0  0  0  0  0  0  0  0  0  0  0  0
  -23.3610  -30.3440   21.3800 C   0  0  0  0  0  3  0  0  0  0  0  0
  -24.8580  -28.8680   19.9370 C   0  0  0  0  0  0  0  0  0  0  0  0
  -25.8810  -30.7600   21.2060 C   0  0  0  0  0  2  0  0  0  0  0  0
  -26.0020  -29.4030   20.5420 C   0  0  0  0  0  0  0  0  0  0  0  0
  -27.2200  -28.6790   20.5280 C   0  0  0  0  0  3  0  0  0  0  0  0
  -26.1180  -26.8930   19.3030 C   0  0  0  0  0  3  0  0  0  0  0  0
  -24.9120  -27.6130   19.3120 C   0  0  0  0  0  3  0  0  0  0  0  0
  -23.5930  -29.6950   19.9910 C   0  0  0  0  0  2  0  0  0  0  0  0
  -24.6050  -30.9640   21.9390 N   0  0  0  0  0  0  0  0  0  0  0  0
  -23.4300  -31.9840   23.5880 O   0  0  0  0  0  0  0  0  0  0  0  0
  -22.7270  -29.2900   22.3180 C   0  0  0  0  0  0  0  0  0  0  0  0
  -21.4040  -29.0970   22.1940 N   0  0  0  0  0  0  0  0  0  0  0  0
  -23.4220  -28.6520   23.1140 O   0  0  0  0  0  0  0  0  0  0  0  0
  -20.9040  -29.6660   21.5250 H   0  0  0  0  0  0  0  0  0  0  0  0
  -18.0400  -27.8760   22.7010 C   0  0  0  0  0  0  0  0  0  0  0  0
  -20.6010  -28.1320   22.9450 C   0  0  0  0  0  3  0  0  0  0  0  0
  -20.6980  -26.7200   22.3220 C   0  0  0  0  0  2  0  0  0  0  0  0
  -19.5830  -26.4280   21.3120 C   0  0  0  0  0  2  0  0  0  0  0  0
  -18.2100  -26.5490   21.9800 C   0  0  0  0  0  2  0  0  0  0  0  0
  -19.1630  -28.6260   23.1410 C   0  0  0  0  0  0  0  0  0  0  0  0
  -18.9510  -29.8710   23.7730 C   0  0  0  0  0  3  0  0  0  0  0  0
  -17.6470  -30.3640   23.9740 C   0  0  0  0  0  3  0  0  0  0  0  0
  -16.5390  -29.6090   23.5530 C   0  0  0  0  0  3  0  0  0  0  0  0
  -16.7360  -28.3670   22.9220 C   0  0  0  0  0  3  0  0  0  0  0  0
  -25.7890  -32.3950   23.6910 C   0  0  0  0  0  3  0  0  0  0  0  0
  -26.3260  -31.6070   24.9480 C   0  0  1  0  0  0  0  0  0  0  0  0
  -25.2390  -31.3090   26.0070 C   0  0  0  0  0  1  0  0  0  0  0  0
  -26.9480  -30.2570   24.5190 C   0  0  0  0  0  1  0  0  0  0  0  0
  -27.4530  -32.4150   25.6310 C   0  0  0  0  0  1  0  0  0  0  0  0
  -25.4420  -33.7760   24.0530 N   0  0  0  0  0  0  0  0  0  0  0  0
  -25.7590  -34.8560   23.3260 C   0  0  0  0  0  0  0  0  0  0  0  0
  -26.4460  -34.7970   22.3030 O   0  0  0  0  0  0  0  0  0  0  0  0
  -24.8340  -33.8950   24.8500 H   0  0  0  0  0  0  0  0  0  0  0  0
  -24.0000  -36.6190   22.9770 C   0  0  0  0  0  1  0  0  0  0  0  0
  -25.2280  -36.2170   23.8110 C   0  0  0  0  0  3  0  0  0  0  0  0
  -27.3210  -37.1210   24.7250 C   0  0  0  0  0  1  0  0  0  0  0  0
  -26.2380  -37.2980   23.7620 N   0  0  0  0  0  0  0  0  0  0  0  0
  -25.8050  -38.2010   23.9370 H   0  0  0  0  0  0  0  0  0  0  0  0
  1  7  1  0
  1  2  1  0
  3  6  1  0
  4  3  2  0
  4  7  1  0
  6 10  1  0
  6  5  2  0
  7  8  2  0
  8  5  1  0
  8  9  1  0
 11 20  1  0
 12 17  1  0
 13 14  1  0
 13 12  1  0
 15 14  1  0
 15 24  1  0
 15 16  1  0
 17 11  1  0
 17 16  1  0
 18 11  2  0
 19 20  1  0
 20 10  1  0
 21 22  2  0
 22 41  1  0
 23 22  1  0
 23 26  1  0
 24 21  1  0
 24 25  1  0
 25 23  2  0
 26 27  1  0
 27 28  2  0
 29 32  1  0
 29 28  1  0
 30 29  2  0
 31 30  1  0
 31 26  2  0
 32 33  1  0
 33 38  2  0
 33 34  1  0
 34 35  2  0
 35 36  1  0
 36 40  1  0
 37 36  2  0
 38 37  1  0
 39 38  1  0
 41 42  1  0
 42 45  1  0
 42 44  1  0
 43 41  2  0
 46 47  1  0
 46 21  1  0
 48 46  1  0
 49 52  1  0
 50 49  1  0
 50 53  1  0
 52 51  1  0
 52  1  1  0
 53 54  1  0
 53 51  1  0
 55 66  2  0
 56 54  1  0
 56 61  1  0
 57 65  1  0
 57 67  1  0
 58 64  1  0
 58 60  1  0
 59 65  1  0
 60 59  1  0
 61 60  2  0
 62 63  1  0
 62 56  2  0
 63 58  2  0
 64 57  1  0
 65 55  1  0
 67 69  2  0
 68 67  1  0
 70 68  1  0
 71 80  2  0
 71 76  1  0
 72 68  1  0
 72 76  1  0
 73 72  1  0
 74 75  1  0
 74 73  1  0
 75 71  1  0
 76 77  2  0
 77 78  1  0
 79 78  2  0
 80 79  1  0
 81 55  1  0
 81 86  1  0
 81 82  1  0
 82 85  1  1
 82 83  1  0
 84 82  1  0
 86 89  1  0
 87 91  1  0
 87 86  1  0
 88 87  2  0
 91 90  1  0
 93 91  1  0
 93 94  1  0
 93 92  1  0
M  ISO  4  11 100  20 100  53 101  54 101
M  END
>  <TORSDO>  (16) 
F 19

>  <SCORE>  (16) 
-13.791

>  <name>  (16) 
15

>  <ligand_id>  (16) 
15

>  <original_smiles>  (16) 
[H]c1c([H])c([H])c2c(c1[H])C([H])([H])C([H])([H])C([H])([H])C2([H])N([H])C(=O)C1([H])N(C(=O)C([H])(N([H])C(=O)C([H])(N([H])C([H])([H])[H])C([H])([H])[H])C(C([H])([H])[H])(C([H])([H])[H])C([H])([H])[H])C([H])([H])c2c([H])c(OC3([H])C([H])([H])C([H])([H])C([H])(N([H])c4c([H])c([H])c(C([H])([H])N(C(=O)N5C([H])([H])C([H])([H])C([H])([H])C([H])(n6nc(-c7c([H])c([H])c(Oc8c([H])c([H])c(F)c([H])c8F)c([H])c7[H])c(C(=O)N([H])[H])c6N([H])[H])C5([H])[H])C([H])([H])[H])c([H])c4F)C3([H])[H])c([H])c([H])c2C1([H])[H]

>  <smiles>  (16) 
[H]c1c([H])c([H])c2c(c1[H])C([H])([H])C([H])([H])C([H])([H])C2([H])N([H])C(=O)C1([H])N(C(=O)C([H])(N([H])C(=O)C([H])(N([H])C([H])([H])[H])C([H])([H])[H])C(C([H])([H])[H])(C([H])([H])[H])C([H])([H])[H])C([H])([H])c2c([H])c(OC3([H])C([H])([H])C([H])([H])C([H])(N([H])c4c([H])c([H])c(C([H])([H])N(C(=O)N5C([H])([H])C([H])([H])C([H])([H])C([H])(n6nc(-c7c([H])c([H])c(Oc8c([H])c([H])c(F)c([H])c8F)c([H])c7[H])c(C(=O)N([H])[H])c6N([H])[H])C5([H])[H])C([H])([H])[H])c([H])c4F)C3([H])[H])c([H])c([H])c2C1([H])[H]

$$$$
16:0:0
     RDKit          3D

 98106  0  0  1  0  0  0  0  0999 V2000
  -29.4710  -17.9640   20.7160 C   0  0  0  0  0  3  0  0  0  0  0  0
  -32.1870  -18.5360   21.0010 C   0  0  0  0  0  3  0  0  0  0  0  0
  -29.8830  -19.3280   20.8030 C   0  0  0  0  0  0  0  0  0  0  0  0
  -30.3930  -16.8860   20.7660 C   0  0  0  0  0  0  0  0  0  0  0  0
  -31.2720  -19.6070   20.9410 C   0  0  0  0  0  0  0  0  0  0  0  0
  -31.7620  -17.1980   20.9540 C   0  0  0  0  0  0  0  0  0  0  0  0
  -32.6860  -16.2280   21.1510 F   0  0  0  0  0  0  0  0  0  0  0  0
  -30.5280  -14.5030   20.0230 C   0  0  0  0  0  0  0  0  0  0  0  0
  -30.1240  -12.3540   18.8790 C   0  0  0  0  0  2  0  0  0  0  0  0
  -29.1190  -12.5960   17.7360 C   0  0  0  0  0  2  0  0  0  0  0  0
  -27.6710  -12.4670   18.2500 C   0  0  0  0  0  2  0  0  0  0  0  0
  -27.4180  -13.2550   19.5640 C   0  0  0  0  0  3  0  0  0  0  0  0
  -28.5500  -13.0260   20.5940 C   0  0  0  0  0  2  0  0  0  0  0  0
  -29.8320  -13.3330   19.9400 N   0  0  0  0  0  0  0  0  0  0  0  0
  -31.5830  -14.6670   19.4070 O   0  0  0  0  0  0  0  0  0  0  0  0
  -29.9280  -15.5240   20.6790 N   0  0  0  0  0  0  0  0  0  0  0  0
  -29.0020  -15.3320   21.0300 H   0  0  0  0  0  0  0  0  0  0  0  0
  -25.0660  -13.8140   20.4450 C   0  0  0  0  0  0  0  0  0  0  0  0
  -24.0340  -13.0210   20.8710 C   0  0  0  0  0  0  0  0  0  0  0  0
  -24.5040  -11.6750   20.7780 C   0  0  0  0  0  0  0  0  0  0  0  0
  -26.1020  -12.9500   20.1240 N   0  0  0  0  0  0  0  0  0  0  0  0
  -25.7710  -11.6560   20.3800 N   0  0  0  0  0  0  0  0  0  0  0  0
  -23.8010  -10.4020   20.9910 C   0  0  0  0  0  0  0  0  0  0  0  0
  -24.2880   -9.4300   21.8920 C   0  0  0  0  0  3  0  0  0  0  0  0
  -23.5850   -8.2230   22.0950 C   0  0  0  0  0  3  0  0  0  0  0  0
  -22.3780   -7.9780   21.3940 C   0  0  0  0  0  0  0  0  0  0  0  0
  -21.9080   -8.9410   20.4840 C   0  0  0  0  0  3  0  0  0  0  0  0
  -22.6130  -10.1390   20.2800 C   0  0  0  0  0  3  0  0  0  0  0  0
  -21.6430   -6.8240   21.5070 O   0  0  0  0  0  0  0  0  0  0  0  0
  -21.6470   -6.0750   22.6580 C   0  0  0  0  0  0  0  0  0  0  0  0
  -21.2520   -6.6170   23.9010 C   0  0  0  0  0  3  0  0  0  0  0  0
  -21.2070   -5.7930   25.0440 C   0  0  0  0  0  3  0  0  0  0  0  0
  -21.5450   -4.4300   24.9450 C   0  0  0  0  0  0  0  0  0  0  0  0
  -21.9310   -3.8880   23.7060 C   0  0  0  0  0  3  0  0  0  0  0  0
  -21.9790   -4.7080   22.5660 C   0  0  0  0  0  0  0  0  0  0  0  0
  -22.3330   -4.1760   21.3700 F   0  0  0  0  0  0  0  0  0  0  0  0
  -21.4920   -3.6380   26.0400 F   0  0  0  0  0  0  0  0  0  0  0  0
  -22.6560  -13.4800   21.2510 C   0  0  0  0  0  0  0  0  0  0  0  0
  -21.9930  -12.7590   22.1480 N   0  0  0  0  0  0  0  0  0  0  0  0
  -22.1770  -14.5130   20.7860 O   0  0  0  0  0  0  0  0  0  0  0  0
  -22.3890  -11.9210   22.5440 H   0  0  0  0  0  0  0  0  0  0  0  0
  -21.0710  -13.0530   22.4410 H   0  0  0  0  0  0  0  0  0  0  0  0
  -25.2050  -15.1900   20.2880 N   0  0  0  0  0  0  0  0  0  0  0  0
  -24.4340  -15.8280   20.4650 H   0  0  0  0  0  0  0  0  0  0  0  0
  -26.0230  -15.6520   19.9130 H   0  0  0  0  0  0  0  0  0  0  0  0
  -28.7760  -20.4110   20.8510 C   0  0  0  0  0  2  0  0  0  0  0  0
  -28.8220  -22.9080   20.7370 C   0  0  0  0  0  0  0  0  0  0  0  0
  -29.0060  -21.5680   18.6600 C   0  0  0  0  0  1  0  0  0  0  0  0
  -28.9340  -21.6970   20.1190 N   0  0  0  0  0  0  0  0  0  0  0  0
  -28.7660  -23.0050   21.9660 O   0  0  0  0  0  0  0  0  0  0  0  0
  -28.7230  -24.2180   19.9030 C   0  0  0  0  0  2  0  0  0  0  0  0
  -28.0340  -25.3960   20.6500 C   0  0  0  0  0  2  0  0  0  0  0  0
  -28.1220  -26.6590   19.9560 O   0  0  0  0  0  0  0  0  0  0  0  0
  -24.5050  -31.8830   23.2040 C   0  0  0  0  0  0  0  0  0  0  0  0
  -26.9780  -27.4300   20.0020 C   0  0  0  0  0  0  0  0  0  0  0  0
  -23.2250  -30.5210   21.5830 C   0  0  0  0  0  3  0  0  0  0  0  0
  -24.6100  -28.9770   20.0940 C   0  0  0  0  0  0  0  0  0  0  0  0
  -25.7480  -30.8400   21.3130 C   0  0  0  0  0  2  0  0  0  0  0  0
  -25.7930  -29.4750   20.6540 C   0  0  0  0  0  0  0  0  0  0  0  0
  -26.9830  -28.7100   20.6020 C   0  0  0  0  0  3  0  0  0  0  0  0
  -25.7810  -26.9490   19.4320 C   0  0  0  0  0  3  0  0  0  0  0  0
  -24.5990  -27.7130   19.4770 C   0  0  0  0  0  3  0  0  0  0  0  0
  -23.3800  -29.8540   20.1890 C   0  0  0  0  0  2  0  0  0  0  0  0
  -24.5130  -31.0950   22.0910 N   0  0  0  0  0  0  0  0  0  0  0  0
  -23.4460  -32.1670   23.7810 O   0  0  0  0  0  0  0  0  0  0  0  0
  -22.5860  -29.5000   22.5510 C   0  0  0  0  0  0  0  0  0  0  0  0
  -21.2600  -29.3230   22.4450 N   0  0  0  0  0  0  0  0  0  0  0  0
  -23.2800  -28.8700   23.3530 O   0  0  0  0  0  0  0  0  0  0  0  0
  -20.7580  -29.8830   21.7700 H   0  0  0  0  0  0  0  0  0  0  0  0
  -17.8950  -28.1120   22.9680 C   0  0  0  0  0  0  0  0  0  0  0  0
  -20.4520  -28.3860   23.2280 C   0  0  0  0  0  3  0  0  0  0  0  0
  -20.5610  -26.9510   22.6620 C   0  0  0  0  0  2  0  0  0  0  0  0
  -19.4560  -26.6150   21.6530 C   0  0  0  0  0  2  0  0  0  0  0  0
  -18.0760  -26.7590   22.3020 C   0  0  0  0  0  2  0  0  0  0  0  0
  -19.0110  -28.8830   23.3890 C   0  0  0  0  0  0  0  0  0  0  0  0
  -18.7890  -30.1500   23.9700 C   0  0  0  0  0  3  0  0  0  0  0  0
  -17.4830  -30.6470   24.1360 C   0  0  0  0  0  3  0  0  0  0  0  0
  -16.3800  -29.8720   23.7340 C   0  0  0  0  0  3  0  0  0  0  0  0
  -16.5870  -28.6080   23.1560 C   0  0  0  0  0  3  0  0  0  0  0  0
  -25.8210  -32.4840   23.7900 C   0  0  0  0  0  3  0  0  0  0  0  0
  -25.5510  -33.8840   24.1430 N   0  0  0  0  0  0  0  0  0  0  0  0
  -25.8850  -34.9370   23.3830 C   0  0  0  0  0  0  0  0  0  0  0  0
  -26.5270  -34.8300   22.3340 O   0  0  0  0  0  0  0  0  0  0  0  0
  -24.9850  -34.0440   24.9620 H   0  0  0  0  0  0  0  0  0  0  0  0
  -24.1900  -36.7690   23.0790 C   0  0  0  0  0  1  0  0  0  0  0  0
  -25.4370  -36.3300   23.8640 C   0  0  0  0  0  3  0  0  0  0  0  0
  -27.6040  -37.1600   24.6630 C   0  0  0  0  0  1  0  0  0  0  0  0
  -26.4890  -37.3620   23.7420 N   0  0  0  0  0  0  0  0  0  0  0  0
  -26.1070  -38.2890   23.9060 H   0  0  0  0  0  0  0  0  0  0  0  0
  -26.3660  -31.6890   25.0390 C   0  0  1  0  0  0  0  0  0  0  0  0
  -25.3050  -31.4550   26.1410 C   0  0  0  0  0  1  0  0  0  0  0  0
  -26.9150  -30.3080   24.6110 C   0  0  0  0  0  1  0  0  0  0  0  0
  -27.5490  -32.4560   25.6730 C   0  0  0  0  0  1  0  0  0  0  0  0
  -31.7720  -20.9100   21.0970 N   0  0  0  0  0  0  0  0  0  0  0  0
  -32.7740  -20.8860   23.4000 C   0  0  0  0  0  1  0  0  0  0  0  0
  -31.7400  -21.4900   22.4380 C   0  0  0  0  0  2  0  0  0  0  0  0
  -34.0360  -21.4020   20.1100 C   0  0  0  0  0  1  0  0  0  0  0  0
  -32.5100  -21.5140   19.9860 C   0  0  0  0  0  2  0  0  0  0  0  0
  1  4  2  0
  1  3  1  0
  3 46  1  0
  3  5  2  0
  4  6  1  0
  5  2  1  0
  5 94  1  0
  6  2  2  0
  6  7  1  0
  8 16  1  0
  9 14  1  0
 10 11  1  0
 10  9  1  0
 12 11  1  0
 12 21  1  0
 12 13  1  0
 14  8  1  0
 14 13  1  0
 15  8  2  0
 16  4  1  0
 16 17  1  0
 18 19  2  0
 19 38  1  0
 20 19  1  0
 20 23  1  0
 21 22  1  0
 21 18  1  0
 22 20  2  0
 23 24  1  0
 24 25  2  0
 26 29  1  0
 26 25  1  0
 27 26  2  0
 28 27  1  0
 28 23  2  0
 29 30  1  0
 30 31  1  0
 31 32  2  0
 33 32  1  0
 33 37  1  0
 34 33  2  0
 35 30  2  0
 35 34  1  0
 36 35  1  0
 38 39  1  0
 39 42  1  0
 39 41  1  0
 40 38  2  0
 43 18  1  0
 43 44  1  0
 45 43  1  0
 47 50  2  0
 48 49  1  0
 49 47  1  0
 49 46  1  0
 51 52  1  0
 51 47  1  0
 53 55  1  0
 53 52  1  0
 54 65  2  0
 55 60  1  0
 56 64  1  0
 56 66  1  0
 57 63  1  0
 57 59  1  0
 58 64  1  0
 59 58  1  0
 60 59  2  0
 61 62  1  0
 61 55  2  0
 62 57  2  0
 63 56  1  0
 64 54  1  0
 66 68  2  0
 67 66  1  0
 69 67  1  0
 70 79  2  0
 70 75  1  0
 71 67  1  0
 71 75  1  0
 72 71  1  0
 73 74  1  0
 73 72  1  0
 74 70  1  0
 75 76  2  0
 76 77  1  0
 78 77  2  0
 79 78  1  0
 80 54  1  0
 80 81  1  0
 80 90  1  0
 81 84  1  0
 82 86  1  0
 82 81  1  0
 83 82  2  0
 86 85  1  0
 88 86  1  0
 88 89  1  0
 88 87  1  0
 90 93  1  1
 90 91  1  0
 92 90  1  0
 94 96  1  0
 96 95  1  0
 98 97  1  0
 98 94  1  0
M  ISO  4   8 100  16 100  52 101  53 101
M  END
>  <TORSDO>  (17) 
F 23

>  <SCORE>  (17) 
-12.694

>  <name>  (17) 
16

>  <ligand_id>  (17) 
16

>  <original_smiles>  (17) 
[H]c1c([H])c([H])c2c(c1[H])C([H])([H])C([H])([H])C([H])([H])C2([H])N([H])C(=O)C1([H])N(C(=O)C([H])(N([H])C(=O)C([H])(N([H])C([H])([H])[H])C([H])([H])[H])C(C([H])([H])[H])(C([H])([H])[H])C([H])([H])[H])C([H])([H])c2c([H])c(OC([H])([H])C([H])([H])C(=O)N(C([H])([H])[H])C([H])([H])c3c([H])c(N([H])C(=O)N4C([H])([H])C([H])([H])C([H])([H])C([H])(n5nc(-c6c([H])c([H])c(Oc7c([H])c([H])c(F)c([H])c7F)c([H])c6[H])c(C(=O)N([H])[H])c5N([H])[H])C4([H])[H])c(F)c([H])c3N(C([H])([H])C([H])([H])[H])C([H])([H])C([H])([H])[H])c([H])c([H])c2C1([H])[H]

>  <smiles>  (17) 
[H]c1c([H])c([H])c2c(c1[H])C([H])([H])C([H])([H])C([H])([H])C2([H])N([H])C(=O)C1([H])N(C(=O)C([H])(N([H])C(=O)C([H])(N([H])C([H])([H])[H])C([H])([H])[H])C(C([H])([H])[H])(C([H])([H])[H])C([H])([H])[H])C([H])([H])c2c([H])c(OC([H])([H])C([H])([H])C(=O)N(C([H])([H])[H])C([H])([H])c3c([H])c(N([H])C(=O)N4C([H])([H])C([H])([H])C([H])([H])C([H])(n5nc(-c6c([H])c([H])c(Oc7c([H])c([H])c(F)c([H])c7F)c([H])c6[H])c(C(=O)N([H])[H])c5N([H])[H])C4([H])[H])c(F)c([H])c3N(C([H])([H])C([H])([H])[H])C([H])([H])C([H])([H])[H])c([H])c([H])c2C1([H])[H]

$$$$
17:0:0
     RDKit          3D

 92101  0  0  1  0  0  0  0  0999 V2000
  -30.1800  -23.1960   22.2870 C   0  0  0  0  0  2  0  0  0  0  0  0
  -30.6120  -23.7660   20.9310 C   0  0  0  0  0  2  0  0  0  0  0  0
  -28.9920  -22.2700   21.9790 C   0  0  0  0  0  2  0  0  0  0  0  0
  -29.4560  -23.4170   19.9970 C   0  0  0  0  0  3  0  0  0  0  0  0
  -29.0170  -22.0310   20.5370 N   0  0  0  0  0  0  0  0  0  0  0  0
  -30.7100  -19.9930   20.3300 C   0  0  0  0  0  3  0  0  0  0  0  0
  -30.9630  -18.5470   20.3210 C   0  0  0  0  0  3  0  0  0  0  0  0
  -28.6400  -18.1650   20.2880 C   0  0  0  0  0  3  0  0  0  0  0  0
  -29.4000  -20.6010   20.3340 C   0  0  0  0  0  0  0  0  0  0  0  0
  -29.9280  -17.5440   20.3140 C   0  0  0  0  0  0  0  0  0  0  0  0
  -28.3830  -19.5850   20.3000 C   0  0  0  0  0  0  0  0  0  0  0  0
  -26.7200  -20.0670   20.3030 Cl  0  0  0  0  0  0  0  0  0  0  0  0
  -30.8290  -14.9350   19.9750 C   0  0  0  0  0  0  0  0  0  0  0  0
  -30.6530  -12.6290   18.9410 C   0  0  0  0  0  2  0  0  0  0  0  0
  -29.6360  -12.6710   17.7740 C   0  0  0  0  0  2  0  0  0  0  0  0
  -28.1950  -12.4720   18.2880 C   0  0  0  0  0  2  0  0  0  0  0  0
  -27.8860  -13.3440   19.5320 C   0  0  0  0  0  3  0  0  0  0  0  0
  -29.0090  -13.2510   20.5870 C   0  0  0  0  0  2  0  0  0  0  0  0
  -30.2580  -13.6670   19.9310 N   0  0  0  0  0  0  0  0  0  0  0  0
  -31.9900  -15.0720   19.5700 O   0  0  0  0  0  0  0  0  0  0  0  0
  -29.9890  -16.0150   20.3270 N   0  0  0  0  0  0  0  0  0  0  0  0
  -29.1180  -15.6210   20.6480 H   0  0  0  0  0  0  0  0  0  0  0  0
  -25.5580  -13.9370   20.4230 C   0  0  0  0  0  0  0  0  0  0  0  0
  -24.5070  -13.1650   20.8370 C   0  0  0  0  0  0  0  0  0  0  0  0
  -24.9480  -11.8100   20.7400 C   0  0  0  0  0  0  0  0  0  0  0  0
  -26.5720  -13.0530   20.0960 N   0  0  0  0  0  0  0  0  0  0  0  0
  -26.2170  -11.7660   20.3510 N   0  0  0  0  0  0  0  0  0  0  0  0
  -24.2160  -10.5520   20.9380 C   0  0  0  0  0  0  0  0  0  0  0  0
  -24.6430   -9.5890   21.8800 C   0  0  0  0  0  3  0  0  0  0  0  0
  -23.9110   -8.3970   22.0660 C   0  0  0  0  0  3  0  0  0  0  0  0
  -22.7380   -8.1590   21.3100 C   0  0  0  0  0  0  0  0  0  0  0  0
  -22.3310   -9.1100   20.3580 C   0  0  0  0  0  3  0  0  0  0  0  0
  -23.0630  -10.2930   20.1710 C   0  0  0  0  0  3  0  0  0  0  0  0
  -21.9790   -7.0180   21.4050 O   0  0  0  0  0  0  0  0  0  0  0  0
  -21.8420   -6.3410   22.5900 C   0  0  0  0  0  0  0  0  0  0  0  0
  -21.3370   -6.9640   23.7510 C   0  0  0  0  0  3  0  0  0  0  0  0
  -21.1470   -6.2130   24.9290 C   0  0  0  0  0  3  0  0  0  0  0  0
  -21.4550   -4.8390   24.9460 C   0  0  0  0  0  0  0  0  0  0  0  0
  -21.9520   -4.2150   23.7890 C   0  0  0  0  0  3  0  0  0  0  0  0
  -22.1440   -4.9630   22.6130 C   0  0  0  0  0  0  0  0  0  0  0  0
  -22.6050   -4.3530   21.4960 F   0  0  0  0  0  0  0  0  0  0  0  0
  -21.2660   -4.1160   26.0740 F   0  0  0  0  0  0  0  0  0  0  0  0
  -23.1350  -13.6530   21.2040 C   0  0  0  0  0  0  0  0  0  0  0  0
  -22.4610  -12.9590   22.1150 N   0  0  0  0  0  0  0  0  0  0  0  0
  -22.6720  -14.6830   20.7190 O   0  0  0  0  0  0  0  0  0  0  0  0
  -22.8500  -12.1260   22.5310 H   0  0  0  0  0  0  0  0  0  0  0  0
  -21.5430  -13.2680   22.4030 H   0  0  0  0  0  0  0  0  0  0  0  0
  -25.7260  -15.3100   20.2690 N   0  0  0  0  0  0  0  0  0  0  0  0
  -24.9580  -15.9550   20.4150 H   0  0  0  0  0  0  0  0  0  0  0  0
  -26.5150  -15.7360   19.8000 H   0  0  0  0  0  0  0  0  0  0  0  0
  -28.3680  -24.7050   20.0040 C   0  0  0  0  0  2  0  0  0  0  0  0
  -28.6520  -26.2280   19.8940 O   0  0  0  0  0  0  0  0  0  0  0  0
  -24.9080  -31.6160   23.2510 C   0  0  0  0  0  0  0  0  0  0  0  0
  -27.5830  -27.1910   19.9090 C   0  0  0  0  0  0  0  0  0  0  0  0
  -23.7600  -30.3740   21.4580 C   0  0  0  0  0  3  0  0  0  0  0  0
  -25.2530  -28.9250   19.9530 C   0  0  0  0  0  0  0  0  0  0  0  0
  -26.3170  -30.6480   21.4000 C   0  0  0  0  0  2  0  0  0  0  0  0
  -26.4110  -29.3180   20.6350 C   0  0  0  0  0  0  0  0  0  0  0  0
  -27.5790  -28.4690   20.5960 C   0  0  0  0  0  3  0  0  0  0  0  0
  -26.3990  -26.9030   19.1940 C   0  0  0  0  0  3  0  0  0  0  0  0
  -25.2580  -27.7310   19.2200 C   0  0  0  0  0  3  0  0  0  0  0  0
  -24.0250  -29.8180   20.0350 C   0  0  0  0  0  2  0  0  0  0  0  0
  -25.0130  -30.8950   22.0940 N   0  0  0  0  0  0  0  0  0  0  0  0
  -23.8060  -31.8580   23.7660 O   0  0  0  0  0  0  0  0  0  0  0  0
  -23.0500  -29.2890   22.3050 C   0  0  0  0  0  0  0  0  0  0  0  0
  -21.7190  -29.1650   22.1520 N   0  0  0  0  0  0  0  0  0  0  0  0
  -23.6980  -28.5650   23.0650 O   0  0  0  0  0  0  0  0  0  0  0  0
  -21.2540  -29.8010   21.5200 H   0  0  0  0  0  0  0  0  0  0  0  0
  -18.2930  -28.0680   22.5770 C   0  0  0  0  0  0  0  0  0  0  0  0
  -20.8660  -28.1760   22.8160 C   0  0  0  0  0  3  0  0  0  0  0  0
  -20.8890  -26.8260   22.0620 C   0  0  0  0  0  2  0  0  0  0  0  0
  -19.7550  -26.6860   21.0410 C   0  0  0  0  0  2  0  0  0  0  0  0
  -18.3930  -26.8100   21.7310 C   0  0  0  0  0  2  0  0  0  0  0  0
  -19.4550  -28.7170   23.0740 C   0  0  0  0  0  0  0  0  0  0  0  0
  -19.3070  -29.9010   23.8290 C   0  0  0  0  0  3  0  0  0  0  0  0
  -18.0290  -30.4330   24.0900 C   0  0  0  0  0  3  0  0  0  0  0  0
  -16.8830  -29.7790   23.6080 C   0  0  0  0  0  3  0  0  0  0  0  0
  -17.0170  -28.5970   22.8580 C   0  0  0  0  0  3  0  0  0  0  0  0
  -26.1650  -32.1890   23.9730 C   0  0  0  0  0  3  0  0  0  0  0  0
  -25.8560  -33.5650   24.3870 N   0  0  0  0  0  0  0  0  0  0  0  0
  -26.2120  -34.6660   23.7110 C   0  0  0  0  0  0  0  0  0  0  0  0
  -26.9030  -34.6270   22.6900 O   0  0  0  0  0  0  0  0  0  0  0  0
  -25.2440  -33.6700   25.1830 H   0  0  0  0  0  0  0  0  0  0  0  0
  -24.4930  -36.4870   23.4620 C   0  0  0  0  0  1  0  0  0  0  0  0
  -25.7280  -36.0250   24.2530 C   0  0  0  0  0  3  0  0  0  0  0  0
  -27.8560  -36.8520   25.1570 C   0  0  0  0  0  1  0  0  0  0  0  0
  -26.7660  -37.0790   24.2140 N   0  0  0  0  0  0  0  0  0  0  0  0
  -26.3600  -37.9910   24.4110 H   0  0  0  0  0  0  0  0  0  0  0  0
  -26.6120  -31.3260   25.2180 C   0  0  1  0  0  0  0  0  0  0  0  0
  -25.4690  -31.0420   26.2200 C   0  0  0  0  0  1  0  0  0  0  0  0
  -27.1890  -29.9650   24.7660 C   0  0  0  0  0  1  0  0  0  0  0  0
  -27.7450  -32.0540   25.9790 C   0  0  0  0  0  1  0  0  0  0  0  0
  2  1  1  0
  3  1  1  0
  4 51  1  0
  4  5  1  0
  4  2  1  0
  5  3  1  0
  6  9  1  0
  7  6  2  0
  8 11  1  0
  8 10  2  0
  9  5  1  0
 10  7  1  0
 10 21  1  0
 11 12  1  0
 11  9  2  0
 13 21  1  0
 14 19  1  0
 15 16  1  0
 15 14  1  0
 17 16  1  0
 17 26  1  0
 17 18  1  0
 19 13  1  0
 19 18  1  0
 20 13  2  0
 21 22  1  0
 23 24  2  0
 24 43  1  0
 25 24  1  0
 25 28  1  0
 26 27  1  0
 26 23  1  0
 27 25  2  0
 28 29  1  0
 29 30  2  0
 31 34  1  0
 31 30  1  0
 32 31  2  0
 33 32  1  0
 33 28  2  0
 34 35  1  0
 35 40  2  0
 35 36  1  0
 36 37  2  0
 37 38  1  0
 38 42  1  0
 39 38  2  0
 40 39  1  0
 41 40  1  0
 43 44  1  0
 44 47  1  0
 44 46  1  0
 45 43  2  0
 48 49  1  0
 48 23  1  0
 50 48  1  0
 52 54  1  0
 52 51  1  0
 53 64  2  0
 54 59  1  0
 55 63  1  0
 55 65  1  0
 56 62  1  0
 56 58  1  0
 57 63  1  0
 58 57  1  0
 59 58  2  0
 60 61  1  0
 60 54  2  0
 61 56  2  0
 62 55  1  0
 63 53  1  0
 65 67  2  0
 66 65  1  0
 68 66  1  0
 69 78  2  0
 69 74  1  0
 70 66  1  0
 70 74  1  0
 71 70  1  0
 72 73  1  0
 72 71  1  0
 73 69  1  0
 74 75  2  0
 75 76  1  0
 77 76  2  0
 78 77  1  0
 79 53  1  0
 79 80  1  0
 79 89  1  0
 80 83  1  0
 81 85  1  0
 81 80  1  0
 82 81  2  0
 85 84  1  0
 87 85  1  0
 87 88  1  0
 87 86  1  0
 89 92  1  1
 89 90  1  0
 91 89  1  0
M  ISO  4  13 100  21 100  51 101  52 101
M  END
>  <TORSDO>  (18) 
F 18

>  <SCORE>  (18) 
-13.055

>  <name>  (18) 
17

>  <ligand_id>  (18) 
17

>  <original_smiles>  (18) 
[H]c1c([H])c([H])c2c(c1[H])C([H])([H])C([H])([H])C([H])([H])C2([H])N([H])C(=O)C1([H])N(C(=O)C([H])(N([H])C(=O)C([H])(N([H])C([H])([H])[H])C([H])([H])[H])C(C([H])([H])[H])(C([H])([H])[H])C([H])([H])[H])C([H])([H])c2c([H])c(OC([H])([H])C3([H])N(c4c([H])c([H])c(N([H])C(=O)N5C([H])([H])C([H])([H])C([H])([H])C([H])(n6nc(-c7c([H])c([H])c(Oc8c([H])c([H])c(F)c([H])c8F)c([H])c7[H])c(C(=O)N([H])[H])c6N([H])[H])C5([H])[H])c([H])c4Cl)C([H])([H])C([H])([H])C3([H])[H])c([H])c([H])c2C1([H])[H]

>  <smiles>  (18) 
[H]c1c([H])c([H])c2c(c1[H])C([H])([H])C([H])([H])C([H])([H])C2([H])N([H])C(=O)C1([H])N(C(=O)C([H])(N([H])C(=O)C([H])(N([H])C([H])([H])[H])C([H])([H])[H])C(C([H])([H])[H])(C([H])([H])[H])C([H])([H])[H])C([H])([H])c2c([H])c(OC([H])([H])C3([H])N(c4c([H])c([H])c(N([H])C(=O)N5C([H])([H])C([H])([H])C([H])([H])C([H])(n6nc(-c7c([H])c([H])c(Oc8c([H])c([H])c(F)c([H])c8F)c([H])c7[H])c(C(=O)N([H])[H])c6N([H])[H])C5([H])[H])c([H])c4Cl)C([H])([H])C([H])([H])C3([H])[H])c([H])c([H])c2C1([H])[H]

$$$$
18:0:0
     RDKit          3D

 97105  0  0  1  0  0  0  0  0999 V2000
  -30.0730  -19.4100   20.6820 C   0  0  0  0  0  3  0  0  0  0  0  0
  -28.3380  -18.9610   18.5290 C   0  0  0  0  0  3  0  0  0  0  0  0
  -29.7030  -18.0680   20.3620 C   0  0  0  0  0  0  0  0  0  0  0  0
  -29.6160  -20.5180   19.9120 C   0  0  0  0  0  0  0  0  0  0  0  0
  -28.7720  -20.2740   18.8030 C   0  0  0  0  0  0  0  0  0  0  0  0
  -28.7940  -17.8690   19.2930 C   0  0  0  0  0  0  0  0  0  0  0  0
  -28.3660  -16.6300   18.9560 F   0  0  0  0  0  0  0  0  0  0  0  0
  -30.0730  -21.8420   20.1090 N   0  0  0  0  0  0  0  0  0  0  0  0
  -30.1040  -22.1930   19.1510 H   0  0  0  0  0  0  0  0  0  0  0  0
  -29.2070  -22.7790   20.8460 C   0  0  0  0  0  2  0  0  0  0  0  0
  -29.4120  -24.2760   20.4150 C   0  0  0  0  0  3  0  0  0  0  0  0
  -28.3810  -25.2920   21.0020 C   0  0  0  0  0  3  0  0  0  0  0  0
  -28.5480  -26.6760   20.5710 O   0  0  0  0  0  0  0  0  0  0  0  0
  -24.6580  -32.0150   23.3630 C   0  0  0  0  0  0  0  0  0  0  0  0
  -27.3980  -27.4530   20.5050 C   0  0  0  0  0  0  0  0  0  0  0  0
  -23.5070  -30.5590   21.7310 C   0  0  0  0  0  3  0  0  0  0  0  0
  -25.0080  -28.9880   20.3900 C   0  0  0  0  0  0  0  0  0  0  0  0
  -26.0410  -30.9100   21.6040 C   0  0  0  0  0  2  0  0  0  0  0  0
  -26.1500  -29.5190   21.0040 C   0  0  0  0  0  0  0  0  0  0  0  0
  -27.3490  -28.7610   21.0550 C   0  0  0  0  0  3  0  0  0  0  0  0
  -26.2420  -26.9610   19.8570 C   0  0  0  0  0  3  0  0  0  0  0  0
  -25.0540  -27.7120   19.8080 C   0  0  0  0  0  3  0  0  0  0  0  0
  -23.7600  -29.8450   20.3780 C   0  0  0  0  0  2  0  0  0  0  0  0
  -24.7520  -31.1800   22.2890 N   0  0  0  0  0  0  0  0  0  0  0  0
  -23.5600  -32.2980   23.8630 O   0  0  0  0  0  0  0  0  0  0  0  0
  -22.8310  -29.5640   22.7030 C   0  0  0  0  0  0  0  0  0  0  0  0
  -21.5180  -29.3480   22.5240 N   0  0  0  0  0  0  0  0  0  0  0  0
  -23.4900  -28.9870   23.5730 O   0  0  0  0  0  0  0  0  0  0  0  0
  -21.0500  -29.8610   21.7910 H   0  0  0  0  0  0  0  0  0  0  0  0
  -18.1550  -28.0710   22.8960 C   0  0  0  0  0  0  0  0  0  0  0  0
  -20.6850  -28.4240   23.2970 C   0  0  0  0  0  3  0  0  0  0  0  0
  -20.8630  -26.9700   22.8020 C   0  0  0  0  0  2  0  0  0  0  0  0
  -19.8300  -26.5620   21.7460 C   0  0  0  0  0  2  0  0  0  0  0  0
  -18.4100  -26.6960   22.3020 C   0  0  0  0  0  2  0  0  0  0  0  0
  -19.2250  -28.8890   23.3480 C   0  0  0  0  0  0  0  0  0  0  0  0
  -18.9350  -30.1730   23.8590 C   0  0  0  0  0  3  0  0  0  0  0  0
  -17.6090  -30.6400   23.9250 C   0  0  0  0  0  3  0  0  0  0  0  0
  -16.5540  -29.8200   23.4900 C   0  0  0  0  0  3  0  0  0  0  0  0
  -16.8270  -28.5380   22.9810 C   0  0  0  0  0  3  0  0  0  0  0  0
  -25.9240  -32.6720   24.0000 C   0  0  0  0  0  3  0  0  0  0  0  0
  -25.5970  -34.0760   24.2840 N   0  0  0  0  0  0  0  0  0  0  0  0
  -25.9360  -35.1100   23.5030 C   0  0  0  0  0  0  0  0  0  0  0  0
  -26.6280  -34.9820   22.4890 O   0  0  0  0  0  0  0  0  0  0  0  0
  -24.9860  -34.2470   25.0700 H   0  0  0  0  0  0  0  0  0  0  0  0
  -24.1950  -36.8710   23.0660 C   0  0  0  0  0  1  0  0  0  0  0  0
  -25.4270  -36.5060   23.9090 C   0  0  0  0  0  3  0  0  0  0  0  0
  -27.5410  -37.4370   24.7410 C   0  0  0  0  0  1  0  0  0  0  0  0
  -26.4500  -37.5660   23.7780 N   0  0  0  0  0  0  0  0  0  0  0  0
  -26.0330  -38.4860   23.8910 H   0  0  0  0  0  0  0  0  0  0  0  0
  -26.4130  -31.9370   25.3080 C   0  0  1  0  0  0  0  0  0  0  0  0
  -25.2940  -31.7110   26.3520 C   0  0  0  0  0  1  0  0  0  0  0  0
  -27.0250  -30.5580   24.9660 C   0  0  0  0  0  1  0  0  0  0  0  0
  -27.5360  -32.7610   25.9800 C   0  0  0  0  0  1  0  0  0  0  0  0
  -30.3480  -16.8920   21.1420 C   0  0  0  0  0  2  0  0  0  0  0  0
  -30.5970  -14.5280   20.2110 C   0  0  0  0  0  0  0  0  0  0  0  0
  -30.2300  -12.4580   18.9070 C   0  0  0  0  0  2  0  0  0  0  0  0
  -29.2170  -12.7550   17.7820 C   0  0  0  0  0  2  0  0  0  0  0  0
  -27.7690  -12.5910   18.2840 C   0  0  0  0  0  2  0  0  0  0  0  0
  -27.5170  -13.3250   19.6280 C   0  0  0  0  0  3  0  0  0  0  0  0
  -28.6320  -13.0040   20.6480 C   0  0  0  0  0  2  0  0  0  0  0  0
  -29.9210  -13.3600   20.0280 N   0  0  0  0  0  0  0  0  0  0  0  0
  -31.7060  -14.7370   19.7110 O   0  0  0  0  0  0  0  0  0  0  0  0
  -29.9190  -15.5000   20.8600 N   0  0  0  0  0  0  0  0  0  0  0  0
  -29.0040  -15.2400   21.1940 H   0  0  0  0  0  0  0  0  0  0  0  0
  -25.1470  -13.8970   20.4520 C   0  0  0  0  0  0  0  0  0  0  0  0
  -24.1060  -13.1090   20.8590 C   0  0  0  0  0  0  0  0  0  0  0  0
  -24.5790  -11.7620   20.7890 C   0  0  0  0  0  0  0  0  0  0  0  0
  -26.1900  -13.0300   20.1630 N   0  0  0  0  0  0  0  0  0  0  0  0
  -25.8540  -11.7400   20.4210 N   0  0  0  0  0  0  0  0  0  0  0  0
  -23.8740  -10.4900   20.9920 C   0  0  0  0  0  0  0  0  0  0  0  0
  -24.3480   -9.5220   21.9050 C   0  0  0  0  0  3  0  0  0  0  0  0
  -23.6430   -8.3130   22.0970 C   0  0  0  0  0  3  0  0  0  0  0  0
  -22.4520   -8.0650   21.3740 C   0  0  0  0  0  0  0  0  0  0  0  0
  -21.9980   -9.0220   20.4490 C   0  0  0  0  0  3  0  0  0  0  0  0
  -22.7020  -10.2210   20.2550 C   0  0  0  0  0  3  0  0  0  0  0  0
  -21.7140   -6.9100   21.4780 O   0  0  0  0  0  0  0  0  0  0  0  0
  -21.6970   -6.1670   22.6290 C   0  0  0  0  0  0  0  0  0  0  0  0
  -21.2950   -6.7160   23.8670 C   0  0  0  0  0  3  0  0  0  0  0  0
  -21.2280   -5.8990   25.0120 C   0  0  0  0  0  3  0  0  0  0  0  0
  -21.5520   -4.5310   24.9220 C   0  0  0  0  0  0  0  0  0  0  0  0
  -21.9470   -3.9810   23.6900 C   0  0  0  0  0  3  0  0  0  0  0  0
  -22.0170   -4.7960   22.5470 C   0  0  0  0  0  0  0  0  0  0  0  0
  -22.3780   -4.2560   21.3590 F   0  0  0  0  0  0  0  0  0  0  0  0
  -21.4800   -3.7430   26.0200 F   0  0  0  0  0  0  0  0  0  0  0  0
  -22.7180  -13.5670   21.2000 C   0  0  0  0  0  0  0  0  0  0  0  0
  -22.0340  -12.8530   22.0880 N   0  0  0  0  0  0  0  0  0  0  0  0
  -22.2450  -14.5930   20.7110 O   0  0  0  0  0  0  0  0  0  0  0  0
  -22.4290  -12.0240   22.5080 H   0  0  0  0  0  0  0  0  0  0  0  0
  -21.1060  -13.1430   22.3570 H   0  0  0  0  0  0  0  0  0  0  0  0
  -25.2930  -15.2710   20.2830 N   0  0  0  0  0  0  0  0  0  0  0  0
  -24.5220  -15.9150   20.4280 H   0  0  0  0  0  0  0  0  0  0  0  0
  -26.1150  -15.7140   19.8920 H   0  0  0  0  0  0  0  0  0  0  0  0
  -28.4270  -21.3420   17.9480 N   0  0  0  0  0  0  0  0  0  0  0  0
  -26.7550  -23.1730   17.7930 C   0  0  0  0  0  1  0  0  0  0  0  0
  -27.0040  -21.6720   17.9750 C   0  0  0  0  0  2  0  0  0  0  0  0
  -30.0730  -22.3690   16.3990 C   0  0  0  0  0  1  0  0  0  0  0  0
  -29.0670  -21.2390   16.6340 C   0  0  0  0  0  2  0  0  0  0  0  0
  2  5  2  0
  2  6  1  0
  3  1  1  0
  3 54  1  0
  4  8  1  0
  4  1  2  0
  5  4  1  0
  6  3  2  0
  7  6  1  0
  8 10  1  0
  9  8  1  0
 11 10  1  0
 11 12  2  0
 13 12  1  0
 14 25  2  0
 15 13  1  0
 15 20  1  0
 16 24  1  0
 16 26  1  0
 17 19  1  0
 18 24  1  0
 19 20  2  0
 19 18  1  0
 21 15  2  0
 22 21  1  0
 22 17  2  0
 23 17  1  0
 23 16  1  0
 24 14  1  0
 26 28  2  0
 27 26  1  0
 29 27  1  0
 30 39  2  0
 30 35  1  0
 31 27  1  0
 31 35  1  0
 32 31  1  0
 33 34  1  0
 33 32  1  0
 34 30  1  0
 35 36  2  0
 36 37  1  0
 38 37  2  0
 39 38  1  0
 40 14  1  0
 40 41  1  0
 40 50  1  0
 41 44  1  0
 42 46  1  0
 42 41  1  0
 43 42  2  0
 46 45  1  0
 48 49  1  0
 48 46  1  0
 48 47  1  0
 50 53  1  1
 50 51  1  0
 52 50  1  0
 55 63  1  0
 56 61  1  0
 57 58  1  0
 57 56  1  0
 59 58  1  0
 59 68  1  0
 59 60  1  0
 61 55  1  0
 61 60  1  0
 62 55  2  0
 63 54  1  0
 63 64  1  0
 65 66  2  0
 66 85  1  0
 67 66  1  0
 67 70  1  0
 68 69  1  0
 68 65  1  0
 69 67  2  0
 70 71  1  0
 71 72  2  0
 73 76  1  0
 73 72  1  0
 74 73  2  0
 75 74  1  0
 75 70  2  0
 76 77  1  0
 77 78  1  0
 78 79  2  0
 80 79  1  0
 80 84  1  0
 81 80  2  0
 82 77  2  0
 82 81  1  0
 83 82  1  0
 85 86  1  0
 86 89  1  0
 86 88  1  0
 87 85  2  0
 90 91  1  0
 90 65  1  0
 92 90  1  0
 93 95  1  0
 93  5  1  0
 94 95  1  0
 96 97  1  0
 97 93  1  0
M  ISO  4  12 101  13 101  55 100  63 100
M  END
>  <TORSDO>  (19) 
F 24

>  <SCORE>  (19) 
-12.621

>  <name>  (19) 
18

>  <ligand_id>  (19) 
18

>  <original_smiles>  (19) 
[H]c1c([H])c([H])c2c(c1[H])C([H])([H])C([H])([H])C([H])([H])C2([H])N([H])C(=O)C1([H])N(C(=O)C([H])(N([H])C(=O)C([H])(N([H])C([H])([H])[H])C([H])([H])[H])C(C([H])([H])[H])(C([H])([H])[H])C([H])([H])[H])C([H])([H])c2c([H])c(OC([H])([H])C([H])([H])C([H])([H])N([H])c3c([H])c(C([H])([H])N([H])C(=O)N4C([H])([H])C([H])([H])C([H])([H])C([H])(n5nc(-c6c([H])c([H])c(Oc7c([H])c([H])c(F)c([H])c7F)c([H])c6[H])c(C(=O)N([H])[H])c5N([H])[H])C4([H])[H])c(F)c([H])c3N(C([H])([H])C([H])([H])[H])C([H])([H])C([H])([H])[H])c([H])c([H])c2C1([H])[H]

>  <smiles>  (19) 
[H]c1c([H])c([H])c2c(c1[H])C([H])([H])C([H])([H])C([H])([H])C2([H])N([H])C(=O)C1([H])N(C(=O)C([H])(N([H])C(=O)C([H])(N([H])C([H])([H])[H])C([H])([H])[H])C(C([H])([H])[H])(C([H])([H])[H])C([H])([H])[H])C([H])([H])c2c([H])c(OC([H])([H])C([H])([H])C([H])([H])N([H])c3c([H])c(C([H])([H])N([H])C(=O)N4C([H])([H])C([H])([H])C([H])([H])C([H])(n5nc(-c6c([H])c([H])c(Oc7c([H])c([H])c(F)c([H])c7F)c([H])c6[H])c(C(=O)N([H])[H])c5N([H])[H])C4([H])[H])c(F)c([H])c3N(C([H])([H])C([H])([H])[H])C([H])([H])C([H])([H])[H])c([H])c([H])c2C1([H])[H]

$$$$
19:0:0
     RDKit          3D

 92101  0  0  1  0  0  0  0  0999 V2000
  -30.2580  -23.2090   22.2190 C   0  0  0  0  0  2  0  0  0  0  0  0
  -30.6250  -23.7620   20.8370 C   0  0  0  0  0  2  0  0  0  0  0  0
  -29.0690  -22.2650   21.9800 C   0  0  0  0  0  2  0  0  0  0  0  0
  -29.4320  -23.3870   19.9600 C   0  0  0  0  0  3  0  0  0  0  0  0
  -29.0280  -22.0050   20.5410 N   0  0  0  0  0  0  0  0  0  0  0  0
  -30.7290  -19.9780   20.3440 C   0  0  0  0  0  3  0  0  0  0  0  0
  -30.9920  -18.5350   20.3440 C   0  0  0  0  0  3  0  0  0  0  0  0
  -28.6710  -18.1380   20.3060 C   0  0  0  0  0  3  0  0  0  0  0  0
  -28.4010  -19.5590   20.3050 C   0  0  0  0  0  0  0  0  0  0  0  0
  -29.4160  -20.5780   20.3380 C   0  0  0  0  0  0  0  0  0  0  0  0
  -29.9640  -17.5280   20.3410 C   0  0  0  0  0  0  0  0  0  0  0  0
  -26.9390  -19.9820   20.2960 C   0  0  0  0  0  1  0  0  0  0  0  0
  -30.8800  -14.9210   20.0210 C   0  0  0  0  0  0  0  0  0  0  0  0
  -30.7240  -12.6080   19.0010 C   0  0  0  0  0  2  0  0  0  0  0  0
  -29.7130  -12.6340   17.8270 C   0  0  0  0  0  2  0  0  0  0  0  0
  -28.2720  -12.4270   18.3340 C   0  0  0  0  0  2  0  0  0  0  0  0
  -27.9490  -13.3060   19.5700 C   0  0  0  0  0  3  0  0  0  0  0  0
  -29.0670  -13.2300   20.6330 C   0  0  0  0  0  2  0  0  0  0  0  0
  -30.3170  -13.6500   19.9800 N   0  0  0  0  0  0  0  0  0  0  0  0
  -32.0430  -15.0610   19.6240 O   0  0  0  0  0  0  0  0  0  0  0  0
  -30.0330  -15.9990   20.3620 N   0  0  0  0  0  0  0  0  0  0  0  0
  -29.1610  -15.6040   20.6810 H   0  0  0  0  0  0  0  0  0  0  0  0
  -25.6210  -13.8910   20.4680 C   0  0  0  0  0  0  0  0  0  0  0  0
  -24.5680  -13.1160   20.8690 C   0  0  0  0  0  0  0  0  0  0  0  0
  -25.0060  -11.7610   20.7510 C   0  0  0  0  0  0  0  0  0  0  0  0
  -26.6340  -13.0090   20.1290 N   0  0  0  0  0  0  0  0  0  0  0  0
  -26.2750  -11.7200   20.3620 N   0  0  0  0  0  0  0  0  0  0  0  0
  -24.2710  -10.5020   20.9270 C   0  0  0  0  0  0  0  0  0  0  0  0
  -24.6960   -9.5210   21.8510 C   0  0  0  0  0  3  0  0  0  0  0  0
  -23.9600   -8.3280   22.0170 C   0  0  0  0  0  3  0  0  0  0  0  0
  -22.7860   -8.1070   21.2580 C   0  0  0  0  0  0  0  0  0  0  0  0
  -22.3800   -9.0770   20.3240 C   0  0  0  0  0  3  0  0  0  0  0  0
  -23.1160  -10.2620   20.1560 C   0  0  0  0  0  3  0  0  0  0  0  0
  -22.0220   -6.9670   21.3340 O   0  0  0  0  0  0  0  0  0  0  0  0
  -21.8910   -6.2650   22.5050 C   0  0  0  0  0  0  0  0  0  0  0  0
  -21.3950   -6.8660   23.6830 C   0  0  0  0  0  3  0  0  0  0  0  0
  -21.2120   -6.0900   24.8460 C   0  0  0  0  0  3  0  0  0  0  0  0
  -21.5130   -4.7160   24.8300 C   0  0  0  0  0  0  0  0  0  0  0  0
  -22.0020   -4.1150   23.6570 C   0  0  0  0  0  3  0  0  0  0  0  0
  -22.1870   -4.8870   22.4960 C   0  0  0  0  0  0  0  0  0  0  0  0
  -22.6380   -4.2980   21.3630 F   0  0  0  0  0  0  0  0  0  0  0  0
  -21.3310   -3.9680   25.9440 F   0  0  0  0  0  0  0  0  0  0  0  0
  -23.1970  -13.6010   21.2430 C   0  0  0  0  0  0  0  0  0  0  0  0
  -22.5180  -12.8900   22.1360 N   0  0  0  0  0  0  0  0  0  0  0  0
  -22.7400  -14.6430   20.7770 O   0  0  0  0  0  0  0  0  0  0  0  0
  -22.9020  -12.0450   22.5330 H   0  0  0  0  0  0  0  0  0  0  0  0
  -21.6010  -13.1950   22.4280 H   0  0  0  0  0  0  0  0  0  0  0  0
  -25.7940  -15.2670   20.3360 N   0  0  0  0  0  0  0  0  0  0  0  0
  -25.0260  -15.9110   20.4920 H   0  0  0  0  0  0  0  0  0  0  0  0
  -26.5860  -15.7000   19.8820 H   0  0  0  0  0  0  0  0  0  0  0  0
  -28.3360  -24.6690   19.9930 C   0  0  0  0  0  2  0  0  0  0  0  0
  -28.6040  -26.1880   19.8180 O   0  0  0  0  0  0  0  0  0  0  0  0
  -24.8650  -31.6130   23.1210 C   0  0  0  0  0  0  0  0  0  0  0  0
  -27.5310  -27.1470   19.8280 C   0  0  0  0  0  0  0  0  0  0  0  0
  -23.7050  -30.3310   21.3640 C   0  0  0  0  0  3  0  0  0  0  0  0
  -25.1900  -28.8660   19.8680 C   0  0  0  0  0  0  0  0  0  0  0  0
  -26.2600  -30.6200   21.2700 C   0  0  0  0  0  2  0  0  0  0  0  0
  -26.3540  -29.2790   20.5280 C   0  0  0  0  0  0  0  0  0  0  0  0
  -27.5270  -28.4370   20.4920 C   0  0  0  0  0  3  0  0  0  0  0  0
  -26.3420  -26.8380   19.1300 C   0  0  0  0  0  3  0  0  0  0  0  0
  -25.1950  -27.6590   19.1550 C   0  0  0  0  0  3  0  0  0  0  0  0
  -23.9570  -29.7530   19.9470 C   0  0  0  0  0  2  0  0  0  0  0  0
  -24.9620  -30.8720   21.9750 N   0  0  0  0  0  0  0  0  0  0  0  0
  -23.7670  -31.8570   23.6430 O   0  0  0  0  0  0  0  0  0  0  0  0
  -23.0120  -29.2570   22.2380 C   0  0  0  0  0  0  0  0  0  0  0  0
  -21.6820  -29.1130   22.0940 N   0  0  0  0  0  0  0  0  0  0  0  0
  -23.6730  -28.5580   23.0110 O   0  0  0  0  0  0  0  0  0  0  0  0
  -21.2070  -29.7290   21.4500 H   0  0  0  0  0  0  0  0  0  0  0  0
  -18.2740  -27.9760   22.5510 C   0  0  0  0  0  0  0  0  0  0  0  0
  -20.8450  -28.1280   22.7850 C   0  0  0  0  0  3  0  0  0  0  0  0
  -20.8880  -26.7590   22.0650 C   0  0  0  0  0  2  0  0  0  0  0  0
  -19.7550  -26.5760   21.0500 C   0  0  0  0  0  2  0  0  0  0  0  0
  -18.3920  -26.6980   21.7380 C   0  0  0  0  0  2  0  0  0  0  0  0
  -19.4260  -28.6550   23.0290 C   0  0  0  0  0  0  0  0  0  0  0  0
  -19.2600  -29.8550   23.7540 C   0  0  0  0  0  3  0  0  0  0  0  0
  -17.9750  -30.3750   24.0020 C   0  0  0  0  0  3  0  0  0  0  0  0
  -16.8380  -29.6910   23.5390 C   0  0  0  0  0  3  0  0  0  0  0  0
  -16.9890  -28.4920   22.8180 C   0  0  0  0  0  3  0  0  0  0  0  0
  -26.1280  -32.2070   23.8170 C   0  0  0  0  0  3  0  0  0  0  0  0
  -25.8080  -33.5840   24.2220 N   0  0  0  0  0  0  0  0  0  0  0  0
  -26.1380  -34.6820   23.5280 C   0  0  0  0  0  0  0  0  0  0  0  0
  -26.8110  -34.6410   22.4940 O   0  0  0  0  0  0  0  0  0  0  0  0
  -25.2100  -33.6900   25.0280 H   0  0  0  0  0  0  0  0  0  0  0  0
  -24.3890  -36.4760   23.2960 C   0  0  0  0  0  1  0  0  0  0  0  0
  -25.6470  -36.0410   24.0650 C   0  0  0  0  0  3  0  0  0  0  0  0
  -27.7840  -36.9070   24.9100 C   0  0  0  0  0  1  0  0  0  0  0  0
  -26.6680  -37.1090   23.9900 N   0  0  0  0  0  0  0  0  0  0  0  0
  -26.2550  -38.0170   24.1860 H   0  0  0  0  0  0  0  0  0  0  0  0
  -26.6030  -31.3620   25.0620 C   0  0  1  0  0  0  0  0  0  0  0  0
  -25.4790  -31.0760   26.0860 C   0  0  0  0  0  1  0  0  0  0  0  0
  -27.1870  -30.0030   24.6150 C   0  0  0  0  0  1  0  0  0  0  0  0
  -27.7390  -32.1100   25.7980 C   0  0  0  0  0  1  0  0  0  0  0  0
  2  1  1  0
  3  1  1  0
  4 51  1  0
  4  5  1  0
  4  2  1  0
  5  3  1  0
  6  7  1  0
  8 11  1  0
  9  8  2  0
  9 10  1  0
 10  6  2  0
 10  5  1  0
 11  7  2  0
 11 21  1  0
 12  9  1  0
 13 21  1  0
 14 19  1  0
 15 16  1  0
 15 14  1  0
 17 16  1  0
 17 26  1  0
 17 18  1  0
 19 13  1  0
 19 18  1  0
 20 13  2  0
 21 22  1  0
 23 24  2  0
 24 43  1  0
 25 24  1  0
 25 28  1  0
 26 27  1  0
 26 23  1  0
 27 25  2  0
 28 29  1  0
 29 30  2  0
 31 34  1  0
 31 30  1  0
 32 31  2  0
 33 32  1  0
 33 28  2  0
 34 35  1  0
 35 36  1  0
 36 37  2  0
 38 37  1  0
 38 42  1  0
 39 38  2  0
 40 35  2  0
 40 39  1  0
 41 40  1  0
 43 44  1  0
 44 47  1  0
 44 46  1  0
 45 43  2  0
 48 23  1  0
 48 49  1  0
 50 48  1  0
 52 54  1  0
 52 51  1  0
 53 64  2  0
 54 59  1  0
 55 63  1  0
 55 65  1  0
 56 62  1  0
 56 58  1  0
 57 63  1  0
 58 57  1  0
 59 58  2  0
 60 61  1  0
 60 54  2  0
 61 56  2  0
 62 55  1  0
 63 53  1  0
 65 67  2  0
 66 65  1  0
 68 66  1  0
 69 78  2  0
 69 74  1  0
 70 66  1  0
 70 74  1  0
 71 70  1  0
 72 73  1  0
 72 71  1  0
 73 69  1  0
 74 75  2  0
 75 76  1  0
 77 76  2  0
 78 77  1  0
 79 53  1  0
 79 80  1  0
 79 89  1  0
 80 83  1  0
 81 85  1  0
 81 80  1  0
 82 81  2  0
 85 84  1  0
 87 85  1  0
 87 88  1  0
 87 86  1  0
 89 92  1  1
 89 90  1  0
 91 89  1  0
M  ISO  4  13 100  21 100  51 101  52 101
M  END
>  <TORSDO>  (20) 
F 18

>  <SCORE>  (20) 
-13.132

>  <name>  (20) 
19

>  <ligand_id>  (20) 
19

>  <original_smiles>  (20) 
[H]c1c([H])c([H])c2c(c1[H])C([H])([H])C([H])([H])C([H])([H])C2([H])N([H])C(=O)C1([H])N(C(=O)C([H])(N([H])C(=O)C([H])(N([H])C([H])([H])[H])C([H])([H])[H])C(C([H])([H])[H])(C([H])([H])[H])C([H])([H])[H])C([H])([H])c2c([H])c(OC([H])([H])C3([H])N(c4c([H])c([H])c(N([H])C(=O)N5C([H])([H])C([H])([H])C([H])([H])C([H])(n6nc(-c7c([H])c([H])c(Oc8c([H])c([H])c(F)c([H])c8F)c([H])c7[H])c(C(=O)N([H])[H])c6N([H])[H])C5([H])[H])c([H])c4C([H])([H])[H])C([H])([H])C([H])([H])C3([H])[H])c([H])c([H])c2C1([H])[H]

>  <smiles>  (20) 
[H]c1c([H])c([H])c2c(c1[H])C([H])([H])C([H])([H])C([H])([H])C2([H])N([H])C(=O)C1([H])N(C(=O)C([H])(N([H])C(=O)C([H])(N([H])C([H])([H])[H])C([H])([H])[H])C(C([H])([H])[H])(C([H])([H])[H])C([H])([H])[H])C([H])([H])c2c([H])c(OC([H])([H])C3([H])N(c4c([H])c([H])c(N([H])C(=O)N5C([H])([H])C([H])([H])C([H])([H])C([H])(n6nc(-c7c([H])c([H])c(Oc8c([H])c([H])c(F)c([H])c8F)c([H])c7[H])c(C(=O)N([H])[H])c6N([H])[H])C5([H])[H])c([H])c4C([H])([H])[H])C([H])([H])C([H])([H])C3([H])[H])c([H])c([H])c2C1([H])[H]

$$$$
20:0:0
     RDKit          3D

 94102  0  0  1  0  0  0  0  0999 V2000
  -29.3950  -21.3090   21.1000 N   0  0  0  0  0  0  0  0  0  0  0  0
  -30.2410  -18.9690   21.5010 C   0  0  0  0  0  3  0  0  0  0  0  0
  -30.3770  -17.5980   21.1590 C   0  0  0  0  0  3  0  0  0  0  0  0
  -28.6070  -19.2850   19.7860 C   0  0  0  0  0  3  0  0  0  0  0  0
  -28.7220  -17.9010   19.4250 C   0  0  0  0  0  0  0  0  0  0  0  0
  -29.4090  -19.8890   20.7930 C   0  0  0  0  0  0  0  0  0  0  0  0
  -29.6720  -17.0260   20.0730 C   0  0  0  0  0  0  0  0  0  0  0  0
  -27.8140  -17.4320   18.2870 C   0  0  0  0  0  1  0  0  0  0  0  0
  -30.6550  -14.6530   20.2560 C   0  0  0  0  0  0  0  0  0  0  0  0
  -30.3930  -12.3620   19.3790 C   0  0  0  0  0  2  0  0  0  0  0  0
  -29.4820  -12.4360   18.1410 C   0  0  0  0  0  2  0  0  0  0  0  0
  -27.9940  -12.3610   18.5500 C   0  0  0  0  0  2  0  0  0  0  0  0
  -27.6270  -13.2620   19.7600 C   0  0  0  0  0  3  0  0  0  0  0  0
  -28.6790  -13.2000   20.8790 C   0  0  0  0  0  2  0  0  0  0  0  0
  -29.9800  -13.4650   20.2600 N   0  0  0  0  0  0  0  0  0  0  0  0
  -31.8890  -14.6560   20.2750 O   0  0  0  0  0  0  0  0  0  0  0  0
  -30.4980  -15.7630   18.1580 C   0  0  0  0  0  1  0  0  0  0  0  0
  -30.0310  -15.6870   19.5620 N   0  0  0  0  0  0  0  0  0  0  0  0
  -25.2350  -13.8540   20.4770 C   0  0  0  0  0  0  0  0  0  0  0  0
  -24.1650  -13.0790   20.8450 C   0  0  0  0  0  0  0  0  0  0  0  0
  -24.6320  -11.7290   20.8290 C   0  0  0  0  0  0  0  0  0  0  0  0
  -26.2820  -12.9750   20.2560 N   0  0  0  0  0  0  0  0  0  0  0  0
  -25.9250  -11.6920   20.5310 N   0  0  0  0  0  0  0  0  0  0  0  0
  -23.9020  -10.4640   21.0170 C   0  0  0  0  0  0  0  0  0  0  0  0
  -24.3160   -9.5040   21.9680 C   0  0  0  0  0  3  0  0  0  0  0  0
  -23.5830   -8.3100   22.1440 C   0  0  0  0  0  3  0  0  0  0  0  0
  -22.4260   -8.0700   21.3690 C   0  0  0  0  0  0  0  0  0  0  0  0
  -22.0320   -9.0160   20.4070 C   0  0  0  0  0  3  0  0  0  0  0  0
  -22.7650  -10.1990   20.2290 C   0  0  0  0  0  3  0  0  0  0  0  0
  -21.6650   -6.9290   21.4550 O   0  0  0  0  0  0  0  0  0  0  0  0
  -21.5860   -6.2000   22.6130 C   0  0  0  0  0  0  0  0  0  0  0  0
  -21.1130   -6.7640   23.8190 C   0  0  0  0  0  3  0  0  0  0  0  0
  -20.9880   -5.9610   24.9700 C   0  0  0  0  0  3  0  0  0  0  0  0
  -21.3220   -4.5940   24.9140 C   0  0  0  0  0  0  0  0  0  0  0  0
  -21.7840   -4.0300   23.7130 C   0  0  0  0  0  3  0  0  0  0  0  0
  -21.9150   -4.8320   22.5650 C   0  0  0  0  0  0  0  0  0  0  0  0
  -22.3430   -4.2770   21.4050 F   0  0  0  0  0  0  0  0  0  0  0  0
  -21.1910   -3.8210   26.0160 F   0  0  0  0  0  0  0  0  0  0  0  0
  -22.7640  -13.5590   21.0940 C   0  0  0  0  0  0  0  0  0  0  0  0
  -22.0180  -12.8660   21.9490 N   0  0  0  0  0  0  0  0  0  0  0  0
  -22.3410  -14.5860   20.5680 O   0  0  0  0  0  0  0  0  0  0  0  0
  -22.3740  -12.0400   22.4080 H   0  0  0  0  0  0  0  0  0  0  0  0
  -21.0780  -13.1710   22.1590 H   0  0  0  0  0  0  0  0  0  0  0  0
  -25.4040  -15.2210   20.2910 N   0  0  0  0  0  0  0  0  0  0  0  0
  -24.6520  -15.8930   20.4160 H   0  0  0  0  0  0  0  0  0  0  0  0
  -26.2750  -15.6580   20.0130 H   0  0  0  0  0  0  0  0  0  0  0  0
  -29.8700  -21.6810   22.4470 C   0  0  0  0  0  2  0  0  0  0  0  0
  -31.4100  -21.6700   22.6480 C   0  0  0  0  0  2  0  0  0  0  0  0
  -32.6500  -21.3210   20.4180 C   0  0  0  0  0  1  0  0  0  0  0  0
  -32.2530  -22.3080   21.5320 C   0  0  0  0  0  2  0  0  0  0  0  0
  -28.4990  -22.2980   20.4020 C   0  0  0  0  0  2  0  0  0  0  0  0
  -28.9250  -23.8500   20.3810 C   0  0  0  0  0  3  0  0  0  0  0  0
  -27.8330  -24.9120   19.9330 C   0  0  0  0  0  3  0  0  0  0  0  0
  -28.1260  -26.3670   19.9920 O   0  0  0  0  0  0  0  0  0  0  0  0
  -24.5060  -31.7730   23.0950 C   0  0  0  0  0  0  0  0  0  0  0  0
  -27.0230  -27.2370   19.9460 C   0  0  0  0  0  0  0  0  0  0  0  0
  -23.2570  -30.3830   21.4850 C   0  0  0  0  0  3  0  0  0  0  0  0
  -24.6650  -28.8520   20.0060 C   0  0  0  0  0  0  0  0  0  0  0  0
  -25.7890  -30.7110   21.2260 C   0  0  0  0  0  2  0  0  0  0  0  0
  -25.8520  -29.3380   20.5720 C   0  0  0  0  0  0  0  0  0  0  0  0
  -27.0360  -28.5420   20.5340 C   0  0  0  0  0  3  0  0  0  0  0  0
  -25.8180  -26.8220   19.3340 C   0  0  0  0  0  3  0  0  0  0  0  0
  -24.6520  -27.6030   19.3690 C   0  0  0  0  0  3  0  0  0  0  0  0
  -23.4300  -29.7220   20.0940 C   0  0  0  0  0  2  0  0  0  0  0  0
  -24.5390  -30.9710   21.9930 N   0  0  0  0  0  0  0  0  0  0  0  0
  -23.4380  -32.0430   23.6660 O   0  0  0  0  0  0  0  0  0  0  0  0
  -22.6300  -29.3550   22.4560 C   0  0  0  0  0  0  0  0  0  0  0  0
  -21.3020  -29.1710   22.3650 N   0  0  0  0  0  0  0  0  0  0  0  0
  -23.3350  -28.7270   23.2520 O   0  0  0  0  0  0  0  0  0  0  0  0
  -20.7970  -29.7270   21.6880 H   0  0  0  0  0  0  0  0  0  0  0  0
  -17.9420  -27.9580   22.9370 C   0  0  0  0  0  0  0  0  0  0  0  0
  -20.5050  -28.2290   23.1520 C   0  0  0  0  0  3  0  0  0  0  0  0
  -20.6000  -26.7990   22.5710 C   0  0  0  0  0  2  0  0  0  0  0  0
  -19.4760  -26.4720   21.5830 C   0  0  0  0  0  2  0  0  0  0  0  0
  -18.1100  -26.6080   22.2600 C   0  0  0  0  0  2  0  0  0  0  0  0
  -19.0660  -28.7250   23.3420 C   0  0  0  0  0  0  0  0  0  0  0  0
  -18.8540  -29.9880   23.9360 C   0  0  0  0  0  3  0  0  0  0  0  0
  -17.5530  -30.4810   24.1340 C   0  0  0  0  0  3  0  0  0  0  0  0
  -16.4430  -29.7110   23.7440 C   0  0  0  0  0  3  0  0  0  0  0  0
  -16.6390  -28.4520   23.1510 C   0  0  0  0  0  3  0  0  0  0  0  0
  -25.8050  -32.4060   23.6810 C   0  0  0  0  0  3  0  0  0  0  0  0
  -25.4890  -33.7900   24.0610 N   0  0  0  0  0  0  0  0  0  0  0  0
  -25.8030  -34.8700   23.3330 C   0  0  0  0  0  0  0  0  0  0  0  0
  -26.4620  -34.8050   22.2930 O   0  0  0  0  0  0  0  0  0  0  0  0
  -24.9070  -33.9110   24.8760 H   0  0  0  0  0  0  0  0  0  0  0  0
  -24.0730  -36.6730   23.0350 C   0  0  0  0  0  1  0  0  0  0  0  0
  -25.3080  -36.2390   23.8400 C   0  0  0  0  0  3  0  0  0  0  0  0
  -27.4310  -37.1010   24.7250 C   0  0  0  0  0  1  0  0  0  0  0  0
  -26.3380  -37.2990   23.7760 N   0  0  0  0  0  0  0  0  0  0  0  0
  -25.9250  -38.2130   23.9480 H   0  0  0  0  0  0  0  0  0  0  0  0
  -26.3760  -31.6070   24.9170 C   0  0  1  0  0  0  0  0  0  0  0  0
  -25.3280  -31.3290   26.0200 C   0  0  0  0  0  1  0  0  0  0  0  0
  -26.9600  -30.2470   24.4680 C   0  0  0  0  0  1  0  0  0  0  0  0
  -27.5380  -32.4000   25.5590 C   0  0  0  0  0  1  0  0  0  0  0  0
  1 47  1  0
  3  2  1  0
  4  6  1  0
  5  4  2  0
  5  7  1  0
  6  1  1  0
  6  2  2  0
  7  3  2  0
  8  5  1  0
  9 15  1  0
  9 16  2  0
 10 15  1  0
 11 12  1  0
 11 10  1  0
 13 12  1  0
 13 22  1  0
 13 14  1  0
 15 14  1  0
 17 18  1  0
 18  7  1  0
 18  9  1  0
 19 20  2  0
 20 39  1  0
 21 20  1  0
 21 24  1  0
 22 19  1  0
 22 23  1  0
 23 21  2  0
 24 25  1  0
 25 26  2  0
 27 30  1  0
 27 26  1  0
 28 27  2  0
 29 28  1  0
 29 24  2  0
 30 31  1  0
 31 32  1  0
 32 33  2  0
 34 33  1  0
 34 38  1  0
 35 34  2  0
 36 31  2  0
 36 35  1  0
 37 36  1  0
 39 40  1  0
 40 43  1  0
 40 42  1  0
 41 39  2  0
 44 45  1  0
 44 19  1  0
 46 44  1  0
 47 48  1  0
 49 50  1  0
 50 48  1  0
 51  1  1  0
 52 51  1  0
 53 54  1  0
 53 52  2  0
 55 66  2  0
 56 54  1  0
 56 61  1  0
 57 65  1  0
 57 67  1  0
 58 64  1  0
 58 60  1  0
 59 65  1  0
 60 59  1  0
 61 60  2  0
 62 63  1  0
 62 56  2  0
 63 58  2  0
 64 57  1  0
 65 55  1  0
 67 69  2  0
 68 67  1  0
 70 68  1  0
 71 80  2  0
 71 76  1  0
 72 68  1  0
 72 76  1  0
 73 72  1  0
 74 75  1  0
 74 73  1  0
 75 71  1  0
 76 77  2  0
 77 78  1  0
 79 78  2  0
 80 79  1  0
 81 55  1  0
 81 82  1  0
 81 91  1  0
 82 85  1  0
 83 87  1  0
 83 82  1  0
 84 83  2  0
 87 86  1  0
 89 87  1  0
 89 90  1  0
 89 88  1  0
 91 94  1  1
 91 92  1  0
 93 91  1  0
M  ISO  4   9 100  18 100  53 101  54 101
M  END
>  <TORSDO>  (21) 
F 23

>  <SCORE>  (21) 
-12.034

>  <name>  (21) 
20

>  <ligand_id>  (21) 
20

>  <original_smiles>  (21) 
[H]c1c([H])c([H])c2c(c1[H])C([H])([H])C([H])([H])C([H])([H])C2([H])N([H])C(=O)C1([H])N(C(=O)C([H])(N([H])C(=O)C([H])(N([H])C([H])([H])[H])C([H])([H])[H])C(C([H])([H])[H])(C([H])([H])[H])C([H])([H])[H])C([H])([H])c2c([H])c(OC([H])([H])C([H])([H])C([H])([H])N(c3c([H])c([H])c(N(C(=O)N4C([H])([H])C([H])([H])C([H])([H])C([H])(n5nc(-c6c([H])c([H])c(Oc7c([H])c([H])c(F)c([H])c7F)c([H])c6[H])c(C(=O)N([H])[H])c5N([H])[H])C4([H])[H])C([H])([H])[H])c(C([H])([H])[H])c3[H])C([H])([H])C([H])([H])C([H])([H])C([H])([H])[H])c([H])c([H])c2C1([H])[H]

>  <smiles>  (21) 
[H]c1c([H])c([H])c2c(c1[H])C([H])([H])C([H])([H])C([H])([H])C2([H])N([H])C(=O)C1([H])N(C(=O)C([H])(N([H])C(=O)C([H])(N([H])C([H])([H])[H])C([H])([H])[H])C(C([H])([H])[H])(C([H])([H])[H])C([H])([H])[H])C([H])([H])c2c([H])c(OC([H])([H])C([H])([H])C([H])([H])N(c3c([H])c([H])c(N(C(=O)N4C([H])([H])C([H])([H])C([H])([H])C([H])(n5nc(-c6c([H])c([H])c(Oc7c([H])c([H])c(F)c([H])c7F)c([H])c6[H])c(C(=O)N([H])[H])c5N([H])[H])C4([H])[H])C([H])([H])[H])c(C([H])([H])[H])c3[H])C([H])([H])C([H])([H])C([H])([H])C([H])([H])[H])c([H])c([H])c2C1([H])[H]

$$$$
21:0:0
     RDKit          3D

 93102  0  0  1  0  0  0  0  0999 V2000
  -27.9600  -23.3060   22.3710 C   0  0  0  0  0  2  0  0  0  0  0  0
  -26.9570  -23.5380   21.2430 C   0  0  0  0  0  2  0  0  0  0  0  0
  -29.1750  -22.6170   21.7160 C   0  0  0  0  0  2  0  0  0  0  0  0
  -27.7980  -23.3690   19.9770 C   0  0  0  0  0  3  0  0  0  0  0  0
  -28.8050  -22.2380   20.3400 N   0  0  0  0  0  0  0  0  0  0  0  0
  -30.1620  -20.0530   20.4840 C   0  0  0  0  0  3  0  0  0  0  0  0
  -28.0980  -19.8210   19.4270 C   0  0  0  0  0  3  0  0  0  0  0  0
  -30.4080  -18.6270   20.3630 C   0  0  0  0  0  3  0  0  0  0  0  0
  -28.3350  -18.3710   19.3210 C   0  0  0  0  0  3  0  0  0  0  0  0
  -28.9830  -20.7670   20.0620 C   0  0  0  0  0  0  0  0  0  0  0  0
  -29.5030  -17.6580   19.8080 C   0  0  0  0  0  0  0  0  0  0  0  0
  -30.1660  -15.0150   19.3060 C   0  0  0  0  0  0  0  0  0  0  0  0
  -29.8800  -12.7200   18.2210 C   0  0  0  0  0  2  0  0  0  0  0  0
  -28.7060  -12.6660   17.2120 C   0  0  0  0  0  2  0  0  0  0  0  0
  -27.3570  -12.4210   17.9100 C   0  0  0  0  0  2  0  0  0  0  0  0
  -27.1900  -13.2840   19.1800 C   0  0  0  0  0  3  0  0  0  0  0  0
  -28.4470  -13.2040   20.0660 C   0  0  0  0  0  2  0  0  0  0  0  0
  -29.5720  -13.7370   19.2730 N   0  0  0  0  0  0  0  0  0  0  0  0
  -31.1830  -15.1460   18.6130 O   0  0  0  0  0  0  0  0  0  0  0  0
  -29.6450  -16.1250   20.0750 N   0  0  0  0  0  0  0  0  0  0  0  0
  -24.9980  -13.8180   20.4010 C   0  0  0  0  0  0  0  0  0  0  0  0
  -24.0120  -13.0170   20.9170 C   0  0  0  0  0  0  0  0  0  0  0  0
  -24.4400  -11.6720   20.7040 C   0  0  0  0  0  0  0  0  0  0  0  0
  -25.9650  -12.9560   19.9070 N   0  0  0  0  0  0  0  0  0  0  0  0
  -25.6510  -11.6550   20.1490 N   0  0  0  0  0  0  0  0  0  0  0  0
  -23.7460  -10.4010   20.9430 C   0  0  0  0  0  0  0  0  0  0  0  0
  -24.2880   -9.4210   21.8030 C   0  0  0  0  0  3  0  0  0  0  0  0
  -23.5930   -8.2150   22.0420 C   0  0  0  0  0  3  0  0  0  0  0  0
  -22.3450   -7.9820   21.4210 C   0  0  0  0  0  0  0  0  0  0  0  0
  -21.8190   -8.9520   20.5490 C   0  0  0  0  0  3  0  0  0  0  0  0
  -22.5130  -10.1470   20.3090 C   0  0  0  0  0  3  0  0  0  0  0  0
  -21.6100   -6.8310   21.5740 O   0  0  0  0  0  0  0  0  0  0  0  0
  -21.6400   -6.1020   22.7370 C   0  0  0  0  0  0  0  0  0  0  0  0
  -21.2910   -6.6740   23.9790 C   0  0  0  0  0  3  0  0  0  0  0  0
  -21.2700   -5.8740   25.1400 C   0  0  0  0  0  3  0  0  0  0  0  0
  -21.5850   -4.5060   25.0590 C   0  0  0  0  0  0  0  0  0  0  0  0
  -21.9240   -3.9330   23.8200 C   0  0  0  0  0  3  0  0  0  0  0  0
  -21.9490   -4.7280   22.6630 C   0  0  0  0  0  0  0  0  0  0  0  0
  -22.2590   -4.1690   21.4680 F   0  0  0  0  0  0  0  0  0  0  0  0
  -21.5550   -3.7350   26.1720 F   0  0  0  0  0  0  0  0  0  0  0  0
  -22.7010  -13.4790   21.4840 C   0  0  0  0  0  0  0  0  0  0  0  0
  -22.1720  -12.7560   22.4630 N   0  0  0  0  0  0  0  0  0  0  0  0
  -22.1670  -14.5150   21.0960 O   0  0  0  0  0  0  0  0  0  0  0  0
  -22.6270  -11.9210   22.8060 H   0  0  0  0  0  0  0  0  0  0  0  0
  -21.3010  -13.0480   22.8860 H   0  0  0  0  0  0  0  0  0  0  0  0
  -25.1450  -15.1950   20.2840 N   0  0  0  0  0  0  0  0  0  0  0  0
  -24.4400  -15.8560   20.5910 H   0  0  0  0  0  0  0  0  0  0  0  0
  -25.9290  -15.6460   19.8310 H   0  0  0  0  0  0  0  0  0  0  0  0
  -29.6040  -15.9070   21.5530 C   0  0  0  0  0  2  0  0  0  0  0  0
  -32.0560  -15.1250   21.8370 C   0  0  0  0  0  1  0  0  0  0  0  0
  -30.5770  -14.8710   22.1750 C   0  0  0  0  0  2  0  0  0  0  0  0
  -28.3080  -24.8950   19.5120 C   0  0  0  0  0  2  0  0  0  0  0  0
  -28.1210  -26.2980   20.1160 O   0  0  0  0  0  0  0  0  0  0  0  0
  -24.5700  -31.8340   23.2180 C   0  0  0  0  0  0  0  0  0  0  0  0
  -27.0240  -27.2030   20.0250 C   0  0  0  0  0  0  0  0  0  0  0  0
  -23.3000  -30.4550   21.6060 C   0  0  0  0  0  3  0  0  0  0  0  0
  -24.6820  -28.9010   20.0950 C   0  0  0  0  0  0  0  0  0  0  0  0
  -25.8330  -30.7430   21.3340 C   0  0  0  0  0  2  0  0  0  0  0  0
  -25.8760  -29.3610   20.6670 C   0  0  0  0  0  0  0  0  0  0  0  0
  -27.0390  -28.5190   20.6230 C   0  0  0  0  0  3  0  0  0  0  0  0
  -25.8120  -26.8270   19.4100 C   0  0  0  0  0  3  0  0  0  0  0  0
  -24.6640  -27.6510   19.4470 C   0  0  0  0  0  3  0  0  0  0  0  0
  -23.4580  -29.7920   20.2090 C   0  0  0  0  0  2  0  0  0  0  0  0
  -24.5880  -31.0330   22.1090 N   0  0  0  0  0  0  0  0  0  0  0  0
  -23.5110  -32.1090   23.7980 O   0  0  0  0  0  0  0  0  0  0  0  0
  -22.6590  -29.4400   22.5870 C   0  0  0  0  0  0  0  0  0  0  0  0
  -21.3450  -29.1880   22.4380 N   0  0  0  0  0  0  0  0  0  0  0  0
  -23.3440  -28.8820   23.4480 O   0  0  0  0  0  0  0  0  0  0  0  0
  -20.8430  -29.6920   21.7190 H   0  0  0  0  0  0  0  0  0  0  0  0
  -18.0660  -27.7010   22.8070 C   0  0  0  0  0  0  0  0  0  0  0  0
  -20.5640  -28.2250   23.2170 C   0  0  0  0  0  3  0  0  0  0  0  0
  -20.8370  -26.7770   22.7480 C   0  0  0  0  0  2  0  0  0  0  0  0
  -19.8420  -26.2870   21.6910 C   0  0  0  0  0  2  0  0  0  0  0  0
  -18.4120  -26.3380   22.2330 C   0  0  0  0  0  2  0  0  0  0  0  0
  -19.0760  -28.5920   23.2540 C   0  0  0  0  0  0  0  0  0  0  0  0
  -18.6990  -29.8610   23.7440 C   0  0  0  0  0  3  0  0  0  0  0  0
  -17.3430  -30.2410   23.7880 C   0  0  0  0  0  3  0  0  0  0  0  0
  -16.3460  -29.3490   23.3570 C   0  0  0  0  0  3  0  0  0  0  0  0
  -16.7090  -28.0790   22.8770 C   0  0  0  0  0  3  0  0  0  0  0  0
  -25.8780  -32.4560   23.7980 C   0  0  0  0  0  3  0  0  0  0  0  0
  -26.4270  -31.6830   25.0610 C   0  0  1  0  0  0  0  0  0  0  0  0
  -25.3560  -31.4340   26.1470 C   0  0  0  0  0  1  0  0  0  0  0  0
  -27.0130  -30.3140   24.6510 C   0  0  0  0  0  1  0  0  0  0  0  0
  -27.5810  -32.4840   25.7080 C   0  0  0  0  0  1  0  0  0  0  0  0
  -25.6000  -33.8590   24.1450 N   0  0  0  0  0  0  0  0  0  0  0  0
  -25.8980  -34.9120   23.3730 C   0  0  0  0  0  0  0  0  0  0  0  0
  -26.5110  -34.8040   22.3080 O   0  0  0  0  0  0  0  0  0  0  0  0
  -25.0730  -34.0180   24.9920 H   0  0  0  0  0  0  0  0  0  0  0  0
  -24.1610  -36.7120   23.1220 C   0  0  0  0  0  1  0  0  0  0  0  0
  -25.4460  -36.3040   23.8600 C   0  0  0  0  0  3  0  0  0  0  0  0
  -27.6300  -37.1730   24.5600 C   0  0  0  0  0  1  0  0  0  0  0  0
  -26.4740  -37.3520   23.6890 N   0  0  0  0  0  0  0  0  0  0  0  0
  -26.0820  -38.2730   23.8730 H   0  0  0  0  0  0  0  0  0  0  0  0
  2  1  1  0
  3  1  1  0
  4 52  1  0
  4  5  1  0
  4  2  1  0
  5  3  1  0
  7 10  1  0
  8  6  1  0
  9  7  2  0
  9 11  1  0
 10  5  1  0
 10  6  2  0
 11 20  1  0
 11  8  2  0
 12 20  1  0
 13 18  1  0
 14 15  1  0
 14 13  1  0
 16 15  1  0
 16 24  1  0
 16 17  1  0
 18 12  1  0
 18 17  1  0
 19 12  2  0
 20 49  1  0
 21 22  2  0
 22 41  1  0
 23 22  1  0
 23 26  1  0
 24 25  1  0
 24 21  1  0
 25 23  2  0
 26 27  1  0
 27 28  2  0
 29 32  1  0
 29 28  1  0
 30 29  2  0
 31 30  1  0
 31 26  2  0
 32 33  1  0
 33 34  1  0
 34 35  2  0
 36 35  1  0
 36 40  1  0
 37 36  2  0
 38 33  2  0
 38 37  1  0
 39 38  1  0
 41 42  1  0
 42 44  1  0
 42 45  1  0
 43 41  2  0
 46 21  1  0
 46 47  1  0
 48 46  1  0
 49 51  1  0
 50 51  1  0
 52 53  1  0
 54 65  2  0
 55 53  1  0
 55 60  1  0
 56 64  1  0
 56 66  1  0
 57 63  1  0
 57 59  1  0
 58 64  1  0
 59 58  1  0
 60 59  2  0
 61 62  1  0
 61 55  2  0
 62 57  2  0
 63 56  1  0
 64 54  1  0
 66 68  2  0
 67 66  1  0
 69 67  1  0
 70 79  2  0
 70 75  1  0
 71 67  1  0
 71 75  1  0
 72 71  1  0
 73 74  1  0
 73 72  1  0
 74 70  1  0
 75 76  2  0
 76 77  1  0
 78 77  2  0
 79 78  1  0
 80 54  1  0
 80 85  1  0
 80 81  1  0
 81 84  1  1
 81 82  1  0
 83 81  1  0
 85 88  1  0
 86 90  1  0
 86 85  1  0
 87 86  2  0
 90 89  1  0
 92 90  1  0
 92 93  1  0
 92 91  1  0
M  ISO  4  12 100  20 100  52 101  53 101
M  END
>  <TORSDO>  (22) 
F 20

>  <SCORE>  (22) 
-10.403

>  <name>  (22) 
21

>  <ligand_id>  (22) 
21

>  <original_smiles>  (22) 
[H]c1c([H])c([H])c2c(c1[H])C([H])([H])C([H])([H])C([H])([H])C2([H])N([H])C(=O)C1([H])N(C(=O)C([H])(N([H])C(=O)C([H])(N([H])C([H])([H])[H])C([H])([H])[H])C(C([H])([H])[H])(C([H])([H])[H])C([H])([H])[H])C([H])([H])c2c([H])c(OC([H])([H])C3([H])N(c4c([H])c([H])c(N(C(=O)N5C([H])([H])C([H])([H])C([H])([H])C([H])(n6nc(-c7c([H])c([H])c(Oc8c([H])c([H])c(F)c([H])c8F)c([H])c7[H])c(C(=O)N([H])[H])c6N([H])[H])C5([H])[H])C([H])([H])C([H])([H])C([H])([H])[H])c([H])c4[H])C([H])([H])C([H])([H])C3([H])[H])c([H])c([H])c2C1([H])[H]

>  <smiles>  (22) 
[H]c1c([H])c([H])c2c(c1[H])C([H])([H])C([H])([H])C([H])([H])C2([H])N([H])C(=O)C1([H])N(C(=O)C([H])(N([H])C(=O)C([H])(N([H])C([H])([H])[H])C([H])([H])[H])C(C([H])([H])[H])(C([H])([H])[H])C([H])([H])[H])C([H])([H])c2c([H])c(OC([H])([H])C3([H])N(c4c([H])c([H])c(N(C(=O)N5C([H])([H])C([H])([H])C([H])([H])C([H])(n6nc(-c7c([H])c([H])c(Oc8c([H])c([H])c(F)c([H])c8F)c([H])c7[H])c(C(=O)N([H])[H])c6N([H])[H])C5([H])[H])C([H])([H])C([H])([H])C([H])([H])[H])c([H])c4[H])C([H])([H])C([H])([H])C3([H])[H])c([H])c([H])c2C1([H])[H]

$$$$
23:0:0
     RDKit          3D

 96105  0  0  1  0  0  0  0  0999 V2000
  -31.5440  -18.7670   18.6490 C   0  0  0  0  0  3  0  0  0  0  0  0
  -31.1500  -17.4910   19.0850 C   0  0  0  0  0  3  0  0  0  0  0  0
  -29.5800  -18.5360   20.6100 C   0  0  0  0  0  3  0  0  0  0  0  0
  -30.9880  -19.9490   19.1820 C   0  0  0  0  0  0  0  0  0  0  0  0
  -30.1980  -17.3080   20.1140 C   0  0  0  0  0  0  0  0  0  0  0  0
  -29.9360  -19.8750   20.1410 C   0  0  0  0  0  0  0  0  0  0  0  0
  -30.6050  -14.7400   20.3730 C   0  0  0  0  0  0  0  0  0  0  0  0
  -30.3580  -12.4670   19.3860 C   0  0  0  0  0  2  0  0  0  0  0  0
  -29.4350  -12.5620   18.1520 C   0  0  0  0  0  2  0  0  0  0  0  0
  -27.9600  -12.4080   18.5710 C   0  0  0  0  0  2  0  0  0  0  0  0
  -27.5870  -13.2930   19.7920 C   0  0  0  0  0  3  0  0  0  0  0  0
  -28.6400  -13.2060   20.9170 C   0  0  0  0  0  2  0  0  0  0  0  0
  -29.9440  -13.5330   20.3280 N   0  0  0  0  0  0  0  0  0  0  0  0
  -31.8040  -14.7720   20.0830 O   0  0  0  0  0  0  0  0  0  0  0  0
  -29.8810  -15.9160   20.5550 N   0  0  0  0  0  0  0  0  0  0  0  0
  -28.9570  -15.7820   20.9380 H   0  0  0  0  0  0  0  0  0  0  0  0
  -25.1990  -13.8860   20.5140 C   0  0  0  0  0  0  0  0  0  0  0  0
  -24.1300  -13.1140   20.8810 C   0  0  0  0  0  0  0  0  0  0  0  0
  -24.5910  -11.7630   20.8520 C   0  0  0  0  0  0  0  0  0  0  0  0
  -26.2410  -13.0050   20.2790 N   0  0  0  0  0  0  0  0  0  0  0  0
  -25.8820  -11.7220   20.5470 N   0  0  0  0  0  0  0  0  0  0  0  0
  -23.8600  -10.5020   21.0400 C   0  0  0  0  0  0  0  0  0  0  0  0
  -24.2790   -9.5360   21.9800 C   0  0  0  0  0  3  0  0  0  0  0  0
  -23.5470   -8.3420   22.1560 C   0  0  0  0  0  3  0  0  0  0  0  0
  -22.3810   -8.1040   21.3900 C   0  0  0  0  0  0  0  0  0  0  0  0
  -21.9810   -9.0580   20.4390 C   0  0  0  0  0  3  0  0  0  0  0  0
  -22.7130  -10.2440   20.2620 C   0  0  0  0  0  3  0  0  0  0  0  0
  -21.6220   -6.9620   21.4750 O   0  0  0  0  0  0  0  0  0  0  0  0
  -21.5530   -6.2270   22.6300 C   0  0  0  0  0  0  0  0  0  0  0  0
  -21.1030   -6.7870   23.8450 C   0  0  0  0  0  3  0  0  0  0  0  0
  -20.9820   -5.9780   24.9920 C   0  0  0  0  0  3  0  0  0  0  0  0
  -21.3030   -4.6080   24.9260 C   0  0  0  0  0  0  0  0  0  0  0  0
  -21.7470   -4.0470   23.7160 C   0  0  0  0  0  3  0  0  0  0  0  0
  -21.8690   -4.8540   22.5710 C   0  0  0  0  0  0  0  0  0  0  0  0
  -22.2780   -4.3040   21.4030 F   0  0  0  0  0  0  0  0  0  0  0  0
  -21.1820   -3.8280   26.0250 F   0  0  0  0  0  0  0  0  0  0  0  0
  -22.7330  -13.5960   21.1460 C   0  0  0  0  0  0  0  0  0  0  0  0
  -21.9950  -12.8980   22.0030 N   0  0  0  0  0  0  0  0  0  0  0  0
  -22.3030  -14.6260   20.6280 O   0  0  0  0  0  0  0  0  0  0  0  0
  -22.3540  -12.0660   22.4460 H   0  0  0  0  0  0  0  0  0  0  0  0
  -21.0560  -13.2030   22.2200 H   0  0  0  0  0  0  0  0  0  0  0  0
  -25.3660  -15.2560   20.3350 N   0  0  0  0  0  0  0  0  0  0  0  0
  -24.5970  -15.9090   20.4410 H   0  0  0  0  0  0  0  0  0  0  0  0
  -26.2100  -15.6920   19.9870 H   0  0  0  0  0  0  0  0  0  0  0  0
  -33.3910  -22.6860   18.7220 C   0  0  0  0  0  2  0  0  0  0  0  0
  -32.6300  -22.7260   17.3890 C   0  0  0  0  0  2  0  0  0  0  0  0
  -32.8400  -21.4630   19.4580 C   0  0  0  0  0  2  0  0  0  0  0  0
  -31.6940  -21.5140   17.4200 C   0  0  0  0  0  2  0  0  0  0  0  0
  -31.5570  -21.1890   18.8320 N   0  0  0  0  0  0  0  0  0  0  0  0
  -28.9230  -22.2650   20.0170 C   0  0  0  0  0  0  0  0  0  0  0  0
  -29.4030  -21.1500   20.6930 N   0  0  0  0  0  0  0  0  0  0  0  0
  -28.3930  -22.1290   18.9120 O   0  0  0  0  0  0  0  0  0  0  0  0
  -29.6080  -21.3020   21.6710 H   0  0  0  0  0  0  0  0  0  0  0  0
  -28.9870  -23.7430   20.6310 C   0  0  0  0  0  3  0  0  0  0  0  0
  -28.0570  -24.9140   20.0160 C   0  0  0  0  0  3  0  0  0  0  0  0
  -28.2690  -26.3760   20.3050 O   0  0  0  0  0  0  0  0  0  0  0  0
  -24.5770  -31.8800   23.2380 C   0  0  0  0  0  0  0  0  0  0  0  0
  -27.1790  -27.2730   20.2090 C   0  0  0  0  0  0  0  0  0  0  0  0
  -23.3780  -30.4820   21.5970 C   0  0  0  0  0  3  0  0  0  0  0  0
  -24.8300  -28.9280   20.1730 C   0  0  0  0  0  0  0  0  0  0  0  0
  -25.9220  -30.7830   21.4280 C   0  0  0  0  0  2  0  0  0  0  0  0
  -25.9990  -29.4000   20.7840 C   0  0  0  0  0  0  0  0  0  0  0  0
  -27.1740  -28.5830   20.7950 C   0  0  0  0  0  3  0  0  0  0  0  0
  -25.9920  -26.8800   19.5470 C   0  0  0  0  0  3  0  0  0  0  0  0
  -24.8320  -27.6760   19.5430 C   0  0  0  0  0  3  0  0  0  0  0  0
  -23.5970  -29.8080   20.2180 C   0  0  0  0  0  2  0  0  0  0  0  0
  -24.6440  -31.0670   22.1440 N   0  0  0  0  0  0  0  0  0  0  0  0
  -23.4920  -32.1630   23.7670 O   0  0  0  0  0  0  0  0  0  0  0  0
  -22.7070  -29.4680   22.5550 C   0  0  0  0  0  0  0  0  0  0  0  0
  -21.3840  -29.2830   22.4130 N   0  0  0  0  0  0  0  0  0  0  0  0
  -23.3780  -28.8530   23.3880 O   0  0  0  0  0  0  0  0  0  0  0  0
  -20.9020  -29.8310   21.7150 H   0  0  0  0  0  0  0  0  0  0  0  0
  -18.0080  -28.0600   22.8720 C   0  0  0  0  0  0  0  0  0  0  0  0
  -20.5600  -28.3470   23.1810 C   0  0  0  0  0  3  0  0  0  0  0  0
  -20.6830  -26.9100   22.6250 C   0  0  0  0  0  2  0  0  0  0  0  0
  -19.6020  -26.5640   21.5970 C   0  0  0  0  0  2  0  0  0  0  0  0
  -18.2080  -26.7060   22.2150 C   0  0  0  0  0  2  0  0  0  0  0  0
  -19.1130  -28.8390   23.3120 C   0  0  0  0  0  0  0  0  0  0  0  0
  -18.8720  -30.1060   23.8850 C   0  0  0  0  0  3  0  0  0  0  0  0
  -17.5600  -30.5970   24.0220 C   0  0  0  0  0  3  0  0  0  0  0  0
  -16.4690  -29.8180   23.5990 C   0  0  0  0  0  3  0  0  0  0  0  0
  -16.6950  -28.5510   23.0300 C   0  0  0  0  0  3  0  0  0  0  0  0
  -25.8570  -32.5120   23.8650 C   0  0  0  0  0  3  0  0  0  0  0  0
  -26.3640  -31.7430   25.1470 C   0  0  1  0  0  0  0  0  0  0  0  0
  -25.2640  -31.5120   26.2090 C   0  0  0  0  0  1  0  0  0  0  0  0
  -26.9450  -30.3620   24.7620 C   0  0  0  0  0  1  0  0  0  0  0  0
  -27.5140  -32.5360   25.8130 C   0  0  0  0  0  1  0  0  0  0  0  0
  -25.5500  -33.9120   24.1900 N   0  0  0  0  0  0  0  0  0  0  0  0
  -25.8870  -34.9620   23.4300 C   0  0  0  0  0  0  0  0  0  0  0  0
  -26.5590  -34.8540   22.4010 O   0  0  0  0  0  0  0  0  0  0  0  0
  -24.9520  -34.0690   24.9890 H   0  0  0  0  0  0  0  0  0  0  0  0
  -24.1680  -36.7630   23.0620 C   0  0  0  0  0  1  0  0  0  0  0  0
  -25.4020  -36.3540   23.8830 C   0  0  0  0  0  3  0  0  0  0  0  0
  -27.5320  -37.2320   24.7290 C   0  0  0  0  0  1  0  0  0  0  0  0
  -26.4400  -37.4020   23.7750 N   0  0  0  0  0  0  0  0  0  0  0  0
  -26.0360  -38.3240   23.9150 H   0  0  0  0  0  0  0  0  0  0  0  0
  1  2  2  0
  1  4  1  0
  2  5  1  0
  4  6  2  0
  5 15  1  0
  5  3  2  0
  6  3  1  0
  6 51  1  0
  7 15  1  0
  8 13  1  0
  9 10  1  0
  9  8  1  0
 11 10  1  0
 11 20  1  0
 11 12  1  0
 13  7  1  0
 13 12  1  0
 14  7  2  0
 15 16  1  0
 17 18  2  0
 18 37  1  0
 19 18  1  0
 19 22  1  0
 20 17  1  0
 20 21  1  0
 21 19  2  0
 22 23  1  0
 23 24  2  0
 25 28  1  0
 25 24  1  0
 26 25  2  0
 27 26  1  0
 27 22  2  0
 28 29  1  0
 29 30  1  0
 30 31  2  0
 32 31  1  0
 32 36  1  0
 33 32  2  0
 34 29  2  0
 34 33  1  0
 35 34  1  0
 37 38  1  0
 38 41  1  0
 38 40  1  0
 39 37  2  0
 42 43  1  0
 42 17  1  0
 44 42  1  0
 45 47  1  0
 46 48  1  0
 46 45  1  0
 48 49  1  0
 49  4  1  0
 49 47  1  0
 50 54  1  0
 50 51  1  0
 51 53  1  0
 52 50  2  0
 55 56  1  0
 55 54  2  0
 57 68  2  0
 58 56  1  0
 58 63  1  0
 59 67  1  0
 59 69  1  0
 60 66  1  0
 60 62  1  0
 61 67  1  0
 62 63  2  0
 62 61  1  0
 64 58  2  0
 65 64  1  0
 65 60  2  0
 66 59  1  0
 67 57  1  0
 69 71  2  0
 70 69  1  0
 72 70  1  0
 73 82  2  0
 73 78  1  0
 74 70  1  0
 74 78  1  0
 75 74  1  0
 76 77  1  0
 76 75  1  0
 77 73  1  0
 78 79  2  0
 79 80  1  0
 81 80  2  0
 82 81  1  0
 83 57  1  0
 83 88  1  0
 83 84  1  0
 84 87  1  1
 84 85  1  0
 86 84  1  0
 88 91  1  0
 89 93  1  0
 89 88  1  0
 90 89  2  0
 93 92  1  0
 95 93  1  0
 95 96  1  0
 95 94  1  0
M  ISO  4   7 100  15 100  55 101  56 101
M  END
>  <TORSDO>  (23) 
F 20

>  <SCORE>  (23) 
-13.972

>  <name>  (23) 
23

>  <ligand_id>  (23) 
23

>  <original_smiles>  (23) 
[H]c1c([H])c([H])c2c(c1[H])C([H])([H])C([H])([H])C([H])([H])C2([H])N([H])C(=O)C1([H])N(C(=O)C([H])(N([H])C(=O)C([H])(N([H])C([H])([H])[H])C([H])([H])[H])C(C([H])([H])[H])(C([H])([H])[H])C([H])([H])[H])C([H])([H])c2c([H])c(OC([H])([H])C([H])([H])C(=O)N([H])c3c([H])c(N([H])C(=O)N4C([H])([H])C([H])([H])C([H])([H])C([H])(n5nc(-c6c([H])c([H])c(Oc7c([H])c([H])c(F)c([H])c7F)c([H])c6[H])c(C(=O)N([H])[H])c5N([H])[H])C4([H])[H])c([H])c([H])c3N3C([H])([H])C([H])([H])C([H])([H])C3([H])[H])c([H])c([H])c2C1([H])[H]

>  <smiles>  (23) 
[H]c1c([H])c([H])c2c(c1[H])C([H])([H])C([H])([H])C([H])([H])C2([H])N([H])C(=O)C1([H])N(C(=O)C([H])(N([H])C(=O)C([H])(N([H])C([H])([H])[H])C([H])([H])[H])C(C([H])([H])[H])(C([H])([H])[H])C([H])([H])[H])C([H])([H])c2c([H])c(OC([H])([H])C([H])([H])C(=O)N([H])c3c([H])c(N([H])C(=O)N4C([H])([H])C([H])([H])C([H])([H])C([H])(n5nc(-c6c([H])c([H])c(Oc7c([H])c([H])c(F)c([H])c7F)c([H])c6[H])c(C(=O)N([H])[H])c5N([H])[H])C4([H])[H])c([H])c([H])c3N3C([H])([H])C([H])([H])C([H])([H])C3([H])[H])c([H])c([H])c2C1([H])[H]

$$$$
24:0:0
     RDKit          3D

 91 99  0  0  1  0  0  0  0  0999 V2000
  -29.2880  -21.3640   19.6620 N   0  0  0  0  0  0  0  0  0  0  0  0
  -29.1650  -21.5670   18.6730 H   0  0  0  0  0  0  0  0  0  0  0  0
  -29.7780  -19.4950   21.2960 C   0  0  0  0  0  3  0  0  0  0  0  0
  -30.0220  -18.1090   21.5440 C   0  0  0  0  0  3  0  0  0  0  0  0
  -29.5020  -18.9890   18.9790 C   0  0  0  0  0  3  0  0  0  0  0  0
  -29.5170  -19.9820   19.9960 C   0  0  0  0  0  0  0  0  0  0  0  0
  -30.0200  -17.0950   20.5290 C   0  0  0  0  0  0  0  0  0  0  0  0
  -29.7250  -17.5960   19.2200 C   0  0  0  0  0  0  0  0  0  0  0  0
  -29.5530  -16.5500   17.8510 Cl  0  0  0  0  0  0  0  0  0  0  0  0
  -30.7920  -14.6730   20.0900 C   0  0  0  0  0  0  0  0  0  0  0  0
  -30.4500  -12.5030   18.8950 C   0  0  0  0  0  2  0  0  0  0  0  0
  -29.4360  -12.6680   17.7440 C   0  0  0  0  0  2  0  0  0  0  0  0
  -27.9910  -12.4900   18.2530 C   0  0  0  0  0  2  0  0  0  0  0  0
  -27.7140  -13.3060   19.5430 C   0  0  0  0  0  3  0  0  0  0  0  0
  -28.8350  -13.1090   20.5810 C   0  0  0  0  0  2  0  0  0  0  0  0
  -30.1120  -13.4840   19.9500 N   0  0  0  0  0  0  0  0  0  0  0  0
  -31.8600  -14.8570   19.4970 O   0  0  0  0  0  0  0  0  0  0  0  0
  -30.3700  -15.3590   22.3280 C   0  0  0  0  0  1  0  0  0  0  0  0
  -30.2520  -15.6650   20.8890 N   0  0  0  0  0  0  0  0  0  0  0  0
  -25.3710  -13.8720   20.4320 C   0  0  0  0  0  0  0  0  0  0  0  0
  -24.3330  -13.0850   20.8510 C   0  0  0  0  0  0  0  0  0  0  0  0
  -24.7980  -11.7370   20.7600 C   0  0  0  0  0  0  0  0  0  0  0  0
  -26.4010  -13.0040   20.1070 N   0  0  0  0  0  0  0  0  0  0  0  0
  -26.0660  -11.7130   20.3660 N   0  0  0  0  0  0  0  0  0  0  0  0
  -24.0910  -10.4670   20.9700 C   0  0  0  0  0  0  0  0  0  0  0  0
  -24.5530   -9.5090   21.9000 C   0  0  0  0  0  3  0  0  0  0  0  0
  -23.8460   -8.3030   22.0970 C   0  0  0  0  0  3  0  0  0  0  0  0
  -22.6620   -8.0470   21.3650 C   0  0  0  0  0  0  0  0  0  0  0  0
  -22.2180   -8.9930   20.4250 C   0  0  0  0  0  3  0  0  0  0  0  0
  -22.9260  -10.1900   20.2250 C   0  0  0  0  0  3  0  0  0  0  0  0
  -21.9240   -6.8920   21.4720 O   0  0  0  0  0  0  0  0  0  0  0  0
  -21.8520   -6.1900   22.6480 C   0  0  0  0  0  0  0  0  0  0  0  0
  -21.3890   -6.7810   23.8420 C   0  0  0  0  0  3  0  0  0  0  0  0
  -21.2640   -6.0040   25.0110 C   0  0  0  0  0  3  0  0  0  0  0  0
  -21.5940   -4.6350   24.9850 C   0  0  0  0  0  0  0  0  0  0  0  0
  -22.0500   -4.0430   23.7950 C   0  0  0  0  0  3  0  0  0  0  0  0
  -22.1760   -4.8170   22.6290 C   0  0  0  0  0  0  0  0  0  0  0  0
  -22.5960   -4.2370   21.4790 F   0  0  0  0  0  0  0  0  0  0  0  0
  -21.4660   -3.8860   26.1050 F   0  0  0  0  0  0  0  0  0  0  0  0
  -22.9550  -13.5480   21.2220 C   0  0  0  0  0  0  0  0  0  0  0  0
  -22.2920  -12.8400   22.1300 N   0  0  0  0  0  0  0  0  0  0  0  0
  -22.4730  -14.5730   20.7380 O   0  0  0  0  0  0  0  0  0  0  0  0
  -22.6950  -12.0120   22.5430 H   0  0  0  0  0  0  0  0  0  0  0  0
  -21.3690  -13.1290   22.4170 H   0  0  0  0  0  0  0  0  0  0  0  0
  -25.5170  -15.2480   20.2790 N   0  0  0  0  0  0  0  0  0  0  0  0
  -24.7580  -15.8940   20.4600 H   0  0  0  0  0  0  0  0  0  0  0  0
  -26.3490  -15.7020   19.9250 H   0  0  0  0  0  0  0  0  0  0  0  0
  -28.9380  -22.4900   20.5850 C   0  0  0  0  0  2  0  0  0  0  0  0
  -28.9050  -23.9530   19.9330 C   0  0  0  0  0  3  0  0  0  0  0  0
  -28.3290  -25.1650   20.7960 C   0  0  0  0  0  3  0  0  0  0  0  0
  -28.4830  -26.5540   20.3080 O   0  0  0  0  0  0  0  0  0  0  0  0
  -24.6610  -31.9210   23.2540 C   0  0  0  0  0  0  0  0  0  0  0  0
  -27.3490  -27.3710   20.2820 C   0  0  0  0  0  0  0  0  0  0  0  0
  -23.4850  -30.4930   21.6180 C   0  0  0  0  0  3  0  0  0  0  0  0
  -24.9620  -28.9370   20.2280 C   0  0  0  0  0  0  0  0  0  0  0  0
  -26.0200  -30.8420   21.4510 C   0  0  0  0  0  2  0  0  0  0  0  0
  -26.1210  -29.4570   20.8230 C   0  0  0  0  0  0  0  0  0  0  0  0
  -27.3200  -28.6870   20.8330 C   0  0  0  0  0  3  0  0  0  0  0  0
  -26.1710  -26.8940   19.6710 C   0  0  0  0  0  3  0  0  0  0  0  0
  -24.9890  -27.6600   19.6430 C   0  0  0  0  0  3  0  0  0  0  0  0
  -23.7170  -29.8000   20.2490 C   0  0  0  0  0  2  0  0  0  0  0  0
  -24.7400  -31.1030   22.1650 N   0  0  0  0  0  0  0  0  0  0  0  0
  -23.5700  -32.1940   23.7760 O   0  0  0  0  0  0  0  0  0  0  0  0
  -22.8230  -29.4810   22.5840 C   0  0  0  0  0  0  0  0  0  0  0  0
  -21.4970  -29.3000   22.4530 N   0  0  0  0  0  0  0  0  0  0  0  0
  -23.5000  -28.8620   23.4080 O   0  0  0  0  0  0  0  0  0  0  0  0
  -21.0120  -29.8500   21.7590 H   0  0  0  0  0  0  0  0  0  0  0  0
  -18.1200  -28.1060   22.9480 C   0  0  0  0  0  0  0  0  0  0  0  0
  -20.6770  -28.3680   23.2260 C   0  0  0  0  0  3  0  0  0  0  0  0
  -20.7820  -26.9330   22.6610 C   0  0  0  0  0  2  0  0  0  0  0  0
  -19.6840  -26.6030   21.6450 C   0  0  0  0  0  2  0  0  0  0  0  0
  -18.2990  -26.7530   22.2820 C   0  0  0  0  0  2  0  0  0  0  0  0
  -19.2360  -28.8720   23.3770 C   0  0  0  0  0  0  0  0  0  0  0  0
  -19.0140  -30.1390   23.9580 C   0  0  0  0  0  3  0  0  0  0  0  0
  -17.7080  -30.6410   24.1170 C   0  0  0  0  0  3  0  0  0  0  0  0
  -16.6060  -29.8720   23.7040 C   0  0  0  0  0  3  0  0  0  0  0  0
  -16.8130  -28.6070   23.1240 C   0  0  0  0  0  3  0  0  0  0  0  0
  -25.9330  -32.5700   23.8830 C   0  0  0  0  0  3  0  0  0  0  0  0
  -26.4480  -31.8090   25.1660 C   0  0  1  0  0  0  0  0  0  0  0  0
  -25.3490  -31.5620   26.2260 C   0  0  0  0  0  1  0  0  0  0  0  0
  -27.0520  -30.4380   24.7840 C   0  0  0  0  0  1  0  0  0  0  0  0
  -27.5840  -32.6200   25.8340 C   0  0  0  0  0  1  0  0  0  0  0  0
  -25.6060  -33.9660   24.2060 N   0  0  0  0  0  0  0  0  0  0  0  0
  -25.9270  -35.0190   23.4430 C   0  0  0  0  0  0  0  0  0  0  0  0
  -26.5990  -34.9180   22.4130 O   0  0  0  0  0  0  0  0  0  0  0  0
  -25.0090  -34.1170   25.0060 H   0  0  0  0  0  0  0  0  0  0  0  0
  -24.1730  -36.7850   23.0830 C   0  0  0  0  0  1  0  0  0  0  0  0
  -25.4230  -36.4030   23.8930 C   0  0  0  0  0  3  0  0  0  0  0  0
  -27.5490  -37.3210   24.7100 C   0  0  0  0  0  1  0  0  0  0  0  0
  -26.4410  -37.4700   23.7700 N   0  0  0  0  0  0  0  0  0  0  0  0
  -26.0230  -38.3850   23.9130 H   0  0  0  0  0  0  0  0  0  0  0  0
  1  6  1  0
  1 48  1  0
  2  1  1  0
  3  4  1  0
  5  8  2  0
  5  6  1  0
  6  3  2  0
  7 19  1  0
  7  4  2  0
  8  7  1  0
  9  8  1  0
 10 19  1  0
 11 16  1  0
 12 13  1  0
 12 11  1  0
 14 13  1  0
 14 23  1  0
 14 15  1  0
 16 10  1  0
 16 15  1  0
 17 10  2  0
 19 18  1  0
 20 21  2  0
 21 40  1  0
 22 21  1  0
 22 25  1  0
 23 24  1  0
 23 20  1  0
 24 22  2  0
 25 26  1  0
 26 27  2  0
 28 31  1  0
 28 27  1  0
 29 28  2  0
 30 29  1  0
 30 25  2  0
 31 32  1  0
 32 33  1  0
 33 34  2  0
 35 34  1  0
 35 39  1  0
 36 35  2  0
 37 32  2  0
 37 36  1  0
 38 37  1  0
 40 41  1  0
 41 44  1  0
 41 43  1  0
 42 40  2  0
 45 20  1  0
 45 46  1  0
 47 45  1  0
 49 48  1  0
 49 50  2  0
 51 50  1  0
 52 63  2  0
 53 51  1  0
 53 58  1  0
 54 62  1  0
 54 64  1  0
 55 61  1  0
 55 57  1  0
 56 62  1  0
 57 58  2  0
 57 56  1  0
 59 53  2  0
 60 59  1  0
 60 55  2  0
 61 54  1  0
 62 52  1  0
 64 66  2  0
 65 64  1  0
 67 65  1  0
 68 77  2  0
 68 73  1  0
 69 65  1  0
 69 73  1  0
 70 69  1  0
 71 72  1  0
 71 70  1  0
 72 68  1  0
 73 74  2  0
 74 75  1  0
 76 75  2  0
 77 76  1  0
 78 52  1  0
 78 83  1  0
 78 79  1  0
 79 82  1  1
 79 80  1  0
 81 79  1  0
 83 86  1  0
 84 88  1  0
 84 83  1  0
 85 84  2  0
 88 87  1  0
 90 88  1  0
 90 91  1  0
 90 89  1  0
M  ISO  4  10 100  19 100  50 101  51 101
M  END
>  <TORSDO>  (24) 
F 20

>  <SCORE>  (24) 
-11.796

>  <name>  (24) 
24

>  <ligand_id>  (24) 
24

>  <original_smiles>  (24) 
[H]c1c([H])c([H])c2c(c1[H])C([H])([H])C([H])([H])C([H])([H])C2([H])N([H])C(=O)C1([H])N(C(=O)C([H])(N([H])C(=O)C([H])(N([H])C([H])([H])[H])C([H])([H])[H])C(C([H])([H])[H])(C([H])([H])[H])C([H])([H])[H])C([H])([H])c2c([H])c(OC([H])([H])C([H])([H])C([H])([H])N([H])c3c([H])c([H])c(N(C(=O)N4C([H])([H])C([H])([H])C([H])([H])C([H])(n5nc(-c6c([H])c([H])c(Oc7c([H])c([H])c(F)c([H])c7F)c([H])c6[H])c(C(=O)N([H])[H])c5N([H])[H])C4([H])[H])C([H])([H])[H])c(Cl)c3[H])c([H])c([H])c2C1([H])[H]

>  <smiles>  (24) 
[H]c1c([H])c([H])c2c(c1[H])C([H])([H])C([H])([H])C([H])([H])C2([H])N([H])C(=O)C1([H])N(C(=O)C([H])(N([H])C(=O)C([H])(N([H])C([H])([H])[H])C([H])([H])[H])C(C([H])([H])[H])(C([H])([H])[H])C([H])([H])[H])C([H])([H])c2c([H])c(OC([H])([H])C([H])([H])C([H])([H])N([H])c3c([H])c([H])c(N(C(=O)N4C([H])([H])C([H])([H])C([H])([H])C([H])(n5nc(-c6c([H])c([H])c(Oc7c([H])c([H])c(F)c([H])c7F)c([H])c6[H])c(C(=O)N([H])[H])c5N([H])[H])C4([H])[H])C([H])([H])[H])c(Cl)c3[H])c([H])c([H])c2C1([H])[H]

$$$$
25:0:0
     RDKit          3D

 96105  0  0  1  0  0  0  0  0999 V2000
  -29.1540  -21.2280   21.3710 C   0  0  0  0  0  3  0  0  0  0  0  0
  -30.4280  -20.4480   19.0100 C   0  0  0  0  0  3  0  0  0  0  0  0
  -29.3320  -22.1920   20.3500 C   0  0  0  0  0  0  0  0  0  0  0  0
  -30.2390  -19.4750   20.0210 C   0  0  0  0  0  0  0  0  0  0  0  0
  -29.5860  -19.8900   21.2130 C   0  0  0  0  0  0  0  0  0  0  0  0
  -29.9780  -21.7840   19.1580 C   0  0  0  0  0  0  0  0  0  0  0  0
  -29.3100  -19.0050   22.2010 F   0  0  0  0  0  0  0  0  0  0  0  0
  -30.1570  -22.8700   17.8240 Cl  0  0  0  0  0  0  0  0  0  0  0  0
  -29.4360  -24.6310   20.7940 C   0  0  0  0  0  0  0  0  0  0  0  0
  -26.5580  -24.3830   21.4200 C   0  0  0  0  0  2  0  0  0  0  0  0
  -27.4310  -25.4760   22.0630 C   0  0  0  0  0  2  0  0  0  0  0  0
  -27.2820  -23.5770   20.3210 C   0  0  0  0  0  2  0  0  0  0  0  0
  -28.6310  -25.9130   21.1820 C   0  0  0  0  0  3  0  0  0  0  0  0
  -28.7370  -23.4950   20.5030 N   0  0  0  0  0  0  0  0  0  0  0  0
  -30.6720  -24.6670   20.8150 O   0  0  0  0  0  0  0  0  0  0  0  0
  -28.3260  -26.7090   20.0100 O   0  0  0  0  0  0  0  0  0  0  0  0
  -24.5850  -31.9160   23.2250 C   0  0  0  0  0  0  0  0  0  0  0  0
  -27.2040  -27.5150   20.0550 C   0  0  0  0  0  0  0  0  0  0  0  0
  -23.3670  -30.5380   21.5720 C   0  0  0  0  0  3  0  0  0  0  0  0
  -24.8140  -29.0270   20.1080 C   0  0  0  0  0  0  0  0  0  0  0  0
  -25.8910  -30.8990   21.3600 C   0  0  0  0  0  2  0  0  0  0  0  0
  -25.9760  -29.5350   20.7060 C   0  0  0  0  0  0  0  0  0  0  0  0
  -27.1770  -28.7810   20.6880 C   0  0  0  0  0  3  0  0  0  0  0  0
  -26.0360  -27.0400   19.4280 C   0  0  0  0  0  3  0  0  0  0  0  0
  -24.8390  -27.7780   19.4660 C   0  0  0  0  0  3  0  0  0  0  0  0
  -23.5680  -29.8820   20.1810 C   0  0  0  0  0  2  0  0  0  0  0  0
  -24.6340  -31.1320   22.1110 N   0  0  0  0  0  0  0  0  0  0  0  0
  -23.5100  -32.1790   23.7800 O   0  0  0  0  0  0  0  0  0  0  0  0
  -22.7240  -29.5020   22.5210 C   0  0  0  0  0  0  0  0  0  0  0  0
  -21.4070  -29.2850   22.3690 N   0  0  0  0  0  0  0  0  0  0  0  0
  -23.4070  -28.8950   23.3500 O   0  0  0  0  0  0  0  0  0  0  0  0
  -20.9160  -29.8300   21.6750 H   0  0  0  0  0  0  0  0  0  0  0  0
  -18.0620  -27.9820   22.7840 C   0  0  0  0  0  0  0  0  0  0  0  0
  -20.6000  -28.3270   23.1260 C   0  0  0  0  0  3  0  0  0  0  0  0
  -20.7660  -26.8950   22.5670 C   0  0  0  0  0  2  0  0  0  0  0  0
  -19.7050  -26.5270   21.5250 C   0  0  0  0  0  2  0  0  0  0  0  0
  -18.3020  -26.6330   22.1280 C   0  0  0  0  0  2  0  0  0  0  0  0
  -19.1420  -28.7840   23.2370 C   0  0  0  0  0  0  0  0  0  0  0  0
  -18.8650  -30.0460   23.8080 C   0  0  0  0  0  3  0  0  0  0  0  0
  -17.5400  -30.5050   23.9320 C   0  0  0  0  0  3  0  0  0  0  0  0
  -16.4740  -29.7000   23.4950 C   0  0  0  0  0  3  0  0  0  0  0  0
  -16.7350  -28.4410   22.9270 C   0  0  0  0  0  3  0  0  0  0  0  0
  -25.8770  -32.5390   23.8420 C   0  0  0  0  0  3  0  0  0  0  0  0
  -26.3970  -31.7580   25.1110 C   0  0  1  0  0  0  0  0  0  0  0  0
  -25.3050  -31.5020   26.1760 C   0  0  0  0  0  1  0  0  0  0  0  0
  -26.9870  -30.3870   24.7030 C   0  0  0  0  0  1  0  0  0  0  0  0
  -27.5430  -32.5510   25.7810 C   0  0  0  0  0  1  0  0  0  0  0  0
  -25.5780  -33.9380   24.1760 N   0  0  0  0  0  0  0  0  0  0  0  0
  -25.9080  -34.9890   23.4120 C   0  0  0  0  0  0  0  0  0  0  0  0
  -26.5680  -34.8820   22.3750 O   0  0  0  0  0  0  0  0  0  0  0  0
  -24.9930  -34.0950   24.9830 H   0  0  0  0  0  0  0  0  0  0  0  0
  -24.1830  -36.7860   23.0720 C   0  0  0  0  0  1  0  0  0  0  0  0
  -25.4300  -36.3800   23.8720 C   0  0  0  0  0  3  0  0  0  0  0  0
  -27.5710  -37.2610   24.6900 C   0  0  0  0  0  1  0  0  0  0  0  0
  -26.4650  -37.4280   23.7500 N   0  0  0  0  0  0  0  0  0  0  0  0
  -26.0630  -38.3510   23.8960 H   0  0  0  0  0  0  0  0  0  0  0  0
  -30.6520  -18.1410   19.7590 N   0  0  0  0  0  0  0  0  0  0  0  0
  -31.0650  -18.0050   18.8400 H   0  0  0  0  0  0  0  0  0  0  0  0
  -31.2280  -17.2730   20.8040 C   0  0  0  0  0  2  0  0  0  0  0  0
  -30.5640  -15.8610   20.9400 C   0  0  0  0  0  2  0  0  0  0  0  0
  -31.1470  -14.6940   20.0900 C   0  0  0  0  0  0  0  0  0  0  0  0
  -30.7530  -12.5390   18.9240 C   0  0  0  0  0  2  0  0  0  0  0  0
  -29.7480  -12.7530   17.7740 C   0  0  0  0  0  2  0  0  0  0  0  0
  -28.2950  -12.6470   18.2820 C   0  0  0  0  0  2  0  0  0  0  0  0
  -28.0460  -13.4860   19.5630 C   0  0  0  0  0  3  0  0  0  0  0  0
  -29.1590  -13.2440   20.6100 C   0  0  0  0  0  2  0  0  0  0  0  0
  -30.4510  -13.5280   19.9720 N   0  0  0  0  0  0  0  0  0  0  0  0
  -32.2140  -14.8700   19.4940 O   0  0  0  0  0  0  0  0  0  0  0  0
  -25.7200  -14.1470   20.4460 C   0  0  0  0  0  0  0  0  0  0  0  0
  -24.6470  -13.3970   20.8480 C   0  0  0  0  0  0  0  0  0  0  0  0
  -25.0520  -12.0330   20.7300 C   0  0  0  0  0  0  0  0  0  0  0  0
  -26.7150  -13.2400   20.1140 N   0  0  0  0  0  0  0  0  0  0  0  0
  -26.3190  -11.9610   20.3400 N   0  0  0  0  0  0  0  0  0  0  0  0
  -24.2910  -10.7900   20.9130 C   0  0  0  0  0  0  0  0  0  0  0  0
  -24.7000   -9.8020   21.8340 C   0  0  0  0  0  3  0  0  0  0  0  0
  -23.9410   -8.6250   22.0060 C   0  0  0  0  0  3  0  0  0  0  0  0
  -22.7570   -8.4280   21.2550 C   0  0  0  0  0  0  0  0  0  0  0  0
  -22.3670   -9.4040   20.3210 C   0  0  0  0  0  3  0  0  0  0  0  0
  -23.1260  -10.5740   20.1490 C   0  0  0  0  0  3  0  0  0  0  0  0
  -21.9710   -7.3030   21.3350 O   0  0  0  0  0  0  0  0  0  0  0  0
  -21.8430   -6.5980   22.5050 C   0  0  0  0  0  0  0  0  0  0  0  0
  -21.3330   -7.1900   23.6800 C   0  0  0  0  0  3  0  0  0  0  0  0
  -21.1520   -6.4110   24.8400 C   0  0  0  0  0  3  0  0  0  0  0  0
  -21.4710   -5.0400   24.8250 C   0  0  0  0  0  0  0  0  0  0  0  0
  -21.9720   -4.4460   23.6520 C   0  0  0  0  0  3  0  0  0  0  0  0
  -22.1550   -5.2230   22.4950 C   0  0  0  0  0  0  0  0  0  0  0  0
  -22.6200   -4.6430   21.3630 F   0  0  0  0  0  0  0  0  0  0  0  0
  -21.2890   -4.2880   25.9360 F   0  0  0  0  0  0  0  0  0  0  0  0
  -23.2890  -13.9110   21.2310 C   0  0  0  0  0  0  0  0  0  0  0  0
  -22.5970  -13.2100   22.1230 N   0  0  0  0  0  0  0  0  0  0  0  0
  -22.8530  -14.9670   20.7730 O   0  0  0  0  0  0  0  0  0  0  0  0
  -22.9640  -12.3560   22.5150 H   0  0  0  0  0  0  0  0  0  0  0  0
  -21.6870  -13.5360   22.4200 H   0  0  0  0  0  0  0  0  0  0  0  0
  -25.9240  -15.5180   20.3190 N   0  0  0  0  0  0  0  0  0  0  0  0
  -25.1910  -16.1920   20.5120 H   0  0  0  0  0  0  0  0  0  0  0  0
  -26.7800  -15.9460   19.9900 H   0  0  0  0  0  0  0  0  0  0  0  0
  2  6  2  0
  2  4  1  0
  3 14  1  0
  3  1  2  0
  4  5  2  0
  5  1  1  0
  5  7  1  0
  6  3  1  0
  8  6  1  0
  9 15  2  0
  9 13  1  0
 10 11  1  0
 12 14  1  0
 12 10  1  0
 13 16  1  0
 13 11  1  0
 14  9  1  0
 16 18  1  0
 17 28  2  0
 18 23  1  0
 19 27  1  0
 19 29  1  0
 20 26  1  0
 20 22  1  0
 21 27  1  0
 22 21  1  0
 23 22  2  0
 24 25  1  0
 24 18  2  0
 25 20  2  0
 26 19  1  0
 27 17  1  0
 29 31  2  0
 30 29  1  0
 32 30  1  0
 33 42  2  0
 33 38  1  0
 34 30  1  0
 34 38  1  0
 35 34  1  0
 36 37  1  0
 36 35  1  0
 37 33  1  0
 38 39  2  0
 39 40  1  0
 41 40  2  0
 42 41  1  0
 43 17  1  0
 43 48  1  0
 43 44  1  0
 44 47  1  1
 44 45  1  0
 46 44  1  0
 48 51  1  0
 49 53  1  0
 49 48  1  0
 50 49  2  0
 53 52  1  0
 55 53  1  0
 55 56  1  0
 55 54  1  0
 57  4  1  0
 57 59  1  0
 58 57  1  0
 59 60  1  0
 61 60  1  0
 62 67  1  0
 63 64  1  0
 63 62  1  0
 65 64  1  0
 65 72  1  0
 65 66  1  0
 67 61  1  0
 67 66  1  0
 68 61  2  0
 69 70  2  0
 70 89  1  0
 71 70  1  0
 71 74  1  0
 72 73  1  0
 72 69  1  0
 73 71  2  0
 74 75  1  0
 75 76  2  0
 77 80  1  0
 77 76  1  0
 78 77  2  0
 79 78  1  0
 79 74  2  0
 80 81  1  0
 81 82  1  0
 82 83  2  0
 84 83  1  0
 84 88  1  0
 85 84  2  0
 86 81  2  0
 86 85  1  0
 87 86  1  0
 89 90  1  0
 90 93  1  0
 90 92  1  0
 91 89  2  0
 94 69  1  0
 94 95  1  0
 96 94  1  0
M  ISO  4  13 101  16 101  60 100  61 100
M  END
>  <TORSDO>  (25) 
F 20

>  <SCORE>  (25) 
-12.895

>  <name>  (25) 
25

>  <ligand_id>  (25) 
25

>  <original_smiles>  (25) 
[H]c1c([H])c([H])c2c(c1[H])C([H])([H])C([H])([H])C([H])([H])C2([H])N([H])C(=O)C1([H])N(C(=O)C([H])(N([H])C(=O)C([H])(N([H])C([H])([H])[H])C([H])([H])[H])C(C([H])([H])[H])(C([H])([H])[H])C([H])([H])[H])C([H])([H])c2c([H])c(OC3([H])C(=O)N(c4c([H])c(F)c(N([H])C([H])([H])C([H])([H])C(=O)N5C([H])([H])C([H])([H])C([H])([H])C([H])(n6nc(-c7c([H])c([H])c(Oc8c([H])c([H])c(F)c([H])c8F)c([H])c7[H])c(C(=O)N([H])[H])c6N([H])[H])C5([H])[H])c([H])c4Cl)C([H])([H])C([H])([H])C3([H])[H])c([H])c([H])c2C1([H])[H]

>  <smiles>  (25) 
[H]c1c([H])c([H])c2c(c1[H])C([H])([H])C([H])([H])C([H])([H])C2([H])N([H])C(=O)C1([H])N(C(=O)C([H])(N([H])C(=O)C([H])(N([H])C([H])([H])[H])C([H])([H])[H])C(C([H])([H])[H])(C([H])([H])[H])C([H])([H])[H])C([H])([H])c2c([H])c(OC3([H])C(=O)N(c4c([H])c(F)c(N([H])C([H])([H])C([H])([H])C(=O)N5C([H])([H])C([H])([H])C([H])([H])C([H])(n6nc(-c7c([H])c([H])c(Oc8c([H])c([H])c(F)c([H])c8F)c([H])c7[H])c(C(=O)N([H])[H])c6N([H])[H])C5([H])[H])c([H])c4Cl)C([H])([H])C([H])([H])C3([H])[H])c([H])c([H])c2C1([H])[H]

$$$$
26:0:0
     RDKit          3D

 93102  0  0  1  0  0  0  0  0999 V2000
  -28.8760  -22.4740   20.3330 C   0  0  0  0  0  0  0  0  0  0  0  0
  -30.5310  -23.8490   19.3360 C   0  0  0  0  0  2  0  0  0  0  0  0
  -30.9870  -22.3750   19.4430 C   0  0  0  0  0  2  0  0  0  0  0  0
  -29.3060  -23.9780   20.2420 C   0  0  0  0  0  3  0  0  0  0  0  0
  -29.8560  -21.5920   19.9520 N   0  0  0  0  0  0  0  0  0  0  0  0
  -27.7470  -22.1590   20.7200 O   0  0  0  0  0  0  0  0  0  0  0  0
  -31.0980  -19.3850   19.7220 C   0  0  0  0  0  3  0  0  0  0  0  0
  -31.1870  -17.9600   19.7930 C   0  0  0  0  0  3  0  0  0  0  0  0
  -28.8080  -19.2970   20.4210 C   0  0  0  0  0  3  0  0  0  0  0  0
  -29.9050  -20.1110   20.0250 C   0  0  0  0  0  0  0  0  0  0  0  0
  -30.0800  -17.1610   20.1830 C   0  0  0  0  0  0  0  0  0  0  0  0
  -28.8920  -17.8750   20.5010 C   0  0  0  0  0  0  0  0  0  0  0  0
  -27.4910  -16.9990   21.0070 Cl  0  0  0  0  0  0  0  0  0  0  0  0
  -30.7720  -14.7030   19.6420 C   0  0  0  0  0  0  0  0  0  0  0  0
  -30.4280  -12.5390   18.4640 C   0  0  0  0  0  2  0  0  0  0  0  0
  -29.3310  -12.7440   17.3940 C   0  0  0  0  0  2  0  0  0  0  0  0
  -27.9270  -12.5460   17.9980 C   0  0  0  0  0  2  0  0  0  0  0  0
  -27.7360  -13.3190   19.3310 C   0  0  0  0  0  3  0  0  0  0  0  0
  -28.9300  -13.0890   20.2850 C   0  0  0  0  0  2  0  0  0  0  0  0
  -30.1560  -13.4800   19.5700 N   0  0  0  0  0  0  0  0  0  0  0  0
  -31.8550  -14.9090   19.0850 O   0  0  0  0  0  0  0  0  0  0  0  0
  -30.0530  -15.6960   20.2470 N   0  0  0  0  0  0  0  0  0  0  0  0
  -29.2550  -15.3430   20.7550 H   0  0  0  0  0  0  0  0  0  0  0  0
  -25.4580  -13.8540   20.3960 C   0  0  0  0  0  0  0  0  0  0  0  0
  -24.4430  -13.0530   20.8430 C   0  0  0  0  0  0  0  0  0  0  0  0
  -24.8880  -11.7090   20.6490 C   0  0  0  0  0  0  0  0  0  0  0  0
  -26.4580  -12.9980   19.9630 N   0  0  0  0  0  0  0  0  0  0  0  0
  -26.1260  -11.6970   20.1720 N   0  0  0  0  0  0  0  0  0  0  0  0
  -24.1830  -10.4340   20.8350 C   0  0  0  0  0  0  0  0  0  0  0  0
  -24.6350   -9.4680   21.7610 C   0  0  0  0  0  3  0  0  0  0  0  0
  -23.9290   -8.2580   21.9350 C   0  0  0  0  0  3  0  0  0  0  0  0
  -22.7570   -8.0060   21.1830 C   0  0  0  0  0  0  0  0  0  0  0  0
  -22.3250   -8.9600   20.2470 C   0  0  0  0  0  3  0  0  0  0  0  0
  -23.0310  -10.1620   20.0700 C   0  0  0  0  0  3  0  0  0  0  0  0
  -22.0220   -6.8480   21.2670 O   0  0  0  0  0  0  0  0  0  0  0  0
  -21.8580   -6.1830   22.4570 C   0  0  0  0  0  0  0  0  0  0  0  0
  -21.2650   -6.8010   23.5790 C   0  0  0  0  0  3  0  0  0  0  0  0
  -21.0530   -6.0620   24.7590 C   0  0  0  0  0  3  0  0  0  0  0  0
  -21.4240   -4.7040   24.8170 C   0  0  0  0  0  0  0  0  0  0  0  0
  -22.0080   -4.0860   23.6990 C   0  0  0  0  0  3  0  0  0  0  0  0
  -22.2220   -4.8240   22.5200 C   0  0  0  0  0  0  0  0  0  0  0  0
  -22.7670   -4.2170   21.4380 F   0  0  0  0  0  0  0  0  0  0  0  0
  -21.2120   -3.9910   25.9480 F   0  0  0  0  0  0  0  0  0  0  0  0
  -23.0970  -13.5040   21.3340 C   0  0  0  0  0  0  0  0  0  0  0  0
  -22.4980  -12.7560   22.2540 N   0  0  0  0  0  0  0  0  0  0  0  0
  -22.5910  -14.5520   20.9390 O   0  0  0  0  0  0  0  0  0  0  0  0
  -22.9230  -11.9050   22.5940 H   0  0  0  0  0  0  0  0  0  0  0  0
  -21.6010  -13.0390   22.6240 H   0  0  0  0  0  0  0  0  0  0  0  0
  -25.6030  -15.2340   20.3000 N   0  0  0  0  0  0  0  0  0  0  0  0
  -24.8710  -15.8740   20.5900 H   0  0  0  0  0  0  0  0  0  0  0  0
  -26.4230  -15.7080   19.9460 H   0  0  0  0  0  0  0  0  0  0  0  0
  -28.2170  -25.0520   19.7960 C   0  0  0  0  0  2  0  0  0  0  0  0
  -28.4200  -26.4980   20.0550 O   0  0  0  0  0  0  0  0  0  0  0  0
  -24.6380  -31.7960   23.1710 C   0  0  0  0  0  0  0  0  0  0  0  0
  -27.2850  -27.3290   20.0200 C   0  0  0  0  0  0  0  0  0  0  0  0
  -23.4360  -30.4030   21.5260 C   0  0  0  0  0  3  0  0  0  0  0  0
  -24.8930  -28.8990   20.0610 C   0  0  0  0  0  0  0  0  0  0  0  0
  -25.9670  -30.7660   21.3170 C   0  0  0  0  0  2  0  0  0  0  0  0
  -26.0610  -29.3980   20.6500 C   0  0  0  0  0  0  0  0  0  0  0  0
  -27.2610  -28.6260   20.6210 C   0  0  0  0  0  3  0  0  0  0  0  0
  -26.0910  -26.8860   19.4030 C   0  0  0  0  0  3  0  0  0  0  0  0
  -24.9100  -27.6480   19.4280 C   0  0  0  0  0  3  0  0  0  0  0  0
  -23.6430  -29.7520   20.1340 C   0  0  0  0  0  2  0  0  0  0  0  0
  -24.6990  -31.0040   22.0610 N   0  0  0  0  0  0  0  0  0  0  0  0
  -23.5560  -32.0510   23.7210 O   0  0  0  0  0  0  0  0  0  0  0  0
  -22.8000  -29.3630   22.4780 C   0  0  0  0  0  0  0  0  0  0  0  0
  -21.4790  -29.1550   22.3510 N   0  0  0  0  0  0  0  0  0  0  0  0
  -23.4940  -28.7450   23.2910 O   0  0  0  0  0  0  0  0  0  0  0  0
  -20.9770  -29.7060   21.6680 H   0  0  0  0  0  0  0  0  0  0  0  0
  -18.1250  -27.9020   22.8660 C   0  0  0  0  0  0  0  0  0  0  0  0
  -20.6820  -28.1950   23.1160 C   0  0  0  0  0  3  0  0  0  0  0  0
  -20.7980  -26.7730   22.5190 C   0  0  0  0  0  2  0  0  0  0  0  0
  -19.6920  -26.4490   21.5110 C   0  0  0  0  0  2  0  0  0  0  0  0
  -18.3140  -26.5640   22.1700 C   0  0  0  0  0  2  0  0  0  0  0  0
  -19.2360  -28.6740   23.2960 C   0  0  0  0  0  0  0  0  0  0  0  0
  -19.0040  -29.9250   23.9090 C   0  0  0  0  0  3  0  0  0  0  0  0
  -17.6940  -30.4040   24.0940 C   0  0  0  0  0  3  0  0  0  0  0  0
  -16.5980  -29.6290   23.6800 C   0  0  0  0  0  3  0  0  0  0  0  0
  -16.8130  -28.3800   23.0720 C   0  0  0  0  0  3  0  0  0  0  0  0
  -25.9190  -32.4390   23.7870 C   0  0  0  0  0  3  0  0  0  0  0  0
  -25.6030  -33.8380   24.1060 N   0  0  0  0  0  0  0  0  0  0  0  0
  -25.9080  -34.8850   23.3280 C   0  0  0  0  0  0  0  0  0  0  0  0
  -26.5560  -34.7740   22.2830 O   0  0  0  0  0  0  0  0  0  0  0  0
  -25.0240  -33.9970   24.9180 H   0  0  0  0  0  0  0  0  0  0  0  0
  -24.1430  -36.6480   23.0090 C   0  0  0  0  0  1  0  0  0  0  0  0
  -25.4190  -36.2750   23.7800 C   0  0  0  0  0  3  0  0  0  0  0  0
  -27.5640  -37.2100   24.5220 C   0  0  0  0  0  1  0  0  0  0  0  0
  -26.4310  -37.3390   23.6090 N   0  0  0  0  0  0  0  0  0  0  0  0
  -26.0160  -38.2560   23.7470 H   0  0  0  0  0  0  0  0  0  0  0  0
  -26.4380  -31.6800   25.0700 C   0  0  1  0  0  0  0  0  0  0  0  0
  -25.3430  -31.4370   26.1350 C   0  0  0  0  0  1  0  0  0  0  0  0
  -27.0370  -30.3070   24.6890 C   0  0  0  0  0  1  0  0  0  0  0  0
  -27.5770  -32.4900   25.7320 C   0  0  0  0  0  1  0  0  0  0  0  0
  1  6  2  0
  2  3  1  0
  2  4  1  0
  3  5  1  0
  4 52  1  0
  4  1  1  0
  5 10  1  0
  5  1  1  0
  7  8  2  0
  7 10  1  0
  8 11  1  0
  9 12  1  0
 10  9  2  0
 11 22  1  0
 11 12  2  0
 12 13  1  0
 14 22  1  0
 15 20  1  0
 16 17  1  0
 16 15  1  0
 18 17  1  0
 18 27  1  0
 18 19  1  0
 20 14  1  0
 20 19  1  0
 21 14  2  0
 22 23  1  0
 24 25  2  0
 25 44  1  0
 26 29  1  0
 26 25  1  0
 27 28  1  0
 27 24  1  0
 28 26  2  0
 29 30  1  0
 30 31  2  0
 32 35  1  0
 32 31  1  0
 33 32  2  0
 34 33  1  0
 34 29  2  0
 35 36  1  0
 36 41  2  0
 36 37  1  0
 37 38  2  0
 38 39  1  0
 39 43  1  0
 40 39  2  0
 41 40  1  0
 42 41  1  0
 44 45  1  0
 45 47  1  0
 45 48  1  0
 46 44  2  0
 49 24  1  0
 49 50  1  0
 51 49  1  0
 52 53  1  0
 54 65  2  0
 55 53  1  0
 55 60  1  0
 56 64  1  0
 56 66  1  0
 57 63  1  0
 57 59  1  0
 58 64  1  0
 59 58  1  0
 60 59  2  0
 61 62  1  0
 61 55  2  0
 62 57  2  0
 63 56  1  0
 64 54  1  0
 66 68  2  0
 67 66  1  0
 69 67  1  0
 70 79  2  0
 70 75  1  0
 71 67  1  0
 71 75  1  0
 72 71  1  0
 73 74  1  0
 73 72  1  0
 74 70  1  0
 75 76  2  0
 76 77  1  0
 78 77  2  0
 79 78  1  0
 80 54  1  0
 80 81  1  0
 80 90  1  0
 81 84  1  0
 82 86  1  0
 82 81  1  0
 83 82  2  0
 86 85  1  0
 88 89  1  0
 88 86  1  0
 88 87  1  0
 90 93  1  1
 90 91  1  0
 92 90  1  0
M  ISO  4  14 100  22 100  52 101  53 101
M  END
>  <TORSDO>  (26) 
F 18

>  <SCORE>  (26) 
-12.990

>  <name>  (26) 
26

>  <ligand_id>  (26) 
26

>  <original_smiles>  (26) 
[H]c1c([H])c([H])c2c(c1[H])C([H])([H])C([H])([H])C([H])([H])C2([H])N([H])C(=O)C1([H])N(C(=O)C([H])(N([H])C(=O)C([H])(N([H])C([H])([H])[H])C([H])([H])[H])C(C([H])([H])[H])(C([H])([H])[H])C([H])([H])[H])C([H])([H])c2c([H])c(OC([H])([H])C3([H])C(=O)N(c4c([H])c([H])c(N([H])C(=O)N5C([H])([H])C([H])([H])C([H])([H])C([H])(n6nc(-c7c([H])c([H])c(Oc8c([H])c([H])c(F)c([H])c8F)c([H])c7[H])c(C(=O)N([H])[H])c6N([H])[H])C5([H])[H])c(Cl)c4[H])C([H])([H])C3([H])[H])c([H])c([H])c2C1([H])[H]

>  <smiles>  (26) 
[H]c1c([H])c([H])c2c(c1[H])C([H])([H])C([H])([H])C([H])([H])C2([H])N([H])C(=O)C1([H])N(C(=O)C([H])(N([H])C(=O)C([H])(N([H])C([H])([H])[H])C([H])([H])[H])C(C([H])([H])[H])(C([H])([H])[H])C([H])([H])[H])C([H])([H])c2c([H])c(OC([H])([H])C3([H])C(=O)N(c4c([H])c([H])c(N([H])C(=O)N5C([H])([H])C([H])([H])C([H])([H])C([H])(n6nc(-c7c([H])c([H])c(Oc8c([H])c([H])c(F)c([H])c8F)c([H])c7[H])c(C(=O)N([H])[H])c6N([H])[H])C5([H])[H])c(Cl)c4[H])C([H])([H])C3([H])[H])c([H])c([H])c2C1([H])[H]

$$$$
27:0:0
     RDKit          3D

 90 98  0  0  1  0  0  0  0  0999 V2000
  -28.7720  -19.1630   20.8930 C   0  0  0  0  0  3  0  0  0  0  0  0
  -31.0460  -19.5030   20.2150 C   0  0  0  0  0  3  0  0  0  0  0  0
  -28.5210  -20.5740   20.7480 C   0  0  0  0  0  3  0  0  0  0  0  0
  -30.8010  -20.8990   20.0870 C   0  0  0  0  0  3  0  0  0  0  0  0
  -30.0570  -18.5890   20.6610 C   0  0  0  0  0  0  0  0  0  0  0  0
  -29.5490  -21.4920   20.3820 C   0  0  0  0  0  0  0  0  0  0  0  0
  -29.4710  -22.9300   20.3590 N   0  0  0  0  0  0  0  0  0  0  0  0
  -30.3610  -23.3950   20.1990 H   0  0  0  0  0  0  0  0  0  0  0  0
  -28.3020  -23.8430   20.1570 C   0  0  0  0  0  2  0  0  0  0  0  0
  -28.3450  -25.2450   20.9380 C   0  0  0  0  0  2  0  0  0  0  0  0
  -28.4270  -26.5550   20.2540 O   0  0  0  0  0  0  0  0  0  0  0  0
  -24.6080  -31.9110   23.2580 C   0  0  0  0  0  0  0  0  0  0  0  0
  -27.2950  -27.3750   20.2540 C   0  0  0  0  0  0  0  0  0  0  0  0
  -23.4340  -30.4960   21.6080 C   0  0  0  0  0  3  0  0  0  0  0  0
  -24.9140  -28.9480   20.2100 C   0  0  0  0  0  0  0  0  0  0  0  0
  -25.9710  -30.8410   21.4480 C   0  0  0  0  0  2  0  0  0  0  0  0
  -26.0710  -29.4600   20.8120 C   0  0  0  0  0  0  0  0  0  0  0  0
  -27.2680  -28.6860   20.8190 C   0  0  0  0  0  3  0  0  0  0  0  0
  -26.1190  -26.9020   19.6410 C   0  0  0  0  0  3  0  0  0  0  0  0
  -24.9390  -27.6740   19.6150 C   0  0  0  0  0  3  0  0  0  0  0  0
  -23.6700  -29.8120   20.2350 C   0  0  0  0  0  2  0  0  0  0  0  0
  -24.6900  -31.1000   22.1620 N   0  0  0  0  0  0  0  0  0  0  0  0
  -23.5180  -32.1790   23.7820 O   0  0  0  0  0  0  0  0  0  0  0  0
  -22.7700  -29.4780   22.5660 C   0  0  0  0  0  0  0  0  0  0  0  0
  -21.4470  -29.2930   22.4270 N   0  0  0  0  0  0  0  0  0  0  0  0
  -23.4450  -28.8570   23.3920 O   0  0  0  0  0  0  0  0  0  0  0  0
  -20.9620  -29.8450   21.7340 H   0  0  0  0  0  0  0  0  0  0  0  0
  -18.0690  -28.0950   22.9120 C   0  0  0  0  0  0  0  0  0  0  0  0
  -20.6260  -28.3530   23.1920 C   0  0  0  0  0  3  0  0  0  0  0  0
  -20.7300  -26.9240   22.6110 C   0  0  0  0  0  2  0  0  0  0  0  0
  -19.6320  -26.6050   21.5930 C   0  0  0  0  0  2  0  0  0  0  0  0
  -18.2470  -26.7480   22.2320 C   0  0  0  0  0  2  0  0  0  0  0  0
  -19.1860  -28.8560   23.3490 C   0  0  0  0  0  0  0  0  0  0  0  0
  -18.9640  -30.1160   23.9440 C   0  0  0  0  0  3  0  0  0  0  0  0
  -17.6580  -30.6170   24.1070 C   0  0  0  0  0  3  0  0  0  0  0  0
  -16.5560  -29.8530   23.6870 C   0  0  0  0  0  3  0  0  0  0  0  0
  -16.7610  -28.5950   23.0940 C   0  0  0  0  0  3  0  0  0  0  0  0
  -25.8790  -32.5550   23.8940 C   0  0  0  0  0  3  0  0  0  0  0  0
  -26.3740  -31.8050   25.1910 C   0  0  1  0  0  0  0  0  0  0  0  0
  -25.2630  -31.5800   26.2420 C   0  0  0  0  0  1  0  0  0  0  0  0
  -26.9680  -30.4220   24.8290 C   0  0  0  0  0  1  0  0  0  0  0  0
  -27.5100  -32.6110   25.8620 C   0  0  0  0  0  1  0  0  0  0  0  0
  -25.5620  -33.9570   24.1980 N   0  0  0  0  0  0  0  0  0  0  0  0
  -25.9050  -35.0000   23.4300 C   0  0  0  0  0  0  0  0  0  0  0  0
  -26.5910  -34.8830   22.4110 O   0  0  0  0  0  0  0  0  0  0  0  0
  -24.9540  -34.1220   24.9870 H   0  0  0  0  0  0  0  0  0  0  0  0
  -24.1840  -36.7880   23.0170 C   0  0  0  0  0  1  0  0  0  0  0  0
  -25.4080  -36.3940   23.8590 C   0  0  0  0  0  3  0  0  0  0  0  0
  -27.5230  -37.2930   24.7250 C   0  0  0  0  0  1  0  0  0  0  0  0
  -26.4430  -37.4460   23.7540 N   0  0  0  0  0  0  0  0  0  0  0  0
  -26.0330  -38.3680   23.8770 H   0  0  0  0  0  0  0  0  0  0  0  0
  -30.5180  -17.1410   21.1060 C   0  0  0  0  0  2  0  0  0  0  0  0
  -30.6260  -14.7130   20.2850 C   0  0  0  0  0  0  0  0  0  0  0  0
  -30.3500  -12.5020   19.1750 C   0  0  0  0  0  2  0  0  0  0  0  0
  -29.3870  -12.6380   17.9780 C   0  0  0  0  0  2  0  0  0  0  0  0
  -27.9240  -12.4720   18.4360 C   0  0  0  0  0  2  0  0  0  0  0  0
  -27.5890  -13.3230   19.6910 C   0  0  0  0  0  3  0  0  0  0  0  0
  -28.6700  -13.1770   20.7830 C   0  0  0  0  0  2  0  0  0  0  0  0
  -29.9580  -13.5210   20.1700 N   0  0  0  0  0  0  0  0  0  0  0  0
  -31.8020  -14.8070   19.9250 O   0  0  0  0  0  0  0  0  0  0  0  0
  -29.9190  -15.8330   20.6560 N   0  0  0  0  0  0  0  0  0  0  0  0
  -28.9360  -15.7020   20.8390 H   0  0  0  0  0  0  0  0  0  0  0  0
  -25.2080  -13.9030   20.4540 C   0  0  0  0  0  0  0  0  0  0  0  0
  -24.1520  -13.1230   20.8390 C   0  0  0  0  0  0  0  0  0  0  0  0
  -24.6220  -11.7750   20.8000 C   0  0  0  0  0  0  0  0  0  0  0  0
  -26.2540  -13.0300   20.2020 N   0  0  0  0  0  0  0  0  0  0  0  0
  -25.9080  -11.7440   20.4720 N   0  0  0  0  0  0  0  0  0  0  0  0
  -23.9050  -10.5080   20.9970 C   0  0  0  0  0  0  0  0  0  0  0  0
  -24.3500   -9.5440   21.9290 C   0  0  0  0  0  3  0  0  0  0  0  0
  -23.6320   -8.3430   22.1140 C   0  0  0  0  0  3  0  0  0  0  0  0
  -22.4550   -8.0970   21.3670 C   0  0  0  0  0  0  0  0  0  0  0  0
  -22.0300   -9.0490   20.4250 C   0  0  0  0  0  3  0  0  0  0  0  0
  -22.7490  -10.2420   20.2380 C   0  0  0  0  0  3  0  0  0  0  0  0
  -21.7080   -6.9470   21.4630 O   0  0  0  0  0  0  0  0  0  0  0  0
  -21.6650   -6.2100   22.6190 C   0  0  0  0  0  0  0  0  0  0  0  0
  -21.2200   -6.7630   23.8390 C   0  0  0  0  0  3  0  0  0  0  0  0
  -21.1270   -5.9510   24.9870 C   0  0  0  0  0  3  0  0  0  0  0  0
  -21.4680   -4.5870   24.9150 C   0  0  0  0  0  0  0  0  0  0  0  0
  -21.9060   -4.0330   23.7000 C   0  0  0  0  0  3  0  0  0  0  0  0
  -22.0010   -4.8430   22.5540 C   0  0  0  0  0  0  0  0  0  0  0  0
  -22.4040   -4.2990   21.3800 F   0  0  0  0  0  0  0  0  0  0  0  0
  -21.3700   -3.8050   26.0160 F   0  0  0  0  0  0  0  0  0  0  0  0
  -22.7560  -13.5930   21.1310 C   0  0  0  0  0  0  0  0  0  0  0  0
  -22.0430  -12.8890   22.0040 N   0  0  0  0  0  0  0  0  0  0  0  0
  -22.3080  -14.6180   20.6210 O   0  0  0  0  0  0  0  0  0  0  0  0
  -22.4210  -12.0600   22.4380 H   0  0  0  0  0  0  0  0  0  0  0  0
  -21.1080  -13.1850   22.2430 H   0  0  0  0  0  0  0  0  0  0  0  0
  -25.3620  -15.2750   20.2740 N   0  0  0  0  0  0  0  0  0  0  0  0
  -24.5890  -15.9220   20.3890 H   0  0  0  0  0  0  0  0  0  0  0  0
  -26.1930  -15.7160   19.9020 H   0  0  0  0  0  0  0  0  0  0  0  0
  2  5  1  0
  3  1  1  0
  4  2  2  0
  4  6  1  0
  5  1  2  0
  5 52  1  0
  6  3  2  0
  7  6  1  0
  8  7  1  0
  9  7  1  0
  9 10  1  0
 11 13  1  0
 11 10  1  0
 12 23  2  0
 13 18  1  0
 14 22  1  0
 14 24  1  0
 15 21  1  0
 15 17  1  0
 16 22  1  0
 17 18  2  0
 17 16  1  0
 19 13  2  0
 20 19  1  0
 20 15  2  0
 21 14  1  0
 22 12  1  0
 24 26  2  0
 25 24  1  0
 27 25  1  0
 28 37  2  0
 28 33  1  0
 29 25  1  0
 29 33  1  0
 30 29  1  0
 31 32  1  0
 31 30  1  0
 32 28  1  0
 33 34  2  0
 34 35  1  0
 36 35  2  0
 37 36  1  0
 38 12  1  0
 38 43  1  0
 38 39  1  0
 39 42  1  1
 39 40  1  0
 41 39  1  0
 43 46  1  0
 44 48  1  0
 44 43  1  0
 45 44  2  0
 48 47  1  0
 50 48  1  0
 50 51  1  0
 50 49  1  0
 53 61  1  0
 54 59  1  0
 55 56  1  0
 55 54  1  0
 57 56  1  0
 57 66  1  0
 57 58  1  0
 59 53  1  0
 59 58  1  0
 60 53  2  0
 61 62  1  0
 61 52  1  0
 63 64  2  0
 64 83  1  0
 65 64  1  0
 65 68  1  0
 66 63  1  0
 66 67  1  0
 67 65  2  0
 68 69  1  0
 69 70  2  0
 71 74  1  0
 71 70  1  0
 72 71  2  0
 73 72  1  0
 73 68  2  0
 74 75  1  0
 75 76  1  0
 76 77  2  0
 78 77  1  0
 78 82  1  0
 79 78  2  0
 80 75  2  0
 80 79  1  0
 81 80  1  0
 83 84  1  0
 84 87  1  0
 84 86  1  0
 85 83  2  0
 88 89  1  0
 88 63  1  0
 90 88  1  0
M  ISO  4  10 101  11 101  53 100  61 100
M  END
>  <TORSDO>  (27) 
F 20

>  <SCORE>  (27) 
-13.714

>  <name>  (27) 
27

>  <ligand_id>  (27) 
27

>  <original_smiles>  (27) 
[H]c1c([H])c([H])c2c(c1[H])C([H])([H])C([H])([H])C([H])([H])C2([H])N([H])C(=O)C1([H])N(C(=O)C([H])(N([H])C(=O)C([H])(N([H])C([H])([H])[H])C([H])([H])[H])C(C([H])([H])[H])(C([H])([H])[H])C([H])([H])[H])C([H])([H])c2c([H])c(OC([H])([H])C([H])([H])N([H])c3c([H])c([H])c(C([H])([H])N([H])C(=O)N4C([H])([H])C([H])([H])C([H])([H])C([H])(n5nc(-c6c([H])c([H])c(Oc7c([H])c([H])c(F)c([H])c7F)c([H])c6[H])c(C(=O)N([H])[H])c5N([H])[H])C4([H])[H])c([H])c3[H])c([H])c([H])c2C1([H])[H]

>  <smiles>  (27) 
[H]c1c([H])c([H])c2c(c1[H])C([H])([H])C([H])([H])C([H])([H])C2([H])N([H])C(=O)C1([H])N(C(=O)C([H])(N([H])C(=O)C([H])(N([H])C([H])([H])[H])C([H])([H])[H])C(C([H])([H])[H])(C([H])([H])[H])C([H])([H])[H])C([H])([H])c2c([H])c(OC([H])([H])C([H])([H])N([H])c3c([H])c([H])c(C([H])([H])N([H])C(=O)N4C([H])([H])C([H])([H])C([H])([H])C([H])(n5nc(-c6c([H])c([H])c(Oc7c([H])c([H])c(F)c([H])c7F)c([H])c6[H])c(C(=O)N([H])[H])c5N([H])[H])C4([H])[H])c([H])c3[H])c([H])c([H])c2C1([H])[H]

$$$$
28:0:0
     RDKit          3D

 93102  0  0  1  0  0  0  0  0999 V2000
  -29.3550  -23.1930   17.2240 C   0  0  0  0  0  2  0  0  0  0  0  0
  -27.9790  -23.1420   17.9350 C   0  0  0  0  0  2  0  0  0  0  0  0
  -30.3330  -22.6470   18.2900 C   0  0  0  0  0  2  0  0  0  0  0  0
  -28.3920  -23.3330   19.4040 C   0  0  0  0  0  3  0  0  0  0  0  0
  -29.4940  -22.2110   19.4090 N   0  0  0  0  0  0  0  0  0  0  0  0
  -29.4520  -20.0480   20.8180 C   0  0  0  0  0  3  0  0  0  0  0  0
  -29.6030  -18.6150   21.0510 C   0  0  0  0  0  3  0  0  0  0  0  0
  -29.5650  -19.6680   18.4860 C   0  0  0  0  0  0  0  0  0  0  0  0
  -29.4450  -20.6980   19.5340 C   0  0  0  0  0  0  0  0  0  0  0  0
  -29.8080  -17.6260   20.0290 C   0  0  0  0  0  0  0  0  0  0  0  0
  -29.7750  -18.2370   18.7380 C   0  0  0  0  0  0  0  0  0  0  0  0
  -29.4470  -19.9860   16.9880 C   0  0  0  0  0  1  0  0  0  0  0  0
  -29.9060  -17.4040   17.6750 F   0  0  0  0  0  0  0  0  0  0  0  0
  -30.5910  -14.9880   19.9780 C   0  0  0  0  0  0  0  0  0  0  0  0
  -30.4270  -12.6480   19.0250 C   0  0  0  0  0  2  0  0  0  0  0  0
  -29.4200  -12.6520   17.8510 C   0  0  0  0  0  2  0  0  0  0  0  0
  -27.9760  -12.4700   18.3550 C   0  0  0  0  0  2  0  0  0  0  0  0
  -27.6530  -13.3510   19.5930 C   0  0  0  0  0  3  0  0  0  0  0  0
  -28.7760  -13.2980   20.6550 C   0  0  0  0  0  2  0  0  0  0  0  0
  -30.0180  -13.7140   19.9820 N   0  0  0  0  0  0  0  0  0  0  0  0
  -31.7620  -15.0890   19.5960 O   0  0  0  0  0  0  0  0  0  0  0  0
  -29.7950  -16.1130   20.2970 N   0  0  0  0  0  0  0  0  0  0  0  0
  -28.9390  -15.8130   20.7370 H   0  0  0  0  0  0  0  0  0  0  0  0
  -25.3080  -13.9290   20.4580 C   0  0  0  0  0  0  0  0  0  0  0  0
  -24.2570  -13.1510   20.8560 C   0  0  0  0  0  0  0  0  0  0  0  0
  -24.7090  -11.7980   20.7710 C   0  0  0  0  0  0  0  0  0  0  0  0
  -26.3360  -13.0520   20.1460 N   0  0  0  0  0  0  0  0  0  0  0  0
  -25.9850  -11.7640   20.3990 N   0  0  0  0  0  0  0  0  0  0  0  0
  -23.9850  -10.5350   20.9650 C   0  0  0  0  0  0  0  0  0  0  0  0
  -24.4270   -9.5610   21.8860 C   0  0  0  0  0  3  0  0  0  0  0  0
  -23.6970   -8.3670   22.0750 C   0  0  0  0  0  3  0  0  0  0  0  0
  -22.5110   -8.1360   21.3360 C   0  0  0  0  0  0  0  0  0  0  0  0
  -22.0880   -9.1000   20.4040 C   0  0  0  0  0  3  0  0  0  0  0  0
  -22.8170  -10.2870   20.2140 C   0  0  0  0  0  3  0  0  0  0  0  0
  -21.7560   -6.9920   21.4320 O   0  0  0  0  0  0  0  0  0  0  0  0
  -21.6880   -6.2690   22.5990 C   0  0  0  0  0  0  0  0  0  0  0  0
  -21.1860   -6.8280   23.7920 C   0  0  0  0  0  3  0  0  0  0  0  0
  -21.0620   -6.0310   24.9470 C   0  0  0  0  0  3  0  0  0  0  0  0
  -21.4390   -4.6730   24.9090 C   0  0  0  0  0  0  0  0  0  0  0  0
  -21.9380   -4.1130   23.7190 C   0  0  0  0  0  3  0  0  0  0  0  0
  -22.0600   -4.9100   22.5680 C   0  0  0  0  0  0  0  0  0  0  0  0
  -22.5180   -4.3580   21.4160 F   0  0  0  0  0  0  0  0  0  0  0  0
  -21.3180   -3.9050   26.0160 F   0  0  0  0  0  0  0  0  0  0  0  0
  -22.8760  -13.6320   21.2020 C   0  0  0  0  0  0  0  0  0  0  0  0
  -22.1750  -12.9280   22.0810 N   0  0  0  0  0  0  0  0  0  0  0  0
  -22.4250  -14.6720   20.7240 O   0  0  0  0  0  0  0  0  0  0  0  0
  -22.5480  -12.0920   22.5060 H   0  0  0  0  0  0  0  0  0  0  0  0
  -21.2500  -13.2430   22.3420 H   0  0  0  0  0  0  0  0  0  0  0  0
  -25.4520  -15.3070   20.3100 N   0  0  0  0  0  0  0  0  0  0  0  0
  -24.6830  -15.9310   20.5260 H   0  0  0  0  0  0  0  0  0  0  0  0
  -26.2350  -15.7870   19.8870 H   0  0  0  0  0  0  0  0  0  0  0  0
  -28.7260  -25.0290   19.4450 C   0  0  0  0  0  2  0  0  0  0  0  0
  -28.3870  -26.2670   20.3020 O   0  0  0  0  0  0  0  0  0  0  0  0
  -24.6730  -31.8730   23.2360 C   0  0  0  0  0  0  0  0  0  0  0  0
  -27.3220  -27.2210   20.1570 C   0  0  0  0  0  0  0  0  0  0  0  0
  -23.5020  -30.4830   21.5700 C   0  0  0  0  0  3  0  0  0  0  0  0
  -24.9700  -28.9310   20.1370 C   0  0  0  0  0  0  0  0  0  0  0  0
  -26.0500  -30.7660   21.4380 C   0  0  0  0  0  2  0  0  0  0  0  0
  -26.1380  -29.3820   20.7700 C   0  0  0  0  0  0  0  0  0  0  0  0
  -27.2980  -28.5280   20.7860 C   0  0  0  0  0  3  0  0  0  0  0  0
  -26.1300  -26.8590   19.4940 C   0  0  0  0  0  3  0  0  0  0  0  0
  -24.9750  -27.6760   19.5040 C   0  0  0  0  0  3  0  0  0  0  0  0
  -23.7400  -29.8250   20.1840 C   0  0  0  0  0  2  0  0  0  0  0  0
  -24.7600  -31.0620   22.1360 N   0  0  0  0  0  0  0  0  0  0  0  0
  -23.5810  -32.1460   23.7540 O   0  0  0  0  0  0  0  0  0  0  0  0
  -22.8210  -29.4590   22.5140 C   0  0  0  0  0  0  0  0  0  0  0  0
  -21.4950  -29.2900   22.3800 N   0  0  0  0  0  0  0  0  0  0  0  0
  -23.4910  -28.8230   23.3310 O   0  0  0  0  0  0  0  0  0  0  0  0
  -21.0080  -29.8460   21.6900 H   0  0  0  0  0  0  0  0  0  0  0  0
  -18.1100  -28.1120   22.8820 C   0  0  0  0  0  0  0  0  0  0  0  0
  -20.6730  -28.3430   23.1370 C   0  0  0  0  0  3  0  0  0  0  0  0
  -20.7590  -26.9250   22.5280 C   0  0  0  0  0  2  0  0  0  0  0  0
  -19.6470  -26.6380   21.5150 C   0  0  0  0  0  2  0  0  0  0  0  0
  -18.2700  -26.7810   22.1690 C   0  0  0  0  0  2  0  0  0  0  0  0
  -19.2390  -28.8550   23.3220 C   0  0  0  0  0  0  0  0  0  0  0  0
  -19.0320  -30.1030   23.9500 C   0  0  0  0  0  3  0  0  0  0  0  0
  -17.7320  -30.6110   24.1340 C   0  0  0  0  0  3  0  0  0  0  0  0
  -16.6180  -29.8650   23.7090 C   0  0  0  0  0  3  0  0  0  0  0  0
  -16.8090  -28.6160   23.0910 C   0  0  0  0  0  3  0  0  0  0  0  0
  -25.9420  -32.5100   23.8810 C   0  0  0  0  0  3  0  0  0  0  0  0
  -25.6230  -33.9080   24.2070 N   0  0  0  0  0  0  0  0  0  0  0  0
  -25.9450  -34.9630   23.4450 C   0  0  0  0  0  0  0  0  0  0  0  0
  -26.6100  -34.8590   22.4100 O   0  0  0  0  0  0  0  0  0  0  0  0
  -25.0340  -34.0610   25.0120 H   0  0  0  0  0  0  0  0  0  0  0  0
  -24.2040  -36.7450   23.1090 C   0  0  0  0  0  1  0  0  0  0  0  0
  -25.4580  -36.3490   23.9070 C   0  0  0  0  0  3  0  0  0  0  0  0
  -27.5900  -37.2580   24.7200 C   0  0  0  0  0  1  0  0  0  0  0  0
  -26.4820  -37.4090   23.7790 N   0  0  0  0  0  0  0  0  0  0  0  0
  -26.0700  -38.3260   23.9220 H   0  0  0  0  0  0  0  0  0  0  0  0
  -26.4320  -31.7460   25.1730 C   0  0  1  0  0  0  0  0  0  0  0  0
  -25.3110  -31.5130   26.2140 C   0  0  0  0  0  1  0  0  0  0  0  0
  -27.0280  -30.3680   24.8040 C   0  0  0  0  0  1  0  0  0  0  0  0
  -27.5680  -32.5440   25.8570 C   0  0  0  0  0  1  0  0  0  0  0  0
  1  2  1  0
  1  3  1  0
  2  4  1  0
  3  5  1  0
  4  5  1  0
  4 52  1  0
  5  9  1  0
  6  7  1  0
  8 11  2  0
  8  9  1  0
  9  6  2  0
 10 22  1  0
 10  7  2  0
 11 10  1  0
 12  8  1  0
 13 11  1  0
 14 20  1  0
 14 22  1  0
 15 20  1  0
 16 17  1  0
 16 15  1  0
 18 17  1  0
 18 27  1  0
 18 19  1  0
 20 19  1  0
 21 14  2  0
 22 23  1  0
 24 25  2  0
 25 44  1  0
 26 25  1  0
 26 29  1  0
 27 28  1  0
 27 24  1  0
 28 26  2  0
 29 30  1  0
 30 31  2  0
 32 35  1  0
 32 31  1  0
 33 32  2  0
 34 33  1  0
 34 29  2  0
 35 36  1  0
 36 37  1  0
 37 38  2  0
 39 38  1  0
 39 43  1  0
 40 39  2  0
 41 36  2  0
 41 40  1  0
 42 41  1  0
 44 45  1  0
 45 48  1  0
 45 47  1  0
 46 44  2  0
 49 24  1  0
 49 50  1  0
 51 49  1  0
 52 53  1  0
 54 65  2  0
 55 53  1  0
 55 60  1  0
 56 64  1  0
 56 66  1  0
 57 63  1  0
 57 59  1  0
 58 64  1  0
 59 60  2  0
 59 58  1  0
 61 62  1  0
 61 55  2  0
 62 57  2  0
 63 56  1  0
 64 54  1  0
 66 68  2  0
 67 66  1  0
 69 67  1  0
 70 79  2  0
 70 75  1  0
 71 67  1  0
 71 75  1  0
 72 71  1  0
 73 74  1  0
 73 72  1  0
 74 70  1  0
 75 76  2  0
 76 77  1  0
 78 77  2  0
 79 78  1  0
 80 54  1  0
 80 81  1  0
 80 90  1  0
 81 84  1  0
 82 86  1  0
 82 81  1  0
 83 82  2  0
 86 85  1  0
 88 86  1  0
 88 89  1  0
 88 87  1  0
 90 93  1  1
 90 91  1  0
 92 90  1  0
M  ISO  4  14 100  22 100  52 101  53 101
M  END
>  <TORSDO>  (28) 
F 18

>  <SCORE>  (28) 
-15.157

>  <name>  (28) 
28

>  <ligand_id>  (28) 
28

>  <original_smiles>  (28) 
[H]c1c([H])c([H])c2c(c1[H])C([H])([H])C([H])([H])C([H])([H])C2([H])N([H])C(=O)C1([H])N(C(=O)C([H])(N([H])C(=O)C([H])(N([H])C([H])([H])[H])C([H])([H])[H])C(C([H])([H])[H])(C([H])([H])[H])C([H])([H])[H])C([H])([H])c2c([H])c(OC([H])([H])C3([H])N(c4c([H])c([H])c(N([H])C(=O)N5C([H])([H])C([H])([H])C([H])([H])C([H])(n6nc(-c7c([H])c([H])c(Oc8c([H])c([H])c(F)c([H])c8F)c([H])c7[H])c(C(=O)N([H])[H])c6N([H])[H])C5([H])[H])c(F)c4C([H])([H])[H])C([H])([H])C([H])([H])C3([H])[H])c([H])c([H])c2C1([H])[H]

>  <smiles>  (28) 
[H]c1c([H])c([H])c2c(c1[H])C([H])([H])C([H])([H])C([H])([H])C2([H])N([H])C(=O)C1([H])N(C(=O)C([H])(N([H])C(=O)C([H])(N([H])C([H])([H])[H])C([H])([H])[H])C(C([H])([H])[H])(C([H])([H])[H])C([H])([H])[H])C([H])([H])c2c([H])c(OC([H])([H])C3([H])N(c4c([H])c([H])c(N([H])C(=O)N5C([H])([H])C([H])([H])C([H])([H])C([H])(n6nc(-c7c([H])c([H])c(Oc8c([H])c([H])c(F)c([H])c8F)c([H])c7[H])c(C(=O)N([H])[H])c6N([H])[H])C5([H])[H])c(F)c4C([H])([H])[H])C([H])([H])C([H])([H])C3([H])[H])c([H])c([H])c2C1([H])[H]

$$$$
29:0:0
     RDKit          3D

 92101  0  0  1  0  0  0  0  0999 V2000
  -30.9780  -14.5920   20.2130 C   0  0  0  0  0  0  0  0  0  0  0  0
  -30.6780  -12.2870   19.4060 C   0  0  0  0  0  2  0  0  0  0  0  0
  -29.7820  -12.3230   18.1530 C   0  0  0  0  0  2  0  0  0  0  0  0
  -28.2930  -12.2520   18.5490 C   0  0  0  0  0  2  0  0  0  0  0  0
  -27.9180  -13.2450   19.6830 C   0  0  0  0  0  3  0  0  0  0  0  0
  -28.9490  -13.2020   20.8350 C   0  0  0  0  0  2  0  0  0  0  0  0
  -30.2740  -13.4260   20.2470 N   0  0  0  0  0  0  0  0  0  0  0  0
  -32.1830  -14.5950   19.9420 O   0  0  0  0  0  0  0  0  0  0  0  0
  -29.1010  -18.8670   21.8390 C   0  0  0  0  0  3  0  0  0  0  0  0
  -28.9860  -20.2510   21.5930 C   0  0  0  0  0  3  0  0  0  0  0  0
  -29.3880  -18.0040   20.7640 C   0  0  0  0  0  0  0  0  0  0  0  0
  -29.5230  -18.5850   19.4910 C   0  0  0  0  0  0  0  0  0  0  0  0
  -29.1670  -20.7490   20.2890 C   0  0  0  0  0  0  0  0  0  0  0  0
  -29.5120  -16.4770   20.9620 C   0  0  0  0  0  2  0  0  0  0  0  0
  -29.7980  -17.6630   18.3280 C   0  0  0  0  0  2  0  0  0  0  0  0
  -30.7230  -16.5070   18.7500 C   0  0  0  0  0  2  0  0  0  0  0  0
  -29.4300  -19.9210   19.2510 N   0  0  0  0  0  0  0  0  0  0  0  0
  -30.2600  -15.7230   19.9240 N   0  0  0  0  0  0  0  0  0  0  0  0
  -29.0560  -22.1350   20.0660 N   0  0  0  0  0  0  0  0  0  0  0  0
  -28.9020  -22.7150   20.8840 H   0  0  0  0  0  0  0  0  0  0  0  0
  -25.5420  -13.9500   20.3580 C   0  0  0  0  0  0  0  0  0  0  0  0
  -24.4420  -13.2260   20.7300 C   0  0  0  0  0  0  0  0  0  0  0  0
  -24.8520  -11.8570   20.7300 C   0  0  0  0  0  0  0  0  0  0  0  0
  -26.5550  -13.0260   20.1580 N   0  0  0  0  0  0  0  0  0  0  0  0
  -26.1440  -11.7630   20.4400 N   0  0  0  0  0  0  0  0  0  0  0  0
  -24.0740  -10.6290   20.9330 C   0  0  0  0  0  0  0  0  0  0  0  0
  -24.4930   -9.6300   21.8400 C   0  0  0  0  0  3  0  0  0  0  0  0
  -23.7210   -8.4650   22.0320 C   0  0  0  0  0  3  0  0  0  0  0  0
  -22.5110   -8.2900   21.3180 C   0  0  0  0  0  0  0  0  0  0  0  0
  -22.1090   -9.2770   20.4010 C   0  0  0  0  0  3  0  0  0  0  0  0
  -22.8820  -10.4320   20.2060 C   0  0  0  0  0  3  0  0  0  0  0  0
  -21.7070   -7.1810   21.4240 O   0  0  0  0  0  0  0  0  0  0  0  0
  -21.7220   -6.3840   22.5390 C   0  0  0  0  0  0  0  0  0  0  0  0
  -21.4460   -6.8980   23.8260 C   0  0  0  0  0  3  0  0  0  0  0  0
  -21.4030   -6.0300   24.9350 C   0  0  0  0  0  3  0  0  0  0  0  0
  -21.6260   -4.6520   24.7610 C   0  0  0  0  0  0  0  0  0  0  0  0
  -21.8960   -4.1370   23.4800 C   0  0  0  0  0  3  0  0  0  0  0  0
  -21.9410   -5.0020   22.3730 C   0  0  0  0  0  0  0  0  0  0  0  0
  -22.1800   -4.4980   21.1380 F   0  0  0  0  0  0  0  0  0  0  0  0
  -21.5770   -3.8170   25.8250 F   0  0  0  0  0  0  0  0  0  0  0  0
  -23.0600  -13.7620   20.9750 C   0  0  0  0  0  0  0  0  0  0  0  0
  -22.3010  -13.1200   21.8550 N   0  0  0  0  0  0  0  0  0  0  0  0
  -22.6650  -14.7850   20.4200 O   0  0  0  0  0  0  0  0  0  0  0  0
  -22.6330  -12.2930   22.3280 H   0  0  0  0  0  0  0  0  0  0  0  0
  -21.3740  -13.4650   22.0610 H   0  0  0  0  0  0  0  0  0  0  0  0
  -25.7590  -15.3090   20.1520 N   0  0  0  0  0  0  0  0  0  0  0  0
  -25.0140  -15.9910   20.2280 H   0  0  0  0  0  0  0  0  0  0  0  0
  -26.6230  -15.7060   19.8050 H   0  0  0  0  0  0  0  0  0  0  0  0
  -29.6510  -22.7850   18.8900 C   0  0  0  0  0  2  0  0  0  0  0  0
  -29.7800  -24.3420   18.9950 C   0  0  0  0  0  2  0  0  0  0  0  0
  -28.4940  -25.1530   18.6960 C   0  0  0  0  0  2  0  0  0  0  0  0
  -28.6240  -26.5780   18.9350 O   0  0  0  0  0  0  0  0  0  0  0  0
  -24.8020  -31.2320   22.7830 C   0  0  0  0  0  0  0  0  0  0  0  0
  -27.4460  -27.3050   19.0400 C   0  0  0  0  0  0  0  0  0  0  0  0
  -23.5750  -30.0130   21.0180 C   0  0  0  0  0  3  0  0  0  0  0  0
  -25.0140  -28.7400   19.3430 C   0  0  0  0  0  0  0  0  0  0  0  0
  -26.0820  -30.4850   20.7730 C   0  0  0  0  0  2  0  0  0  0  0  0
  -26.1840  -29.2130   19.9510 C   0  0  0  0  0  0  0  0  0  0  0  0
  -27.4020  -28.5050   19.7950 C   0  0  0  0  0  3  0  0  0  0  0  0
  -26.2510  -26.8660   18.4190 C   0  0  0  0  0  3  0  0  0  0  0  0
  -25.0440  -27.5690   18.5720 C   0  0  0  0  0  3  0  0  0  0  0  0
  -23.7480  -29.5400   19.5520 C   0  0  0  0  0  2  0  0  0  0  0  0
  -24.8410  -30.5850   21.5840 N   0  0  0  0  0  0  0  0  0  0  0  0
  -23.7370  -31.3860   23.3950 O   0  0  0  0  0  0  0  0  0  0  0  0
  -23.0010  -28.8460   21.8550 C   0  0  0  0  0  0  0  0  0  0  0  0
  -21.6780  -28.6380   21.7660 N   0  0  0  0  0  0  0  0  0  0  0  0
  -23.7420  -28.1390   22.5430 O   0  0  0  0  0  0  0  0  0  0  0  0
  -21.1380  -29.2670   21.1870 H   0  0  0  0  0  0  0  0  0  0  0  0
  -18.3700  -27.2550   22.2240 C   0  0  0  0  0  0  0  0  0  0  0  0
  -20.9260  -27.5770   22.4370 C   0  0  0  0  0  3  0  0  0  0  0  0
  -21.0560  -26.2380   21.6760 C   0  0  0  0  0  2  0  0  0  0  0  0
  -19.9260  -26.0030   20.6700 C   0  0  0  0  0  2  0  0  0  0  0  0
  -18.5670  -26.0110   21.3740 C   0  0  0  0  0  2  0  0  0  0  0  0
  -19.4780  -27.9990   22.7100 C   0  0  0  0  0  0  0  0  0  0  0  0
  -19.2380  -29.1670   23.4650 C   0  0  0  0  0  3  0  0  0  0  0  0
  -17.9240  -29.5920   23.7390 C   0  0  0  0  0  3  0  0  0  0  0  0
  -16.8320  -28.8430   23.2680 C   0  0  0  0  0  3  0  0  0  0  0  0
  -17.0560  -27.6760   22.5170 C   0  0  0  0  0  3  0  0  0  0  0  0
  -26.0910  -31.8270   23.4310 C   0  0  0  0  0  3  0  0  0  0  0  0
  -25.7410  -33.1440   23.9810 N   0  0  0  0  0  0  0  0  0  0  0  0
  -26.0060  -34.3120   23.3810 C   0  0  0  0  0  0  0  0  0  0  0  0
  -26.6420  -34.3950   22.3270 O   0  0  0  0  0  0  0  0  0  0  0  0
  -25.1740  -33.1500   24.8160 H   0  0  0  0  0  0  0  0  0  0  0  0
  -24.1970  -36.0570   23.3550 C   0  0  0  0  0  1  0  0  0  0  0  0
  -25.4830  -35.5930   24.0580 C   0  0  0  0  0  3  0  0  0  0  0  0
  -27.6110  -36.4350   24.9470 C   0  0  0  0  0  1  0  0  0  0  0  0
  -26.4690  -36.6960   24.0740 N   0  0  0  0  0  0  0  0  0  0  0  0
  -26.0340  -37.5640   24.3720 H   0  0  0  0  0  0  0  0  0  0  0  0
  -26.7070  -30.9010   24.5500 C   0  0  1  0  0  0  0  0  0  0  0  0
  -25.6880  -30.4620   25.6270 C   0  0  0  0  0  1  0  0  0  0  0  0
  -27.3130  -29.6230   23.9240 C   0  0  0  0  0  1  0  0  0  0  0  0
  -27.8660  -31.6380   25.2600 C   0  0  0  0  0  1  0  0  0  0  0  0
  1  7  1  0
  2  7  1  0
  3  4  1  0
  3  2  1  0
  5  4  1  0
  5 24  1  0
  5  6  1  0
  7  6  1  0
  8  1  2  0
 10  9  1  0
 11 14  1  0
 11  9  2  0
 12 11  1  0
 13 10  2  0
 15 16  1  0
 15 12  1  0
 16 18  1  0
 17 12  2  0
 17 13  1  0
 18  1  1  0
 18 14  1  0
 19 13  1  0
 19 20  1  0
 21 22  2  0
 22 23  1  0
 22 41  1  0
 23 26  1  0
 24 21  1  0
 24 25  1  0
 25 23  2  0
 26 27  1  0
 27 28  2  0
 29 32  1  0
 29 28  1  0
 30 29  2  0
 31 30  1  0
 31 26  2  0
 32 33  1  0
 33 34  1  0
 34 35  2  0
 36 35  1  0
 36 40  1  0
 37 36  2  0
 38 33  2  0
 38 37  1  0
 39 38  1  0
 41 42  1  0
 42 45  1  0
 42 44  1  0
 43 41  2  0
 46 47  1  0
 46 21  1  0
 48 46  1  0
 49 50  1  0
 49 19  1  0
 51 52  1  0
 51 50  1  0
 52 54  1  0
 53 64  2  0
 54 59  1  0
 55 63  1  0
 55 65  1  0
 56 62  1  0
 56 58  1  0
 57 63  1  0
 58 57  1  0
 59 58  2  0
 60 61  1  0
 60 54  2  0
 61 56  2  0
 62 55  1  0
 63 53  1  0
 65 67  2  0
 66 65  1  0
 68 66  1  0
 69 78  2  0
 69 74  1  0
 70 66  1  0
 70 74  1  0
 71 70  1  0
 72 73  1  0
 72 71  1  0
 73 69  1  0
 74 75  2  0
 75 76  1  0
 77 76  2  0
 78 77  1  0
 79 53  1  0
 79 80  1  0
 79 89  1  0
 80 83  1  0
 81 80  1  0
 81 85  1  0
 82 81  2  0
 85 84  1  0
 85 87  1  0
 87 88  1  0
 87 86  1  0
 89 92  1  1
 89 90  1  0
 91 89  1  0
M  ISO  4   1 100  18 100  51 101  52 101
M  END
>  <TORSDO>  (29) 
F 18

>  <SCORE>  (29) 
-10.543

>  <name>  (29) 
29

>  <ligand_id>  (29) 
29

>  <original_smiles>  (29) 
[H]c1c(N([H])C([H])([H])C([H])([H])C([H])([H])Oc2c([H])c([H])c3c(c2[H])C([H])([H])N(C(=O)C([H])(N([H])C(=O)C([H])(N([H])C([H])([H])[H])C([H])([H])[H])C(C([H])([H])[H])(C([H])([H])[H])C([H])([H])[H])C([H])(C(=O)N([H])C2([H])c4c([H])c([H])c([H])c([H])c4C([H])([H])C([H])([H])C2([H])[H])C3([H])[H])nc2c(c1[H])C([H])([H])N(C(=O)N1C([H])([H])C([H])([H])C([H])([H])C([H])(n3nc(-c4c([H])c([H])c(Oc5c([H])c([H])c(F)c([H])c5F)c([H])c4[H])c(C(=O)N([H])[H])c3N([H])[H])C1([H])[H])C([H])([H])C2([H])[H]

>  <smiles>  (29) 
[H]c1c(N([H])C([H])([H])C([H])([H])C([H])([H])Oc2c([H])c([H])c3c(c2[H])C([H])([H])N(C(=O)C([H])(N([H])C(=O)C([H])(N([H])C([H])([H])[H])C([H])([H])[H])C(C([H])([H])[H])(C([H])([H])[H])C([H])([H])[H])C([H])(C(=O)N([H])C2([H])c4c([H])c([H])c([H])c([H])c4C([H])([H])C([H])([H])C2([H])[H])C3([H])[H])nc2c(c1[H])C([H])([H])N(C(=O)N1C([H])([H])C([H])([H])C([H])([H])C([H])(n3nc(-c4c([H])c([H])c(Oc5c([H])c([H])c(F)c([H])c5F)c([H])c4[H])c(C(=O)N([H])[H])c3N([H])[H])C1([H])[H])C([H])([H])C2([H])[H]

$$$$
30:0:0
     RDKit          3D

 91 99  0  0  1  0  0  0  0  0999 V2000
  -29.1250  -19.8100   21.5310 C   0  0  0  0  0  3  0  0  0  0  0  0
  -29.4040  -18.3940   21.5130 C   0  0  0  0  0  3  0  0  0  0  0  0
  -29.6850  -19.9770   19.2390 C   0  0  0  0  0  0  0  0  0  0  0  0
  -29.2290  -20.6980   20.4130 C   0  0  0  0  0  0  0  0  0  0  0  0
  -29.8440  -17.6640   20.3650 C   0  0  0  0  0  0  0  0  0  0  0  0
  -29.9700  -18.5310   19.2220 C   0  0  0  0  0  0  0  0  0  0  0  0
  -29.7880  -20.7190   17.9160 C   0  0  0  0  0  1  0  0  0  0  0  0
  -30.3860  -17.7740   17.7200 Cl  0  0  0  0  0  0  0  0  0  0  0  0
  -30.7100  -15.0760   19.9630 C   0  0  0  0  0  0  0  0  0  0  0  0
  -30.5820  -12.7680   18.9290 C   0  0  0  0  0  2  0  0  0  0  0  0
  -29.5700  -12.7990   17.7590 C   0  0  0  0  0  2  0  0  0  0  0  0
  -28.1310  -12.5690   18.2680 C   0  0  0  0  0  2  0  0  0  0  0  0
  -27.8070  -13.4280   19.5200 C   0  0  0  0  0  3  0  0  0  0  0  0
  -28.9310  -13.3480   20.5750 C   0  0  0  0  0  2  0  0  0  0  0  0
  -30.1690  -13.7950   19.9230 N   0  0  0  0  0  0  0  0  0  0  0  0
  -31.8570  -15.2350   19.5310 O   0  0  0  0  0  0  0  0  0  0  0  0
  -29.8830  -16.1360   20.3970 N   0  0  0  0  0  0  0  0  0  0  0  0
  -29.0610  -15.7560   20.8370 H   0  0  0  0  0  0  0  0  0  0  0  0
  -25.4730  -13.9780   20.4260 C   0  0  0  0  0  0  0  0  0  0  0  0
  -24.4360  -13.1860   20.8380 C   0  0  0  0  0  0  0  0  0  0  0  0
  -24.8980  -11.8380   20.7270 C   0  0  0  0  0  0  0  0  0  0  0  0
  -26.4990  -13.1110   20.0850 N   0  0  0  0  0  0  0  0  0  0  0  0
  -26.1650  -11.8180   20.3290 N   0  0  0  0  0  0  0  0  0  0  0  0
  -24.1870  -10.5680   20.9180 C   0  0  0  0  0  0  0  0  0  0  0  0
  -24.6240   -9.6110   21.8600 C   0  0  0  0  0  3  0  0  0  0  0  0
  -23.9100   -8.4070   22.0400 C   0  0  0  0  0  3  0  0  0  0  0  0
  -22.7470   -8.1490   21.2750 C   0  0  0  0  0  0  0  0  0  0  0  0
  -22.3300   -9.0940   20.3220 C   0  0  0  0  0  3  0  0  0  0  0  0
  -23.0440  -10.2910   20.1420 C   0  0  0  0  0  3  0  0  0  0  0  0
  -22.0060   -6.9950   21.3630 O   0  0  0  0  0  0  0  0  0  0  0  0
  -21.8790   -6.3090   22.5440 C   0  0  0  0  0  0  0  0  0  0  0  0
  -21.3070   -6.9000   23.6920 C   0  0  0  0  0  3  0  0  0  0  0  0
  -21.1330   -6.1370   24.8640 C   0  0  0  0  0  3  0  0  0  0  0  0
  -21.5200   -4.7830   24.8870 C   0  0  0  0  0  0  0  0  0  0  0  0
  -22.0830   -4.1920   23.7430 C   0  0  0  0  0  3  0  0  0  0  0  0
  -22.2590   -4.9510   22.5740 C   0  0  0  0  0  0  0  0  0  0  0  0
  -22.7830   -4.3710   21.4680 F   0  0  0  0  0  0  0  0  0  0  0  0
  -21.3450   -4.0480   26.0100 F   0  0  0  0  0  0  0  0  0  0  0  0
  -23.0590  -13.6480   21.2180 C   0  0  0  0  0  0  0  0  0  0  0  0
  -22.3880  -12.9180   22.1000 N   0  0  0  0  0  0  0  0  0  0  0  0
  -22.5910  -14.6940   20.7690 O   0  0  0  0  0  0  0  0  0  0  0  0
  -22.7850  -12.0730   22.4870 H   0  0  0  0  0  0  0  0  0  0  0  0
  -21.4670  -13.2070   22.3930 H   0  0  0  0  0  0  0  0  0  0  0  0
  -25.6210  -15.3540   20.2890 N   0  0  0  0  0  0  0  0  0  0  0  0
  -24.8550  -15.9930   20.4670 H   0  0  0  0  0  0  0  0  0  0  0  0
  -26.4320  -15.8120   19.8940 H   0  0  0  0  0  0  0  0  0  0  0  0
  -28.7750  -22.1060   20.5980 N   0  0  0  0  0  0  0  0  0  0  0  0
  -28.2690  -22.2100   21.4750 H   0  0  0  0  0  0  0  0  0  0  0  0
  -29.0840  -23.5190   20.0170 C   0  0  0  0  0  3  0  0  0  0  0  0
  -28.1630  -24.8520   20.4550 C   0  0  0  0  0  3  0  0  0  0  0  0
  -28.4190  -26.3490   20.1440 O   0  0  0  0  0  0  0  0  0  0  0  0
  -24.6960  -31.9210   23.1900 C   0  0  0  0  0  0  0  0  0  0  0  0
  -27.3400  -27.2960   20.1220 C   0  0  0  0  0  0  0  0  0  0  0  0
  -23.5150  -30.5220   21.5390 C   0  0  0  0  0  3  0  0  0  0  0  0
  -24.9840  -28.9880   20.0970 C   0  0  0  0  0  0  0  0  0  0  0  0
  -26.0610  -30.8360   21.3690 C   0  0  0  0  0  2  0  0  0  0  0  0
  -26.1550  -29.4510   20.7130 C   0  0  0  0  0  0  0  0  0  0  0  0
  -27.3350  -28.6220   20.7090 C   0  0  0  0  0  3  0  0  0  0  0  0
  -26.1480  -26.9340   19.4570 C   0  0  0  0  0  3  0  0  0  0  0  0
  -24.9920  -27.7420   19.4520 C   0  0  0  0  0  3  0  0  0  0  0  0
  -23.7440  -29.8630   20.1520 C   0  0  0  0  0  2  0  0  0  0  0  0
  -24.7770  -31.1150   22.0880 N   0  0  0  0  0  0  0  0  0  0  0  0
  -23.6070  -32.1810   23.7230 O   0  0  0  0  0  0  0  0  0  0  0  0
  -22.8580  -29.4920   22.4900 C   0  0  0  0  0  0  0  0  0  0  0  0
  -21.5320  -29.3070   22.3680 N   0  0  0  0  0  0  0  0  0  0  0  0
  -23.5410  -28.8670   23.3050 O   0  0  0  0  0  0  0  0  0  0  0  0
  -21.0370  -29.8660   21.6860 H   0  0  0  0  0  0  0  0  0  0  0  0
  -18.1620  -28.0810   22.8890 C   0  0  0  0  0  0  0  0  0  0  0  0
  -20.7230  -28.3510   23.1300 C   0  0  0  0  0  3  0  0  0  0  0  0
  -20.8240  -26.9310   22.5290 C   0  0  0  0  0  2  0  0  0  0  0  0
  -19.7110  -26.6200   21.5230 C   0  0  0  0  0  2  0  0  0  0  0  0
  -18.3370  -26.7450   22.1850 C   0  0  0  0  0  2  0  0  0  0  0  0
  -19.2820  -28.8420   23.3180 C   0  0  0  0  0  0  0  0  0  0  0  0
  -19.0630  -30.0920   23.9380 C   0  0  0  0  0  3  0  0  0  0  0  0
  -17.7570  -30.5790   24.1320 C   0  0  0  0  0  3  0  0  0  0  0  0
  -16.6530  -29.8160   23.7170 C   0  0  0  0  0  3  0  0  0  0  0  0
  -16.8560  -28.5690   23.1010 C   0  0  0  0  0  3  0  0  0  0  0  0
  -25.9660  -32.5690   23.8230 C   0  0  0  0  0  3  0  0  0  0  0  0
  -26.4800  -31.8030   25.1030 C   0  0  1  0  0  0  0  0  0  0  0  0
  -25.3800  -31.5440   26.1610 C   0  0  0  0  0  1  0  0  0  0  0  0
  -27.0920  -30.4370   24.7170 C   0  0  0  0  0  1  0  0  0  0  0  0
  -27.6090  -32.6160   25.7810 C   0  0  0  0  0  1  0  0  0  0  0  0
  -25.6350  -33.9640   24.1580 N   0  0  0  0  0  0  0  0  0  0  0  0
  -25.9520  -35.0260   23.4050 C   0  0  0  0  0  0  0  0  0  0  0  0
  -26.6230  -34.9350   22.3730 O   0  0  0  0  0  0  0  0  0  0  0  0
  -25.0370  -34.1050   24.9590 H   0  0  0  0  0  0  0  0  0  0  0  0
  -24.2070  -36.8070   23.0570 C   0  0  0  0  0  1  0  0  0  0  0  0
  -25.4490  -36.4080   23.8710 C   0  0  0  0  0  3  0  0  0  0  0  0
  -27.5700  -37.3120   24.7200 C   0  0  0  0  0  1  0  0  0  0  0  0
  -26.4720  -37.4730   23.7700 N   0  0  0  0  0  0  0  0  0  0  0  0
  -26.0550  -38.3880   23.9170 H   0  0  0  0  0  0  0  0  0  0  0  0
  2  1  1  0
  3  4  1  0
  4 47  1  0
  4  1  2  0
  5 17  1  0
  5  2  2  0
  6  3  2  0
  6  5  1  0
  7  3  1  0
  8  6  1  0
  9 17  1  0
 10 15  1  0
 11 12  1  0
 11 10  1  0
 13 12  1  0
 13 22  1  0
 13 14  1  0
 15  9  1  0
 15 14  1  0
 16  9  2  0
 17 18  1  0
 19 20  2  0
 20 39  1  0
 21 20  1  0
 21 24  1  0
 22 23  1  0
 22 19  1  0
 23 21  2  0
 24 25  1  0
 25 26  2  0
 27 30  1  0
 27 26  1  0
 28 27  2  0
 29 28  1  0
 29 24  2  0
 30 31  1  0
 31 36  2  0
 31 32  1  0
 32 33  2  0
 33 34  1  0
 34 38  1  0
 35 34  2  0
 36 35  1  0
 37 36  1  0
 39 40  1  0
 40 43  1  0
 40 42  1  0
 41 39  2  0
 44 19  1  0
 44 45  1  0
 46 44  1  0
 47 48  1  0
 49 50  2  0
 49 47  1  0
 51 50  1  0
 52 63  2  0
 53 51  1  0
 53 58  1  0
 54 62  1  0
 54 64  1  0
 55 61  1  0
 55 57  1  0
 56 62  1  0
 57 56  1  0
 58 57  2  0
 59 53  2  0
 60 59  1  0
 60 55  2  0
 61 54  1  0
 62 52  1  0
 64 66  2  0
 65 64  1  0
 67 65  1  0
 68 77  2  0
 68 73  1  0
 69 65  1  0
 69 73  1  0
 70 69  1  0
 71 72  1  0
 71 70  1  0
 72 68  1  0
 73 74  2  0
 74 75  1  0
 76 75  2  0
 77 76  1  0
 78 52  1  0
 78 83  1  0
 78 79  1  0
 79 82  1  1
 79 80  1  0
 81 79  1  0
 83 86  1  0
 84 88  1  0
 84 83  1  0
 85 84  2  0
 88 87  1  0
 90 88  1  0
 90 91  1  0
 90 89  1  0
M  ISO  4   9 100  17 100  50 101  51 101
M  END
>  <TORSDO>  (30) 
F 19

>  <SCORE>  (30) 
-12.827

>  <name>  (30) 
30

>  <ligand_id>  (30) 
30

>  <original_smiles>  (30) 
[H]c1c([H])c([H])c2c(c1[H])C([H])([H])C([H])([H])C([H])([H])C2([H])N([H])C(=O)C1([H])N(C(=O)C([H])(N([H])C(=O)C([H])(N([H])C([H])([H])[H])C([H])([H])[H])C(C([H])([H])[H])(C([H])([H])[H])C([H])([H])[H])C([H])([H])c2c([H])c(OC([H])([H])C([H])([H])N([H])c3c([H])c([H])c(N([H])C(=O)N4C([H])([H])C([H])([H])C([H])([H])C([H])(n5nc(-c6c([H])c([H])c(Oc7c([H])c([H])c(F)c([H])c7F)c([H])c6[H])c(C(=O)N([H])[H])c5N([H])[H])C4([H])[H])c(Cl)c3C([H])([H])[H])c([H])c([H])c2C1([H])[H]

>  <smiles>  (30) 
[H]c1c([H])c([H])c2c(c1[H])C([H])([H])C([H])([H])C([H])([H])C2([H])N([H])C(=O)C1([H])N(C(=O)C([H])(N([H])C(=O)C([H])(N([H])C([H])([H])[H])C([H])([H])[H])C(C([H])([H])[H])(C([H])([H])[H])C([H])([H])[H])C([H])([H])c2c([H])c(OC([H])([H])C([H])([H])N([H])c3c([H])c([H])c(N([H])C(=O)N4C([H])([H])C([H])([H])C([H])([H])C([H])(n5nc(-c6c([H])c([H])c(Oc7c([H])c([H])c(F)c([H])c7F)c([H])c6[H])c(C(=O)N([H])[H])c5N([H])[H])C4([H])[H])c(Cl)c3C([H])([H])[H])c([H])c([H])c2C1([H])[H]

$$$$
31:0:0
     RDKit          3D

 94103  0  0  1  0  0  0  0  0999 V2000
  -28.9700  -22.4260   20.5810 C   0  0  0  0  0  0  0  0  0  0  0  0
  -27.8010  -22.2340   17.9190 C   0  0  0  0  0  2  0  0  0  0  0  0
  -27.7430  -23.6360   18.5630 C   0  0  0  0  0  2  0  0  0  0  0  0
  -29.1090  -21.5300   18.2970 C   0  0  0  0  0  2  0  0  0  0  0  0
  -28.0710  -23.6530   20.0890 C   0  0  0  0  0  3  0  0  0  0  0  0
  -29.2090  -21.3430   19.7550 N   0  0  0  0  0  0  0  0  0  0  0  0
  -29.3970  -22.4460   21.7420 O   0  0  0  0  0  0  0  0  0  0  0  0
  -28.4970  -19.1640   20.7710 C   0  0  0  0  0  3  0  0  0  0  0  0
  -28.6730  -17.7620   20.9340 C   0  0  0  0  0  3  0  0  0  0  0  0
  -30.9100  -17.9100   20.0280 C   0  0  0  0  0  3  0  0  0  0  0  0
  -29.5120  -19.9740   20.1880 C   0  0  0  0  0  0  0  0  0  0  0  0
  -29.8580  -17.0880   20.5340 C   0  0  0  0  0  0  0  0  0  0  0  0
  -30.7360  -19.3180   19.8520 C   0  0  0  0  0  0  0  0  0  0  0  0
  -31.7570  -20.0310   19.3120 F   0  0  0  0  0  0  0  0  0  0  0  0
  -30.6500  -14.6440   20.0900 C   0  0  0  0  0  0  0  0  0  0  0  0
  -30.3830  -12.4740   18.9130 C   0  0  0  0  0  2  0  0  0  0  0  0
  -29.3580  -12.6510   17.7720 C   0  0  0  0  0  2  0  0  0  0  0  0
  -27.9150  -12.4700   18.2800 C   0  0  0  0  0  2  0  0  0  0  0  0
  -27.6320  -13.2850   19.5630 C   0  0  0  0  0  3  0  0  0  0  0  0
  -28.7480  -13.0560   20.6050 C   0  0  0  0  0  2  0  0  0  0  0  0
  -30.0370  -13.4250   19.9880 N   0  0  0  0  0  0  0  0  0  0  0  0
  -31.7710  -14.8500   19.6080 O   0  0  0  0  0  0  0  0  0  0  0  0
  -29.8800  -15.6320   20.6400 N   0  0  0  0  0  0  0  0  0  0  0  0
  -29.0300  -15.2470   21.0260 H   0  0  0  0  0  0  0  0  0  0  0  0
  -25.2730  -13.8700   20.4110 C   0  0  0  0  0  0  0  0  0  0  0  0
  -24.2280  -13.0890   20.8260 C   0  0  0  0  0  0  0  0  0  0  0  0
  -24.6910  -11.7430   20.7450 C   0  0  0  0  0  0  0  0  0  0  0  0
  -26.3050  -12.9960   20.1060 N   0  0  0  0  0  0  0  0  0  0  0  0
  -25.9610  -11.7100   20.3640 N   0  0  0  0  0  0  0  0  0  0  0  0
  -23.9790  -10.4710   20.9480 C   0  0  0  0  0  0  0  0  0  0  0  0
  -24.4310   -9.5090   21.8790 C   0  0  0  0  0  3  0  0  0  0  0  0
  -23.7170   -8.3050   22.0650 C   0  0  0  0  0  3  0  0  0  0  0  0
  -22.5350   -8.0540   21.3300 C   0  0  0  0  0  0  0  0  0  0  0  0
  -22.1000   -9.0060   20.3920 C   0  0  0  0  0  3  0  0  0  0  0  0
  -22.8150  -10.2010   20.2030 C   0  0  0  0  0  3  0  0  0  0  0  0
  -21.7980   -6.9010   21.4270 O   0  0  0  0  0  0  0  0  0  0  0  0
  -21.7300   -6.1850   22.5970 C   0  0  0  0  0  0  0  0  0  0  0  0
  -21.2610   -6.7600   23.7980 C   0  0  0  0  0  3  0  0  0  0  0  0
  -21.1460   -5.9720   24.9620 C   0  0  0  0  0  3  0  0  0  0  0  0
  -21.4850   -4.6070   24.9230 C   0  0  0  0  0  0  0  0  0  0  0  0
  -21.9410   -4.0290   23.7260 C   0  0  0  0  0  3  0  0  0  0  0  0
  -22.0620   -4.8160   22.5670 C   0  0  0  0  0  0  0  0  0  0  0  0
  -22.4880   -4.2490   21.4130 F   0  0  0  0  0  0  0  0  0  0  0  0
  -21.3670   -3.8500   26.0380 F   0  0  0  0  0  0  0  0  0  0  0  0
  -22.8440  -13.5610   21.1760 C   0  0  0  0  0  0  0  0  0  0  0  0
  -22.1590  -12.8490   22.0620 N   0  0  0  0  0  0  0  0  0  0  0  0
  -22.3800  -14.5990   20.7040 O   0  0  0  0  0  0  0  0  0  0  0  0
  -22.5490  -12.0200   22.4840 H   0  0  0  0  0  0  0  0  0  0  0  0
  -21.2400  -13.1610   22.3490 H   0  0  0  0  0  0  0  0  0  0  0  0
  -25.4280  -15.2420   20.2510 N   0  0  0  0  0  0  0  0  0  0  0  0
  -24.6530  -15.8840   20.3740 H   0  0  0  0  0  0  0  0  0  0  0  0
  -26.2480  -15.6810   19.8530 H   0  0  0  0  0  0  0  0  0  0  0  0
  -28.2530  -25.1050   20.8010 C   0  0  0  0  0  2  0  0  0  0  0  0
  -28.3630  -26.4470   20.1500 O   0  0  0  0  0  0  0  0  0  0  0  0
  -24.6330  -31.8870   23.2160 C   0  0  0  0  0  0  0  0  0  0  0  0
  -27.2580  -27.3130   20.1780 C   0  0  0  0  0  0  0  0  0  0  0  0
  -23.4350  -30.4740   21.5780 C   0  0  0  0  0  3  0  0  0  0  0  0
  -24.9000  -28.9220   20.1610 C   0  0  0  0  0  0  0  0  0  0  0  0
  -25.9780  -30.8010   21.3990 C   0  0  0  0  0  2  0  0  0  0  0  0
  -26.0650  -29.4180   20.7600 C   0  0  0  0  0  0  0  0  0  0  0  0
  -27.2550  -28.6240   20.7560 C   0  0  0  0  0  3  0  0  0  0  0  0
  -26.0750  -26.8720   19.5600 C   0  0  0  0  0  3  0  0  0  0  0  0
  -24.9080  -27.6580   19.5490 C   0  0  0  0  0  3  0  0  0  0  0  0
  -23.6600  -29.7920   20.2020 C   0  0  0  0  0  2  0  0  0  0  0  0
  -24.7000  -31.0750   22.1200 N   0  0  0  0  0  0  0  0  0  0  0  0
  -23.5450  -32.1590   23.7500 O   0  0  0  0  0  0  0  0  0  0  0  0
  -22.7790  -29.4570   22.5400 C   0  0  0  0  0  0  0  0  0  0  0  0
  -21.4520  -29.2800   22.4250 N   0  0  0  0  0  0  0  0  0  0  0  0
  -23.4680  -28.8340   23.3520 O   0  0  0  0  0  0  0  0  0  0  0  0
  -20.9520  -29.8380   21.7460 H   0  0  0  0  0  0  0  0  0  0  0  0
  -18.0820  -28.0790   22.9430 C   0  0  0  0  0  0  0  0  0  0  0  0
  -20.6420  -28.3390   23.1980 C   0  0  0  0  0  3  0  0  0  0  0  0
  -20.7410  -26.9040   22.6280 C   0  0  0  0  0  2  0  0  0  0  0  0
  -19.6330  -26.5770   21.6170 C   0  0  0  0  0  2  0  0  0  0  0  0
  -18.2540  -26.7270   22.2660 C   0  0  0  0  0  2  0  0  0  0  0  0
  -19.2030  -28.8410   23.3670 C   0  0  0  0  0  0  0  0  0  0  0  0
  -18.9850  -30.1060   23.9580 C   0  0  0  0  0  3  0  0  0  0  0  0
  -17.6810  -30.6040   24.1370 C   0  0  0  0  0  3  0  0  0  0  0  0
  -16.5760  -29.8390   23.7260 C   0  0  0  0  0  3  0  0  0  0  0  0
  -16.7780  -28.5790   23.1360 C   0  0  0  0  0  3  0  0  0  0  0  0
  -25.9150  -32.5270   23.8340 C   0  0  0  0  0  3  0  0  0  0  0  0
  -25.5940  -33.9230   24.1690 N   0  0  0  0  0  0  0  0  0  0  0  0
  -25.9170  -34.9810   23.4140 C   0  0  0  0  0  0  0  0  0  0  0  0
  -26.5830  -34.8870   22.3820 O   0  0  0  0  0  0  0  0  0  0  0  0
  -25.0080  -34.0700   24.9770 H   0  0  0  0  0  0  0  0  0  0  0  0
  -24.1790  -36.7660   23.0610 C   0  0  0  0  0  1  0  0  0  0  0  0
  -25.4190  -36.3660   23.8760 C   0  0  0  0  0  3  0  0  0  0  0  0
  -27.5480  -37.2600   24.7160 C   0  0  0  0  0  1  0  0  0  0  0  0
  -26.4460  -37.4260   23.7730 N   0  0  0  0  0  0  0  0  0  0  0  0
  -26.0340  -38.3440   23.9160 H   0  0  0  0  0  0  0  0  0  0  0  0
  -26.4350  -31.7590   25.1100 C   0  0  1  0  0  0  0  0  0  0  0  0
  -25.3450  -31.5240   26.1810 C   0  0  0  0  0  1  0  0  0  0  0  0
  -27.0160  -30.3770   24.7260 C   0  0  0  0  0  1  0  0  0  0  0  0
  -27.5830  -32.5540   25.7720 C   0  0  0  0  0  1  0  0  0  0  0  0
  1  7  2  0
  2  4  1  0
  2  3  1  0
  3  5  1  0
  4  6  1  0
  5  1  1  0
  5 53  1  0
  6 11  1  0
  6  1  1  0
  8  9  1  0
 10 12  1  0
 11  8  2  0
 12 23  1  0
 12  9  2  0
 13 10  2  0
 13 11  1  0
 14 13  1  0
 15 23  1  0
 16 21  1  0
 17 18  1  0
 17 16  1  0
 19 18  1  0
 19 28  1  0
 19 20  1  0
 21 15  1  0
 21 20  1  0
 22 15  2  0
 23 24  1  0
 25 26  2  0
 26 45  1  0
 27 26  1  0
 27 30  1  0
 28 29  1  0
 28 25  1  0
 29 27  2  0
 30 31  1  0
 31 32  2  0
 33 36  1  0
 33 32  1  0
 34 33  2  0
 35 34  1  0
 35 30  2  0
 36 37  1  0
 37 38  1  0
 38 39  2  0
 40 39  1  0
 40 44  1  0
 41 40  2  0
 42 37  2  0
 42 41  1  0
 43 42  1  0
 45 46  1  0
 46 49  1  0
 46 48  1  0
 47 45  2  0
 50 51  1  0
 50 25  1  0
 52 50  1  0
 54 56  1  0
 54 53  1  0
 55 66  2  0
 56 61  1  0
 57 65  1  0
 57 67  1  0
 58 64  1  0
 58 60  1  0
 59 65  1  0
 60 59  1  0
 61 60  2  0
 62 56  2  0
 63 62  1  0
 63 58  2  0
 64 57  1  0
 65 55  1  0
 67 69  2  0
 68 67  1  0
 70 68  1  0
 71 80  2  0
 71 76  1  0
 72 68  1  0
 72 76  1  0
 73 72  1  0
 74 75  1  0
 74 73  1  0
 75 71  1  0
 76 77  2  0
 77 78  1  0
 79 78  2  0
 80 79  1  0
 81 55  1  0
 81 82  1  0
 81 91  1  0
 82 85  1  0
 83 87  1  0
 83 82  1  0
 84 83  2  0
 87 86  1  0
 89 87  1  0
 89 90  1  0
 89 88  1  0
 91 94  1  1
 91 92  1  0
 93 91  1  0
M  ISO  4  15 100  23 100  53 101  54 101
M  END
>  <TORSDO>  (31) 
F 18

>  <SCORE>  (31) 
-14.425

>  <name>  (31) 
31

>  <ligand_id>  (31) 
31

>  <original_smiles>  (31) 
[H]c1c([H])c([H])c2c(c1[H])C([H])([H])C([H])([H])C([H])([H])C2([H])N([H])C(=O)C1([H])N(C(=O)C([H])(N([H])C(=O)C([H])(N([H])C([H])([H])[H])C([H])([H])[H])C(C([H])([H])[H])(C([H])([H])[H])C([H])([H])[H])C([H])([H])c2c([H])c(OC([H])([H])C3([H])C(=O)N(c4c([H])c([H])c(N([H])C(=O)N5C([H])([H])C([H])([H])C([H])([H])C([H])(n6nc(-c7c([H])c([H])c(Oc8c([H])c([H])c(F)c([H])c8F)c([H])c7[H])c(C(=O)N([H])[H])c6N([H])[H])C5([H])[H])c([H])c4F)C([H])([H])C([H])([H])C3([H])[H])c([H])c([H])c2C1([H])[H]

>  <smiles>  (31) 
[H]c1c([H])c([H])c2c(c1[H])C([H])([H])C([H])([H])C([H])([H])C2([H])N([H])C(=O)C1([H])N(C(=O)C([H])(N([H])C(=O)C([H])(N([H])C([H])([H])[H])C([H])([H])[H])C(C([H])([H])[H])(C([H])([H])[H])C([H])([H])[H])C([H])([H])c2c([H])c(OC([H])([H])C3([H])C(=O)N(c4c([H])c([H])c(N([H])C(=O)N5C([H])([H])C([H])([H])C([H])([H])C([H])(n6nc(-c7c([H])c([H])c(Oc8c([H])c([H])c(F)c([H])c8F)c([H])c7[H])c(C(=O)N([H])[H])c6N([H])[H])C5([H])[H])c([H])c4F)C([H])([H])C([H])([H])C3([H])[H])c([H])c([H])c2C1([H])[H]

$$$$
32:0:0
     RDKit          3D

101109  0  0  1  0  0  0  0  0999 V2000
  -30.2150  -19.3760   20.2530 C   0  0  0  0  0  3  0  0  0  0  0  0
  -30.8110  -17.6930   21.8970 C   0  0  0  0  0  3  0  0  0  0  0  0
  -30.3270  -18.0190   20.6170 C   0  0  0  0  0  0  0  0  0  0  0  0
  -30.5650  -20.4150   21.1450 C   0  0  0  0  0  0  0  0  0  0  0  0
  -31.0880  -20.0780   22.4250 C   0  0  0  0  0  0  0  0  0  0  0  0
  -31.2050  -18.7080   22.7870 C   0  0  0  0  0  0  0  0  0  0  0  0
  -31.8590  -18.2300   24.3170 Cl  0  0  0  0  0  0  0  0  0  0  0  0
  -29.9750  -16.9360   19.6030 C   0  0  0  0  0  2  0  0  0  0  0  0
  -30.6240  -14.5440   19.6710 C   0  0  0  0  0  0  0  0  0  0  0  0
  -30.3360  -12.2770   18.7630 C   0  0  0  0  0  2  0  0  0  0  0  0
  -29.2940  -12.3540   17.6270 C   0  0  0  0  0  2  0  0  0  0  0  0
  -27.8640  -12.2090   18.1820 C   0  0  0  0  0  2  0  0  0  0  0  0
  -27.5970  -13.1390   19.3960 C   0  0  0  0  0  3  0  0  0  0  0  0
  -28.7440  -13.0450   20.4300 C   0  0  0  0  0  2  0  0  0  0  0  0
  -30.0110  -13.3320   19.7350 N   0  0  0  0  0  0  0  0  0  0  0  0
  -31.6810  -14.7290   19.0600 O   0  0  0  0  0  0  0  0  0  0  0  0
  -29.8950  -15.5710   20.1340 N   0  0  0  0  0  0  0  0  0  0  0  0
  -29.0610  -15.3350   20.6490 H   0  0  0  0  0  0  0  0  0  0  0  0
  -25.3470  -13.7530   20.4800 C   0  0  0  0  0  0  0  0  0  0  0  0
  -24.2850  -12.9890   20.8780 C   0  0  0  0  0  0  0  0  0  0  0  0
  -24.6490  -11.6340   20.6050 C   0  0  0  0  0  0  0  0  0  0  0  0
  -26.2970  -12.8660   20.0010 N   0  0  0  0  0  0  0  0  0  0  0  0
  -25.8850  -11.5790   20.1270 N   0  0  0  0  0  0  0  0  0  0  0  0
  -23.8710  -10.3930   20.7150 C   0  0  0  0  0  0  0  0  0  0  0  0
  -24.3850   -9.2540   21.3740 C   0  0  0  0  0  3  0  0  0  0  0  0
  -23.6090   -8.0810   21.4820 C   0  0  0  0  0  3  0  0  0  0  0  0
  -22.3060   -8.0370   20.9310 C   0  0  0  0  0  0  0  0  0  0  0  0
  -21.8090   -9.1670   20.2560 C   0  0  0  0  0  3  0  0  0  0  0  0
  -22.5840  -10.3320   20.1460 C   0  0  0  0  0  3  0  0  0  0  0  0
  -21.4910   -6.9320   20.9670 O   0  0  0  0  0  0  0  0  0  0  0  0
  -21.6580   -5.9440   21.9040 C   0  0  0  0  0  0  0  0  0  0  0  0
  -21.5730   -6.2070   23.2890 C   0  0  0  0  0  3  0  0  0  0  0  0
  -21.6810   -5.1510   24.2150 C   0  0  0  0  0  3  0  0  0  0  0  0
  -21.8650   -3.8310   23.7600 C   0  0  0  0  0  0  0  0  0  0  0  0
  -21.9470   -3.5670   22.3810 C   0  0  0  0  0  3  0  0  0  0  0  0
  -21.8390   -4.6190   21.4570 C   0  0  0  0  0  0  0  0  0  0  0  0
  -21.8960   -4.3540   20.1290 F   0  0  0  0  0  0  0  0  0  0  0  0
  -21.9620   -2.8150   24.6490 F   0  0  0  0  0  0  0  0  0  0  0  0
  -22.9660  -13.4880   21.3960 C   0  0  0  0  0  0  0  0  0  0  0  0
  -22.3210  -12.7230   22.2700 N   0  0  0  0  0  0  0  0  0  0  0  0
  -22.5260  -14.5870   21.0640 O   0  0  0  0  0  0  0  0  0  0  0  0
  -22.6910  -11.8300   22.5570 H   0  0  0  0  0  0  0  0  0  0  0  0
  -21.4430  -13.0400   22.6580 H   0  0  0  0  0  0  0  0  0  0  0  0
  -25.5790  -15.1280   20.4650 N   0  0  0  0  0  0  0  0  0  0  0  0
  -24.8730  -15.7980   20.7480 H   0  0  0  0  0  0  0  0  0  0  0  0
  -26.4080  -15.5620   20.0790 H   0  0  0  0  0  0  0  0  0  0  0  0
  -30.3440  -21.8690   20.6800 C   0  0  0  0  0  2  0  0  0  0  0  0
  -29.0930  -23.1820   18.8750 C   0  0  0  0  0  3  0  0  0  0  0  0
  -28.2280  -23.1100   17.6370 C   0  0  0  0  0  1  0  0  0  0  0  0
  -28.5610  -20.8240   19.2470 C   0  0  0  0  0  1  0  0  0  0  0  0
  -29.3370  -22.0350   19.5910 N   0  0  0  0  0  0  0  0  0  0  0  0
  -29.5100  -24.4430   19.1610 N   0  0  0  0  0  0  0  0  0  0  0  0
  -29.2360  -25.1350   18.4760 H   0  0  0  0  0  0  0  0  0  0  0  0
  -30.0990  -25.0600   20.3640 C   0  0  0  0  0  2  0  0  0  0  0  0
  -30.6660  -26.4720   20.0730 C   0  0  0  0  0  2  0  0  0  0  0  0
  -30.0970  -27.4910   20.8980 O   0  0  0  0  0  0  0  0  0  0  0  0
  -24.8790  -31.5120   23.5140 C   0  0  0  0  0  0  0  0  0  0  0  0
  -28.7930  -27.9010   20.7180 C   0  0  0  0  0  0  0  0  0  0  0  0
  -24.2330  -30.0010   21.6630 C   0  0  0  0  0  3  0  0  0  0  0  0
  -26.1540  -28.8790   20.4190 C   0  0  0  0  0  0  0  0  0  0  0  0
  -26.6310  -30.8660   21.8640 C   0  0  0  0  0  2  0  0  0  0  0  0
  -27.0830  -29.5900   21.1880 C   0  0  0  0  0  0  0  0  0  0  0  0
  -28.4000  -29.1070   21.3320 C   0  0  0  0  0  3  0  0  0  0  0  0
  -27.8410  -27.1850   19.9530 C   0  0  0  0  0  3  0  0  0  0  0  0
  -26.5300  -27.6760   19.7980 C   0  0  0  0  0  3  0  0  0  0  0  0
  -24.7640  -29.4610   20.3070 C   0  0  0  0  0  2  0  0  0  0  0  0
  -25.2520  -30.8120   22.4040 N   0  0  0  0  0  0  0  0  0  0  0  0
  -23.7010  -31.5280   23.8950 O   0  0  0  0  0  0  0  0  0  0  0  0
  -23.6840  -28.8110   22.4850 C   0  0  0  0  0  0  0  0  0  0  0  0
  -22.4440  -28.3990   22.1690 N   0  0  0  0  0  0  0  0  0  0  0  0
  -24.3660  -28.2710   23.3590 O   0  0  0  0  0  0  0  0  0  0  0  0
  -21.9580  -28.9030   21.4410 H   0  0  0  0  0  0  0  0  0  0  0  0
  -19.3150  -26.5770   22.1690 C   0  0  0  0  0  0  0  0  0  0  0  0
  -21.7280  -27.2750   22.7750 C   0  0  0  0  0  3  0  0  0  0  0  0
  -22.1650  -25.9350   22.1430 C   0  0  0  0  0  2  0  0  0  0  0  0
  -21.2680  -25.4930   20.9820 C   0  0  0  0  0  2  0  0  0  0  0  0
  -19.8190  -25.3350   21.4530 C   0  0  0  0  0  2  0  0  0  0  0  0
  -20.2110  -27.4970   22.7750 C   0  0  0  0  0  0  0  0  0  0  0  0
  -19.6930  -28.6500   23.4030 C   0  0  0  0  0  3  0  0  0  0  0  0
  -18.3090  -28.8970   23.4230 C   0  0  0  0  0  3  0  0  0  0  0  0
  -17.4230  -27.9770   22.8350 C   0  0  0  0  0  3  0  0  0  0  0  0
  -17.9250  -26.8170   22.2180 C   0  0  0  0  0  3  0  0  0  0  0  0
  -25.9120  -32.3450   24.3410 C   0  0  0  0  0  3  0  0  0  0  0  0
  -25.4180  -33.7270   24.3980 N   0  0  0  0  0  0  0  0  0  0  0  0
  -25.8280  -34.7150   23.5900 C   0  0  0  0  0  0  0  0  0  0  0  0
  -26.7290  -34.5680   22.7570 O   0  0  0  0  0  0  0  0  0  0  0  0
  -24.6460  -33.9050   25.0260 H   0  0  0  0  0  0  0  0  0  0  0  0
  -24.0710  -36.2300   22.6260 C   0  0  0  0  0  1  0  0  0  0  0  0
  -25.1360  -36.0860   23.7260 C   0  0  0  0  0  3  0  0  0  0  0  0
  -26.9630  -37.2980   24.8330 C   0  0  0  0  0  1  0  0  0  0  0  0
  -26.0790  -37.2260   23.6710 N   0  0  0  0  0  0  0  0  0  0  0  0
  -25.5780  -38.1070   23.6010 H   0  0  0  0  0  0  0  0  0  0  0  0
  -26.1500  -31.7800   25.7950 C   0  0  1  0  0  0  0  0  0  0  0  0
  -24.8430  -31.5270   26.5870 C   0  0  0  0  0  1  0  0  0  0  0  0
  -26.9290  -30.4450   25.7420 C   0  0  0  0  0  1  0  0  0  0  0  0
  -27.0280  -32.7670   26.6000 C   0  0  0  0  0  1  0  0  0  0  0  0
  -31.5530  -21.0640   23.3150 N   0  0  0  0  0  0  0  0  0  0  0  0
  -30.0090  -21.0120   25.2720 C   0  0  0  0  0  1  0  0  0  0  0  0
  -30.6040  -21.8300   24.1170 C   0  0  0  0  0  2  0  0  0  0  0  0
  -33.7870  -21.2260   24.3930 C   0  0  0  0  0  1  0  0  0  0  0  0
  -32.9420  -21.4860   23.1410 C   0  0  0  0  0  2  0  0  0  0  0  0
  1  3  2  0
  1  4  1  0
  2  6  2  0
  3  2  1  0
  4  5  2  0
  5  6  1  0
  5 97  1  0
  6  7  1  0
  8 17  1  0
  8  3  1  0
  9 15  1  0
  9 17  1  0
 10 15  1  0
 11 12  1  0
 11 10  1  0
 13 12  1  0
 13 22  1  0
 13 14  1  0
 15 14  1  0
 16  9  2  0
 17 18  1  0
 19 20  2  0
 20 39  1  0
 21 24  1  0
 21 20  1  0
 22 23  1  0
 22 19  1  0
 23 21  2  0
 24 25  1  0
 25 26  2  0
 27 30  1  0
 27 26  1  0
 28 27  2  0
 29 28  1  0
 29 24  2  0
 30 31  1  0
 31 32  1  0
 32 33  2  0
 34 33  1  0
 34 38  1  0
 35 34  2  0
 36 31  2  0
 36 35  1  0
 37 36  1  0
 39 40  1  0
 40 42  1  0
 40 43  1  0
 41 39  2  0
 44 19  1  0
 44 45  1  0
 46 44  1  0
 47  4  1  0
 48 49  1  0
 48 52  1  0
 48 51  1  0
 50 51  1  0
 51 47  1  0
 52 54  1  0
 53 52  1  0
 55 54  1  0
 55 56  1  0
 57 68  2  0
 58 56  1  0
 58 63  1  0
 59 67  1  0
 59 69  1  0
 60 62  1  0
 61 67  1  0
 62 63  2  0
 62 61  1  0
 64 58  2  0
 65 64  1  0
 65 60  2  0
 66 60  1  0
 66 59  1  0
 67 57  1  0
 69 71  2  0
 70 69  1  0
 72 70  1  0
 73 82  2  0
 73 78  1  0
 74 70  1  0
 75 74  1  0
 76 77  1  0
 76 75  1  0
 77 73  1  0
 78 74  1  0
 78 79  2  0
 79 80  1  0
 81 80  2  0
 82 81  1  0
 83 57  1  0
 83 84  1  0
 83 93  1  0
 84 87  1  0
 85 89  1  0
 85 84  1  0
 86 85  2  0
 89 88  1  0
 91 89  1  0
 91 90  1  0
 92 91  1  0
 93 94  1  1
 93 96  1  0
 95 93  1  0
 97 99  1  0
 99 98  1  0
101 97  1  0
101100  1  0
M  ISO  4   9 100  17 100  55 101  56 101
M  END
>  <TORSDO>  (32) 
F 24

>  <SCORE>  (32) 
-6.136

>  <name>  (32) 
32

>  <ligand_id>  (32) 
32

>  <original_smiles>  (32) 
[H]c1c([H])c([H])c2c(c1[H])C([H])([H])C([H])([H])C([H])([H])C2([H])N([H])C(=O)C1([H])N(C(=O)C([H])(N([H])C(=O)C([H])(N([H])C([H])([H])[H])C([H])([H])[H])C(C([H])([H])[H])(C([H])([H])[H])C([H])([H])[H])C([H])([H])c2c([H])c(OC([H])([H])C([H])([H])[N+]([H])=C(N(C([H])([H])[H])C([H])([H])c3c([H])c(C([H])([H])N([H])C(=O)N4C([H])([H])C([H])([H])C([H])([H])C([H])(n5nc(-c6c([H])c([H])c(Oc7c([H])c([H])c(F)c([H])c7F)c([H])c6[H])c(C(=O)N([H])[H])c5N([H])[H])C4([H])[H])c([H])c(Cl)c3N(C([H])([H])C([H])([H])[H])C([H])([H])C([H])([H])[H])C([H])([H])[H])c([H])c([H])c2C1([H])[H]

>  <smiles>  (32) 
[H]c1c([H])c([H])c2c(c1[H])C([H])([H])C([H])([H])C([H])([H])C2([H])N([H])C(=O)C1([H])N(C(=O)C([H])(N([H])C(=O)C([H])(N([H])C([H])([H])[H])C([H])([H])[H])C(C([H])([H])[H])(C([H])([H])[H])C([H])([H])[H])C([H])([H])c2c([H])c(OC([H])([H])C([H])([H])[N+]([H])=C(N(C([H])([H])[H])C([H])([H])c3c([H])c(C([H])([H])N([H])C(=O)N4C([H])([H])C([H])([H])C([H])([H])C([H])(n5nc(-c6c([H])c([H])c(Oc7c([H])c([H])c(F)c([H])c7F)c([H])c6[H])c(C(=O)N([H])[H])c5N([H])[H])C4([H])[H])c([H])c(Cl)c3N(C([H])([H])C([H])([H])[H])C([H])([H])C([H])([H])[H])C([H])([H])[H])c([H])c([H])c2C1([H])[H]

$$$$
33:0:0
     RDKit          3D

 94103  0  0  1  0  0  0  0  0999 V2000
  -29.4640  -19.2270   21.5200 C   0  0  0  0  0  3  0  0  0  0  0  0
  -29.2260  -20.6260   21.3380 C   0  0  0  0  0  3  0  0  0  0  0  0
  -29.4310  -18.2920   20.4480 C   0  0  0  0  0  0  0  0  0  0  0  0
  -29.2330  -18.8650   19.1570 C   0  0  0  0  0  0  0  0  0  0  0  0
  -28.9220  -21.1970   20.0670 C   0  0  0  0  0  0  0  0  0  0  0  0
  -28.9730  -20.2670   18.9820 C   0  0  0  0  0  0  0  0  0  0  0  0
  -29.1980  -17.9580   17.9350 C   0  0  0  0  0  1  0  0  0  0  0  0
  -28.6720  -20.7150   17.7360 F   0  0  0  0  0  0  0  0  0  0  0  0
  -26.5580  -23.2740   21.3690 C   0  0  0  0  0  2  0  0  0  0  0  0
  -27.8670  -23.9990   21.6570 C   0  0  0  0  0  2  0  0  0  0  0  0
  -26.8760  -22.3620   20.1760 C   0  0  0  0  0  2  0  0  0  0  0  0
  -28.7120  -23.8680   20.3760 C   0  0  0  0  0  3  0  0  0  0  0  0
  -28.3080  -22.5030   19.8610 N   0  0  0  0  0  0  0  0  0  0  0  0
  -28.3530  -25.1300   19.4120 C   0  0  0  0  0  2  0  0  0  0  0  0
  -28.4360  -26.5780   19.8510 O   0  0  0  0  0  0  0  0  0  0  0  0
  -24.6300  -31.8830   23.0670 C   0  0  0  0  0  0  0  0  0  0  0  0
  -27.3100  -27.4410   19.8280 C   0  0  0  0  0  0  0  0  0  0  0  0
  -23.4510  -30.5100   21.3980 C   0  0  0  0  0  3  0  0  0  0  0  0
  -24.9210  -29.0600   19.8960 C   0  0  0  0  0  0  0  0  0  0  0  0
  -25.9920  -30.8660   21.2270 C   0  0  0  0  0  2  0  0  0  0  0  0
  -26.0880  -29.5190   20.5170 C   0  0  0  0  0  0  0  0  0  0  0  0
  -27.2800  -28.7240   20.4700 C   0  0  0  0  0  3  0  0  0  0  0  0
  -26.1080  -27.0640   19.1760 C   0  0  0  0  0  3  0  0  0  0  0  0
  -24.9390  -27.8400   19.2140 C   0  0  0  0  0  3  0  0  0  0  0  0
  -23.6670  -29.9060   19.9880 C   0  0  0  0  0  2  0  0  0  0  0  0
  -24.7110  -31.1040   21.9510 N   0  0  0  0  0  0  0  0  0  0  0  0
  -23.5400  -32.1240   23.6090 O   0  0  0  0  0  0  0  0  0  0  0  0
  -22.8240  -29.4350   22.3260 C   0  0  0  0  0  0  0  0  0  0  0  0
  -21.4970  -29.2500   22.2280 N   0  0  0  0  0  0  0  0  0  0  0  0
  -23.5290  -28.7840   23.1010 O   0  0  0  0  0  0  0  0  0  0  0  0
  -20.9880  -29.8310   21.5750 H   0  0  0  0  0  0  0  0  0  0  0  0
  -18.1360  -28.0260   22.7900 C   0  0  0  0  0  0  0  0  0  0  0  0
  -20.7060  -28.2680   22.9750 C   0  0  0  0  0  3  0  0  0  0  0  0
  -20.7780  -26.8750   22.3060 C   0  0  0  0  0  2  0  0  0  0  0  0
  -19.6360  -26.6340   21.3120 C   0  0  0  0  0  2  0  0  0  0  0  0
  -18.2790  -26.7280   22.0140 C   0  0  0  0  0  2  0  0  0  0  0  0
  -19.2730  -28.7610   23.2200 C   0  0  0  0  0  0  0  0  0  0  0  0
  -19.0820  -29.9870   23.8930 C   0  0  0  0  0  3  0  0  0  0  0  0
  -17.7860  -30.4760   24.1450 C   0  0  0  0  0  3  0  0  0  0  0  0
  -16.6630  -29.7380   23.7270 C   0  0  0  0  0  3  0  0  0  0  0  0
  -16.8390  -28.5150   23.0540 C   0  0  0  0  0  3  0  0  0  0  0  0
  -25.8950  -32.5260   23.7040 C   0  0  0  0  0  3  0  0  0  0  0  0
  -26.4300  -31.7390   24.9640 C   0  0  1  0  0  0  0  0  0  0  0  0
  -25.3350  -31.4510   26.0200 C   0  0  0  0  0  1  0  0  0  0  0  0
  -27.0480  -30.3860   24.5470 C   0  0  0  0  0  1  0  0  0  0  0  0
  -27.5660  -32.5480   25.6370 C   0  0  0  0  0  1  0  0  0  0  0  0
  -25.5460  -33.9050   24.0700 N   0  0  0  0  0  0  0  0  0  0  0  0
  -25.8590  -34.9890   23.3460 C   0  0  0  0  0  0  0  0  0  0  0  0
  -26.5470  -34.9340   22.3220 O   0  0  0  0  0  0  0  0  0  0  0  0
  -24.9280  -34.0200   24.8600 H   0  0  0  0  0  0  0  0  0  0  0  0
  -24.0970  -36.7540   23.0220 C   0  0  0  0  0  1  0  0  0  0  0  0
  -25.3340  -36.3520   23.8400 C   0  0  0  0  0  3  0  0  0  0  0  0
  -27.4300  -37.2560   24.7380 C   0  0  0  0  0  1  0  0  0  0  0  0
  -26.3450  -37.4290   23.7770 N   0  0  0  0  0  0  0  0  0  0  0  0
  -25.9180  -38.3360   23.9410 H   0  0  0  0  0  0  0  0  0  0  0  0
  -29.3290  -16.7320   20.7150 C   0  0  0  0  0  2  0  0  0  0  0  0
  -30.8340  -14.7760   20.0610 C   0  0  0  0  0  0  0  0  0  0  0  0
  -30.3550  -12.6070   18.9490 C   0  0  0  0  0  2  0  0  0  0  0  0
  -29.3810  -12.7980   17.7730 C   0  0  0  0  0  2  0  0  0  0  0  0
  -27.9330  -12.6560   18.2690 C   0  0  0  0  0  2  0  0  0  0  0  0
  -27.6440  -13.5120   19.5290 C   0  0  0  0  0  3  0  0  0  0  0  0
  -28.7590  -13.3780   20.5980 C   0  0  0  0  0  2  0  0  0  0  0  0
  -30.0580  -13.6470   19.9600 N   0  0  0  0  0  0  0  0  0  0  0  0
  -31.9240  -14.8310   19.4840 O   0  0  0  0  0  0  0  0  0  0  0  0
  -31.5610  -16.3160   21.7790 C   0  0  0  0  0  1  0  0  0  0  0  0
  -30.5000  -15.8140   20.8950 N   0  0  0  0  0  0  0  0  0  0  0  0
  -25.2820  -14.1190   20.3480 C   0  0  0  0  0  0  0  0  0  0  0  0
  -24.2250  -13.3580   20.7510 C   0  0  0  0  0  0  0  0  0  0  0  0
  -24.6700  -11.9990   20.6970 C   0  0  0  0  0  0  0  0  0  0  0  0
  -26.3130  -13.2360   20.0690 N   0  0  0  0  0  0  0  0  0  0  0  0
  -25.9500  -11.9530   20.3430 N   0  0  0  0  0  0  0  0  0  0  0  0
  -23.9380  -10.7440   20.9090 C   0  0  0  0  0  0  0  0  0  0  0  0
  -24.3830   -9.7750   21.8360 C   0  0  0  0  0  3  0  0  0  0  0  0
  -23.6500   -8.5840   22.0390 C   0  0  0  0  0  3  0  0  0  0  0  0
  -22.4570   -8.3510   21.3140 C   0  0  0  0  0  0  0  0  0  0  0  0
  -22.0280   -9.3090   20.3770 C   0  0  0  0  0  3  0  0  0  0  0  0
  -22.7620  -10.4910   20.1740 C   0  0  0  0  0  3  0  0  0  0  0  0
  -21.6960   -7.2100   21.4230 O   0  0  0  0  0  0  0  0  0  0  0  0
  -21.6840   -6.4650   22.5740 C   0  0  0  0  0  0  0  0  0  0  0  0
  -21.2940   -7.0130   23.8160 C   0  0  0  0  0  3  0  0  0  0  0  0
  -21.2240   -6.1910   24.9590 C   0  0  0  0  0  3  0  0  0  0  0  0
  -21.5420   -4.8220   24.8630 C   0  0  0  0  0  0  0  0  0  0  0  0
  -21.9260   -4.2730   23.6260 C   0  0  0  0  0  3  0  0  0  0  0  0
  -21.9930   -5.0920   22.4850 C   0  0  0  0  0  0  0  0  0  0  0  0
  -22.3460   -4.5530   21.2920 F   0  0  0  0  0  0  0  0  0  0  0  0
  -21.4680   -4.0310   25.9580 F   0  0  0  0  0  0  0  0  0  0  0  0
  -22.8410  -13.8440   21.0770 C   0  0  0  0  0  0  0  0  0  0  0  0
  -22.1450  -13.1660   21.9780 N   0  0  0  0  0  0  0  0  0  0  0  0
  -22.3870  -14.8690   20.5660 O   0  0  0  0  0  0  0  0  0  0  0  0
  -22.5190  -12.3340   22.4130 H   0  0  0  0  0  0  0  0  0  0  0  0
  -21.2220  -13.4810   22.2420 H   0  0  0  0  0  0  0  0  0  0  0  0
  -25.4530  -15.4900   20.1730 N   0  0  0  0  0  0  0  0  0  0  0  0
  -24.6990  -16.1500   20.3350 H   0  0  0  0  0  0  0  0  0  0  0  0
  -26.2910  -15.9240   19.8130 H   0  0  0  0  0  0  0  0  0  0  0  0
  2  1  1  0
  3 56  1  0
  3  1  2  0
  4  3  1  0
  5  2  2  0
  6  4  2  0
  6  5  1  0
  7  4  1  0
  8  6  1  0
  9 10  1  0
 11  9  1  0
 12 14  1  0
 12 10  1  0
 13  5  1  0
 13 11  1  0
 13 12  1  0
 14 15  1  0
 16 27  2  0
 17 15  1  0
 17 22  1  0
 18 26  1  0
 18 28  1  0
 19 25  1  0
 19 21  1  0
 20 26  1  0
 21 20  1  0
 22 21  2  0
 23 24  1  0
 23 17  2  0
 24 19  2  0
 25 18  1  0
 26 16  1  0
 28 30  2  0
 29 28  1  0
 31 29  1  0
 32 41  2  0
 32 37  1  0
 33 29  1  0
 33 37  1  0
 34 33  1  0
 35 36  1  0
 35 34  1  0
 36 32  1  0
 37 38  2  0
 38 39  1  0
 40 39  2  0
 41 40  1  0
 42 16  1  0
 42 47  1  0
 42 43  1  0
 43 46  1  1
 43 44  1  0
 45 43  1  0
 47 50  1  0
 48 52  1  0
 48 47  1  0
 49 48  2  0
 52 51  1  0
 54 52  1  0
 54 55  1  0
 54 53  1  0
 56 66  1  0
 57 66  1  0
 58 63  1  0
 59 60  1  0
 59 58  1  0
 61 60  1  0
 61 70  1  0
 61 62  1  0
 63 57  1  0
 63 62  1  0
 64 57  2  0
 66 65  1  0
 67 68  2  0
 68 87  1  0
 69 68  1  0
 69 72  1  0
 70 71  1  0
 70 67  1  0
 71 69  2  0
 72 73  1  0
 73 74  2  0
 75 78  1  0
 75 74  1  0
 76 75  2  0
 77 76  1  0
 77 72  2  0
 78 79  1  0
 79 80  1  0
 80 81  2  0
 82 81  1  0
 82 86  1  0
 83 82  2  0
 84 79  2  0
 84 83  1  0
 85 84  1  0
 87 88  1  0
 88 91  1  0
 88 90  1  0
 89 87  2  0
 92 93  1  0
 92 67  1  0
 94 92  1  0
M  ISO  4  14 101  15 101  57 100  66 100
M  END
>  <TORSDO>  (33) 
F 19

>  <SCORE>  (33) 
-13.303

>  <name>  (33) 
33

>  <ligand_id>  (33) 
33

>  <original_smiles>  (33) 
[H]c1c([H])c([H])c2c(c1[H])C([H])([H])C([H])([H])C([H])([H])C2([H])N([H])C(=O)C1([H])N(C(=O)C([H])(N([H])C(=O)C([H])(N([H])C([H])([H])[H])C([H])([H])[H])C(C([H])([H])[H])(C([H])([H])[H])C([H])([H])[H])C([H])([H])c2c([H])c(OC([H])([H])C3([H])N(c4c([H])c([H])c(C([H])([H])N(C(=O)N5C([H])([H])C([H])([H])C([H])([H])C([H])(n6nc(-c7c([H])c([H])c(Oc8c([H])c([H])c(F)c([H])c8F)c([H])c7[H])c(C(=O)N([H])[H])c6N([H])[H])C5([H])[H])C([H])([H])[H])c(C([H])([H])[H])c4F)C([H])([H])C([H])([H])C3([H])[H])c([H])c([H])c2C1([H])[H]

>  <smiles>  (33) 
[H]c1c([H])c([H])c2c(c1[H])C([H])([H])C([H])([H])C([H])([H])C2([H])N([H])C(=O)C1([H])N(C(=O)C([H])(N([H])C(=O)C([H])(N([H])C([H])([H])[H])C([H])([H])[H])C(C([H])([H])[H])(C([H])([H])[H])C([H])([H])[H])C([H])([H])c2c([H])c(OC([H])([H])C3([H])N(c4c([H])c([H])c(C([H])([H])N(C(=O)N5C([H])([H])C([H])([H])C([H])([H])C([H])(n6nc(-c7c([H])c([H])c(Oc8c([H])c([H])c(F)c([H])c8F)c([H])c7[H])c(C(=O)N([H])[H])c6N([H])[H])C5([H])[H])C([H])([H])[H])c(C([H])([H])[H])c4F)C([H])([H])C([H])([H])C3([H])[H])c([H])c([H])c2C1([H])[H]

$$$$
34:0:0
     RDKit          3D

 95104  0  0  1  0  0  0  0  0999 V2000
  -29.8420  -22.2560   22.8710 C   0  0  0  0  0  2  0  0  0  0  0  0
  -28.5950  -22.4980   22.0120 C   0  0  0  0  0  2  0  0  0  0  0  0
  -30.9510  -21.8920   21.8760 C   0  0  0  0  0  2  0  0  0  0  0  0
  -29.1260  -22.5170   20.5710 C   0  0  0  0  0  3  0  0  0  0  0  0
  -30.2790  -21.5610   20.6200 N   0  0  0  0  0  0  0  0  0  0  0  0
  -31.3980  -17.9020   20.3170 C   0  0  0  0  0  3  0  0  0  0  0  0
  -29.0260  -19.3680   20.5880 C   0  0  0  0  0  3  0  0  0  0  0  0
  -31.4180  -19.3320   20.3050 C   0  0  0  0  0  0  0  0  0  0  0  0
  -30.2270  -20.1190   20.4710 C   0  0  0  0  0  0  0  0  0  0  0  0
  -30.1990  -17.1700   20.4950 C   0  0  0  0  0  0  0  0  0  0  0  0
  -29.0160  -17.9420   20.6070 C   0  0  0  0  0  0  0  0  0  0  0  0
  -27.8360  -17.2930   20.7530 F   0  0  0  0  0  0  0  0  0  0  0  0
  -30.8470  -14.6780   20.1140 C   0  0  0  0  0  0  0  0  0  0  0  0
  -30.5590  -12.4880   18.9820 C   0  0  0  0  0  2  0  0  0  0  0  0
  -29.5560  -12.6740   17.8210 C   0  0  0  0  0  2  0  0  0  0  0  0
  -28.1030  -12.5180   18.3160 C   0  0  0  0  0  2  0  0  0  0  0  0
  -27.8180  -13.3380   19.6030 C   0  0  0  0  0  3  0  0  0  0  0  0
  -28.9280  -13.1200   20.6560 C   0  0  0  0  0  2  0  0  0  0  0  0
  -30.2140  -13.4660   20.0300 N   0  0  0  0  0  0  0  0  0  0  0  0
  -31.9860  -14.8410   19.6670 O   0  0  0  0  0  0  0  0  0  0  0  0
  -30.0760  -15.7150   20.5620 N   0  0  0  0  0  0  0  0  0  0  0  0
  -29.1820  -15.4120   20.9220 H   0  0  0  0  0  0  0  0  0  0  0  0
  -25.4660  -13.9410   20.4470 C   0  0  0  0  0  0  0  0  0  0  0  0
  -24.4080  -13.1680   20.8430 C   0  0  0  0  0  0  0  0  0  0  0  0
  -24.8550  -11.8130   20.7550 C   0  0  0  0  0  0  0  0  0  0  0  0
  -26.4890  -13.0570   20.1410 N   0  0  0  0  0  0  0  0  0  0  0  0
  -26.1290  -11.7710   20.3860 N   0  0  0  0  0  0  0  0  0  0  0  0
  -24.1250  -10.5530   20.9450 C   0  0  0  0  0  0  0  0  0  0  0  0
  -24.5480   -9.5900   21.8870 C   0  0  0  0  0  3  0  0  0  0  0  0
  -23.8200   -8.3940   22.0650 C   0  0  0  0  0  3  0  0  0  0  0  0
  -22.6530   -8.1540   21.3000 C   0  0  0  0  0  0  0  0  0  0  0  0
  -22.2490   -9.1060   20.3480 C   0  0  0  0  0  3  0  0  0  0  0  0
  -22.9790  -10.2930   20.1690 C   0  0  0  0  0  3  0  0  0  0  0  0
  -21.8960   -7.0110   21.3870 O   0  0  0  0  0  0  0  0  0  0  0  0
  -21.7730   -6.3170   22.5640 C   0  0  0  0  0  0  0  0  0  0  0  0
  -21.2560   -6.9180   23.7340 C   0  0  0  0  0  3  0  0  0  0  0  0
  -21.0810   -6.1490   24.9020 C   0  0  0  0  0  3  0  0  0  0  0  0
  -21.4120   -4.7810   24.9020 C   0  0  0  0  0  0  0  0  0  0  0  0
  -21.9220   -4.1800   23.7360 C   0  0  0  0  0  3  0  0  0  0  0  0
  -22.0980   -4.9460   22.5710 C   0  0  0  0  0  0  0  0  0  0  0  0
  -22.5700   -4.3560   21.4460 F   0  0  0  0  0  0  0  0  0  0  0  0
  -21.2370   -4.0410   26.0210 F   0  0  0  0  0  0  0  0  0  0  0  0
  -23.0300  -13.6510   21.1930 C   0  0  0  0  0  0  0  0  0  0  0  0
  -22.3380  -12.9410   22.0770 N   0  0  0  0  0  0  0  0  0  0  0  0
  -22.5770  -14.6900   20.7170 O   0  0  0  0  0  0  0  0  0  0  0  0
  -22.7170  -12.0980   22.4840 H   0  0  0  0  0  0  0  0  0  0  0  0
  -21.4140  -13.2440   22.3510 H   0  0  0  0  0  0  0  0  0  0  0  0
  -25.6360  -15.3140   20.3030 N   0  0  0  0  0  0  0  0  0  0  0  0
  -24.8950  -15.9720   20.5160 H   0  0  0  0  0  0  0  0  0  0  0  0
  -26.4970  -15.7700   20.0310 H   0  0  0  0  0  0  0  0  0  0  0  0
  -32.7230  -19.9580   20.1200 C   0  0  0  0  0  0  0  0  0  0  0  0
  -33.7640  -20.4510   19.9750 N   0  0  0  0  0  0  0  0  0  0  0  0
  -29.5110  -24.0330   20.2040 C   0  0  0  0  0  2  0  0  0  0  0  0
  -28.3280  -25.0480   19.8930 C   0  0  0  0  0  2  0  0  0  0  0  0
  -28.5300  -26.5080   20.0300 O   0  0  0  0  0  0  0  0  0  0  0  0
  -24.5970  -31.6740   23.1860 C   0  0  0  0  0  0  0  0  0  0  0  0
  -27.3840  -27.3210   20.0010 C   0  0  0  0  0  0  0  0  0  0  0  0
  -23.4590  -30.3110   21.4740 C   0  0  0  0  0  3  0  0  0  0  0  0
  -24.9730  -28.8600   20.0160 C   0  0  0  0  0  0  0  0  0  0  0  0
  -25.9900  -30.7080   21.3430 C   0  0  0  0  0  2  0  0  0  0  0  0
  -26.1190  -29.3590   20.6480 C   0  0  0  0  0  0  0  0  0  0  0  0
  -27.3290  -28.6020   20.6290 C   0  0  0  0  0  3  0  0  0  0  0  0
  -26.2080  -26.8750   19.3490 C   0  0  0  0  0  3  0  0  0  0  0  0
  -25.0190  -27.6240   19.3570 C   0  0  0  0  0  3  0  0  0  0  0  0
  -23.7130  -29.6980   20.0730 C   0  0  0  0  0  2  0  0  0  0  0  0
  -24.7000  -30.9130   22.0590 N   0  0  0  0  0  0  0  0  0  0  0  0
  -23.4990  -31.9020   23.7140 O   0  0  0  0  0  0  0  0  0  0  0  0
  -22.8100  -29.2400   22.3830 C   0  0  0  0  0  0  0  0  0  0  0  0
  -21.4910  -29.0320   22.2260 N   0  0  0  0  0  0  0  0  0  0  0  0
  -23.4910  -28.6010   23.1890 O   0  0  0  0  0  0  0  0  0  0  0  0
  -20.9990  -29.6020   21.5530 H   0  0  0  0  0  0  0  0  0  0  0  0
  -18.1300  -27.7660   22.6530 C   0  0  0  0  0  0  0  0  0  0  0  0
  -20.6840  -28.0470   22.9470 C   0  0  0  0  0  3  0  0  0  0  0  0
  -20.8080  -26.6470   22.3040 C   0  0  0  0  0  2  0  0  0  0  0  0
  -19.7140  -26.3590   21.2700 C   0  0  0  0  0  2  0  0  0  0  0  0
  -18.3280  -26.4530   21.9130 C   0  0  0  0  0  2  0  0  0  0  0  0
  -19.2370  -28.5210   23.1240 C   0  0  0  0  0  0  0  0  0  0  0  0
  -18.9970  -29.7520   23.7750 C   0  0  0  0  0  3  0  0  0  0  0  0
  -17.6840  -30.2260   23.9600 C   0  0  0  0  0  3  0  0  0  0  0  0
  -16.5930  -29.4660   23.5050 C   0  0  0  0  0  3  0  0  0  0  0  0
  -16.8160  -28.2370   22.8570 C   0  0  0  0  0  3  0  0  0  0  0  0
  -25.8530  -32.3170   23.8530 C   0  0  0  0  0  3  0  0  0  0  0  0
  -26.3340  -31.5420   25.1420 C   0  0  1  0  0  0  0  0  0  0  0  0
  -25.2070  -31.2840   26.1690 C   0  0  0  0  0  1  0  0  0  0  0  0
  -26.9460  -30.1750   24.7580 C   0  0  0  0  0  1  0  0  0  0  0  0
  -27.4500  -32.3460   25.8510 C   0  0  0  0  0  1  0  0  0  0  0  0
  -25.5200  -33.7090   24.1810 N   0  0  0  0  0  0  0  0  0  0  0  0
  -25.8440  -34.7680   23.4270 C   0  0  0  0  0  0  0  0  0  0  0  0
  -26.5260  -34.6750   22.4030 O   0  0  0  0  0  0  0  0  0  0  0  0
  -24.9160  -33.8540   24.9770 H   0  0  0  0  0  0  0  0  0  0  0  0
  -24.0800  -36.5240   23.0710 C   0  0  0  0  0  1  0  0  0  0  0  0
  -25.3310  -36.1480   23.8800 C   0  0  0  0  0  3  0  0  0  0  0  0
  -27.4450  -37.0840   24.7090 C   0  0  0  0  0  1  0  0  0  0  0  0
  -26.3420  -37.2200   23.7610 N   0  0  0  0  0  0  0  0  0  0  0  0
  -25.9170  -38.1330   23.9000 H   0  0  0  0  0  0  0  0  0  0  0  0
  2  1  1  0
  3  1  1  0
  4 53  1  0
  4  5  1  0
  4  2  1  0
  5  3  1  0
  6 10  1  0
  7 11  1  0
  8  6  2  0
  8  9  1  0
  9  7  2  0
  9  5  1  0
 10 21  1  0
 10 11  2  0
 11 12  1  0
 13 21  1  0
 14 19  1  0
 15 16  1  0
 15 14  1  0
 17 16  1  0
 17 26  1  0
 17 18  1  0
 19 13  1  0
 19 18  1  0
 20 13  2  0
 21 22  1  0
 23 24  2  0
 24 43  1  0
 25 24  1  0
 25 28  1  0
 26 27  1  0
 26 23  1  0
 27 25  2  0
 28 29  1  0
 29 30  2  0
 31 34  1  0
 31 30  1  0
 32 31  2  0
 33 32  1  0
 33 28  2  0
 34 35  1  0
 35 40  2  0
 35 36  1  0
 36 37  2  0
 38 37  1  0
 38 42  1  0
 39 38  2  0
 40 39  1  0
 41 40  1  0
 43 44  1  0
 44 47  1  0
 44 46  1  0
 45 43  2  0
 48 23  1  0
 48 49  1  0
 50 48  1  0
 51  8  1  0
 52 51  3  0
 54 55  1  0
 54 53  1  0
 56 67  2  0
 57 55  1  0
 57 62  1  0
 58 66  1  0
 58 68  1  0
 59 65  1  0
 59 61  1  0
 60 66  1  0
 61 60  1  0
 62 61  2  0
 63 64  1  0
 63 57  2  0
 64 59  2  0
 65 58  1  0
 66 56  1  0
 68 70  2  0
 69 68  1  0
 71 69  1  0
 72 81  2  0
 72 77  1  0
 73 69  1  0
 73 77  1  0
 74 73  1  0
 75 76  1  0
 75 74  1  0
 76 72  1  0
 77 78  2  0
 78 79  1  0
 80 79  2  0
 81 80  1  0
 82 56  1  0
 82 87  1  0
 82 83  1  0
 83 86  1  1
 83 84  1  0
 85 83  1  0
 87 90  1  0
 88 92  1  0
 88 87  1  0
 89 88  2  0
 92 91  1  0
 94 92  1  0
 94 95  1  0
 94 93  1  0
M  ISO  4  13 100  21 100  54 101  55 101
M  END
>  <TORSDO>  (34) 
F 20

>  <SCORE>  (34) 
-14.020

>  <name>  (34) 
34

>  <ligand_id>  (34) 
34

>  <original_smiles>  (34) 
[H]c1c([H])c([H])c2c(c1[H])C([H])([H])C([H])([H])C([H])([H])C2([H])N([H])C(=O)C1([H])N(C(=O)C([H])(N([H])C(=O)C([H])(N([H])C([H])([H])[H])C([H])([H])[H])C(C([H])([H])[H])(C([H])([H])[H])C([H])([H])[H])C([H])([H])c2c([H])c(OC([H])([H])C([H])([H])C3([H])N(c4c([H])c(F)c(N([H])C(=O)N5C([H])([H])C([H])([H])C([H])([H])C([H])(n6nc(-c7c([H])c([H])c(Oc8c([H])c([H])c(F)c([H])c8F)c([H])c7[H])c(C(=O)N([H])[H])c6N([H])[H])C5([H])[H])c([H])c4C#N)C([H])([H])C([H])([H])C3([H])[H])c([H])c([H])c2C1([H])[H]

>  <smiles>  (34) 
[H]c1c([H])c([H])c2c(c1[H])C([H])([H])C([H])([H])C([H])([H])C2([H])N([H])C(=O)C1([H])N(C(=O)C([H])(N([H])C(=O)C([H])(N([H])C([H])([H])[H])C([H])([H])[H])C(C([H])([H])[H])(C([H])([H])[H])C([H])([H])[H])C([H])([H])c2c([H])c(OC([H])([H])C([H])([H])C3([H])N(c4c([H])c(F)c(N([H])C(=O)N5C([H])([H])C([H])([H])C([H])([H])C([H])(n6nc(-c7c([H])c([H])c(Oc8c([H])c([H])c(F)c([H])c8F)c([H])c7[H])c(C(=O)N([H])[H])c6N([H])[H])C5([H])[H])c([H])c4C#N)C([H])([H])C([H])([H])C3([H])[H])c([H])c([H])c2C1([H])[H]

$$$$
35:0:0
     RDKit          3D

 98107  0  0  1  0  0  0  0  0999 V2000
  -29.2980  -20.7620   20.1240 C   0  0  0  0  0  3  0  0  0  0  0  0
  -30.3650  -18.2970   20.7950 C   0  0  0  0  0  3  0  0  0  0  0  0
  -30.4270  -20.7130   20.9560 C   0  0  0  0  0  0  0  0  0  0  0  0
  -28.6420  -19.6260   19.5770 C   0  0  0  0  0  0  0  0  0  0  0  0
  -29.2330  -18.2360   19.9270 C   0  0  0  0  0  0  0  0  0  0  0  0
  -30.9530  -19.4670   21.2870 C   0  0  0  0  0  0  0  0  0  0  0  0
  -32.0280  -19.3780   22.1040 F   0  0  0  0  0  0  0  0  0  0  0  0
  -29.7710  -15.5550   19.7580 C   0  0  0  0  0  0  0  0  0  0  0  0
  -30.0360  -13.0420   19.3370 C   0  0  0  0  0  2  0  0  0  0  0  0
  -29.1750  -12.5430   18.1530 C   0  0  0  0  0  2  0  0  0  0  0  0
  -27.7680  -12.1530   18.6400 C   0  0  0  0  0  2  0  0  0  0  0  0
  -27.1660  -13.2060   19.6070 C   0  0  0  0  0  3  0  0  0  0  0  0
  -28.1680  -13.7140   20.6710 C   0  0  0  0  0  2  0  0  0  0  0  0
  -29.3410  -14.2250   19.9460 N   0  0  0  0  0  0  0  0  0  0  0  0
  -30.9820  -15.6510   19.5110 O   0  0  0  0  0  0  0  0  0  0  0  0
  -27.6550  -16.5630   18.8940 C   0  0  0  0  0  1  0  0  0  0  0  0
  -28.9090  -16.7380   19.6210 N   0  0  0  0  0  0  0  0  0  0  0  0
  -24.7950  -13.5700   20.4820 C   0  0  0  0  0  0  0  0  0  0  0  0
  -23.8280  -12.7060   20.9110 C   0  0  0  0  0  0  0  0  0  0  0  0
  -24.4110  -11.4030   20.8570 C   0  0  0  0  0  0  0  0  0  0  0  0
  -25.8990  -12.7860   20.1850 N   0  0  0  0  0  0  0  0  0  0  0  0
  -25.6810  -11.4800   20.4740 N   0  0  0  0  0  0  0  0  0  0  0  0
  -23.8120  -10.0850   21.0860 C   0  0  0  0  0  0  0  0  0  0  0  0
  -24.3210   -9.2020   22.0630 C   0  0  0  0  0  3  0  0  0  0  0  0
  -23.7100   -7.9470   22.2780 C   0  0  0  0  0  3  0  0  0  0  0  0
  -22.5790   -7.5690   21.5160 C   0  0  0  0  0  0  0  0  0  0  0  0
  -22.0920   -8.4420   20.5270 C   0  0  0  0  0  3  0  0  0  0  0  0
  -22.7040   -9.6880   20.3090 C   0  0  0  0  0  3  0  0  0  0  0  0
  -21.9400   -6.3580   21.6370 O   0  0  0  0  0  0  0  0  0  0  0  0
  -21.8000   -5.7360   22.8530 C   0  0  0  0  0  0  0  0  0  0  0  0
  -21.0960   -6.3350   23.9200 C   0  0  0  0  0  3  0  0  0  0  0  0
  -20.9180   -5.6340   25.1270 C   0  0  0  0  0  3  0  0  0  0  0  0
  -21.4320   -4.3310   25.2690 C   0  0  0  0  0  0  0  0  0  0  0  0
  -22.1300   -3.7290   24.2050 C   0  0  0  0  0  3  0  0  0  0  0  0
  -22.3100   -4.4300   23.0000 C   0  0  0  0  0  0  0  0  0  0  0  0
  -22.9680   -3.8400   21.9720 F   0  0  0  0  0  0  0  0  0  0  0  0
  -21.2520   -3.6530   26.4260 F   0  0  0  0  0  0  0  0  0  0  0  0
  -22.4100  -13.0630   21.2480 C   0  0  0  0  0  0  0  0  0  0  0  0
  -21.8040  -12.3450   22.1850 N   0  0  0  0  0  0  0  0  0  0  0  0
  -21.8500  -14.0220   20.7180 O   0  0  0  0  0  0  0  0  0  0  0  0
  -22.2730  -11.5790   22.6440 H   0  0  0  0  0  0  0  0  0  0  0  0
  -20.8560  -12.5710   22.4530 H   0  0  0  0  0  0  0  0  0  0  0  0
  -24.8110  -14.9460   20.2930 N   0  0  0  0  0  0  0  0  0  0  0  0
  -23.9770  -15.5070   20.4330 H   0  0  0  0  0  0  0  0  0  0  0  0
  -25.5720  -15.4660   19.8830 H   0  0  0  0  0  0  0  0  0  0  0  0
  -27.4680  -20.1720   18.8450 N   0  0  0  0  0  0  0  0  0  0  0  0
  -26.9420  -19.4540   18.3510 H   0  0  0  0  0  0  0  0  0  0  0  0
  -27.1400  -21.6460   18.3270 C   0  0  0  0  0  3  0  0  0  0  0  0
  -26.9010  -23.1310   19.1660 C   0  0  0  0  0  3  0  0  0  0  0  0
  -26.6430  -24.6730   18.4340 C   0  0  0  0  0  2  0  0  0  0  0  0
  -27.0900  -26.1440   18.8220 O   0  0  0  0  0  0  0  0  0  0  0  0
  -25.1790  -31.4430   23.6060 C   0  0  0  0  0  0  0  0  0  0  0  0
  -26.2630  -27.3050   19.1240 C   0  0  0  0  0  0  0  0  0  0  0  0
  -23.5100  -30.7750   21.9180 C   0  0  0  0  0  3  0  0  0  0  0  0
  -24.3910  -29.4100   19.9200 C   0  0  0  0  0  0  0  0  0  0  0  0
  -26.0200  -30.6080   21.3740 C   0  0  0  0  0  2  0  0  0  0  0  0
  -25.7050  -29.4490   20.4040 C   0  0  0  0  0  0  0  0  0  0  0  0
  -26.6350  -28.4150   19.9950 C   0  0  0  0  0  3  0  0  0  0  0  0
  -24.9450  -27.3930   18.6240 C   0  0  0  0  0  3  0  0  0  0  0  0
  -24.0280  -28.3970   19.0170 C   0  0  0  0  0  3  0  0  0  0  0  0
  -23.4070  -30.4650   20.4000 C   0  0  0  0  0  2  0  0  0  0  0  0
  -24.9350  -30.9450   22.3530 N   0  0  0  0  0  0  0  0  0  0  0  0
  -24.2550  -31.7620   24.3700 O   0  0  0  0  0  0  0  0  0  0  0  0
  -22.7560  -29.6840   22.7190 C   0  0  0  0  0  0  0  0  0  0  0  0
  -21.4150  -29.6610   22.6150 N   0  0  0  0  0  0  0  0  0  0  0  0
  -23.3800  -28.8650   23.4000 O   0  0  0  0  0  0  0  0  0  0  0  0
  -20.9710  -30.3720   22.0520 H   0  0  0  0  0  0  0  0  0  0  0  0
  -17.9670  -28.5640   22.8510 C   0  0  0  0  0  0  0  0  0  0  0  0
  -20.5220  -28.6820   23.2420 C   0  0  0  0  0  3  0  0  0  0  0  0
  -20.5890  -27.3190   22.5160 C   0  0  0  0  0  2  0  0  0  0  0  0
  -19.5210  -27.1600   21.4300 C   0  0  0  0  0  2  0  0  0  0  0  0
  -18.1190  -27.2930   22.0330 C   0  0  0  0  0  2  0  0  0  0  0  0
  -19.0970  -29.2250   23.4070 C   0  0  0  0  0  0  0  0  0  0  0  0
  -18.9030  -30.4170   24.1350 C   0  0  0  0  0  3  0  0  0  0  0  0
  -17.6130  -30.9540   24.3080 C   0  0  0  0  0  3  0  0  0  0  0  0
  -16.4970  -30.2910   23.7680 C   0  0  0  0  0  3  0  0  0  0  0  0
  -16.6750  -29.0960   23.0480 C   0  0  0  0  0  3  0  0  0  0  0  0
  -26.6310  -31.6520   24.1340 C   0  0  0  0  0  3  0  0  0  0  0  0
  -26.6770  -32.9510   24.8250 N   0  0  0  0  0  0  0  0  0  0  0  0
  -27.2900  -34.0460   24.3540 C   0  0  0  0  0  0  0  0  0  0  0  0
  -27.9340  -34.0490   23.3020 O   0  0  0  0  0  0  0  0  0  0  0  0
  -26.1180  -33.0370   25.6610 H   0  0  0  0  0  0  0  0  0  0  0  0
  -26.1270  -36.2730   24.5270 C   0  0  0  0  0  1  0  0  0  0  0  0
  -27.1670  -35.3450   25.1770 C   0  0  0  0  0  3  0  0  0  0  0  0
  -29.4030  -35.3670   26.1950 C   0  0  0  0  0  1  0  0  0  0  0  0
  -28.4500  -36.0650   25.3350 N   0  0  0  0  0  0  0  0  0  0  0  0
  -28.2980  -36.9940   25.7190 H   0  0  0  0  0  0  0  0  0  0  0  0
  -27.1120  -30.5000   25.1010 C   0  0  1  0  0  0  0  0  0  0  0  0
  -26.1310  -30.2110   26.2620 C   0  0  0  0  0  1  0  0  0  0  0  0
  -27.3150  -29.1810   24.3220 C   0  0  0  0  0  1  0  0  0  0  0  0
  -28.4870  -30.8690   25.7110 C   0  0  0  0  0  1  0  0  0  0  0  0
  -31.0600  -21.9990   21.4760 C   0  0  0  0  0  2  0  0  0  0  0  0
  -28.4270  -24.6510   21.5040 C   0  0  0  0  0  2  0  0  0  0  0  0
  -29.6860  -25.3800   21.9780 C   0  0  0  0  0  2  0  0  0  0  0  0
  -28.9780  -23.3120   21.0130 C   0  0  0  0  0  2  0  0  0  0  0  0
  -30.6070  -24.2570   22.4820 C   0  0  0  0  0  2  0  0  0  0  0  0
  -30.0550  -22.9730   21.9740 N   0  0  2  0  0  4  0  0  0  0  0  0
  -29.5820  -22.5350   22.7510 H   0  0  0  0  0  0  0  0  0  0  0  0
  1  3  1  0
  2  6  1  0
  3  6  2  0
  3 92  1  0
  4  5  1  0
  4  1  2  0
  5  2  2  0
  6  7  1  0
  8 14  1  0
  9 14  1  0
 10 11  1  0
 10  9  1  0
 12 11  1  0
 12 21  1  0
 12 13  1  0
 14 13  1  0
 15  8  2  0
 16 17  1  0
 17  8  1  0
 17  5  1  0
 18 19  2  0
 19 38  1  0
 20 19  1  0
 20 23  1  0
 21 22  1  0
 21 18  1  0
 22 20  2  0
 23 24  1  0
 24 25  2  0
 26 29  1  0
 26 25  1  0
 27 26  2  0
 28 27  1  0
 28 23  2  0
 29 30  1  0
 30 35  2  0
 30 31  1  0
 31 32  2  0
 32 33  1  0
 33 37  1  0
 34 33  2  0
 35 34  1  0
 36 35  1  0
 38 39  1  0
 39 42  1  0
 39 41  1  0
 40 38  2  0
 43 44  1  0
 43 18  1  0
 45 43  1  0
 46  4  1  0
 47 46  1  0
 48 46  1  0
 48 49  2  0
 50 51  1  0
 50 49  1  0
 51 53  1  0
 52 63  2  0
 53 58  1  0
 54 62  1  0
 54 64  1  0
 55 61  1  0
 55 57  1  0
 56 62  1  0
 57 56  1  0
 58 57  2  0
 59 60  1  0
 59 53  2  0
 60 55  2  0
 61 54  1  0
 62 52  1  0
 64 66  2  0
 65 64  1  0
 67 65  1  0
 68 77  2  0
 68 73  1  0
 69 65  1  0
 69 73  1  0
 70 69  1  0
 71 72  1  0
 71 70  1  0
 72 68  1  0
 73 74  2  0
 74 75  1  0
 76 75  2  0
 77 76  1  0
 78 52  1  0
 78 79  1  0
 78 88  1  0
 79 82  1  0
 80 79  1  0
 80 84  1  0
 81 80  2  0
 84 83  1  0
 84 86  1  0
 86 87  1  0
 86 85  1  0
 88 91  1  1
 88 89  1  0
 90 88  1  0
 92 97  1  0
 93 94  1  0
 94 96  1  0
 95 93  1  0
 95 97  1  0
 97 96  1  0
 97 98  1  1
M  ISO  4   8 100  17 100  50 101  51 101
M  END
>  <TORSDO>  (35) 
F 22

>  <SCORE>  (35) 
-12.221

>  <name>  (35) 
35

>  <ligand_id>  (35) 
35

>  <original_smiles>  (35) 
[H]c1c([H])c([H])c2c(c1[H])C([H])([H])C([H])([H])C([H])([H])C2([H])N([H])C(=O)C1([H])N(C(=O)C([H])(N([H])C(=O)C([H])(N([H])C([H])([H])[H])C([H])([H])[H])C(C([H])([H])[H])(C([H])([H])[H])C([H])([H])[H])C([H])([H])c2c([H])c(OC([H])([H])C([H])([H])C([H])([H])N([H])c3c([H])c(C([H])([H])[N+]4([H])C([H])([H])C([H])([H])C([H])([H])C4([H])[H])c(F)c([H])c3N(C(=O)N3C([H])([H])C([H])([H])C([H])([H])C([H])(n4nc(-c5c([H])c([H])c(Oc6c([H])c([H])c(F)c([H])c6F)c([H])c5[H])c(C(=O)N([H])[H])c4N([H])[H])C3([H])[H])C([H])([H])[H])c([H])c([H])c2C1([H])[H]

>  <smiles>  (35) 
[H]c1c([H])c([H])c2c(c1[H])C([H])([H])C([H])([H])C([H])([H])C2([H])N([H])C(=O)C1([H])N(C(=O)C([H])(N([H])C(=O)C([H])(N([H])C([H])([H])[H])C([H])([H])[H])C(C([H])([H])[H])(C([H])([H])[H])C([H])([H])[H])C([H])([H])c2c([H])c(OC([H])([H])C([H])([H])C([H])([H])N([H])c3c([H])c(C([H])([H])[N+]4([H])C([H])([H])C([H])([H])C([H])([H])C4([H])[H])c(F)c([H])c3N(C(=O)N3C([H])([H])C([H])([H])C([H])([H])C([H])(n4nc(-c5c([H])c([H])c(Oc6c([H])c([H])c(F)c([H])c6F)c([H])c5[H])c(C(=O)N([H])[H])c4N([H])[H])C3([H])[H])C([H])([H])[H])c([H])c([H])c2C1([H])[H]

$$$$
36:0:0
     RDKit          3D

 91 99  0  0  1  0  0  0  0  0999 V2000
  -29.3300  -19.2210   21.2160 C   0  0  0  0  0  3  0  0  0  0  0  0
  -29.2990  -20.6500   21.0770 C   0  0  0  0  0  3  0  0  0  0  0  0
  -28.9860  -18.9900   18.8610 C   0  0  0  0  0  3  0  0  0  0  0  0
  -29.2000  -18.3380   20.1040 C   0  0  0  0  0  0  0  0  0  0  0  0
  -28.9400  -20.4090   18.7130 C   0  0  0  0  0  0  0  0  0  0  0  0
  -29.1220  -21.2940   19.8190 C   0  0  0  0  0  0  0  0  0  0  0  0
  -28.6810  -20.9620   17.3190 C   0  0  0  0  0  1  0  0  0  0  0  0
  -30.5960  -22.9990   19.0470 C   0  0  0  0  0  1  0  0  0  0  0  0
  -29.2690  -22.7160   19.5980 N   0  0  0  0  0  0  0  0  0  0  0  0
  -28.6460  -23.8580   20.3600 C   0  0  0  0  0  2  0  0  0  0  0  0
  -28.4990  -25.2390   19.5370 C   0  0  0  0  0  2  0  0  0  0  0  0
  -28.3690  -26.5610   20.2040 O   0  0  0  0  0  0  0  0  0  0  0  0
  -24.6080  -31.9260   23.2060 C   0  0  0  0  0  0  0  0  0  0  0  0
  -27.2240  -27.3730   20.1300 C   0  0  0  0  0  0  0  0  0  0  0  0
  -23.4020  -30.5240   21.5700 C   0  0  0  0  0  3  0  0  0  0  0  0
  -24.8500  -28.9810   20.1350 C   0  0  0  0  0  0  0  0  0  0  0  0
  -25.9390  -30.8520   21.3750 C   0  0  0  0  0  2  0  0  0  0  0  0
  -26.0190  -29.4740   20.7250 C   0  0  0  0  0  0  0  0  0  0  0  0
  -27.2040  -28.6810   20.7140 C   0  0  0  0  0  3  0  0  0  0  0  0
  -26.0230  -26.9270   19.5320 C   0  0  0  0  0  3  0  0  0  0  0  0
  -24.8540  -27.7140   19.5310 C   0  0  0  0  0  3  0  0  0  0  0  0
  -23.6120  -29.8520   20.1880 C   0  0  0  0  0  2  0  0  0  0  0  0
  -24.6690  -31.1190   22.1070 N   0  0  0  0  0  0  0  0  0  0  0  0
  -23.5260  -32.1990   23.7460 O   0  0  0  0  0  0  0  0  0  0  0  0
  -22.7500  -29.5030   22.5330 C   0  0  0  0  0  0  0  0  0  0  0  0
  -21.4240  -29.3170   22.4100 N   0  0  0  0  0  0  0  0  0  0  0  0
  -23.4350  -28.8820   23.3500 O   0  0  0  0  0  0  0  0  0  0  0  0
  -20.9290  -29.8720   21.7260 H   0  0  0  0  0  0  0  0  0  0  0  0
  -18.0540  -28.1140   22.9410 C   0  0  0  0  0  0  0  0  0  0  0  0
  -20.6150  -28.3740   23.1850 C   0  0  0  0  0  3  0  0  0  0  0  0
  -20.7110  -26.9450   22.6020 C   0  0  0  0  0  2  0  0  0  0  0  0
  -19.5990  -26.6260   21.5970 C   0  0  0  0  0  2  0  0  0  0  0  0
  -18.2240  -26.7670   22.2560 C   0  0  0  0  0  2  0  0  0  0  0  0
  -19.1770  -28.8750   23.3630 C   0  0  0  0  0  0  0  0  0  0  0  0
  -18.9640  -30.1350   23.9640 C   0  0  0  0  0  3  0  0  0  0  0  0
  -17.6600  -30.6350   24.1450 C   0  0  0  0  0  3  0  0  0  0  0  0
  -16.5520  -29.8720   23.7380 C   0  0  0  0  0  3  0  0  0  0  0  0
  -16.7490  -28.6130   23.1430 C   0  0  0  0  0  3  0  0  0  0  0  0
  -25.8910  -32.5650   23.8230 C   0  0  0  0  0  3  0  0  0  0  0  0
  -26.4160  -31.7980   25.0990 C   0  0  1  0  0  0  0  0  0  0  0  0
  -25.3290  -31.5530   26.1710 C   0  0  0  0  0  1  0  0  0  0  0  0
  -27.0090  -30.4240   24.7080 C   0  0  0  0  0  1  0  0  0  0  0  0
  -27.5630  -32.6010   25.7570 C   0  0  0  0  0  1  0  0  0  0  0  0
  -25.5760  -33.9630   24.1530 N   0  0  0  0  0  0  0  0  0  0  0  0
  -25.9130  -35.0190   23.4010 C   0  0  0  0  0  0  0  0  0  0  0  0
  -26.5920  -34.9210   22.3750 O   0  0  0  0  0  0  0  0  0  0  0  0
  -24.9770  -34.1130   24.9510 H   0  0  0  0  0  0  0  0  0  0  0  0
  -24.2040  -36.8260   23.0190 C   0  0  0  0  0  1  0  0  0  0  0  0
  -25.4200  -36.4060   23.8600 C   0  0  0  0  0  3  0  0  0  0  0  0
  -27.5320  -37.2760   24.7610 C   0  0  0  0  0  1  0  0  0  0  0  0
  -26.4590  -37.4550   23.7860 N   0  0  0  0  0  0  0  0  0  0  0  0
  -26.0520  -38.3750   23.9280 H   0  0  0  0  0  0  0  0  0  0  0  0
  -29.0880  -16.7510   20.1670 C   0  0  0  0  0  2  0  0  0  0  0  0
  -30.6800  -14.7380   20.1440 C   0  0  0  0  0  0  0  0  0  0  0  0
  -30.3640  -12.5380   19.0200 C   0  0  0  0  0  2  0  0  0  0  0  0
  -29.3710  -12.6830   17.8470 C   0  0  0  0  0  2  0  0  0  0  0  0
  -27.9240  -12.5030   18.3420 C   0  0  0  0  0  2  0  0  0  0  0  0
  -27.6190  -13.3400   19.6130 C   0  0  0  0  0  3  0  0  0  0  0  0
  -28.7280  -13.1970   20.6770 C   0  0  0  0  0  2  0  0  0  0  0  0
  -30.0010  -13.5480   20.0380 N   0  0  0  0  0  0  0  0  0  0  0  0
  -31.8160  -14.8450   19.6700 O   0  0  0  0  0  0  0  0  0  0  0  0
  -30.8480  -16.3880   21.9100 C   0  0  0  0  0  1  0  0  0  0  0  0
  -30.1010  -15.8150   20.7890 N   0  0  0  0  0  0  0  0  0  0  0  0
  -25.2610  -13.9060   20.4510 C   0  0  0  0  0  0  0  0  0  0  0  0
  -24.2180  -13.1180   20.8530 C   0  0  0  0  0  0  0  0  0  0  0  0
  -24.6860  -11.7700   20.7770 C   0  0  0  0  0  0  0  0  0  0  0  0
  -26.2990  -13.0370   20.1550 N   0  0  0  0  0  0  0  0  0  0  0  0
  -25.9630  -11.7470   20.4130 N   0  0  0  0  0  0  0  0  0  0  0  0
  -23.9770  -10.5010   20.9740 C   0  0  0  0  0  0  0  0  0  0  0  0
  -24.4280   -9.5390   21.9050 C   0  0  0  0  0  3  0  0  0  0  0  0
  -23.7170   -8.3330   22.0910 C   0  0  0  0  0  3  0  0  0  0  0  0
  -22.5410   -8.0810   21.3440 C   0  0  0  0  0  0  0  0  0  0  0  0
  -22.1090   -9.0310   20.4030 C   0  0  0  0  0  3  0  0  0  0  0  0
  -22.8200  -10.2290   20.2160 C   0  0  0  0  0  3  0  0  0  0  0  0
  -21.8000   -6.9270   21.4400 O   0  0  0  0  0  0  0  0  0  0  0  0
  -21.7410   -6.2030   22.6040 C   0  0  0  0  0  0  0  0  0  0  0  0
  -21.2520   -6.7620   23.8040 C   0  0  0  0  0  3  0  0  0  0  0  0
  -21.1440   -5.9620   24.9590 C   0  0  0  0  0  3  0  0  0  0  0  0
  -21.5150   -4.6060   24.9140 C   0  0  0  0  0  0  0  0  0  0  0  0
  -21.9970   -4.0470   23.7180 C   0  0  0  0  0  3  0  0  0  0  0  0
  -22.1070   -4.8430   22.5650 C   0  0  0  0  0  0  0  0  0  0  0  0
  -22.5530   -4.2940   21.4090 F   0  0  0  0  0  0  0  0  0  0  0  0
  -21.4040   -3.8350   26.0210 F   0  0  0  0  0  0  0  0  0  0  0  0
  -22.8300  -13.5810   21.1910 C   0  0  0  0  0  0  0  0  0  0  0  0
  -22.1410  -12.8590   22.0670 N   0  0  0  0  0  0  0  0  0  0  0  0
  -22.3690  -14.6170   20.7170 O   0  0  0  0  0  0  0  0  0  0  0  0
  -22.5280  -12.0200   22.4730 H   0  0  0  0  0  0  0  0  0  0  0  0
  -21.2110  -13.1480   22.3360 H   0  0  0  0  0  0  0  0  0  0  0  0
  -25.4070  -15.2790   20.2890 N   0  0  0  0  0  0  0  0  0  0  0  0
  -24.6390  -15.9220   20.4480 H   0  0  0  0  0  0  0  0  0  0  0  0
  -26.2280  -15.7300   19.9100 H   0  0  0  0  0  0  0  0  0  0  0  0
  2  1  1  0
  3  4  1  0
  4 53  1  0
  4  1  2  0
  5  3  2  0
  5  6  1  0
  6  2  2  0
  7  5  1  0
  8  9  1  0
  9  6  1  0
  9 10  1  0
 11 12  1  0
 11 10  1  0
 13 24  2  0
 14 12  1  0
 14 19  1  0
 15 23  1  0
 15 25  1  0
 16 22  1  0
 16 18  1  0
 17 23  1  0
 18 17  1  0
 19 18  2  0
 20 14  2  0
 21 20  1  0
 21 16  2  0
 22 15  1  0
 23 13  1  0
 25 27  2  0
 26 25  1  0
 28 26  1  0
 29 38  2  0
 29 34  1  0
 30 26  1  0
 30 34  1  0
 31 30  1  0
 32 33  1  0
 32 31  1  0
 33 29  1  0
 34 35  2  0
 35 36  1  0
 37 36  2  0
 38 37  1  0
 39 13  1  0
 39 44  1  0
 39 40  1  0
 40 43  1  1
 40 41  1  0
 42 40  1  0
 44 47  1  0
 45 49  1  0
 45 44  1  0
 46 45  2  0
 49 48  1  0
 51 49  1  0
 51 52  1  0
 51 50  1  0
 53 63  1  0
 54 63  1  0
 55 60  1  0
 56 57  1  0
 56 55  1  0
 58 57  1  0
 58 67  1  0
 58 59  1  0
 60 54  1  0
 60 59  1  0
 61 54  2  0
 63 62  1  0
 64 65  2  0
 65 84  1  0
 66 65  1  0
 66 69  1  0
 67 68  1  0
 67 64  1  0
 68 66  2  0
 69 70  1  0
 70 71  2  0
 72 75  1  0
 72 71  1  0
 73 72  2  0
 74 73  1  0
 74 69  2  0
 75 76  1  0
 76 77  1  0
 77 78  2  0
 79 78  1  0
 79 83  1  0
 80 79  2  0
 81 76  2  0
 81 80  1  0
 82 81  1  0
 84 85  1  0
 85 88  1  0
 85 87  1  0
 86 84  2  0
 89 90  1  0
 89 64  1  0
 91 89  1  0
M  ISO  4  11 101  12 101  54 100  63 100
M  END
>  <TORSDO>  (36) 
F 20

>  <SCORE>  (36) 
-13.777

>  <name>  (36) 
36

>  <ligand_id>  (36) 
36

>  <original_smiles>  (36) 
[H]c1c([H])c([H])c2c(c1[H])C([H])([H])C([H])([H])C([H])([H])C2([H])N([H])C(=O)C1([H])N(C(=O)C([H])(N([H])C(=O)C([H])(N([H])C([H])([H])[H])C([H])([H])[H])C(C([H])([H])[H])(C([H])([H])[H])C([H])([H])[H])C([H])([H])c2c([H])c(OC([H])([H])C([H])([H])N(c3c([H])c([H])c(C([H])([H])N(C(=O)N4C([H])([H])C([H])([H])C([H])([H])C([H])(n5nc(-c6c([H])c([H])c(Oc7c([H])c([H])c(F)c([H])c7F)c([H])c6[H])c(C(=O)N([H])[H])c5N([H])[H])C4([H])[H])C([H])([H])[H])c([H])c3C([H])([H])[H])C([H])([H])[H])c([H])c([H])c2C1([H])[H]

>  <smiles>  (36) 
[H]c1c([H])c([H])c2c(c1[H])C([H])([H])C([H])([H])C([H])([H])C2([H])N([H])C(=O)C1([H])N(C(=O)C([H])(N([H])C(=O)C([H])(N([H])C([H])([H])[H])C([H])([H])[H])C(C([H])([H])[H])(C([H])([H])[H])C([H])([H])[H])C([H])([H])c2c([H])c(OC([H])([H])C([H])([H])N(c3c([H])c([H])c(C([H])([H])N(C(=O)N4C([H])([H])C([H])([H])C([H])([H])C([H])(n5nc(-c6c([H])c([H])c(Oc7c([H])c([H])c(F)c([H])c7F)c([H])c6[H])c(C(=O)N([H])[H])c5N([H])[H])C4([H])[H])C([H])([H])[H])c([H])c3C([H])([H])[H])C([H])([H])[H])c([H])c([H])c2C1([H])[H]

$$$$
37:0:0
     RDKit          3D

 92101  0  0  1  0  0  0  0  0999 V2000
  -29.9250  -21.8550   19.6600 C   0  0  0  0  0  2  0  0  0  0  0  0
  -28.7000  -19.5810   20.5010 C   0  0  0  0  0  3  0  0  0  0  0  0
  -28.7170  -18.1500   20.6720 C   0  0  0  0  0  3  0  0  0  0  0  0
  -30.9450  -18.0330   19.8200 C   0  0  0  0  0  3  0  0  0  0  0  0
  -29.8160  -20.2900   19.9760 C   0  0  0  0  0  0  0  0  0  0  0  0
  -29.8330  -17.3160   20.3360 C   0  0  0  0  0  0  0  0  0  0  0  0
  -30.9330  -19.4570   19.6480 C   0  0  0  0  0  0  0  0  0  0  0  0
  -32.0400  -20.0390   19.1280 F   0  0  0  0  0  0  0  0  0  0  0  0
  -30.5690  -14.7650   20.1860 C   0  0  0  0  0  0  0  0  0  0  0  0
  -30.3740  -12.5030   19.1430 C   0  0  0  0  0  2  0  0  0  0  0  0
  -29.3990  -12.6050   17.9490 C   0  0  0  0  0  2  0  0  0  0  0  0
  -27.9390  -12.4270   18.4140 C   0  0  0  0  0  2  0  0  0  0  0  0
  -27.6010  -13.2860   19.6610 C   0  0  0  0  0  3  0  0  0  0  0  0
  -28.6890  -13.1560   20.7500 C   0  0  0  0  0  2  0  0  0  0  0  0
  -29.9730  -13.5250   20.1350 N   0  0  0  0  0  0  0  0  0  0  0  0
  -31.7350  -14.9080   19.8010 O   0  0  0  0  0  0  0  0  0  0  0  0
  -29.7510  -15.8380   20.5100 N   0  0  0  0  0  0  0  0  0  0  0  0
  -28.8570  -15.5210   20.8530 H   0  0  0  0  0  0  0  0  0  0  0  0
  -25.2270  -13.8680   20.4450 C   0  0  0  0  0  0  0  0  0  0  0  0
  -24.1720  -13.0890   20.8340 C   0  0  0  0  0  0  0  0  0  0  0  0
  -24.6380  -11.7390   20.7850 C   0  0  0  0  0  0  0  0  0  0  0  0
  -26.2680  -12.9920   20.1780 N   0  0  0  0  0  0  0  0  0  0  0  0
  -25.9220  -11.7070   20.4470 N   0  0  0  0  0  0  0  0  0  0  0  0
  -23.9200  -10.4720   20.9820 C   0  0  0  0  0  0  0  0  0  0  0  0
  -24.3600   -9.5120   21.9200 C   0  0  0  0  0  3  0  0  0  0  0  0
  -23.6410   -8.3110   22.1050 C   0  0  0  0  0  3  0  0  0  0  0  0
  -22.4680   -8.0630   21.3520 C   0  0  0  0  0  0  0  0  0  0  0  0
  -22.0480   -9.0110   20.4030 C   0  0  0  0  0  3  0  0  0  0  0  0
  -22.7670  -10.2040   20.2170 C   0  0  0  0  0  3  0  0  0  0  0  0
  -21.7200   -6.9140   21.4470 O   0  0  0  0  0  0  0  0  0  0  0  0
  -21.6570   -6.1910   22.6110 C   0  0  0  0  0  0  0  0  0  0  0  0
  -21.1870   -6.7570   23.8150 C   0  0  0  0  0  3  0  0  0  0  0  0
  -21.0730   -5.9600   24.9720 C   0  0  0  0  0  3  0  0  0  0  0  0
  -21.4190   -4.5960   24.9240 C   0  0  0  0  0  0  0  0  0  0  0  0
  -21.8830   -4.0290   23.7230 C   0  0  0  0  0  3  0  0  0  0  0  0
  -21.9980   -4.8230   22.5700 C   0  0  0  0  0  0  0  0  0  0  0  0
  -22.4260   -4.2670   21.4100 F   0  0  0  0  0  0  0  0  0  0  0  0
  -21.3020   -3.8280   26.0310 F   0  0  0  0  0  0  0  0  0  0  0  0
  -22.7790  -13.5590   21.1400 C   0  0  0  0  0  0  0  0  0  0  0  0
  -22.0700  -12.8500   22.0120 N   0  0  0  0  0  0  0  0  0  0  0  0
  -22.3290  -14.5890   20.6400 O   0  0  0  0  0  0  0  0  0  0  0  0
  -22.4480  -12.0160   22.4360 H   0  0  0  0  0  0  0  0  0  0  0  0
  -21.1370  -13.1480   22.2610 H   0  0  0  0  0  0  0  0  0  0  0  0
  -25.3830  -15.2410   20.2700 N   0  0  0  0  0  0  0  0  0  0  0  0
  -24.6090  -15.8850   20.3870 H   0  0  0  0  0  0  0  0  0  0  0  0
  -26.2030  -15.6770   19.8710 H   0  0  0  0  0  0  0  0  0  0  0  0
  -28.3630  -23.9530   19.2450 C   0  0  0  0  0  0  0  0  0  0  0  0
  -29.0510  -24.0180   21.1730 C   0  0  0  0  0  2  0  0  0  0  0  0
  -28.0300  -24.9320   20.4290 C   0  0  0  0  0  3  0  0  0  0  0  0
  -29.0130  -23.0140   20.0590 N   0  0  0  0  0  0  0  0  0  0  0  0
  -28.1900  -23.9570   18.0430 O   0  0  0  0  0  0  0  0  0  0  0  0
  -28.3100  -26.4000   20.2180 O   0  0  0  0  0  0  0  0  0  0  0  0
  -24.5980  -31.8680   23.2260 C   0  0  0  0  0  0  0  0  0  0  0  0
  -27.2140  -27.2890   20.1660 C   0  0  0  0  0  0  0  0  0  0  0  0
  -23.4000  -30.4780   21.5770 C   0  0  0  0  0  3  0  0  0  0  0  0
  -24.8550  -28.9280   20.1470 C   0  0  0  0  0  0  0  0  0  0  0  0
  -25.9440  -30.7850   21.4060 C   0  0  0  0  0  2  0  0  0  0  0  0
  -26.0250  -29.4080   20.7500 C   0  0  0  0  0  0  0  0  0  0  0  0
  -27.2080  -28.6020   20.7450 C   0  0  0  0  0  3  0  0  0  0  0  0
  -26.0220  -26.8750   19.5310 C   0  0  0  0  0  3  0  0  0  0  0  0
  -24.8590  -27.6690   19.5260 C   0  0  0  0  0  3  0  0  0  0  0  0
  -23.6200  -29.8060   20.1950 C   0  0  0  0  0  2  0  0  0  0  0  0
  -24.6660  -31.0620   22.1260 N   0  0  0  0  0  0  0  0  0  0  0  0
  -23.5130  -32.1460   23.7570 O   0  0  0  0  0  0  0  0  0  0  0  0
  -22.7330  -29.4600   22.5330 C   0  0  0  0  0  0  0  0  0  0  0  0
  -21.4070  -29.2840   22.4010 N   0  0  0  0  0  0  0  0  0  0  0  0
  -23.4080  -28.8310   23.3520 O   0  0  0  0  0  0  0  0  0  0  0  0
  -20.9210  -29.8430   21.7140 H   0  0  0  0  0  0  0  0  0  0  0  0
  -18.0230  -28.0980   22.8990 C   0  0  0  0  0  0  0  0  0  0  0  0
  -20.5840  -28.3450   23.1650 C   0  0  0  0  0  3  0  0  0  0  0  0
  -20.6780  -26.9170   22.5790 C   0  0  0  0  0  2  0  0  0  0  0  0
  -19.5730  -26.6070   21.5640 C   0  0  0  0  0  2  0  0  0  0  0  0
  -18.1930  -26.7530   22.2120 C   0  0  0  0  0  2  0  0  0  0  0  0
  -19.1470  -28.8520   23.3320 C   0  0  0  0  0  0  0  0  0  0  0  0
  -18.9340  -30.1100   23.9340 C   0  0  0  0  0  3  0  0  0  0  0  0
  -17.6300  -30.6140   24.1100 C   0  0  0  0  0  3  0  0  0  0  0  0
  -16.5220  -29.8580   23.6930 C   0  0  0  0  0  3  0  0  0  0  0  0
  -16.7200  -28.6010   23.0920 C   0  0  0  0  0  3  0  0  0  0  0  0
  -25.8780  -32.5010   23.8550 C   0  0  0  0  0  3  0  0  0  0  0  0
  -25.5670  -33.8980   24.1870 N   0  0  0  0  0  0  0  0  0  0  0  0
  -25.8990  -34.9540   23.4320 C   0  0  0  0  0  0  0  0  0  0  0  0
  -26.5670  -34.8530   22.4000 O   0  0  0  0  0  0  0  0  0  0  0  0
  -24.9740  -34.0500   24.9900 H   0  0  0  0  0  0  0  0  0  0  0  0
  -24.1730  -36.7530   23.0820 C   0  0  0  0  0  1  0  0  0  0  0  0
  -25.4130  -36.3410   23.8940 C   0  0  0  0  0  3  0  0  0  0  0  0
  -27.5430  -37.2260   24.7360 C   0  0  0  0  0  1  0  0  0  0  0  0
  -26.4470  -37.3930   23.7860 N   0  0  0  0  0  0  0  0  0  0  0  0
  -26.0410  -38.3140   23.9280 H   0  0  0  0  0  0  0  0  0  0  0  0
  -26.3870  -31.7280   25.1340 C   0  0  1  0  0  0  0  0  0  0  0  0
  -25.2860  -31.4890   26.1970 C   0  0  0  0  0  1  0  0  0  0  0  0
  -26.9720  -30.3500   24.7480 C   0  0  0  0  0  1  0  0  0  0  0  0
  -27.5330  -32.5210   25.8040 C   0  0  0  0  0  1  0  0  0  0  0  0
  1  5  1  0
  1 50  1  0
  2  3  1  0
  4  6  1  0
  5  2  2  0
  6 17  1  0
  6  3  2  0
  7  4  2  0
  7  5  1  0
  8  7  1  0
  9 17  1  0
 10 15  1  0
 11 12  1  0
 11 10  1  0
 13 12  1  0
 13 22  1  0
 13 14  1  0
 15  9  1  0
 15 14  1  0
 16  9  2  0
 17 18  1  0
 19 20  2  0
 20 39  1  0
 21 20  1  0
 21 24  1  0
 22 19  1  0
 22 23  1  0
 23 21  2  0
 24 25  1  0
 25 26  2  0
 27 30  1  0
 27 26  1  0
 28 27  2  0
 29 28  1  0
 29 24  2  0
 30 31  1  0
 31 32  1  0
 32 33  2  0
 34 33  1  0
 34 38  1  0
 35 34  2  0
 36 31  2  0
 36 35  1  0
 37 36  1  0
 39 40  1  0
 40 43  1  0
 40 42  1  0
 41 39  2  0
 44 45  1  0
 44 19  1  0
 46 44  1  0
 47 50  1  0
 47 49  1  0
 49 52  1  0
 49 48  1  0
 50 48  1  0
 51 47  2  0
 53 64  2  0
 54 52  1  0
 54 59  1  0
 55 63  1  0
 55 65  1  0
 56 62  1  0
 56 58  1  0
 57 63  1  0
 58 57  1  0
 59 58  2  0
 60 54  2  0
 61 60  1  0
 61 56  2  0
 62 55  1  0
 63 53  1  0
 65 67  2  0
 66 65  1  0
 68 66  1  0
 69 78  2  0
 69 74  1  0
 70 66  1  0
 70 74  1  0
 71 70  1  0
 72 73  1  0
 72 71  1  0
 73 69  1  0
 74 75  2  0
 75 76  1  0
 77 76  2  0
 78 77  1  0
 79 53  1  0
 79 80  1  0
 79 89  1  0
 80 83  1  0
 81 85  1  0
 81 80  1  0
 82 81  2  0
 85 84  1  0
 87 85  1  0
 87 88  1  0
 87 86  1  0
 89 92  1  1
 89 90  1  0
 91 89  1  0
M  ISO  4   9 100  17 100  49 101  52 101
M  END
>  <TORSDO>  (37) 
F 18

>  <SCORE>  (37) 
-14.729

>  <name>  (37) 
37

>  <ligand_id>  (37) 
37

>  <original_smiles>  (37) 
[H]c1c([H])c([H])c2c(c1[H])C([H])([H])C([H])([H])C([H])([H])C2([H])N([H])C(=O)C1([H])N(C(=O)C([H])(N([H])C(=O)C([H])(N([H])C([H])([H])[H])C([H])([H])[H])C(C([H])([H])[H])(C([H])([H])[H])C([H])([H])[H])C([H])([H])c2c([H])c(OC3([H])C(=O)N(C([H])([H])c4c([H])c([H])c(N([H])C(=O)N5C([H])([H])C([H])([H])C([H])([H])C([H])(n6nc(-c7c([H])c([H])c(Oc8c([H])c([H])c(F)c([H])c8F)c([H])c7[H])c(C(=O)N([H])[H])c6N([H])[H])C5([H])[H])c([H])c4F)C3([H])[H])c([H])c([H])c2C1([H])[H]

>  <smiles>  (37) 
[H]c1c([H])c([H])c2c(c1[H])C([H])([H])C([H])([H])C([H])([H])C2([H])N([H])C(=O)C1([H])N(C(=O)C([H])(N([H])C(=O)C([H])(N([H])C([H])([H])[H])C([H])([H])[H])C(C([H])([H])[H])(C([H])([H])[H])C([H])([H])[H])C([H])([H])c2c([H])c(OC3([H])C(=O)N(C([H])([H])c4c([H])c([H])c(N([H])C(=O)N5C([H])([H])C([H])([H])C([H])([H])C([H])(n6nc(-c7c([H])c([H])c(Oc8c([H])c([H])c(F)c([H])c8F)c([H])c7[H])c(C(=O)N([H])[H])c6N([H])[H])C5([H])[H])c([H])c4F)C3([H])[H])c([H])c([H])c2C1([H])[H]

$$$$
38:0:0
     RDKit          3D

 92100  0  0  1  0  0  0  0  0999 V2000
  -28.8480  -19.5250   18.7060 C   0  0  0  0  0  3  0  0  0  0  0  0
  -29.2360  -17.1050   18.8080 C   0  0  0  0  0  3  0  0  0  0  0  0
  -29.9680  -18.5480   20.6350 C   0  0  0  0  0  0  0  0  0  0  0  0
  -29.4580  -19.7410   19.9580 C   0  0  0  0  0  0  0  0  0  0  0  0
  -29.8330  -17.1880   20.0860 C   0  0  0  0  0  0  0  0  0  0  0  0
  -28.7580  -18.2420   18.1330 C   0  0  0  0  0  0  0  0  0  0  0  0
  -30.7100  -18.7870   21.9430 C   0  0  0  0  0  1  0  0  0  0  0  0
  -28.0330  -18.0470   16.5800 Cl  0  0  0  0  0  0  0  0  0  0  0  0
  -30.7800  -14.7870   20.0920 C   0  0  0  0  0  0  0  0  0  0  0  0
  -30.4820  -12.5940   18.9060 C   0  0  0  0  0  2  0  0  0  0  0  0
  -29.4610  -12.7200   17.7530 C   0  0  0  0  0  2  0  0  0  0  0  0
  -28.0140  -12.5370   18.2610 C   0  0  0  0  0  2  0  0  0  0  0  0
  -27.7330  -13.3530   19.5470 C   0  0  0  0  0  3  0  0  0  0  0  0
  -28.8570  -13.1480   20.5780 C   0  0  0  0  0  2  0  0  0  0  0  0
  -30.1190  -13.5790   19.9560 N   0  0  0  0  0  0  0  0  0  0  0  0
  -31.8720  -14.9390   19.5370 O   0  0  0  0  0  0  0  0  0  0  0  0
  -29.8770  -15.7100   22.1630 C   0  0  0  0  0  1  0  0  0  0  0  0
  -30.1620  -15.8730   20.7260 N   0  0  0  0  0  0  0  0  0  0  0  0
  -25.3980  -13.9270   20.4420 C   0  0  0  0  0  0  0  0  0  0  0  0
  -24.3580  -13.1410   20.8620 C   0  0  0  0  0  0  0  0  0  0  0  0
  -24.8170  -11.7910   20.7620 C   0  0  0  0  0  0  0  0  0  0  0  0
  -26.4210  -13.0520   20.1120 N   0  0  0  0  0  0  0  0  0  0  0  0
  -26.0840  -11.7620   20.3680 N   0  0  0  0  0  0  0  0  0  0  0  0
  -24.1040  -10.5240   20.9660 C   0  0  0  0  0  0  0  0  0  0  0  0
  -24.5540   -9.5640   21.8980 C   0  0  0  0  0  3  0  0  0  0  0  0
  -23.8420   -8.3600   22.0860 C   0  0  0  0  0  3  0  0  0  0  0  0
  -22.6630   -8.1110   21.3460 C   0  0  0  0  0  0  0  0  0  0  0  0
  -22.2320   -9.0600   20.4000 C   0  0  0  0  0  3  0  0  0  0  0  0
  -22.9460  -10.2550   20.2090 C   0  0  0  0  0  3  0  0  0  0  0  0
  -21.9170   -6.9620   21.4460 O   0  0  0  0  0  0  0  0  0  0  0  0
  -21.8200   -6.2670   22.6250 C   0  0  0  0  0  0  0  0  0  0  0  0
  -21.3290   -6.8660   23.8060 C   0  0  0  0  0  3  0  0  0  0  0  0
  -21.1810   -6.0970   24.9780 C   0  0  0  0  0  3  0  0  0  0  0  0
  -21.5140   -4.7280   24.9680 C   0  0  0  0  0  0  0  0  0  0  0  0
  -21.9990   -4.1290   23.7920 C   0  0  0  0  0  3  0  0  0  0  0  0
  -22.1480   -4.8970   22.6220 C   0  0  0  0  0  0  0  0  0  0  0  0
  -22.5940   -4.3100   21.4870 F   0  0  0  0  0  0  0  0  0  0  0  0
  -21.3640   -3.9850   26.0900 F   0  0  0  0  0  0  0  0  0  0  0  0
  -22.9830  -13.6110   21.2400 C   0  0  0  0  0  0  0  0  0  0  0  0
  -22.3190  -12.8990   22.1430 N   0  0  0  0  0  0  0  0  0  0  0  0
  -22.5080  -14.6420   20.7650 O   0  0  0  0  0  0  0  0  0  0  0  0
  -22.7110  -12.0630   22.5480 H   0  0  0  0  0  0  0  0  0  0  0  0
  -21.3990  -13.1990   22.4360 H   0  0  0  0  0  0  0  0  0  0  0  0
  -25.5540  -15.3010   20.2940 N   0  0  0  0  0  0  0  0  0  0  0  0
  -24.7950  -15.9530   20.4690 H   0  0  0  0  0  0  0  0  0  0  0  0
  -26.3920  -15.7500   19.9450 H   0  0  0  0  0  0  0  0  0  0  0  0
  -29.5560  -21.1040   20.4670 N   0  0  0  0  0  0  0  0  0  0  0  0
  -30.0810  -21.2420   21.3270 H   0  0  0  0  0  0  0  0  0  0  0  0
  -28.8700  -22.3260   19.8810 C   0  0  0  0  0  2  0  0  0  0  0  0
  -29.0620  -23.7860   20.5660 C   0  0  0  0  0  3  0  0  0  0  0  0
  -28.1350  -25.0020   20.0550 C   0  0  0  0  0  3  0  0  0  0  0  0
  -28.3300  -26.4380   20.4610 O   0  0  0  0  0  0  0  0  0  0  0  0
  -24.6110  -31.9420   23.3830 C   0  0  0  0  0  0  0  0  0  0  0  0
  -27.2390  -27.3380   20.3650 C   0  0  0  0  0  0  0  0  0  0  0  0
  -23.4260  -30.5470   21.7300 C   0  0  0  0  0  3  0  0  0  0  0  0
  -24.8900  -28.9910   20.3190 C   0  0  0  0  0  0  0  0  0  0  0  0
  -25.9740  -30.8430   21.5870 C   0  0  0  0  0  2  0  0  0  0  0  0
  -26.0550  -29.4630   20.9370 C   0  0  0  0  0  0  0  0  0  0  0  0
  -27.2320  -28.6460   20.9540 C   0  0  0  0  0  3  0  0  0  0  0  0
  -26.0540  -26.9450   19.6960 C   0  0  0  0  0  3  0  0  0  0  0  0
  -24.8920  -27.7380   19.6910 C   0  0  0  0  0  3  0  0  0  0  0  0
  -23.6590  -29.8750   20.3520 C   0  0  0  0  0  2  0  0  0  0  0  0
  -24.6880  -31.1270   22.2910 N   0  0  0  0  0  0  0  0  0  0  0  0
  -23.5210  -32.2260   23.9000 O   0  0  0  0  0  0  0  0  0  0  0  0
  -22.7460  -29.5320   22.6790 C   0  0  0  0  0  0  0  0  0  0  0  0
  -21.4260  -29.3400   22.5150 N   0  0  0  0  0  0  0  0  0  0  0  0
  -23.4060  -28.9210   23.5240 O   0  0  0  0  0  0  0  0  0  0  0  0
  -20.9510  -29.8820   21.8080 H   0  0  0  0  0  0  0  0  0  0  0  0
  -18.0480  -28.1100   22.9200 C   0  0  0  0  0  0  0  0  0  0  0  0
  -20.5930  -28.4050   23.2740 C   0  0  0  0  0  3  0  0  0  0  0  0
  -20.7330  -26.9660   22.7250 C   0  0  0  0  0  2  0  0  0  0  0  0
  -19.6710  -26.6130   21.6790 C   0  0  0  0  0  2  0  0  0  0  0  0
  -18.2660  -26.7520   22.2720 C   0  0  0  0  0  2  0  0  0  0  0  0
  -19.1430  -28.8930   23.3760 C   0  0  0  0  0  0  0  0  0  0  0  0
  -18.8880  -30.1620   23.9390 C   0  0  0  0  0  3  0  0  0  0  0  0
  -17.5730  -30.6490   24.0530 C   0  0  0  0  0  3  0  0  0  0  0  0
  -16.4920  -29.8630   23.6160 C   0  0  0  0  0  3  0  0  0  0  0  0
  -16.7310  -28.5960   23.0530 C   0  0  0  0  0  3  0  0  0  0  0  0
  -25.8860  -32.5730   24.0230 C   0  0  0  0  0  3  0  0  0  0  0  0
  -26.3530  -31.8300   25.3340 C   0  0  1  0  0  0  0  0  0  0  0  0
  -25.2250  -31.6290   26.3720 C   0  0  0  0  0  1  0  0  0  0  0  0
  -26.9330  -30.4370   24.9970 C   0  0  0  0  0  1  0  0  0  0  0  0
  -27.4940  -32.6280   26.0090 C   0  0  0  0  0  1  0  0  0  0  0  0
  -25.5880  -33.9850   24.3060 N   0  0  0  0  0  0  0  0  0  0  0  0
  -25.9350  -35.0100   23.5170 C   0  0  0  0  0  0  0  0  0  0  0  0
  -26.6080  -34.8670   22.4930 O   0  0  0  0  0  0  0  0  0  0  0  0
  -24.9910  -34.1720   25.0990 H   0  0  0  0  0  0  0  0  0  0  0  0
  -24.2160  -36.8010   23.1150 C   0  0  0  0  0  1  0  0  0  0  0  0
  -25.4600  -36.4160   23.9300 C   0  0  0  0  0  3  0  0  0  0  0  0
  -27.6070  -37.3140   24.7150 C   0  0  0  0  0  1  0  0  0  0  0  0
  -26.5000  -37.4580   23.7730 N   0  0  0  0  0  0  0  0  0  0  0  0
  -26.1010  -38.3850   23.8940 H   0  0  0  0  0  0  0  0  0  0  0  0
  1  4  1  0
  2  5  2  0
  3  7  1  0
  4 47  1  0
  4  3  2  0
  5  3  1  0
  5 18  1  0
  6  1  2  0
  6  2  1  0
  8  6  1  0
  9 18  1  0
 10 15  1  0
 11 12  1  0
 11 10  1  0
 13 12  1  0
 13 22  1  0
 13 14  1  0
 15  9  1  0
 15 14  1  0
 16  9  2  0
 18 17  1  0
 19 20  2  0
 20 39  1  0
 21 20  1  0
 21 24  1  0
 22 23  1  0
 22 19  1  0
 23 21  2  0
 24 25  1  0
 25 26  2  0
 27 30  1  0
 27 26  1  0
 28 27  2  0
 29 28  1  0
 29 24  2  0
 30 31  1  0
 31 32  1  0
 32 33  2  0
 34 33  1  0
 34 38  1  0
 35 34  2  0
 36 31  2  0
 36 35  1  0
 37 36  1  0
 39 40  1  0
 40 43  1  0
 40 42  1  0
 41 39  2  0
 44 19  1  0
 44 45  1  0
 46 44  1  0
 47 48  1  0
 49 47  1  0
 49 50  1  0
 51 52  1  0
 51 50  2  0
 53 64  2  0
 54 52  1  0
 54 59  1  0
 55 63  1  0
 55 65  1  0
 56 62  1  0
 56 58  1  0
 57 63  1  0
 58 59  2  0
 58 57  1  0
 60 54  2  0
 61 60  1  0
 61 56  2  0
 62 55  1  0
 63 53  1  0
 65 67  2  0
 66 65  1  0
 68 66  1  0
 69 78  2  0
 69 74  1  0
 70 66  1  0
 70 74  1  0
 71 70  1  0
 72 73  1  0
 72 71  1  0
 73 69  1  0
 74 75  2  0
 75 76  1  0
 77 76  2  0
 78 77  1  0
 79 53  1  0
 79 84  1  0
 79 80  1  0
 80 83  1  1
 80 81  1  0
 82 80  1  0
 84 87  1  0
 85 89  1  0
 85 84  1  0
 86 85  2  0
 89 88  1  0
 91 92  1  0
 91 89  1  0
 91 90  1  0
M  ISO  4   9 100  18 100  51 101  52 101
M  END
>  <TORSDO>  (38) 
F 20

>  <SCORE>  (38) 
-12.497

>  <name>  (38) 
38

>  <ligand_id>  (38) 
38

>  <original_smiles>  (38) 
[H]c1c([H])c([H])c2c(c1[H])C([H])([H])C([H])([H])C([H])([H])C2([H])N([H])C(=O)C1([H])N(C(=O)C([H])(N([H])C(=O)C([H])(N([H])C([H])([H])[H])C([H])([H])[H])C(C([H])([H])[H])(C([H])([H])[H])C([H])([H])[H])C([H])([H])c2c([H])c(OC([H])([H])C([H])([H])C([H])([H])N([H])c3c([H])c(Cl)c([H])c(N(C(=O)N4C([H])([H])C([H])([H])C([H])([H])C([H])(n5nc(-c6c([H])c([H])c(Oc7c([H])c([H])c(F)c([H])c7F)c([H])c6[H])c(C(=O)N([H])[H])c5N([H])[H])C4([H])[H])C([H])([H])[H])c3C([H])([H])[H])c([H])c([H])c2C1([H])[H]

>  <smiles>  (38) 
[H]c1c([H])c([H])c2c(c1[H])C([H])([H])C([H])([H])C([H])([H])C2([H])N([H])C(=O)C1([H])N(C(=O)C([H])(N([H])C(=O)C([H])(N([H])C([H])([H])[H])C([H])([H])[H])C(C([H])([H])[H])(C([H])([H])[H])C([H])([H])[H])C([H])([H])c2c([H])c(OC([H])([H])C([H])([H])C([H])([H])N([H])c3c([H])c(Cl)c([H])c(N(C(=O)N4C([H])([H])C([H])([H])C([H])([H])C([H])(n5nc(-c6c([H])c([H])c(Oc7c([H])c([H])c(F)c([H])c7F)c([H])c6[H])c(C(=O)N([H])[H])c5N([H])[H])C4([H])[H])C([H])([H])[H])c3C([H])([H])[H])c([H])c([H])c2C1([H])[H]

$$$$
39:0:0
     RDKit          3D

 86 92  0  0  1  0  0  0  0  0999 V2000
  -30.1320  -16.2230   20.2550 C   0  0  0  0  0  0  0  0  0  0  0  0
  -30.3250  -13.5650   19.4760 C   0  0  0  0  0  2  0  0  0  0  0  0
  -29.5240  -12.8850   18.3150 C   0  0  0  0  0  2  0  0  0  0  0  0
  -28.1460  -12.4180   18.7880 C   0  0  0  0  0  2  0  0  0  0  0  0
  -27.5380  -13.4650   19.7410 C   0  0  0  0  0  3  0  0  0  0  0  0
  -28.5110  -14.0270   20.8210 C   0  0  0  0  0  2  0  0  0  0  0  0
  -29.5920  -14.8030   20.1150 N   0  0  0  0  0  0  0  0  0  0  0  0
  -31.3670  -15.9710   20.2040 O   0  0  0  0  0  0  0  0  0  0  0  0
  -31.1210  -18.7050   18.2670 C   0  0  0  0  0  2  0  0  0  0  0  0
  -28.5750  -19.2610   20.4070 C   0  0  0  0  0  1  0  0  0  0  0  0
  -30.1170  -19.4230   17.3680 C   0  0  0  0  0  2  0  0  0  0  0  0
  -28.8930  -21.2080   20.2980 C   0  0  0  0  0  1  0  0  0  0  0  0
  -30.5820  -18.9660   19.6660 C   0  0  0  0  0  3  0  0  0  0  0  0
  -30.0790  -20.5590   19.4340 C   0  0  0  0  0  3  0  0  0  0  0  0
  -29.6360  -17.8320   20.1200 N   0  0  0  0  0  0  0  0  0  0  0  0
  -29.7220  -20.6120   18.0510 O   0  0  0  0  0  0  0  0  0  0  0  0
  -25.1700  -13.9370   20.4820 C   0  0  0  0  0  0  0  0  0  0  0  0
  -24.1150  -13.1430   20.8240 C   0  0  0  0  0  0  0  0  0  0  0  0
  -24.6020  -11.7990   20.7990 C   0  0  0  0  0  0  0  0  0  0  0  0
  -26.2320  -13.0840   20.2590 N   0  0  0  0  0  0  0  0  0  0  0  0
  -25.9040  -11.7860   20.5110 N   0  0  0  0  0  0  0  0  0  0  0  0
  -23.8790  -10.5290   20.9720 C   0  0  0  0  0  0  0  0  0  0  0  0
  -24.2820   -9.5710   21.9290 C   0  0  0  0  0  3  0  0  0  0  0  0
  -23.5530   -8.3730   22.0950 C   0  0  0  0  0  3  0  0  0  0  0  0
  -22.4060   -8.1240   21.3050 C   0  0  0  0  0  0  0  0  0  0  0  0
  -22.0210   -9.0700   20.3390 C   0  0  0  0  0  3  0  0  0  0  0  0
  -22.7510  -10.2590   20.1710 C   0  0  0  0  0  3  0  0  0  0  0  0
  -21.6520   -6.9770   21.3790 O   0  0  0  0  0  0  0  0  0  0  0  0
  -21.5490   -6.2550   22.5420 C   0  0  0  0  0  0  0  0  0  0  0  0
  -21.0320   -6.8230   23.7260 C   0  0  0  0  0  3  0  0  0  0  0  0
  -20.8790   -6.0260   24.8800 C   0  0  0  0  0  3  0  0  0  0  0  0
  -21.2330   -4.6640   24.8480 C   0  0  0  0  0  0  0  0  0  0  0  0
  -21.7430   -4.0960   23.6670 C   0  0  0  0  0  3  0  0  0  0  0  0
  -21.8980   -4.8890   22.5170 C   0  0  0  0  0  0  0  0  0  0  0  0
  -22.3690   -4.3320   21.3760 F   0  0  0  0  0  0  0  0  0  0  0  0
  -21.0810   -3.8980   25.9530 F   0  0  0  0  0  0  0  0  0  0  0  0
  -22.7070  -13.6060   21.0570 C   0  0  0  0  0  0  0  0  0  0  0  0
  -21.9690  -12.9140   21.9140 N   0  0  0  0  0  0  0  0  0  0  0  0
  -22.2740  -14.6220   20.5130 O   0  0  0  0  0  0  0  0  0  0  0  0
  -22.3340  -12.0940   22.3770 H   0  0  0  0  0  0  0  0  0  0  0  0
  -21.0230  -13.2080   22.1140 H   0  0  0  0  0  0  0  0  0  0  0  0
  -25.3150  -15.3100   20.3040 N   0  0  0  0  0  0  0  0  0  0  0  0
  -24.5370  -15.9530   20.4020 H   0  0  0  0  0  0  0  0  0  0  0  0
  -26.1680  -15.7610   19.9980 H   0  0  0  0  0  0  0  0  0  0  0  0
  -28.0360  -23.1790   20.0700 C   0  0  0  0  0 15  0  0  0  0  0  0
  -28.0980  -25.1060   20.2380 O   0  0  0  0  0  1  0  0  0  0  0  0
  -24.6380  -31.8210   23.1300 C   0  0  0  0  0  0  0  0  0  0  0  0
  -27.1630  -26.4660   20.1850 C   0  0  0  0  0  0  0  0  0  0  0  0
  -23.4700  -30.4110   21.4960 C   0  0  0  0  0  3  0  0  0  0  0  0
  -24.9260  -28.7010   20.1090 C   0  0  0  0  0  0  0  0  0  0  0  0
  -26.0620  -30.4650   21.4190 C   0  0  0  0  0  2  0  0  0  0  0  0
  -26.1260  -28.9970   20.7650 C   0  0  0  0  0  0  0  0  0  0  0  0
  -27.2110  -27.9190   20.7610 C   0  0  0  0  0  3  0  0  0  0  0  0
  -25.9250  -26.4650   19.4670 C   0  0  0  0  0  3  0  0  0  0  0  0
  -24.8840  -27.4650   19.4340 C   0  0  0  0  0  3  0  0  0  0  0  0
  -23.7320  -29.6890   20.1370 C   0  0  0  0  0  2  0  0  0  0  0  0
  -24.7510  -30.9400   22.0660 N   0  0  0  0  0  0  0  0  0  0  0  0
  -23.5360  -32.1340   23.6190 O   0  0  0  0  0  0  0  0  0  0  0  0
  -22.7220  -29.4630   22.4740 C   0  0  0  0  0  0  0  0  0  0  0  0
  -21.3840  -29.3330   22.3560 N   0  0  0  0  0  0  0  0  0  0  0  0
  -23.3630  -28.8350   23.3200 O   0  0  0  0  0  0  0  0  0  0  0  0
  -20.9110  -29.8880   21.6560 H   0  0  0  0  0  0  0  0  0  0  0  0
  -17.9810  -28.1590   22.9040 C   0  0  0  0  0  0  0  0  0  0  0  0
  -20.5490  -28.4030   23.1290 C   0  0  0  0  0  3  0  0  0  0  0  0
  -20.6250  -26.9730   22.5440 C   0  0  0  0  0  2  0  0  0  0  0  0
  -19.5080  -26.6720   21.5400 C   0  0  0  0  0  2  0  0  0  0  0  0
  -18.1360  -26.8190   22.2040 C   0  0  0  0  0  2  0  0  0  0  0  0
  -19.1120  -28.9100   23.3240 C   0  0  0  0  0  0  0  0  0  0  0  0
  -18.9070  -30.1590   23.9480 C   0  0  0  0  0  3  0  0  0  0  0  0
  -17.6080  -30.6600   24.1500 C   0  0  0  0  0  3  0  0  0  0  0  0
  -16.4920  -29.9080   23.7410 C   0  0  0  0  0  3  0  0  0  0  0  0
  -16.6810  -28.6580   23.1240 C   0  0  0  0  0  3  0  0  0  0  0  0
  -25.8820  -32.4930   23.7870 C   0  0  0  0  0  3  0  0  0  0  0  0
  -25.5460  -33.8950   24.1170 N   0  0  0  0  0  0  0  0  0  0  0  0
  -25.8830  -34.9700   23.3910 C   0  0  0  0  0  0  0  0  0  0  0  0
  -26.5600  -34.8850   22.3640 O   0  0  0  0  0  0  0  0  0  0  0  0
  -24.9400  -34.0320   24.9130 H   0  0  0  0  0  0  0  0  0  0  0  0
  -24.1570  -36.7830   23.0760 C   0  0  0  0  0  1  0  0  0  0  0  0
  -25.3990  -36.3570   23.8740 C   0  0  0  0  0  3  0  0  0  0  0  0
  -27.5310  -37.2450   24.7190 C   0  0  0  0  0  1  0  0  0  0  0  0
  -26.4320  -37.4140   23.7720 N   0  0  0  0  0  0  0  0  0  0  0  0
  -26.0230  -38.3330   23.9210 H   0  0  0  0  0  0  0  0  0  0  0  0
  -26.3630  -31.7490   25.0960 C   0  0  1  0  0  0  0  0  0  0  0  0
  -25.2420  -31.5370   26.1430 C   0  0  0  0  0  1  0  0  0  0  0  0
  -26.9520  -30.3610   24.7660 C   0  0  0  0  0  1  0  0  0  0  0  0
  -27.4990  -32.5550   25.7700 C   0  0  0  0  0  1  0  0  0  0  0  0
  2  7  1  0
  3  4  1  0
  3  2  1  0
  5  4  1  0
  5 20  1  0
  5  6  1  0
  7  1  1  0
  7  6  1  0
  8  1  2  0
  9 13  1  0
 11 16  1  0
 11  9  1  0
 13 15  1  0
 14 13  1  0
 14 12  1  0
 15  1  1  0
 15 10  1  0
 16 14  1  0
 17 18  2  0
 18 37  1  0
 19 18  1  0
 19 22  1  0
 20 17  1  0
 20 21  1  0
 21 19  2  0
 22 23  1  0
 23 24  2  0
 25 28  1  0
 25 24  1  0
 26 25  2  0
 27 26  1  0
 27 22  2  0
 28 29  1  0
 29 30  1  0
 30 31  2  0
 32 31  1  0
 32 36  1  0
 33 32  2  0
 34 29  2  0
 34 33  1  0
 35 34  1  0
 37 38  1  0
 38 41  1  0
 38 40  1  0
 39 37  2  0
 42 43  1  0
 42 17  1  0
 44 42  1  0
 47 58  2  0
 48 46  1  0
 48 53  1  0
 49 57  1  0
 49 59  1  0
 50 56  1  0
 50 52  1  0
 51 57  1  0
 52 51  1  0
 53 52  2  0
 54 48  2  0
 55 54  1  0
 55 50  2  0
 56 49  1  0
 57 47  1  0
 59 61  2  0
 60 59  1  0
 62 60  1  0
 63 72  2  0
 63 68  1  0
 64 60  1  0
 64 68  1  0
 65 64  1  0
 66 67  1  0
 66 65  1  0
 67 63  1  0
 68 69  2  0
 69 70  1  0
 71 70  2  0
 72 71  1  0
 73 47  1  0
 73 74  1  0
 73 83  1  0
 74 77  1  0
 75 79  1  0
 75 74  1  0
 76 75  2  0
 79 78  1  0
 81 79  1  0
 81 82  1  0
 81 80  1  0
 83 86  1  1
 83 84  1  0
 85 83  1  0
M  ISO  4   1 100  15 100  45 101  46 101
M  END
>  <TORSDO>  (39) 
F 16

>  <SCORE>  (39) 
-16.657

>  <name>  (39) 
39

>  <ligand_id>  (39) 
39

>  <original_smiles>  (39) 
[H]c1c([H])c([H])c2c(c1[H])C([H])([H])C([H])([H])C([H])([H])C2([H])N([H])C(=O)C1([H])N(C(=O)C([H])(N([H])C(=O)C([H])(N([H])C([H])([H])[H])C([H])([H])[H])C(C([H])([H])[H])(C([H])([H])[H])C([H])([H])[H])C([H])([H])c2c([H])c(OC([H])([H])C3([H])C([H])([H])N(C(=O)N4C([H])([H])C([H])([H])C([H])([H])C([H])(n5nc(-c6c([H])c([H])c(Oc7c([H])c([H])c(F)c([H])c7F)c([H])c6[H])c(C(=O)N([H])[H])c5N([H])[H])C4([H])[H])C4([H])C([H])([H])C([H])([H])OC43[H])c([H])c([H])c2C1([H])[H]

>  <smiles>  (39) 
[H]c1c([H])c([H])c2c(c1[H])C([H])([H])C([H])([H])C([H])([H])C2([H])N([H])C(=O)C1([H])N(C(=O)C([H])(N([H])C(=O)C([H])(N([H])C([H])([H])[H])C([H])([H])[H])C(C([H])([H])[H])(C([H])([H])[H])C([H])([H])[H])C([H])([H])c2c([H])c(OC([H])([H])C3([H])C([H])([H])N(C(=O)N4C([H])([H])C([H])([H])C([H])([H])C([H])(n5nc(-c6c([H])c([H])c(Oc7c([H])c([H])c(F)c([H])c7F)c([H])c6[H])c(C(=O)N([H])[H])c5N([H])[H])C4([H])[H])C4([H])C([H])([H])C([H])([H])OC43[H])c([H])c([H])c2C1([H])[H]

$$$$
40:0:0
     RDKit          3D

 94103  0  0  1  0  0  0  0  0999 V2000
  -28.9540  -20.1530   18.9790 C   0  0  0  0  0  3  0  0  0  0  0  0
  -29.7760  -20.5620   21.1920 C   0  0  0  0  0  3  0  0  0  0  0  0
  -29.6300  -18.1940   20.3720 C   0  0  0  0  0  0  0  0  0  0  0  0
  -29.1950  -21.1080   20.0050 C   0  0  0  0  0  0  0  0  0  0  0  0
  -29.1690  -18.7540   19.1500 C   0  0  0  0  0  0  0  0  0  0  0  0
  -29.9840  -19.1470   21.3690 C   0  0  0  0  0  0  0  0  0  0  0  0
  -28.8560  -17.9270   18.1250 F   0  0  0  0  0  0  0  0  0  0  0  0
  -30.4850  -18.6930   22.5430 F   0  0  0  0  0  0  0  0  0  0  0  0
  -26.9530  -23.1030   21.3900 C   0  0  0  0  0  2  0  0  0  0  0  0
  -28.2630  -23.8150   21.7170 C   0  0  0  0  0  2  0  0  0  0  0  0
  -27.2130  -22.3660   20.0730 C   0  0  0  0  0  2  0  0  0  0  0  0
  -29.0670  -23.7810   20.4030 C   0  0  0  0  0  3  0  0  0  0  0  0
  -28.6550  -22.4470   19.8160 N   0  0  0  0  0  0  0  0  0  0  0  0
  -28.7030  -25.0980   19.5080 C   0  0  0  0  0  2  0  0  0  0  0  0
  -28.6410  -26.4910   20.0980 O   0  0  0  0  0  0  0  0  0  0  0  0
  -24.5890  -31.7350   23.1560 C   0  0  0  0  0  0  0  0  0  0  0  0
  -27.4880  -27.3160   20.0470 C   0  0  0  0  0  0  0  0  0  0  0  0
  -23.5140  -30.3420   21.4390 C   0  0  0  0  0  3  0  0  0  0  0  0
  -25.0750  -28.9010   20.0140 C   0  0  0  0  0  0  0  0  0  0  0  0
  -26.0550  -30.7270   21.3890 C   0  0  0  0  0  2  0  0  0  0  0  0
  -26.2020  -29.3780   20.6890 C   0  0  0  0  0  0  0  0  0  0  0  0
  -27.4060  -28.5980   20.6970 C   0  0  0  0  0  3  0  0  0  0  0  0
  -26.3210  -26.9140   19.3540 C   0  0  0  0  0  3  0  0  0  0  0  0
  -25.1460  -27.6820   19.3370 C   0  0  0  0  0  3  0  0  0  0  0  0
  -23.8050  -29.7300   20.0470 C   0  0  0  0  0  2  0  0  0  0  0  0
  -24.7370  -30.9530   22.0500 N   0  0  0  0  0  0  0  0  0  0  0  0
  -23.4700  -31.9620   23.6390 O   0  0  0  0  0  0  0  0  0  0  0  0
  -22.8560  -29.2640   22.3350 C   0  0  0  0  0  0  0  0  0  0  0  0
  -21.5360  -29.0720   22.1770 N   0  0  0  0  0  0  0  0  0  0  0  0
  -23.5320  -28.6090   23.1350 O   0  0  0  0  0  0  0  0  0  0  0  0
  -21.0540  -29.6490   21.5020 H   0  0  0  0  0  0  0  0  0  0  0  0
  -18.1540  -27.8750   22.6230 C   0  0  0  0  0  0  0  0  0  0  0  0
  -20.7190  -28.0890   22.8900 C   0  0  0  0  0  3  0  0  0  0  0  0
  -20.8020  -26.7070   22.2000 C   0  0  0  0  0  2  0  0  0  0  0  0
  -19.6870  -26.4860   21.1730 C   0  0  0  0  0  2  0  0  0  0  0  0
  -18.3100  -26.5840   21.8370 C   0  0  0  0  0  2  0  0  0  0  0  0
  -19.2840  -28.5890   23.1000 C   0  0  0  0  0  0  0  0  0  0  0  0
  -19.0840  -29.8080   23.7840 C   0  0  0  0  0  3  0  0  0  0  0  0
  -17.7860  -30.3120   23.9980 C   0  0  0  0  0  3  0  0  0  0  0  0
  -16.6690  -29.5870   23.5450 C   0  0  0  0  0  3  0  0  0  0  0  0
  -16.8520  -28.3690   22.8640 C   0  0  0  0  0  3  0  0  0  0  0  0
  -25.8150  -32.3960   23.8560 C   0  0  0  0  0  3  0  0  0  0  0  0
  -26.2620  -31.6440   25.1680 C   0  0  1  0  0  0  0  0  0  0  0  0
  -25.1020  -31.3850   26.1590 C   0  0  0  0  0  1  0  0  0  0  0  0
  -26.9030  -30.2770   24.8290 C   0  0  0  0  0  1  0  0  0  0  0  0
  -27.3510  -32.4710   25.8920 C   0  0  0  0  0  1  0  0  0  0  0  0
  -25.4440  -33.7860   24.1530 N   0  0  0  0  0  0  0  0  0  0  0  0
  -25.7790  -34.8430   23.4030 C   0  0  0  0  0  0  0  0  0  0  0  0
  -26.4980  -34.7540   22.4040 O   0  0  0  0  0  0  0  0  0  0  0  0
  -24.7970  -33.9250   24.9180 H   0  0  0  0  0  0  0  0  0  0  0  0
  -24.0030  -36.5740   22.9720 C   0  0  0  0  0  1  0  0  0  0  0  0
  -25.2280  -36.2190   23.8300 C   0  0  0  0  0  3  0  0  0  0  0  0
  -27.2940  -37.1890   24.7330 C   0  0  0  0  0  1  0  0  0  0  0  0
  -26.2290  -37.3030   23.7420 N   0  0  0  0  0  0  0  0  0  0  0  0
  -25.7870  -38.2130   23.8500 H   0  0  0  0  0  0  0  0  0  0  0  0
  -29.4800  -16.6390   20.6580 C   0  0  0  0  0  2  0  0  0  0  0  0
  -30.9450  -14.6350   20.0370 C   0  0  0  0  0  0  0  0  0  0  0  0
  -30.4340  -12.4690   18.9250 C   0  0  0  0  0  2  0  0  0  0  0  0
  -29.4490  -12.6490   17.7550 C   0  0  0  0  0  2  0  0  0  0  0  0
  -28.0050  -12.5140   18.2710 C   0  0  0  0  0  2  0  0  0  0  0  0
  -27.7340  -13.3930   19.5200 C   0  0  0  0  0  3  0  0  0  0  0  0
  -28.8530  -13.2620   20.5810 C   0  0  0  0  0  2  0  0  0  0  0  0
  -30.1490  -13.5180   19.9310 N   0  0  0  0  0  0  0  0  0  0  0  0
  -32.0330  -14.6710   19.4540 O   0  0  0  0  0  0  0  0  0  0  0  0
  -31.6940  -16.1440   21.7740 C   0  0  0  0  0  1  0  0  0  0  0  0
  -30.6240  -15.6800   20.8710 N   0  0  0  0  0  0  0  0  0  0  0  0
  -25.3960  -14.0360   20.3660 C   0  0  0  0  0  0  0  0  0  0  0  0
  -24.3210  -13.2820   20.7680 C   0  0  0  0  0  0  0  0  0  0  0  0
  -24.7440  -11.9220   20.6930 C   0  0  0  0  0  0  0  0  0  0  0  0
  -26.4050  -13.1330   20.0740 N   0  0  0  0  0  0  0  0  0  0  0  0
  -26.0210  -11.8540   20.3310 N   0  0  0  0  0  0  0  0  0  0  0  0
  -23.9890  -10.6750   20.8940 C   0  0  0  0  0  0  0  0  0  0  0  0
  -24.3960   -9.7170   21.8460 C   0  0  0  0  0  3  0  0  0  0  0  0
  -23.6450   -8.5360   22.0360 C   0  0  0  0  0  3  0  0  0  0  0  0
  -22.4750   -8.3080   21.2730 C   0  0  0  0  0  0  0  0  0  0  0  0
  -22.0890   -9.2570   20.3110 C   0  0  0  0  0  3  0  0  0  0  0  0
  -22.8390  -10.4280   20.1190 C   0  0  0  0  0  3  0  0  0  0  0  0
  -21.6990   -7.1790   21.3720 O   0  0  0  0  0  0  0  0  0  0  0  0
  -21.5680   -6.4940   22.5540 C   0  0  0  0  0  0  0  0  0  0  0  0
  -21.0440   -7.1060   23.7130 C   0  0  0  0  0  3  0  0  0  0  0  0
  -20.8580   -6.3490   24.8870 C   0  0  0  0  0  3  0  0  0  0  0  0
  -21.1890   -4.9810   24.9030 C   0  0  0  0  0  0  0  0  0  0  0  0
  -21.7080   -4.3690   23.7490 C   0  0  0  0  0  3  0  0  0  0  0  0
  -21.8940   -5.1230   22.5770 C   0  0  0  0  0  0  0  0  0  0  0  0
  -22.3720   -4.5220   21.4600 F   0  0  0  0  0  0  0  0  0  0  0  0
  -21.0070   -4.2510   26.0280 F   0  0  0  0  0  0  0  0  0  0  0  0
  -22.9530  -13.7970   21.1060 C   0  0  0  0  0  0  0  0  0  0  0  0
  -22.2540  -13.1140   22.0100 N   0  0  0  0  0  0  0  0  0  0  0  0
  -22.5200  -14.8360   20.6140 O   0  0  0  0  0  0  0  0  0  0  0  0
  -22.6210  -12.2700   22.4240 H   0  0  0  0  0  0  0  0  0  0  0  0
  -21.3380  -13.4380   22.2810 H   0  0  0  0  0  0  0  0  0  0  0  0
  -25.5940  -15.4000   20.1990 N   0  0  0  0  0  0  0  0  0  0  0  0
  -24.8600  -16.0800   20.3640 H   0  0  0  0  0  0  0  0  0  0  0  0
  -26.4350  -15.8140   19.8180 H   0  0  0  0  0  0  0  0  0  0  0  0
  1  5  2  0
  1  4  1  0
  2  6  1  0
  3 56  1  0
  3  6  2  0
  4  2  2  0
  5  3  1  0
  6  8  1  0
  7  5  1  0
  9 10  1  0
 11  9  1  0
 12 14  1  0
 12 10  1  0
 13  4  1  0
 13 11  1  0
 13 12  1  0
 14 15  1  0
 16 27  2  0
 17 15  1  0
 17 22  1  0
 18 26  1  0
 18 28  1  0
 19 25  1  0
 19 21  1  0
 20 26  1  0
 21 22  2  0
 21 20  1  0
 23 17  2  0
 24 23  1  0
 24 19  2  0
 25 18  1  0
 26 16  1  0
 28 30  2  0
 29 28  1  0
 31 29  1  0
 32 41  2  0
 32 37  1  0
 33 29  1  0
 33 37  1  0
 34 33  1  0
 35 36  1  0
 35 34  1  0
 36 32  1  0
 37 38  2  0
 38 39  1  0
 40 39  2  0
 41 40  1  0
 42 16  1  0
 42 47  1  0
 42 43  1  0
 43 46  1  1
 43 44  1  0
 45 43  1  0
 47 50  1  0
 48 52  1  0
 48 47  1  0
 49 48  2  0
 52 51  1  0
 54 52  1  0
 54 55  1  0
 54 53  1  0
 56 66  1  0
 57 66  1  0
 58 63  1  0
 59 60  1  0
 59 58  1  0
 61 60  1  0
 61 70  1  0
 61 62  1  0
 63 57  1  0
 63 62  1  0
 64 57  2  0
 66 65  1  0
 67 68  2  0
 68 87  1  0
 69 68  1  0
 69 72  1  0
 70 71  1  0
 70 67  1  0
 71 69  2  0
 72 73  1  0
 73 74  2  0
 75 78  1  0
 75 74  1  0
 76 75  2  0
 77 76  1  0
 77 72  2  0
 78 79  1  0
 79 84  2  0
 79 80  1  0
 80 81  2  0
 81 82  1  0
 82 86  1  0
 83 82  2  0
 84 83  1  0
 85 84  1  0
 87 88  1  0
 88 91  1  0
 88 90  1  0
 89 87  2  0
 92 93  1  0
 92 67  1  0
 94 92  1  0
M  ISO  4  14 101  15 101  57 100  66 100
M  END
>  <TORSDO>  (40) 
F 19

>  <SCORE>  (40) 
-13.531

>  <name>  (40) 
40

>  <ligand_id>  (40) 
40

>  <original_smiles>  (40) 
[H]c1c([H])c([H])c2c(c1[H])C([H])([H])C([H])([H])C([H])([H])C2([H])N([H])C(=O)C1([H])N(C(=O)C([H])(N([H])C(=O)C([H])(N([H])C([H])([H])[H])C([H])([H])[H])C(C([H])([H])[H])(C([H])([H])[H])C([H])([H])[H])C([H])([H])c2c([H])c(OC([H])([H])C3([H])N(c4c([H])c(F)c(C([H])([H])N(C(=O)N5C([H])([H])C([H])([H])C([H])([H])C([H])(n6nc(-c7c([H])c([H])c(Oc8c([H])c([H])c(F)c([H])c8F)c([H])c7[H])c(C(=O)N([H])[H])c6N([H])[H])C5([H])[H])C([H])([H])[H])c(F)c4[H])C([H])([H])C([H])([H])C3([H])[H])c([H])c([H])c2C1([H])[H]

>  <smiles>  (40) 
[H]c1c([H])c([H])c2c(c1[H])C([H])([H])C([H])([H])C([H])([H])C2([H])N([H])C(=O)C1([H])N(C(=O)C([H])(N([H])C(=O)C([H])(N([H])C([H])([H])[H])C([H])([H])[H])C(C([H])([H])[H])(C([H])([H])[H])C([H])([H])[H])C([H])([H])c2c([H])c(OC([H])([H])C3([H])N(c4c([H])c(F)c(C([H])([H])N(C(=O)N5C([H])([H])C([H])([H])C([H])([H])C([H])(n6nc(-c7c([H])c([H])c(Oc8c([H])c([H])c(F)c([H])c8F)c([H])c7[H])c(C(=O)N([H])[H])c6N([H])[H])C5([H])[H])C([H])([H])[H])c(F)c4[H])C([H])([H])C([H])([H])C3([H])[H])c([H])c([H])c2C1([H])[H]

$$$$
41:0:0
     RDKit          3D

 93101  0  0  1  0  0  0  0  0999 V2000
  -28.4070  -18.5410   20.1900 C   0  0  0  0  0  3  0  0  0  0  0  0
  -28.2140  -19.9350   20.2330 C   0  0  0  0  0  3  0  0  0  0  0  0
  -30.2550  -20.1680   21.5160 C   0  0  0  0  0  3  0  0  0  0  0  0
  -29.5500  -17.9370   20.7670 C   0  0  0  0  0  0  0  0  0  0  0  0
  -30.5020  -18.7730   21.4080 C   0  0  0  0  0  0  0  0  0  0  0  0
  -29.1210  -20.7690   20.9190 C   0  0  0  0  0  0  0  0  0  0  0  0
  -31.7940  -18.2010   21.9820 C   0  0  0  0  0  1  0  0  0  0  0  0
  -27.9650  -22.3170   22.2460 C   0  0  0  0  0  1  0  0  0  0  0  0
  -28.8610  -22.1470   21.1020 N   0  0  0  0  0  0  0  0  0  0  0  0
  -28.5480  -22.9260   19.8860 C   0  0  0  0  0  2  0  0  0  0  0  0
  -28.3510  -24.4560   20.1290 C   0  0  0  0  0  2  0  0  0  0  0  0
  -28.4560  -25.3410   18.8500 C   0  0  0  0  0  2  0  0  0  0  0  0
  -28.4070  -26.7670   19.0970 O   0  0  0  0  0  0  0  0  0  0  0  0
  -24.5990  -31.4930   22.8460 C   0  0  0  0  0  0  0  0  0  0  0  0
  -27.1960  -27.4280   19.2180 C   0  0  0  0  0  0  0  0  0  0  0  0
  -23.3440  -30.1950   21.1570 C   0  0  0  0  0  3  0  0  0  0  0  0
  -24.7530  -28.8460   19.5200 C   0  0  0  0  0  0  0  0  0  0  0  0
  -25.8440  -30.6690   20.8460 C   0  0  0  0  0  2  0  0  0  0  0  0
  -25.9330  -29.3660   20.0660 C   0  0  0  0  0  0  0  0  0  0  0  0
  -27.1530  -28.6710   19.8990 C   0  0  0  0  0  3  0  0  0  0  0  0
  -25.9870  -26.9190   18.6880 C   0  0  0  0  0  3  0  0  0  0  0  0
  -24.7770  -27.6210   18.8320 C   0  0  0  0  0  3  0  0  0  0  0  0
  -23.4900  -29.6520   19.7140 C   0  0  0  0  0  2  0  0  0  0  0  0
  -24.6150  -30.7990   21.6720 N   0  0  0  0  0  0  0  0  0  0  0  0
  -23.5450  -31.6710   23.4720 O   0  0  0  0  0  0  0  0  0  0  0  0
  -22.7910  -29.0640   22.0560 C   0  0  0  0  0  0  0  0  0  0  0  0
  -21.4750  -28.8080   21.9630 N   0  0  0  0  0  0  0  0  0  0  0  0
  -23.5410  -28.4200   22.7940 O   0  0  0  0  0  0  0  0  0  0  0  0
  -20.9230  -29.3750   21.3340 H   0  0  0  0  0  0  0  0  0  0  0  0
  -18.2190  -27.3210   22.4480 C   0  0  0  0  0  0  0  0  0  0  0  0
  -20.7530  -27.7660   22.6920 C   0  0  0  0  0  3  0  0  0  0  0  0
  -20.9570  -26.3860   22.0290 C   0  0  0  0  0  2  0  0  0  0  0  0
  -19.8630  -26.0370   21.0150 C   0  0  0  0  0  2  0  0  0  0  0  0
  -18.4870  -26.0340   21.6880 C   0  0  0  0  0  2  0  0  0  0  0  0
  -19.2820  -28.1430   22.9050 C   0  0  0  0  0  0  0  0  0  0  0  0
  -18.9780  -29.3460   23.5760 C   0  0  0  0  0  3  0  0  0  0  0  0
  -17.6410  -29.7310   23.7950 C   0  0  0  0  0  3  0  0  0  0  0  0
  -16.5920  -28.9090   23.3510 C   0  0  0  0  0  3  0  0  0  0  0  0
  -16.8820  -27.7060   22.6830 C   0  0  0  0  0  3  0  0  0  0  0  0
  -25.8970  -32.1210   23.4380 C   0  0  0  0  0  3  0  0  0  0  0  0
  -25.5500  -33.4580   23.9390 N   0  0  0  0  0  0  0  0  0  0  0  0
  -25.8060  -34.6030   23.2920 C   0  0  0  0  0  0  0  0  0  0  0  0
  -26.4350  -34.6450   22.2290 O   0  0  0  0  0  0  0  0  0  0  0  0
  -24.9850  -33.4920   24.7770 H   0  0  0  0  0  0  0  0  0  0  0  0
  -24.0000  -36.3490   23.2060 C   0  0  0  0  0  1  0  0  0  0  0  0
  -25.2860  -35.9090   23.9230 C   0  0  0  0  0  3  0  0  0  0  0  0
  -27.4130  -36.7810   24.7750 C   0  0  0  0  0  1  0  0  0  0  0  0
  -26.2720  -37.0100   23.8960 N   0  0  0  0  0  0  0  0  0  0  0  0
  -25.8380  -37.8900   24.1620 H   0  0  0  0  0  0  0  0  0  0  0  0
  -26.5420  -31.2490   24.5860 C   0  0  1  0  0  0  0  0  0  0  0  0
  -25.5490  -30.8530   25.7050 C   0  0  0  0  0  1  0  0  0  0  0  0
  -27.1520  -29.9460   24.0150 C   0  0  0  0  0  1  0  0  0  0  0  0
  -27.7090  -32.0280   25.2400 C   0  0  0  0  0  1  0  0  0  0  0  0
  -29.6740  -16.3970   20.7650 C   0  0  0  0  0  2  0  0  0  0  0  0
  -31.1930  -14.6050   19.9080 C   0  0  0  0  0  0  0  0  0  0  0  0
  -30.7510  -12.3880   18.9510 C   0  0  0  0  0  2  0  0  0  0  0  0
  -29.7780  -12.5300   17.7650 C   0  0  0  0  0  2  0  0  0  0  0  0
  -28.3170  -12.4610   18.2430 C   0  0  0  0  0  2  0  0  0  0  0  0
  -28.0390  -13.3910   19.4540 C   0  0  0  0  0  3  0  0  0  0  0  0
  -29.1320  -13.2370   20.5390 C   0  0  0  0  0  2  0  0  0  0  0  0
  -30.4390  -13.4680   19.9000 N   0  0  0  0  0  0  0  0  0  0  0  0
  -32.3740  -14.5860   19.5510 O   0  0  0  0  0  0  0  0  0  0  0  0
  -30.5010  -15.7650   19.7160 N   0  0  0  0  0  0  0  0  0  0  0  0
  -25.7240  -14.1220   20.2980 C   0  0  0  0  0  0  0  0  0  0  0  0
  -24.6260  -13.4030   20.6950 C   0  0  0  0  0  0  0  0  0  0  0  0
  -24.9990  -12.0290   20.6000 C   0  0  0  0  0  0  0  0  0  0  0  0
  -26.6990  -13.1830   19.9920 N   0  0  0  0  0  0  0  0  0  0  0  0
  -26.2690  -11.9200   20.2330 N   0  0  0  0  0  0  0  0  0  0  0  0
  -24.2020  -10.8070   20.7780 C   0  0  0  0  0  0  0  0  0  0  0  0
  -24.6020   -9.7910   21.6710 C   0  0  0  0  0  3  0  0  0  0  0  0
  -23.8090   -8.6360   21.8420 C   0  0  0  0  0  3  0  0  0  0  0  0
  -22.6020   -8.4900   21.1160 C   0  0  0  0  0  0  0  0  0  0  0  0
  -22.2230   -9.4940   20.2100 C   0  0  0  0  0  3  0  0  0  0  0  0
  -23.0160  -10.6410   20.0380 C   0  0  0  0  0  3  0  0  0  0  0  0
  -21.7820   -7.3920   21.1970 O   0  0  0  0  0  0  0  0  0  0  0  0
  -21.7060   -6.6350   22.3380 C   0  0  0  0  0  0  0  0  0  0  0  0
  -21.3360   -7.1930   23.5810 C   0  0  0  0  0  3  0  0  0  0  0  0
  -21.2040   -6.3650   24.7130 C   0  0  0  0  0  3  0  0  0  0  0  0
  -21.4320   -4.9800   24.6040 C   0  0  0  0  0  0  0  0  0  0  0  0
  -21.7980   -4.4220   23.3660 C   0  0  0  0  0  3  0  0  0  0  0  0
  -21.9330   -5.2470   22.2360 C   0  0  0  0  0  0  0  0  0  0  0  0
  -22.2650   -4.7030   21.0420 F   0  0  0  0  0  0  0  0  0  0  0  0
  -21.2990   -4.1810   25.6890 F   0  0  0  0  0  0  0  0  0  0  0  0
  -23.2770  -13.9580   21.0460 C   0  0  0  0  0  0  0  0  0  0  0  0
  -22.5560  -13.2820   21.9350 N   0  0  0  0  0  0  0  0  0  0  0  0
  -22.8740  -15.0180   20.5710 O   0  0  0  0  0  0  0  0  0  0  0  0
  -22.9000  -12.4190   22.3280 H   0  0  0  0  0  0  0  0  0  0  0  0
  -21.6500  -13.6270   22.2200 H   0  0  0  0  0  0  0  0  0  0  0  0
  -25.9680  -15.4820   20.1550 N   0  0  0  0  0  0  0  0  0  0  0  0
  -25.2490  -16.1770   20.3170 H   0  0  0  0  0  0  0  0  0  0  0  0
  -26.8170  -15.8680   19.7610 H   0  0  0  0  0  0  0  0  0  0  0  0
  -31.9540  -17.4030   18.3950 C   0  0  0  0  0  1  0  0  0  0  0  0
  -30.7050  -16.5010   18.4470 C   0  0  0  0  0  2  0  0  0  0  0  0
  1  2  2  0
  1  4  1  0
  2  6  1  0
  4  5  2  0
  5  3  1  0
  5  7  1  0
  6  9  1  0
  6  3  2  0
  9  8  1  0
 10 11  1  0
 10  9  1  0
 12 13  1  0
 12 11  1  0
 13 15  1  0
 14 25  2  0
 15 20  1  0
 16 24  1  0
 16 26  1  0
 17 23  1  0
 17 19  1  0
 18 24  1  0
 19 18  1  0
 20 19  2  0
 21 22  1  0
 21 15  2  0
 22 17  2  0
 23 16  1  0
 24 14  1  0
 26 28  2  0
 27 26  1  0
 29 27  1  0
 30 39  2  0
 30 35  1  0
 31 27  1  0
 31 35  1  0
 32 31  1  0
 33 34  1  0
 33 32  1  0
 34 30  1  0
 35 36  2  0
 36 37  1  0
 38 37  2  0
 39 38  1  0
 40 14  1  0
 40 41  1  0
 40 50  1  0
 41 44  1  0
 42 46  1  0
 42 41  1  0
 43 42  2  0
 46 45  1  0
 48 46  1  0
 48 49  1  0
 48 47  1  0
 50 53  1  1
 50 51  1  0
 52 50  1  0
 54  4  1  0
 56 61  1  0
 57 58  1  0
 57 56  1  0
 59 58  1  0
 59 67  1  0
 59 60  1  0
 61 55  1  0
 61 60  1  0
 62 55  2  0
 63 55  1  0
 63 54  1  0
 64 65  2  0
 65 84  1  0
 66 65  1  0
 66 69  1  0
 67 68  1  0
 67 64  1  0
 68 66  2  0
 69 70  1  0
 70 71  2  0
 72 75  1  0
 72 71  1  0
 73 72  2  0
 74 73  1  0
 74 69  2  0
 75 76  1  0
 76 77  1  0
 77 78  2  0
 79 78  1  0
 79 83  1  0
 80 79  2  0
 81 76  2  0
 81 80  1  0
 82 81  1  0
 84 85  1  0
 85 88  1  0
 85 87  1  0
 86 84  2  0
 89 64  1  0
 89 90  1  0
 91 89  1  0
 92 93  1  0
 93 63  1  0
M  ISO  4  12 101  13 101  55 100  63 100
M  END
>  <TORSDO>  (41) 
F 22

>  <SCORE>  (41) 
-11.406

>  <name>  (41) 
41

>  <ligand_id>  (41) 
41

>  <original_smiles>  (41) 
[H]c1c([H])c([H])c2c(c1[H])C([H])([H])C([H])([H])C([H])([H])C2([H])N([H])C(=O)C1([H])N(C(=O)C([H])(N([H])C(=O)C([H])(N([H])C([H])([H])[H])C([H])([H])[H])C(C([H])([H])[H])(C([H])([H])[H])C([H])([H])[H])C([H])([H])c2c([H])c(OC([H])([H])C([H])([H])C([H])([H])N(c3c([H])c([H])c(C([H])([H])N(C(=O)N4C([H])([H])C([H])([H])C([H])([H])C([H])(n5nc(-c6c([H])c([H])c(Oc7c([H])c([H])c(F)c([H])c7F)c([H])c6[H])c(C(=O)N([H])[H])c5N([H])[H])C4([H])[H])C([H])([H])C([H])([H])[H])c(C([H])([H])[H])c3[H])C([H])([H])[H])c([H])c([H])c2C1([H])[H]

>  <smiles>  (41) 
[H]c1c([H])c([H])c2c(c1[H])C([H])([H])C([H])([H])C([H])([H])C2([H])N([H])C(=O)C1([H])N(C(=O)C([H])(N([H])C(=O)C([H])(N([H])C([H])([H])[H])C([H])([H])[H])C(C([H])([H])[H])(C([H])([H])[H])C([H])([H])[H])C([H])([H])c2c([H])c(OC([H])([H])C([H])([H])C([H])([H])N(c3c([H])c([H])c(C([H])([H])N(C(=O)N4C([H])([H])C([H])([H])C([H])([H])C([H])(n5nc(-c6c([H])c([H])c(Oc7c([H])c([H])c(F)c([H])c7F)c([H])c6[H])c(C(=O)N([H])[H])c5N([H])[H])C4([H])[H])C([H])([H])C([H])([H])[H])c(C([H])([H])[H])c3[H])C([H])([H])[H])c([H])c([H])c2C1([H])[H]

$$$$
42:0:0
     RDKit          3D

 96105  0  0  1  0  0  0  0  0999 V2000
  -31.2820  -18.9470   22.3180 C   0  0  0  0  0  3  0  0  0  0  0  0
  -31.0900  -17.6630   21.7750 C   0  0  0  0  0  3  0  0  0  0  0  0
  -30.5700  -20.0800   21.8550 C   0  0  0  0  0  0  0  0  0  0  0  0
  -30.1610  -17.4310   20.7410 C   0  0  0  0  0  0  0  0  0  0  0  0
  -29.6780  -19.9630   20.7500 C   0  0  0  0  0  0  0  0  0  0  0  0
  -29.4680  -18.6110   20.2220 C   0  0  0  0  0  0  0  0  0  0  0  0
  -28.5420  -18.4240   19.2510 F   0  0  0  0  0  0  0  0  0  0  0  0
  -30.6630  -14.8800   20.3550 C   0  0  0  0  0  0  0  0  0  0  0  0
  -30.4820  -12.5400   19.4610 C   0  0  0  0  0  2  0  0  0  0  0  0
  -29.5560  -12.5180   18.2240 C   0  0  0  0  0  2  0  0  0  0  0  0
  -28.0790  -12.3790   18.6490 C   0  0  0  0  0  2  0  0  0  0  0  0
  -27.6910  -13.3550   19.7920 C   0  0  0  0  0  3  0  0  0  0  0  0
  -28.7350  -13.3420   20.9280 C   0  0  0  0  0  2  0  0  0  0  0  0
  -30.0340  -13.6570   20.3230 N   0  0  0  0  0  0  0  0  0  0  0  0
  -31.8670  -14.9550   20.0930 O   0  0  0  0  0  0  0  0  0  0  0  0
  -29.8660  -16.0170   20.3780 N   0  0  0  0  0  0  0  0  0  0  0  0
  -28.8920  -15.8300   20.2040 H   0  0  0  0  0  0  0  0  0  0  0  0
  -25.3280  -14.0230   20.5310 C   0  0  0  0  0  0  0  0  0  0  0  0
  -24.2400  -13.2810   20.9050 C   0  0  0  0  0  0  0  0  0  0  0  0
  -24.6630  -11.9170   20.8800 C   0  0  0  0  0  0  0  0  0  0  0  0
  -26.3430  -13.1100   20.2910 N   0  0  0  0  0  0  0  0  0  0  0  0
  -25.9520  -11.8390   20.5670 N   0  0  0  0  0  0  0  0  0  0  0  0
  -23.9010  -10.6760   21.0730 C   0  0  0  0  0  0  0  0  0  0  0  0
  -24.3150   -9.6940   22.0000 C   0  0  0  0  0  3  0  0  0  0  0  0
  -23.5540   -8.5190   22.1840 C   0  0  0  0  0  3  0  0  0  0  0  0
  -22.3670   -8.3180   21.4410 C   0  0  0  0  0  0  0  0  0  0  0  0
  -21.9730   -9.2890   20.5050 C   0  0  0  0  0  3  0  0  0  0  0  0
  -22.7320  -10.4550   20.3170 C   0  0  0  0  0  3  0  0  0  0  0  0
  -21.5790   -7.1960   21.5340 O   0  0  0  0  0  0  0  0  0  0  0  0
  -21.5390   -6.4390   22.6780 C   0  0  0  0  0  0  0  0  0  0  0  0
  -21.1450   -6.9840   23.9190 C   0  0  0  0  0  3  0  0  0  0  0  0
  -21.0480   -6.1560   25.0550 C   0  0  0  0  0  3  0  0  0  0  0  0
  -21.3360   -4.7810   24.9520 C   0  0  0  0  0  0  0  0  0  0  0  0
  -21.7200   -4.2330   23.7150 C   0  0  0  0  0  3  0  0  0  0  0  0
  -21.8180   -5.0610   22.5810 C   0  0  0  0  0  0  0  0  0  0  0  0
  -22.1700   -4.5260   21.3880 F   0  0  0  0  0  0  0  0  0  0  0  0
  -21.2360   -3.9820   26.0390 F   0  0  0  0  0  0  0  0  0  0  0  0
  -22.8580  -13.7980   21.1710 C   0  0  0  0  0  0  0  0  0  0  0  0
  -22.1120  -13.1320   22.0450 N   0  0  0  0  0  0  0  0  0  0  0  0
  -22.4480  -14.8300   20.6400 O   0  0  0  0  0  0  0  0  0  0  0  0
  -22.4550  -12.2970   22.4970 H   0  0  0  0  0  0  0  0  0  0  0  0
  -21.1790  -13.4570   22.2620 H   0  0  0  0  0  0  0  0  0  0  0  0
  -25.5320  -15.3880   20.3470 N   0  0  0  0  0  0  0  0  0  0  0  0
  -24.7810  -16.0590   20.4630 H   0  0  0  0  0  0  0  0  0  0  0  0
  -26.3740  -15.8050   19.9720 H   0  0  0  0  0  0  0  0  0  0  0  0
  -30.2010  -21.1820   24.8860 C   0  0  0  0  0  2  0  0  0  0  0  0
  -31.7020  -21.4230   24.7190 C   0  0  0  0  0  2  0  0  0  0  0  0
  -29.5930  -21.5350   23.5280 C   0  0  0  0  0  2  0  0  0  0  0  0
  -31.9100  -21.6610   23.2150 C   0  0  0  0  0  2  0  0  0  0  0  0
  -30.6540  -21.3200   22.5450 N   0  0  0  0  0  0  0  0  0  0  0  0
  -28.9160  -21.1710   20.4620 N   0  0  0  0  0  0  0  0  0  0  0  0
  -28.8880  -21.5640   21.4030 H   0  0  0  0  0  0  0  0  0  0  0  0
  -29.2800  -22.3610   19.6040 C   0  0  0  0  0  2  0  0  0  0  0  0
  -29.0850  -23.8530   20.2350 C   0  0  0  0  0  3  0  0  0  0  0  0
  -28.5310  -25.0840   19.3320 C   0  0  0  0  0  3  0  0  0  0  0  0
  -28.5840  -26.5320   19.7680 O   0  0  0  0  0  0  0  0  0  0  0  0
  -24.6690  -31.6800   23.0510 C   0  0  0  0  0  0  0  0  0  0  0  0
  -27.4540  -27.3900   19.7130 C   0  0  0  0  0  0  0  0  0  0  0  0
  -23.5310  -30.3550   21.3090 C   0  0  0  0  0  3  0  0  0  0  0  0
  -25.0480  -28.9720   19.7810 C   0  0  0  0  0  0  0  0  0  0  0  0
  -26.0630  -30.7650   21.1760 C   0  0  0  0  0  2  0  0  0  0  0  0
  -26.1940  -29.4340   20.4370 C   0  0  0  0  0  0  0  0  0  0  0  0
  -27.3950  -28.6510   20.4000 C   0  0  0  0  0  3  0  0  0  0  0  0
  -26.2880  -27.0210   19.0000 C   0  0  0  0  0  3  0  0  0  0  0  0
  -25.1010  -27.7760   19.0500 C   0  0  0  0  0  3  0  0  0  0  0  0
  -23.7810  -29.8000   19.8820 C   0  0  0  0  0  2  0  0  0  0  0  0
  -24.7740  -30.9490   21.9010 N   0  0  0  0  0  0  0  0  0  0  0  0
  -23.5740  -31.8800   23.5930 O   0  0  0  0  0  0  0  0  0  0  0  0
  -22.9020  -29.2470   22.1870 C   0  0  0  0  0  0  0  0  0  0  0  0
  -21.5740  -29.0670   22.0810 N   0  0  0  0  0  0  0  0  0  0  0  0
  -23.6090  -28.5550   22.9260 O   0  0  0  0  0  0  0  0  0  0  0  0
  -21.0620  -29.6830   21.4600 H   0  0  0  0  0  0  0  0  0  0  0  0
  -18.2120  -27.8360   22.6040 C   0  0  0  0  0  0  0  0  0  0  0  0
  -20.7820  -28.0580   22.7890 C   0  0  0  0  0  3  0  0  0  0  0  0
  -20.8490  -26.6940   22.0630 C   0  0  0  0  0  2  0  0  0  0  0  0
  -19.7010  -26.4840   21.0700 C   0  0  0  0  0  2  0  0  0  0  0  0
  -18.3470  -26.5630   21.7840 C   0  0  0  0  0  2  0  0  0  0  0  0
  -19.3530  -28.5470   23.0620 C   0  0  0  0  0  0  0  0  0  0  0  0
  -19.1690  -29.7390   23.7910 C   0  0  0  0  0  3  0  0  0  0  0  0
  -17.8760  -30.2200   24.0740 C   0  0  0  0  0  3  0  0  0  0  0  0
  -16.7490  -29.5040   23.6350 C   0  0  0  0  0  3  0  0  0  0  0  0
  -16.9180  -28.3170   22.9010 C   0  0  0  0  0  3  0  0  0  0  0  0
  -25.9190  -32.3190   23.7260 C   0  0  0  0  0  3  0  0  0  0  0  0
  -25.5550  -33.6840   24.1380 N   0  0  0  0  0  0  0  0  0  0  0  0
  -25.8700  -34.7960   23.4600 C   0  0  0  0  0  0  0  0  0  0  0  0
  -26.5670  -34.7800   22.4410 O   0  0  0  0  0  0  0  0  0  0  0  0
  -24.9300  -33.7660   24.9270 H   0  0  0  0  0  0  0  0  0  0  0  0
  -24.0910  -36.5540   23.1840 C   0  0  0  0  0  1  0  0  0  0  0  0
  -25.3290  -36.1360   23.9940 C   0  0  0  0  0  3  0  0  0  0  0  0
  -27.4150  -37.0350   24.9250 C   0  0  0  0  0  1  0  0  0  0  0  0
  -26.3290  -37.2290   23.9670 N   0  0  0  0  0  0  0  0  0  0  0  0
  -25.8920  -38.1250   24.1600 H   0  0  0  0  0  0  0  0  0  0  0  0
  -26.4430  -31.4910   24.9630 C   0  0  1  0  0  0  0  0  0  0  0  0
  -25.3470  -31.1670   26.0060 C   0  0  0  0  0  1  0  0  0  0  0  0
  -27.0700  -30.1560   24.5010 C   0  0  0  0  0  1  0  0  0  0  0  0
  -27.5710  -32.2760   25.6770 C   0  0  0  0  0  1  0  0  0  0  0  0
  2  1  2  0
  3  1  1  0
  3 50  1  0
  4  2  1  0
  5  3  2  0
  6  4  2  0
  6  5  1  0
  7  6  1  0
  8 16  1  0
  9 14  1  0
 10 11  1  0
 10  9  1  0
 12 11  1  0
 12 21  1  0
 12 13  1  0
 14  8  1  0
 14 13  1  0
 15  8  2  0
 16  4  1  0
 17 16  1  0
 18 19  2  0
 19 38  1  0
 20 19  1  0
 20 23  1  0
 21 18  1  0
 21 22  1  0
 22 20  2  0
 23 24  1  0
 24 25  2  0
 26 29  1  0
 26 25  1  0
 27 26  2  0
 28 27  1  0
 28 23  2  0
 29 30  1  0
 30 31  1  0
 31 32  2  0
 33 32  1  0
 33 37  1  0
 34 33  2  0
 35 30  2  0
 35 34  1  0
 36 35  1  0
 38 39  1  0
 39 42  1  0
 39 41  1  0
 40 38  2  0
 43 44  1  0
 43 18  1  0
 45 43  1  0
 47 46  1  0
 48 46  1  0
 49 47  1  0
 50 49  1  0
 50 48  1  0
 51  5  1  0
 51 52  1  0
 53 54  1  0
 53 51  1  0
 55 56  1  0
 55 54  2  0
 57 68  2  0
 58 56  1  0
 58 63  1  0
 59 67  1  0
 59 69  1  0
 60 66  1  0
 60 62  1  0
 61 67  1  0
 62 61  1  0
 63 62  2  0
 64 65  1  0
 64 58  2  0
 65 60  2  0
 66 59  1  0
 67 57  1  0
 69 71  2  0
 70 69  1  0
 72 70  1  0
 73 82  2  0
 73 78  1  0
 74 70  1  0
 74 78  1  0
 75 74  1  0
 76 77  1  0
 76 75  1  0
 77 73  1  0
 78 79  2  0
 79 80  1  0
 81 80  2  0
 82 81  1  0
 83 57  1  0
 83 84  1  0
 83 93  1  0
 84 87  1  0
 85 89  1  0
 85 84  1  0
 86 85  2  0
 89 88  1  0
 91 89  1  0
 91 92  1  0
 91 90  1  0
 93 96  1  1
 93 94  1  0
 95 93  1  0
M  ISO  4   8 100  16 100  55 101  56 101
M  END
>  <TORSDO>  (42) 
F 21

>  <SCORE>  (42) 
-13.078

>  <name>  (42) 
42

>  <ligand_id>  (42) 
42

>  <original_smiles>  (42) 
[H]c1c([H])c([H])c2c(c1[H])C([H])([H])C([H])([H])C([H])([H])C2([H])N([H])C(=O)C1([H])N(C(=O)C([H])(N([H])C(=O)C([H])(N([H])C([H])([H])[H])C([H])([H])[H])C(C([H])([H])[H])(C([H])([H])[H])C([H])([H])[H])C([H])([H])c2c([H])c(OC([H])([H])C([H])([H])C([H])([H])N([H])c3c(F)c(N([H])C(=O)N4C([H])([H])C([H])([H])C([H])([H])C([H])(n5nc(-c6c([H])c([H])c(Oc7c([H])c([H])c(F)c([H])c7F)c([H])c6[H])c(C(=O)N([H])[H])c5N([H])[H])C4([H])[H])c([H])c([H])c3N3C([H])([H])C([H])([H])C([H])([H])C3([H])[H])c([H])c([H])c2C1([H])[H]

>  <smiles>  (42) 
[H]c1c([H])c([H])c2c(c1[H])C([H])([H])C([H])([H])C([H])([H])C2([H])N([H])C(=O)C1([H])N(C(=O)C([H])(N([H])C(=O)C([H])(N([H])C([H])([H])[H])C([H])([H])[H])C(C([H])([H])[H])(C([H])([H])[H])C([H])([H])[H])C([H])([H])c2c([H])c(OC([H])([H])C([H])([H])C([H])([H])N([H])c3c(F)c(N([H])C(=O)N4C([H])([H])C([H])([H])C([H])([H])C([H])(n5nc(-c6c([H])c([H])c(Oc7c([H])c([H])c(F)c([H])c7F)c([H])c6[H])c(C(=O)N([H])[H])c5N([H])[H])C4([H])[H])c([H])c([H])c3N3C([H])([H])C([H])([H])C([H])([H])C3([H])[H])c([H])c([H])c2C1([H])[H]

$$$$
43:0:0
     RDKit          3D

 96105  0  0  1  0  0  0  0  0999 V2000
  -30.9500  -21.3570   21.5540 C   0  0  0  0  0  2  0  0  0  0  0  0
  -31.7360  -18.9340   21.4940 C   0  0  0  0  0  3  0  0  0  0  0  0
  -31.5430  -17.5440   21.3400 C   0  0  0  0  0  3  0  0  0  0  0  0
  -30.7010  -19.8620   21.2310 C   0  0  0  0  0  0  0  0  0  0  0  0
  -29.4520  -19.3630   20.7770 C   0  0  0  0  0  0  0  0  0  0  0  0
  -29.2700  -17.9560   20.5790 C   0  0  0  0  0  0  0  0  0  0  0  0
  -30.3080  -17.0250   20.8910 C   0  0  0  0  0  0  0  0  0  0  0  0
  -28.3160  -20.3590   20.5210 C   0  0  0  0  0  1  0  0  0  0  0  0
  -30.7500  -14.5970   20.2370 C   0  0  0  0  0  0  0  0  0  0  0  0
  -30.3920  -12.4600   19.0380 C   0  0  0  0  0  2  0  0  0  0  0  0
  -29.3980  -12.6890   17.8810 C   0  0  0  0  0  2  0  0  0  0  0  0
  -27.9430  -12.5400   18.3680 C   0  0  0  0  0  2  0  0  0  0  0  0
  -27.6590  -13.3460   19.6630 C   0  0  0  0  0  3  0  0  0  0  0  0
  -28.7630  -13.1010   20.7190 C   0  0  0  0  0  2  0  0  0  0  0  0
  -30.0650  -13.4230   20.1040 N   0  0  0  0  0  0  0  0  0  0  0  0
  -31.8650  -14.7700   19.7370 O   0  0  0  0  0  0  0  0  0  0  0  0
  -30.0550  -15.6030   20.8190 N   0  0  0  0  0  0  0  0  0  0  0  0
  -29.1340  -15.3200   21.1110 H   0  0  0  0  0  0  0  0  0  0  0  0
  -25.2840  -13.9370   20.4750 C   0  0  0  0  0  0  0  0  0  0  0  0
  -24.2320  -13.1630   20.8770 C   0  0  0  0  0  0  0  0  0  0  0  0
  -24.6900  -11.8140   20.8000 C   0  0  0  0  0  0  0  0  0  0  0  0
  -26.3230  -13.0640   20.1900 N   0  0  0  0  0  0  0  0  0  0  0  0
  -25.9680  -11.7780   20.4420 N   0  0  0  0  0  0  0  0  0  0  0  0
  -23.9640  -10.5530   20.9900 C   0  0  0  0  0  0  0  0  0  0  0  0
  -24.4110   -9.5760   21.9040 C   0  0  0  0  0  3  0  0  0  0  0  0
  -23.6850   -8.3810   22.0840 C   0  0  0  0  0  3  0  0  0  0  0  0
  -22.4970   -8.1550   21.3490 C   0  0  0  0  0  0  0  0  0  0  0  0
  -22.0670   -9.1220   20.4230 C   0  0  0  0  0  3  0  0  0  0  0  0
  -22.7960  -10.3100   20.2410 C   0  0  0  0  0  3  0  0  0  0  0  0
  -21.7400   -7.0110   21.4400 O   0  0  0  0  0  0  0  0  0  0  0  0
  -21.6950   -6.2680   22.5920 C   0  0  0  0  0  0  0  0  0  0  0  0
  -21.2680   -6.8210   23.8190 C   0  0  0  0  0  3  0  0  0  0  0  0
  -21.1700   -6.0040   24.9620 C   0  0  0  0  0  3  0  0  0  0  0  0
  -21.4910   -4.6360   24.8800 C   0  0  0  0  0  0  0  0  0  0  0  0
  -21.9120   -4.0830   23.6590 C   0  0  0  0  0  3  0  0  0  0  0  0
  -22.0120   -4.8970   22.5170 C   0  0  0  0  0  0  0  0  0  0  0  0
  -22.3980   -4.3550   21.3370 F   0  0  0  0  0  0  0  0  0  0  0  0
  -21.3890   -3.8480   25.9770 F   0  0  0  0  0  0  0  0  0  0  0  0
  -22.8500  -13.6440   21.2120 C   0  0  0  0  0  0  0  0  0  0  0  0
  -22.1530  -12.9390   22.0950 N   0  0  0  0  0  0  0  0  0  0  0  0
  -22.3990  -14.6820   20.7290 O   0  0  0  0  0  0  0  0  0  0  0  0
  -22.5310  -12.0990   22.5090 H   0  0  0  0  0  0  0  0  0  0  0  0
  -21.2280  -13.2430   22.3620 H   0  0  0  0  0  0  0  0  0  0  0  0
  -25.4190  -15.3050   20.3060 N   0  0  0  0  0  0  0  0  0  0  0  0
  -24.6310  -15.9310   20.4310 H   0  0  0  0  0  0  0  0  0  0  0  0
  -26.2080  -15.7470   19.8550 H   0  0  0  0  0  0  0  0  0  0  0  0
  -27.9250  -17.6550   18.4560 C   0  0  0  0  0  1  0  0  0  0  0  0
  -27.9630  -17.4460   19.9790 C   0  0  0  0  0  2  0  0  0  0  0  0
  -29.9270  -23.5800   20.9180 C   0  0  0  0  0  0  0  0  0  0  0  0
  -30.1320  -23.5320   18.5550 C   0  0  0  0  0  2  0  0  0  0  0  0
  -30.8280  -22.3170   19.1920 C   0  0  0  0  0  2  0  0  0  0  0  0
  -29.8560  -24.5210   19.7020 C   0  0  0  0  0  3  0  0  0  0  0  0
  -30.4840  -22.3900   20.6020 N   0  0  0  0  0  0  0  0  0  0  0  0
  -29.5550  -23.9200   22.0450 O   0  0  0  0  0  0  0  0  0  0  0  0
  -28.5410  -25.3410   19.5090 C   0  0  0  0  0  2  0  0  0  0  0  0
  -28.5550  -26.7010   20.0060 O   0  0  0  0  0  0  0  0  0  0  0  0
  -24.5900  -31.7540   23.1450 C   0  0  0  0  0  0  0  0  0  0  0  0
  -27.3610  -27.4140   19.9890 C   0  0  0  0  0  0  0  0  0  0  0  0
  -23.4290  -30.3610   21.4660 C   0  0  0  0  0  3  0  0  0  0  0  0
  -24.9280  -28.8900   20.0180 C   0  0  0  0  0  0  0  0  0  0  0  0
  -25.9510  -30.7730   21.2970 C   0  0  0  0  0  2  0  0  0  0  0  0
  -26.0740  -29.4170   20.6270 C   0  0  0  0  0  0  0  0  0  0  0  0
  -27.2890  -28.6880   20.6080 C   0  0  0  0  0  3  0  0  0  0  0  0
  -26.1850  -26.9110   19.3760 C   0  0  0  0  0  3  0  0  0  0  0  0
  -24.9800  -27.6360   19.3920 C   0  0  0  0  0  3  0  0  0  0  0  0
  -23.6650  -29.7200   20.0730 C   0  0  0  0  0  2  0  0  0  0  0  0
  -24.6750  -30.9780   22.0270 N   0  0  0  0  0  0  0  0  0  0  0  0
  -23.4970  -31.9910   23.6810 O   0  0  0  0  0  0  0  0  0  0  0  0
  -22.7940  -29.3030   22.3980 C   0  0  0  0  0  0  0  0  0  0  0  0
  -21.4720  -29.1040   22.2650 N   0  0  0  0  0  0  0  0  0  0  0  0
  -23.4870  -28.6680   23.1960 O   0  0  0  0  0  0  0  0  0  0  0  0
  -20.9720  -29.6710   21.5940 H   0  0  0  0  0  0  0  0  0  0  0  0
  -18.1150  -27.8570   22.7480 C   0  0  0  0  0  0  0  0  0  0  0  0
  -20.6710  -28.1330   23.0110 C   0  0  0  0  0  3  0  0  0  0  0  0
  -20.7850  -26.7220   22.3890 C   0  0  0  0  0  2  0  0  0  0  0  0
  -19.6800  -26.4210   21.3720 C   0  0  0  0  0  2  0  0  0  0  0  0
  -18.3010  -26.5310   22.0290 C   0  0  0  0  0  2  0  0  0  0  0  0
  -19.2280  -28.6160   23.1940 C   0  0  0  0  0  0  0  0  0  0  0  0
  -19.0000  -29.8590   23.8260 C   0  0  0  0  0  3  0  0  0  0  0  0
  -17.6920  -30.3410   24.0160 C   0  0  0  0  0  3  0  0  0  0  0  0
  -16.5930  -29.5780   23.5840 C   0  0  0  0  0  3  0  0  0  0  0  0
  -16.8050  -28.3370   22.9570 C   0  0  0  0  0  3  0  0  0  0  0  0
  -25.8550  -32.4020   23.7880 C   0  0  0  0  0  3  0  0  0  0  0  0
  -26.3790  -31.6210   25.0540 C   0  0  1  0  0  0  0  0  0  0  0  0
  -25.2830  -31.3410   26.1090 C   0  0  0  0  0  1  0  0  0  0  0  0
  -26.9940  -30.2630   24.6410 C   0  0  0  0  0  1  0  0  0  0  0  0
  -27.5070  -32.4270   25.7380 C   0  0  0  0  0  1  0  0  0  0  0  0
  -25.5140  -33.7880   24.1370 N   0  0  0  0  0  0  0  0  0  0  0  0
  -25.8300  -34.8580   23.3960 C   0  0  0  0  0  0  0  0  0  0  0  0
  -26.5090  -34.7850   22.3680 O   0  0  0  0  0  0  0  0  0  0  0  0
  -24.9100  -33.9170   24.9350 H   0  0  0  0  0  0  0  0  0  0  0  0
  -24.0630  -36.6150   23.0550 C   0  0  0  0  0  1  0  0  0  0  0  0
  -25.3080  -36.2280   23.8690 C   0  0  0  0  0  3  0  0  0  0  0  0
  -27.4140  -37.1520   24.7280 C   0  0  0  0  0  1  0  0  0  0  0  0
  -26.3170  -37.3060   23.7770 N   0  0  0  0  0  0  0  0  0  0  0  0
  -25.8880  -38.2150   23.9320 H   0  0  0  0  0  0  0  0  0  0  0  0
  3  2  1  0
  4  2  2  0
  4  1  1  0
  5  4  1  0
  6  5  2  0
  6  7  1  0
  7  3  2  0
  8  5  1  0
  9 17  1  0
 10 15  1  0
 11 12  1  0
 11 10  1  0
 13 12  1  0
 13 22  1  0
 13 14  1  0
 15  9  1  0
 15 14  1  0
 16  9  2  0
 17  7  1  0
 17 18  1  0
 19 20  2  0
 20 39  1  0
 21 20  1  0
 21 24  1  0
 22 23  1  0
 22 19  1  0
 23 21  2  0
 24 25  1  0
 25 26  2  0
 27 30  1  0
 27 26  1  0
 28 27  2  0
 29 28  1  0
 29 24  2  0
 30 31  1  0
 31 32  1  0
 32 33  2  0
 34 33  1  0
 34 38  1  0
 35 34  2  0
 36 31  2  0
 36 35  1  0
 37 36  1  0
 39 40  1  0
 40 43  1  0
 40 42  1  0
 41 39  2  0
 44 45  1  0
 44 19  1  0
 46 44  1  0
 47 48  1  0
 48  6  1  0
 49 54  2  0
 50 51  1  0
 50 52  1  0
 51 53  1  0
 52 55  1  0
 52 49  1  0
 53 49  1  0
 53  1  1  0
 55 56  1  0
 57 68  2  0
 58 56  1  0
 58 63  1  0
 59 67  1  0
 59 69  1  0
 60 66  1  0
 60 62  1  0
 61 67  1  0
 62 61  1  0
 63 62  2  0
 64 65  1  0
 64 58  2  0
 65 60  2  0
 66 59  1  0
 67 57  1  0
 69 71  2  0
 70 69  1  0
 72 70  1  0
 73 82  2  0
 73 78  1  0
 74 70  1  0
 74 78  1  0
 75 74  1  0
 76 77  1  0
 76 75  1  0
 77 73  1  0
 78 79  2  0
 79 80  1  0
 81 80  2  0
 82 81  1  0
 83 57  1  0
 83 88  1  0
 83 84  1  0
 84 87  1  1
 84 85  1  0
 86 84  1  0
 88 91  1  0
 89 93  1  0
 89 88  1  0
 90 89  2  0
 93 92  1  0
 95 93  1  0
 95 96  1  0
 95 94  1  0
M  ISO  4   9 100  17 100  55 101  56 101
M  END
>  <TORSDO>  (43) 
F 20

>  <SCORE>  (43) 
-14.447

>  <name>  (43) 
43

>  <ligand_id>  (43) 
43

>  <original_smiles>  (43) 
[H]c1c([H])c([H])c2c(c1[H])C([H])([H])C([H])([H])C([H])([H])C2([H])N([H])C(=O)C1([H])N(C(=O)C([H])(N([H])C(=O)C([H])(N([H])C([H])([H])[H])C([H])([H])[H])C(C([H])([H])[H])(C([H])([H])[H])C([H])([H])[H])C([H])([H])c2c([H])c(OC([H])([H])C3([H])C(=O)N(C([H])([H])c4c([H])c([H])c(N([H])C(=O)N5C([H])([H])C([H])([H])C([H])([H])C([H])(n6nc(-c7c([H])c([H])c(Oc8c([H])c([H])c(F)c([H])c8F)c([H])c7[H])c(C(=O)N([H])[H])c6N([H])[H])C5([H])[H])c(C([H])([H])C([H])([H])[H])c4C([H])([H])[H])C([H])([H])C3([H])[H])c([H])c([H])c2C1([H])[H]

>  <smiles>  (43) 
[H]c1c([H])c([H])c2c(c1[H])C([H])([H])C([H])([H])C([H])([H])C2([H])N([H])C(=O)C1([H])N(C(=O)C([H])(N([H])C(=O)C([H])(N([H])C([H])([H])[H])C([H])([H])[H])C(C([H])([H])[H])(C([H])([H])[H])C([H])([H])[H])C([H])([H])c2c([H])c(OC([H])([H])C3([H])C(=O)N(C([H])([H])c4c([H])c([H])c(N([H])C(=O)N5C([H])([H])C([H])([H])C([H])([H])C([H])(n6nc(-c7c([H])c([H])c(Oc8c([H])c([H])c(F)c([H])c8F)c([H])c7[H])c(C(=O)N([H])[H])c6N([H])[H])C5([H])[H])c(C([H])([H])C([H])([H])[H])c4C([H])([H])[H])C([H])([H])C3([H])[H])c([H])c([H])c2C1([H])[H]

$$$$
44:0:0
     RDKit          3D

 97106  0  0  1  0  0  0  0  0999 V2000
  -29.4000  -19.9800   19.4780 C   0  0  0  0  0  3  0  0  0  0  0  0
  -31.5260  -18.7900   19.6670 C   0  0  0  0  0  3  0  0  0  0  0  0
  -31.4230  -21.2070   20.0090 C   0  0  0  0  0  3  0  0  0  0  0  0
  -30.1350  -18.7320   19.4670 C   0  0  0  0  0  0  0  0  0  0  0  0
  -30.0290  -21.2530   19.7510 C   0  0  0  0  0  0  0  0  0  0  0  0
  -32.1630  -20.0060   19.9590 C   0  0  0  0  0  0  0  0  0  0  0  0
  -28.9550  -24.8270   20.9150 C   0  0  0  0  0  2  0  0  0  0  0  0
  -28.4680  -24.5250   18.4650 C   0  0  0  0  0  2  0  0  0  0  0  0
  -29.9230  -23.6310   20.6060 C   0  0  0  0  0  2  0  0  0  0  0  0
  -28.4460  -22.9680   18.7200 C   0  0  0  0  0  2  0  0  0  0  0  0
  -28.1130  -25.3680   19.7240 C   0  0  0  0  0  3  0  0  0  0  0  0
  -29.3420  -22.5270   19.8070 N   0  0  0  0  0  0  0  0  0  0  0  0
  -28.1990  -26.8430   19.5580 O   0  0  0  0  0  0  0  0  0  0  0  0
  -24.4720  -31.8450   23.1650 C   0  0  0  0  0  0  0  0  0  0  0  0
  -27.0400  -27.6280   19.6380 C   0  0  0  0  0  0  0  0  0  0  0  0
  -23.2190  -30.5500   21.4750 C   0  0  0  0  0  3  0  0  0  0  0  0
  -24.6340  -29.1580   19.8610 C   0  0  0  0  0  0  0  0  0  0  0  0
  -25.7350  -30.9550   21.1960 C   0  0  0  0  0  2  0  0  0  0  0  0
  -25.8160  -29.6350   20.4410 C   0  0  0  0  0  0  0  0  0  0  0  0
  -27.0200  -28.8830   20.3190 C   0  0  0  0  0  3  0  0  0  0  0  0
  -25.8360  -27.2100   19.0250 C   0  0  0  0  0  3  0  0  0  0  0  0
  -24.6430  -27.9500   19.1440 C   0  0  0  0  0  3  0  0  0  0  0  0
  -23.3800  -29.9900   20.0370 C   0  0  0  0  0  2  0  0  0  0  0  0
  -24.4970  -31.1290   22.0020 N   0  0  0  0  0  0  0  0  0  0  0  0
  -23.4120  -32.0510   23.7720 O   0  0  0  0  0  0  0  0  0  0  0  0
  -22.6300  -29.4430   22.3810 C   0  0  0  0  0  0  0  0  0  0  0  0
  -21.3120  -29.2070   22.2670 N   0  0  0  0  0  0  0  0  0  0  0  0
  -23.3560  -28.8000   23.1440 O   0  0  0  0  0  0  0  0  0  0  0  0
  -20.7830  -29.7840   21.6290 H   0  0  0  0  0  0  0  0  0  0  0  0
  -18.0290  -27.7420   22.6630 C   0  0  0  0  0  0  0  0  0  0  0  0
  -20.5550  -28.1840   22.9900 C   0  0  0  0  0  3  0  0  0  0  0  0
  -20.7740  -26.7850   22.3690 C   0  0  0  0  0  2  0  0  0  0  0  0
  -19.7160  -26.4160   21.3240 C   0  0  0  0  0  2  0  0  0  0  0  0
  -18.3170  -26.4340   21.9470 C   0  0  0  0  0  2  0  0  0  0  0  0
  -19.0790  -28.5710   23.1390 C   0  0  0  0  0  0  0  0  0  0  0  0
  -18.7570  -29.7930   23.7690 C   0  0  0  0  0  3  0  0  0  0  0  0
  -17.4170  -30.1880   23.9280 C   0  0  0  0  0  3  0  0  0  0  0  0
  -16.3800  -29.3580   23.4690 C   0  0  0  0  0  3  0  0  0  0  0  0
  -16.6860  -28.1370   22.8430 C   0  0  0  0  0  3  0  0  0  0  0  0
  -25.7720  -32.4590   23.7730 C   0  0  0  0  0  3  0  0  0  0  0  0
  -25.4840  -33.8590   24.1140 N   0  0  0  0  0  0  0  0  0  0  0  0
  -25.8390  -34.9120   23.3650 C   0  0  0  0  0  0  0  0  0  0  0  0
  -26.5120  -34.8060   22.3370 O   0  0  0  0  0  0  0  0  0  0  0  0
  -24.8860  -34.0170   24.9110 H   0  0  0  0  0  0  0  0  0  0  0  0
  -24.1410  -36.7370   23.0190 C   0  0  0  0  0  1  0  0  0  0  0  0
  -25.3720  -36.3060   23.8310 C   0  0  0  0  0  3  0  0  0  0  0  0
  -27.5080  -37.1630   24.6900 C   0  0  0  0  0  1  0  0  0  0  0  0
  -26.4220  -37.3420   23.7280 N   0  0  0  0  0  0  0  0  0  0  0  0
  -26.0290  -38.2700   23.8640 H   0  0  0  0  0  0  0  0  0  0  0  0
  -26.2920  -31.6750   25.0410 C   0  0  1  0  0  0  0  0  0  0  0  0
  -25.2170  -31.4670   26.1310 C   0  0  0  0  0  1  0  0  0  0  0  0
  -26.8300  -30.2820   24.6380 C   0  0  0  0  0  1  0  0  0  0  0  0
  -27.4780  -32.4390   25.6780 C   0  0  0  0  0  1  0  0  0  0  0  0
  -29.4960  -17.3220   19.2060 C   0  0  0  0  0  2  0  0  0  0  0  0
  -30.5590  -15.0590   19.8010 C   0  0  0  0  0  0  0  0  0  0  0  0
  -30.4170  -12.7240   18.9420 C   0  0  0  0  0  2  0  0  0  0  0  0
  -29.4070  -12.6710   17.7750 C   0  0  0  0  0  2  0  0  0  0  0  0
  -27.9710  -12.4620   18.2950 C   0  0  0  0  0  2  0  0  0  0  0  0
  -27.6230  -13.4110   19.4710 C   0  0  0  0  0  3  0  0  0  0  0  0
  -28.7410  -13.4120   20.5320 C   0  0  0  0  0  2  0  0  0  0  0  0
  -29.9920  -13.8040   19.8600 N   0  0  0  0  0  0  0  0  0  0  0  0
  -31.6380  -15.2240   19.2240 O   0  0  0  0  0  0  0  0  0  0  0  0
  -29.4000  -16.3980   21.5250 C   0  0  0  0  0  1  0  0  0  0  0  0
  -29.7760  -16.1520   20.1270 N   0  0  0  0  0  0  0  0  0  0  0  0
  -25.2920  -13.9610   20.3990 C   0  0  0  0  0  0  0  0  0  0  0  0
  -24.2620  -13.1640   20.8230 C   0  0  0  0  0  0  0  0  0  0  0  0
  -24.7270  -11.8190   20.7000 C   0  0  0  0  0  0  0  0  0  0  0  0
  -26.3180  -13.0990   20.0490 N   0  0  0  0  0  0  0  0  0  0  0  0
  -25.9870  -11.8030   20.2860 N   0  0  0  0  0  0  0  0  0  0  0  0
  -24.0260  -10.5440   20.9000 C   0  0  0  0  0  0  0  0  0  0  0  0
  -24.4960   -9.5760   21.8140 C   0  0  0  0  0  3  0  0  0  0  0  0
  -23.7920   -8.3660   22.0010 C   0  0  0  0  0  3  0  0  0  0  0  0
  -22.6040   -8.1160   21.2740 C   0  0  0  0  0  0  0  0  0  0  0  0
  -22.1530   -9.0740   20.3470 C   0  0  0  0  0  3  0  0  0  0  0  0
  -22.8580  -10.2740   20.1580 C   0  0  0  0  0  3  0  0  0  0  0  0
  -21.8690   -6.9590   21.3720 O   0  0  0  0  0  0  0  0  0  0  0  0
  -21.7720   -6.2670   22.5510 C   0  0  0  0  0  0  0  0  0  0  0  0
  -21.2140   -6.8460   23.7120 C   0  0  0  0  0  3  0  0  0  0  0  0
  -21.0690   -6.0760   24.8830 C   0  0  0  0  0  3  0  0  0  0  0  0
  -21.4720   -4.7270   24.8950 C   0  0  0  0  0  0  0  0  0  0  0  0
  -22.0210   -4.1470   23.7370 C   0  0  0  0  0  3  0  0  0  0  0  0
  -22.1680   -4.9140   22.5690 C   0  0  0  0  0  0  0  0  0  0  0  0
  -22.6790   -4.3440   21.4510 F   0  0  0  0  0  0  0  0  0  0  0  0
  -21.3260   -3.9850   26.0170 F   0  0  0  0  0  0  0  0  0  0  0  0
  -22.8900  -13.6180   21.2300 C   0  0  0  0  0  0  0  0  0  0  0  0
  -22.2570  -12.8970   22.1500 N   0  0  0  0  0  0  0  0  0  0  0  0
  -22.3920  -14.6440   20.7710 O   0  0  0  0  0  0  0  0  0  0  0  0
  -22.6780  -12.0660   22.5410 H   0  0  0  0  0  0  0  0  0  0  0  0
  -21.3410  -13.1770   22.4690 H   0  0  0  0  0  0  0  0  0  0  0  0
  -25.4350  -15.3380   20.2640 N   0  0  0  0  0  0  0  0  0  0  0  0
  -24.6840  -15.9870   20.4670 H   0  0  0  0  0  0  0  0  0  0  0  0
  -26.2610  -15.7910   19.8930 H   0  0  0  0  0  0  0  0  0  0  0  0
  -33.5410  -19.9880   20.2130 N   0  0  0  0  0  0  0  0  0  0  0  0
  -34.7530  -20.3000   18.0680 C   0  0  0  0  0  1  0  0  0  0  0  0
  -34.3830  -19.3450   19.2110 C   0  0  0  0  0  2  0  0  0  0  0  0
  -34.3810  -20.3240   22.5050 C   0  0  0  0  0  1  0  0  0  0  0  0
  -34.0620  -20.9730   21.1540 C   0  0  0  0  0  2  0  0  0  0  0  0
  1  5  1  0
  2  6  2  0
  4  1  2  0
  4  2  1  0
  5 12  1  0
  5  3  2  0
  6  3  1  0
  6 93  1  0
  8 10  1  0
  8 11  1  0
  9  7  1  0
 10 12  1  0
 11 13  1  0
 11  7  1  0
 12  9  1  0
 13 15  1  0
 14 25  2  0
 15 20  1  0
 16 24  1  0
 16 26  1  0
 17 23  1  0
 17 19  1  0
 18 24  1  0
 19 18  1  0
 20 19  2  0
 21 22  1  0
 21 15  2  0
 22 17  2  0
 23 16  1  0
 24 14  1  0
 26 28  2  0
 27 26  1  0
 29 27  1  0
 30 39  2  0
 30 35  1  0
 31 27  1  0
 31 35  1  0
 32 31  1  0
 33 34  1  0
 33 32  1  0
 34 30  1  0
 35 36  2  0
 36 37  1  0
 38 37  2  0
 39 38  1  0
 40 14  1  0
 40 41  1  0
 40 50  1  0
 41 44  1  0
 42 46  1  0
 42 41  1  0
 43 42  2  0
 46 45  1  0
 48 46  1  0
 48 49  1  0
 48 47  1  0
 50 53  1  1
 50 51  1  0
 52 50  1  0
 54  4  1  0
 54 64  1  0
 55 61  1  0
 55 64  1  0
 56 61  1  0
 57 58  1  0
 57 56  1  0
 59 58  1  0
 59 68  1  0
 59 60  1  0
 61 60  1  0
 62 55  2  0
 64 63  1  0
 65 66  2  0
 66 85  1  0
 67 66  1  0
 67 70  1  0
 68 69  1  0
 68 65  1  0
 69 67  2  0
 70 71  1  0
 71 72  2  0
 73 76  1  0
 73 72  1  0
 74 73  2  0
 75 74  1  0
 75 70  2  0
 76 77  1  0
 77 82  2  0
 77 78  1  0
 78 79  2  0
 79 80  1  0
 80 84  1  0
 81 80  2  0
 82 81  1  0
 83 82  1  0
 85 86  1  0
 86 89  1  0
 86 88  1  0
 87 85  2  0
 90 65  1  0
 90 91  1  0
 92 90  1  0
 93 97  1  0
 94 95  1  0
 95 93  1  0
 97 96  1  0
M  ISO  4  11 101  13 101  55 100  64 100
M  END
>  <TORSDO>  (44) 
F 21

>  <SCORE>  (44) 
-13.307

>  <name>  (44) 
44

>  <ligand_id>  (44) 
44

>  <original_smiles>  (44) 
[H]c1c([H])c([H])c2c(c1[H])C([H])([H])C([H])([H])C([H])([H])C2([H])N([H])C(=O)C1([H])N(C(=O)C([H])(N([H])C(=O)C([H])(N([H])C([H])([H])[H])C([H])([H])[H])C(C([H])([H])[H])(C([H])([H])[H])C([H])([H])[H])C([H])([H])c2c([H])c(OC3([H])C([H])([H])C([H])([H])N(c4c([H])c(N(C([H])([H])C([H])([H])[H])C([H])([H])C([H])([H])[H])c([H])c(C([H])([H])N(C(=O)N5C([H])([H])C([H])([H])C([H])([H])C([H])(n6nc(-c7c([H])c([H])c(Oc8c([H])c([H])c(F)c([H])c8F)c([H])c7[H])c(C(=O)N([H])[H])c6N([H])[H])C5([H])[H])C([H])([H])[H])c4[H])C([H])([H])C3([H])[H])c([H])c([H])c2C1([H])[H]

>  <smiles>  (44) 
[H]c1c([H])c([H])c2c(c1[H])C([H])([H])C([H])([H])C([H])([H])C2([H])N([H])C(=O)C1([H])N(C(=O)C([H])(N([H])C(=O)C([H])(N([H])C([H])([H])[H])C([H])([H])[H])C(C([H])([H])[H])(C([H])([H])[H])C([H])([H])[H])C([H])([H])c2c([H])c(OC3([H])C([H])([H])C([H])([H])N(c4c([H])c(N(C([H])([H])C([H])([H])[H])C([H])([H])C([H])([H])[H])c([H])c(C([H])([H])N(C(=O)N5C([H])([H])C([H])([H])C([H])([H])C([H])(n6nc(-c7c([H])c([H])c(Oc8c([H])c([H])c(F)c([H])c8F)c([H])c7[H])c(C(=O)N([H])[H])c6N([H])[H])C5([H])[H])C([H])([H])[H])c4[H])C([H])([H])C3([H])[H])c([H])c([H])c2C1([H])[H]

$$$$
45:0:0
     RDKit          3D

 93101  0  0  1  0  0  0  0  0999 V2000
  -31.4320  -20.1270   19.9660 C   0  0  0  0  0  3  0  0  0  0  0  0
  -29.3370  -19.4130   20.9290 C   0  0  0  0  0  3  0  0  0  0  0  0
  -31.1020  -17.7450   20.5320 C   0  0  0  0  0  0  0  0  0  0  0  0
  -30.1540  -20.4740   20.4690 C   0  0  0  0  0  0  0  0  0  0  0  0
  -31.9010  -18.7910   20.0090 C   0  0  0  0  0  0  0  0  0  0  0  0
  -29.7910  -18.0700   20.9600 C   0  0  0  0  0  0  0  0  0  0  0  0
  -33.1590  -18.5170   19.5830 F   0  0  0  0  0  0  0  0  0  0  0  0
  -28.7360  -16.8490   21.5810 Cl  0  0  0  0  0  0  0  0  0  0  0  0
  -29.6680  -21.8090   20.5760 N   0  0  0  0  0  0  0  0  0  0  0  0
  -28.7410  -21.9340   20.9750 H   0  0  0  0  0  0  0  0  0  0  0  0
  -30.2190  -22.9650   19.8430 C   0  0  0  0  0  2  0  0  0  0  0  0
  -29.9850  -24.3580   20.5310 C   0  0  0  0  0  2  0  0  0  0  0  0
  -28.6170  -25.0790   20.2640 C   0  0  0  0  0  2  0  0  0  0  0  0
  -28.7250  -26.5250   20.3700 O   0  0  0  0  0  0  0  0  0  0  0  0
  -24.8380  -31.6450   23.4750 C   0  0  0  0  0  0  0  0  0  0  0  0
  -27.5640  -27.2880   20.3180 C   0  0  0  0  0  0  0  0  0  0  0  0
  -23.6990  -30.3680   21.6920 C   0  0  0  0  0  3  0  0  0  0  0  0
  -25.2010  -28.8730   20.2640 C   0  0  0  0  0  0  0  0  0  0  0  0
  -26.2380  -30.6730   21.6500 C   0  0  0  0  0  2  0  0  0  0  0  0
  -26.3370  -29.3320   20.9450 C   0  0  0  0  0  0  0  0  0  0  0  0
  -27.5190  -28.5510   20.9630 C   0  0  0  0  0  3  0  0  0  0  0  0
  -26.4100  -26.8580   19.6200 C   0  0  0  0  0  3  0  0  0  0  0  0
  -25.2380  -27.6410   19.5930 C   0  0  0  0  0  3  0  0  0  0  0  0
  -23.9740  -29.7570   20.2910 C   0  0  0  0  0  2  0  0  0  0  0  0
  -24.9420  -30.9040   22.3350 N   0  0  0  0  0  0  0  0  0  0  0  0
  -23.7330  -31.9120   23.9680 O   0  0  0  0  0  0  0  0  0  0  0  0
  -22.9710  -29.3110   22.5540 C   0  0  0  0  0  0  0  0  0  0  0  0
  -21.6560  -29.1540   22.3280 N   0  0  0  0  0  0  0  0  0  0  0  0
  -23.5880  -28.6380   23.3830 O   0  0  0  0  0  0  0  0  0  0  0  0
  -21.2230  -29.7490   21.6360 H   0  0  0  0  0  0  0  0  0  0  0  0
  -18.2410  -27.9920   22.5460 C   0  0  0  0  0  0  0  0  0  0  0  0
  -20.7790  -28.1880   22.9900 C   0  0  0  0  0  3  0  0  0  0  0  0
  -20.8970  -26.7900   22.3400 C   0  0  0  0  0  2  0  0  0  0  0  0
  -19.8550  -26.5450   21.2430 C   0  0  0  0  0  2  0  0  0  0  0  0
  -18.4390  -26.6790   21.8070 C   0  0  0  0  0  2  0  0  0  0  0  0
  -19.3390  -28.7090   23.0870 C   0  0  0  0  0  0  0  0  0  0  0  0
  -19.1040  -29.9440   23.7320 C   0  0  0  0  0  3  0  0  0  0  0  0
  -17.7990  -30.4600   23.8410 C   0  0  0  0  0  3  0  0  0  0  0  0
  -16.7140  -29.7390   23.3150 C   0  0  0  0  0  3  0  0  0  0  0  0
  -16.9340  -28.5060   22.6750 C   0  0  0  0  0  3  0  0  0  0  0  0
  -26.0990  -32.2070   24.2030 C   0  0  0  0  0  3  0  0  0  0  0  0
  -25.8090  -33.5950   24.5860 N   0  0  0  0  0  0  0  0  0  0  0  0
  -26.2210  -34.6750   23.9080 C   0  0  0  0  0  0  0  0  0  0  0  0
  -26.9610  -34.6020   22.9230 O   0  0  0  0  0  0  0  0  0  0  0  0
  -25.1690  -33.7270   25.3550 H   0  0  0  0  0  0  0  0  0  0  0  0
  -24.5750  -36.5380   23.5210 C   0  0  0  0  0  1  0  0  0  0  0  0
  -25.7390  -36.0530   24.4000 C   0  0  0  0  0  3  0  0  0  0  0  0
  -27.8260  -36.8300   25.4350 C   0  0  0  0  0  1  0  0  0  0  0  0
  -26.8040  -37.0800   24.4220 N   0  0  0  0  0  0  0  0  0  0  0  0
  -26.4120  -38.0030   24.5840 H   0  0  0  0  0  0  0  0  0  0  0  0
  -26.5170  -31.3540   25.4640 C   0  0  1  0  0  0  0  0  0  0  0  0
  -25.3480  -31.0750   26.4370 C   0  0  0  0  0  1  0  0  0  0  0  0
  -27.1020  -29.9910   25.0270 C   0  0  0  0  0  1  0  0  0  0  0  0
  -27.6390  -32.0790   26.2390 C   0  0  0  0  0  1  0  0  0  0  0  0
  -31.7170  -16.3460   20.7670 C   0  0  0  0  0  2  0  0  0  0  0  0
  -31.4460  -14.1790   19.5170 C   0  0  0  0  0  0  0  0  0  0  0  0
  -30.9360  -11.9870   18.4800 C   0  0  0  0  0  2  0  0  0  0  0  0
  -29.8760  -12.1500   17.3730 C   0  0  0  0  0  2  0  0  0  0  0  0
  -28.4510  -12.1000   17.9610 C   0  0  0  0  0  2  0  0  0  0  0  0
  -28.2850  -13.0310   19.1900 C   0  0  0  0  0  3  0  0  0  0  0  0
  -29.4350  -12.8140   20.1960 C   0  0  0  0  0  2  0  0  0  0  0  0
  -30.7040  -13.0380   19.4840 N   0  0  0  0  0  0  0  0  0  0  0  0
  -32.4750  -14.3240   18.8500 O   0  0  0  0  0  0  0  0  0  0  0  0
  -30.9740  -15.1570   20.3150 N   0  0  0  0  0  0  0  0  0  0  0  0
  -30.1140  -14.9510   20.8000 H   0  0  0  0  0  0  0  0  0  0  0  0
  -26.0580  -13.8240   20.2090 C   0  0  0  0  0  0  0  0  0  0  0  0
  -24.9710  -13.1340   20.6790 C   0  0  0  0  0  0  0  0  0  0  0  0
  -25.2900  -11.7500   20.5350 C   0  0  0  0  0  0  0  0  0  0  0  0
  -26.9770  -12.8610   19.8190 N   0  0  0  0  0  0  0  0  0  0  0  0
  -26.5230  -11.6050   20.0670 N   0  0  0  0  0  0  0  0  0  0  0  0
  -24.4700  -10.5510   20.7610 C   0  0  0  0  0  0  0  0  0  0  0  0
  -24.8540   -9.5600   21.6900 C   0  0  0  0  0  3  0  0  0  0  0  0
  -24.0410   -8.4260   21.9020 C   0  0  0  0  0  3  0  0  0  0  0  0
  -22.8300   -8.2760   21.1850 C   0  0  0  0  0  0  0  0  0  0  0  0
  -22.4650   -9.2540   20.2440 C   0  0  0  0  0  3  0  0  0  0  0  0
  -23.2770  -10.3800   20.0290 C   0  0  0  0  0  3  0  0  0  0  0  0
  -21.9890   -7.1960   21.3070 O   0  0  0  0  0  0  0  0  0  0  0  0
  -21.8250   -6.5430   22.5020 C   0  0  0  0  0  0  0  0  0  0  0  0
  -21.3450   -7.2060   23.6520 C   0  0  0  0  0  3  0  0  0  0  0  0
  -21.1250   -6.4810   24.8420 C   0  0  0  0  0  3  0  0  0  0  0  0
  -21.3740   -5.0970   24.8810 C   0  0  0  0  0  0  0  0  0  0  0  0
  -21.8470   -4.4350   23.7330 C   0  0  0  0  0  3  0  0  0  0  0  0
  -22.0690   -5.1550   22.5470 C   0  0  0  0  0  0  0  0  0  0  0  0
  -22.5050   -4.5090   21.4400 F   0  0  0  0  0  0  0  0  0  0  0  0
  -21.1560   -4.3990   26.0200 F   0  0  0  0  0  0  0  0  0  0  0  0
  -23.6720  -13.7260   21.1430 C   0  0  0  0  0  0  0  0  0  0  0  0
  -22.9940  -13.0600   22.0730 N   0  0  0  0  0  0  0  0  0  0  0  0
  -23.2720  -14.8080   20.7180 O   0  0  0  0  0  0  0  0  0  0  0  0
  -23.3300  -12.1800   22.4380 H   0  0  0  0  0  0  0  0  0  0  0  0
  -22.1230  -13.4320   22.4240 H   0  0  0  0  0  0  0  0  0  0  0  0
  -26.3340  -15.1780   20.0610 N   0  0  0  0  0  0  0  0  0  0  0  0
  -25.6450  -15.8950   20.2630 H   0  0  0  0  0  0  0  0  0  0  0  0
  -27.1720  -15.5460   19.6270 H   0  0  0  0  0  0  0  0  0  0  0  0
  1  5  2  0
  1  4  1  0
  2  6  1  0
  3 55  1  0
  3  6  2  0
  4  9  1  0
  4  2  2  0
  5  3  1  0
  6  8  1  0
  7  5  1  0
  9 10  1  0
 11 12  1  0
 11  9  1  0
 13 14  1  0
 13 12  1  0
 15 26  2  0
 16 14  1  0
 16 21  1  0
 17 25  1  0
 17 27  1  0
 18 24  1  0
 18 20  1  0
 19 25  1  0
 20 21  2  0
 20 19  1  0
 22 16  2  0
 23 22  1  0
 23 18  2  0
 24 17  1  0
 25 15  1  0
 27 29  2  0
 28 27  1  0
 30 28  1  0
 31 40  2  0
 31 36  1  0
 32 28  1  0
 32 36  1  0
 33 32  1  0
 34 35  1  0
 34 33  1  0
 35 31  1  0
 36 37  2  0
 37 38  1  0
 39 38  2  0
 40 39  1  0
 41 15  1  0
 41 42  1  0
 41 51  1  0
 42 45  1  0
 43 47  1  0
 43 42  1  0
 44 43  2  0
 47 46  1  0
 47 49  1  0
 49 50  1  0
 49 48  1  0
 51 54  1  1
 51 52  1  0
 53 51  1  0
 56 64  1  0
 57 62  1  0
 58 59  1  0
 58 57  1  0
 60 59  1  0
 60 69  1  0
 60 61  1  0
 62 56  1  0
 62 61  1  0
 63 56  2  0
 64 55  1  0
 64 65  1  0
 66 67  2  0
 67 86  1  0
 68 67  1  0
 68 71  1  0
 69 70  1  0
 69 66  1  0
 70 68  2  0
 71 72  1  0
 72 73  2  0
 74 77  1  0
 74 73  1  0
 75 74  2  0
 76 75  1  0
 76 71  2  0
 77 78  1  0
 78 83  2  0
 78 79  1  0
 79 80  2  0
 80 81  1  0
 81 85  1  0
 82 81  2  0
 83 82  1  0
 84 83  1  0
 86 87  1  0
 87 90  1  0
 87 89  1  0
 88 86  2  0
 91 66  1  0
 91 92  1  0
 93 91  1  0
M  ISO  4  13 101  14 101  56 100  64 100
M  END
>  <TORSDO>  (45) 
F 21

>  <SCORE>  (45) 
-11.176

>  <name>  (45) 
45

>  <ligand_id>  (45) 
45

>  <original_smiles>  (45) 
[H]c1c([H])c([H])c2c(c1[H])C([H])([H])C([H])([H])C([H])([H])C2([H])N([H])C(=O)C1([H])N(C(=O)C([H])(N([H])C(=O)C([H])(N([H])C([H])([H])[H])C([H])([H])[H])C(C([H])([H])[H])(C([H])([H])[H])C([H])([H])[H])C([H])([H])c2c([H])c(OC([H])([H])C([H])([H])C([H])([H])N([H])c3c([H])c(F)c(C([H])([H])N([H])C(=O)N4C([H])([H])C([H])([H])C([H])([H])C([H])(n5nc(-c6c([H])c([H])c(Oc7c([H])c([H])c(F)c([H])c7F)c([H])c6[H])c(C(=O)N([H])[H])c5N([H])[H])C4([H])[H])c(Cl)c3[H])c([H])c([H])c2C1([H])[H]

>  <smiles>  (45) 
[H]c1c([H])c([H])c2c(c1[H])C([H])([H])C([H])([H])C([H])([H])C2([H])N([H])C(=O)C1([H])N(C(=O)C([H])(N([H])C(=O)C([H])(N([H])C([H])([H])[H])C([H])([H])[H])C(C([H])([H])[H])(C([H])([H])[H])C([H])([H])[H])C([H])([H])c2c([H])c(OC([H])([H])C([H])([H])C([H])([H])N([H])c3c([H])c(F)c(C([H])([H])N([H])C(=O)N4C([H])([H])C([H])([H])C([H])([H])C([H])(n5nc(-c6c([H])c([H])c(Oc7c([H])c([H])c(F)c([H])c7F)c([H])c6[H])c(C(=O)N([H])[H])c5N([H])[H])C4([H])[H])c(Cl)c3[H])c([H])c([H])c2C1([H])[H]

$$$$
46:0:0
     RDKit          3D

 92101  0  0  1  0  0  0  0  0999 V2000
  -28.7340  -22.7120   21.1080 C   0  0  0  0  0  0  0  0  0  0  0  0
  -29.6660  -22.6820   19.2700 C   0  0  0  0  0  2  0  0  0  0  0  0
  -29.2700  -23.8940   20.2030 C   0  0  0  0  0  3  0  0  0  0  0  0
  -29.5470  -21.7900   20.4310 N   0  0  0  0  0  0  0  0  0  0  0  0
  -27.8960  -22.5560   21.9730 O   0  0  0  0  0  0  0  0  0  0  0  0
  -28.7650  -19.4460   21.0330 C   0  0  0  0  0  3  0  0  0  0  0  0
  -28.8500  -18.0220   21.0520 C   0  0  0  0  0  3  0  0  0  0  0  0
  -30.8310  -18.1290   19.7380 C   0  0  0  0  0  3  0  0  0  0  0  0
  -29.6770  -20.3110   20.3640 C   0  0  0  0  0  0  0  0  0  0  0  0
  -29.8880  -17.2980   20.4100 C   0  0  0  0  0  0  0  0  0  0  0  0
  -30.7180  -19.5670   19.7090 C   0  0  0  0  0  0  0  0  0  0  0  0
  -31.6690  -20.2610   19.0380 F   0  0  0  0  0  0  0  0  0  0  0  0
  -30.6310  -14.7820   20.0140 C   0  0  0  0  0  0  0  0  0  0  0  0
  -30.3880  -12.5460   18.9270 C   0  0  0  0  0  2  0  0  0  0  0  0
  -29.3700  -12.6680   17.7720 C   0  0  0  0  0  2  0  0  0  0  0  0
  -27.9260  -12.4870   18.2840 C   0  0  0  0  0  2  0  0  0  0  0  0
  -27.6330  -13.3260   19.5550 C   0  0  0  0  0  3  0  0  0  0  0  0
  -28.7600  -13.1710   20.6010 C   0  0  0  0  0  2  0  0  0  0  0  0
  -30.0280  -13.5460   19.9540 N   0  0  0  0  0  0  0  0  0  0  0  0
  -31.7690  -14.9540   19.5640 O   0  0  0  0  0  0  0  0  0  0  0  0
  -29.8370  -15.8190   20.4530 N   0  0  0  0  0  0  0  0  0  0  0  0
  -28.9700  -15.4640   20.8300 H   0  0  0  0  0  0  0  0  0  0  0  0
  -25.2950  -13.8920   20.4510 C   0  0  0  0  0  0  0  0  0  0  0  0
  -24.2510  -13.1040   20.8600 C   0  0  0  0  0  0  0  0  0  0  0  0
  -24.7110  -11.7560   20.7550 C   0  0  0  0  0  0  0  0  0  0  0  0
  -26.3200  -13.0210   20.1170 N   0  0  0  0  0  0  0  0  0  0  0  0
  -25.9800  -11.7300   20.3620 N   0  0  0  0  0  0  0  0  0  0  0  0
  -23.9980  -10.4870   20.9500 C   0  0  0  0  0  0  0  0  0  0  0  0
  -24.4480   -9.5210   21.8760 C   0  0  0  0  0  3  0  0  0  0  0  0
  -23.7320   -8.3170   22.0600 C   0  0  0  0  0  3  0  0  0  0  0  0
  -22.5530   -8.0710   21.3180 C   0  0  0  0  0  0  0  0  0  0  0  0
  -22.1210   -9.0270   20.3810 C   0  0  0  0  0  3  0  0  0  0  0  0
  -22.8380  -10.2220   20.1950 C   0  0  0  0  0  3  0  0  0  0  0  0
  -21.8110   -6.9180   21.4090 O   0  0  0  0  0  0  0  0  0  0  0  0
  -21.7230   -6.2100   22.5800 C   0  0  0  0  0  0  0  0  0  0  0  0
  -21.2360   -6.7950   23.7690 C   0  0  0  0  0  3  0  0  0  0  0  0
  -21.0950   -6.0130   24.9330 C   0  0  0  0  0  3  0  0  0  0  0  0
  -21.4330   -4.6460   24.9080 C   0  0  0  0  0  0  0  0  0  0  0  0
  -21.9140   -4.0610   23.7250 C   0  0  0  0  0  3  0  0  0  0  0  0
  -22.0560   -4.8410   22.5630 C   0  0  0  0  0  0  0  0  0  0  0  0
  -22.4990   -4.2670   21.4190 F   0  0  0  0  0  0  0  0  0  0  0  0
  -21.2910   -3.8920   26.0240 F   0  0  0  0  0  0  0  0  0  0  0  0
  -22.8750  -13.5710   21.2340 C   0  0  0  0  0  0  0  0  0  0  0  0
  -22.2050  -12.8510   22.1260 N   0  0  0  0  0  0  0  0  0  0  0  0
  -22.4050  -14.6090   20.7700 O   0  0  0  0  0  0  0  0  0  0  0  0
  -22.6010  -12.0110   22.5220 H   0  0  0  0  0  0  0  0  0  0  0  0
  -21.2820  -13.1420   22.4190 H   0  0  0  0  0  0  0  0  0  0  0  0
  -25.4490  -15.2680   20.3120 N   0  0  0  0  0  0  0  0  0  0  0  0
  -24.6900  -15.9130   20.5040 H   0  0  0  0  0  0  0  0  0  0  0  0
  -26.2600  -15.7200   19.9110 H   0  0  0  0  0  0  0  0  0  0  0  0
  -28.2070  -25.0310   19.7990 C   0  0  0  0  0  2  0  0  0  0  0  0
  -28.3640  -26.4760   20.1710 O   0  0  0  0  0  0  0  0  0  0  0  0
  -24.6390  -31.8870   23.2390 C   0  0  0  0  0  0  0  0  0  0  0  0
  -27.2420  -27.3390   20.1210 C   0  0  0  0  0  0  0  0  0  0  0  0
  -23.4260  -30.5020   21.5950 C   0  0  0  0  0  3  0  0  0  0  0  0
  -24.8700  -28.9670   20.1420 C   0  0  0  0  0  0  0  0  0  0  0  0
  -25.9660  -30.8190   21.3990 C   0  0  0  0  0  2  0  0  0  0  0  0
  -26.0450  -29.4470   20.7330 C   0  0  0  0  0  0  0  0  0  0  0  0
  -27.2310  -28.6460   20.7120 C   0  0  0  0  0  3  0  0  0  0  0  0
  -26.0360  -26.9200   19.5090 C   0  0  0  0  0  3  0  0  0  0  0  0
  -24.8680  -27.7090   19.5240 C   0  0  0  0  0  3  0  0  0  0  0  0
  -23.6340  -29.8420   20.2050 C   0  0  0  0  0  2  0  0  0  0  0  0
  -24.6960  -31.0870   22.1340 N   0  0  0  0  0  0  0  0  0  0  0  0
  -23.5600  -32.1630   23.7830 O   0  0  0  0  0  0  0  0  0  0  0  0
  -22.7700  -29.4790   22.5530 C   0  0  0  0  0  0  0  0  0  0  0  0
  -21.4440  -29.2900   22.4250 N   0  0  0  0  0  0  0  0  0  0  0  0
  -23.4510  -28.8590   23.3740 O   0  0  0  0  0  0  0  0  0  0  0  0
  -20.9530  -29.8430   21.7360 H   0  0  0  0  0  0  0  0  0  0  0  0
  -18.0810  -28.0510   22.9140 C   0  0  0  0  0  0  0  0  0  0  0  0
  -20.6340  -28.3450   23.1950 C   0  0  0  0  0  3  0  0  0  0  0  0
  -20.7570  -26.9120   22.6240 C   0  0  0  0  0  2  0  0  0  0  0  0
  -19.6640  -26.5730   21.6050 C   0  0  0  0  0  2  0  0  0  0  0  0
  -18.2780  -26.7030   22.2420 C   0  0  0  0  0  2  0  0  0  0  0  0
  -19.1870  -28.8280   23.3480 C   0  0  0  0  0  0  0  0  0  0  0  0
  -18.9480  -30.0880   23.9390 C   0  0  0  0  0  3  0  0  0  0  0  0
  -17.6360  -30.5700   24.1000 C   0  0  0  0  0  3  0  0  0  0  0  0
  -16.5440  -29.7910   23.6790 C   0  0  0  0  0  3  0  0  0  0  0  0
  -16.7670  -28.5330   23.0920 C   0  0  0  0  0  3  0  0  0  0  0  0
  -25.9270  -32.5150   23.8570 C   0  0  0  0  0  3  0  0  0  0  0  0
  -25.6250  -33.9160   24.1820 N   0  0  0  0  0  0  0  0  0  0  0  0
  -25.9350  -34.9620   23.4050 C   0  0  0  0  0  0  0  0  0  0  0  0
  -26.5750  -34.8500   22.3560 O   0  0  0  0  0  0  0  0  0  0  0  0
  -25.0500  -34.0770   24.9970 H   0  0  0  0  0  0  0  0  0  0  0  0
  -24.1830  -36.7430   23.1030 C   0  0  0  0  0  1  0  0  0  0  0  0
  -25.4600  -36.3540   23.8650 C   0  0  0  0  0  3  0  0  0  0  0  0
  -27.6210  -37.2650   24.5940 C   0  0  0  0  0  1  0  0  0  0  0  0
  -26.4790  -37.4120   23.6940 N   0  0  0  0  0  0  0  0  0  0  0  0
  -26.0730  -38.3300   23.8470 H   0  0  0  0  0  0  0  0  0  0  0  0
  -26.4410  -31.7470   25.1390 C   0  0  1  0  0  0  0  0  0  0  0  0
  -25.3470  -31.5190   26.2100 C   0  0  0  0  0  1  0  0  0  0  0  0
  -27.0190  -30.3640   24.7560 C   0  0  0  0  0  1  0  0  0  0  0  0
  -27.5950  -32.5390   25.7940 C   0  0  0  0  0  1  0  0  0  0  0  0
  1  5  2  0
  2  3  1  0
  2  4  1  0
  3 51  1  0
  3  1  1  0
  4  1  1  0
  6  7  1  0
  8 10  1  0
  9  4  1  0
  9  6  2  0
 10 21  1  0
 10  7  2  0
 11  8  2  0
 11  9  1  0
 12 11  1  0
 13 21  1  0
 14 19  1  0
 15 16  1  0
 15 14  1  0
 17 16  1  0
 17 26  1  0
 17 18  1  0
 19 13  1  0
 19 18  1  0
 20 13  2  0
 21 22  1  0
 23 24  2  0
 24 43  1  0
 25 24  1  0
 25 28  1  0
 26 27  1  0
 26 23  1  0
 27 25  2  0
 28 29  1  0
 29 30  2  0
 31 34  1  0
 31 30  1  0
 32 31  2  0
 33 32  1  0
 33 28  2  0
 34 35  1  0
 35 36  1  0
 36 37  2  0
 38 37  1  0
 38 42  1  0
 39 38  2  0
 40 35  2  0
 40 39  1  0
 41 40  1  0
 43 44  1  0
 44 47  1  0
 44 46  1  0
 45 43  2  0
 48 23  1  0
 48 49  1  0
 50 48  1  0
 51 52  1  0
 53 64  2  0
 54 52  1  0
 54 59  1  0
 55 63  1  0
 55 65  1  0
 56 62  1  0
 56 58  1  0
 57 63  1  0
 58 57  1  0
 59 58  2  0
 60 61  1  0
 60 54  2  0
 61 56  2  0
 62 55  1  0
 63 53  1  0
 65 67  2  0
 66 65  1  0
 68 66  1  0
 69 78  2  0
 69 74  1  0
 70 66  1  0
 70 74  1  0
 71 70  1  0
 72 73  1  0
 72 71  1  0
 73 69  1  0
 74 75  2  0
 75 76  1  0
 77 76  2  0
 78 77  1  0
 79 53  1  0
 79 80  1  0
 79 89  1  0
 80 83  1  0
 81 85  1  0
 81 80  1  0
 82 81  2  0
 85 84  1  0
 87 88  1  0
 87 85  1  0
 87 86  1  0
 89 92  1  1
 89 90  1  0
 91 89  1  0
M  ISO  4  13 100  21 100  51 101  52 101
M  END
>  <TORSDO>  (46) 
F 18

>  <SCORE>  (46) 
-14.044

>  <name>  (46) 
46

>  <ligand_id>  (46) 
46

>  <original_smiles>  (46) 
[H]c1c([H])c([H])c2c(c1[H])C([H])([H])C([H])([H])C([H])([H])C2([H])N([H])C(=O)C1([H])N(C(=O)C([H])(N([H])C(=O)C([H])(N([H])C([H])([H])[H])C([H])([H])[H])C(C([H])([H])[H])(C([H])([H])[H])C([H])([H])[H])C([H])([H])c2c([H])c(OC([H])([H])C3([H])C(=O)N(c4c([H])c([H])c(N([H])C(=O)N5C([H])([H])C([H])([H])C([H])([H])C([H])(n6nc(-c7c([H])c([H])c(Oc8c([H])c([H])c(F)c([H])c8F)c([H])c7[H])c(C(=O)N([H])[H])c6N([H])[H])C5([H])[H])c([H])c4F)C3([H])[H])c([H])c([H])c2C1([H])[H]

>  <smiles>  (46) 
[H]c1c([H])c([H])c2c(c1[H])C([H])([H])C([H])([H])C([H])([H])C2([H])N([H])C(=O)C1([H])N(C(=O)C([H])(N([H])C(=O)C([H])(N([H])C([H])([H])[H])C([H])([H])[H])C(C([H])([H])[H])(C([H])([H])[H])C([H])([H])[H])C([H])([H])c2c([H])c(OC([H])([H])C3([H])C(=O)N(c4c([H])c([H])c(N([H])C(=O)N5C([H])([H])C([H])([H])C([H])([H])C([H])(n6nc(-c7c([H])c([H])c(Oc8c([H])c([H])c(F)c([H])c8F)c([H])c7[H])c(C(=O)N([H])[H])c6N([H])[H])C5([H])[H])c([H])c4F)C3([H])[H])c([H])c([H])c2C1([H])[H]

$$$$
47:0:0
     RDKit          3D

 97106  0  0  1  0  0  0  0  0999 V2000
  -31.2300  -21.3790   20.5970 C   0  0  0  0  0  0  0  0  0  0  0  0
  -31.0150  -22.6160   20.0420 N   0  0  0  0  0  0  0  0  0  0  0  0
  -32.2480  -20.7180   20.3630 O   0  0  0  0  0  0  0  0  0  0  0  0
  -30.2910  -21.4550   22.9590 C   0  0  0  0  0  2  0  0  0  0  0  0
  -30.9040  -16.6880   23.1230 C   0  0  0  0  0  2  0  0  0  0  0  0
  -31.0780  -20.5200   23.8850 C   0  0  0  0  0  2  0  0  0  0  0  0
  -31.5260  -17.9570   23.7380 C   0  0  0  0  0  2  0  0  0  0  0  0
  -29.9720  -18.1640   21.2150 C   0  0  0  0  0  2  0  0  0  0  0  0
  -30.2250  -20.7320   21.5840 C   0  0  0  0  0  3  0  0  0  0  0  0
  -30.7110  -16.8290   21.5910 C   0  0  0  0  0  3  0  0  0  0  0  0
  -30.6620  -19.1610   23.3500 C   0  0  0  0  0  3  0  0  0  0  0  0
  -30.6360  -19.3230   21.8840 N   0  0  1  0  0  4  0  0  0  0  0  0
  -31.5940  -19.3370   21.5450 H   0  0  0  0  0  0  0  0  0  0  0  0
  -30.5590  -14.7510   20.1660 C   0  0  0  0  0  0  0  0  0  0  0  0
  -30.1930  -12.6860   18.8550 C   0  0  0  0  0  2  0  0  0  0  0  0
  -29.1740  -12.9210   17.7240 C   0  0  0  0  0  2  0  0  0  0  0  0
  -27.7350  -12.7110   18.2370 C   0  0  0  0  0  2  0  0  0  0  0  0
  -27.4530  -13.4740   19.5590 C   0  0  0  0  0  3  0  0  0  0  0  0
  -28.5810  -13.2270   20.5900 C   0  0  0  0  0  2  0  0  0  0  0  0
  -29.8620  -13.5970   19.9630 N   0  0  0  0  0  0  0  0  0  0  0  0
  -31.5880  -15.0240   19.5430 O   0  0  0  0  0  0  0  0  0  0  0  0
  -30.0520  -15.6100   21.0730 N   0  0  0  0  0  0  0  0  0  0  0  0
  -29.1810  -15.3380   21.5020 H   0  0  0  0  0  0  0  0  0  0  0  0
  -25.0650  -13.9650   20.3950 C   0  0  0  0  0  0  0  0  0  0  0  0
  -24.0490  -13.1430   20.8010 C   0  0  0  0  0  0  0  0  0  0  0  0
  -24.5620  -11.8120   20.7220 C   0  0  0  0  0  0  0  0  0  0  0  0
  -26.1350  -13.1340   20.0990 N   0  0  0  0  0  0  0  0  0  0  0  0
  -25.8370  -11.8320   20.3500 N   0  0  0  0  0  0  0  0  0  0  0  0
  -23.8980  -10.5170   20.9220 C   0  0  0  0  0  0  0  0  0  0  0  0
  -24.3570   -9.5940   21.8870 C   0  0  0  0  0  3  0  0  0  0  0  0
  -23.6910   -8.3640   22.0750 C   0  0  0  0  0  3  0  0  0  0  0  0
  -22.5510   -8.0470   21.2980 C   0  0  0  0  0  0  0  0  0  0  0  0
  -22.1130   -8.9610   20.3230 C   0  0  0  0  0  3  0  0  0  0  0  0
  -22.7800  -10.1820   20.1320 C   0  0  0  0  0  3  0  0  0  0  0  0
  -21.8570   -6.8650   21.3930 O   0  0  0  0  0  0  0  0  0  0  0  0
  -21.7710   -6.1750   22.5750 C   0  0  0  0  0  0  0  0  0  0  0  0
  -21.2200   -6.7540   23.7390 C   0  0  0  0  0  3  0  0  0  0  0  0
  -21.0870   -5.9870   24.9130 C   0  0  0  0  0  3  0  0  0  0  0  0
  -21.4930   -4.6390   24.9240 C   0  0  0  0  0  0  0  0  0  0  0  0
  -22.0360   -4.0580   23.7640 C   0  0  0  0  0  3  0  0  0  0  0  0
  -22.1710   -4.8230   22.5920 C   0  0  0  0  0  0  0  0  0  0  0  0
  -22.6760   -4.2520   21.4720 F   0  0  0  0  0  0  0  0  0  0  0  0
  -21.3590   -3.8980   26.0480 F   0  0  0  0  0  0  0  0  0  0  0  0
  -22.6480  -13.5560   21.1520 C   0  0  0  0  0  0  0  0  0  0  0  0
  -21.9940  -12.8160   22.0400 N   0  0  0  0  0  0  0  0  0  0  0  0
  -22.1440  -14.5730   20.6770 O   0  0  0  0  0  0  0  0  0  0  0  0
  -22.4130  -11.9920   22.4430 H   0  0  0  0  0  0  0  0  0  0  0  0
  -21.0580  -13.0760   22.3190 H   0  0  0  0  0  0  0  0  0  0  0  0
  -25.1670  -15.3440   20.2350 N   0  0  0  0  0  0  0  0  0  0  0  0
  -24.3830  -15.9680   20.3940 H   0  0  0  0  0  0  0  0  0  0  0  0
  -25.9830  -15.8190   19.8690 H   0  0  0  0  0  0  0  0  0  0  0  0
  -33.4790  -23.3010   19.6980 C   0  0  0  0  0  1  0  0  0  0  0  0
  -32.0400  -23.2030   19.1340 C   0  0  0  0  0  2  0  0  0  0  0  0
  -29.6710  -23.2780   20.0880 C   0  0  0  0  0  3  0  0  0  0  0  0
  -29.5910  -24.8190   19.8300 C   0  0  0  0  0  3  0  0  0  0  0  0
  -28.1850  -25.4440   19.9720 C   0  0  0  0  0  2  0  0  0  0  0  0
  -28.2650  -26.8760   19.8150 O   0  0  0  0  0  0  0  0  0  0  0  0
  -24.5500  -31.9300   23.2030 C   0  0  0  0  0  0  0  0  0  0  0  0
  -27.0880  -27.6010   19.8720 C   0  0  0  0  0  0  0  0  0  0  0  0
  -23.2930  -30.6110   21.5270 C   0  0  0  0  0  3  0  0  0  0  0  0
  -24.7030  -29.1320   19.9980 C   0  0  0  0  0  0  0  0  0  0  0  0
  -25.8140  -30.9650   21.2800 C   0  0  0  0  0  2  0  0  0  0  0  0
  -25.8770  -29.6210   20.5810 C   0  0  0  0  0  0  0  0  0  0  0  0
  -27.0740  -28.8660   20.5090 C   0  0  0  0  0  3  0  0  0  0  0  0
  -25.8920  -27.1320   19.2820 C   0  0  0  0  0  3  0  0  0  0  0  0
  -24.7070  -27.8880   19.3440 C   0  0  0  0  0  3  0  0  0  0  0  0
  -23.4650  -29.9940   20.1130 C   0  0  0  0  0  2  0  0  0  0  0  0
  -24.5740  -31.1820   22.0610 N   0  0  0  0  0  0  0  0  0  0  0  0
  -23.4850  -32.1750   23.7840 O   0  0  0  0  0  0  0  0  0  0  0  0
  -22.6620  -29.5490   22.4570 C   0  0  0  0  0  0  0  0  0  0  0  0
  -21.3350  -29.3630   22.3440 N   0  0  0  0  0  0  0  0  0  0  0  0
  -23.3630  -28.8970   23.2360 O   0  0  0  0  0  0  0  0  0  0  0  0
  -20.8320  -29.9470   21.6910 H   0  0  0  0  0  0  0  0  0  0  0  0
  -17.9760  -28.1270   22.8370 C   0  0  0  0  0  0  0  0  0  0  0  0
  -20.5350  -28.3910   23.0870 C   0  0  0  0  0  3  0  0  0  0  0  0
  -20.6390  -26.9830   22.4540 C   0  0  0  0  0  2  0  0  0  0  0  0
  -19.5240  -26.6920   21.4440 C   0  0  0  0  0  2  0  0  0  0  0  0
  -18.1500  -26.8060   22.1070 C   0  0  0  0  0  2  0  0  0  0  0  0
  -19.0950  -28.8790   23.2830 C   0  0  0  0  0  0  0  0  0  0  0  0
  -18.8750  -30.1180   23.9230 C   0  0  0  0  0  3  0  0  0  0  0  0
  -17.5720  -30.6060   24.1230 C   0  0  0  0  0  3  0  0  0  0  0  0
  -16.4660  -29.8510   23.6890 C   0  0  0  0  0  3  0  0  0  0  0  0
  -16.6690  -28.6160   23.0530 C   0  0  0  0  0  3  0  0  0  0  0  0
  -25.8540  -32.5250   23.8170 C   0  0  0  0  0  3  0  0  0  0  0  0
  -25.5760  -33.9220   24.1760 N   0  0  0  0  0  0  0  0  0  0  0  0
  -25.9120  -34.9800   23.4230 C   0  0  0  0  0  0  0  0  0  0  0  0
  -26.5560  -34.8810   22.3760 O   0  0  0  0  0  0  0  0  0  0  0  0
  -25.0060  -34.0760   24.9930 H   0  0  0  0  0  0  0  0  0  0  0  0
  -24.2070  -36.8040   23.1330 C   0  0  0  0  0  1  0  0  0  0  0  0
  -25.4590  -36.3680   23.9120 C   0  0  0  0  0  3  0  0  0  0  0  0
  -27.6200  -37.2110   24.7120 C   0  0  0  0  0  1  0  0  0  0  0  0
  -26.5060  -37.4040   23.7910 N   0  0  0  0  0  0  0  0  0  0  0  0
  -26.1160  -38.3300   23.9520 H   0  0  0  0  0  0  0  0  0  0  0  0
  -26.3730  -31.7210   25.0720 C   0  0  1  0  0  0  0  0  0  0  0  0
  -25.2910  -31.4810   26.1500 C   0  0  0  0  0  1  0  0  0  0  0  0
  -26.9290  -30.3420   24.6410 C   0  0  0  0  0  1  0  0  0  0  0  0
  -27.5450  -32.4830   25.7350 C   0  0  0  0  0  1  0  0  0  0  0  0
  2 54  1  0
  2  1  1  0
  3  1  2  0
  4  6  1  0
  5  7  1  0
  8 10  1  0
  8 12  1  0
  9  1  1  0
  9 12  1  0
  9  4  1  0
 10 22  1  0
 10  5  1  0
 11  7  1  0
 11  6  1  0
 12 13  1  6
 12 11  1  0
 14 22  1  0
 15 20  1  0
 16 17  1  0
 16 15  1  0
 18 17  1  0
 18 27  1  0
 18 19  1  0
 20 14  1  0
 20 19  1  0
 21 14  2  0
 22 23  1  0
 24 25  2  0
 25 44  1  0
 26 25  1  0
 26 29  1  0
 27 28  1  0
 27 24  1  0
 28 26  2  0
 29 30  1  0
 30 31  2  0
 32 35  1  0
 32 31  1  0
 33 32  2  0
 34 33  1  0
 34 29  2  0
 35 36  1  0
 36 41  2  0
 36 37  1  0
 37 38  2  0
 38 39  1  0
 39 43  1  0
 40 39  2  0
 41 40  1  0
 42 41  1  0
 44 45  1  0
 45 48  1  0
 45 47  1  0
 46 44  2  0
 49 50  1  0
 49 24  1  0
 51 49  1  0
 53 52  1  0
 53  2  1  0
 55 56  1  0
 55 54  2  0
 57 59  1  0
 57 56  1  0
 58 69  2  0
 59 64  1  0
 60 68  1  0
 60 70  1  0
 61 67  1  0
 61 63  1  0
 62 68  1  0
 63 62  1  0
 64 63  2  0
 65 66  1  0
 65 59  2  0
 66 61  2  0
 67 60  1  0
 68 58  1  0
 70 72  2  0
 71 70  1  0
 73 71  1  0
 74 83  2  0
 74 79  1  0
 75 71  1  0
 75 79  1  0
 76 75  1  0
 77 78  1  0
 77 76  1  0
 78 74  1  0
 79 80  2  0
 80 81  1  0
 82 81  2  0
 83 82  1  0
 84 58  1  0
 84 85  1  0
 84 94  1  0
 85 88  1  0
 86 90  1  0
 86 85  1  0
 87 86  2  0
 90 89  1  0
 92 90  1  0
 92 93  1  0
 92 91  1  0
 94 97  1  1
 94 95  1  0
 96 94  1  0
M  ISO  4  14 100  22 100  56 101  57 101
M  END
>  <TORSDO>  (47) 
F 21

>  <SCORE>  (47) 
-11.515

>  <name>  (47) 
47

>  <ligand_id>  (47) 
47

>  <original_smiles>  (47) 
[H]c1c([H])c([H])c2c(c1[H])C([H])([H])C([H])([H])C([H])([H])C2([H])N([H])C(=O)C1([H])N(C(=O)C([H])(N([H])C(=O)C([H])(N([H])C([H])([H])[H])C([H])([H])[H])C(C([H])([H])[H])(C([H])([H])[H])C([H])([H])[H])C([H])([H])c2c([H])c(OC([H])([H])C([H])([H])C([H])([H])N(C(=O)C3([H])C([H])([H])C([H])([H])C4([H])C([H])([H])C([H])([H])C([H])(N([H])C(=O)N5C([H])([H])C([H])([H])C([H])([H])C([H])(n6nc(-c7c([H])c([H])c(Oc8c([H])c([H])c(F)c([H])c8F)c([H])c7[H])c(C(=O)N([H])[H])c6N([H])[H])C5([H])[H])C([H])([H])[N+]34[H])C([H])([H])C([H])([H])[H])c([H])c([H])c2C1([H])[H]

>  <smiles>  (47) 
[H]c1c([H])c([H])c2c(c1[H])C([H])([H])C([H])([H])C([H])([H])C2([H])N([H])C(=O)C1([H])N(C(=O)C([H])(N([H])C(=O)C([H])(N([H])C([H])([H])[H])C([H])([H])[H])C(C([H])([H])[H])(C([H])([H])[H])C([H])([H])[H])C([H])([H])c2c([H])c(OC([H])([H])C([H])([H])C([H])([H])N(C(=O)C3([H])C([H])([H])C([H])([H])C4([H])C([H])([H])C([H])([H])C([H])(N([H])C(=O)N5C([H])([H])C([H])([H])C([H])([H])C([H])(n6nc(-c7c([H])c([H])c(Oc8c([H])c([H])c(F)c([H])c8F)c([H])c7[H])c(C(=O)N([H])[H])c6N([H])[H])C5([H])[H])C([H])([H])[N+]34[H])C([H])([H])C([H])([H])[H])c([H])c([H])c2C1([H])[H]

$$$$
48:0:0
     RDKit          3D

 95103  0  0  1  0  0  0  0  0999 V2000
  -30.2770  -20.7880   19.9710 C   0  0  0  0  0  0  0  0  0  0  0  0
  -31.3530  -21.5660   20.0760 N   0  0  0  0  0  4  0  0  0  0  0  0
  -29.0790  -21.3750   20.1620 N   0  0  0  0  0  0  0  0  0  0  0  0
  -32.2680  -21.1790   19.9000 H   0  0  0  0  0  0  0  0  0  0  0  0
  -31.2920  -22.4980   20.4490 H   0  0  0  0  0  0  0  0  0  0  0  0
  -28.3170  -20.7180   20.2880 H   0  0  0  0  0  0  0  0  0  0  0  0
  -30.7750  -16.7620   18.5020 C   0  0  0  0  0  3  0  0  0  0  0  0
  -31.1120  -17.8780   17.7250 C   0  0  0  0  0  3  0  0  0  0  0  0
  -30.0540  -18.2310   20.3180 C   0  0  0  0  0  3  0  0  0  0  0  0
  -30.4160  -19.3740   19.5350 C   0  0  0  0  0  0  0  0  0  0  0  0
  -30.2720  -16.9050   19.8200 C   0  0  0  0  0  0  0  0  0  0  0  0
  -30.9470  -19.1700   18.2390 C   0  0  0  0  0  0  0  0  0  0  0  0
  -31.2860  -20.2210   17.4500 F   0  0  0  0  0  0  0  0  0  0  0  0
  -30.6870  -14.5530   20.4670 C   0  0  0  0  0  0  0  0  0  0  0  0
  -30.3690  -12.3520   19.4310 C   0  0  0  0  0  2  0  0  0  0  0  0
  -29.4640  -12.5320   18.1950 C   0  0  0  0  0  2  0  0  0  0  0  0
  -27.9820  -12.4080   18.5970 C   0  0  0  0  0  2  0  0  0  0  0  0
  -27.6160  -13.2790   19.8290 C   0  0  0  0  0  3  0  0  0  0  0  0
  -28.6530  -13.1280   20.9670 C   0  0  0  0  0  2  0  0  0  0  0  0
  -29.9850  -13.3870   20.4060 N   0  0  0  0  0  0  0  0  0  0  0  0
  -31.8830  -14.6080   20.1750 O   0  0  0  0  0  0  0  0  0  0  0  0
  -29.9760  -15.7070   20.5800 N   0  0  0  0  0  0  0  0  0  0  0  0
  -29.0590  -15.6460   20.9950 H   0  0  0  0  0  0  0  0  0  0  0  0
  -25.2110  -13.8920   20.4960 C   0  0  0  0  0  0  0  0  0  0  0  0
  -24.1340  -13.1270   20.8540 C   0  0  0  0  0  0  0  0  0  0  0  0
  -24.5930  -11.7730   20.8480 C   0  0  0  0  0  0  0  0  0  0  0  0
  -26.2570  -13.0070   20.2930 N   0  0  0  0  0  0  0  0  0  0  0  0
  -25.8890  -11.7280   20.5660 N   0  0  0  0  0  0  0  0  0  0  0  0
  -23.8590  -10.5150   21.0380 C   0  0  0  0  0  0  0  0  0  0  0  0
  -24.2780   -9.5500   21.9800 C   0  0  0  0  0  3  0  0  0  0  0  0
  -23.5450   -8.3570   22.1570 C   0  0  0  0  0  3  0  0  0  0  0  0
  -22.3780   -8.1200   21.3940 C   0  0  0  0  0  0  0  0  0  0  0  0
  -21.9780   -9.0740   20.4410 C   0  0  0  0  0  3  0  0  0  0  0  0
  -22.7120  -10.2590   20.2610 C   0  0  0  0  0  3  0  0  0  0  0  0
  -21.6170   -6.9790   21.4790 O   0  0  0  0  0  0  0  0  0  0  0  0
  -21.5620   -6.2360   22.6320 C   0  0  0  0  0  0  0  0  0  0  0  0
  -21.1380   -6.7940   23.8580 C   0  0  0  0  0  3  0  0  0  0  0  0
  -21.0300   -5.9780   25.0020 C   0  0  0  0  0  3  0  0  0  0  0  0
  -21.3350   -4.6060   24.9210 C   0  0  0  0  0  0  0  0  0  0  0  0
  -21.7520   -4.0480   23.6990 C   0  0  0  0  0  3  0  0  0  0  0  0
  -21.8620   -4.8610   22.5580 C   0  0  0  0  0  0  0  0  0  0  0  0
  -22.2440   -4.3140   21.3790 F   0  0  0  0  0  0  0  0  0  0  0  0
  -21.2230   -3.8200   26.0180 F   0  0  0  0  0  0  0  0  0  0  0  0
  -22.7330  -13.6110   21.0910 C   0  0  0  0  0  0  0  0  0  0  0  0
  -21.9840  -12.9260   21.9480 N   0  0  0  0  0  0  0  0  0  0  0  0
  -22.3100  -14.6310   20.5510 O   0  0  0  0  0  0  0  0  0  0  0  0
  -22.3390  -12.1020   22.4100 H   0  0  0  0  0  0  0  0  0  0  0  0
  -21.0420  -13.2330   22.1480 H   0  0  0  0  0  0  0  0  0  0  0  0
  -25.3820  -15.2600   20.3050 N   0  0  0  0  0  0  0  0  0  0  0  0
  -24.6120  -15.9150   20.3860 H   0  0  0  0  0  0  0  0  0  0  0  0
  -26.2330  -15.6920   19.9680 H   0  0  0  0  0  0  0  0  0  0  0  0
  -28.6360  -22.7080   19.6420 C   0  0  0  0  0  2  0  0  0  0  0  0
  -29.0580  -24.0380   20.3530 C   0  0  0  0  0  2  0  0  0  0  0  0
  -28.1040  -25.1780   19.8710 C   0  0  0  0  0  2  0  0  0  0  0  0
  -28.3180  -26.5760   20.2270 O   0  0  0  0  0  0  0  0  0  0  0  0
  -24.5720  -31.8880   23.2450 C   0  0  0  0  0  0  0  0  0  0  0  0
  -27.1890  -27.3960   20.1580 C   0  0  0  0  0  0  0  0  0  0  0  0
  -23.3660  -30.4980   21.5980 C   0  0  0  0  0  3  0  0  0  0  0  0
  -24.8160  -28.9710   20.1620 C   0  0  0  0  0  0  0  0  0  0  0  0
  -25.9030  -30.8310   21.4150 C   0  0  0  0  0  2  0  0  0  0  0  0
  -25.9820  -29.4620   20.7640 C   0  0  0  0  0  0  0  0  0  0  0  0
  -27.1690  -28.6820   20.7630 C   0  0  0  0  0  3  0  0  0  0  0  0
  -26.0020  -26.9620   19.5110 C   0  0  0  0  0  3  0  0  0  0  0  0
  -24.8250  -27.7220   19.5310 C   0  0  0  0  0  3  0  0  0  0  0  0
  -23.5780  -29.8360   20.2130 C   0  0  0  0  0  2  0  0  0  0  0  0
  -24.6310  -31.0870   22.1430 N   0  0  0  0  0  0  0  0  0  0  0  0
  -23.4880  -32.1620   23.7800 O   0  0  0  0  0  0  0  0  0  0  0  0
  -22.7100  -29.4700   22.5510 C   0  0  0  0  0  0  0  0  0  0  0  0
  -21.3870  -29.2840   22.4150 N   0  0  0  0  0  0  0  0  0  0  0  0
  -23.3890  -28.8440   23.3700 O   0  0  0  0  0  0  0  0  0  0  0  0
  -20.9000  -29.8410   21.7280 H   0  0  0  0  0  0  0  0  0  0  0  0
  -18.0150  -28.0630   22.8760 C   0  0  0  0  0  0  0  0  0  0  0  0
  -20.5670  -28.3440   23.1810 C   0  0  0  0  0  3  0  0  0  0  0  0
  -20.6880  -26.9100   22.6150 C   0  0  0  0  0  2  0  0  0  0  0  0
  -19.6030  -26.5720   21.5890 C   0  0  0  0  0  2  0  0  0  0  0  0
  -18.2110  -26.7110   22.2130 C   0  0  0  0  0  2  0  0  0  0  0  0
  -19.1210  -28.8380   23.3160 C   0  0  0  0  0  0  0  0  0  0  0  0
  -18.8850  -30.1030   23.8960 C   0  0  0  0  0  3  0  0  0  0  0  0
  -17.5740  -30.5960   24.0390 C   0  0  0  0  0  3  0  0  0  0  0  0
  -16.4810  -29.8190   23.6160 C   0  0  0  0  0  3  0  0  0  0  0  0
  -16.7030  -28.5540   23.0410 C   0  0  0  0  0  3  0  0  0  0  0  0
  -25.8570  -32.5160   23.8670 C   0  0  0  0  0  3  0  0  0  0  0  0
  -26.3660  -31.7450   25.1460 C   0  0  1  0  0  0  0  0  0  0  0  0
  -25.2690  -31.5160   26.2120 C   0  0  0  0  0  1  0  0  0  0  0  0
  -26.9450  -30.3650   24.7600 C   0  0  0  0  0  1  0  0  0  0  0  0
  -27.5180  -32.5380   25.8090 C   0  0  0  0  0  1  0  0  0  0  0  0
  -25.5520  -33.9160   24.1900 N   0  0  0  0  0  0  0  0  0  0  0  0
  -25.8920  -34.9630   23.4270 C   0  0  0  0  0  0  0  0  0  0  0  0
  -26.5660  -34.8530   22.3990 O   0  0  0  0  0  0  0  0  0  0  0  0
  -24.9570  -34.0760   24.9890 H   0  0  0  0  0  0  0  0  0  0  0  0
  -24.1770  -36.7630   23.0500 C   0  0  0  0  0  1  0  0  0  0  0  0
  -25.4070  -36.3550   23.8760 C   0  0  0  0  0  3  0  0  0  0  0  0
  -27.5380  -37.2300   24.7270 C   0  0  0  0  0  1  0  0  0  0  0  0
  -26.4470  -37.4020   23.7710 N   0  0  0  0  0  0  0  0  0  0  0  0
  -26.0450  -38.3250   23.9110 H   0  0  0  0  0  0  0  0  0  0  0  0
  1  2  2  0
  1  3  1  0
  2  5  1  0
  3  6  1  0
  4  2  1  0
  7 11  1  0
  8 12  1  0
  8  7  2  0
 10  1  1  0
 10  9  1  0
 11  9  2  0
 11 22  1  0
 12 10  2  0
 13 12  1  0
 14 22  1  0
 15 20  1  0
 16 17  1  0
 16 15  1  0
 18 17  1  0
 18 27  1  0
 18 19  1  0
 20 14  1  0
 20 19  1  0
 21 14  2  0
 22 23  1  0
 24 25  2  0
 25 44  1  0
 26 25  1  0
 26 29  1  0
 27 24  1  0
 27 28  1  0
 28 26  2  0
 29 30  1  0
 30 31  2  0
 32 35  1  0
 32 31  1  0
 33 32  2  0
 34 33  1  0
 34 29  2  0
 35 36  1  0
 36 37  1  0
 37 38  2  0
 39 38  1  0
 39 43  1  0
 40 39  2  0
 41 36  2  0
 41 40  1  0
 42 41  1  0
 44 45  1  0
 45 48  1  0
 45 47  1  0
 46 44  2  0
 49 50  1  0
 49 24  1  0
 51 49  1  0
 52  3  1  0
 52 53  1  0
 54 55  1  0
 54 53  1  0
 56 67  2  0
 57 55  1  0
 57 62  1  0
 58 66  1  0
 58 68  1  0
 59 65  1  0
 59 61  1  0
 60 66  1  0
 61 60  1  0
 62 61  2  0
 63 64  1  0
 63 57  2  0
 64 59  2  0
 65 58  1  0
 66 56  1  0
 68 70  2  0
 69 68  1  0
 71 69  1  0
 72 81  2  0
 72 77  1  0
 73 69  1  0
 73 77  1  0
 74 73  1  0
 75 76  1  0
 75 74  1  0
 76 72  1  0
 77 78  2  0
 78 79  1  0
 80 79  2  0
 81 80  1  0
 82 56  1  0
 82 87  1  0
 82 83  1  0
 83 86  1  1
 83 84  1  0
 85 83  1  0
 87 90  1  0
 88 92  1  0
 88 87  1  0
 89 88  2  0
 92 91  1  0
 94 92  1  0
 94 95  1  0
 94 93  1  0
M  ISO  4  14 100  22 100  54 101  55 101
M  END
>  <TORSDO>  (48) 
F 20

>  <SCORE>  (48) 
-13.794

>  <name>  (48) 
48

>  <ligand_id>  (48) 
48

>  <original_smiles>  (48) 
[H]c1c([H])c([H])c2c(c1[H])C([H])([H])C([H])([H])C([H])([H])C2([H])N([H])C(=O)C1([H])N(C(=O)C([H])(N([H])C(=O)C([H])(N([H])C([H])([H])[H])C([H])([H])[H])C(C([H])([H])[H])(C([H])([H])[H])C([H])([H])[H])C([H])([H])c2c([H])c(OC([H])([H])C([H])([H])C([H])([H])[N+]([H])=C(c3c([H])c(N([H])C(=O)N4C([H])([H])C([H])([H])C([H])([H])C([H])(n5nc(-c6c([H])c([H])c(Oc7c([H])c([H])c(F)c([H])c7F)c([H])c6[H])c(C(=O)N([H])[H])c5N([H])[H])C4([H])[H])c([H])c([H])c3F)N([H])[H])c([H])c([H])c2C1([H])[H]

>  <smiles>  (48) 
[H]c1c([H])c([H])c2c(c1[H])C([H])([H])C([H])([H])C([H])([H])C2([H])N([H])C(=O)C1([H])N(C(=O)C([H])(N([H])C(=O)C([H])(N([H])C([H])([H])[H])C([H])([H])[H])C(C([H])([H])[H])(C([H])([H])[H])C([H])([H])[H])C([H])([H])c2c([H])c(OC([H])([H])C([H])([H])C([H])([H])[N+]([H])=C(c3c([H])c(N([H])C(=O)N4C([H])([H])C([H])([H])C([H])([H])C([H])(n5nc(-c6c([H])c([H])c(Oc7c([H])c([H])c(F)c([H])c7F)c([H])c6[H])c(C(=O)N([H])[H])c5N([H])[H])C4([H])[H])c([H])c([H])c3F)N([H])[H])c([H])c([H])c2C1([H])[H]

$$$$
49:0:0
     RDKit          3D

 99108  0  0  1  0  0  0  0  0999 V2000
  -27.0170  -20.8910   18.8690 C   0  0  0  0  0  0  0  0  0  0  0  0
  -27.9700  -21.8400   19.0410 C   0  0  0  0  0  3  0  0  0  0  0  0
  -25.5390  -21.2150   18.9520 C   0  0  0  0  0  2  0  0  0  0  0  0
  -24.8590  -20.1310   18.1190 C   0  0  0  0  0  2  0  0  0  0  0  0
  -25.8330  -18.9580   18.2010 C   0  0  0  0  0  2  0  0  0  0  0  0
  -27.1330  -19.5560   18.4850 N   0  0  0  0  0  0  0  0  0  0  0  0
  -28.0350  -18.4370   20.4630 C   0  0  0  0  0  3  0  0  0  0  0  0
  -28.8510  -17.4410   21.0330 C   0  0  0  0  0  3  0  0  0  0  0  0
  -29.6580  -16.8390   18.8100 C   0  0  0  0  0  3  0  0  0  0  0  0
  -27.9970  -18.6150   19.0620 C   0  0  0  0  0  0  0  0  0  0  0  0
  -29.6640  -16.6280   20.2140 C   0  0  0  0  0  0  0  0  0  0  0  0
  -28.8100  -17.8060   18.2380 C   0  0  0  0  0  0  0  0  0  0  0  0
  -28.7770  -17.9510   16.8890 F   0  0  0  0  0  0  0  0  0  0  0  0
  -31.0280  -14.6000   20.1500 C   0  0  0  0  0  0  0  0  0  0  0  0
  -30.6630  -12.4890   18.9410 C   0  0  0  0  0  2  0  0  0  0  0  0
  -29.6970  -12.7610   17.7680 C   0  0  0  0  0  2  0  0  0  0  0  0
  -28.2270  -12.6650   18.2210 C   0  0  0  0  0  2  0  0  0  0  0  0
  -27.9450  -13.4750   19.5130 C   0  0  0  0  0  3  0  0  0  0  0  0
  -29.0100  -13.1610   20.5900 C   0  0  0  0  0  2  0  0  0  0  0  0
  -30.3430  -13.4350   20.0190 N   0  0  0  0  0  0  0  0  0  0  0  0
  -32.1030  -14.8340   19.5870 O   0  0  0  0  0  0  0  0  0  0  0  0
  -30.3780  -15.5580   20.8270 N   0  0  0  0  0  0  0  0  0  0  0  0
  -29.9330  -15.2180   21.6660 H   0  0  0  0  0  0  0  0  0  0  0  0
  -25.5730  -14.1560   20.2510 C   0  0  0  0  0  0  0  0  0  0  0  0
  -24.4900  -13.4120   20.6350 C   0  0  0  0  0  0  0  0  0  0  0  0
  -24.9140  -12.0480   20.6030 C   0  0  0  0  0  0  0  0  0  0  0  0
  -26.5900  -13.2440   20.0080 N   0  0  0  0  0  0  0  0  0  0  0  0
  -26.1970  -11.9740   20.2720 N   0  0  0  0  0  0  0  0  0  0  0  0
  -24.1620  -10.8060   20.8140 C   0  0  0  0  0  0  0  0  0  0  0  0
  -24.5250   -9.8830   21.8190 C   0  0  0  0  0  3  0  0  0  0  0  0
  -23.7760   -8.7030   22.0120 C   0  0  0  0  0  3  0  0  0  0  0  0
  -22.6510   -8.4360   21.1970 C   0  0  0  0  0  0  0  0  0  0  0  0
  -22.3080   -9.3470   20.1820 C   0  0  0  0  0  3  0  0  0  0  0  0
  -23.0580  -10.5190   19.9890 C   0  0  0  0  0  3  0  0  0  0  0  0
  -21.8800   -7.3040   21.2950 O   0  0  0  0  0  0  0  0  0  0  0  0
  -21.6680   -6.6780   22.4970 C   0  0  0  0  0  0  0  0  0  0  0  0
  -21.0490   -7.3380   23.5810 C   0  0  0  0  0  3  0  0  0  0  0  0
  -20.7880   -6.6380   24.7760 C   0  0  0  0  0  3  0  0  0  0  0  0
  -21.1360   -5.2780   24.8850 C   0  0  0  0  0  0  0  0  0  0  0  0
  -21.7470   -4.6170   23.8060 C   0  0  0  0  0  3  0  0  0  0  0  0
  -22.0100   -5.3160   22.6140 C   0  0  0  0  0  0  0  0  0  0  0  0
  -22.5820   -4.6700   21.5690 F   0  0  0  0  0  0  0  0  0  0  0  0
  -20.8770   -4.6010   26.0300 F   0  0  0  0  0  0  0  0  0  0  0  0
  -23.1110  -13.9260   20.9320 C   0  0  0  0  0  0  0  0  0  0  0  0
  -22.3820  -13.2540   21.8170 N   0  0  0  0  0  0  0  0  0  0  0  0
  -22.6870  -14.9580   20.4130 O   0  0  0  0  0  0  0  0  0  0  0  0
  -22.7370  -12.4160   22.2570 H   0  0  0  0  0  0  0  0  0  0  0  0
  -21.4580  -13.5810   22.0580 H   0  0  0  0  0  0  0  0  0  0  0  0
  -25.7730  -15.5220   20.0800 N   0  0  0  0  0  0  0  0  0  0  0  0
  -25.0320  -16.1940   20.2470 H   0  0  0  0  0  0  0  0  0  0  0  0
  -26.6650  -15.9460   19.8690 H   0  0  0  0  0  0  0  0  0  0  0  0
  -29.4220  -21.6760   18.8980 C   0  0  0  0  0  0  0  0  0  0  0  0
  -31.5600  -22.7260   18.3370 C   0  0  0  0  0  1  0  0  0  0  0  0
  -30.1020  -22.7900   18.5140 N   0  0  0  0  0  0  0  0  0  0  0  0
  -30.0320  -20.6290   19.1330 O   0  0  0  0  0  0  0  0  0  0  0  0
  -29.5270  -24.1020   18.1730 C   0  0  0  0  0  2  0  0  0  0  0  0
  -29.4120  -25.0050   19.4170 C   0  0  0  0  0  2  0  0  0  0  0  0
  -29.0070  -26.4360   19.0570 C   0  0  0  0  0  2  0  0  0  0  0  0
  -28.6370  -27.1220   20.2520 O   0  0  0  0  0  0  0  0  0  0  0  0
  -24.6240  -32.0630   23.3890 C   0  0  0  0  0  0  0  0  0  0  0  0
  -27.4150  -27.7520   20.2750 C   0  0  0  0  0  0  0  0  0  0  0  0
  -23.4660  -30.6510   21.7210 C   0  0  0  0  0  3  0  0  0  0  0  0
  -24.9680  -29.1620   20.3020 C   0  0  0  0  0  0  0  0  0  0  0  0
  -25.9790  -31.0790   21.5480 C   0  0  0  0  0  2  0  0  0  0  0  0
  -26.1040  -29.7150   20.9060 C   0  0  0  0  0  0  0  0  0  0  0  0
  -27.3250  -29.0100   20.9040 C   0  0  0  0  0  3  0  0  0  0  0  0
  -26.2510  -27.1840   19.7060 C   0  0  0  0  0  3  0  0  0  0  0  0
  -25.0330  -27.8880   19.7100 C   0  0  0  0  0  3  0  0  0  0  0  0
  -23.7030  -29.9870   20.3370 C   0  0  0  0  0  2  0  0  0  0  0  0
  -24.7070  -31.2770   22.2790 N   0  0  0  0  0  0  0  0  0  0  0  0
  -23.5330  -32.3040   23.9220 O   0  0  0  0  0  0  0  0  0  0  0  0
  -22.8330  -29.6030   22.6630 C   0  0  0  0  0  0  0  0  0  0  0  0
  -21.5260  -29.3550   22.4860 N   0  0  0  0  0  0  0  0  0  0  0  0
  -23.5150  -29.0160   23.5080 O   0  0  0  0  0  0  0  0  0  0  0  0
  -21.0370  -29.8840   21.7770 H   0  0  0  0  0  0  0  0  0  0  0  0
  -18.2050  -27.9760   22.8230 C   0  0  0  0  0  0  0  0  0  0  0  0
  -20.7260  -28.3830   23.2280 C   0  0  0  0  0  3  0  0  0  0  0  0
  -20.9410  -26.9520   22.6830 C   0  0  0  0  0  2  0  0  0  0  0  0
  -19.9160  -26.5520   21.6180 C   0  0  0  0  0  2  0  0  0  0  0  0
  -18.4950  -26.6280   22.1850 C   0  0  0  0  0  2  0  0  0  0  0  0
  -19.2540  -28.8070   23.2990 C   0  0  0  0  0  0  0  0  0  0  0  0
  -18.9340  -30.0660   23.8520 C   0  0  0  0  0  3  0  0  0  0  0  0
  -17.5970  -30.4960   23.9370 C   0  0  0  0  0  3  0  0  0  0  0  0
  -16.5610  -29.6630   23.4800 C   0  0  0  0  0  3  0  0  0  0  0  0
  -16.8660  -28.4060   22.9280 C   0  0  0  0  0  3  0  0  0  0  0  0
  -25.8910  -32.7140   24.0280 C   0  0  0  0  0  3  0  0  0  0  0  0
  -25.5690  -34.1180   24.3130 N   0  0  0  0  0  0  0  0  0  0  0  0
  -25.9220  -35.1510   23.5360 C   0  0  0  0  0  0  0  0  0  0  0  0
  -26.6250  -35.0230   22.5290 O   0  0  0  0  0  0  0  0  0  0  0  0
  -24.9470  -34.2910   25.0890 H   0  0  0  0  0  0  0  0  0  0  0  0
  -24.2000  -36.9250   23.0750 C   0  0  0  0  0  1  0  0  0  0  0  0
  -25.4130  -36.5480   23.9400 C   0  0  0  0  0  3  0  0  0  0  0  0
  -27.5120  -37.4660   24.8230 C   0  0  0  0  0  1  0  0  0  0  0  0
  -26.4460  -37.6020   23.8360 N   0  0  0  0  0  0  0  0  0  0  0  0
  -26.0300  -38.5240   23.9420 H   0  0  0  0  0  0  0  0  0  0  0  0
  -26.3780  -31.9740   25.3350 C   0  0  1  0  0  0  0  0  0  0  0  0
  -25.2550  -31.7510   26.3740 C   0  0  0  0  0  1  0  0  0  0  0  0
  -26.9830  -30.5940   24.9850 C   0  0  0  0  0  1  0  0  0  0  0  0
  -27.5000  -32.7940   26.0150 C   0  0  0  0  0  1  0  0  0  0  0  0
  1  3  1  0
  1  2  2  0
  4  5  1  0
  4  3  1  0
  5  6  1  0
  6  1  1  0
  6 10  1  0
  7  8  1  0
  9 11  1  0
 10  7  2  0
 11 22  1  0
 11  8  2  0
 12  9  2  0
 12 10  1  0
 13 12  1  0
 14 22  1  0
 15 20  1  0
 16 17  1  0
 16 15  1  0
 18 17  1  0
 18 27  1  0
 18 19  1  0
 20 14  1  0
 20 19  1  0
 21 14  2  0
 22 23  1  0
 24 25  2  0
 25 44  1  0
 26 25  1  0
 26 29  1  0
 27 24  1  0
 27 28  1  0
 28 26  2  0
 29 30  1  0
 30 31  2  0
 32 35  1  0
 32 31  1  0
 33 32  2  0
 34 33  1  0
 34 29  2  0
 35 36  1  0
 36 41  2  0
 36 37  1  0
 37 38  2  0
 38 39  1  0
 39 43  1  0
 40 39  2  0
 41 40  1  0
 42 41  1  0
 44 45  1  0
 45 48  1  0
 45 47  1  0
 46 44  2  0
 49 50  1  0
 49 24  1  0
 51 49  1  0
 52  2  1  0
 52 55  2  0
 53 54  1  0
 54 52  1  0
 56 54  1  0
 56 57  1  0
 58 57  1  0
 58 59  1  0
 59 61  1  0
 60 71  2  0
 61 66  1  0
 62 70  1  0
 62 72  1  0
 63 69  1  0
 63 65  1  0
 64 70  1  0
 65 64  1  0
 66 65  2  0
 67 68  1  0
 67 61  2  0
 68 63  2  0
 69 62  1  0
 70 60  1  0
 72 74  2  0
 73 72  1  0
 75 73  1  0
 76 85  2  0
 76 81  1  0
 77 73  1  0
 77 81  1  0
 78 77  1  0
 79 80  1  0
 79 78  1  0
 80 76  1  0
 81 82  2  0
 82 83  1  0
 84 83  2  0
 85 84  1  0
 86 60  1  0
 86 87  1  0
 86 96  1  0
 87 90  1  0
 88 92  1  0
 88 87  1  0
 89 88  2  0
 92 91  1  0
 94 92  1  0
 94 95  1  0
 94 93  1  0
 96 99  1  1
 96 97  1  0
 98 96  1  0
M  ISO  4  14 100  22 100  58 101  59 101
M  END
>  <TORSDO>  (49) 
F 21

>  <SCORE>  (49) 
-11.393

>  <name>  (49) 
49

>  <ligand_id>  (49) 
49

>  <original_smiles>  (49) 
[H]C(C(=O)N(C([H])([H])[H])C([H])([H])C([H])([H])C([H])([H])Oc1c([H])c([H])c2c(c1[H])C([H])([H])N(C(=O)C([H])(N([H])C(=O)C([H])(N([H])C([H])([H])[H])C([H])([H])[H])C(C([H])([H])[H])(C([H])([H])[H])C([H])([H])[H])C([H])(C(=O)N([H])C1([H])c3c([H])c([H])c([H])c([H])c3C([H])([H])C([H])([H])C1([H])[H])C2([H])[H])=C1N(c2c([H])c([H])c(N([H])C(=O)N3C([H])([H])C([H])([H])C([H])([H])C([H])(n4nc(-c5c([H])c([H])c(Oc6c([H])c([H])c(F)c([H])c6F)c([H])c5[H])c(C(=O)N([H])[H])c4N([H])[H])C3([H])[H])c([H])c2F)C([H])([H])C([H])([H])C1([H])[H]

>  <smiles>  (49) 
[H]C(C(=O)N(C([H])([H])[H])C([H])([H])C([H])([H])C([H])([H])Oc1c([H])c([H])c2c(c1[H])C([H])([H])N(C(=O)C([H])(N([H])C(=O)C([H])(N([H])C([H])([H])[H])C([H])([H])[H])C(C([H])([H])[H])(C([H])([H])[H])C([H])([H])[H])C([H])(C(=O)N([H])C1([H])c3c([H])c([H])c([H])c([H])c3C([H])([H])C([H])([H])C1([H])[H])C2([H])[H])=C1N(c2c([H])c([H])c(N([H])C(=O)N3C([H])([H])C([H])([H])C([H])([H])C([H])(n4nc(-c5c([H])c([H])c(Oc6c([H])c([H])c(F)c([H])c6F)c([H])c5[H])c(C(=O)N([H])[H])c4N([H])[H])C3([H])[H])c([H])c2F)C([H])([H])C([H])([H])C1([H])[H]

$$$$
50:0:0
     RDKit          3D

 90 98  0  0  1  0  0  0  0  0999 V2000
  -30.2460  -17.9520   18.7680 C   0  0  0  0  0  3  0  0  0  0  0  0
  -29.7820  -20.4050   18.6970 C   0  0  0  0  0  3  0  0  0  0  0  0
  -29.3390  -19.1070   20.6900 C   0  0  0  0  0  3  0  0  0  0  0  0
  -30.2220  -19.1970   18.0900 C   0  0  0  0  0  0  0  0  0  0  0  0
  -29.7970  -17.7960   20.0960 C   0  0  0  0  0  0  0  0  0  0  0  0
  -29.3160  -20.4700   20.0290 C   0  0  0  0  0  0  0  0  0  0  0  0
  -30.6540  -19.2310   16.6370 C   0  0  0  0  0  1  0  0  0  0  0  0
  -30.4910  -15.1120   20.4140 C   0  0  0  0  0  0  0  0  0  0  0  0
  -30.4270  -12.7000   19.5890 C   0  0  0  0  0  2  0  0  0  0  0  0
  -29.5420  -12.5860   18.3240 C   0  0  0  0  0  2  0  0  0  0  0  0
  -28.0710  -12.3640   18.7140 C   0  0  0  0  0  2  0  0  0  0  0  0
  -27.6120  -13.3330   19.8350 C   0  0  0  0  0  3  0  0  0  0  0  0
  -28.6260  -13.4160   20.9970 C   0  0  0  0  0  2  0  0  0  0  0  0
  -29.9120  -13.8320   20.4230 N   0  0  0  0  0  0  0  0  0  0  0  0
  -31.6890  -15.1500   20.1070 O   0  0  0  0  0  0  0  0  0  0  0  0
  -29.7390  -16.3270   20.6390 N   0  0  0  0  0  0  0  0  0  0  0  0
  -28.8790  -16.1320   21.1290 H   0  0  0  0  0  0  0  0  0  0  0  0
  -25.2140  -13.9180   20.4920 C   0  0  0  0  0  0  0  0  0  0  0  0
  -24.1390  -13.1500   20.8430 C   0  0  0  0  0  0  0  0  0  0  0  0
  -24.6030  -11.7980   20.8510 C   0  0  0  0  0  0  0  0  0  0  0  0
  -26.2620  -13.0360   20.2990 N   0  0  0  0  0  0  0  0  0  0  0  0
  -25.9040  -11.7570   20.5810 N   0  0  0  0  0  0  0  0  0  0  0  0
  -23.8690  -10.5390   21.0380 C   0  0  0  0  0  0  0  0  0  0  0  0
  -24.2790   -9.5760   21.9860 C   0  0  0  0  0  3  0  0  0  0  0  0
  -23.5430   -8.3850   22.1630 C   0  0  0  0  0  3  0  0  0  0  0  0
  -22.3810   -8.1480   21.3890 C   0  0  0  0  0  0  0  0  0  0  0  0
  -21.9880   -9.0980   20.4310 C   0  0  0  0  0  3  0  0  0  0  0  0
  -22.7260  -10.2810   20.2540 C   0  0  0  0  0  3  0  0  0  0  0  0
  -21.6180   -7.0090   21.4760 O   0  0  0  0  0  0  0  0  0  0  0  0
  -21.5580   -6.2660   22.6280 C   0  0  0  0  0  0  0  0  0  0  0  0
  -21.1450   -6.8290   23.8550 C   0  0  0  0  0  3  0  0  0  0  0  0
  -21.0310   -6.0140   25.0000 C   0  0  0  0  0  3  0  0  0  0  0  0
  -21.3220   -4.6390   24.9190 C   0  0  0  0  0  0  0  0  0  0  0  0
  -21.7250   -4.0750   23.6960 C   0  0  0  0  0  3  0  0  0  0  0  0
  -21.8410   -4.8870   22.5530 C   0  0  0  0  0  0  0  0  0  0  0  0
  -22.2130   -4.3350   21.3720 F   0  0  0  0  0  0  0  0  0  0  0  0
  -21.2030   -3.8540   26.0160 F   0  0  0  0  0  0  0  0  0  0  0  0
  -22.7350  -13.6320   21.0590 C   0  0  0  0  0  0  0  0  0  0  0  0
  -21.9770  -12.9550   21.9140 N   0  0  0  0  0  0  0  0  0  0  0  0
  -22.3180  -14.6490   20.5070 O   0  0  0  0  0  0  0  0  0  0  0  0
  -22.3250  -12.1310   22.3840 H   0  0  0  0  0  0  0  0  0  0  0  0
  -21.0340  -13.2640   22.1040 H   0  0  0  0  0  0  0  0  0  0  0  0
  -25.3840  -15.2860   20.2930 N   0  0  0  0  0  0  0  0  0  0  0  0
  -24.6080  -15.9390   20.3420 H   0  0  0  0  0  0  0  0  0  0  0  0
  -26.2400  -15.7150   19.9660 H   0  0  0  0  0  0  0  0  0  0  0  0
  -28.7660  -21.8440   22.0030 C   0  0  0  0  0  1  0  0  0  0  0  0
  -28.9470  -21.8460   20.5560 N   0  0  0  0  0  0  0  0  0  0  0  0
  -28.1790  -23.0780   19.8940 C   0  0  0  0  0  2  0  0  0  0  0  0
  -28.6330  -24.7320   19.6730 C   0  0  0  0  0  2  0  0  0  0  0  0
  -28.3440  -26.1690   20.2710 O   0  0  0  0  0  0  0  0  0  0  0  0
  -24.6730  -31.8680   23.1670 C   0  0  0  0  0  0  0  0  0  0  0  0
  -27.2740  -27.1380   20.1070 C   0  0  0  0  0  0  0  0  0  0  0  0
  -23.4760  -30.4630   21.5300 C   0  0  0  0  0  3  0  0  0  0  0  0
  -24.9340  -28.8890   20.0860 C   0  0  0  0  0  0  0  0  0  0  0  0
  -26.0260  -30.7330   21.3590 C   0  0  0  0  0  2  0  0  0  0  0  0
  -26.1060  -29.3390   20.6990 C   0  0  0  0  0  0  0  0  0  0  0  0
  -27.2700  -28.4750   20.6980 C   0  0  0  0  0  3  0  0  0  0  0  0
  -26.0800  -26.8020   19.4350 C   0  0  0  0  0  3  0  0  0  0  0  0
  -24.9350  -27.6410   19.4350 C   0  0  0  0  0  3  0  0  0  0  0  0
  -23.6950  -29.7780   20.1510 C   0  0  0  0  0  2  0  0  0  0  0  0
  -24.7450  -31.0450   22.0740 N   0  0  0  0  0  0  0  0  0  0  0  0
  -23.5880  -32.1480   23.6990 O   0  0  0  0  0  0  0  0  0  0  0  0
  -22.8040  -29.4600   22.4980 C   0  0  0  0  0  0  0  0  0  0  0  0
  -21.4720  -29.2970   22.3910 N   0  0  0  0  0  0  0  0  0  0  0  0
  -23.4840  -28.8280   23.3110 O   0  0  0  0  0  0  0  0  0  0  0  0
  -20.9820  -29.8570   21.7080 H   0  0  0  0  0  0  0  0  0  0  0  0
  -18.0940  -28.0980   22.9290 C   0  0  0  0  0  0  0  0  0  0  0  0
  -20.6580  -28.3570   23.1650 C   0  0  0  0  0  3  0  0  0  0  0  0
  -20.7510  -26.9270   22.5800 C   0  0  0  0  0  2  0  0  0  0  0  0
  -19.6350  -26.6150   21.5760 C   0  0  0  0  0  2  0  0  0  0  0  0
  -18.2610  -26.7560   22.2370 C   0  0  0  0  0  2  0  0  0  0  0  0
  -19.2200  -28.8580   23.3500 C   0  0  0  0  0  0  0  0  0  0  0  0
  -19.0100  -30.1120   23.9580 C   0  0  0  0  0  3  0  0  0  0  0  0
  -17.7080  -30.6140   24.1470 C   0  0  0  0  0  3  0  0  0  0  0  0
  -16.5970  -29.8520   23.7410 C   0  0  0  0  0  3  0  0  0  0  0  0
  -16.7920  -28.5960   23.1400 C   0  0  0  0  0  3  0  0  0  0  0  0
  -25.9500  -32.5100   23.7920 C   0  0  0  0  0  3  0  0  0  0  0  0
  -26.4870  -31.7270   25.0560 C   0  0  1  0  0  0  0  0  0  0  0  0
  -25.4060  -31.4680   26.1320 C   0  0  0  0  0  1  0  0  0  0  0  0
  -27.0770  -30.3570   24.6450 C   0  0  0  0  0  1  0  0  0  0  0  0
  -27.6360  -32.5250   25.7160 C   0  0  0  0  0  1  0  0  0  0  0  0
  -25.6200  -33.8990   24.1580 N   0  0  0  0  0  0  0  0  0  0  0  0
  -25.9330  -34.9780   23.4330 C   0  0  0  0  0  0  0  0  0  0  0  0
  -26.5950  -34.9120   22.3940 O   0  0  0  0  0  0  0  0  0  0  0  0
  -25.0180  -34.0190   24.9590 H   0  0  0  0  0  0  0  0  0  0  0  0
  -24.1800  -36.7660   23.1550 C   0  0  0  0  0  1  0  0  0  0  0  0
  -25.4370  -36.3490   23.9350 C   0  0  0  0  0  3  0  0  0  0  0  0
  -27.5740  -37.2360   24.7560 C   0  0  0  0  0  1  0  0  0  0  0  0
  -26.4540  -37.4180   23.8370 N   0  0  0  0  0  0  0  0  0  0  0  0
  -26.0390  -38.3280   24.0220 H   0  0  0  0  0  0  0  0  0  0  0  0
  1  5  1  0
  2  6  2  0
  4  2  1  0
  4  1  2  0
  5 16  1  0
  5  3  2  0
  6 47  1  0
  6  3  1  0
  7  4  1  0
  8 14  1  0
  8 16  1  0
  9 14  1  0
 10 11  1  0
 10  9  1  0
 12 11  1  0
 12 21  1  0
 12 13  1  0
 14 13  1  0
 15  8  2  0
 16 17  1  0
 18 19  2  0
 19 20  1  0
 19 38  1  0
 20 23  1  0
 21 18  1  0
 21 22  1  0
 22 20  2  0
 23 24  1  0
 24 25  2  0
 26 29  1  0
 26 25  1  0
 27 26  2  0
 28 27  1  0
 28 23  2  0
 29 30  1  0
 30 31  1  0
 31 32  2  0
 33 32  1  0
 33 37  1  0
 34 33  2  0
 35 30  2  0
 35 34  1  0
 36 35  1  0
 38 39  1  0
 39 42  1  0
 39 41  1  0
 40 38  2  0
 43 44  1  0
 43 18  1  0
 45 43  1  0
 47 46  1  0
 48 47  1  0
 49 48  1  0
 49 50  1  0
 51 62  2  0
 52 50  1  0
 52 57  1  0
 53 61  1  0
 53 63  1  0
 54 60  1  0
 54 56  1  0
 55 61  1  0
 56 55  1  0
 57 56  2  0
 58 52  2  0
 59 58  1  0
 59 54  2  0
 60 53  1  0
 61 51  1  0
 63 65  2  0
 64 63  1  0
 66 64  1  0
 67 76  2  0
 67 72  1  0
 68 64  1  0
 68 72  1  0
 69 68  1  0
 70 71  1  0
 70 69  1  0
 71 67  1  0
 72 73  2  0
 73 74  1  0
 75 74  2  0
 76 75  1  0
 77 51  1  0
 77 82  1  0
 77 78  1  0
 78 81  1  1
 78 79  1  0
 80 78  1  0
 82 85  1  0
 83 87  1  0
 83 82  1  0
 84 83  2  0
 87 86  1  0
 89 87  1  0
 89 90  1  0
 89 88  1  0
M  ISO  4   8 100  16 100  49 101  50 101
M  END
>  <TORSDO>  (50) 
F 19

>  <SCORE>  (50) 
-14.996

>  <name>  (50) 
50

>  <ligand_id>  (50) 
50

>  <original_smiles>  (50) 
[H]c1c([H])c([H])c2c(c1[H])C([H])([H])C([H])([H])C([H])([H])C2([H])N([H])C(=O)C1([H])N(C(=O)C([H])(N([H])C(=O)C([H])(N([H])C([H])([H])[H])C([H])([H])[H])C(C([H])([H])[H])(C([H])([H])[H])C([H])([H])[H])C([H])([H])c2c([H])c(OC([H])([H])C([H])([H])N(c3c([H])c(N([H])C(=O)N4C([H])([H])C([H])([H])C([H])([H])C([H])(n5nc(-c6c([H])c([H])c(Oc7c([H])c([H])c(F)c([H])c7F)c([H])c6[H])c(C(=O)N([H])[H])c5N([H])[H])C4([H])[H])c([H])c(C([H])([H])[H])c3[H])C([H])([H])[H])c([H])c([H])c2C1([H])[H]

>  <smiles>  (50) 
[H]c1c([H])c([H])c2c(c1[H])C([H])([H])C([H])([H])C([H])([H])C2([H])N([H])C(=O)C1([H])N(C(=O)C([H])(N([H])C(=O)C([H])(N([H])C([H])([H])[H])C([H])([H])[H])C(C([H])([H])[H])(C([H])([H])[H])C([H])([H])[H])C([H])([H])c2c([H])c(OC([H])([H])C([H])([H])N(c3c([H])c(N([H])C(=O)N4C([H])([H])C([H])([H])C([H])([H])C([H])(n5nc(-c6c([H])c([H])c(Oc7c([H])c([H])c(F)c([H])c7F)c([H])c6[H])c(C(=O)N([H])[H])c5N([H])[H])C4([H])[H])c([H])c(C([H])([H])[H])c3[H])C([H])([H])[H])c([H])c([H])c2C1([H])[H]

$$$$
51:0:0
     RDKit          3D

 99109  0  0  1  0  0  0  0  0999 V2000
  -30.3860  -20.4190   20.3440 C   0  0  0  0  0  3  0  0  0  0  0  0
  -31.0990  -19.3620   19.7290 C   0  0  0  0  0  3  0  0  0  0  0  0
  -32.6550  -21.0810   19.0010 C   0  0  0  0  0  3  0  0  0  0  0  0
  -30.7760  -21.7890   20.3250 C   0  0  0  0  0  0  0  0  0  0  0  0
  -31.9770  -22.2370   19.6970 C   0  0  0  0  0  0  0  0  0  0  0  0
  -32.2490  -19.6190   18.9650 C   0  0  0  0  0  0  0  0  0  0  0  0
  -32.5200  -18.0150   16.7200 C   0  0  0  0  0  0  0  0  0  0  0  0
  -33.8160  -16.5780   15.0440 C   0  0  0  0  0  2  0  0  0  0  0  0
  -35.1740  -15.9830   15.4810 C   0  0  0  0  0  2  0  0  0  0  0  0
  -36.3000  -17.0310   15.5470 C   0  0  0  0  0  2  0  0  0  0  0  0
  -35.8550  -18.4600   15.9510 C   0  0  0  0  0  3  0  0  0  0  0  0
  -34.5070  -18.8560   15.3210 C   0  0  0  0  0  2  0  0  0  0  0  0
  -33.5490  -17.8450   15.7850 N   0  0  0  0  0  0  0  0  0  0  0  0
  -31.4970  -17.3540   16.5000 O   0  0  0  0  0  0  0  0  0  0  0  0
  -32.7790  -18.4410   18.0910 N   0  0  0  0  0  0  0  0  0  0  0  0
  -37.2420  -20.5610   16.4290 C   0  0  0  0  0  0  0  0  0  0  0  0
  -38.3630  -21.0730   15.8430 C   0  0  0  0  0  0  0  0  0  0  0  0
  -38.6550  -20.2230   14.7300 C   0  0  0  0  0  0  0  0  0  0  0  0
  -36.9040  -19.4420   15.6880 N   0  0  0  0  0  0  0  0  0  0  0  0
  -37.7180  -19.2920   14.6120 N   0  0  0  0  0  0  0  0  0  0  0  0
  -39.8000  -20.2040   13.8140 C   0  0  0  0  0  0  0  0  0  0  0  0
  -39.6830  -20.6440   12.4780 C   0  0  0  0  0  3  0  0  0  0  0  0
  -40.8030  -20.6360   11.6190 C   0  0  0  0  0  3  0  0  0  0  0  0
  -42.0590  -20.1850   12.0920 C   0  0  0  0  0  0  0  0  0  0  0  0
  -42.1640  -19.7250   13.4180 C   0  0  0  0  0  3  0  0  0  0  0  0
  -41.0450  -19.7300   14.2690 C   0  0  0  0  0  3  0  0  0  0  0  0
  -43.1950  -20.1200   11.3240 O   0  0  0  0  0  0  0  0  0  0  0  0
  -43.6380  -21.2030   10.6050 C   0  0  0  0  0  0  0  0  0  0  0  0
  -44.1850  -22.3440   11.2320 C   0  0  0  0  0  3  0  0  0  0  0  0
  -44.6900  -23.4030   10.4490 C   0  0  0  0  0  3  0  0  0  0  0  0
  -44.6650  -23.3150    9.0440 C   0  0  0  0  0  0  0  0  0  0  0  0
  -44.1270  -22.1770    8.4200 C   0  0  0  0  0  3  0  0  0  0  0  0
  -43.6200  -21.1210    9.1980 C   0  0  0  0  0  0  0  0  0  0  0  0
  -43.1230  -20.0200    8.5870 F   0  0  0  0  0  0  0  0  0  0  0  0
  -45.1590  -24.3290    8.2960 F   0  0  0  0  0  0  0  0  0  0  0  0
  -39.1850  -22.2260   16.3410 C   0  0  0  0  0  0  0  0  0  0  0  0
  -39.4530  -23.2100   15.4920 N   0  0  0  0  0  0  0  0  0  0  0  0
  -39.5530  -22.2850   17.5150 O   0  0  0  0  0  0  0  0  0  0  0  0
  -39.1300  -23.1840   14.5360 H   0  0  0  0  0  0  0  0  0  0  0  0
  -39.9870  -24.0080   15.8060 H   0  0  0  0  0  0  0  0  0  0  0  0
  -36.4980  -20.9280   17.5480 N   0  0  0  0  0  0  0  0  0  0  0  0
  -36.7720  -21.7140   18.1300 H   0  0  0  0  0  0  0  0  0  0  0  0
  -35.6880  -20.4360   17.8950 H   0  0  0  0  0  0  0  0  0  0  0  0
  -33.1430  -15.9500   18.9150 C   0  0  0  0  0  1  0  0  0  0  0  0
  -33.4310  -17.4550   18.9990 C   0  0  0  0  0  2  0  0  0  0  0  0
  -33.8720  -25.2160   18.6750 C   0  0  0  0  0  2  0  0  0  0  0  0
  -32.4350  -25.7270   18.6090 C   0  0  0  0  0  2  0  0  0  0  0  0
  -33.8330  -23.9550   19.5590 C   0  0  0  0  0  2  0  0  0  0  0  0
  -31.7690  -25.1450   19.8540 C   0  0  0  0  0  3  0  0  0  0  0  0
  -32.4280  -23.6860   19.8810 N   0  0  0  0  0  0  0  0  0  0  0  0
  -31.8470  -26.3680   21.0710 C   0  0  0  0  0  2  0  0  0  0  0  0
  -31.1880  -27.8030   21.2880 O   0  0  0  0  0  0  0  0  0  0  0  0
  -28.3870  -32.5910   26.2830 C   0  0  0  0  0  0  0  0  0  0  0  0
  -30.1600  -28.2810   22.1990 C   0  0  0  0  0  0  0  0  0  0  0  0
  -27.2560  -30.4180   26.0140 C   0  0  0  0  0  3  0  0  0  0  0  0
  -27.9340  -29.0320   23.9510 C   0  0  0  0  0  0  0  0  0  0  0  0
  -28.5300  -31.4490   24.0280 C   0  0  0  0  0  2  0  0  0  0  0  0
  -28.8090  -30.0280   23.4930 C   0  0  0  0  0  0  0  0  0  0  0  0
  -29.8890  -29.6610   22.5980 C   0  0  0  0  0  3  0  0  0  0  0  0
  -29.2070  -27.3560   22.6710 C   0  0  0  0  0  3  0  0  0  0  0  0
  -28.1280  -27.7080   23.5190 C   0  0  0  0  0  3  0  0  0  0  0  0
  -26.8100  -29.4280   24.9020 C   0  0  0  0  0  2  0  0  0  0  0  0
  -28.0960  -31.5330   25.4640 N   0  0  0  0  0  0  0  0  0  0  0  0
  -27.9630  -32.6520   27.4460 O   0  0  0  0  0  0  0  0  0  0  0  0
  -27.9630  -29.6230   27.1410 C   0  0  0  0  0  0  0  0  0  0  0  0
  -27.2880  -29.4640   28.2940 N   0  0  0  0  0  0  0  0  0  0  0  0
  -29.0850  -29.1430   26.9590 O   0  0  0  0  0  0  0  0  0  0  0  0
  -26.3760  -29.8950   28.3810 H   0  0  0  0  0  0  0  0  0  0  0  0
  -27.3500  -29.3840   31.9170 C   0  0  0  0  0  0  0  0  0  0  0  0
  -27.7520  -28.6980   29.4550 C   0  0  0  0  0  3  0  0  0  0  0  0
  -26.8170  -27.5010   29.7480 C   0  0  0  0  0  2  0  0  0  0  0  0
  -25.7200  -27.8270   30.7680 C   0  0  0  0  0  2  0  0  0  0  0  0
  -26.3380  -28.2650   32.0980 C   0  0  0  0  0  2  0  0  0  0  0  0
  -28.0020  -29.5950   30.6720 C   0  0  0  0  0  0  0  0  0  0  0  0
  -28.9100  -30.6680   30.5520 C   0  0  0  0  0  3  0  0  0  0  0  0
  -29.1720  -31.5200   31.6410 C   0  0  0  0  0  3  0  0  0  0  0  0
  -28.5320  -31.2990   32.8750 C   0  0  0  0  0  3  0  0  0  0  0  0
  -27.6290  -30.2310   33.0110 C   0  0  0  0  0  3  0  0  0  0  0  0
  -29.2530  -33.7910   25.7860 C   0  0  0  0  0  3  0  0  0  0  0  0
  -28.3750  -34.9680   25.6920 N   0  0  0  0  0  0  0  0  0  0  0  0
  -27.9440  -35.5160   24.5470 C   0  0  0  0  0  0  0  0  0  0  0  0
  -28.3030  -35.1080   23.4380 O   0  0  0  0  0  0  0  0  0  0  0  0
  -27.9980  -35.3210   26.5600 H   0  0  0  0  0  0  0  0  0  0  0  0
  -25.6780  -36.3700   23.8700 C   0  0  0  0  0  1  0  0  0  0  0  0
  -26.9640  -36.7010   24.6430 C   0  0  0  0  0  3  0  0  0  0  0  0
  -28.7640  -38.3600   24.8260 C   0  0  0  0  0  1  0  0  0  0  0  0
  -27.5290  -37.9750   24.1480 N   0  0  0  0  0  0  0  0  0  0  0  0
  -26.8580  -38.7330   24.2590 H   0  0  0  0  0  0  0  0  0  0  0  0
  -30.4800  -34.1050   26.7300 C   0  0  1  0  0  0  0  0  0  0  0  0
  -30.0970  -34.8820   28.0130 C   0  0  0  0  0  1  0  0  0  0  0  0
  -31.1890  -32.8010   27.1630 C   0  0  0  0  0  1  0  0  0  0  0  0
  -31.5290  -34.9450   25.9640 C   0  0  0  0  0  1  0  0  0  0  0  0
  -29.8680  -22.7520   21.0770 C   0  0  0  0  0  2  0  0  0  0  0  0
  -26.3940  -23.2120   19.7450 C   0  0  0  0  0  2  0  0  0  0  0  0
  -27.1880  -23.3060   18.4320 C   0  0  0  0  0  2  0  0  0  0  0  0
  -27.4030  -22.6450   20.7390 C   0  0  0  0  0  2  0  0  0  0  0  0
  -28.6730  -23.2570   18.8430 C   0  0  0  0  0  2  0  0  0  0  0  0
  -28.6810  -23.2470   20.3290 N   0  0  2  0  0  4  0  0  0  0  0  0
  -28.5930  -24.2140   20.6050 H   0  0  0  0  0  0  0  0  0  0  0  0
  2  1  2  0
  3  5  1  0
  4  1  1  0
  4 93  1  0
  5 50  1  0
  5  4  2  0
  6  3  2  0
  6  2  1  0
  7 15  1  0
  8  9  1  0
  8 13  1  0
  9 10  1  0
 10 11  1  0
 11 12  1  0
 12 13  1  0
 13  7  1  0
 14  7  2  0
 15  6  1  0
 15 45  1  0
 16 41  1  0
 17 36  1  0
 17 16  2  0
 18 17  1  0
 19 11  1  0
 19 16  1  0
 20 18  2  0
 20 19  1  0
 21 26  1  0
 21 18  1  0
 22 21  2  0
 23 24  2  0
 23 22  1  0
 24 25  1  0
 25 26  2  0
 27 24  1  0
 28 29  1  0
 28 27  1  0
 30 29  2  0
 31 30  1  0
 32 31  2  0
 32 33  1  0
 33 28  2  0
 34 33  1  0
 35 31  1  0
 36 38  2  0
 37 40  1  0
 37 36  1  0
 39 37  1  0
 41 43  1  0
 41 42  1  0
 44 45  1  0
 46 48  1  0
 47 46  1  0
 47 49  1  0
 48 50  1  0
 49 50  1  0
 49 51  1  0
 51 52  1  0
 52 54  1  0
 53 64  2  0
 54 59  2  0
 54 60  1  0
 55 65  1  0
 56 62  1  0
 57 63  1  0
 58 56  2  0
 58 57  1  0
 59 58  1  0
 60 61  2  0
 61 56  1  0
 62 55  1  0
 63 55  1  0
 63 53  1  0
 65 66  1  0
 66 68  1  0
 67 65  2  0
 69 73  1  0
 69 78  1  0
 70 66  1  0
 70 71  1  0
 70 74  1  0
 71 72  1  0
 72 73  1  0
 74 69  2  0
 75 74  1  0
 75 76  2  0
 76 77  1  0
 77 78  2  0
 79 53  1  0
 79 89  1  0
 80 79  1  0
 80 83  1  0
 81 85  1  0
 81 80  1  0
 82 81  2  0
 85 84  1  0
 87 88  1  0
 87 85  1  0
 87 86  1  0
 89 91  1  1
 89 90  1  0
 92 89  1  0
 94 96  1  0
 95 97  1  0
 95 94  1  0
 97 98  1  0
 98 99  1  1
 98 96  1  0
 98 93  1  0
M  ISO  4   7 100  15 100  51 101  52 101
M  END
>  <TORSDO>  (51) 
F 21

>  <SCORE>  (51) 
-5.148

>  <name>  (51) 
51

>  <ligand_id>  (51) 
51

>  <original_smiles>  (51) 
[H]c1c([H])c([H])c2c(c1[H])C([H])([H])C([H])([H])C([H])([H])C2([H])N([H])C(=O)C1([H])N(C(=O)C([H])(N([H])C(=O)C([H])(N([H])C([H])([H])[H])C([H])([H])[H])C(C([H])([H])[H])(C([H])([H])[H])C([H])([H])[H])C([H])([H])c2c([H])c(OC([H])([H])C3([H])N(c4c([H])c(N(C(=O)N5C([H])([H])C([H])([H])C([H])([H])C([H])(n6nc(-c7c([H])c([H])c(Oc8c([H])c([H])c(F)c([H])c8F)c([H])c7[H])c(C(=O)N([H])[H])c6N([H])[H])C5([H])[H])C([H])([H])C([H])([H])[H])c([H])c([H])c4C([H])([H])[N+]4([H])C([H])([H])C([H])([H])C([H])([H])C4([H])[H])C([H])([H])C([H])([H])C3([H])[H])c([H])c([H])c2C1([H])[H]

>  <smiles>  (51) 
[H]c1c([H])c([H])c2c(c1[H])C([H])([H])C([H])([H])C([H])([H])C2([H])N([H])C(=O)C1([H])N(C(=O)C([H])(N([H])C(=O)C([H])(N([H])C([H])([H])[H])C([H])([H])[H])C(C([H])([H])[H])(C([H])([H])[H])C([H])([H])[H])C([H])([H])c2c([H])c(OC([H])([H])C3([H])N(c4c([H])c(N(C(=O)N5C([H])([H])C([H])([H])C([H])([H])C([H])(n6nc(-c7c([H])c([H])c(Oc8c([H])c([H])c(F)c([H])c8F)c([H])c7[H])c(C(=O)N([H])[H])c6N([H])[H])C5([H])[H])C([H])([H])C([H])([H])[H])c([H])c([H])c4C([H])([H])[N+]4([H])C([H])([H])C([H])([H])C([H])([H])C4([H])[H])C([H])([H])C([H])([H])C3([H])[H])c([H])c([H])c2C1([H])[H]

$$$$
52:0:0
     RDKit          3D

 95104  0  0  1  0  0  0  0  0999 V2000
  -28.1510  -18.2230   18.5810 C   0  0  0  0  0  3  0  0  0  0  0  0
  -28.9070  -17.2000   19.1840 C   0  0  0  0  0  3  0  0  0  0  0  0
  -29.8180  -18.8580   20.7010 C   0  0  0  0  0  3  0  0  0  0  0  0
  -28.1540  -19.5560   19.0640 C   0  0  0  0  0  0  0  0  0  0  0  0
  -29.6450  -17.4480   20.3570 C   0  0  0  0  0  0  0  0  0  0  0  0
  -29.1720  -19.9590   19.9860 C   0  0  0  0  0  0  0  0  0  0  0  0
  -30.7450  -15.1540   20.9550 C   0  0  0  0  0  0  0  0  0  0  0  0
  -30.7530  -12.7470   20.2760 C   0  0  0  0  0  2  0  0  0  0  0  0
  -30.0280  -12.6130   18.9170 C   0  0  0  0  0  2  0  0  0  0  0  0
  -28.5060  -12.4620   19.1120 C   0  0  0  0  0  2  0  0  0  0  0  0
  -27.9290  -13.4900   20.1220 C   0  0  0  0  0  3  0  0  0  0  0  0
  -28.7880  -13.5850   21.4040 C   0  0  0  0  0  2  0  0  0  0  0  0
  -30.1660  -13.9010   21.0010 N   0  0  0  0  0  0  0  0  0  0  0  0
  -31.9370  -15.2680   20.6590 O   0  0  0  0  0  0  0  0  0  0  0  0
  -29.9590  -16.2670   21.2020 N   0  0  0  0  0  0  0  0  0  0  0  0
  -29.1540  -15.9900   21.7470 H   0  0  0  0  0  0  0  0  0  0  0  0
  -25.4590  -14.1240   20.4260 C   0  0  0  0  0  0  0  0  0  0  0  0
  -24.3470  -13.3770   20.6980 C   0  0  0  0  0  0  0  0  0  0  0  0
  -24.8010  -12.0310   20.8480 C   0  0  0  0  0  0  0  0  0  0  0  0
  -26.5230  -13.2360   20.4210 N   0  0  0  0  0  0  0  0  0  0  0  0
  -26.1250  -11.9770   20.7380 N   0  0  0  0  0  0  0  0  0  0  0  0
  -24.0510  -10.7830   21.0350 C   0  0  0  0  0  0  0  0  0  0  0  0
  -24.3820   -9.8670   22.0580 C   0  0  0  0  0  3  0  0  0  0  0  0
  -23.6340   -8.6820   22.2290 C   0  0  0  0  0  3  0  0  0  0  0  0
  -22.5400   -8.4030   21.3740 C   0  0  0  0  0  0  0  0  0  0  0  0
  -22.2260   -9.3060   20.3450 C   0  0  0  0  0  3  0  0  0  0  0  0
  -22.9750  -10.4840   20.1740 C   0  0  0  0  0  3  0  0  0  0  0  0
  -21.7720   -7.2660   21.4490 O   0  0  0  0  0  0  0  0  0  0  0  0
  -21.6710   -6.5430   22.6070 C   0  0  0  0  0  0  0  0  0  0  0  0
  -21.2280   -7.1280   23.8160 C   0  0  0  0  0  3  0  0  0  0  0  0
  -21.0720   -6.3320   24.9660 C   0  0  0  0  0  3  0  0  0  0  0  0
  -21.3460   -4.9520   24.9120 C   0  0  0  0  0  0  0  0  0  0  0  0
  -21.7820   -4.3680   23.7080 C   0  0  0  0  0  3  0  0  0  0  0  0
  -21.9410   -5.1600   22.5600 C   0  0  0  0  0  0  0  0  0  0  0  0
  -22.3420   -4.5900   21.3970 F   0  0  0  0  0  0  0  0  0  0  0  0
  -21.1880   -4.1830   26.0150 F   0  0  0  0  0  0  0  0  0  0  0  0
  -22.9270  -13.8660   20.7180 C   0  0  0  0  0  0  0  0  0  0  0  0
  -22.0760  -13.2520   21.5350 N   0  0  0  0  0  0  0  0  0  0  0  0
  -22.5700  -14.8320   20.0450 O   0  0  0  0  0  0  0  0  0  0  0  0
  -22.3700  -12.4750   22.1070 H   0  0  0  0  0  0  0  0  0  0  0  0
  -21.1180  -13.5700   21.5890 H   0  0  0  0  0  0  0  0  0  0  0  0
  -25.6540  -15.4780   20.1660 N   0  0  0  0  0  0  0  0  0  0  0  0
  -24.8740  -16.1250   20.1260 H   0  0  0  0  0  0  0  0  0  0  0  0
  -26.5390  -15.9040   19.9290 H   0  0  0  0  0  0  0  0  0  0  0  0
  -24.9260  -21.1580   19.5000 C   0  0  0  0  0  2  0  0  0  0  0  0
  -24.9590  -21.1020   17.9770 C   0  0  0  0  0  2  0  0  0  0  0  0
  -26.4040  -21.0590   19.8710 C   0  0  0  0  0  2  0  0  0  0  0  0
  -26.0870  -20.1060   17.7210 C   0  0  0  0  0  2  0  0  0  0  0  0
  -27.0870  -20.4300   18.7320 N   0  0  0  0  0  0  0  0  0  0  0  0
  -29.4390  -21.3790   20.2210 N   0  0  0  0  0  0  0  0  0  0  0  0
  -30.2300  -21.5730   20.8300 H   0  0  0  0  0  0  0  0  0  0  0  0
  -29.1140  -22.5040   19.2380 C   0  0  0  0  0  2  0  0  0  0  0  0
  -29.1160  -24.0600   19.6990 C   0  0  0  0  0  3  0  0  0  0  0  0
  -28.3390  -25.1520   18.7820 C   0  0  0  0  0  3  0  0  0  0  0  0
  -28.3960  -26.6420   19.0220 O   0  0  0  0  0  0  0  0  0  0  0  0
  -24.6780  -31.6060   22.7810 C   0  0  0  0  0  0  0  0  0  0  0  0
  -27.2400  -27.4650   19.0900 C   0  0  0  0  0  0  0  0  0  0  0  0
  -23.4150  -30.3090   21.1080 C   0  0  0  0  0  3  0  0  0  0  0  0
  -24.8120  -28.9810   19.4260 C   0  0  0  0  0  0  0  0  0  0  0  0
  -25.9180  -30.7650   20.7660 C   0  0  0  0  0  2  0  0  0  0  0  0
  -26.0060  -29.4580   19.9800 C   0  0  0  0  0  0  0  0  0  0  0  0
  -27.2180  -28.7150   19.8020 C   0  0  0  0  0  3  0  0  0  0  0  0
  -26.0150  -27.0740   18.4950 C   0  0  0  0  0  3  0  0  0  0  0  0
  -24.8220  -27.8000   18.6760 C   0  0  0  0  0  3  0  0  0  0  0  0
  -23.5490  -29.7890   19.6560 C   0  0  0  0  0  2  0  0  0  0  0  0
  -24.6940  -30.9070   21.6090 N   0  0  0  0  0  0  0  0  0  0  0  0
  -23.6280  -31.7740   23.4200 O   0  0  0  0  0  0  0  0  0  0  0  0
  -22.8760  -29.1690   22.0050 C   0  0  0  0  0  0  0  0  0  0  0  0
  -21.5510  -28.9440   21.9680 N   0  0  0  0  0  0  0  0  0  0  0  0
  -23.6430  -28.5000   22.7020 O   0  0  0  0  0  0  0  0  0  0  0  0
  -20.9830  -29.5330   21.3750 H   0  0  0  0  0  0  0  0  0  0  0  0
  -18.2800  -27.5460   22.6070 C   0  0  0  0  0  0  0  0  0  0  0  0
  -20.8400  -27.8980   22.7060 C   0  0  0  0  0  3  0  0  0  0  0  0
  -20.9540  -26.5380   21.9770 C   0  0  0  0  0  2  0  0  0  0  0  0
  -19.7840  -26.2650   21.0270 C   0  0  0  0  0  2  0  0  0  0  0  0
  -18.4540  -26.2790   21.7870 C   0  0  0  0  0  2  0  0  0  0  0  0
  -19.3990  -28.3120   23.0270 C   0  0  0  0  0  0  0  0  0  0  0  0
  -19.1770  -29.5000   23.7580 C   0  0  0  0  0  3  0  0  0  0  0  0
  -17.8710  -29.9160   24.0800 C   0  0  0  0  0  3  0  0  0  0  0  0
  -16.7690  -29.1430   23.6780 C   0  0  0  0  0  3  0  0  0  0  0  0
  -16.9750  -27.9610   22.9450 C   0  0  0  0  0  3  0  0  0  0  0  0
  -25.9730  -32.2430   23.3660 C   0  0  0  0  0  3  0  0  0  0  0  0
  -25.6090  -33.5490   23.9350 N   0  0  0  0  0  0  0  0  0  0  0  0
  -25.8290  -34.7290   23.3400 C   0  0  0  0  0  0  0  0  0  0  0  0
  -26.4320  -34.8340   22.2680 O   0  0  0  0  0  0  0  0  0  0  0  0
  -25.0660  -33.5350   24.7850 H   0  0  0  0  0  0  0  0  0  0  0  0
  -23.9820  -36.4360   23.3780 C   0  0  0  0  0  1  0  0  0  0  0  0
  -25.2950  -35.9910   24.0440 C   0  0  0  0  0  3  0  0  0  0  0  0
  -27.4280  -36.8700   24.8850 C   0  0  0  0  0  1  0  0  0  0  0  0
  -26.2570  -37.1150   24.0470 N   0  0  0  0  0  0  0  0  0  0  0  0
  -25.8100  -37.9700   24.3700 H   0  0  0  0  0  0  0  0  0  0  0  0
  -26.6690  -31.3390   24.4560 C   0  0  1  0  0  0  0  0  0  0  0  0
  -25.7120  -30.8720   25.5760 C   0  0  0  0  0  1  0  0  0  0  0  0
  -27.2880  -30.0820   23.8050 C   0  0  0  0  0  1  0  0  0  0  0  0
  -27.8350  -32.1130   25.1140 C   0  0  0  0  0  1  0  0  0  0  0  0
  1  4  2  0
  1  2  1  0
  2  5  2  0
  4  6  1  0
  5  3  1  0
  5 15  1  0
  6 50  1  0
  6  3  2  0
  7 13  1  0
  7 15  1  0
  8 13  1  0
  9 10  1  0
  9  8  1  0
 11 10  1  0
 11 20  1  0
 11 12  1  0
 13 12  1  0
 14  7  2  0
 15 16  1  0
 17 18  2  0
 18 37  1  0
 18 19  1  0
 19 22  1  0
 20 17  1  0
 20 21  1  0
 21 19  2  0
 22 23  1  0
 23 24  2  0
 25 28  1  0
 25 24  1  0
 26 25  2  0
 27 26  1  0
 27 22  2  0
 28 29  1  0
 29 30  1  0
 30 31  2  0
 32 31  1  0
 32 36  1  0
 33 32  2  0
 34 29  2  0
 34 33  1  0
 35 34  1  0
 37 38  1  0
 38 41  1  0
 38 40  1  0
 39 37  2  0
 42 17  1  0
 43 42  1  0
 44 42  1  0
 45 47  1  0
 46 45  1  0
 48 46  1  0
 48 49  1  0
 49  4  1  0
 49 47  1  0
 50 51  1  0
 52 53  1  0
 52 50  1  0
 54 55  1  0
 54 53  2  0
 55 57  1  0
 56 67  2  0
 57 62  1  0
 58 66  1  0
 58 68  1  0
 59 65  1  0
 59 61  1  0
 60 66  1  0
 61 60  1  0
 62 61  2  0
 63 64  1  0
 63 57  2  0
 64 59  2  0
 65 58  1  0
 66 56  1  0
 68 70  2  0
 69 68  1  0
 71 69  1  0
 72 81  2  0
 72 77  1  0
 73 69  1  0
 73 77  1  0
 74 73  1  0
 75 76  1  0
 75 74  1  0
 76 72  1  0
 77 78  2  0
 78 79  1  0
 80 79  2  0
 81 80  1  0
 82 56  1  0
 82 83  1  0
 82 92  1  0
 83 86  1  0
 84 83  1  0
 84 88  1  0
 85 84  2  0
 88 87  1  0
 88 90  1  0
 90 91  1  0
 90 89  1  0
 92 95  1  1
 92 93  1  0
 94 92  1  0
M  ISO  4   7 100  15 100  54 101  55 101
M  END
>  <TORSDO>  (52) 
F 21

>  <SCORE>  (52) 
-9.792

>  <name>  (52) 
52

>  <ligand_id>  (52) 
52

>  <original_smiles>  (52) 
[H]c1c([H])c([H])c2c(c1[H])C([H])([H])C([H])([H])C([H])([H])C2([H])N([H])C(=O)C1([H])N(C(=O)C([H])(N([H])C(=O)C([H])(N([H])C([H])([H])[H])C([H])([H])[H])C(C([H])([H])[H])(C([H])([H])[H])C([H])([H])[H])C([H])([H])c2c([H])c(OC([H])([H])C([H])([H])C([H])([H])N([H])c3c([H])c(N([H])C(=O)N4C([H])([H])C([H])([H])C([H])([H])C([H])(n5nc(-c6c([H])c([H])c(Oc7c([H])c([H])c(F)c([H])c7F)c([H])c6[H])c(C(=O)N([H])[H])c5N([H])[H])C4([H])[H])c([H])c([H])c3N3C([H])([H])C([H])([H])C([H])([H])C3([H])[H])c([H])c([H])c2C1([H])[H]

>  <smiles>  (52) 
[H]c1c([H])c([H])c2c(c1[H])C([H])([H])C([H])([H])C([H])([H])C2([H])N([H])C(=O)C1([H])N(C(=O)C([H])(N([H])C(=O)C([H])(N([H])C([H])([H])[H])C([H])([H])[H])C(C([H])([H])[H])(C([H])([H])[H])C([H])([H])[H])C([H])([H])c2c([H])c(OC([H])([H])C([H])([H])C([H])([H])N([H])c3c([H])c(N([H])C(=O)N4C([H])([H])C([H])([H])C([H])([H])C([H])(n5nc(-c6c([H])c([H])c(Oc7c([H])c([H])c(F)c([H])c7F)c([H])c6[H])c(C(=O)N([H])[H])c5N([H])[H])C4([H])[H])c([H])c([H])c3N3C([H])([H])C([H])([H])C([H])([H])C3([H])[H])c([H])c([H])c2C1([H])[H]

$$$$
53:0:0
     RDKit          3D

 94103  0  0  1  0  0  0  0  0999 V2000
  -29.5340  -22.6050   20.4310 C   0  0  0  0  0  0  0  0  0  0  0  0
  -27.4860  -23.3490   19.4570 C   0  0  0  0  0  2  0  0  0  0  0  0
  -27.6030  -21.7950   19.4490 C   0  0  0  0  0  2  0  0  0  0  0  0
  -28.8670  -23.9040   19.8330 C   0  0  0  0  0  3  0  0  0  0  0  0
  -28.9020  -21.4480   20.0450 N   0  0  0  0  0  0  0  0  0  0  0  0
  -30.5200  -22.6530   21.1750 O   0  0  0  0  0  0  0  0  0  0  0  0
  -28.5050  -19.0780   20.8240 C   0  0  0  0  0  3  0  0  0  0  0  0
  -30.7550  -18.0690   19.5040 C   0  0  0  0  0  3  0  0  0  0  0  0
  -29.3240  -20.0330   20.1600 C   0  0  0  0  0  0  0  0  0  0  0  0
  -29.9010  -17.1190   20.1390 C   0  0  0  0  0  0  0  0  0  0  0  0
  -28.7850  -17.6790   20.8180 C   0  0  0  0  0  0  0  0  0  0  0  0
  -30.4730  -19.4790   19.5060 C   0  0  0  0  0  0  0  0  0  0  0  0
  -27.6960  -16.6220   21.6500 Cl  0  0  0  0  0  0  0  0  0  0  0  0
  -31.5310  -20.5020   18.6020 Cl  0  0  0  0  0  0  0  0  0  0  0  0
  -30.6150  -14.6920   19.3560 C   0  0  0  0  0  0  0  0  0  0  0  0
  -30.1990  -12.5140   18.1900 C   0  0  0  0  0  2  0  0  0  0  0  0
  -29.0650  -12.7110   17.1550 C   0  0  0  0  0  2  0  0  0  0  0  0
  -27.6790  -12.5410   17.8100 C   0  0  0  0  0  2  0  0  0  0  0  0
  -27.5480  -13.3270   19.1420 C   0  0  0  0  0  3  0  0  0  0  0  0
  -28.7740  -13.0880   20.0530 C   0  0  0  0  0  2  0  0  0  0  0  0
  -29.9820  -13.4720   19.3000 N   0  0  0  0  0  0  0  0  0  0  0  0
  -31.6370  -14.9120   18.6970 O   0  0  0  0  0  0  0  0  0  0  0  0
  -30.0120  -15.6470   20.1420 N   0  0  0  0  0  0  0  0  0  0  0  0
  -29.3620  -15.2320   20.7920 H   0  0  0  0  0  0  0  0  0  0  0  0
  -25.3340  -13.8990   20.3150 C   0  0  0  0  0  0  0  0  0  0  0  0
  -24.3220  -13.1170   20.7990 C   0  0  0  0  0  0  0  0  0  0  0  0
  -24.7240  -11.7650   20.5700 C   0  0  0  0  0  0  0  0  0  0  0  0
  -26.2920  -13.0240   19.8260 N   0  0  0  0  0  0  0  0  0  0  0  0
  -25.9400  -11.7300   20.0360 N   0  0  0  0  0  0  0  0  0  0  0  0
  -23.9970  -10.5070   20.7720 C   0  0  0  0  0  0  0  0  0  0  0  0
  -24.5140   -9.4780   21.5920 C   0  0  0  0  0  3  0  0  0  0  0  0
  -23.7840   -8.2830   21.7850 C   0  0  0  0  0  3  0  0  0  0  0  0
  -22.5270   -8.1120   21.1620 C   0  0  0  0  0  0  0  0  0  0  0  0
  -22.0300   -9.1260   20.3290 C   0  0  0  0  0  3  0  0  0  0  0  0
  -22.7580  -10.3110   20.1310 C   0  0  0  0  0  3  0  0  0  0  0  0
  -21.7600   -6.9750   21.2750 O   0  0  0  0  0  0  0  0  0  0  0  0
  -21.7760   -6.2050   22.4110 C   0  0  0  0  0  0  0  0  0  0  0  0
  -21.4650   -6.7420   23.6800 C   0  0  0  0  0  3  0  0  0  0  0  0
  -21.4300   -5.9000   24.8100 C   0  0  0  0  0  3  0  0  0  0  0  0
  -21.6930   -4.5220   24.6710 C   0  0  0  0  0  0  0  0  0  0  0  0
  -21.9990   -3.9870   23.4070 C   0  0  0  0  0  3  0  0  0  0  0  0
  -22.0390   -4.8270   22.2810 C   0  0  0  0  0  0  0  0  0  0  0  0
  -22.3130   -4.3030   21.0610 F   0  0  0  0  0  0  0  0  0  0  0  0
  -21.6520   -3.7130   25.7520 F   0  0  0  0  0  0  0  0  0  0  0  0
  -23.0120  -13.5940   21.3540 C   0  0  0  0  0  0  0  0  0  0  0  0
  -22.4370  -12.8530   22.2940 N   0  0  0  0  0  0  0  0  0  0  0  0
  -22.5120  -14.6580   20.9910 O   0  0  0  0  0  0  0  0  0  0  0  0
  -22.8550  -11.9860   22.6030 H   0  0  0  0  0  0  0  0  0  0  0  0
  -21.5670  -13.1530   22.7110 H   0  0  0  0  0  0  0  0  0  0  0  0
  -25.5190  -15.2760   20.2310 N   0  0  0  0  0  0  0  0  0  0  0  0
  -24.8260  -15.9430   20.5600 H   0  0  0  0  0  0  0  0  0  0  0  0
  -26.3430  -15.7180   19.8440 H   0  0  0  0  0  0  0  0  0  0  0  0
  -28.8550  -25.2780   20.6700 C   0  0  0  0  0  2  0  0  0  0  0  0
  -28.6140  -26.5970   20.0310 O   0  0  0  0  0  0  0  0  0  0  0  0
  -24.5230  -31.7110   23.1580 C   0  0  0  0  0  0  0  0  0  0  0  0
  -27.4070  -27.3020   20.1310 C   0  0  0  0  0  0  0  0  0  0  0  0
  -23.4040  -30.2770   21.4800 C   0  0  0  0  0  3  0  0  0  0  0  0
  -24.9520  -28.7810   20.0900 C   0  0  0  0  0  0  0  0  0  0  0  0
  -25.9290  -30.6990   21.3510 C   0  0  0  0  0  2  0  0  0  0  0  0
  -26.0870  -29.3290   20.7050 C   0  0  0  0  0  0  0  0  0  0  0  0
  -27.3160  -28.6080   20.7040 C   0  0  0  0  0  3  0  0  0  0  0  0
  -26.2490  -26.7890   19.5110 C   0  0  0  0  0  3  0  0  0  0  0  0
  -25.0360  -27.5120   19.4870 C   0  0  0  0  0  3  0  0  0  0  0  0
  -23.6790  -29.6040   20.1090 C   0  0  0  0  0  2  0  0  0  0  0  0
  -24.6340  -30.9130   22.0550 N   0  0  0  0  0  0  0  0  0  0  0  0
  -23.4150  -31.9370   23.6720 O   0  0  0  0  0  0  0  0  0  0  0  0
  -22.7600  -29.2350   22.4200 C   0  0  0  0  0  0  0  0  0  0  0  0
  -21.4420  -29.0160   22.2750 N   0  0  0  0  0  0  0  0  0  0  0  0
  -23.4470  -28.6170   23.2390 O   0  0  0  0  0  0  0  0  0  0  0  0
  -20.9370  -29.5820   21.6080 H   0  0  0  0  0  0  0  0  0  0  0  0
  -18.1010  -27.7140   22.7160 C   0  0  0  0  0  0  0  0  0  0  0  0
  -20.6440  -28.0370   23.0210 C   0  0  0  0  0  3  0  0  0  0  0  0
  -20.7900  -26.6150   22.4230 C   0  0  0  0  0  2  0  0  0  0  0  0
  -19.7150  -26.2780   21.3870 C   0  0  0  0  0  2  0  0  0  0  0  0
  -18.3200  -26.3810   22.0130 C   0  0  0  0  0  2  0  0  0  0  0  0
  -19.1920  -28.4970   23.1730 C   0  0  0  0  0  0  0  0  0  0  0  0
  -18.9340  -29.7430   23.7770 C   0  0  0  0  0  3  0  0  0  0  0  0
  -17.6170  -30.2060   23.9440 C   0  0  0  0  0  3  0  0  0  0  0  0
  -16.5360  -29.4190   23.5100 C   0  0  0  0  0  3  0  0  0  0  0  0
  -16.7810  -28.1770   22.8940 C   0  0  0  0  0  3  0  0  0  0  0  0
  -25.7660  -32.3860   23.8140 C   0  0  0  0  0  3  0  0  0  0  0  0
  -25.3950  -33.7640   24.1700 N   0  0  0  0  0  0  0  0  0  0  0  0
  -25.6830  -34.8450   23.4360 C   0  0  0  0  0  0  0  0  0  0  0  0
  -26.3610  -34.7940   22.4060 O   0  0  0  0  0  0  0  0  0  0  0  0
  -24.8090  -33.8800   24.9830 H   0  0  0  0  0  0  0  0  0  0  0  0
  -23.8860  -36.5730   23.1030 C   0  0  0  0  0  1  0  0  0  0  0  0
  -25.1340  -36.2020   23.9220 C   0  0  0  0  0  3  0  0  0  0  0  0
  -27.2220  -37.1590   24.7880 C   0  0  0  0  0  1  0  0  0  0  0  0
  -26.1200  -37.3020   23.8430 N   0  0  0  0  0  0  0  0  0  0  0  0
  -25.6720  -38.1970   24.0120 H   0  0  0  0  0  0  0  0  0  0  0  0
  -26.2910  -31.6130   25.0860 C   0  0  1  0  0  0  0  0  0  0  0  0
  -25.1920  -31.3170   26.1320 C   0  0  0  0  0  1  0  0  0  0  0  0
  -26.9420  -30.2670   24.6790 C   0  0  0  0  0  1  0  0  0  0  0  0
  -27.3890  -32.4440   25.7880 C   0  0  0  0  0  1  0  0  0  0  0  0
  1  6  2  0
  2  4  1  0
  3  2  1  0
  3  5  1  0
  4  1  1  0
  4 53  1  0
  5  9  1  0
  5  1  1  0
  8 12  2  0
  8 10  1  0
  9  7  2  0
 10 23  1  0
 10 11  2  0
 11  7  1  0
 11 13  1  0
 12  9  1  0
 14 12  1  0
 15 23  1  0
 16 21  1  0
 17 18  1  0
 17 16  1  0
 19 18  1  0
 19 28  1  0
 19 20  1  0
 21 15  1  0
 21 20  1  0
 22 15  2  0
 23 24  1  0
 25 26  2  0
 26 45  1  0
 27 30  1  0
 27 26  1  0
 28 29  1  0
 28 25  1  0
 29 27  2  0
 30 31  1  0
 31 32  2  0
 33 36  1  0
 33 32  1  0
 34 33  2  0
 35 34  1  0
 35 30  2  0
 36 37  1  0
 37 38  1  0
 38 39  2  0
 40 39  1  0
 40 44  1  0
 41 40  2  0
 42 37  2  0
 42 41  1  0
 43 42  1  0
 45 46  1  0
 46 48  1  0
 46 49  1  0
 47 45  2  0
 50 25  1  0
 50 51  1  0
 52 50  1  0
 54 56  1  0
 54 53  1  0
 55 66  2  0
 56 61  1  0
 57 65  1  0
 57 67  1  0
 58 64  1  0
 58 60  1  0
 59 65  1  0
 60 59  1  0
 61 60  2  0
 62 56  2  0
 63 62  1  0
 63 58  2  0
 64 57  1  0
 65 55  1  0
 67 69  2  0
 68 67  1  0
 70 68  1  0
 71 80  2  0
 71 76  1  0
 72 68  1  0
 72 76  1  0
 73 72  1  0
 74 75  1  0
 74 73  1  0
 75 71  1  0
 76 77  2  0
 77 78  1  0
 79 78  2  0
 80 79  1  0
 81 55  1  0
 81 82  1  0
 81 91  1  0
 82 85  1  0
 83 87  1  0
 83 82  1  0
 84 83  2  0
 87 86  1  0
 89 87  1  0
 89 90  1  0
 89 88  1  0
 91 94  1  1
 91 92  1  0
 93 91  1  0
M  ISO  4  15 100  23 100  53 101  54 101
M  END
>  <TORSDO>  (53) 
F 18

>  <SCORE>  (53) 
-10.781

>  <name>  (53) 
53

>  <ligand_id>  (53) 
53

>  <original_smiles>  (53) 
[H]c1c([H])c([H])c2c(c1[H])C([H])([H])C([H])([H])C([H])([H])C2([H])N([H])C(=O)C1([H])N(C(=O)C([H])(N([H])C(=O)C([H])(N([H])C([H])([H])[H])C([H])([H])[H])C(C([H])([H])[H])(C([H])([H])[H])C([H])([H])[H])C([H])([H])c2c([H])c(OC([H])([H])C3([H])C(=O)N(c4c([H])c(Cl)c(N([H])C(=O)N5C([H])([H])C([H])([H])C([H])([H])C([H])(n6nc(-c7c([H])c([H])c(Oc8c([H])c([H])c(F)c([H])c8F)c([H])c7[H])c(C(=O)N([H])[H])c6N([H])[H])C5([H])[H])c([H])c4Cl)C([H])([H])C3([H])[H])c([H])c([H])c2C1([H])[H]

>  <smiles>  (53) 
[H]c1c([H])c([H])c2c(c1[H])C([H])([H])C([H])([H])C([H])([H])C2([H])N([H])C(=O)C1([H])N(C(=O)C([H])(N([H])C(=O)C([H])(N([H])C([H])([H])[H])C([H])([H])[H])C(C([H])([H])[H])(C([H])([H])[H])C([H])([H])[H])C([H])([H])c2c([H])c(OC([H])([H])C3([H])C(=O)N(c4c([H])c(Cl)c(N([H])C(=O)N5C([H])([H])C([H])([H])C([H])([H])C([H])(n6nc(-c7c([H])c([H])c(Oc8c([H])c([H])c(F)c([H])c8F)c([H])c7[H])c(C(=O)N([H])[H])c6N([H])[H])C5([H])[H])c([H])c4Cl)C([H])([H])C3([H])[H])c([H])c([H])c2C1([H])[H]

$$$$
54:0:0
     RDKit          3D

 96105  0  0  1  0  0  0  0  0999 V2000
  -27.4570  -18.0700   18.9220 C   0  0  0  0  0  3  0  0  0  0  0  0
  -28.3020  -16.9910   19.2060 C   0  0  0  0  0  3  0  0  0  0  0  0
  -29.7660  -18.4940   20.4040 C   0  0  0  0  0  3  0  0  0  0  0  0
  -27.7560  -19.3890   19.3200 C   0  0  0  0  0  0  0  0  0  0  0  0
  -29.4580  -17.1240   19.9960 C   0  0  0  0  0  0  0  0  0  0  0  0
  -28.9550  -19.6690   20.0590 C   0  0  0  0  0  0  0  0  0  0  0  0
  -30.7650  -14.9820   20.9060 C   0  0  0  0  0  0  0  0  0  0  0  0
  -30.6660  -12.5920   20.2330 C   0  0  0  0  0  2  0  0  0  0  0  0
  -29.8620  -12.4210   18.9290 C   0  0  0  0  0  2  0  0  0  0  0  0
  -28.3600  -12.2700   19.2290 C   0  0  0  0  0  2  0  0  0  0  0  0
  -27.8350  -13.3020   20.2600 C   0  0  0  0  0  3  0  0  0  0  0  0
  -28.7770  -13.4740   21.4660 C   0  0  0  0  0  2  0  0  0  0  0  0
  -30.1020  -13.7770   20.9110 N   0  0  0  0  0  0  0  0  0  0  0  0
  -31.9730  -14.9710   21.1580 O   0  0  0  0  0  0  0  0  0  0  0  0
  -30.3670  -15.9410   19.9580 N   0  0  0  0  0  0  0  0  0  0  0  0
  -25.4090  -13.9590   20.7670 C   0  0  0  0  0  0  0  0  0  0  0  0
  -24.2940  -13.2090   21.0170 C   0  0  0  0  0  0  0  0  0  0  0  0
  -24.7310  -11.8500   21.0310 C   0  0  0  0  0  0  0  0  0  0  0  0
  -26.4510  -13.0540   20.6380 N   0  0  0  0  0  0  0  0  0  0  0  0
  -26.0440  -11.7820   20.8620 N   0  0  0  0  0  0  0  0  0  0  0  0
  -23.9640  -10.6030   21.1380 C   0  0  0  0  0  0  0  0  0  0  0  0
  -24.3210   -9.5970   22.0630 C   0  0  0  0  0  3  0  0  0  0  0  0
  -23.5600   -8.4130   22.1600 C   0  0  0  0  0  3  0  0  0  0  0  0
  -22.4270   -8.2280   21.3320 C   0  0  0  0  0  0  0  0  0  0  0  0
  -22.0920   -9.2210   20.3960 C   0  0  0  0  0  3  0  0  0  0  0  0
  -22.8550  -10.3970   20.2960 C   0  0  0  0  0  3  0  0  0  0  0  0
  -21.6420   -7.1000   21.3410 O   0  0  0  0  0  0  0  0  0  0  0  0
  -21.5750   -6.2830   22.4400 C   0  0  0  0  0  0  0  0  0  0  0  0
  -21.1590   -6.7620   23.7020 C   0  0  0  0  0  3  0  0  0  0  0  0
  -21.0360   -5.8720   24.7870 C   0  0  0  0  0  3  0  0  0  0  0  0
  -21.3170   -4.5020   24.6110 C   0  0  0  0  0  0  0  0  0  0  0  0
  -21.7270   -4.0230   23.3540 C   0  0  0  0  0  3  0  0  0  0  0  0
  -21.8530   -4.9100   22.2720 C   0  0  0  0  0  0  0  0  0  0  0  0
  -22.2260   -4.4410   21.0570 F   0  0  0  0  0  0  0  0  0  0  0  0
  -21.1900   -3.6440   25.6510 F   0  0  0  0  0  0  0  0  0  0  0  0
  -22.8880  -13.7150   21.1440 C   0  0  0  0  0  0  0  0  0  0  0  0
  -22.0690  -13.0490   21.9520 N   0  0  0  0  0  0  0  0  0  0  0  0
  -22.5200  -14.7340   20.5620 O   0  0  0  0  0  0  0  0  0  0  0  0
  -22.3760  -12.2220   22.4410 H   0  0  0  0  0  0  0  0  0  0  0  0
  -21.1200  -13.3680   22.0800 H   0  0  0  0  0  0  0  0  0  0  0  0
  -25.6170  -15.3270   20.6130 N   0  0  0  0  0  0  0  0  0  0  0  0
  -24.8570  -15.9940   20.6610 H   0  0  0  0  0  0  0  0  0  0  0  0
  -26.5200  -15.7570   20.4580 H   0  0  0  0  0  0  0  0  0  0  0  0
  -32.2840  -17.0030   18.6830 C   0  0  0  0  0  1  0  0  0  0  0  0
  -31.1910  -15.9200   18.7250 C   0  0  0  0  0  2  0  0  0  0  0  0
  -24.7650  -21.2410   18.1890 C   0  0  0  0  0  2  0  0  0  0  0  0
  -25.8370  -21.6930   17.1890 C   0  0  0  0  0  2  0  0  0  0  0  0
  -25.4490  -20.2040   19.0900 C   0  0  0  0  0  2  0  0  0  0  0  0
  -27.0470  -20.8080   17.4870 C   0  0  0  0  0  2  0  0  0  0  0  0
  -26.8730  -20.3920   18.8710 N   0  0  0  0  0  0  0  0  0  0  0  0
  -29.3510  -21.0430   20.3930 N   0  0  0  0  0  0  0  0  0  0  0  0
  -30.2440  -21.1640   20.8620 H   0  0  0  0  0  0  0  0  0  0  0  0
  -28.5810  -22.3100   20.0390 C   0  0  0  0  0  2  0  0  0  0  0  0
  -29.1030  -23.8100   20.3310 C   0  0  0  0  0  3  0  0  0  0  0  0
  -28.0580  -24.9860   19.9450 C   0  0  0  0  0  3  0  0  0  0  0  0
  -28.3230  -26.4650   20.0260 O   0  0  0  0  0  0  0  0  0  0  0  0
  -24.5930  -31.8840   23.1000 C   0  0  0  0  0  0  0  0  0  0  0  0
  -27.2110  -27.3440   19.9820 C   0  0  0  0  0  0  0  0  0  0  0  0
  -23.3830  -30.4830   21.4680 C   0  0  0  0  0  3  0  0  0  0  0  0
  -24.8310  -28.9600   20.0080 C   0  0  0  0  0  0  0  0  0  0  0  0
  -25.9190  -30.8230   21.2540 C   0  0  0  0  0  2  0  0  0  0  0  0
  -26.0060  -29.4490   20.5930 C   0  0  0  0  0  0  0  0  0  0  0  0
  -27.1980  -28.6550   20.5700 C   0  0  0  0  0  3  0  0  0  0  0  0
  -26.0070  -26.9260   19.3670 C   0  0  0  0  0  3  0  0  0  0  0  0
  -24.8350  -27.7060   19.3850 C   0  0  0  0  0  3  0  0  0  0  0  0
  -23.5850  -29.8230   20.0800 C   0  0  0  0  0  2  0  0  0  0  0  0
  -24.6510  -31.0830   21.9950 N   0  0  0  0  0  0  0  0  0  0  0  0
  -23.5150  -32.1450   23.6520 O   0  0  0  0  0  0  0  0  0  0  0  0
  -22.7450  -29.4520   22.4320 C   0  0  0  0  0  0  0  0  0  0  0  0
  -21.4160  -29.2760   22.3400 N   0  0  0  0  0  0  0  0  0  0  0  0
  -23.4470  -28.8140   23.2210 O   0  0  0  0  0  0  0  0  0  0  0  0
  -20.9070  -29.8450   21.6760 H   0  0  0  0  0  0  0  0  0  0  0  0
  -18.0540  -28.0660   22.9210 C   0  0  0  0  0  0  0  0  0  0  0  0
  -20.6200  -28.3280   23.1210 C   0  0  0  0  0  3  0  0  0  0  0  0
  -20.7080  -26.9040   22.5240 C   0  0  0  0  0  2  0  0  0  0  0  0
  -19.5770  -26.5920   21.5370 C   0  0  0  0  0  2  0  0  0  0  0  0
  -18.2150  -26.7270   22.2220 C   0  0  0  0  0  2  0  0  0  0  0  0
  -19.1840  -28.8250   23.3290 C   0  0  0  0  0  0  0  0  0  0  0  0
  -18.9800  -30.0790   23.9450 C   0  0  0  0  0  3  0  0  0  0  0  0
  -17.6800  -30.5740   24.1580 C   0  0  0  0  0  3  0  0  0  0  0  0
  -16.5650  -29.8120   23.7650 C   0  0  0  0  0  3  0  0  0  0  0  0
  -16.7540  -28.5620   23.1520 C   0  0  0  0  0  3  0  0  0  0  0  0
  -25.8760  -32.5310   23.7060 C   0  0  0  0  0  3  0  0  0  0  0  0
  -25.5460  -33.9160   24.0710 N   0  0  0  0  0  0  0  0  0  0  0  0
  -25.8800  -34.9950   23.3490 C   0  0  0  0  0  0  0  0  0  0  0  0
  -26.5690  -34.9270   22.3280 O   0  0  0  0  0  0  0  0  0  0  0  0
  -24.9350  -34.0400   24.8640 H   0  0  0  0  0  0  0  0  0  0  0  0
  -24.1550  -36.7940   23.0020 C   0  0  0  0  0  1  0  0  0  0  0  0
  -25.3720  -36.3660   23.8380 C   0  0  0  0  0  3  0  0  0  0  0  0
  -27.4760  -37.2290   24.7650 C   0  0  0  0  0  1  0  0  0  0  0  0
  -26.4030  -37.4260   23.7930 N   0  0  0  0  0  0  0  0  0  0  0  0
  -25.9890  -38.3390   23.9590 H   0  0  0  0  0  0  0  0  0  0  0  0
  -26.4320  -31.7480   24.9590 C   0  0  1  0  0  0  0  0  0  0  0  0
  -25.3660  -31.4760   26.0470 C   0  0  0  0  0  1  0  0  0  0  0  0
  -27.0320  -30.3870   24.5370 C   0  0  0  0  0  1  0  0  0  0  0  0
  -27.5820  -32.5520   25.6090 C   0  0  0  0  0  1  0  0  0  0  0  0
  1  2  2  0
  1  4  1  0
  2  5  1  0
  4  6  2  0
  5  3  2  0
  6 51  1  0
  6  3  1  0
  7 13  1  0
  7 14  2  0
  8 13  1  0
  9 10  1  0
  9  8  1  0
 11 10  1  0
 11 19  1  0
 11 12  1  0
 13 12  1  0
 15  5  1  0
 15  7  1  0
 16 17  2  0
 17 18  1  0
 17 36  1  0
 18 21  1  0
 19 16  1  0
 19 20  1  0
 20 18  2  0
 21 22  1  0
 22 23  2  0
 24 27  1  0
 24 23  1  0
 25 24  2  0
 26 25  1  0
 26 21  2  0
 27 28  1  0
 28 29  1  0
 29 30  2  0
 31 30  1  0
 31 35  1  0
 32 31  2  0
 33 28  2  0
 33 32  1  0
 34 33  1  0
 36 37  1  0
 37 40  1  0
 37 39  1  0
 38 36  2  0
 41 42  1  0
 41 16  1  0
 43 41  1  0
 44 45  1  0
 45 15  1  0
 46 48  1  0
 47 49  1  0
 47 46  1  0
 49 50  1  0
 50 48  1  0
 50  4  1  0
 51 52  1  0
 53 54  1  0
 53 51  1  0
 55 56  1  0
 55 54  2  0
 57 68  2  0
 58 56  1  0
 58 63  1  0
 59 67  1  0
 59 69  1  0
 60 66  1  0
 60 62  1  0
 61 67  1  0
 62 61  1  0
 63 62  2  0
 64 65  1  0
 64 58  2  0
 65 60  2  0
 66 59  1  0
 67 57  1  0
 69 71  2  0
 70 69  1  0
 72 70  1  0
 73 82  2  0
 73 78  1  0
 74 70  1  0
 74 78  1  0
 75 74  1  0
 76 77  1  0
 76 75  1  0
 77 73  1  0
 78 79  2  0
 79 80  1  0
 81 80  2  0
 82 81  1  0
 83 57  1  0
 83 84  1  0
 83 93  1  0
 84 87  1  0
 85 89  1  0
 85 84  1  0
 86 85  2  0
 89 88  1  0
 91 89  1  0
 91 92  1  0
 91 90  1  0
 93 96  1  1
 93 94  1  0
 95 93  1  0
M  ISO  4   7 100  15 100  55 101  56 101
M  END
>  <TORSDO>  (54) 
F 22

>  <SCORE>  (54) 
-12.107

>  <name>  (54) 
54

>  <ligand_id>  (54) 
54

>  <original_smiles>  (54) 
[H]c1c([H])c([H])c2c(c1[H])C([H])([H])C([H])([H])C([H])([H])C2([H])N([H])C(=O)C1([H])N(C(=O)C([H])(N([H])C(=O)C([H])(N([H])C([H])([H])[H])C([H])([H])[H])C(C([H])([H])[H])(C([H])([H])[H])C([H])([H])[H])C([H])([H])c2c([H])c(OC([H])([H])C([H])([H])C([H])([H])N([H])c3c([H])c(N(C(=O)N4C([H])([H])C([H])([H])C([H])([H])C([H])(n5nc(-c6c([H])c([H])c(Oc7c([H])c([H])c(F)c([H])c7F)c([H])c6[H])c(C(=O)N([H])[H])c5N([H])[H])C4([H])[H])C([H])([H])C([H])([H])[H])c([H])c([H])c3N3C([H])([H])C([H])([H])C([H])([H])C3([H])[H])c([H])c([H])c2C1([H])[H]

>  <smiles>  (54) 
[H]c1c([H])c([H])c2c(c1[H])C([H])([H])C([H])([H])C([H])([H])C2([H])N([H])C(=O)C1([H])N(C(=O)C([H])(N([H])C(=O)C([H])(N([H])C([H])([H])[H])C([H])([H])[H])C(C([H])([H])[H])(C([H])([H])[H])C([H])([H])[H])C([H])([H])c2c([H])c(OC([H])([H])C([H])([H])C([H])([H])N([H])c3c([H])c(N(C(=O)N4C([H])([H])C([H])([H])C([H])([H])C([H])(n5nc(-c6c([H])c([H])c(Oc7c([H])c([H])c(F)c([H])c7F)c([H])c6[H])c(C(=O)N([H])[H])c5N([H])[H])C4([H])[H])C([H])([H])C([H])([H])[H])c([H])c([H])c3N3C([H])([H])C([H])([H])C([H])([H])C3([H])[H])c([H])c([H])c2C1([H])[H]

$$$$
55:0:0
     RDKit          3D

 93101  0  0  1  0  0  0  0  0999 V2000
  -30.1310  -21.9090   18.1520 C   0  0  0  0  0  1  0  0  0  0  0  0
  -29.6430  -21.5060   19.4960 N   0  0  1  0  0  4  0  0  0  0  0  0
  -28.7600  -21.0510   19.3190 H   0  0  0  0  0  0  0  0  0  0  0  0
  -30.5440  -20.4310   20.0790 C   0  0  0  0  0  2  0  0  0  0  0  0
  -28.9960  -19.3990   21.8020 C   0  0  0  0  0  3  0  0  0  0  0  0
  -28.4450  -18.3180   22.5060 C   0  0  0  0  0  3  0  0  0  0  0  0
  -30.2590  -17.8270   20.4080 C   0  0  0  0  0  3  0  0  0  0  0  0
  -29.8970  -19.1830   20.7410 C   0  0  0  0  0  0  0  0  0  0  0  0
  -29.7170  -16.7190   21.1430 C   0  0  0  0  0  0  0  0  0  0  0  0
  -28.7990  -16.9990   22.1840 C   0  0  0  0  0  0  0  0  0  0  0  0
  -28.0850  -15.7180   23.1060 Cl  0  0  0  0  0  0  0  0  0  0  0  0
  -30.6740  -14.4890   20.1670 C   0  0  0  0  0  0  0  0  0  0  0  0
  -30.5110  -12.3590   18.8880 C   0  0  0  0  0  2  0  0  0  0  0  0
  -29.5380  -12.5650   17.7070 C   0  0  0  0  0  2  0  0  0  0  0  0
  -28.0680  -12.3700   18.1370 C   0  0  0  0  0  2  0  0  0  0  0  0
  -27.7240  -13.1340   19.4430 C   0  0  0  0  0  3  0  0  0  0  0  0
  -28.7910  -12.8410   20.5200 C   0  0  0  0  0  2  0  0  0  0  0  0
  -30.1020  -13.2590   19.9810 N   0  0  0  0  0  0  0  0  0  0  0  0
  -31.7500  -14.8120   19.6530 O   0  0  0  0  0  0  0  0  0  0  0  0
  -29.9280  -15.3030   20.9490 N   0  0  0  0  0  0  0  0  0  0  0  0
  -29.2320  -14.7650   21.4460 H   0  0  0  0  0  0  0  0  0  0  0  0
  -25.3310  -13.6900   20.2130 C   0  0  0  0  0  0  0  0  0  0  0  0
  -24.2660  -12.8920   20.5370 C   0  0  0  0  0  0  0  0  0  0  0  0
  -24.7280  -11.5460   20.4050 C   0  0  0  0  0  0  0  0  0  0  0  0
  -26.3740  -12.8270   19.9100 N   0  0  0  0  0  0  0  0  0  0  0  0
  -26.0140  -11.5290   20.0800 N   0  0  0  0  0  0  0  0  0  0  0  0
  -24.0050  -10.2720   20.5110 C   0  0  0  0  0  0  0  0  0  0  0  0
  -24.4850   -9.2160   21.3160 C   0  0  0  0  0  3  0  0  0  0  0  0
  -23.7640   -8.0070   21.4150 C   0  0  0  0  0  3  0  0  0  0  0  0
  -22.5480   -7.8450   20.7090 C   0  0  0  0  0  0  0  0  0  0  0  0
  -22.0870   -8.8920   19.8900 C   0  0  0  0  0  3  0  0  0  0  0  0
  -22.8090  -10.0930   19.7880 C   0  0  0  0  0  3  0  0  0  0  0  0
  -21.7930   -6.6980   20.7250 O   0  0  0  0  0  0  0  0  0  0  0  0
  -21.8450   -5.8180   21.7770 C   0  0  0  0  0  0  0  0  0  0  0  0
  -21.5860   -6.2250   23.1030 C   0  0  0  0  0  3  0  0  0  0  0  0
  -21.5820   -5.2740   24.1430 C   0  0  0  0  0  3  0  0  0  0  0  0
  -21.8250   -3.9180   23.8590 C   0  0  0  0  0  0  0  0  0  0  0  0
  -22.0780   -3.5090   22.5380 C   0  0  0  0  0  3  0  0  0  0  0  0
  -22.0840   -4.4570   21.4980 C   0  0  0  0  0  0  0  0  0  0  0  0
  -22.3070   -4.0550   20.2240 F   0  0  0  0  0  0  0  0  0  0  0  0
  -21.8120   -3.0020   24.8560 F   0  0  0  0  0  0  0  0  0  0  0  0
  -22.8700  -13.3460   20.8590 C   0  0  0  0  0  0  0  0  0  0  0  0
  -22.1550  -12.5900   21.6850 N   0  0  0  0  0  0  0  0  0  0  0  0
  -22.4220  -14.4020   20.4160 O   0  0  0  0  0  0  0  0  0  0  0  0
  -22.5280  -11.7320   22.0670 H   0  0  0  0  0  0  0  0  0  0  0  0
  -21.2210  -12.8730   21.9420 H   0  0  0  0  0  0  0  0  0  0  0  0
  -25.4930  -15.0700   20.1320 N   0  0  0  0  0  0  0  0  0  0  0  0
  -24.7360  -15.7190   20.3090 H   0  0  0  0  0  0  0  0  0  0  0  0
  -26.3520  -15.5290   19.8540 H   0  0  0  0  0  0  0  0  0  0  0  0
  -29.3520  -22.7000   20.3940 C   0  0  0  0  0  3  0  0  0  0  0  0
  -28.8990  -24.0640   19.7180 C   0  0  0  0  0  3  0  0  0  0  0  0
  -28.4150  -25.1970   20.6950 C   0  0  0  0  0  2  0  0  0  0  0  0
  -28.5130  -26.5690   20.2080 O   0  0  0  0  0  0  0  0  0  0  0  0
  -24.7050  -31.7910   23.3470 C   0  0  0  0  0  0  0  0  0  0  0  0
  -27.3680  -27.3570   20.2170 C   0  0  0  0  0  0  0  0  0  0  0  0
  -23.5430  -30.4960   21.5910 C   0  0  0  0  0  3  0  0  0  0  0  0
  -25.0220  -28.9630   20.1780 C   0  0  0  0  0  0  0  0  0  0  0  0
  -26.0890  -30.7720   21.5320 C   0  0  0  0  0  2  0  0  0  0  0  0
  -26.1690  -29.4220   20.8370 C   0  0  0  0  0  0  0  0  0  0  0  0
  -27.3480  -28.6300   20.8450 C   0  0  0  0  0  3  0  0  0  0  0  0
  -26.2030  -26.9210   19.5530 C   0  0  0  0  0  3  0  0  0  0  0  0
  -25.0380  -27.7150   19.5280 C   0  0  0  0  0  3  0  0  0  0  0  0
  -23.8030  -29.8630   20.1970 C   0  0  0  0  0  2  0  0  0  0  0  0
  -24.7950  -31.0330   22.2160 N   0  0  0  0  0  0  0  0  0  0  0  0
  -23.6070  -32.0750   23.8460 O   0  0  0  0  0  0  0  0  0  0  0  0
  -22.8120  -29.4610   22.4760 C   0  0  0  0  0  0  0  0  0  0  0  0
  -21.4880  -29.3310   22.2830 N   0  0  0  0  0  0  0  0  0  0  0  0
  -23.4350  -28.7770   23.2920 O   0  0  0  0  0  0  0  0  0  0  0  0
  -21.0490  -29.9350   21.6030 H   0  0  0  0  0  0  0  0  0  0  0  0
  -18.0610  -28.2120   22.5550 C   0  0  0  0  0  0  0  0  0  0  0  0
  -20.6070  -28.3880   22.9720 C   0  0  0  0  0  3  0  0  0  0  0  0
  -20.7020  -26.9770   22.3470 C   0  0  0  0  0  2  0  0  0  0  0  0
  -19.6490  -26.7240   21.2640 C   0  0  0  0  0  2  0  0  0  0  0  0
  -18.2380  -26.8830   21.8390 C   0  0  0  0  0  2  0  0  0  0  0  0
  -19.1740  -28.9250   23.0730 C   0  0  0  0  0  0  0  0  0  0  0  0
  -18.9590  -30.1700   23.7000 C   0  0  0  0  0  3  0  0  0  0  0  0
  -17.6620  -30.7040   23.8170 C   0  0  0  0  0  3  0  0  0  0  0  0
  -16.5610  -29.9860   23.3160 C   0  0  0  0  0  3  0  0  0  0  0  0
  -16.7610  -28.7420   22.6920 C   0  0  0  0  0  3  0  0  0  0  0  0
  -25.9770  -32.3570   24.0550 C   0  0  0  0  0  3  0  0  0  0  0  0
  -25.6760  -33.7330   24.4740 N   0  0  0  0  0  0  0  0  0  0  0  0
  -26.0480  -34.8320   23.8030 C   0  0  0  0  0  0  0  0  0  0  0  0
  -26.7510  -34.7900   22.7880 O   0  0  0  0  0  0  0  0  0  0  0  0
  -25.0590  -33.8410   25.2660 H   0  0  0  0  0  0  0  0  0  0  0  0
  -24.3510  -36.6660   23.5250 C   0  0  0  0  0  1  0  0  0  0  0  0
  -25.5640  -36.1920   24.3400 C   0  0  0  0  0  3  0  0  0  0  0  0
  -27.6910  -36.9850   25.2770 C   0  0  0  0  0  1  0  0  0  0  0  0
  -26.6110  -37.2370   24.3260 N   0  0  0  0  0  0  0  0  0  0  0  0
  -26.2130  -38.1490   24.5330 H   0  0  0  0  0  0  0  0  0  0  0  0
  -26.4380  -31.4900   25.2890 C   0  0  1  0  0  0  0  0  0  0  0  0
  -25.3070  -31.1990   26.3040 C   0  0  0  0  0  1  0  0  0  0  0  0
  -27.0100  -30.1330   24.8170 C   0  0  0  0  0  1  0  0  0  0  0  0
  -27.5800  -32.2130   26.0420 C   0  0  0  0  0  1  0  0  0  0  0  0
  1  2  1  0
  2  4  1  0
  2 50  1  0
  2  3  1  6
  4  8  1  0
  5  6  1  0
  7  8  1  0
  7  9  2  0
  8  5  2  0
  9 10  1  0
 10  6  2  0
 10 11  1  0
 12 20  1  0
 13 18  1  0
 14 15  1  0
 14 13  1  0
 16 15  1  0
 16 25  1  0
 16 17  1  0
 18 12  1  0
 18 17  1  0
 19 12  2  0
 20  9  1  0
 20 21  1  0
 22 23  2  0
 23 42  1  0
 24 27  1  0
 24 23  1  0
 25 26  1  0
 25 22  1  0
 26 24  2  0
 27 28  1  0
 28 29  2  0
 30 33  1  0
 30 29  1  0
 31 30  2  0
 32 31  1  0
 32 27  2  0
 33 34  1  0
 34 35  1  0
 35 36  2  0
 37 36  1  0
 37 41  1  0
 38 37  2  0
 39 34  2  0
 39 38  1  0
 40 39  1  0
 42 43  1  0
 43 46  1  0
 43 45  1  0
 44 42  2  0
 47 22  1  0
 47 48  1  0
 49 47  1  0
 51 50  2  0
 51 52  1  0
 53 55  1  0
 53 52  1  0
 54 65  2  0
 55 60  1  0
 56 64  1  0
 56 66  1  0
 57 63  1  0
 57 59  1  0
 58 64  1  0
 59 60  2  0
 59 58  1  0
 61 55  2  0
 62 61  1  0
 62 57  2  0
 63 56  1  0
 64 54  1  0
 66 68  2  0
 67 66  1  0
 69 67  1  0
 70 79  2  0
 70 75  1  0
 71 67  1  0
 71 75  1  0
 72 71  1  0
 73 74  1  0
 73 72  1  0
 74 70  1  0
 75 76  2  0
 76 77  1  0
 78 77  2  0
 79 78  1  0
 80 54  1  0
 80 81  1  0
 80 90  1  0
 81 84  1  0
 82 86  1  0
 82 81  1  0
 83 82  2  0
 86 85  1  0
 88 86  1  0
 88 89  1  0
 88 87  1  0
 90 93  1  1
 90 91  1  0
 92 90  1  0
M  ISO  4  12 100  20 100  52 101  53 101
M  END
>  <TORSDO>  (55) 
F 21

>  <SCORE>  (55) 
1.775

>  <name>  (55) 
55

>  <ligand_id>  (55) 
55

>  <original_smiles>  (55) 
[H]c1c([H])c([H])c2c(c1[H])C([H])([H])C([H])([H])C([H])([H])C2([H])N([H])C(=O)C1([H])N(C(=O)C([H])(N([H])C(=O)C([H])(N([H])C([H])([H])[H])C([H])([H])[H])C(C([H])([H])[H])(C([H])([H])[H])C([H])([H])[H])C([H])([H])c2c([H])c(OC([H])([H])C([H])([H])C([H])([H])[N+]([H])(C([H])([H])[H])C([H])([H])c3c([H])c([H])c(Cl)c(N([H])C(=O)N4C([H])([H])C([H])([H])C([H])([H])C([H])(n5nc(-c6c([H])c([H])c(Oc7c([H])c([H])c(F)c([H])c7F)c([H])c6[H])c(C(=O)N([H])[H])c5N([H])[H])C4([H])[H])c3[H])c([H])c([H])c2C1([H])[H]

>  <smiles>  (55) 
[H]c1c([H])c([H])c2c(c1[H])C([H])([H])C([H])([H])C([H])([H])C2([H])N([H])C(=O)C1([H])N(C(=O)C([H])(N([H])C(=O)C([H])(N([H])C([H])([H])[H])C([H])([H])[H])C(C([H])([H])[H])(C([H])([H])[H])C([H])([H])[H])C([H])([H])c2c([H])c(OC([H])([H])C([H])([H])C([H])([H])[N+]([H])(C([H])([H])[H])C([H])([H])c3c([H])c([H])c(Cl)c(N([H])C(=O)N4C([H])([H])C([H])([H])C([H])([H])C([H])(n5nc(-c6c([H])c([H])c(Oc7c([H])c([H])c(F)c([H])c7F)c([H])c6[H])c(C(=O)N([H])[H])c5N([H])[H])C4([H])[H])c3[H])c([H])c([H])c2C1([H])[H]

$$$$
56:0:0
     RDKit          3D

 92101  0  0  1  0  0  0  0  0999 V2000
  -30.7990  -23.5900   21.6530 C   0  0  0  0  0  2  0  0  0  0  0  0
  -30.6800  -24.0710   20.2020 C   0  0  0  0  0  2  0  0  0  0  0  0
  -29.5820  -22.6800   21.8810 C   0  0  0  0  0  2  0  0  0  0  0  0
  -29.2420  -23.7280   19.8210 C   0  0  0  0  0  3  0  0  0  0  0  0
  -29.0340  -22.3750   20.5570 N   0  0  0  0  0  0  0  0  0  0  0  0
  -30.2620  -20.4380   19.2820 C   0  0  0  0  0  3  0  0  0  0  0  0
  -30.5650  -19.0270   19.0930 C   0  0  0  0  0  3  0  0  0  0  0  0
  -29.1040  -18.4470   20.8440 C   0  0  0  0  0  3  0  0  0  0  0  0
  -28.7860  -19.8570   21.0330 C   0  0  0  0  0  0  0  0  0  0  0  0
  -29.3420  -20.9460   20.2550 C   0  0  0  0  0  0  0  0  0  0  0  0
  -30.0060  -17.9360   19.8560 C   0  0  0  0  0  0  0  0  0  0  0  0
  -27.7570  -20.1840   22.1060 C   0  0  0  0  0  1  0  0  0  0  0  0
  -30.8790  -15.3350   19.7050 C   0  0  0  0  0  0  0  0  0  0  0  0
  -30.7710  -12.9650   18.8100 C   0  0  0  0  0  2  0  0  0  0  0  0
  -29.7330  -12.8060   17.6740 C   0  0  0  0  0  2  0  0  0  0  0  0
  -28.3100  -12.6040   18.2380 C   0  0  0  0  0  2  0  0  0  0  0  0
  -27.9750  -13.5240   19.4430 C   0  0  0  0  0  3  0  0  0  0  0  0
  -29.1340  -13.6040   20.4560 C   0  0  0  0  0  2  0  0  0  0  0  0
  -30.3140  -14.0600   19.7080 N   0  0  0  0  0  0  0  0  0  0  0  0
  -32.0930  -15.4040   19.4760 O   0  0  0  0  0  0  0  0  0  0  0  0
  -29.6770  -16.4350   17.9760 C   0  0  0  0  0  1  0  0  0  0  0  0
  -30.0550  -16.4700   19.4000 N   0  0  0  0  0  0  0  0  0  0  0  0
  -25.6960  -14.0350   20.4890 C   0  0  0  0  0  0  0  0  0  0  0  0
  -24.6750  -13.2270   20.9050 C   0  0  0  0  0  0  0  0  0  0  0  0
  -25.1320  -11.8870   20.7210 C   0  0  0  0  0  0  0  0  0  0  0  0
  -26.7050  -13.1820   20.0700 N   0  0  0  0  0  0  0  0  0  0  0  0
  -26.3830  -11.8810   20.2760 N   0  0  0  0  0  0  0  0  0  0  0  0
  -24.4280  -10.6090   20.8890 C   0  0  0  0  0  0  0  0  0  0  0  0
  -24.8480   -9.6570   21.8450 C   0  0  0  0  0  3  0  0  0  0  0  0
  -24.1440   -8.4440   22.0030 C   0  0  0  0  0  3  0  0  0  0  0  0
  -23.0070   -8.1750   21.2050 C   0  0  0  0  0  0  0  0  0  0  0  0
  -22.6070   -9.1160   20.2390 C   0  0  0  0  0  3  0  0  0  0  0  0
  -23.3120  -10.3200   20.0800 C   0  0  0  0  0  3  0  0  0  0  0  0
  -22.2770   -7.0130   21.2710 O   0  0  0  0  0  0  0  0  0  0  0  0
  -22.0050   -6.4020   22.4680 C   0  0  0  0  0  0  0  0  0  0  0  0
  -21.2990   -7.0600   23.4990 C   0  0  0  0  0  3  0  0  0  0  0  0
  -20.9820   -6.3690   24.6860 C   0  0  0  0  0  3  0  0  0  0  0  0
  -21.3600   -5.0230   24.8410 C   0  0  0  0  0  0  0  0  0  0  0  0
  -22.0560   -4.3640   23.8120 C   0  0  0  0  0  3  0  0  0  0  0  0
  -22.3750   -5.0510   22.6280 C   0  0  0  0  0  0  0  0  0  0  0  0
  -23.0290   -4.4060   21.6320 F   0  0  0  0  0  0  0  0  0  0  0  0
  -21.0470   -4.3560   25.9770 F   0  0  0  0  0  0  0  0  0  0  0  0
  -23.3150  -13.6730   21.3550 C   0  0  0  0  0  0  0  0  0  0  0  0
  -22.7020  -12.9340   22.2720 N   0  0  0  0  0  0  0  0  0  0  0  0
  -22.8110  -14.7120   20.9300 O   0  0  0  0  0  0  0  0  0  0  0  0
  -23.1280  -12.0960   22.6380 H   0  0  0  0  0  0  0  0  0  0  0  0
  -21.7900  -13.2100   22.6100 H   0  0  0  0  0  0  0  0  0  0  0  0
  -25.8440  -15.4160   20.4060 N   0  0  0  0  0  0  0  0  0  0  0  0
  -25.1040  -16.0540   20.6780 H   0  0  0  0  0  0  0  0  0  0  0  0
  -26.6700  -15.8880   20.0610 H   0  0  0  0  0  0  0  0  0  0  0  0
  -28.2730  -25.0570   20.1890 C   0  0  0  0  0  2  0  0  0  0  0  0
  -28.3920  -26.5110   19.6650 O   0  0  0  0  0  0  0  0  0  0  0  0
  -24.6190  -31.8260   23.0840 C   0  0  0  0  0  0  0  0  0  0  0  0
  -27.2820  -27.4200   19.7240 C   0  0  0  0  0  0  0  0  0  0  0  0
  -23.4240  -30.4840   21.3960 C   0  0  0  0  0  3  0  0  0  0  0  0
  -24.8870  -29.0490   19.8480 C   0  0  0  0  0  0  0  0  0  0  0  0
  -25.9570  -30.8620   21.1780 C   0  0  0  0  0  2  0  0  0  0  0  0
  -26.0640  -29.5150   20.4490 C   0  0  0  0  0  0  0  0  0  0  0  0
  -27.2640  -28.7160   20.3690 C   0  0  0  0  0  3  0  0  0  0  0  0
  -26.0770  -27.0500   19.0860 C   0  0  0  0  0  3  0  0  0  0  0  0
  -24.9040  -27.8310   19.1520 C   0  0  0  0  0  3  0  0  0  0  0  0
  -23.6290  -29.8930   19.9750 C   0  0  0  0  0  2  0  0  0  0  0  0
  -24.6870  -31.0760   21.9420 N   0  0  0  0  0  0  0  0  0  0  0  0
  -23.5390  -32.0390   23.6550 O   0  0  0  0  0  0  0  0  0  0  0  0
  -22.8090  -29.3980   22.3140 C   0  0  0  0  0  0  0  0  0  0  0  0
  -21.4920  -29.1610   22.1850 N   0  0  0  0  0  0  0  0  0  0  0  0
  -23.5190  -28.7720   23.1040 O   0  0  0  0  0  0  0  0  0  0  0  0
  -20.9720  -29.7210   21.5240 H   0  0  0  0  0  0  0  0  0  0  0  0
  -18.1760  -27.7910   22.6790 C   0  0  0  0  0  0  0  0  0  0  0  0
  -20.7260  -28.1480   22.9160 C   0  0  0  0  0  3  0  0  0  0  0  0
  -20.8770  -26.7550   22.2600 C   0  0  0  0  0  2  0  0  0  0  0  0
  -19.7690  -26.4420   21.2480 C   0  0  0  0  0  2  0  0  0  0  0  0
  -18.3950  -26.4900   21.9250 C   0  0  0  0  0  2  0  0  0  0  0  0
  -19.2690  -28.5770   23.1310 C   0  0  0  0  0  0  0  0  0  0  0  0
  -19.0080  -29.7920   23.8010 C   0  0  0  0  0  3  0  0  0  0  0  0
  -17.6860  -30.2240   24.0200 C   0  0  0  0  0  3  0  0  0  0  0  0
  -16.6080  -29.4360   23.5820 C   0  0  0  0  0  3  0  0  0  0  0  0
  -16.8530  -28.2210   22.9190 C   0  0  0  0  0  3  0  0  0  0  0  0
  -25.8920  -32.4690   23.7140 C   0  0  0  0  0  3  0  0  0  0  0  0
  -25.5530  -33.8480   24.1000 N   0  0  0  0  0  0  0  0  0  0  0  0
  -25.7950  -34.9320   23.3510 C   0  0  0  0  0  0  0  0  0  0  0  0
  -26.3960  -34.8790   22.2740 O   0  0  0  0  0  0  0  0  0  0  0  0
  -25.0080  -33.9610   24.9420 H   0  0  0  0  0  0  0  0  0  0  0  0
  -23.9600  -36.6470   23.2020 C   0  0  0  0  0  1  0  0  0  0  0  0
  -25.2930  -36.2920   23.8780 C   0  0  0  0  0  3  0  0  0  0  0  0
  -27.4510  -37.2730   24.5200 C   0  0  0  0  0  1  0  0  0  0  0  0
  -26.2600  -37.3930   23.6810 N   0  0  0  0  0  0  0  0  0  0  0  0
  -25.8270  -38.2920   23.8730 H   0  0  0  0  0  0  0  0  0  0  0  0
  -26.4400  -31.6680   24.9580 C   0  0  1  0  0  0  0  0  0  0  0  0
  -25.3640  -31.3690   26.0280 C   0  0  0  0  0  1  0  0  0  0  0  0
  -27.0500  -30.3170   24.5170 C   0  0  0  0  0  1  0  0  0  0  0  0
  -27.5800  -32.4660   25.6350 C   0  0  0  0  0  1  0  0  0  0  0  0
  1  3  1  0
  2  1  1  0
  4 51  1  0
  4  2  1  0
  4  5  1  0
  5  3  1  0
  6 10  1  0
  7  6  2  0
  7 11  1  0
  8  9  1  0
  9 12  1  0
 10  5  1  0
 10  9  2  0
 11  8  2  0
 13 19  1  0
 14 19  1  0
 15 16  1  0
 15 14  1  0
 17 16  1  0
 17 26  1  0
 17 18  1  0
 19 18  1  0
 20 13  2  0
 21 22  1  0
 22 13  1  0
 22 11  1  0
 23 24  2  0
 24 43  1  0
 25 28  1  0
 25 24  1  0
 26 27  1  0
 26 23  1  0
 27 25  2  0
 28 29  1  0
 29 30  2  0
 31 34  1  0
 31 30  1  0
 32 31  2  0
 33 32  1  0
 33 28  2  0
 34 35  1  0
 35 40  2  0
 35 36  1  0
 36 37  2  0
 37 38  1  0
 38 42  1  0
 39 38  2  0
 40 39  1  0
 41 40  1  0
 43 44  1  0
 44 47  1  0
 44 46  1  0
 45 43  2  0
 48 23  1  0
 48 49  1  0
 50 48  1  0
 52 54  1  0
 52 51  1  0
 53 64  2  0
 54 59  1  0
 55 63  1  0
 55 65  1  0
 56 62  1  0
 56 58  1  0
 57 63  1  0
 58 57  1  0
 59 58  2  0
 60 61  1  0
 60 54  2  0
 61 56  2  0
 62 55  1  0
 63 53  1  0
 65 67  2  0
 66 65  1  0
 68 66  1  0
 69 78  2  0
 69 74  1  0
 70 66  1  0
 70 74  1  0
 71 70  1  0
 72 73  1  0
 72 71  1  0
 73 69  1  0
 74 75  2  0
 75 76  1  0
 77 76  2  0
 78 77  1  0
 79 53  1  0
 79 80  1  0
 79 89  1  0
 80 83  1  0
 81 85  1  0
 81 80  1  0
 82 81  2  0
 85 84  1  0
 87 88  1  0
 87 85  1  0
 87 86  1  0
 89 92  1  1
 89 90  1  0
 91 89  1  0
M  ISO  4  13 100  22 100  51 101  52 101
M  END
>  <TORSDO>  (56) 
F 18

>  <SCORE>  (56) 
-8.942

>  <name>  (56) 
56

>  <ligand_id>  (56) 
56

>  <original_smiles>  (56) 
[H]c1c([H])c([H])c2c(c1[H])C([H])([H])C([H])([H])C([H])([H])C2([H])N([H])C(=O)C1([H])N(C(=O)C([H])(N([H])C(=O)C([H])(N([H])C([H])([H])[H])C([H])([H])[H])C(C([H])([H])[H])(C([H])([H])[H])C([H])([H])[H])C([H])([H])c2c([H])c(OC([H])([H])C3([H])N(c4c([H])c([H])c(N(C(=O)N5C([H])([H])C([H])([H])C([H])([H])C([H])(n6nc(-c7c([H])c([H])c(Oc8c([H])c([H])c(F)c([H])c8F)c([H])c7[H])c(C(=O)N([H])[H])c6N([H])[H])C5([H])[H])C([H])([H])[H])c([H])c4C([H])([H])[H])C([H])([H])C([H])([H])C3([H])[H])c([H])c([H])c2C1([H])[H]

>  <smiles>  (56) 
[H]c1c([H])c([H])c2c(c1[H])C([H])([H])C([H])([H])C([H])([H])C2([H])N([H])C(=O)C1([H])N(C(=O)C([H])(N([H])C(=O)C([H])(N([H])C([H])([H])[H])C([H])([H])[H])C(C([H])([H])[H])(C([H])([H])[H])C([H])([H])[H])C([H])([H])c2c([H])c(OC([H])([H])C3([H])N(c4c([H])c([H])c(N(C(=O)N5C([H])([H])C([H])([H])C([H])([H])C([H])(n6nc(-c7c([H])c([H])c(Oc8c([H])c([H])c(F)c([H])c8F)c([H])c7[H])c(C(=O)N([H])[H])c6N([H])[H])C5([H])[H])C([H])([H])[H])c([H])c4C([H])([H])[H])C([H])([H])C([H])([H])C3([H])[H])c([H])c([H])c2C1([H])[H]

$$$$
57:0:0
     RDKit          3D

 93102  0  0  1  0  0  0  0  0999 V2000
  -30.7180  -24.3140   20.4230 C   0  0  0  0  0  2  0  0  0  0  0  0
  -31.0470  -22.8380   20.7110 C   0  0  0  0  0  2  0  0  0  0  0  0
  -28.8150  -22.8710   19.9750 C   0  0  0  0  0  2  0  0  0  0  0  0
  -29.2860  -24.3370   19.8480 C   0  0  0  0  0  3  0  0  0  0  0  0
  -30.0300  -22.0650   20.0190 N   0  0  0  0  0  0  0  0  0  0  0  0
  -29.8850  -18.4480   19.1420 C   0  0  0  0  0  3  0  0  0  0  0  0
  -29.9870  -19.8540   19.0630 C   0  0  0  0  0  3  0  0  0  0  0  0
  -29.7000  -18.6140   21.5520 C   0  0  0  0  0  3  0  0  0  0  0  0
  -29.7170  -17.8130   20.3900 C   0  0  0  0  0  0  0  0  0  0  0  0
  -29.8180  -20.0260   21.4860 C   0  0  0  0  0  0  0  0  0  0  0  0
  -29.9440  -20.6670   20.2190 C   0  0  0  0  0  0  0  0  0  0  0  0
  -29.8080  -20.7840   22.8060 C   0  0  0  0  0  1  0  0  0  0  0  0
  -29.4700  -16.2970   20.4720 C   0  0  0  0  0  2  0  0  0  0  0  0
  -31.0020  -14.4750   19.7730 C   0  0  0  0  0  0  0  0  0  0  0  0
  -30.5440  -12.2990   18.6820 C   0  0  0  0  0  2  0  0  0  0  0  0
  -29.5280  -12.4510   17.5340 C   0  0  0  0  0  2  0  0  0  0  0  0
  -28.0920  -12.3190   18.0680 C   0  0  0  0  0  2  0  0  0  0  0  0
  -27.8370  -13.2210   19.3020 C   0  0  0  0  0  3  0  0  0  0  0  0
  -28.9630  -13.0710   20.3530 C   0  0  0  0  0  2  0  0  0  0  0  0
  -30.2530  -13.3340   19.6930 N   0  0  0  0  0  0  0  0  0  0  0  0
  -32.0500  -14.6110   19.1310 O   0  0  0  0  0  0  0  0  0  0  0  0
  -31.6790  -15.9950   21.5420 C   0  0  0  0  0  1  0  0  0  0  0  0
  -30.6400  -15.4170   20.6830 N   0  0  0  0  0  0  0  0  0  0  0  0
  -25.5290  -13.8990   20.2120 C   0  0  0  0  0  0  0  0  0  0  0  0
  -24.4670  -13.1550   20.6510 C   0  0  0  0  0  0  0  0  0  0  0  0
  -24.8780  -11.7900   20.5640 C   0  0  0  0  0  0  0  0  0  0  0  0
  -26.5200  -12.9860   19.8840 N   0  0  0  0  0  0  0  0  0  0  0  0
  -26.1370  -11.7130   20.1550 N   0  0  0  0  0  0  0  0  0  0  0  0
  -24.1260  -10.5490   20.7890 C   0  0  0  0  0  0  0  0  0  0  0  0
  -24.5420   -9.6000   21.7490 C   0  0  0  0  0  3  0  0  0  0  0  0
  -23.7930   -8.4220   21.9600 C   0  0  0  0  0  3  0  0  0  0  0  0
  -22.6160   -8.1860   21.2120 C   0  0  0  0  0  0  0  0  0  0  0  0
  -22.2200   -9.1230   20.2420 C   0  0  0  0  0  3  0  0  0  0  0  0
  -22.9690  -10.2930   20.0280 C   0  0  0  0  0  3  0  0  0  0  0  0
  -21.8400   -7.0580   21.3310 O   0  0  0  0  0  0  0  0  0  0  0  0
  -21.7080   -6.3980   22.5270 C   0  0  0  0  0  0  0  0  0  0  0  0
  -21.2210   -7.0420   23.6840 C   0  0  0  0  0  3  0  0  0  0  0  0
  -21.0360   -6.3090   24.8730 C   0  0  0  0  0  3  0  0  0  0  0  0
  -21.3300   -4.9320   24.9050 C   0  0  0  0  0  0  0  0  0  0  0  0
  -21.8110   -4.2880   23.7510 C   0  0  0  0  0  3  0  0  0  0  0  0
  -21.9970   -5.0190   22.5650 C   0  0  0  0  0  0  0  0  0  0  0  0
  -22.4410   -4.3890   21.4510 F   0  0  0  0  0  0  0  0  0  0  0  0
  -21.1450   -4.2260   26.0440 F   0  0  0  0  0  0  0  0  0  0  0  0
  -23.1120  -13.6740   21.0380 C   0  0  0  0  0  0  0  0  0  0  0  0
  -22.4320  -12.9890   21.9510 N   0  0  0  0  0  0  0  0  0  0  0  0
  -22.6680  -14.7190   20.5650 O   0  0  0  0  0  0  0  0  0  0  0  0
  -22.8050  -12.1420   22.3540 H   0  0  0  0  0  0  0  0  0  0  0  0
  -21.5240  -13.3160   22.2500 H   0  0  0  0  0  0  0  0  0  0  0  0
  -25.7270  -15.2660   20.0420 N   0  0  0  0  0  0  0  0  0  0  0  0
  -24.9910  -15.9420   20.2190 H   0  0  0  0  0  0  0  0  0  0  0  0
  -26.5560  -15.6820   19.6400 H   0  0  0  0  0  0  0  0  0  0  0  0
  -28.3270  -25.3570   20.5170 C   0  0  0  0  0  2  0  0  0  0  0  0
  -28.5000  -26.7210   20.0710 O   0  0  0  0  0  0  0  0  0  0  0  0
  -24.6580  -31.8430   23.2180 C   0  0  0  0  0  0  0  0  0  0  0  0
  -27.3430  -27.4740   20.0640 C   0  0  0  0  0  0  0  0  0  0  0  0
  -23.4620  -30.4470   21.5650 C   0  0  0  0  0  3  0  0  0  0  0  0
  -24.9300  -28.9550   20.1060 C   0  0  0  0  0  0  0  0  0  0  0  0
  -25.9830  -30.8440   21.3570 C   0  0  0  0  0  2  0  0  0  0  0  0
  -26.0850  -29.4830   20.6970 C   0  0  0  0  0  0  0  0  0  0  0  0
  -27.2970  -28.7520   20.6710 C   0  0  0  0  0  3  0  0  0  0  0  0
  -26.1760  -26.9760   19.4440 C   0  0  0  0  0  3  0  0  0  0  0  0
  -24.9710  -27.7010   19.4740 C   0  0  0  0  0  3  0  0  0  0  0  0
  -23.6730  -29.7920   20.1740 C   0  0  0  0  0  2  0  0  0  0  0  0
  -24.7200  -31.0590   22.1060 N   0  0  0  0  0  0  0  0  0  0  0  0
  -23.5760  -32.0940   23.7670 O   0  0  0  0  0  0  0  0  0  0  0  0
  -22.8320  -29.4030   22.5140 C   0  0  0  0  0  0  0  0  0  0  0  0
  -21.5100  -29.2050   22.3950 N   0  0  0  0  0  0  0  0  0  0  0  0
  -23.5300  -28.7730   23.3150 O   0  0  0  0  0  0  0  0  0  0  0  0
  -21.0070  -29.7670   21.7230 H   0  0  0  0  0  0  0  0  0  0  0  0
  -18.1560  -27.9540   22.8970 C   0  0  0  0  0  0  0  0  0  0  0  0
  -20.7110  -28.2440   23.1580 C   0  0  0  0  0  3  0  0  0  0  0  0
  -20.8310  -26.8230   22.5620 C   0  0  0  0  0  2  0  0  0  0  0  0
  -19.7270  -26.4980   21.5500 C   0  0  0  0  0  2  0  0  0  0  0  0
  -18.3480  -26.6150   22.2040 C   0  0  0  0  0  2  0  0  0  0  0  0
  -19.2670  -28.7260   23.3300 C   0  0  0  0  0  0  0  0  0  0  0  0
  -19.0330  -29.9790   23.9370 C   0  0  0  0  0  3  0  0  0  0  0  0
  -17.7220  -30.4590   24.1180 C   0  0  0  0  0  3  0  0  0  0  0  0
  -16.6270  -29.6840   23.7000 C   0  0  0  0  0  3  0  0  0  0  0  0
  -16.8450  -28.4340   23.0940 C   0  0  0  0  0  3  0  0  0  0  0  0
  -25.9380  -32.4850   23.8380 C   0  0  0  0  0  3  0  0  0  0  0  0
  -26.4650  -31.7170   25.1120 C   0  0  1  0  0  0  0  0  0  0  0  0
  -25.3750  -31.4600   26.1790 C   0  0  0  0  0  1  0  0  0  0  0  0
  -27.0650  -30.3480   24.7140 C   0  0  0  0  0  1  0  0  0  0  0  0
  -27.6080  -32.5220   25.7740 C   0  0  0  0  0  1  0  0  0  0  0  0
  -25.6190  -33.8800   24.1680 N   0  0  0  0  0  0  0  0  0  0  0  0
  -25.9490  -34.9350   23.4090 C   0  0  0  0  0  0  0  0  0  0  0  0
  -26.6260  -34.8360   22.3820 O   0  0  0  0  0  0  0  0  0  0  0  0
  -25.0200  -34.0310   24.9650 H   0  0  0  0  0  0  0  0  0  0  0  0
  -24.2180  -36.7200   23.0340 C   0  0  0  0  0  1  0  0  0  0  0  0
  -25.4480  -36.3200   23.8630 C   0  0  0  0  0  3  0  0  0  0  0  0
  -27.5660  -37.2110   24.7300 C   0  0  0  0  0  1  0  0  0  0  0  0
  -26.4770  -37.3780   23.7700 N   0  0  0  0  0  0  0  0  0  0  0  0
  -26.0650  -38.2950   23.9180 H   0  0  0  0  0  0  0  0  0  0  0  0
  1  2  1  0
  3  5  1  0
  4  3  1  0
  4  1  1  0
  4 52  1  0
  5 11  1  0
  5  2  1  0
  6  9  1  0
  7  6  2  0
  7 11  1  0
  9 13  1  0
  9  8  2  0
 10  8  1  0
 10 12  1  0
 11 10  2  0
 13 23  1  0
 14 23  1  0
 15 20  1  0
 16 17  1  0
 16 15  1  0
 18 17  1  0
 18 27  1  0
 18 19  1  0
 20 14  1  0
 20 19  1  0
 21 14  2  0
 23 22  1  0
 24 25  2  0
 25 44  1  0
 26 25  1  0
 26 29  1  0
 27 28  1  0
 27 24  1  0
 28 26  2  0
 29 30  1  0
 30 31  2  0
 32 35  1  0
 32 31  1  0
 33 32  2  0
 34 33  1  0
 34 29  2  0
 35 36  1  0
 36 41  2  0
 36 37  1  0
 37 38  2  0
 38 39  1  0
 39 43  1  0
 40 39  2  0
 41 40  1  0
 42 41  1  0
 44 45  1  0
 45 48  1  0
 45 47  1  0
 46 44  2  0
 49 24  1  0
 49 50  1  0
 51 49  1  0
 53 52  1  0
 54 65  2  0
 55 53  1  0
 55 60  1  0
 56 64  1  0
 56 66  1  0
 57 63  1  0
 57 59  1  0
 58 64  1  0
 59 58  1  0
 60 59  2  0
 61 62  1  0
 61 55  2  0
 62 57  2  0
 63 56  1  0
 64 54  1  0
 66 68  2  0
 67 66  1  0
 69 67  1  0
 70 79  2  0
 70 75  1  0
 71 67  1  0
 71 75  1  0
 72 71  1  0
 73 74  1  0
 73 72  1  0
 74 70  1  0
 75 76  2  0
 76 77  1  0
 78 77  2  0
 79 78  1  0
 80 54  1  0
 80 85  1  0
 80 81  1  0
 81 84  1  1
 81 82  1  0
 83 81  1  0
 85 88  1  0
 86 90  1  0
 86 85  1  0
 87 86  2  0
 90 89  1  0
 92 90  1  0
 92 93  1  0
 92 91  1  0
M  ISO  4  14 100  23 100  52 101  53 101
M  END
>  <TORSDO>  (57) 
F 19

>  <SCORE>  (57) 
-12.794

>  <name>  (57) 
57

>  <ligand_id>  (57) 
57

>  <original_smiles>  (57) 
[H]c1c([H])c([H])c2c(c1[H])C([H])([H])C([H])([H])C([H])([H])C2([H])N([H])C(=O)C1([H])N(C(=O)C([H])(N([H])C(=O)C([H])(N([H])C([H])([H])[H])C([H])([H])[H])C(C([H])([H])[H])(C([H])([H])[H])C([H])([H])[H])C([H])([H])c2c([H])c(OC([H])([H])C3([H])C([H])([H])N(c4c([H])c([H])c(C([H])([H])N(C(=O)N5C([H])([H])C([H])([H])C([H])([H])C([H])(n6nc(-c7c([H])c([H])c(Oc8c([H])c([H])c(F)c([H])c8F)c([H])c7[H])c(C(=O)N([H])[H])c6N([H])[H])C5([H])[H])C([H])([H])[H])c([H])c4C([H])([H])[H])C([H])([H])C3([H])[H])c([H])c([H])c2C1([H])[H]

>  <smiles>  (57) 
[H]c1c([H])c([H])c2c(c1[H])C([H])([H])C([H])([H])C([H])([H])C2([H])N([H])C(=O)C1([H])N(C(=O)C([H])(N([H])C(=O)C([H])(N([H])C([H])([H])[H])C([H])([H])[H])C(C([H])([H])[H])(C([H])([H])[H])C([H])([H])[H])C([H])([H])c2c([H])c(OC([H])([H])C3([H])C([H])([H])N(c4c([H])c([H])c(C([H])([H])N(C(=O)N5C([H])([H])C([H])([H])C([H])([H])C([H])(n6nc(-c7c([H])c([H])c(Oc8c([H])c([H])c(F)c([H])c8F)c([H])c7[H])c(C(=O)N([H])[H])c6N([H])[H])C5([H])[H])C([H])([H])[H])c([H])c4C([H])([H])[H])C([H])([H])C3([H])[H])c([H])c([H])c2C1([H])[H]

$$$$
58:0:0
     RDKit          3D

 93102  0  0  1  0  0  0  0  0999 V2000
  -27.6310  -23.5830   21.2460 C   0  0  0  0  0  2  0  0  0  0  0  0
  -28.0300  -22.1660   21.7290 C   0  0  0  0  0  2  0  0  0  0  0  0
  -29.4860  -22.8300   19.9600 C   0  0  0  0  0  2  0  0  0  0  0  0
  -28.8750  -24.1610   20.5590 C   0  0  0  0  0  3  0  0  0  0  0  0
  -29.1000  -21.7010   20.8460 N   0  0  0  0  0  0  0  0  0  0  0  0
  -28.7330  -19.2510   21.3010 C   0  0  0  0  0  3  0  0  0  0  0  0
  -29.0680  -17.8770   21.1160 C   0  0  0  0  0  3  0  0  0  0  0  0
  -30.7010  -19.9070   20.1050 C   0  0  0  0  0  3  0  0  0  0  0  0
  -31.0680  -18.5330   19.9390 C   0  0  0  0  0  0  0  0  0  0  0  0
  -29.5030  -20.3160   20.7500 C   0  0  0  0  0  0  0  0  0  0  0  0
  -30.2160  -17.4700   20.3880 C   0  0  0  0  0  0  0  0  0  0  0  0
  -32.3560  -18.2390   19.1860 C   0  0  0  0  0  1  0  0  0  0  0  0
  -31.0020  -15.0140   20.3380 C   0  0  0  0  0  0  0  0  0  0  0  0
  -30.8460  -12.6730   19.5060 C   0  0  0  0  0  2  0  0  0  0  0  0
  -29.9450  -12.5860   18.2540 C   0  0  0  0  0  2  0  0  0  0  0  0
  -28.4410  -12.5540   18.6230 C   0  0  0  0  0  2  0  0  0  0  0  0
  -28.0260  -13.4750   19.8100 C   0  0  0  0  0  3  0  0  0  0  0  0
  -29.0710  -13.4680   20.9440 C   0  0  0  0  0  2  0  0  0  0  0  0
  -30.3670  -13.7930   20.3370 N   0  0  0  0  0  0  0  0  0  0  0  0
  -32.2320  -15.0590   20.2670 O   0  0  0  0  0  0  0  0  0  0  0  0
  -30.2740  -16.0990   19.8510 N   0  0  0  0  0  0  0  0  0  0  0  0
  -25.6260  -14.0570   20.5030 C   0  0  0  0  0  0  0  0  0  0  0  0
  -24.5560  -13.2790   20.8490 C   0  0  0  0  0  0  0  0  0  0  0  0
  -25.0260  -11.9300   20.8220 C   0  0  0  0  0  0  0  0  0  0  0  0
  -26.6790  -13.1810   20.2860 N   0  0  0  0  0  0  0  0  0  0  0  0
  -26.3230  -11.8970   20.5450 N   0  0  0  0  0  0  0  0  0  0  0  0
  -24.3050  -10.6640   20.9910 C   0  0  0  0  0  0  0  0  0  0  0  0
  -24.6880   -9.7200   21.9680 C   0  0  0  0  0  3  0  0  0  0  0  0
  -23.9660   -8.5170   22.1240 C   0  0  0  0  0  3  0  0  0  0  0  0
  -22.8460   -8.2500   21.2990 C   0  0  0  0  0  0  0  0  0  0  0  0
  -22.4850   -9.1830   20.3120 C   0  0  0  0  0  3  0  0  0  0  0  0
  -23.2070  -10.3770   20.1550 C   0  0  0  0  0  3  0  0  0  0  0  0
  -22.0990   -7.0980   21.3630 O   0  0  0  0  0  0  0  0  0  0  0  0
  -21.9090   -6.4290   22.5450 C   0  0  0  0  0  0  0  0  0  0  0  0
  -21.2950   -7.0410   23.6590 C   0  0  0  0  0  3  0  0  0  0  0  0
  -21.0560   -6.2950   24.8300 C   0  0  0  0  0  3  0  0  0  0  0  0
  -21.4200   -4.9360   24.8870 C   0  0  0  0  0  0  0  0  0  0  0  0
  -22.0270   -4.3230   23.7760 C   0  0  0  0  0  3  0  0  0  0  0  0
  -22.2680   -5.0670   22.6090 C   0  0  0  0  0  0  0  0  0  0  0  0
  -22.8330   -4.4660   21.5340 F   0  0  0  0  0  0  0  0  0  0  0  0
  -21.1850   -4.2170   26.0080 F   0  0  0  0  0  0  0  0  0  0  0  0
  -23.1510  -13.7490   21.0890 C   0  0  0  0  0  0  0  0  0  0  0  0
  -22.4130  -13.0570   21.9490 N   0  0  0  0  0  0  0  0  0  0  0  0
  -22.7160  -14.7660   20.5500 O   0  0  0  0  0  0  0  0  0  0  0  0
  -22.7780  -12.2340   22.4070 H   0  0  0  0  0  0  0  0  0  0  0  0
  -21.4690  -13.3500   22.1520 H   0  0  0  0  0  0  0  0  0  0  0  0
  -25.7860  -15.4290   20.3310 N   0  0  0  0  0  0  0  0  0  0  0  0
  -25.0100  -16.0760   20.4130 H   0  0  0  0  0  0  0  0  0  0  0  0
  -26.6350  -15.8670   19.9970 H   0  0  0  0  0  0  0  0  0  0  0  0
  -29.2810  -17.2120   17.7280 C   0  0  0  0  0  1  0  0  0  0  0  0
  -30.0580  -16.0460   18.3800 C   0  0  0  0  0  2  0  0  0  0  0  0
  -28.6320  -25.4040   19.5790 C   0  0  0  0  0  2  0  0  0  0  0  0
  -28.4870  -26.7760   20.1170 O   0  0  0  0  0  0  0  0  0  0  0  0
  -24.6170  -31.9680   23.2150 C   0  0  0  0  0  0  0  0  0  0  0  0
  -27.3070  -27.5320   20.0620 C   0  0  0  0  0  0  0  0  0  0  0  0
  -23.4210  -30.5700   21.5650 C   0  0  0  0  0  3  0  0  0  0  0  0
  -24.8910  -29.0700   20.0980 C   0  0  0  0  0  0  0  0  0  0  0  0
  -25.9460  -30.9600   21.3450 C   0  0  0  0  0  2  0  0  0  0  0  0
  -26.0510  -29.5910   20.6830 C   0  0  0  0  0  0  0  0  0  0  0  0
  -27.2570  -28.8340   20.6550 C   0  0  0  0  0  3  0  0  0  0  0  0
  -26.1150  -27.0530   19.4680 C   0  0  0  0  0  3  0  0  0  0  0  0
  -24.9240  -27.8070   19.4840 C   0  0  0  0  0  3  0  0  0  0  0  0
  -23.6290  -29.9110   20.1740 C   0  0  0  0  0  2  0  0  0  0  0  0
  -24.6800  -31.1840   22.0990 N   0  0  0  0  0  0  0  0  0  0  0  0
  -23.5360  -32.2080   23.7730 O   0  0  0  0  0  0  0  0  0  0  0  0
  -22.7920  -29.5270   22.5180 C   0  0  0  0  0  0  0  0  0  0  0  0
  -21.4700  -29.3190   22.3990 N   0  0  0  0  0  0  0  0  0  0  0  0
  -23.4940  -28.9030   23.3200 O   0  0  0  0  0  0  0  0  0  0  0  0
  -20.9600  -29.8740   21.7240 H   0  0  0  0  0  0  0  0  0  0  0  0
  -18.1270  -28.0420   22.9130 C   0  0  0  0  0  0  0  0  0  0  0  0
  -20.6820  -28.3510   23.1630 C   0  0  0  0  0  3  0  0  0  0  0  0
  -20.8090  -26.9300   22.5610 C   0  0  0  0  0  2  0  0  0  0  0  0
  -19.7030  -26.6020   21.5530 C   0  0  0  0  0  2  0  0  0  0  0  0
  -18.3250  -26.7080   22.2120 C   0  0  0  0  0  2  0  0  0  0  0  0
  -19.2340  -28.8190   23.3460 C   0  0  0  0  0  0  0  0  0  0  0  0
  -18.9950  -30.0680   23.9590 C   0  0  0  0  0  3  0  0  0  0  0  0
  -17.6810  -30.5400   24.1440 C   0  0  0  0  0  3  0  0  0  0  0  0
  -16.5890  -29.7590   23.7280 C   0  0  0  0  0  3  0  0  0  0  0  0
  -16.8130  -28.5110   23.1180 C   0  0  0  0  0  3  0  0  0  0  0  0
  -25.8930  -32.6160   23.8350 C   0  0  0  0  0  3  0  0  0  0  0  0
  -26.4180  -31.8550   25.1130 C   0  0  1  0  0  0  0  0  0  0  0  0
  -25.3260  -31.6100   26.1800 C   0  0  0  0  0  1  0  0  0  0  0  0
  -27.0160  -30.4830   24.7210 C   0  0  0  0  0  1  0  0  0  0  0  0
  -27.5580  -32.6650   25.7750 C   0  0  0  0  0  1  0  0  0  0  0  0
  -25.5680  -34.0120   24.1630 N   0  0  0  0  0  0  0  0  0  0  0  0
  -25.9000  -35.0680   23.4090 C   0  0  0  0  0  0  0  0  0  0  0  0
  -26.5810  -34.9710   22.3840 O   0  0  0  0  0  0  0  0  0  0  0  0
  -24.9610  -34.1620   24.9560 H   0  0  0  0  0  0  0  0  0  0  0  0
  -24.1730  -36.8570   23.0290 C   0  0  0  0  0  1  0  0  0  0  0  0
  -25.3980  -36.4520   23.8640 C   0  0  0  0  0  3  0  0  0  0  0  0
  -27.5080  -37.3430   24.7490 C   0  0  0  0  0  1  0  0  0  0  0  0
  -26.4300  -37.5090   23.7790 N   0  0  0  0  0  0  0  0  0  0  0  0
  -26.0150  -38.4270   23.9190 H   0  0  0  0  0  0  0  0  0  0  0  0
  1  2  1  0
  3  4  1  0
  3  5  1  0
  4 52  1  0
  4  1  1  0
  5  2  1  0
  7  6  1  0
  8 10  1  0
  9  8  2  0
  9 11  1  0
 10  5  1  0
 10  6  2  0
 11  7  2  0
 12  9  1  0
 14 19  1  0
 15 16  1  0
 15 14  1  0
 17 16  1  0
 17 25  1  0
 17 18  1  0
 19 13  1  0
 19 18  1  0
 20 13  2  0
 21 13  1  0
 21 11  1  0
 22 23  2  0
 23 42  1  0
 24 23  1  0
 24 27  1  0
 25 22  1  0
 25 26  1  0
 26 24  2  0
 27 28  1  0
 28 29  2  0
 30 33  1  0
 30 29  1  0
 31 30  2  0
 32 31  1  0
 32 27  2  0
 33 34  1  0
 34 39  2  0
 34 35  1  0
 35 36  2  0
 36 37  1  0
 37 41  1  0
 38 37  2  0
 39 38  1  0
 40 39  1  0
 42 43  1  0
 43 46  1  0
 43 45  1  0
 44 42  2  0
 47 48  1  0
 47 22  1  0
 49 47  1  0
 50 51  1  0
 51 21  1  0
 52 53  1  0
 54 65  2  0
 55 53  1  0
 55 60  1  0
 56 64  1  0
 56 66  1  0
 57 63  1  0
 57 59  1  0
 58 64  1  0
 59 58  1  0
 60 59  2  0
 61 62  1  0
 61 55  2  0
 62 57  2  0
 63 56  1  0
 64 54  1  0
 66 68  2  0
 67 66  1  0
 69 67  1  0
 70 79  2  0
 70 75  1  0
 71 67  1  0
 71 75  1  0
 72 71  1  0
 73 74  1  0
 73 72  1  0
 74 70  1  0
 75 76  2  0
 76 77  1  0
 78 77  2  0
 79 78  1  0
 80 54  1  0
 80 85  1  0
 80 81  1  0
 81 84  1  1
 81 82  1  0
 83 81  1  0
 85 88  1  0
 86 90  1  0
 86 85  1  0
 87 86  2  0
 90 89  1  0
 92 90  1  0
 92 93  1  0
 92 91  1  0
M  ISO  4  13 100  21 100  52 101  53 101
M  END
>  <TORSDO>  (58) 
F 19

>  <SCORE>  (58) 
-12.244

>  <name>  (58) 
58

>  <ligand_id>  (58) 
58

>  <original_smiles>  (58) 
[H]c1c([H])c([H])c2c(c1[H])C([H])([H])C([H])([H])C([H])([H])C2([H])N([H])C(=O)C1([H])N(C(=O)C([H])(N([H])C(=O)C([H])(N([H])C([H])([H])[H])C([H])([H])[H])C(C([H])([H])[H])(C([H])([H])[H])C([H])([H])[H])C([H])([H])c2c([H])c(OC([H])([H])C3([H])C([H])([H])N(c4c([H])c([H])c(N(C(=O)N5C([H])([H])C([H])([H])C([H])([H])C([H])(n6nc(-c7c([H])c([H])c(Oc8c([H])c([H])c(F)c([H])c8F)c([H])c7[H])c(C(=O)N([H])[H])c6N([H])[H])C5([H])[H])C([H])([H])C([H])([H])[H])c(C([H])([H])[H])c4[H])C([H])([H])C3([H])[H])c([H])c([H])c2C1([H])[H]

>  <smiles>  (58) 
[H]c1c([H])c([H])c2c(c1[H])C([H])([H])C([H])([H])C([H])([H])C2([H])N([H])C(=O)C1([H])N(C(=O)C([H])(N([H])C(=O)C([H])(N([H])C([H])([H])[H])C([H])([H])[H])C(C([H])([H])[H])(C([H])([H])[H])C([H])([H])[H])C([H])([H])c2c([H])c(OC([H])([H])C3([H])C([H])([H])N(c4c([H])c([H])c(N(C(=O)N5C([H])([H])C([H])([H])C([H])([H])C([H])(n6nc(-c7c([H])c([H])c(Oc8c([H])c([H])c(F)c([H])c8F)c([H])c7[H])c(C(=O)N([H])[H])c6N([H])[H])C5([H])[H])C([H])([H])C([H])([H])[H])c(C([H])([H])[H])c4[H])C([H])([H])C3([H])[H])c([H])c([H])c2C1([H])[H]

$$$$
59:0:0
     RDKit          3D

 93101  0  0  1  0  0  0  0  0999 V2000
  -30.8640  -18.5110   20.1060 C   0  0  0  0  0  3  0  0  0  0  0  0
  -30.5890  -19.9460   20.0220 C   0  0  0  0  0  3  0  0  0  0  0  0
  -28.6430  -18.0820   19.4600 C   0  0  0  0  0  3  0  0  0  0  0  0
  -28.3560  -19.5010   19.3540 C   0  0  0  0  0  0  0  0  0  0  0  0
  -29.8850  -17.4890   19.8510 C   0  0  0  0  0  0  0  0  0  0  0  0
  -29.3200  -20.5340   19.6640 C   0  0  0  0  0  0  0  0  0  0  0  0
  -30.8100  -14.8720   19.6790 C   0  0  0  0  0  0  0  0  0  0  0  0
  -30.6310  -12.5110   18.7800 C   0  0  0  0  0  2  0  0  0  0  0  0
  -29.5940  -12.4810   17.6320 C   0  0  0  0  0  2  0  0  0  0  0  0
  -28.1630  -12.3070   18.1790 C   0  0  0  0  0  2  0  0  0  0  0  0
  -27.8710  -13.2450   19.3790 C   0  0  0  0  0  3  0  0  0  0  0  0
  -29.0130  -13.2160   20.4170 C   0  0  0  0  0  2  0  0  0  0  0  0
  -30.2470  -13.6010   19.7160 N   0  0  0  0  0  0  0  0  0  0  0  0
  -31.9670  -14.9910   19.2590 O   0  0  0  0  0  0  0  0  0  0  0  0
  -29.9570  -15.9640   19.9570 N   0  0  0  0  0  0  0  0  0  0  0  0
  -29.0820  -15.5810   20.2780 H   0  0  0  0  0  0  0  0  0  0  0  0
  -25.5920  -13.8880   20.3560 C   0  0  0  0  0  0  0  0  0  0  0  0
  -24.5330  -13.1410   20.7940 C   0  0  0  0  0  0  0  0  0  0  0  0
  -24.9340  -11.7750   20.6630 C   0  0  0  0  0  0  0  0  0  0  0  0
  -26.5690  -12.9810   19.9820 N   0  0  0  0  0  0  0  0  0  0  0  0
  -26.1870  -11.7020   20.2300 N   0  0  0  0  0  0  0  0  0  0  0  0
  -24.1750  -10.5350   20.8680 C   0  0  0  0  0  0  0  0  0  0  0  0
  -24.6300   -9.5270   21.7450 C   0  0  0  0  0  3  0  0  0  0  0  0
  -23.8720   -8.3510   21.9400 C   0  0  0  0  0  3  0  0  0  0  0  0
  -22.6440   -8.1770   21.2580 C   0  0  0  0  0  0  0  0  0  0  0  0
  -22.2070   -9.1740   20.3680 C   0  0  0  0  0  3  0  0  0  0  0  0
  -22.9650  -10.3400   20.1710 C   0  0  0  0  0  3  0  0  0  0  0  0
  -21.8550   -7.0580   21.3640 O   0  0  0  0  0  0  0  0  0  0  0  0
  -21.8120   -6.3140   22.5170 C   0  0  0  0  0  0  0  0  0  0  0  0
  -21.4420   -6.8810   23.7560 C   0  0  0  0  0  3  0  0  0  0  0  0
  -21.3450   -6.0660   24.9010 C   0  0  0  0  0  3  0  0  0  0  0  0
  -21.6070   -4.6860   24.8090 C   0  0  0  0  0  0  0  0  0  0  0  0
  -21.9700   -4.1200   23.5740 C   0  0  0  0  0  3  0  0  0  0  0  0
  -22.0700   -4.9310   22.4310 C   0  0  0  0  0  0  0  0  0  0  0  0
  -22.3990   -4.3770   21.2400 F   0  0  0  0  0  0  0  0  0  0  0  0
  -21.5060   -3.9020   25.9080 F   0  0  0  0  0  0  0  0  0  0  0  0
  -23.1880  -13.6600   21.2110 C   0  0  0  0  0  0  0  0  0  0  0  0
  -22.5200  -12.9660   22.1270 N   0  0  0  0  0  0  0  0  0  0  0  0
  -22.7410  -14.7140   20.7610 O   0  0  0  0  0  0  0  0  0  0  0  0
  -22.8960  -12.1130   22.5140 H   0  0  0  0  0  0  0  0  0  0  0  0
  -21.6210  -13.2950   22.4490 H   0  0  0  0  0  0  0  0  0  0  0  0
  -25.7950  -15.2580   20.2170 N   0  0  0  0  0  0  0  0  0  0  0  0
  -25.0550  -15.9240   20.4100 H   0  0  0  0  0  0  0  0  0  0  0  0
  -26.5700  -15.6660   19.7130 H   0  0  0  0  0  0  0  0  0  0  0  0
  -26.9260  -19.8700   18.9360 C   0  0  1  0  0  0  0  0  0  0  0  0
  -26.3170  -18.8430   18.3370 F   0  0  0  0  0  0  0  0  0  0  0  0
  -26.2090  -20.1900   20.0140 F   0  0  0  0  0  0  0  0  0  0  0  0
  -26.8890  -20.8860   18.0730 F   0  0  0  0  0  0  0  0  0  0  0  0
  -28.7310  -22.2380   21.2540 C   0  0  0  0  0  1  0  0  0  0  0  0
  -28.9360  -21.9680   19.8320 N   0  0  0  0  0  0  0  0  0  0  0  0
  -29.0900  -23.2710   18.9940 C   0  0  0  0  0  3  0  0  0  0  0  0
  -28.0890  -24.5980   19.2630 C   0  0  0  0  0  3  0  0  0  0  0  0
  -28.2990  -26.0820   18.8610 O   0  0  0  0  0  0  0  0  0  0  0  0
  -25.0260  -31.3030   22.9030 C   0  0  0  0  0  0  0  0  0  0  0  0
  -27.2630  -27.0610   19.0480 C   0  0  0  0  0  0  0  0  0  0  0  0
  -23.6830  -30.2020   21.1520 C   0  0  0  0  0  3  0  0  0  0  0  0
  -24.9910  -28.8280   19.4220 C   0  0  0  0  0  0  0  0  0  0  0  0
  -26.2300  -30.4330   20.8680 C   0  0  0  0  0  2  0  0  0  0  0  0
  -26.2170  -29.1550   20.0140 C   0  0  0  0  0  0  0  0  0  0  0  0
  -27.3560  -28.2900   19.8110 C   0  0  0  0  0  3  0  0  0  0  0  0
  -26.0140  -26.8390   18.4290 C   0  0  0  0  0  3  0  0  0  0  0  0
  -24.9000  -27.6830   18.6160 C   0  0  0  0  0  3  0  0  0  0  0  0
  -23.7990  -29.7360   19.6770 C   0  0  0  0  0  2  0  0  0  0  0  0
  -25.0030  -30.6580   21.6970 N   0  0  0  0  0  0  0  0  0  0  0  0
  -23.9830  -31.5310   23.5350 O   0  0  0  0  0  0  0  0  0  0  0  0
  -23.0300  -29.0770   21.9930 C   0  0  0  0  0  0  0  0  0  0  0  0
  -21.6900  -28.9670   21.9340 N   0  0  0  0  0  0  0  0  0  0  0  0
  -23.7280  -28.3100   22.6620 O   0  0  0  0  0  0  0  0  0  0  0  0
  -21.1850  -29.6380   21.3720 H   0  0  0  0  0  0  0  0  0  0  0  0
  -18.2990  -27.8340   22.5120 C   0  0  0  0  0  0  0  0  0  0  0  0
  -20.8810  -27.9490   22.6070 C   0  0  0  0  0  3  0  0  0  0  0  0
  -20.8660  -26.6280   21.8010 C   0  0  0  0  0  2  0  0  0  0  0  0
  -19.6760  -26.5200   20.8430 C   0  0  0  0  0  2  0  0  0  0  0  0
  -18.3550  -26.6100   21.6120 C   0  0  0  0  0  2  0  0  0  0  0  0
  -19.4850  -28.4710   22.9660 C   0  0  0  0  0  0  0  0  0  0  0  0
  -19.3740  -29.6240   23.7730 C   0  0  0  0  0  3  0  0  0  0  0  0
  -18.1130  -30.1380   24.1270 C   0  0  0  0  0  3  0  0  0  0  0  0
  -16.9430  -29.4950   23.6860 C   0  0  0  0  0  3  0  0  0  0  0  0
  -17.0380  -28.3440   22.8840 C   0  0  0  0  0  3  0  0  0  0  0  0
  -26.3590  -31.8020   23.5350 C   0  0  0  0  0  3  0  0  0  0  0  0
  -26.9610  -30.7940   24.5910 C   0  0  1  0  0  0  0  0  0  0  0  0
  -25.9530  -30.3570   25.6790 C   0  0  0  0  0  1  0  0  0  0  0  0
  -27.4820  -29.5160   23.8950 C   0  0  0  0  0  1  0  0  0  0  0  0
  -28.1770  -31.4390   25.2970 C   0  0  0  0  0  1  0  0  0  0  0  0
  -26.0960  -33.1060   24.1650 N   0  0  0  0  0  0  0  0  0  0  0  0
  -26.3960  -34.2920   23.6190 C   0  0  0  0  0  0  0  0  0  0  0  0
  -26.9920  -34.4010   22.5440 O   0  0  0  0  0  0  0  0  0  0  0  0
  -25.5600  -33.0940   25.0200 H   0  0  0  0  0  0  0  0  0  0  0  0
  -24.6890  -36.1360   23.7620 C   0  0  0  0  0  1  0  0  0  0  0  0
  -25.9700  -35.5600   24.3880 C   0  0  0  0  0  3  0  0  0  0  0  0
  -28.1710  -36.2370   25.2420 C   0  0  0  0  0  1  0  0  0  0  0  0
  -27.0160  -36.6050   24.4260 N   0  0  0  0  0  0  0  0  0  0  0  0
  -26.6400  -37.4780   24.7860 H   0  0  0  0  0  0  0  0  0  0  0  0
  2  1  1  0
  3  5  1  0
  4  3  2  0
  4  6  1  0
  5 15  1  0
  5  1  2  0
  6 50  1  0
  6  2  2  0
  7 13  1  0
  7 15  1  0
  8 13  1  0
  9 10  1  0
  9  8  1  0
 11 10  1  0
 11 20  1  0
 11 12  1  0
 13 12  1  0
 14  7  2  0
 15 16  1  0
 17 18  2  0
 18 37  1  0
 19 18  1  0
 19 22  1  0
 20 21  1  0
 20 17  1  0
 21 19  2  0
 22 23  1  0
 23 24  2  0
 25 28  1  0
 25 24  1  0
 26 25  2  0
 27 26  1  0
 27 22  2  0
 28 29  1  0
 29 30  1  0
 30 31  2  0
 32 31  1  0
 32 36  1  0
 33 32  2  0
 34 29  2  0
 34 33  1  0
 35 34  1  0
 37 38  1  0
 38 41  1  0
 38 40  1  0
 39 37  2  0
 42 17  1  0
 42 43  1  0
 44 42  1  0
 45  4  1  0
 45 47  1  1
 46 45  1  0
 48 45  1  0
 50 49  1  0
 51 52  2  0
 51 50  1  0
 53 55  1  0
 53 52  1  0
 54 65  2  0
 55 60  1  0
 56 64  1  0
 56 66  1  0
 57 63  1  0
 57 59  1  0
 58 64  1  0
 59 58  1  0
 60 59  2  0
 61 62  1  0
 61 55  2  0
 62 57  2  0
 63 56  1  0
 64 54  1  0
 66 68  2  0
 67 66  1  0
 69 67  1  0
 70 79  2  0
 70 75  1  0
 71 67  1  0
 71 75  1  0
 72 71  1  0
 73 74  1  0
 73 72  1  0
 74 70  1  0
 75 76  2  0
 76 77  1  0
 78 77  2  0
 79 78  1  0
 80 54  1  0
 80 85  1  0
 80 81  1  0
 81 84  1  1
 81 82  1  0
 83 81  1  0
 85 88  1  0
 86 85  1  0
 86 90  1  0
 87 86  2  0
 90 89  1  0
 90 92  1  0
 92 93  1  0
 92 91  1  0
M  ISO  4   7 100  15 100  52 101  53 101
M  END
>  <TORSDO>  (59) 
F 20

>  <SCORE>  (59) 
-10.890

>  <name>  (59) 
59

>  <ligand_id>  (59) 
59

>  <original_smiles>  (59) 
[H]c1c([H])c([H])c2c(c1[H])C([H])([H])C([H])([H])C([H])([H])C2([H])N([H])C(=O)C1([H])N(C(=O)C([H])(N([H])C(=O)C([H])(N([H])C([H])([H])[H])C([H])([H])[H])C(C([H])([H])[H])(C([H])([H])[H])C([H])([H])[H])C([H])([H])c2c([H])c(OC([H])([H])C([H])([H])N(c3c([H])c([H])c(N([H])C(=O)N4C([H])([H])C([H])([H])C([H])([H])C([H])(n5nc(-c6c([H])c([H])c(Oc7c([H])c([H])c(F)c([H])c7F)c([H])c6[H])c(C(=O)N([H])[H])c5N([H])[H])C4([H])[H])c([H])c3C(F)(F)F)C([H])([H])[H])c([H])c([H])c2C1([H])[H]

>  <smiles>  (59) 
[H]c1c([H])c([H])c2c(c1[H])C([H])([H])C([H])([H])C([H])([H])C2([H])N([H])C(=O)C1([H])N(C(=O)C([H])(N([H])C(=O)C([H])(N([H])C([H])([H])[H])C([H])([H])[H])C(C([H])([H])[H])(C([H])([H])[H])C([H])([H])[H])C([H])([H])c2c([H])c(OC([H])([H])C([H])([H])N(c3c([H])c([H])c(N([H])C(=O)N4C([H])([H])C([H])([H])C([H])([H])C([H])(n5nc(-c6c([H])c([H])c(Oc7c([H])c([H])c(F)c([H])c7F)c([H])c6[H])c(C(=O)N([H])[H])c5N([H])[H])C4([H])[H])c([H])c3C(F)(F)F)C([H])([H])[H])c([H])c([H])c2C1([H])[H]

$$$$
60:0:0
     RDKit          3D

 92101  0  0  1  0  0  0  0  0999 V2000
  -29.0530  -22.5550   20.6650 C   0  0  0  0  0  0  0  0  0  0  0  0
  -27.3110  -23.2550   19.1930 C   0  0  0  0  0  2  0  0  0  0  0  0
  -27.4900  -21.7250   19.2040 C   0  0  0  0  0  2  0  0  0  0  0  0
  -28.5220  -23.8370   19.9200 C   0  0  0  0  0  3  0  0  0  0  0  0
  -28.5320  -21.3830   20.1810 N   0  0  0  0  0  0  0  0  0  0  0  0
  -29.8720  -22.6390   21.5860 O   0  0  0  0  0  0  0  0  0  0  0  0
  -30.0900  -19.4950   21.0530 C   0  0  0  0  0  3  0  0  0  0  0  0
  -28.0530  -18.9300   19.9230 C   0  0  0  0  0  3  0  0  0  0  0  0
  -30.4560  -18.1030   21.0880 C   0  0  0  0  0  3  0  0  0  0  0  0
  -28.4090  -17.5560   19.9630 C   0  0  0  0  0  3  0  0  0  0  0  0
  -28.8940  -19.9630   20.4210 C   0  0  0  0  0  0  0  0  0  0  0  0
  -29.6380  -17.0950   20.4990 C   0  0  0  0  0  0  0  0  0  0  0  0
  -30.7370  -14.7500   20.8220 C   0  0  0  0  0  0  0  0  0  0  0  0
  -30.6250  -12.4200   19.9670 C   0  0  0  0  0  2  0  0  0  0  0  0
  -29.7820  -12.3630   18.6720 C   0  0  0  0  0  2  0  0  0  0  0  0
  -28.2740  -12.2820   18.9800 C   0  0  0  0  0  2  0  0  0  0  0  0
  -27.8050  -13.2420   20.1100 C   0  0  0  0  0  3  0  0  0  0  0  0
  -28.7730  -13.2320   21.3100 C   0  0  0  0  0  2  0  0  0  0  0  0
  -30.1110  -13.5300   20.7910 N   0  0  0  0  0  0  0  0  0  0  0  0
  -31.9690  -14.8140   20.8520 O   0  0  0  0  0  0  0  0  0  0  0  0
  -30.3270  -15.7050   18.6650 C   0  0  0  0  0  1  0  0  0  0  0  0
  -30.0710  -15.7440   20.1190 N   0  0  0  0  0  0  0  0  0  0  0  0
  -25.3650  -13.8490   20.6300 C   0  0  0  0  0  0  0  0  0  0  0  0
  -24.2730  -13.0800   20.9280 C   0  0  0  0  0  0  0  0  0  0  0  0
  -24.7410  -11.7320   20.9800 C   0  0  0  0  0  0  0  0  0  0  0  0
  -26.4280  -12.9680   20.5090 N   0  0  0  0  0  0  0  0  0  0  0  0
  -26.0540  -11.6920   20.7880 N   0  0  0  0  0  0  0  0  0  0  0  0
  -24.0080  -10.4700   21.1430 C   0  0  0  0  0  0  0  0  0  0  0  0
  -24.3830   -9.5180   22.1150 C   0  0  0  0  0  3  0  0  0  0  0  0
  -23.6490   -8.3210   22.2650 C   0  0  0  0  0  3  0  0  0  0  0  0
  -22.5260   -8.0690   21.4420 C   0  0  0  0  0  0  0  0  0  0  0  0
  -22.1720   -9.0090   20.4600 C   0  0  0  0  0  3  0  0  0  0  0  0
  -22.9070  -10.1980   20.3070 C   0  0  0  0  0  3  0  0  0  0  0  0
  -21.7700   -6.9240   21.5000 O   0  0  0  0  0  0  0  0  0  0  0  0
  -21.6660   -6.1870   22.6530 C   0  0  0  0  0  0  0  0  0  0  0  0
  -21.1780   -6.7470   23.8540 C   0  0  0  0  0  3  0  0  0  0  0  0
  -21.0230   -5.9360   24.9970 C   0  0  0  0  0  3  0  0  0  0  0  0
  -21.3440   -4.5680   24.9380 C   0  0  0  0  0  0  0  0  0  0  0  0
  -21.8250   -4.0070   23.7420 C   0  0  0  0  0  3  0  0  0  0  0  0
  -21.9830   -4.8140   22.6010 C   0  0  0  0  0  0  0  0  0  0  0  0
  -22.4260   -4.2650   21.4450 F   0  0  0  0  0  0  0  0  0  0  0  0
  -21.1880   -3.7870   26.0330 F   0  0  0  0  0  0  0  0  0  0  0  0
  -22.8550  -13.5550   21.0620 C   0  0  0  0  0  0  0  0  0  0  0  0
  -22.0580  -12.8820   21.8830 N   0  0  0  0  0  0  0  0  0  0  0  0
  -22.4600  -14.5610   20.4740 O   0  0  0  0  0  0  0  0  0  0  0  0
  -22.3890  -12.0690   22.3830 H   0  0  0  0  0  0  0  0  0  0  0  0
  -21.1030  -13.1830   22.0150 H   0  0  0  0  0  0  0  0  0  0  0  0
  -25.5410  -15.2150   20.4320 N   0  0  0  0  0  0  0  0  0  0  0  0
  -24.7730  -15.8740   20.4810 H   0  0  0  0  0  0  0  0  0  0  0  0
  -26.4310  -15.6540   20.2400 H   0  0  0  0  0  0  0  0  0  0  0  0
  -28.2220  -25.1870   20.7190 C   0  0  0  0  0  2  0  0  0  0  0  0
  -28.2900  -26.4930   20.0230 O   0  0  0  0  0  0  0  0  0  0  0  0
  -24.5930  -31.8520   23.1330 C   0  0  0  0  0  0  0  0  0  0  0  0
  -27.1620  -27.3180   20.0390 C   0  0  0  0  0  0  0  0  0  0  0  0
  -23.3640  -30.4600   21.5030 C   0  0  0  0  0  3  0  0  0  0  0  0
  -24.7940  -28.9100   20.0570 C   0  0  0  0  0  0  0  0  0  0  0  0
  -25.8970  -30.7870   21.2810 C   0  0  0  0  0  2  0  0  0  0  0  0
  -25.9690  -29.4090   20.6340 C   0  0  0  0  0  0  0  0  0  0  0  0
  -27.1590  -28.6260   20.6100 C   0  0  0  0  0  3  0  0  0  0  0  0
  -25.9680  -26.8610   19.4450 C   0  0  0  0  0  3  0  0  0  0  0  0
  -24.7950  -27.6410   19.4520 C   0  0  0  0  0  3  0  0  0  0  0  0
  -23.5570  -29.7840   20.1200 C   0  0  0  0  0  2  0  0  0  0  0  0
  -24.6370  -31.0510   22.0300 N   0  0  0  0  0  0  0  0  0  0  0  0
  -23.5180  -32.1280   23.6850 O   0  0  0  0  0  0  0  0  0  0  0  0
  -22.7150  -29.4430   22.4710 C   0  0  0  0  0  0  0  0  0  0  0  0
  -21.3850  -29.2760   22.3680 N   0  0  0  0  0  0  0  0  0  0  0  0
  -23.4050  -28.8070   23.2710 O   0  0  0  0  0  0  0  0  0  0  0  0
  -20.8870  -29.8420   21.6950 H   0  0  0  0  0  0  0  0  0  0  0  0
  -18.0080  -28.1080   22.9290 C   0  0  0  0  0  0  0  0  0  0  0  0
  -20.5740  -28.3380   23.1470 C   0  0  0  0  0  3  0  0  0  0  0  0
  -20.6490  -26.9120   22.5550 C   0  0  0  0  0  2  0  0  0  0  0  0
  -19.5220  -26.6110   21.5620 C   0  0  0  0  0  2  0  0  0  0  0  0
  -18.1560  -26.7640   22.2370 C   0  0  0  0  0  2  0  0  0  0  0  0
  -19.1430  -28.8550   23.3420 C   0  0  0  0  0  0  0  0  0  0  0  0
  -18.9510  -30.1140   23.9510 C   0  0  0  0  0  3  0  0  0  0  0  0
  -17.6550  -30.6270   24.1500 C   0  0  0  0  0  3  0  0  0  0  0  0
  -16.5340  -29.8770   23.7530 C   0  0  0  0  0  3  0  0  0  0  0  0
  -16.7120  -28.6200   23.1480 C   0  0  0  0  0  3  0  0  0  0  0  0
  -25.8870  -32.4810   23.7400 C   0  0  0  0  0  3  0  0  0  0  0  0
  -25.5780  -33.8710   24.1040 N   0  0  0  0  0  0  0  0  0  0  0  0
  -25.9090  -34.9410   23.3680 C   0  0  0  0  0  0  0  0  0  0  0  0
  -26.5760  -34.8610   22.3330 O   0  0  0  0  0  0  0  0  0  0  0  0
  -24.9870  -34.0070   24.9100 H   0  0  0  0  0  0  0  0  0  0  0  0
  -24.1930  -36.7510   23.0460 C   0  0  0  0  0  1  0  0  0  0  0  0
  -25.4230  -36.3180   23.8590 C   0  0  0  0  0  3  0  0  0  0  0  0
  -27.5530  -37.1710   24.7370 C   0  0  0  0  0  1  0  0  0  0  0  0
  -26.4620  -37.3700   23.7860 N   0  0  0  0  0  0  0  0  0  0  0  0
  -26.0590  -38.2870   23.9520 H   0  0  0  0  0  0  0  0  0  0  0  0
  -26.4330  -31.6880   24.9910 C   0  0  1  0  0  0  0  0  0  0  0  0
  -25.3650  -31.4300   26.0790 C   0  0  0  0  0  1  0  0  0  0  0  0
  -27.0100  -30.3190   24.5620 C   0  0  0  0  0  1  0  0  0  0  0  0
  -27.5960  -32.4730   25.6420 C   0  0  0  0  0  1  0  0  0  0  0  0
  1  6  2  0
  2  3  1  0
  2  4  1  0
  3  5  1  0
  4  1  1  0
  4 51  1  0
  5 11  1  0
  5  1  1  0
  7  9  1  0
  8 10  2  0
  8 11  1  0
 10 12  1  0
 11  7  2  0
 12  9  2  0
 13 20  2  0
 14 19  1  0
 15 16  1  0
 15 14  1  0
 17 16  1  0
 17 26  1  0
 17 18  1  0
 19 13  1  0
 19 18  1  0
 21 22  1  0
 22 12  1  0
 22 13  1  0
 23 24  2  0
 24 25  1  0
 24 43  1  0
 25 28  1  0
 26 23  1  0
 26 27  1  0
 27 25  2  0
 28 29  1  0
 29 30  2  0
 31 34  1  0
 31 30  1  0
 32 31  2  0
 33 32  1  0
 33 28  2  0
 34 35  1  0
 35 36  1  0
 36 37  2  0
 38 37  1  0
 38 42  1  0
 39 38  2  0
 40 35  2  0
 40 39  1  0
 41 40  1  0
 43 44  1  0
 44 47  1  0
 44 46  1  0
 45 43  2  0
 48 49  1  0
 48 23  1  0
 50 48  1  0
 52 54  1  0
 52 51  1  0
 53 64  2  0
 54 59  1  0
 55 63  1  0
 55 65  1  0
 56 62  1  0
 56 58  1  0
 57 63  1  0
 58 57  1  0
 59 58  2  0
 60 61  1  0
 60 54  2  0
 61 56  2  0
 62 55  1  0
 63 53  1  0
 65 67  2  0
 66 65  1  0
 68 66  1  0
 69 78  2  0
 69 74  1  0
 70 66  1  0
 70 74  1  0
 71 70  1  0
 72 73  1  0
 72 71  1  0
 73 69  1  0
 74 75  2  0
 75 76  1  0
 77 76  2  0
 78 77  1  0
 79 53  1  0
 79 80  1  0
 79 89  1  0
 80 83  1  0
 81 85  1  0
 81 80  1  0
 82 81  2  0
 85 84  1  0
 87 85  1  0
 87 88  1  0
 87 86  1  0
 89 92  1  1
 89 90  1  0
 91 89  1  0
M  ISO  4  13 100  22 100  51 101  52 101
M  END
>  <TORSDO>  (60) 
F 18

>  <SCORE>  (60) 
-14.611

>  <name>  (60) 
60

>  <ligand_id>  (60) 
60

>  <original_smiles>  (60) 
[H]c1c([H])c([H])c2c(c1[H])C([H])([H])C([H])([H])C([H])([H])C2([H])N([H])C(=O)C1([H])N(C(=O)C([H])(N([H])C(=O)C([H])(N([H])C([H])([H])[H])C([H])([H])[H])C(C([H])([H])[H])(C([H])([H])[H])C([H])([H])[H])C([H])([H])c2c([H])c(OC([H])([H])C3([H])C(=O)N(c4c([H])c([H])c(N(C(=O)N5C([H])([H])C([H])([H])C([H])([H])C([H])(n6nc(-c7c([H])c([H])c(Oc8c([H])c([H])c(F)c([H])c8F)c([H])c7[H])c(C(=O)N([H])[H])c6N([H])[H])C5([H])[H])C([H])([H])[H])c([H])c4[H])C([H])([H])C3([H])[H])c([H])c([H])c2C1([H])[H]

>  <smiles>  (60) 
[H]c1c([H])c([H])c2c(c1[H])C([H])([H])C([H])([H])C([H])([H])C2([H])N([H])C(=O)C1([H])N(C(=O)C([H])(N([H])C(=O)C([H])(N([H])C([H])([H])[H])C([H])([H])[H])C(C([H])([H])[H])(C([H])([H])[H])C([H])([H])[H])C([H])([H])c2c([H])c(OC([H])([H])C3([H])C(=O)N(c4c([H])c([H])c(N(C(=O)N5C([H])([H])C([H])([H])C([H])([H])C([H])(n6nc(-c7c([H])c([H])c(Oc8c([H])c([H])c(F)c([H])c8F)c([H])c7[H])c(C(=O)N([H])[H])c6N([H])[H])C5([H])[H])C([H])([H])[H])c([H])c4[H])C([H])([H])C3([H])[H])c([H])c([H])c2C1([H])[H]

$$$$
61:0:0
     RDKit          3D

 92101  0  0  1  0  0  0  0  0999 V2000
  -29.5620  -23.6860   21.6060 C   0  0  0  0  0  2  0  0  0  0  0  0
  -30.2250  -22.2890   21.7340 C   0  0  0  0  0  2  0  0  0  0  0  0
  -29.3460  -22.5440   19.5480 C   0  0  0  0  0  2  0  0  0  0  0  0
  -29.5410  -24.0070   20.1050 C   0  0  0  0  0  3  0  0  0  0  0  0
  -30.0870  -21.6210   20.4420 N   0  0  0  0  0  0  0  0  0  0  0  0
  -31.2790  -19.4490   20.5500 C   0  0  0  0  0  3  0  0  0  0  0  0
  -31.3330  -18.0200   20.6080 C   0  0  0  0  0  3  0  0  0  0  0  0
  -28.9390  -17.9590   20.4350 C   0  0  0  0  0  3  0  0  0  0  0  0
  -30.0630  -20.1790   20.4230 C   0  0  0  0  0  0  0  0  0  0  0  0
  -30.1540  -17.2300   20.5560 C   0  0  0  0  0  0  0  0  0  0  0  0
  -28.8800  -19.3830   20.3710 C   0  0  0  0  0  0  0  0  0  0  0  0
  -27.3180  -20.1230   20.2850 Cl  0  0  0  0  0  0  0  0  0  0  0  0
  -30.8840  -14.7390   20.1990 C   0  0  0  0  0  0  0  0  0  0  0  0
  -30.6310  -12.5300   19.0780 C   0  0  0  0  0  2  0  0  0  0  0  0
  -29.6460  -12.6990   17.9000 C   0  0  0  0  0  2  0  0  0  0  0  0
  -28.1860  -12.5380   18.3730 C   0  0  0  0  0  2  0  0  0  0  0  0
  -27.8770  -13.3720   19.6440 C   0  0  0  0  0  3  0  0  0  0  0  0
  -28.9690  -13.1690   20.7200 C   0  0  0  0  0  2  0  0  0  0  0  0
  -30.2650  -13.5180   20.1130 N   0  0  0  0  0  0  0  0  0  0  0  0
  -32.0280  -14.9120   19.7660 O   0  0  0  0  0  0  0  0  0  0  0  0
  -30.0870  -15.7660   20.6370 N   0  0  0  0  0  0  0  0  0  0  0  0
  -29.2030  -15.4170   20.9740 H   0  0  0  0  0  0  0  0  0  0  0  0
  -25.5120  -13.9830   20.4460 C   0  0  0  0  0  0  0  0  0  0  0  0
  -24.4500  -13.2150   20.8360 C   0  0  0  0  0  0  0  0  0  0  0  0
  -24.8950  -11.8600   20.7630 C   0  0  0  0  0  0  0  0  0  0  0  0
  -26.5400  -13.0960   20.1630 N   0  0  0  0  0  0  0  0  0  0  0  0
  -26.1750  -11.8130   20.4130 N   0  0  0  0  0  0  0  0  0  0  0  0
  -24.1620  -10.6000   20.9510 C   0  0  0  0  0  0  0  0  0  0  0  0
  -24.5760   -9.6400   21.8990 C   0  0  0  0  0  3  0  0  0  0  0  0
  -23.8430   -8.4450   22.0730 C   0  0  0  0  0  3  0  0  0  0  0  0
  -22.6840   -8.2040   21.3000 C   0  0  0  0  0  0  0  0  0  0  0  0
  -22.2900   -9.1540   20.3410 C   0  0  0  0  0  3  0  0  0  0  0  0
  -23.0220  -10.3390   20.1640 C   0  0  0  0  0  3  0  0  0  0  0  0
  -21.9250   -7.0610   21.3820 O   0  0  0  0  0  0  0  0  0  0  0  0
  -21.7900   -6.3710   22.5610 C   0  0  0  0  0  0  0  0  0  0  0  0
  -21.2690   -6.9770   23.7240 C   0  0  0  0  0  3  0  0  0  0  0  0
  -21.0820   -6.2120   24.8930 C   0  0  0  0  0  3  0  0  0  0  0  0
  -21.4070   -4.8430   24.8980 C   0  0  0  0  0  0  0  0  0  0  0  0
  -21.9210   -4.2360   23.7390 C   0  0  0  0  0  3  0  0  0  0  0  0
  -22.1100   -4.9980   22.5730 C   0  0  0  0  0  0  0  0  0  0  0  0
  -22.5860   -4.4040   21.4520 F   0  0  0  0  0  0  0  0  0  0  0  0
  -21.2200   -4.1060   26.0190 F   0  0  0  0  0  0  0  0  0  0  0  0
  -23.0660  -13.7000   21.1600 C   0  0  0  0  0  0  0  0  0  0  0  0
  -22.3630  -13.0040   22.0460 N   0  0  0  0  0  0  0  0  0  0  0  0
  -22.6180  -14.7330   20.6620 O   0  0  0  0  0  0  0  0  0  0  0  0
  -22.7390  -12.1690   22.4710 H   0  0  0  0  0  0  0  0  0  0  0  0
  -21.4360  -13.3110   22.3050 H   0  0  0  0  0  0  0  0  0  0  0  0
  -25.6840  -15.3540   20.2840 N   0  0  0  0  0  0  0  0  0  0  0  0
  -24.9150  -16.0040   20.4050 H   0  0  0  0  0  0  0  0  0  0  0  0
  -26.4950  -15.7800   19.8530 H   0  0  0  0  0  0  0  0  0  0  0  0
  -28.4950  -25.1140   19.6350 C   0  0  0  0  0  2  0  0  0  0  0  0
  -28.6400  -26.5460   19.9930 O   0  0  0  0  0  0  0  0  0  0  0  0
  -24.6250  -31.6590   23.1360 C   0  0  0  0  0  0  0  0  0  0  0  0
  -27.4860  -27.3500   19.9470 C   0  0  0  0  0  0  0  0  0  0  0  0
  -23.5110  -30.2800   21.4180 C   0  0  0  0  0  3  0  0  0  0  0  0
  -25.0510  -28.8580   19.9590 C   0  0  0  0  0  0  0  0  0  0  0  0
  -26.0370  -30.7140   21.2980 C   0  0  0  0  0  2  0  0  0  0  0  0
  -26.1880  -29.3690   20.5980 C   0  0  0  0  0  0  0  0  0  0  0  0
  -27.4070  -28.6280   20.5830 C   0  0  0  0  0  3  0  0  0  0  0  0
  -26.3200  -26.8970   19.2800 C   0  0  0  0  0  3  0  0  0  0  0  0
  -25.1200  -27.6280   19.2920 C   0  0  0  0  0  3  0  0  0  0  0  0
  -23.7770  -29.6750   20.0160 C   0  0  0  0  0  2  0  0  0  0  0  0
  -24.7410  -30.9000   22.0080 N   0  0  0  0  0  0  0  0  0  0  0  0
  -23.5210  -31.8690   23.6600 O   0  0  0  0  0  0  0  0  0  0  0  0
  -22.8760  -29.1970   22.3220 C   0  0  0  0  0  0  0  0  0  0  0  0
  -21.5570  -28.9830   22.1770 N   0  0  0  0  0  0  0  0  0  0  0  0
  -23.5690  -28.5530   23.1150 O   0  0  0  0  0  0  0  0  0  0  0  0
  -21.0560  -29.5560   21.5120 H   0  0  0  0  0  0  0  0  0  0  0  0
  -18.2070  -27.6990   22.6340 C   0  0  0  0  0  0  0  0  0  0  0  0
  -20.7630  -27.9850   22.8950 C   0  0  0  0  0  3  0  0  0  0  0  0
  -20.8830  -26.5940   22.2330 C   0  0  0  0  0  2  0  0  0  0  0  0
  -19.7760  -26.3150   21.2110 C   0  0  0  0  0  2  0  0  0  0  0  0
  -18.3990  -26.3960   21.8750 C   0  0  0  0  0  2  0  0  0  0  0  0
  -19.3170  -28.4530   23.1000 C   0  0  0  0  0  0  0  0  0  0  0  0
  -19.0830  -29.6730   23.7700 C   0  0  0  0  0  3  0  0  0  0  0  0
  -17.7720  -30.1400   23.9790 C   0  0  0  0  0  3  0  0  0  0  0  0
  -16.6760  -29.3830   23.5290 C   0  0  0  0  0  3  0  0  0  0  0  0
  -16.8950  -28.1640   22.8620 C   0  0  0  0  0  3  0  0  0  0  0  0
  -25.8670  -32.3180   23.8080 C   0  0  0  0  0  3  0  0  0  0  0  0
  -25.5090  -33.7050   24.1370 N   0  0  0  0  0  0  0  0  0  0  0  0
  -25.8250  -34.7700   23.3890 C   0  0  0  0  0  0  0  0  0  0  0  0
  -26.5160  -34.6920   22.3710 O   0  0  0  0  0  0  0  0  0  0  0  0
  -24.8940  -33.8380   24.9270 H   0  0  0  0  0  0  0  0  0  0  0  0
  -24.0410  -36.5070   23.0220 C   0  0  0  0  0  1  0  0  0  0  0  0
  -25.2880  -36.1420   23.8430 C   0  0  0  0  0  3  0  0  0  0  0  0
  -27.3830  -37.1000   24.6950 C   0  0  0  0  0  1  0  0  0  0  0  0
  -26.2870  -37.2290   23.7390 N   0  0  0  0  0  0  0  0  0  0  0  0
  -25.8480  -38.1350   23.8780 H   0  0  0  0  0  0  0  0  0  0  0  0
  -26.3570  -31.5500   25.0960 C   0  0  1  0  0  0  0  0  0  0  0  0
  -25.2340  -31.2760   26.1230 C   0  0  0  0  0  1  0  0  0  0  0  0
  -26.9880  -30.1900   24.7170 C   0  0  0  0  0  1  0  0  0  0  0  0
  -27.4630  -32.3670   25.8050 C   0  0  0  0  0  1  0  0  0  0  0  0
  1  2  1  0
  3  4  1  0
  3  5  1  0
  4 51  1  0
  4  1  1  0
  5  2  1  0
  6  7  1  0
  8 10  1  0
  9  5  1  0
  9  6  2  0
 10  7  2  0
 10 21  1  0
 11  9  1  0
 11  8  2  0
 12 11  1  0
 13 21  1  0
 14 19  1  0
 15 16  1  0
 15 14  1  0
 17 16  1  0
 17 26  1  0
 17 18  1  0
 19 13  1  0
 19 18  1  0
 20 13  2  0
 21 22  1  0
 23 24  2  0
 24 43  1  0
 25 24  1  0
 25 28  1  0
 26 27  1  0
 26 23  1  0
 27 25  2  0
 28 29  1  0
 29 30  2  0
 31 34  1  0
 31 30  1  0
 32 31  2  0
 33 32  1  0
 33 28  2  0
 34 35  1  0
 35 40  2  0
 35 36  1  0
 36 37  2  0
 37 38  1  0
 38 42  1  0
 39 38  2  0
 40 39  1  0
 41 40  1  0
 43 44  1  0
 44 47  1  0
 44 46  1  0
 45 43  2  0
 48 49  1  0
 48 23  1  0
 50 48  1  0
 51 52  1  0
 53 64  2  0
 54 52  1  0
 54 59  1  0
 55 63  1  0
 55 65  1  0
 56 62  1  0
 56 58  1  0
 57 63  1  0
 58 57  1  0
 59 58  2  0
 60 61  1  0
 60 54  2  0
 61 56  2  0
 62 55  1  0
 63 53  1  0
 65 67  2  0
 66 65  1  0
 68 66  1  0
 69 78  2  0
 69 74  1  0
 70 66  1  0
 70 74  1  0
 71 70  1  0
 72 73  1  0
 72 71  1  0
 73 69  1  0
 74 75  2  0
 75 76  1  0
 77 76  2  0
 78 77  1  0
 79 53  1  0
 79 80  1  0
 79 89  1  0
 80 83  1  0
 81 85  1  0
 81 80  1  0
 82 81  2  0
 85 84  1  0
 87 85  1  0
 87 88  1  0
 87 86  1  0
 89 92  1  1
 89 90  1  0
 91 89  1  0
M  ISO  4  13 100  21 100  51 101  52 101
M  END
>  <TORSDO>  (61) 
F 18

>  <SCORE>  (61) 
-14.095

>  <name>  (61) 
61

>  <ligand_id>  (61) 
61

>  <original_smiles>  (61) 
[H]c1c([H])c([H])c2c(c1[H])C([H])([H])C([H])([H])C([H])([H])C2([H])N([H])C(=O)C1([H])N(C(=O)C([H])(N([H])C(=O)C([H])(N([H])C([H])([H])[H])C([H])([H])[H])C(C([H])([H])[H])(C([H])([H])[H])C([H])([H])[H])C([H])([H])c2c([H])c(OC([H])([H])C3([H])C([H])([H])N(c4c([H])c([H])c(N([H])C(=O)N5C([H])([H])C([H])([H])C([H])([H])C([H])(n6nc(-c7c([H])c([H])c(Oc8c([H])c([H])c(F)c([H])c8F)c([H])c7[H])c(C(=O)N([H])[H])c6N([H])[H])C5([H])[H])c([H])c4Cl)C([H])([H])C3([H])[H])c([H])c([H])c2C1([H])[H]

>  <smiles>  (61) 
[H]c1c([H])c([H])c2c(c1[H])C([H])([H])C([H])([H])C([H])([H])C2([H])N([H])C(=O)C1([H])N(C(=O)C([H])(N([H])C(=O)C([H])(N([H])C([H])([H])[H])C([H])([H])[H])C(C([H])([H])[H])(C([H])([H])[H])C([H])([H])[H])C([H])([H])c2c([H])c(OC([H])([H])C3([H])C([H])([H])N(c4c([H])c([H])c(N([H])C(=O)N5C([H])([H])C([H])([H])C([H])([H])C([H])(n6nc(-c7c([H])c([H])c(Oc8c([H])c([H])c(F)c([H])c8F)c([H])c7[H])c(C(=O)N([H])[H])c6N([H])[H])C5([H])[H])c([H])c4Cl)C([H])([H])C3([H])[H])c([H])c([H])c2C1([H])[H]

$$$$
62:0:0
     RDKit          3D

 92100  0  0  1  0  0  0  0  0999 V2000
  -30.8070  -21.9950   19.5030 C   0  0  0  0  0  1  0  0  0  0  0  0
  -30.1750  -22.1690   20.8340 N   0  0  1  0  0  4  0  0  0  0  0  0
  -29.1860  -22.0150   20.7030 H   0  0  0  0  0  0  0  0  0  0  0  0
  -30.6310  -21.1460   21.8250 C   0  0  0  0  0  2  0  0  0  0  0  0
  -29.3120  -19.0150   21.2910 C   0  0  0  0  0  3  0  0  0  0  0  0
  -31.7390  -18.8970   21.2870 C   0  0  0  0  0  3  0  0  0  0  0  0
  -29.2520  -17.6200   21.0820 C   0  0  0  0  0  3  0  0  0  0  0  0
  -31.6790  -17.5000   21.0720 C   0  0  0  0  0  3  0  0  0  0  0  0
  -30.5580  -19.6670   21.4180 C   0  0  0  0  0  0  0  0  0  0  0  0
  -30.4290  -16.8430   20.9810 C   0  0  0  0  0  0  0  0  0  0  0  0
  -30.9880  -14.5010   20.1870 C   0  0  0  0  0  0  0  0  0  0  0  0
  -30.6590  -12.3930   18.9330 C   0  0  0  0  0  2  0  0  0  0  0  0
  -29.6760  -12.6540   17.7700 C   0  0  0  0  0  2  0  0  0  0  0  0
  -28.2100  -12.5330   18.2380 C   0  0  0  0  0  2  0  0  0  0  0  0
  -27.9320  -13.3180   19.5470 C   0  0  0  0  0  3  0  0  0  0  0  0
  -29.0100  -12.9970   20.6050 C   0  0  0  0  0  2  0  0  0  0  0  0
  -30.3250  -13.3230   20.0220 N   0  0  0  0  0  0  0  0  0  0  0  0
  -32.0890  -14.7250   19.6720 O   0  0  0  0  0  0  0  0  0  0  0  0
  -30.2740  -15.4280   20.8600 N   0  0  0  0  0  0  0  0  0  0  0  0
  -29.3920  -15.0690   21.1930 H   0  0  0  0  0  0  0  0  0  0  0  0
  -25.5580  -13.9600   20.3110 C   0  0  0  0  0  0  0  0  0  0  0  0
  -24.4890  -13.2010   20.7060 C   0  0  0  0  0  0  0  0  0  0  0  0
  -24.9300  -11.8430   20.6590 C   0  0  0  0  0  0  0  0  0  0  0  0
  -26.5840  -13.0650   20.0530 N   0  0  0  0  0  0  0  0  0  0  0  0
  -26.2110  -11.7860   20.3170 N   0  0  0  0  0  0  0  0  0  0  0  0
  -24.1930  -10.5900   20.8620 C   0  0  0  0  0  0  0  0  0  0  0  0
  -24.5930   -9.6500   21.8390 C   0  0  0  0  0  3  0  0  0  0  0  0
  -23.8580   -8.4590   22.0270 C   0  0  0  0  0  3  0  0  0  0  0  0
  -22.7120   -8.2010   21.2390 C   0  0  0  0  0  0  0  0  0  0  0  0
  -22.3320   -9.1300   20.2550 C   0  0  0  0  0  3  0  0  0  0  0  0
  -23.0660  -10.3110   20.0640 C   0  0  0  0  0  3  0  0  0  0  0  0
  -21.9520   -7.0600   21.3360 O   0  0  0  0  0  0  0  0  0  0  0  0
  -21.7950   -6.3980   22.5270 C   0  0  0  0  0  0  0  0  0  0  0  0
  -21.2320   -7.0260   23.6590 C   0  0  0  0  0  3  0  0  0  0  0  0
  -21.0250   -6.2890   24.8420 C   0  0  0  0  0  3  0  0  0  0  0  0
  -21.3680   -4.9240   24.8930 C   0  0  0  0  0  0  0  0  0  0  0  0
  -21.9230   -4.2970   23.7640 C   0  0  0  0  0  3  0  0  0  0  0  0
  -22.1330   -5.0310   22.5830 C   0  0  0  0  0  0  0  0  0  0  0  0
  -22.6480   -4.4150   21.4920 F   0  0  0  0  0  0  0  0  0  0  0  0
  -21.1620   -4.2140   26.0260 F   0  0  0  0  0  0  0  0  0  0  0  0
  -23.1050  -13.6940   21.0150 C   0  0  0  0  0  0  0  0  0  0  0  0
  -22.3910  -13.0050   21.8990 N   0  0  0  0  0  0  0  0  0  0  0  0
  -22.6660  -14.7270   20.5090 O   0  0  0  0  0  0  0  0  0  0  0  0
  -22.7600  -12.1710   22.3300 H   0  0  0  0  0  0  0  0  0  0  0  0
  -21.4630  -13.3180   22.1470 H   0  0  0  0  0  0  0  0  0  0  0  0
  -25.7380  -15.3280   20.1310 N   0  0  0  0  0  0  0  0  0  0  0  0
  -24.9790  -15.9920   20.2420 H   0  0  0  0  0  0  0  0  0  0  0  0
  -26.5710  -15.7450   19.7340 H   0  0  0  0  0  0  0  0  0  0  0  0
  -30.3470  -23.5430   21.4160 C   0  0  0  0  0  2  0  0  0  0  0  0
  -30.1170  -24.7950   20.5120 C   0  0  0  0  0  2  0  0  0  0  0  0
  -28.6670  -25.3050   20.3550 C   0  0  0  0  0  2  0  0  0  0  0  0
  -28.6980  -26.7210   20.1100 O   0  0  0  0  0  0  0  0  0  0  0  0
  -24.6970  -31.7540   23.1720 C   0  0  0  0  0  0  0  0  0  0  0  0
  -27.4940  -27.3950   20.1090 C   0  0  0  0  0  0  0  0  0  0  0  0
  -23.5470  -30.3310   21.5080 C   0  0  0  0  0  3  0  0  0  0  0  0
  -25.0570  -28.8340   20.0990 C   0  0  0  0  0  0  0  0  0  0  0  0
  -26.0640  -30.7570   21.3400 C   0  0  0  0  0  2  0  0  0  0  0  0
  -26.1940  -29.3920   20.6960 C   0  0  0  0  0  0  0  0  0  0  0  0
  -27.4170  -28.6810   20.6920 C   0  0  0  0  0  3  0  0  0  0  0  0
  -26.3350  -26.8460   19.5120 C   0  0  0  0  0  3  0  0  0  0  0  0
  -25.1220  -27.5600   19.5060 C   0  0  0  0  0  3  0  0  0  0  0  0
  -23.7920  -29.6620   20.1300 C   0  0  0  0  0  2  0  0  0  0  0  0
  -24.7870  -30.9610   22.0660 N   0  0  0  0  0  0  0  0  0  0  0  0
  -23.6040  -31.9970   23.7010 O   0  0  0  0  0  0  0  0  0  0  0  0
  -22.9090  -29.2890   22.4560 C   0  0  0  0  0  0  0  0  0  0  0  0
  -21.5940  -29.0690   22.3040 N   0  0  0  0  0  0  0  0  0  0  0  0
  -23.5960  -28.6830   23.2820 O   0  0  0  0  0  0  0  0  0  0  0  0
  -21.1010  -29.6120   21.6090 H   0  0  0  0  0  0  0  0  0  0  0  0
  -18.2490  -27.7720   22.7270 C   0  0  0  0  0  0  0  0  0  0  0  0
  -20.7910  -28.1060   23.0560 C   0  0  0  0  0  3  0  0  0  0  0  0
  -20.9490  -26.6790   22.4820 C   0  0  0  0  0  2  0  0  0  0  0  0
  -19.8800  -26.3250   21.4440 C   0  0  0  0  0  2  0  0  0  0  0  0
  -18.4810  -26.4280   22.0570 C   0  0  0  0  0  2  0  0  0  0  0  0
  -19.3340  -28.5660   23.1830 C   0  0  0  0  0  0  0  0  0  0  0  0
  -19.0650  -29.8220   23.7670 C   0  0  0  0  0  3  0  0  0  0  0  0
  -17.7440  -30.2870   23.9020 C   0  0  0  0  0  3  0  0  0  0  0  0
  -16.6720  -29.4890   23.4650 C   0  0  0  0  0  3  0  0  0  0  0  0
  -16.9250  -28.2330   22.8840 C   0  0  0  0  0  3  0  0  0  0  0  0
  -25.9600  -32.4130   23.8100 C   0  0  0  0  0  3  0  0  0  0  0  0
  -25.6100  -33.7970   24.1540 N   0  0  0  0  0  0  0  0  0  0  0  0
  -25.9140  -34.8670   23.4060 C   0  0  0  0  0  0  0  0  0  0  0  0
  -26.5890  -34.7940   22.3770 O   0  0  0  0  0  0  0  0  0  0  0  0
  -25.0050  -33.9250   24.9530 H   0  0  0  0  0  0  0  0  0  0  0  0
  -24.1280  -36.6050   23.0730 C   0  0  0  0  0  1  0  0  0  0  0  0
  -25.3840  -36.2360   23.8760 C   0  0  0  0  0  3  0  0  0  0  0  0
  -27.4910  -37.1840   24.7100 C   0  0  0  0  0  1  0  0  0  0  0  0
  -26.3840  -37.3210   23.7680 N   0  0  0  0  0  0  0  0  0  0  0  0
  -25.9490  -38.2260   23.9230 H   0  0  0  0  0  0  0  0  0  0  0  0
  -26.4900  -31.6390   25.0800 C   0  0  1  0  0  0  0  0  0  0  0  0
  -25.3960  -31.3520   26.1330 C   0  0  0  0  0  1  0  0  0  0  0  0
  -27.1160  -30.2860   24.6670 C   0  0  0  0  0  1  0  0  0  0  0  0
  -27.6090  -32.4580   25.7650 C   0  0  0  0  0  1  0  0  0  0  0  0
  1  2  1  0
  2 49  1  0
  2  4  1  0
  2  3  1  6
  5  9  1  0
  6  9  2  0
  7  5  2  0
  8  6  1  0
  9  4  1  0
 10  8  2  0
 10  7  1  0
 11 19  1  0
 12 17  1  0
 13 14  1  0
 13 12  1  0
 15 14  1  0
 15 24  1  0
 15 16  1  0
 17 11  1  0
 17 16  1  0
 18 11  2  0
 19 10  1  0
 19 20  1  0
 21 22  2  0
 22 41  1  0
 23 22  1  0
 23 26  1  0
 24 21  1  0
 24 25  1  0
 25 23  2  0
 26 27  1  0
 27 28  2  0
 29 32  1  0
 29 28  1  0
 30 29  2  0
 31 30  1  0
 31 26  2  0
 32 33  1  0
 33 38  2  0
 33 34  1  0
 34 35  2  0
 35 36  1  0
 36 40  1  0
 37 36  2  0
 38 37  1  0
 39 38  1  0
 41 42  1  0
 42 45  1  0
 42 44  1  0
 43 41  2  0
 46 47  1  0
 46 21  1  0
 48 46  1  0
 50 49  1  0
 51 50  1  0
 52 51  1  0
 53 64  2  0
 54 52  1  0
 54 59  1  0
 55 63  1  0
 55 65  1  0
 56 62  1  0
 56 58  1  0
 57 63  1  0
 58 57  1  0
 59 58  2  0
 60 54  2  0
 61 60  1  0
 61 56  2  0
 62 55  1  0
 63 53  1  0
 65 67  2  0
 66 65  1  0
 68 66  1  0
 69 78  2  0
 69 74  1  0
 70 66  1  0
 70 74  1  0
 71 70  1  0
 72 73  1  0
 72 71  1  0
 73 69  1  0
 74 75  2  0
 75 76  1  0
 77 76  2  0
 78 77  1  0
 79 53  1  0
 79 80  1  0
 79 89  1  0
 80 83  1  0
 81 85  1  0
 81 80  1  0
 82 81  2  0
 85 84  1  0
 87 85  1  0
 87 88  1  0
 87 86  1  0
 89 92  1  1
 89 90  1  0
 91 89  1  0
M  ISO  4  11 100  19 100  51 101  52 101
M  END
>  <TORSDO>  (62) 
F 21

>  <SCORE>  (62) 
-12.816

>  <name>  (62) 
62

>  <ligand_id>  (62) 
62

>  <original_smiles>  (62) 
[H]c1c([H])c([H])c2c(c1[H])C([H])([H])C([H])([H])C([H])([H])C2([H])N([H])C(=O)C1([H])N(C(=O)C([H])(N([H])C(=O)C([H])(N([H])C([H])([H])[H])C([H])([H])[H])C(C([H])([H])[H])(C([H])([H])[H])C([H])([H])[H])C([H])([H])c2c([H])c(OC([H])([H])C([H])([H])C([H])([H])[N+]([H])(C([H])([H])[H])C([H])([H])c3c([H])c([H])c(N([H])C(=O)N4C([H])([H])C([H])([H])C([H])([H])C([H])(n5nc(-c6c([H])c([H])c(Oc7c([H])c([H])c(F)c([H])c7F)c([H])c6[H])c(C(=O)N([H])[H])c5N([H])[H])C4([H])[H])c([H])c3[H])c([H])c([H])c2C1([H])[H]

>  <smiles>  (62) 
[H]c1c([H])c([H])c2c(c1[H])C([H])([H])C([H])([H])C([H])([H])C2([H])N([H])C(=O)C1([H])N(C(=O)C([H])(N([H])C(=O)C([H])(N([H])C([H])([H])[H])C([H])([H])[H])C(C([H])([H])[H])(C([H])([H])[H])C([H])([H])[H])C([H])([H])c2c([H])c(OC([H])([H])C([H])([H])C([H])([H])[N+]([H])(C([H])([H])[H])C([H])([H])c3c([H])c([H])c(N([H])C(=O)N4C([H])([H])C([H])([H])C([H])([H])C([H])(n5nc(-c6c([H])c([H])c(Oc7c([H])c([H])c(F)c([H])c7F)c([H])c6[H])c(C(=O)N([H])[H])c5N([H])[H])C4([H])[H])c([H])c3[H])c([H])c([H])c2C1([H])[H]

$$$$
63:0:0
     RDKit          3D

 96104  0  0  1  0  0  0  0  0999 V2000
  -30.9340  -21.4380   21.9060 C   0  0  0  0  0  3  0  0  0  0  0  0
  -30.3170  -22.6550   22.2500 C   0  0  0  0  0  3  0  0  0  0  0  0
  -30.1980  -20.4260   21.2550 C   0  0  0  0  0  0  0  0  0  0  0  0
  -28.2130  -21.8650   21.3030 C   0  0  0  0  0  0  0  0  0  0  0  0
  -28.9540  -22.8840   21.9490 C   0  0  0  0  0  0  0  0  0  0  0  0
  -28.8390  -20.6430   20.9570 C   0  0  0  0  0  0  0  0  0  0  0  0
  -26.7460  -22.0780   20.9590 C   0  0  0  0  0  1  0  0  0  0  0  0
  -28.1380  -19.6620   20.3390 F   0  0  0  0  0  0  0  0  0  0  0  0
  -28.3180  -24.0960   22.2770 N   0  0  0  0  0  0  0  0  0  0  0  0
  -27.3080  -24.0650   22.3880 H   0  0  0  0  0  0  0  0  0  0  0  0
  -28.8790  -25.3720   21.8400 C   0  0  0  0  0  2  0  0  0  0  0  0
  -28.4200  -25.7530   20.4240 C   0  0  0  0  0  2  0  0  0  0  0  0
  -29.0850  -27.0390   19.9050 C   0  0  0  0  0  2  0  0  0  0  0  0
  -28.3880  -27.5170   18.7560 O   0  0  0  0  0  0  0  0  0  0  0  0
  -24.4580  -31.5690   23.0930 C   0  0  0  0  0  0  0  0  0  0  0  0
  -27.1770  -28.1050   19.0240 C   0  0  0  0  0  0  0  0  0  0  0  0
  -23.2220  -30.3480   21.3290 C   0  0  0  0  0  3  0  0  0  0  0  0
  -24.6580  -29.2620   19.5230 C   0  0  0  0  0  0  0  0  0  0  0  0
  -25.6600  -31.0340   20.9810 C   0  0  0  0  0  2  0  0  0  0  0  0
  -25.8090  -29.8160   20.0970 C   0  0  0  0  0  0  0  0  0  0  0  0
  -27.0710  -29.2420   19.8510 C   0  0  0  0  0  3  0  0  0  0  0  0
  -26.0170  -27.5590   18.4400 C   0  0  0  0  0  3  0  0  0  0  0  0
  -24.7530  -28.1290   18.6930 C   0  0  0  0  0  3  0  0  0  0  0  0
  -23.3460  -29.9450   19.8350 C   0  0  0  0  0  2  0  0  0  0  0  0
  -24.4690  -30.9900   21.8590 N   0  0  0  0  0  0  0  0  0  0  0  0
  -23.4200  -31.6180   23.7670 O   0  0  0  0  0  0  0  0  0  0  0  0
  -22.7790  -29.1090   22.1350 C   0  0  0  0  0  0  0  0  0  0  0  0
  -21.4900  -28.7520   22.0200 N   0  0  0  0  0  0  0  0  0  0  0  0
  -23.5880  -28.4760   22.8200 O   0  0  0  0  0  0  0  0  0  0  0  0
  -20.8910  -29.3270   21.4430 H   0  0  0  0  0  0  0  0  0  0  0  0
  -18.3860  -26.9230   22.2970 C   0  0  0  0  0  0  0  0  0  0  0  0
  -20.8560  -27.5960   22.6530 C   0  0  0  0  0  3  0  0  0  0  0  0
  -21.2140  -26.2890   21.9100 C   0  0  0  0  0  2  0  0  0  0  0  0
  -20.1860  -25.9020   20.8410 C   0  0  0  0  0  2  0  0  0  0  0  0
  -18.8010  -25.7180   21.4680 C   0  0  0  0  0  2  0  0  0  0  0  0
  -19.3500  -27.8140   22.8400 C   0  0  0  0  0  0  0  0  0  0  0  0
  -18.9110  -28.9380   23.5710 C   0  0  0  0  0  3  0  0  0  0  0  0
  -17.5370  -29.1780   23.7660 C   0  0  0  0  0  3  0  0  0  0  0  0
  -16.5880  -28.2850   23.2400 C   0  0  0  0  0  3  0  0  0  0  0  0
  -17.0120  -27.1590   22.5130 C   0  0  0  0  0  3  0  0  0  0  0  0
  -25.7390  -32.2170   23.7050 C   0  0  0  0  0  3  0  0  0  0  0  0
  -25.3990  -33.5950   24.0830 N   0  0  0  0  0  0  0  0  0  0  0  0
  -25.7120  -34.6790   23.3600 C   0  0  0  0  0  0  0  0  0  0  0  0
  -26.3900  -34.6250   22.3300 O   0  0  0  0  0  0  0  0  0  0  0  0
  -24.7960  -33.7090   24.8840 H   0  0  0  0  0  0  0  0  0  0  0  0
  -23.9360  -36.4340   23.0630 C   0  0  0  0  0  1  0  0  0  0  0  0
  -25.1890  -36.0400   23.8600 C   0  0  0  0  0  3  0  0  0  0  0  0
  -27.3140  -36.9420   24.6970 C   0  0  0  0  0  1  0  0  0  0  0  0
  -26.1950  -37.1220   23.7770 N   0  0  0  0  0  0  0  0  0  0  0  0
  -25.7680  -38.0240   23.9690 H   0  0  0  0  0  0  0  0  0  0  0  0
  -26.3110  -31.4220   24.9430 C   0  0  1  0  0  0  0  0  0  0  0  0
  -25.2550  -31.1310   26.0350 C   0  0  0  0  0  1  0  0  0  0  0  0
  -26.9100  -30.0690   24.4910 C   0  0  0  0  0  1  0  0  0  0  0  0
  -27.4650  -32.2220   25.5930 C   0  0  0  0  0  1  0  0  0  0  0  0
  -30.8740  -19.1190   20.8560 C   0  0  0  0  0  2  0  0  0  0  0  0
  -31.6010  -18.5180   23.1520 C   0  0  0  0  0  1  0  0  0  0  0  0
  -30.8820  -18.0810   21.9270 N   0  0  2  0  0  4  0  0  0  0  0  0
  -29.9240  -17.9430   22.2110 H   0  0  0  0  0  0  0  0  0  0  0  0
  -31.3860  -16.7680   21.4340 C   0  0  0  0  0  2  0  0  0  0  0  0
  -30.2630  -15.7620   21.0640 C   0  0  0  0  0  2  0  0  0  0  0  0
  -30.7040  -14.6790   20.0570 C   0  0  0  0  0  0  0  0  0  0  0  0
  -30.3450  -12.4960   18.9490 C   0  0  0  0  0  2  0  0  0  0  0  0
  -29.3210  -12.6050   17.8040 C   0  0  0  0  0  2  0  0  0  0  0  0
  -27.8870  -12.4370   18.3390 C   0  0  0  0  0  2  0  0  0  0  0  0
  -27.6010  -13.3410   19.5670 C   0  0  0  0  0  3  0  0  0  0  0  0
  -28.7290  -13.2180   20.6170 C   0  0  0  0  0  2  0  0  0  0  0  0
  -30.0130  -13.5120   19.9600 N   0  0  0  0  0  0  0  0  0  0  0  0
  -31.6810  -14.9130   19.3390 O   0  0  0  0  0  0  0  0  0  0  0  0
  -25.3000  -13.9330   20.5610 C   0  0  0  0  0  0  0  0  0  0  0  0
  -24.2450  -13.1520   20.9560 C   0  0  0  0  0  0  0  0  0  0  0  0
  -24.6560  -11.8000   20.7470 C   0  0  0  0  0  0  0  0  0  0  0  0
  -26.2890  -13.0540   20.1460 N   0  0  0  0  0  0  0  0  0  0  0  0
  -25.9090  -11.7610   20.3120 N   0  0  0  0  0  0  0  0  0  0  0  0
  -23.9100  -10.5420   20.8850 C   0  0  0  0  0  0  0  0  0  0  0  0
  -24.3520   -9.5120   21.7440 C   0  0  0  0  0  3  0  0  0  0  0  0
  -23.6080   -8.3190   21.8720 C   0  0  0  0  0  3  0  0  0  0  0  0
  -22.4090   -8.1480   21.1410 C   0  0  0  0  0  0  0  0  0  0  0  0
  -21.9860   -9.1660   20.2690 C   0  0  0  0  0  3  0  0  0  0  0  0
  -22.7310  -10.3510   20.1380 C   0  0  0  0  0  3  0  0  0  0  0  0
  -21.6360   -7.0130   21.1830 O   0  0  0  0  0  0  0  0  0  0  0  0
  -21.5500   -6.2410   22.3130 C   0  0  0  0  0  0  0  0  0  0  0  0
  -21.1040   -6.7690   23.5440 C   0  0  0  0  0  3  0  0  0  0  0  0
  -20.9660   -5.9240   24.6640 C   0  0  0  0  0  3  0  0  0  0  0  0
  -21.2640   -4.5520   24.5530 C   0  0  0  0  0  0  0  0  0  0  0  0
  -21.7030   -4.0250   23.3270 C   0  0  0  0  0  3  0  0  0  0  0  0
  -21.8430   -4.8660   22.2090 C   0  0  0  0  0  0  0  0  0  0  0  0
  -22.2470   -4.3480   21.0240 F   0  0  0  0  0  0  0  0  0  0  0  0
  -21.1240   -3.7390   25.6260 F   0  0  0  0  0  0  0  0  0  0  0  0
  -22.8970  -13.6320   21.4090 C   0  0  0  0  0  0  0  0  0  0  0  0
  -22.2420  -12.8800   22.2880 N   0  0  0  0  0  0  0  0  0  0  0  0
  -22.4350  -14.7040   21.0210 O   0  0  0  0  0  0  0  0  0  0  0  0
  -22.6280  -12.0100   22.6220 H   0  0  0  0  0  0  0  0  0  0  0  0
  -21.3410  -13.1800   22.6300 H   0  0  0  0  0  0  0  0  0  0  0  0
  -25.4930  -15.3090   20.5000 N   0  0  0  0  0  0  0  0  0  0  0  0
  -24.7660  -15.9720   20.7510 H   0  0  0  0  0  0  0  0  0  0  0  0
  -26.3280  -15.7560   20.1430 H   0  0  0  0  0  0  0  0  0  0  0  0
  1  2  1  0
  3  1  2  0
  4  5  1  0
  5  2  2  0
  5  9  1  0
  6  3  1  0
  6  4  2  0
  7  4  1  0
  8  6  1  0
  9 10  1  0
 11  9  1  0
 12 11  1  0
 13 12  1  0
 14 16  1  0
 14 13  1  0
 15 26  2  0
 16 21  1  0
 17 25  1  0
 17 27  1  0
 18 24  1  0
 18 20  1  0
 19 25  1  0
 20 19  1  0
 21 20  2  0
 22 23  1  0
 22 16  2  0
 23 18  2  0
 24 17  1  0
 25 15  1  0
 27 29  2  0
 28 27  1  0
 30 28  1  0
 31 40  2  0
 31 36  1  0
 32 28  1  0
 32 36  1  0
 33 32  1  0
 34 35  1  0
 34 33  1  0
 35 31  1  0
 36 37  2  0
 37 38  1  0
 39 38  2  0
 40 39  1  0
 41 15  1  0
 41 42  1  0
 41 51  1  0
 42 45  1  0
 43 47  1  0
 43 42  1  0
 44 43  2  0
 47 46  1  0
 49 47  1  0
 49 50  1  0
 49 48  1  0
 51 54  1  1
 51 52  1  0
 53 51  1  0
 55  3  1  0
 55 57  1  0
 57 58  1  1
 57 56  1  0
 59 57  1  0
 60 59  1  0
 61 60  1  0
 62 67  1  0
 63 64  1  0
 63 62  1  0
 65 64  1  0
 65 72  1  0
 65 66  1  0
 67 61  1  0
 67 66  1  0
 68 61  2  0
 69 70  2  0
 70 89  1  0
 71 74  1  0
 71 70  1  0
 72 73  1  0
 72 69  1  0
 73 71  2  0
 74 75  1  0
 75 76  2  0
 77 80  1  0
 77 76  1  0
 78 77  2  0
 79 78  1  0
 79 74  2  0
 80 81  1  0
 81 82  1  0
 82 83  2  0
 84 83  1  0
 84 88  1  0
 85 84  2  0
 86 81  2  0
 86 85  1  0
 87 86  1  0
 89 90  1  0
 90 92  1  0
 90 93  1  0
 91 89  2  0
 94 69  1  0
 94 95  1  0
 96 94  1  0
M  ISO  4  13 101  14 101  60 100  61 100
M  END
>  <TORSDO>  (63) 
F 24

>  <SCORE>  (63) 
-10.274

>  <name>  (63) 
63

>  <ligand_id>  (63) 
63

>  <original_smiles>  (63) 
[H]c1c([H])c([H])c2c(c1[H])C([H])([H])C([H])([H])C([H])([H])C2([H])N([H])C(=O)C1([H])N(C(=O)C([H])(N([H])C(=O)C([H])(N([H])C([H])([H])[H])C([H])([H])[H])C(C([H])([H])[H])(C([H])([H])[H])C([H])([H])[H])C([H])([H])c2c([H])c(OC([H])([H])C([H])([H])C([H])([H])N([H])c3c([H])c([H])c(C([H])([H])[N+]([H])(C([H])([H])[H])C([H])([H])C([H])([H])C(=O)N4C([H])([H])C([H])([H])C([H])([H])C([H])(n5nc(-c6c([H])c([H])c(Oc7c([H])c([H])c(F)c([H])c7F)c([H])c6[H])c(C(=O)N([H])[H])c5N([H])[H])C4([H])[H])c(F)c3C([H])([H])[H])c([H])c([H])c2C1([H])[H]

>  <smiles>  (63) 
[H]c1c([H])c([H])c2c(c1[H])C([H])([H])C([H])([H])C([H])([H])C2([H])N([H])C(=O)C1([H])N(C(=O)C([H])(N([H])C(=O)C([H])(N([H])C([H])([H])[H])C([H])([H])[H])C(C([H])([H])[H])(C([H])([H])[H])C([H])([H])[H])C([H])([H])c2c([H])c(OC([H])([H])C([H])([H])C([H])([H])N([H])c3c([H])c([H])c(C([H])([H])[N+]([H])(C([H])([H])[H])C([H])([H])C([H])([H])C(=O)N4C([H])([H])C([H])([H])C([H])([H])C([H])(n5nc(-c6c([H])c([H])c(Oc7c([H])c([H])c(F)c([H])c7F)c([H])c6[H])c(C(=O)N([H])[H])c5N([H])[H])C4([H])[H])c(F)c3C([H])([H])[H])c([H])c([H])c2C1([H])[H]

$$$$
64:0:0
     RDKit          3D

 93102  0  0  1  0  0  0  0  0999 V2000
  -31.3040  -22.8280   21.4520 C   0  0  0  0  0  2  0  0  0  0  0  0
  -29.9920  -23.5910   21.6800 C   0  0  0  0  0  2  0  0  0  0  0  0
  -31.1800  -22.2000   20.0440 C   0  0  0  0  0  2  0  0  0  0  0  0
  -29.3920  -23.5420   20.2860 C   0  0  0  0  0  3  0  0  0  0  0  0
  -29.7400  -22.1060   19.7320 N   0  0  0  0  0  0  0  0  0  0  0  0
  -29.7610  -19.9010   21.2100 C   0  0  0  0  0  3  0  0  0  0  0  0
  -29.6340  -18.2710   18.9650 C   0  0  0  0  0  3  0  0  0  0  0  0
  -29.5710  -20.6370   19.9860 C   0  0  0  0  0  0  0  0  0  0  0  0
  -29.8570  -17.5430   20.1780 C   0  0  0  0  0  0  0  0  0  0  0  0
  -29.8830  -18.4490   21.3020 C   0  0  0  0  0  0  0  0  0  0  0  0
  -29.5010  -19.7170   18.8740 C   0  0  0  0  0  0  0  0  0  0  0  0
  -30.0400  -17.9090   22.5370 F   0  0  0  0  0  0  0  0  0  0  0  0
  -29.3430  -20.2410   17.6310 F   0  0  0  0  0  0  0  0  0  0  0  0
  -30.5940  -14.9020   19.9000 C   0  0  0  0  0  0  0  0  0  0  0  0
  -30.4050  -12.5870   18.8840 C   0  0  0  0  0  2  0  0  0  0  0  0
  -29.3840  -12.6410   17.7230 C   0  0  0  0  0  2  0  0  0  0  0  0
  -27.9520  -12.4220   18.2500 C   0  0  0  0  0  2  0  0  0  0  0  0
  -27.6470  -13.2850   19.5020 C   0  0  0  0  0  3  0  0  0  0  0  0
  -28.7800  -13.2130   20.5480 C   0  0  0  0  0  2  0  0  0  0  0  0
  -30.0220  -13.6320   19.8790 N   0  0  0  0  0  0  0  0  0  0  0  0
  -31.7370  -15.0220   19.4420 O   0  0  0  0  0  0  0  0  0  0  0  0
  -29.8260  -16.0130   20.3230 N   0  0  0  0  0  0  0  0  0  0  0  0
  -29.0150  -15.7020   20.8370 H   0  0  0  0  0  0  0  0  0  0  0  0
  -25.3300  -13.8560   20.4260 C   0  0  0  0  0  0  0  0  0  0  0  0
  -24.2890  -13.0780   20.8480 C   0  0  0  0  0  0  0  0  0  0  0  0
  -24.7330  -11.7250   20.7340 C   0  0  0  0  0  0  0  0  0  0  0  0
  -26.3430  -12.9790   20.0790 N   0  0  0  0  0  0  0  0  0  0  0  0
  -25.9970  -11.6890   20.3250 N   0  0  0  0  0  0  0  0  0  0  0  0
  -24.0070  -10.4640   20.9310 C   0  0  0  0  0  0  0  0  0  0  0  0
  -24.4450   -9.4960   21.8610 C   0  0  0  0  0  3  0  0  0  0  0  0
  -23.7180   -8.3000   22.0460 C   0  0  0  0  0  3  0  0  0  0  0  0
  -22.5380   -8.0650   21.3010 C   0  0  0  0  0  0  0  0  0  0  0  0
  -22.1190   -9.0220   20.3590 C   0  0  0  0  0  3  0  0  0  0  0  0
  -22.8460  -10.2080   20.1730 C   0  0  0  0  0  3  0  0  0  0  0  0
  -21.7800   -6.9230   21.3980 O   0  0  0  0  0  0  0  0  0  0  0  0
  -21.6750   -6.2240   22.5750 C   0  0  0  0  0  0  0  0  0  0  0  0
  -21.1770   -6.8220   23.7530 C   0  0  0  0  0  3  0  0  0  0  0  0
  -21.0190   -6.0500   24.9220 C   0  0  0  0  0  3  0  0  0  0  0  0
  -21.3480   -4.6820   24.9130 C   0  0  0  0  0  0  0  0  0  0  0  0
  -21.8390   -4.0840   23.7400 C   0  0  0  0  0  3  0  0  0  0  0  0
  -21.9980   -4.8530   22.5730 C   0  0  0  0  0  0  0  0  0  0  0  0
  -22.4510   -4.2650   21.4390 F   0  0  0  0  0  0  0  0  0  0  0  0
  -21.1890   -3.9390   26.0330 F   0  0  0  0  0  0  0  0  0  0  0  0
  -22.9200  -13.5560   21.2420 C   0  0  0  0  0  0  0  0  0  0  0  0
  -22.2580  -12.8490   22.1510 N   0  0  0  0  0  0  0  0  0  0  0  0
  -22.4520  -14.5970   20.7810 O   0  0  0  0  0  0  0  0  0  0  0  0
  -22.6490  -12.0070   22.5460 H   0  0  0  0  0  0  0  0  0  0  0  0
  -21.3430  -13.1540   22.4530 H   0  0  0  0  0  0  0  0  0  0  0  0
  -25.4990  -15.2320   20.2830 N   0  0  0  0  0  0  0  0  0  0  0  0
  -24.7430  -15.8880   20.4510 H   0  0  0  0  0  0  0  0  0  0  0  0
  -26.3100  -15.6650   19.8640 H   0  0  0  0  0  0  0  0  0  0  0  0
  -28.1610  -24.6240   19.9440 C   0  0  0  0  0  2  0  0  0  0  0  0
  -28.3390  -26.1630   20.1150 O   0  0  0  0  0  0  0  0  0  0  0  0
  -24.5530  -31.7130   23.0940 C   0  0  0  0  0  0  0  0  0  0  0  0
  -27.2540  -27.1040   20.0450 C   0  0  0  0  0  0  0  0  0  0  0  0
  -23.4010  -30.3220   21.4140 C   0  0  0  0  0  3  0  0  0  0  0  0
  -24.8960  -28.7920   19.9890 C   0  0  0  0  0  0  0  0  0  0  0  0
  -25.9460  -30.6440   21.2840 C   0  0  0  0  0  2  0  0  0  0  0  0
  -26.0560  -29.2620   20.6200 C   0  0  0  0  0  0  0  0  0  0  0  0
  -27.2380  -28.4330   20.6300 C   0  0  0  0  0  3  0  0  0  0  0  0
  -26.0650  -26.7270   19.3850 C   0  0  0  0  0  3  0  0  0  0  0  0
  -24.9120  -27.5390   19.3570 C   0  0  0  0  0  3  0  0  0  0  0  0
  -23.6470  -29.6580   20.0320 C   0  0  0  0  0  2  0  0  0  0  0  0
  -24.6530  -30.9130   21.9870 N   0  0  0  0  0  0  0  0  0  0  0  0
  -23.4550  -31.9640   23.6130 O   0  0  0  0  0  0  0  0  0  0  0  0
  -22.7230  -29.2920   22.3550 C   0  0  0  0  0  0  0  0  0  0  0  0
  -21.3930  -29.1280   22.2260 N   0  0  0  0  0  0  0  0  0  0  0  0
  -23.3960  -28.6430   23.1610 O   0  0  0  0  0  0  0  0  0  0  0  0
  -20.9060  -29.6980   21.5480 H   0  0  0  0  0  0  0  0  0  0  0  0
  -18.0040  -27.9570   22.7250 C   0  0  0  0  0  0  0  0  0  0  0  0
  -20.5700  -28.1720   22.9690 C   0  0  0  0  0  3  0  0  0  0  0  0
  -20.6460  -26.7630   22.3350 C   0  0  0  0  0  2  0  0  0  0  0  0
  -19.5280  -26.4990   21.3230 C   0  0  0  0  0  2  0  0  0  0  0  0
  -18.1560  -26.6340   21.9920 C   0  0  0  0  0  2  0  0  0  0  0  0
  -19.1380  -28.6870   23.1690 C   0  0  0  0  0  0  0  0  0  0  0  0
  -18.9440  -29.9270   23.8150 C   0  0  0  0  0  3  0  0  0  0  0  0
  -17.6490  -30.4380   24.0200 C   0  0  0  0  0  3  0  0  0  0  0  0
  -16.5280  -29.7030   23.5950 C   0  0  0  0  0  3  0  0  0  0  0  0
  -16.7070  -28.4630   22.9550 C   0  0  0  0  0  3  0  0  0  0  0  0
  -25.8120  -32.3590   23.7480 C   0  0  0  0  0  3  0  0  0  0  0  0
  -25.4710  -33.7420   24.1070 N   0  0  0  0  0  0  0  0  0  0  0  0
  -25.7800  -34.8220   23.3750 C   0  0  0  0  0  0  0  0  0  0  0  0
  -26.4480  -34.7570   22.3400 O   0  0  0  0  0  0  0  0  0  0  0  0
  -24.8730  -33.8630   24.9110 H   0  0  0  0  0  0  0  0  0  0  0  0
  -24.0070  -36.5840   23.0820 C   0  0  0  0  0  1  0  0  0  0  0  0
  -25.2690  -36.1920   23.8680 C   0  0  0  0  0  3  0  0  0  0  0  0
  -27.3910  -37.1100   24.6950 C   0  0  0  0  0  1  0  0  0  0  0  0
  -26.2770  -37.2710   23.7640 N   0  0  0  0  0  0  0  0  0  0  0  0
  -25.8530  -38.1780   23.9400 H   0  0  0  0  0  0  0  0  0  0  0  0
  -26.3180  -31.5720   25.0190 C   0  0  1  0  0  0  0  0  0  0  0  0
  -25.2100  -31.3000   26.0640 C   0  0  0  0  0  1  0  0  0  0  0  0
  -26.9260  -30.2120   24.6110 C   0  0  0  0  0  1  0  0  0  0  0  0
  -27.4450  -32.3680   25.7170 C   0  0  0  0  0  1  0  0  0  0  0  0
  1  2  1  0
  3  1  1  0
  4 52  1  0
  4  2  1  0
  5  8  1  0
  5  3  1  0
  5  4  1  0
  6 10  1  0
  7  9  1  0
  8  6  2  0
  9 22  1  0
  9 10  2  0
 10 12  1  0
 11  7  2  0
 11  8  1  0
 13 11  1  0
 14 22  1  0
 15 20  1  0
 16 17  1  0
 16 15  1  0
 18 17  1  0
 18 27  1  0
 18 19  1  0
 20 14  1  0
 20 19  1  0
 21 14  2  0
 22 23  1  0
 24 25  2  0
 25 44  1  0
 26 25  1  0
 26 29  1  0
 27 28  1  0
 27 24  1  0
 28 26  2  0
 29 30  1  0
 30 31  2  0
 32 35  1  0
 32 31  1  0
 33 32  2  0
 34 33  1  0
 34 29  2  0
 35 36  1  0
 36 37  1  0
 37 38  2  0
 39 38  1  0
 39 43  1  0
 40 39  2  0
 41 36  2  0
 41 40  1  0
 42 41  1  0
 44 45  1  0
 45 48  1  0
 45 47  1  0
 46 44  2  0
 49 24  1  0
 49 50  1  0
 51 49  1  0
 52 53  1  0
 54 65  2  0
 55 53  1  0
 55 60  1  0
 56 64  1  0
 56 66  1  0
 57 63  1  0
 57 59  1  0
 58 64  1  0
 59 60  2  0
 59 58  1  0
 61 55  2  0
 62 61  1  0
 62 57  2  0
 63 56  1  0
 64 54  1  0
 66 68  2  0
 67 66  1  0
 69 67  1  0
 70 79  2  0
 70 75  1  0
 71 67  1  0
 71 75  1  0
 72 71  1  0
 73 74  1  0
 73 72  1  0
 74 70  1  0
 75 76  2  0
 76 77  1  0
 78 77  2  0
 79 78  1  0
 80 54  1  0
 80 81  1  0
 80 90  1  0
 81 84  1  0
 82 86  1  0
 82 81  1  0
 83 82  2  0
 86 85  1  0
 88 86  1  0
 88 89  1  0
 88 87  1  0
 90 93  1  1
 90 91  1  0
 92 90  1  0
M  ISO  4  14 100  22 100  52 101  53 101
M  END
>  <TORSDO>  (64) 
F 18

>  <SCORE>  (64) 
-13.991

>  <name>  (64) 
64

>  <ligand_id>  (64) 
64

>  <original_smiles>  (64) 
[H]c1c([H])c([H])c2c(c1[H])C([H])([H])C([H])([H])C([H])([H])C2([H])N([H])C(=O)C1([H])N(C(=O)C([H])(N([H])C(=O)C([H])(N([H])C([H])([H])[H])C([H])([H])[H])C(C([H])([H])[H])(C([H])([H])[H])C([H])([H])[H])C([H])([H])c2c([H])c(OC([H])([H])C3([H])N(c4c([H])c(F)c(N([H])C(=O)N5C([H])([H])C([H])([H])C([H])([H])C([H])(n6nc(-c7c([H])c([H])c(Oc8c([H])c([H])c(F)c([H])c8F)c([H])c7[H])c(C(=O)N([H])[H])c6N([H])[H])C5([H])[H])c([H])c4F)C([H])([H])C([H])([H])C3([H])[H])c([H])c([H])c2C1([H])[H]

>  <smiles>  (64) 
[H]c1c([H])c([H])c2c(c1[H])C([H])([H])C([H])([H])C([H])([H])C2([H])N([H])C(=O)C1([H])N(C(=O)C([H])(N([H])C(=O)C([H])(N([H])C([H])([H])[H])C([H])([H])[H])C(C([H])([H])[H])(C([H])([H])[H])C([H])([H])[H])C([H])([H])c2c([H])c(OC([H])([H])C3([H])N(c4c([H])c(F)c(N([H])C(=O)N5C([H])([H])C([H])([H])C([H])([H])C([H])(n6nc(-c7c([H])c([H])c(Oc8c([H])c([H])c(F)c([H])c8F)c([H])c7[H])c(C(=O)N([H])[H])c6N([H])[H])C5([H])[H])c([H])c4F)C([H])([H])C([H])([H])C3([H])[H])c([H])c([H])c2C1([H])[H]

$$$$
65:0:0
     RDKit          3D

 92101  0  0  1  0  0  0  0  0999 V2000
  -30.7510  -14.7020   20.3110 C   0  0  0  0  0  0  0  0  0  0  0  0
  -30.5080  -12.4400   19.2940 C   0  0  0  0  0  2  0  0  0  0  0  0
  -29.5730  -12.4990   18.0670 C   0  0  0  0  0  2  0  0  0  0  0  0
  -28.0960  -12.3550   18.4890 C   0  0  0  0  0  2  0  0  0  0  0  0
  -27.7280  -13.2450   19.7090 C   0  0  0  0  0  3  0  0  0  0  0  0
  -28.7870  -13.0950   20.8220 C   0  0  0  0  0  2  0  0  0  0  0  0
  -30.0680  -13.5040   20.2290 N   0  0  0  0  0  0  0  0  0  0  0  0
  -31.9450  -14.7030   19.9890 O   0  0  0  0  0  0  0  0  0  0  0  0
  -28.4240  -20.1140   20.5290 C   0  0  0  0  0  3  0  0  0  0  0  0
  -30.3960  -21.0280   19.4890 C   0  0  0  0  0  3  0  0  0  0  0  0
  -28.9600  -18.7910   20.4250 C   0  0  0  0  0  0  0  0  0  0  0  0
  -30.2270  -18.5700   19.8620 C   0  0  0  0  0  0  0  0  0  0  0  0
  -29.1250  -21.2680   20.0670 C   0  0  0  0  0  0  0  0  0  0  0  0
  -30.9360  -19.7120   19.3910 C   0  0  0  0  0  3  0  0  0  0  0  0
  -28.1770  -17.5710   20.8800 C   0  0  0  0  0  3  0  0  0  0  0  0
  -30.8170  -17.1280   19.7620 C   0  0  0  0  0  3  0  0  0  0  0  0
  -29.0450  -16.3510   21.3040 C   0  0  0  0  0  3  0  0  0  0  0  0
  -30.0900  -15.9350   20.3370 N   0  0  0  0  0  0  0  0  0  0  0  0
  -32.4990  -19.5200   18.6750 Cl  0  0  0  0  0  0  0  0  0  0  0  0
  -25.3340  -13.8590   20.3990 C   0  0  0  0  0  0  0  0  0  0  0  0
  -24.2600  -13.0940   20.7620 C   0  0  0  0  0  0  0  0  0  0  0  0
  -24.7150  -11.7390   20.7410 C   0  0  0  0  0  0  0  0  0  0  0  0
  -26.3760  -12.9720   20.1850 N   0  0  0  0  0  0  0  0  0  0  0  0
  -26.0080  -11.6920   20.4470 N   0  0  0  0  0  0  0  0  0  0  0  0
  -23.9780  -10.4820   20.9280 C   0  0  0  0  0  0  0  0  0  0  0  0
  -24.3900   -9.5190   21.8740 C   0  0  0  0  0  3  0  0  0  0  0  0
  -23.6550   -8.3270   22.0500 C   0  0  0  0  0  3  0  0  0  0  0  0
  -22.4920   -8.0910   21.2770 C   0  0  0  0  0  0  0  0  0  0  0  0
  -22.1000   -9.0430   20.3200 C   0  0  0  0  0  3  0  0  0  0  0  0
  -22.8360  -10.2260   20.1430 C   0  0  0  0  0  3  0  0  0  0  0  0
  -21.7300   -6.9520   21.3620 O   0  0  0  0  0  0  0  0  0  0  0  0
  -21.6430   -6.2290   22.5240 C   0  0  0  0  0  0  0  0  0  0  0  0
  -21.1600   -6.7990   23.7220 C   0  0  0  0  0  3  0  0  0  0  0  0
  -21.0220   -6.0020   24.8760 C   0  0  0  0  0  3  0  0  0  0  0  0
  -21.3550   -4.6350   24.8320 C   0  0  0  0  0  0  0  0  0  0  0  0
  -21.8300   -4.0640   23.6390 C   0  0  0  0  0  3  0  0  0  0  0  0
  -21.9710   -4.8580   22.4870 C   0  0  0  0  0  0  0  0  0  0  0  0
  -22.4090   -4.2990   21.3340 F   0  0  0  0  0  0  0  0  0  0  0  0
  -21.2150   -3.8670   25.9370 F   0  0  0  0  0  0  0  0  0  0  0  0
  -22.8630  -13.5820   21.0180 C   0  0  0  0  0  0  0  0  0  0  0  0
  -22.1290  -12.9060   21.8940 N   0  0  0  0  0  0  0  0  0  0  0  0
  -22.4320  -14.5980   20.4760 O   0  0  0  0  0  0  0  0  0  0  0  0
  -22.4910  -12.0840   22.3550 H   0  0  0  0  0  0  0  0  0  0  0  0
  -21.1910  -13.2150   22.1090 H   0  0  0  0  0  0  0  0  0  0  0  0
  -25.5050  -15.2260   20.2100 N   0  0  0  0  0  0  0  0  0  0  0  0
  -24.7350  -15.8800   20.2900 H   0  0  0  0  0  0  0  0  0  0  0  0
  -26.3500  -15.6470   19.8480 H   0  0  0  0  0  0  0  0  0  0  0  0
  -28.5350  -22.5670   20.2150 N   0  0  0  0  0  0  0  0  0  0  0  0
  -27.6220  -22.5980   20.6640 H   0  0  0  0  0  0  0  0  0  0  0  0
  -29.0160  -23.8820   19.6820 C   0  0  0  0  0  2  0  0  0  0  0  0
  -28.2110  -25.1390   20.2400 C   0  0  0  0  0  2  0  0  0  0  0  0
  -28.3820  -26.4870   19.6510 O   0  0  0  0  0  0  0  0  0  0  0  0
  -24.7520  -31.7040   23.0750 C   0  0  0  0  0  0  0  0  0  0  0  0
  -27.2680  -27.3340   19.7040 C   0  0  0  0  0  0  0  0  0  0  0  0
  -23.4930  -30.3810   21.4140 C   0  0  0  0  0  3  0  0  0  0  0  0
  -24.8960  -28.9160   19.8590 C   0  0  0  0  0  0  0  0  0  0  0  0
  -26.0200  -30.7300   21.1500 C   0  0  0  0  0  2  0  0  0  0  0  0
  -26.0830  -29.3860   20.4360 C   0  0  0  0  0  0  0  0  0  0  0  0
  -27.2750  -28.6070   20.3490 C   0  0  0  0  0  3  0  0  0  0  0  0
  -26.0630  -26.9240   19.0910 C   0  0  0  0  0  3  0  0  0  0  0  0
  -24.8870  -27.6890   19.1770 C   0  0  0  0  0  3  0  0  0  0  0  0
  -23.6560  -29.7750   19.9960 C   0  0  0  0  0  2  0  0  0  0  0  0
  -24.7750  -30.9520   21.9370 N   0  0  0  0  0  0  0  0  0  0  0  0
  -23.6890  -31.9480   23.6640 O   0  0  0  0  0  0  0  0  0  0  0  0
  -22.8730  -29.3130   22.3470 C   0  0  0  0  0  0  0  0  0  0  0  0
  -21.5430  -29.1350   22.2630 N   0  0  0  0  0  0  0  0  0  0  0  0
  -23.5860  -28.6490   23.1050 O   0  0  0  0  0  0  0  0  0  0  0  0
  -21.0270  -29.7230   21.6250 H   0  0  0  0  0  0  0  0  0  0  0  0
  -18.1890  -27.9200   22.8550 C   0  0  0  0  0  0  0  0  0  0  0  0
  -20.7580  -28.1580   23.0180 C   0  0  0  0  0  3  0  0  0  0  0  0
  -20.8260  -26.7600   22.3590 C   0  0  0  0  0  2  0  0  0  0  0  0
  -19.6760  -26.4980   21.3810 C   0  0  0  0  0  2  0  0  0  0  0  0
  -18.3260  -26.6110   22.0970 C   0  0  0  0  0  2  0  0  0  0  0  0
  -19.3300  -28.6540   23.2730 C   0  0  0  0  0  0  0  0  0  0  0  0
  -19.1460  -29.8820   23.9450 C   0  0  0  0  0  3  0  0  0  0  0  0
  -17.8530  -30.3770   24.1990 C   0  0  0  0  0  3  0  0  0  0  0  0
  -16.7260  -29.6380   23.7960 C   0  0  0  0  0  3  0  0  0  0  0  0
  -16.8950  -28.4120   23.1290 C   0  0  0  0  0  3  0  0  0  0  0  0
  -26.0550  -32.3130   23.6780 C   0  0  0  0  0  3  0  0  0  0  0  0
  -25.7400  -33.6750   24.1310 N   0  0  0  0  0  0  0  0  0  0  0  0
  -26.0000  -34.7900   23.4330 C   0  0  0  0  0  0  0  0  0  0  0  0
  -26.5990  -34.7780   22.3550 O   0  0  0  0  0  0  0  0  0  0  0  0
  -25.2000  -33.7560   24.9790 H   0  0  0  0  0  0  0  0  0  0  0  0
  -24.2150  -36.5600   23.3290 C   0  0  0  0  0  1  0  0  0  0  0  0
  -25.5160  -36.1280   24.0240 C   0  0  0  0  0  3  0  0  0  0  0  0
  -27.6820  -37.0050   24.7780 C   0  0  0  0  0  1  0  0  0  0  0  0
  -26.5170  -37.2120   23.9210 N   0  0  0  0  0  0  0  0  0  0  0  0
  -26.1040  -38.1090   24.1600 H   0  0  0  0  0  0  0  0  0  0  0  0
  -26.6510  -31.4570   24.8630 C   0  0  1  0  0  0  0  0  0  0  0  0
  -25.6200  -31.1220   25.9660 C   0  0  0  0  0  1  0  0  0  0  0  0
  -27.2280  -30.1220   24.3370 C   0  0  0  0  0  1  0  0  0  0  0  0
  -27.8260  -32.2170   25.5190 C   0  0  0  0  0  1  0  0  0  0  0  0
  1 18  1  0
  2  7  1  0
  3  4  1  0
  3  2  1  0
  5  4  1  0
  5 23  1  0
  5  6  1  0
  7  1  1  0
  7  6  1  0
  8  1  2  0
 10 13  2  0
 11  9  2  0
 11 15  1  0
 12 11  1  0
 13 48  1  0
 13  9  1  0
 14 19  1  0
 14 10  1  0
 14 12  1  0
 15 17  2  0
 16 12  2  0
 16 18  1  0
 18 17  1  0
 20 21  2  0
 21 40  1  0
 22 21  1  0
 22 25  1  0
 23 20  1  0
 23 24  1  0
 24 22  2  0
 25 26  1  0
 26 27  2  0
 28 31  1  0
 28 27  1  0
 29 28  2  0
 30 29  1  0
 30 25  2  0
 31 32  1  0
 32 33  1  0
 33 34  2  0
 35 34  1  0
 35 39  1  0
 36 35  2  0
 37 32  2  0
 37 36  1  0
 38 37  1  0
 40 41  1  0
 41 44  1  0
 41 43  1  0
 42 40  2  0
 45 46  1  0
 45 20  1  0
 47 45  1  0
 48 49  1  0
 50 48  1  0
 50 51  1  0
 52 54  1  0
 52 51  1  0
 53 64  2  0
 54 59  1  0
 55 63  1  0
 55 65  1  0
 56 62  1  0
 56 58  1  0
 57 63  1  0
 58 57  1  0
 59 58  2  0
 60 61  1  0
 60 54  2  0
 61 56  2  0
 62 55  1  0
 63 53  1  0
 65 67  2  0
 66 65  1  0
 68 66  1  0
 69 78  2  0
 69 74  1  0
 70 66  1  0
 70 74  1  0
 71 70  1  0
 72 73  1  0
 72 71  1  0
 73 69  1  0
 74 75  2  0
 75 76  1  0
 77 76  2  0
 78 77  1  0
 79 53  1  0
 79 80  1  0
 79 89  1  0
 80 83  1  0
 81 85  1  0
 81 80  1  0
 82 81  2  0
 85 84  1  0
 87 85  1  0
 87 88  1  0
 87 86  1  0
 89 92  1  1
 89 90  1  0
 91 89  1  0
M  ISO  4   1 100  18 100  51 101  52 101
M  END
>  <TORSDO>  (65) 
F 18

>  <SCORE>  (65) 
-13.718

>  <name>  (65) 
65

>  <ligand_id>  (65) 
65

>  <original_smiles>  (65) 
[H]c1c([H])c([H])c2c(c1[H])C([H])([H])C([H])([H])C([H])([H])C2([H])N([H])C(=O)C1([H])N(C(=O)C([H])(N([H])C(=O)C([H])(N([H])C([H])([H])[H])C([H])([H])[H])C(C([H])([H])[H])(C([H])([H])[H])C([H])([H])[H])C([H])([H])c2c([H])c(OC([H])([H])C([H])([H])N([H])c3c([H])c(Cl)c4c(c3[H])C([H])([H])C([H])([H])N(C(=O)N3C([H])([H])C([H])([H])C([H])([H])C([H])(n5nc(-c6c([H])c([H])c(Oc7c([H])c([H])c(F)c([H])c7F)c([H])c6[H])c(C(=O)N([H])[H])c5N([H])[H])C3([H])[H])C4([H])[H])c([H])c([H])c2C1([H])[H]

>  <smiles>  (65) 
[H]c1c([H])c([H])c2c(c1[H])C([H])([H])C([H])([H])C([H])([H])C2([H])N([H])C(=O)C1([H])N(C(=O)C([H])(N([H])C(=O)C([H])(N([H])C([H])([H])[H])C([H])([H])[H])C(C([H])([H])[H])(C([H])([H])[H])C([H])([H])[H])C([H])([H])c2c([H])c(OC([H])([H])C([H])([H])N([H])c3c([H])c(Cl)c4c(c3[H])C([H])([H])C([H])([H])N(C(=O)N3C([H])([H])C([H])([H])C([H])([H])C([H])(n5nc(-c6c([H])c([H])c(Oc7c([H])c([H])c(F)c([H])c7F)c([H])c6[H])c(C(=O)N([H])[H])c5N([H])[H])C3([H])[H])C4([H])[H])c([H])c([H])c2C1([H])[H]

$$$$
66:0:0
     RDKit          3D

 93102  0  0  1  0  0  0  0  0999 V2000
  -28.7870  -22.4840   20.5680 C   0  0  0  0  0  0  0  0  0  0  0  0
  -30.4000  -23.7990   19.4330 C   0  0  0  0  0  2  0  0  0  0  0  0
  -30.8560  -22.3300   19.5930 C   0  0  0  0  0  2  0  0  0  0  0  0
  -29.2320  -23.9780   20.4050 C   0  0  0  0  0  3  0  0  0  0  0  0
  -29.7330  -21.5780   20.1610 N   0  0  0  0  0  0  0  0  0  0  0  0
  -27.6820  -22.1980   21.0390 O   0  0  0  0  0  0  0  0  0  0  0  0
  -30.9820  -19.3700   20.0460 C   0  0  0  0  0  3  0  0  0  0  0  0
  -31.0670  -17.9460   20.1330 C   0  0  0  0  0  3  0  0  0  0  0  0
  -28.6470  -19.2880   20.5880 C   0  0  0  0  0  3  0  0  0  0  0  0
  -29.7730  -20.0990   20.2670 C   0  0  0  0  0  0  0  0  0  0  0  0
  -29.9330  -17.1540   20.4500 C   0  0  0  0  0  0  0  0  0  0  0  0
  -28.7270  -17.8680   20.6760 C   0  0  0  0  0  0  0  0  0  0  0  0
  -27.6100  -17.1630   20.9780 F   0  0  0  0  0  0  0  0  0  0  0  0
  -30.6560  -14.6830   20.0650 C   0  0  0  0  0  0  0  0  0  0  0  0
  -30.3860  -12.4880   18.9260 C   0  0  0  0  0  2  0  0  0  0  0  0
  -29.3720  -12.6650   17.7730 C   0  0  0  0  0  2  0  0  0  0  0  0
  -27.9250  -12.4950   18.2770 C   0  0  0  0  0  2  0  0  0  0  0  0
  -27.6410  -13.3090   19.5680 C   0  0  0  0  0  3  0  0  0  0  0  0
  -28.7600  -13.0970   20.6140 C   0  0  0  0  0  2  0  0  0  0  0  0
  -30.0380  -13.4610   19.9800 N   0  0  0  0  0  0  0  0  0  0  0  0
  -31.7830  -14.8660   19.5950 O   0  0  0  0  0  0  0  0  0  0  0  0
  -29.8850  -15.6980   20.5600 N   0  0  0  0  0  0  0  0  0  0  0  0
  -29.0190  -15.3670   20.9590 H   0  0  0  0  0  0  0  0  0  0  0  0
  -25.2870  -13.8880   20.4230 C   0  0  0  0  0  0  0  0  0  0  0  0
  -24.2390  -13.1040   20.8240 C   0  0  0  0  0  0  0  0  0  0  0  0
  -24.6990  -11.7550   20.7340 C   0  0  0  0  0  0  0  0  0  0  0  0
  -26.3190  -13.0150   20.1140 N   0  0  0  0  0  0  0  0  0  0  0  0
  -25.9710  -11.7250   20.3590 N   0  0  0  0  0  0  0  0  0  0  0  0
  -23.9820  -10.4870   20.9280 C   0  0  0  0  0  0  0  0  0  0  0  0
  -24.4170   -9.5300   21.8710 C   0  0  0  0  0  3  0  0  0  0  0  0
  -23.6990   -8.3280   22.0520 C   0  0  0  0  0  3  0  0  0  0  0  0
  -22.5340   -8.0750   21.2890 C   0  0  0  0  0  0  0  0  0  0  0  0
  -22.1200   -9.0210   20.3360 C   0  0  0  0  0  3  0  0  0  0  0  0
  -22.8370  -10.2150   20.1540 C   0  0  0  0  0  3  0  0  0  0  0  0
  -21.7900   -6.9240   21.3800 O   0  0  0  0  0  0  0  0  0  0  0  0
  -21.6690   -6.2350   22.5600 C   0  0  0  0  0  0  0  0  0  0  0  0
  -21.1450   -6.8370   23.7240 C   0  0  0  0  0  3  0  0  0  0  0  0
  -20.9740   -6.0730   24.8960 C   0  0  0  0  0  3  0  0  0  0  0  0
  -21.3160   -4.7080   24.9030 C   0  0  0  0  0  0  0  0  0  0  0  0
  -21.8320   -4.1050   23.7420 C   0  0  0  0  0  3  0  0  0  0  0  0
  -22.0050   -4.8650   22.5740 C   0  0  0  0  0  0  0  0  0  0  0  0
  -22.4830   -4.2750   21.4520 F   0  0  0  0  0  0  0  0  0  0  0  0
  -21.1440   -3.9710   26.0260 F   0  0  0  0  0  0  0  0  0  0  0  0
  -22.8590  -13.5740   21.1840 C   0  0  0  0  0  0  0  0  0  0  0  0
  -22.1800  -12.8550   22.0710 N   0  0  0  0  0  0  0  0  0  0  0  0
  -22.3930  -14.6110   20.7150 O   0  0  0  0  0  0  0  0  0  0  0  0
  -22.5700  -12.0160   22.4720 H   0  0  0  0  0  0  0  0  0  0  0  0
  -21.2560  -13.1510   22.3550 H   0  0  0  0  0  0  0  0  0  0  0  0
  -25.4410  -15.2630   20.2780 N   0  0  0  0  0  0  0  0  0  0  0  0
  -24.6910  -15.9120   20.4890 H   0  0  0  0  0  0  0  0  0  0  0  0
  -26.3010  -15.7290   20.0220 H   0  0  0  0  0  0  0  0  0  0  0  0
  -28.1380  -25.0570   19.9860 C   0  0  0  0  0  2  0  0  0  0  0  0
  -28.3790  -26.5090   20.1810 O   0  0  0  0  0  0  0  0  0  0  0  0
  -24.6410  -31.8690   23.2490 C   0  0  0  0  0  0  0  0  0  0  0  0
  -27.2620  -27.3610   20.1300 C   0  0  0  0  0  0  0  0  0  0  0  0
  -23.4400  -30.4940   21.5870 C   0  0  0  0  0  3  0  0  0  0  0  0
  -24.8940  -28.9700   20.1400 C   0  0  0  0  0  0  0  0  0  0  0  0
  -25.9810  -30.8170   21.4140 C   0  0  0  0  0  2  0  0  0  0  0  0
  -26.0620  -29.4500   20.7450 C   0  0  0  0  0  0  0  0  0  0  0  0
  -27.2490  -28.6580   20.7310 C   0  0  0  0  0  3  0  0  0  0  0  0
  -26.0670  -26.9380   19.4980 C   0  0  0  0  0  3  0  0  0  0  0  0
  -24.8990  -27.7190   19.5080 C   0  0  0  0  0  3  0  0  0  0  0  0
  -23.6580  -29.8410   20.1970 C   0  0  0  0  0  2  0  0  0  0  0  0
  -24.7070  -31.0760   22.1400 N   0  0  0  0  0  0  0  0  0  0  0  0
  -23.5570  -32.1390   23.7850 O   0  0  0  0  0  0  0  0  0  0  0  0
  -22.7770  -29.4620   22.5290 C   0  0  0  0  0  0  0  0  0  0  0  0
  -21.4520  -29.2850   22.3950 N   0  0  0  0  0  0  0  0  0  0  0  0
  -23.4540  -28.8250   23.3410 O   0  0  0  0  0  0  0  0  0  0  0  0
  -20.9650  -29.8510   21.7140 H   0  0  0  0  0  0  0  0  0  0  0  0
  -18.0700  -28.0970   22.8790 C   0  0  0  0  0  0  0  0  0  0  0  0
  -20.6300  -28.3370   23.1480 C   0  0  0  0  0  3  0  0  0  0  0  0
  -20.7230  -26.9160   22.5470 C   0  0  0  0  0  2  0  0  0  0  0  0
  -19.6170  -26.6170   21.5290 C   0  0  0  0  0  2  0  0  0  0  0  0
  -18.2370  -26.7580   22.1780 C   0  0  0  0  0  2  0  0  0  0  0  0
  -19.1930  -28.8450   23.3200 C   0  0  0  0  0  0  0  0  0  0  0  0
  -18.9820  -30.0980   23.9340 C   0  0  0  0  0  3  0  0  0  0  0  0
  -17.6800  -30.6040   24.1120 C   0  0  0  0  0  3  0  0  0  0  0  0
  -16.5710  -29.8520   23.6870 C   0  0  0  0  0  3  0  0  0  0  0  0
  -16.7660  -28.6000   23.0750 C   0  0  0  0  0  3  0  0  0  0  0  0
  -25.9240  -32.4900   23.8820 C   0  0  0  0  0  3  0  0  0  0  0  0
  -25.6190  -33.8890   24.2150 N   0  0  0  0  0  0  0  0  0  0  0  0
  -25.9440  -34.9410   23.4520 C   0  0  0  0  0  0  0  0  0  0  0  0
  -26.6020  -34.8370   22.4130 O   0  0  0  0  0  0  0  0  0  0  0  0
  -25.0360  -34.0460   25.0240 H   0  0  0  0  0  0  0  0  0  0  0  0
  -24.2030  -36.7280   23.1310 C   0  0  0  0  0  1  0  0  0  0  0  0
  -25.4640  -36.3300   23.9150 C   0  0  0  0  0  3  0  0  0  0  0  0
  -27.6120  -37.2270   24.6960 C   0  0  0  0  0  1  0  0  0  0  0  0
  -26.4910  -37.3860   23.7740 N   0  0  0  0  0  0  0  0  0  0  0  0
  -26.0850  -38.3060   23.9250 H   0  0  0  0  0  0  0  0  0  0  0  0
  -26.4250  -31.7120   25.1600 C   0  0  1  0  0  0  0  0  0  0  0  0
  -25.3220  -31.4760   26.2170 C   0  0  0  0  0  1  0  0  0  0  0  0
  -27.0070  -30.3350   24.7690 C   0  0  0  0  0  1  0  0  0  0  0  0
  -27.5720  -32.5000   25.8360 C   0  0  0  0  0  1  0  0  0  0  0  0
  1  6  2  0
  2  3  1  0
  2  4  1  0
  3  5  1  0
  4 52  1  0
  4  1  1  0
  5 10  1  0
  5  1  1  0
  7  8  2  0
  7 10  1  0
  8 11  1  0
  9 12  1  0
 10  9  2  0
 11 22  1  0
 11 12  2  0
 12 13  1  0
 14 22  1  0
 15 20  1  0
 16 17  1  0
 16 15  1  0
 18 17  1  0
 18 27  1  0
 18 19  1  0
 20 14  1  0
 20 19  1  0
 21 14  2  0
 22 23  1  0
 24 25  2  0
 25 44  1  0
 26 25  1  0
 26 29  1  0
 27 28  1  0
 27 24  1  0
 28 26  2  0
 29 30  1  0
 30 31  2  0
 32 35  1  0
 32 31  1  0
 33 32  2  0
 34 33  1  0
 34 29  2  0
 35 36  1  0
 36 41  2  0
 36 37  1  0
 37 38  2  0
 38 39  1  0
 39 43  1  0
 40 39  2  0
 41 40  1  0
 42 41  1  0
 44 45  1  0
 45 48  1  0
 45 47  1  0
 46 44  2  0
 49 24  1  0
 49 50  1  0
 51 49  1  0
 52 53  1  0
 54 65  2  0
 55 53  1  0
 55 60  1  0
 56 64  1  0
 56 66  1  0
 57 63  1  0
 57 59  1  0
 58 64  1  0
 59 58  1  0
 60 59  2  0
 61 62  1  0
 61 55  2  0
 62 57  2  0
 63 56  1  0
 64 54  1  0
 66 68  2  0
 67 66  1  0
 69 67  1  0
 70 79  2  0
 70 75  1  0
 71 67  1  0
 71 75  1  0
 72 71  1  0
 73 74  1  0
 73 72  1  0
 74 70  1  0
 75 76  2  0
 76 77  1  0
 78 77  2  0
 79 78  1  0
 80 54  1  0
 80 81  1  0
 80 90  1  0
 81 84  1  0
 82 86  1  0
 82 81  1  0
 83 82  2  0
 86 85  1  0
 88 86  1  0
 88 89  1  0
 88 87  1  0
 90 93  1  1
 90 91  1  0
 92 90  1  0
M  ISO  4  14 100  22 100  52 101  53 101
M  END
>  <TORSDO>  (66) 
F 18

>  <SCORE>  (66) 
-14.550

>  <name>  (66) 
66

>  <ligand_id>  (66) 
66

>  <original_smiles>  (66) 
[H]c1c([H])c([H])c2c(c1[H])C([H])([H])C([H])([H])C([H])([H])C2([H])N([H])C(=O)C1([H])N(C(=O)C([H])(N([H])C(=O)C([H])(N([H])C([H])([H])[H])C([H])([H])[H])C(C([H])([H])[H])(C([H])([H])[H])C([H])([H])[H])C([H])([H])c2c([H])c(OC([H])([H])C3([H])C(=O)N(c4c([H])c([H])c(N([H])C(=O)N5C([H])([H])C([H])([H])C([H])([H])C([H])(n6nc(-c7c([H])c([H])c(Oc8c([H])c([H])c(F)c([H])c8F)c([H])c7[H])c(C(=O)N([H])[H])c6N([H])[H])C5([H])[H])c(F)c4[H])C([H])([H])C3([H])[H])c([H])c([H])c2C1([H])[H]

>  <smiles>  (66) 
[H]c1c([H])c([H])c2c(c1[H])C([H])([H])C([H])([H])C([H])([H])C2([H])N([H])C(=O)C1([H])N(C(=O)C([H])(N([H])C(=O)C([H])(N([H])C([H])([H])[H])C([H])([H])[H])C(C([H])([H])[H])(C([H])([H])[H])C([H])([H])[H])C([H])([H])c2c([H])c(OC([H])([H])C3([H])C(=O)N(c4c([H])c([H])c(N([H])C(=O)N5C([H])([H])C([H])([H])C([H])([H])C([H])(n6nc(-c7c([H])c([H])c(Oc8c([H])c([H])c(F)c([H])c8F)c([H])c7[H])c(C(=O)N([H])[H])c6N([H])[H])C5([H])[H])c(F)c4[H])C([H])([H])C3([H])[H])c([H])c([H])c2C1([H])[H]

$$$$
67:0:0
     RDKit          3D

 92101  0  0  1  0  0  0  0  0999 V2000
  -31.3820  -14.9470   19.9110 C   0  0  0  0  0  0  0  0  0  0  0  0
  -31.0510  -12.6440   18.8940 C   0  0  0  0  0  2  0  0  0  0  0  0
  -30.0420  -12.7000   17.7240 C   0  0  0  0  0  2  0  0  0  0  0  0
  -28.5970  -12.5640   18.2410 C   0  0  0  0  0  2  0  0  0  0  0  0
  -28.3270  -13.4680   19.4720 C   0  0  0  0  0  3  0  0  0  0  0  0
  -29.4460  -13.3530   20.5250 C   0  0  0  0  0  2  0  0  0  0  0  0
  -30.7050  -13.7260   19.8640 N   0  0  0  0  0  0  0  0  0  0  0  0
  -32.5100  -14.9770   19.4060 O   0  0  0  0  0  0  0  0  0  0  0  0
  -30.5440  -19.9370   21.0120 C   0  0  0  0  0  3  0  0  0  0  0  0
  -30.2240  -19.6590   18.6800 C   0  0  0  0  0  3  0  0  0  0  0  0
  -30.7230  -18.4920   21.1040 C   0  0  0  0  0  0  0  0  0  0  0  0
  -30.4300  -18.2160   18.7750 C   0  0  0  0  0  0  0  0  0  0  0  0
  -30.6880  -17.5770   20.0260 C   0  0  0  0  0  0  0  0  0  0  0  0
  -30.2560  -20.6060   19.7720 C   0  0  0  0  0  0  0  0  0  0  0  0
  -30.7590  -16.2050   21.9390 C   0  0  0  0  0  2  0  0  0  0  0  0
  -30.9590  -17.6970   22.3640 C   0  0  0  0  0  3  0  0  0  0  0  0
  -30.3180  -17.3640   17.5260 C   0  0  0  0  0  1  0  0  0  0  0  0
  -30.0640  -18.1130   23.5400 C   0  0  0  0  0  1  0  0  0  0  0  0
  -30.7970  -16.1270   20.4630 N   0  0  0  0  0  0  0  0  0  0  0  0
  -26.0510  -14.1650   20.4150 C   0  0  0  0  0  0  0  0  0  0  0  0
  -24.9610  -13.4440   20.8140 C   0  0  0  0  0  0  0  0  0  0  0  0
  -25.3190  -12.0690   20.6670 C   0  0  0  0  0  0  0  0  0  0  0  0
  -27.0070  -13.2330   20.0450 N   0  0  0  0  0  0  0  0  0  0  0  0
  -26.5790  -11.9620   20.2600 N   0  0  0  0  0  0  0  0  0  0  0  0
  -24.5150  -10.8510   20.8360 C   0  0  0  0  0  0  0  0  0  0  0  0
  -24.9020   -9.8240   21.7250 C   0  0  0  0  0  3  0  0  0  0  0  0
  -24.1010   -8.6730   21.8830 C   0  0  0  0  0  3  0  0  0  0  0  0
  -22.8970   -8.5400   21.1520 C   0  0  0  0  0  0  0  0  0  0  0  0
  -22.5280   -9.5540   20.2500 C   0  0  0  0  0  3  0  0  0  0  0  0
  -23.3290  -10.6960   20.0900 C   0  0  0  0  0  3  0  0  0  0  0  0
  -22.0680   -7.4460   21.2210 O   0  0  0  0  0  0  0  0  0  0  0  0
  -21.9710   -6.6880   22.3610 C   0  0  0  0  0  0  0  0  0  0  0  0
  -21.5180   -7.2340   23.5810 C   0  0  0  0  0  3  0  0  0  0  0  0
  -21.3670   -6.4040   24.7110 C   0  0  0  0  0  3  0  0  0  0  0  0
  -21.6580   -5.0300   24.6200 C   0  0  0  0  0  0  0  0  0  0  0  0
  -22.1030   -4.4840   23.4030 C   0  0  0  0  0  3  0  0  0  0  0  0
  -22.2560   -5.3100   22.2760 C   0  0  0  0  0  0  0  0  0  0  0  0
  -22.6650   -4.7750   21.1010 F   0  0  0  0  0  0  0  0  0  0  0  0
  -21.5050   -4.2310   25.7010 F   0  0  0  0  0  0  0  0  0  0  0  0
  -23.6250  -13.9990   21.2170 C   0  0  0  0  0  0  0  0  0  0  0  0
  -22.9300  -13.3250   22.1260 N   0  0  0  0  0  0  0  0  0  0  0  0
  -23.2130  -15.0650   20.7610 O   0  0  0  0  0  0  0  0  0  0  0  0
  -23.2770  -12.4610   22.5160 H   0  0  0  0  0  0  0  0  0  0  0  0
  -22.0360  -13.6780   22.4370 H   0  0  0  0  0  0  0  0  0  0  0  0
  -26.3070  -15.5290   20.3130 N   0  0  0  0  0  0  0  0  0  0  0  0
  -25.6070  -16.2300   20.5320 H   0  0  0  0  0  0  0  0  0  0  0  0
  -27.1750  -15.9280   19.9810 H   0  0  0  0  0  0  0  0  0  0  0  0
  -29.9390  -22.0430   19.5350 N   0  0  0  0  0  0  0  0  0  0  0  0
  -29.8090  -22.2400   18.5450 H   0  0  0  0  0  0  0  0  0  0  0  0
  -30.0020  -23.3760   20.3400 C   0  0  0  0  0  3  0  0  0  0  0  0
  -29.0600  -24.7110   19.9110 C   0  0  0  0  0  3  0  0  0  0  0  0
  -29.0880  -26.1630   20.4740 O   0  0  0  0  0  0  0  0  0  0  0  0
  -24.8630  -31.4830   23.3070 C   0  0  0  0  0  0  0  0  0  0  0  0
  -27.9840  -27.0800   20.3290 C   0  0  0  0  0  0  0  0  0  0  0  0
  -23.8960  -30.0900   21.5180 C   0  0  0  0  0  3  0  0  0  0  0  0
  -25.5580  -28.6740   20.1610 C   0  0  0  0  0  0  0  0  0  0  0  0
  -26.4320  -30.5190   21.5860 C   0  0  0  0  0  2  0  0  0  0  0  0
  -26.6490  -29.1650   20.8900 C   0  0  0  0  0  0  0  0  0  0  0  0
  -27.8610  -28.3830   20.9600 C   0  0  0  0  0  3  0  0  0  0  0  0
  -26.8680  -26.6970   19.5520 C   0  0  0  0  0  3  0  0  0  0  0  0
  -25.6810  -27.4560   19.4780 C   0  0  0  0  0  3  0  0  0  0  0  0
  -24.2750  -29.4900   20.1380 C   0  0  0  0  0  2  0  0  0  0  0  0
  -25.0780  -30.7180   22.1940 N   0  0  0  0  0  0  0  0  0  0  0  0
  -23.7200  -31.6780   23.7500 O   0  0  0  0  0  0  0  0  0  0  0  0
  -23.2070  -29.0020   22.3780 C   0  0  0  0  0  0  0  0  0  0  0  0
  -21.8980  -28.7840   22.1570 N   0  0  0  0  0  0  0  0  0  0  0  0
  -23.8530  -28.3590   23.2090 O   0  0  0  0  0  0  0  0  0  0  0  0
  -21.4320  -29.3570   21.4670 H   0  0  0  0  0  0  0  0  0  0  0  0
  -18.5340  -27.4650   22.4250 C   0  0  0  0  0  0  0  0  0  0  0  0
  -21.0720  -27.7720   22.8220 C   0  0  0  0  0  3  0  0  0  0  0  0
  -21.2390  -26.3880   22.1520 C   0  0  0  0  0  2  0  0  0  0  0  0
  -20.1900  -26.1120   21.0690 C   0  0  0  0  0  2  0  0  0  0  0  0
  -18.7780  -26.1740   21.6610 C   0  0  0  0  0  2  0  0  0  0  0  0
  -19.6120  -28.2230   22.9560 C   0  0  0  0  0  0  0  0  0  0  0  0
  -19.3310  -29.4320   23.6290 C   0  0  0  0  0  3  0  0  0  0  0  0
  -18.0050  -29.8820   23.7770 C   0  0  0  0  0  3  0  0  0  0  0  0
  -16.9420  -29.1210   23.2610 C   0  0  0  0  0  3  0  0  0  0  0  0
  -17.2080  -27.9140   22.5900 C   0  0  0  0  0  3  0  0  0  0  0  0
  -26.0400  -32.1670   24.0670 C   0  0  0  0  0  3  0  0  0  0  0  0
  -25.6650  -33.5700   24.3040 N   0  0  0  0  0  0  0  0  0  0  0  0
  -26.0400  -34.6030   23.5380 C   0  0  0  0  0  0  0  0  0  0  0  0
  -26.8060  -34.4770   22.5780 O   0  0  0  0  0  0  0  0  0  0  0  0
  -24.9940  -33.7390   25.0390 H   0  0  0  0  0  0  0  0  0  0  0  0
  -24.3080  -36.3340   22.9610 C   0  0  0  0  0  1  0  0  0  0  0  0
  -25.4820  -35.9960   23.8940 C   0  0  0  0  0  3  0  0  0  0  0  0
  -27.5060  -36.9810   24.8760 C   0  0  0  0  0  1  0  0  0  0  0  0
  -26.4960  -37.0720   23.8260 N   0  0  0  0  0  0  0  0  0  0  0  0
  -26.0550  -37.9860   23.8880 H   0  0  0  0  0  0  0  0  0  0  0  0
  -26.3970  -31.4550   25.4290 C   0  0  1  0  0  0  0  0  0  0  0  0
  -25.1770  -31.2410   26.3570 C   0  0  0  0  0  1  0  0  0  0  0  0
  -27.0400  -30.0730   25.1770 C   0  0  0  0  0  1  0  0  0  0  0  0
  -27.4420  -32.2940   26.2000 C   0  0  0  0  0  1  0  0  0  0  0  0
  1 19  1  0
  2  7  1  0
  3  4  1  0
  3  2  1  0
  5  4  1  0
  5 23  1  0
  5  6  1  0
  7  1  1  0
  7  6  1  0
  8  1  2  0
  9 11  1  0
 10 12  2  0
 10 14  1  0
 11 16  1  0
 12 13  1  0
 13 19  1  0
 13 11  2  0
 14  9  2  0
 15 16  1  0
 16 18  1  0
 17 12  1  0
 19 15  1  0
 20 21  2  0
 21 40  1  0
 22 21  1  0
 22 25  1  0
 23 24  1  0
 23 20  1  0
 24 22  2  0
 25 26  1  0
 26 27  2  0
 28 31  1  0
 28 27  1  0
 29 28  2  0
 30 29  1  0
 30 25  2  0
 31 32  1  0
 32 33  1  0
 33 34  2  0
 35 34  1  0
 35 39  1  0
 36 35  2  0
 37 32  2  0
 37 36  1  0
 38 37  1  0
 40 41  1  0
 41 44  1  0
 41 43  1  0
 42 40  2  0
 45 20  1  0
 45 46  1  0
 47 45  1  0
 48 14  1  0
 48 50  1  0
 49 48  1  0
 51 50  2  0
 51 52  1  0
 53 64  2  0
 54 52  1  0
 54 59  1  0
 55 63  1  0
 55 65  1  0
 56 58  1  0
 57 63  1  0
 58 59  2  0
 58 57  1  0
 60 54  2  0
 61 60  1  0
 61 56  2  0
 62 56  1  0
 62 55  1  0
 63 53  1  0
 65 67  2  0
 66 65  1  0
 68 66  1  0
 69 78  2  0
 69 74  1  0
 70 66  1  0
 70 74  1  0
 71 70  1  0
 72 73  1  0
 72 71  1  0
 73 69  1  0
 74 75  2  0
 75 76  1  0
 77 76  2  0
 78 77  1  0
 79 53  1  0
 79 80  1  0
 79 89  1  0
 80 83  1  0
 81 85  1  0
 81 80  1  0
 82 81  2  0
 85 84  1  0
 87 88  1  0
 87 85  1  0
 87 86  1  0
 89 92  1  1
 89 90  1  0
 91 89  1  0
M  ISO  4   1 100  19 100  51 101  52 101
M  END
>  <TORSDO>  (67) 
F 18

>  <SCORE>  (67) 
-11.282

>  <name>  (67) 
67

>  <ligand_id>  (67) 
67

>  <original_smiles>  (67) 
[H]c1c([H])c([H])c2c(c1[H])C([H])([H])C([H])([H])C([H])([H])C2([H])N([H])C(=O)C1([H])N(C(=O)C([H])(N([H])C(=O)C([H])(N([H])C([H])([H])[H])C([H])([H])[H])C(C([H])([H])[H])(C([H])([H])[H])C([H])([H])[H])C([H])([H])c2c([H])c(OC([H])([H])C([H])([H])N([H])c3c([H])c(C([H])([H])[H])c4c(c3[H])C([H])(C([H])([H])[H])C([H])([H])N4C(=O)N3C([H])([H])C([H])([H])C([H])([H])C([H])(n4nc(-c5c([H])c([H])c(Oc6c([H])c([H])c(F)c([H])c6F)c([H])c5[H])c(C(=O)N([H])[H])c4N([H])[H])C3([H])[H])c([H])c([H])c2C1([H])[H]

>  <smiles>  (67) 
[H]c1c([H])c([H])c2c(c1[H])C([H])([H])C([H])([H])C([H])([H])C2([H])N([H])C(=O)C1([H])N(C(=O)C([H])(N([H])C(=O)C([H])(N([H])C([H])([H])[H])C([H])([H])[H])C(C([H])([H])[H])(C([H])([H])[H])C([H])([H])[H])C([H])([H])c2c([H])c(OC([H])([H])C([H])([H])N([H])c3c([H])c(C([H])([H])[H])c4c(c3[H])C([H])(C([H])([H])[H])C([H])([H])N4C(=O)N3C([H])([H])C([H])([H])C([H])([H])C([H])(n4nc(-c5c([H])c([H])c(Oc6c([H])c([H])c(F)c([H])c6F)c([H])c5[H])c(C(=O)N([H])[H])c4N([H])[H])C3([H])[H])c([H])c([H])c2C1([H])[H]

$$$$
68:0:0
     RDKit          3D

 94103  0  0  1  0  0  0  0  0999 V2000
  -30.0060  -19.6920   18.2120 C   0  0  0  0  0  3  0  0  0  0  0  0
  -30.1220  -18.4210   18.8340 C   0  0  0  0  0  3  0  0  0  0  0  0
  -29.3350  -19.5250   20.8240 C   0  0  0  0  0  3  0  0  0  0  0  0
  -29.2390  -20.9610   20.2220 C   0  0  0  0  0  0  0  0  0  0  0  0
  -29.5770  -20.9000   18.8450 C   0  0  0  0  0  0  0  0  0  0  0  0
  -29.7710  -18.1760   20.1760 C   0  0  0  0  0  0  0  0  0  0  0  0
  -30.4850  -15.3240   20.2850 C   0  0  0  0  0  0  0  0  0  0  0  0
  -30.4180  -12.8850   19.3690 C   0  0  0  0  0  2  0  0  0  0  0  0
  -29.4840  -12.7300   18.1410 C   0  0  0  0  0  2  0  0  0  0  0  0
  -28.0360  -12.4680   18.5860 C   0  0  0  0  0  2  0  0  0  0  0  0
  -27.6160  -13.3970   19.7540 C   0  0  0  0  0  3  0  0  0  0  0  0
  -28.6810  -13.4970   20.8700 C   0  0  0  0  0  2  0  0  0  0  0  0
  -29.9140  -14.0110   20.2500 N   0  0  0  0  0  0  0  0  0  0  0  0
  -31.6770  -15.3130   19.9390 O   0  0  0  0  0  0  0  0  0  0  0  0
  -29.7790  -16.6030   20.6140 N   0  0  0  0  0  0  0  0  0  0  0  0
  -28.9680  -16.3830   21.1740 H   0  0  0  0  0  0  0  0  0  0  0  0
  -25.2610  -13.9620   20.5440 C   0  0  0  0  0  0  0  0  0  0  0  0
  -24.1950  -13.1900   20.9090 C   0  0  0  0  0  0  0  0  0  0  0  0
  -24.6450  -11.8350   20.8470 C   0  0  0  0  0  0  0  0  0  0  0  0
  -26.2910  -13.0810   20.2700 N   0  0  0  0  0  0  0  0  0  0  0  0
  -25.9330  -11.7930   20.5200 N   0  0  0  0  0  0  0  0  0  0  0  0
  -23.9050  -10.5780   21.0210 C   0  0  0  0  0  0  0  0  0  0  0  0
  -24.3130   -9.6000   21.9550 C   0  0  0  0  0  3  0  0  0  0  0  0
  -23.5690   -8.4120   22.1200 C   0  0  0  0  0  3  0  0  0  0  0  0
  -22.4030   -8.1910   21.3500 C   0  0  0  0  0  0  0  0  0  0  0  0
  -22.0130   -9.1570   20.4050 C   0  0  0  0  0  3  0  0  0  0  0  0
  -22.7580  -10.3370   20.2390 C   0  0  0  0  0  3  0  0  0  0  0  0
  -21.6340   -7.0550   21.4220 O   0  0  0  0  0  0  0  0  0  0  0  0
  -21.5630   -6.3060   22.5700 C   0  0  0  0  0  0  0  0  0  0  0  0
  -21.0910   -6.8470   23.7860 C   0  0  0  0  0  3  0  0  0  0  0  0
  -20.9690   -6.0240   24.9230 C   0  0  0  0  0  3  0  0  0  0  0  0
  -21.3100   -4.6600   24.8440 C   0  0  0  0  0  0  0  0  0  0  0  0
  -21.7760   -4.1190   23.6340 C   0  0  0  0  0  3  0  0  0  0  0  0
  -21.8990   -4.9380   22.4990 C   0  0  0  0  0  0  0  0  0  0  0  0
  -22.3280   -4.4070   21.3290 F   0  0  0  0  0  0  0  0  0  0  0  0
  -21.1860   -3.8670   25.9340 F   0  0  0  0  0  0  0  0  0  0  0  0
  -22.8060  -13.6790   21.1970 C   0  0  0  0  0  0  0  0  0  0  0  0
  -22.0700  -12.9720   22.0490 N   0  0  0  0  0  0  0  0  0  0  0  0
  -22.3820  -14.7230   20.7050 O   0  0  0  0  0  0  0  0  0  0  0  0
  -22.4270  -12.1280   22.4720 H   0  0  0  0  0  0  0  0  0  0  0  0
  -21.1380  -13.2830   22.2840 H   0  0  0  0  0  0  0  0  0  0  0  0
  -25.4350  -15.3340   20.3920 N   0  0  0  0  0  0  0  0  0  0  0  0
  -24.6760  -15.9910   20.5370 H   0  0  0  0  0  0  0  0  0  0  0  0
  -26.2750  -15.7740   20.0390 H   0  0  0  0  0  0  0  0  0  0  0  0
  -28.5570  -23.2640   16.2420 C   0  0  0  0  0  2  0  0  0  0  0  0
  -30.0690  -23.5150   16.3010 C   0  0  0  0  0  2  0  0  0  0  0  0
  -28.3190  -22.0730   17.1710 C   0  0  0  0  0  2  0  0  0  0  0  0
  -30.6120  -22.5060   17.3180 C   0  0  0  0  0  2  0  0  0  0  0  0
  -29.4530  -22.0710   18.0850 N   0  0  0  0  0  0  0  0  0  0  0  0
  -28.9240  -22.5730   20.9020 C   0  0  1  0  0  0  0  0  0  0  0  0
  -28.1490  -22.3080   21.9540 F   0  0  0  0  0  0  0  0  0  0  0  0
  -30.1210  -22.9050   21.3840 F   0  0  0  0  0  0  0  0  0  0  0  0
  -28.2830  -24.1820   20.2840 C   0  0  0  0  0  2  0  0  0  0  0  0
  -28.2780  -25.7820   20.7810 O   0  0  0  0  0  0  0  0  0  0  0  0
  -24.6290  -31.8710   23.4020 C   0  0  0  0  0  0  0  0  0  0  0  0
  -27.2830  -26.8920   20.6020 C   0  0  0  0  0  0  0  0  0  0  0  0
  -23.4980  -30.4410   21.7480 C   0  0  0  0  0  3  0  0  0  0  0  0
  -24.9970  -28.7980   20.4160 C   0  0  0  0  0  0  0  0  0  0  0  0
  -26.0690  -30.6340   21.7030 C   0  0  0  0  0  2  0  0  0  0  0  0
  -26.1590  -29.2060   21.0810 C   0  0  0  0  0  0  0  0  0  0  0  0
  -27.2920  -28.2730   21.1510 C   0  0  0  0  0  3  0  0  0  0  0  0
  -26.0980  -26.6450   19.8720 C   0  0  0  0  0  3  0  0  0  0  0  0
  -24.9960  -27.5390   19.7900 C   0  0  0  0  0  3  0  0  0  0  0  0
  -23.7800  -29.7240   20.3970 C   0  0  0  0  0  2  0  0  0  0  0  0
  -24.7530  -31.0120   22.3370 N   0  0  0  0  0  0  0  0  0  0  0  0
  -23.5210  -32.1770   23.8710 O   0  0  0  0  0  0  0  0  0  0  0  0
  -22.7600  -29.4720   22.7100 C   0  0  0  0  0  0  0  0  0  0  0  0
  -21.4390  -29.2930   22.5240 N   0  0  0  0  0  0  0  0  0  0  0  0
  -23.3860  -28.8790   23.5920 O   0  0  0  0  0  0  0  0  0  0  0  0
  -20.9890  -29.8200   21.7890 H   0  0  0  0  0  0  0  0  0  0  0  0
  -18.0430  -28.0690   22.9040 C   0  0  0  0  0  0  0  0  0  0  0  0
  -20.5850  -28.3710   23.2820 C   0  0  0  0  0  3  0  0  0  0  0  0
  -20.7270  -26.9240   22.7580 C   0  0  0  0  0  2  0  0  0  0  0  0
  -19.6780  -26.5600   21.7010 C   0  0  0  0  0  2  0  0  0  0  0  0
  -18.2650  -26.7050   22.2730 C   0  0  0  0  0  2  0  0  0  0  0  0
  -19.1330  -28.8590   23.3620 C   0  0  0  0  0  0  0  0  0  0  0  0
  -18.8700  -30.1310   23.9140 C   0  0  0  0  0  3  0  0  0  0  0  0
  -17.5520  -30.6170   24.0090 C   0  0  0  0  0  3  0  0  0  0  0  0
  -16.4770  -29.8270   23.5640 C   0  0  0  0  0  3  0  0  0  0  0  0
  -16.7230  -28.5560   23.0180 C   0  0  0  0  0  3  0  0  0  0  0  0
  -25.8750  -32.5280   24.0710 C   0  0  0  0  0  3  0  0  0  0  0  0
  -26.3070  -31.8110   25.4100 C   0  0  1  0  0  0  0  0  0  0  0  0
  -25.1460  -31.6110   26.4140 C   0  0  0  0  0  1  0  0  0  0  0  0
  -26.9190  -30.4220   25.1240 C   0  0  0  0  0  1  0  0  0  0  0  0
  -27.4080  -32.6380   26.1150 C   0  0  0  0  0  1  0  0  0  0  0  0
  -25.5570  -33.9430   24.3350 N   0  0  0  0  0  0  0  0  0  0  0  0
  -25.9030  -34.9690   23.5470 C   0  0  0  0  0  0  0  0  0  0  0  0
  -26.5850  -34.8250   22.5300 O   0  0  0  0  0  0  0  0  0  0  0  0
  -24.9490  -34.1270   25.1200 H   0  0  0  0  0  0  0  0  0  0  0  0
  -24.1670  -36.7480   23.1370 C   0  0  0  0  0  1  0  0  0  0  0  0
  -25.4200  -36.3790   23.9490 C   0  0  0  0  0  3  0  0  0  0  0  0
  -27.5530  -37.3190   24.7230 C   0  0  0  0  0  1  0  0  0  0  0  0
  -26.4480  -37.4280   23.7750 N   0  0  0  0  0  0  0  0  0  0  0  0
  -26.0390  -38.3540   23.8690 H   0  0  0  0  0  0  0  0  0  0  0  0
  1  2  2  0
  1  5  1  0
  2  6  1  0
  4  3  1  0
  4 50  1  0
  5  4  2  0
  6 15  1  0
  6  3  2  0
  7 15  1  0
  8 13  1  0
  9 10  1  0
  9  8  1  0
 11 10  1  0
 11 20  1  0
 11 12  1  0
 13  7  1  0
 13 12  1  0
 14  7  2  0
 15 16  1  0
 17 18  2  0
 18 37  1  0
 19 18  1  0
 19 22  1  0
 20 21  1  0
 20 17  1  0
 21 19  2  0
 22 23  1  0
 23 24  2  0
 25 28  1  0
 25 24  1  0
 26 25  2  0
 27 26  1  0
 27 22  2  0
 28 29  1  0
 29 30  1  0
 30 31  2  0
 32 31  1  0
 32 36  1  0
 33 32  2  0
 34 29  2  0
 34 33  1  0
 35 34  1  0
 37 38  1  0
 38 41  1  0
 38 40  1  0
 39 37  2  0
 42 43  1  0
 42 17  1  0
 44 42  1  0
 45 46  1  0
 45 47  1  0
 46 48  1  0
 47 49  1  0
 48 49  1  0
 49  5  1  0
 50 52  1  1
 50 51  1  0
 53 54  1  0
 53 50  1  0
 55 66  2  0
 56 54  1  0
 56 61  1  0
 57 65  1  0
 57 67  1  0
 58 60  1  0
 59 65  1  0
 60 61  2  0
 60 59  1  0
 62 56  2  0
 63 62  1  0
 63 58  2  0
 64 58  1  0
 64 57  1  0
 65 55  1  0
 67 69  2  0
 68 67  1  0
 70 68  1  0
 71 80  2  0
 71 76  1  0
 72 68  1  0
 72 76  1  0
 73 72  1  0
 74 75  1  0
 74 73  1  0
 75 71  1  0
 76 77  2  0
 77 78  1  0
 79 78  2  0
 80 79  1  0
 81 55  1  0
 81 86  1  0
 81 82  1  0
 82 85  1  1
 82 83  1  0
 84 82  1  0
 86 89  1  0
 87 91  1  0
 87 86  1  0
 88 87  2  0
 91 90  1  0
 93 94  1  0
 93 91  1  0
 93 92  1  0
M  ISO  4   7 100  15 100  53 101  54 101
M  END
>  <TORSDO>  (68) 
F 19

>  <SCORE>  (68) 
-14.880

>  <name>  (68) 
68

>  <ligand_id>  (68) 
68

>  <original_smiles>  (68) 
[H]c1c([H])c([H])c2c(c1[H])C([H])([H])C([H])([H])C([H])([H])C2([H])N([H])C(=O)C1([H])N(C(=O)C([H])(N([H])C(=O)C([H])(N([H])C([H])([H])[H])C([H])([H])[H])C(C([H])([H])[H])(C([H])([H])[H])C([H])([H])[H])C([H])([H])c2c([H])c(OC([H])([H])C(F)(F)c3c([H])c(N([H])C(=O)N4C([H])([H])C([H])([H])C([H])([H])C([H])(n5nc(-c6c([H])c([H])c(Oc7c([H])c([H])c(F)c([H])c7F)c([H])c6[H])c(C(=O)N([H])[H])c5N([H])[H])C4([H])[H])c([H])c([H])c3N3C([H])([H])C([H])([H])C([H])([H])C3([H])[H])c([H])c([H])c2C1([H])[H]

>  <smiles>  (68) 
[H]c1c([H])c([H])c2c(c1[H])C([H])([H])C([H])([H])C([H])([H])C2([H])N([H])C(=O)C1([H])N(C(=O)C([H])(N([H])C(=O)C([H])(N([H])C([H])([H])[H])C([H])([H])[H])C(C([H])([H])[H])(C([H])([H])[H])C([H])([H])[H])C([H])([H])c2c([H])c(OC([H])([H])C(F)(F)c3c([H])c(N([H])C(=O)N4C([H])([H])C([H])([H])C([H])([H])C([H])(n5nc(-c6c([H])c([H])c(Oc7c([H])c([H])c(F)c([H])c7F)c([H])c6[H])c(C(=O)N([H])[H])c5N([H])[H])C4([H])[H])c([H])c([H])c3N3C([H])([H])C([H])([H])C([H])([H])C3([H])[H])c([H])c([H])c2C1([H])[H]

$$$$
69:0:0
     RDKit          3D

103110  0  0  1  0  0  0  0  0999 V2000
  -30.2780  -17.1960   19.2030 C   0  0  0  0  0  0  0  0  0  0  0  0
  -30.5880  -14.4120   18.5070 C   0  0  0  0  0  2  0  0  0  0  0  0
  -29.7210  -13.5040   17.5440 C   0  0  0  0  0  2  0  0  0  0  0  0
  -28.5030  -12.9100   18.2500 C   0  0  0  0  0  2  0  0  0  0  0  0
  -27.9450  -13.9620   19.2180 C   0  0  0  0  0  3  0  0  0  0  0  0
  -29.0000  -14.7450   20.0880 C   0  0  0  0  0  2  0  0  0  0  0  0
  -29.8550  -15.6630   19.2090 N   0  0  0  0  0  0  0  0  0  0  0  0
  -31.5010  -16.9310   18.9590 O   0  0  0  0  0  0  0  0  0  0  0  0
  -29.7370  -18.8890   19.4630 N   0  0  0  0  0  0  0  0  0  0  0  0
  -25.7950  -14.3460   20.4700 C   0  0  0  0  0  0  0  0  0  0  0  0
  -24.8000  -13.5360   20.9280 C   0  0  0  0  0  0  0  0  0  0  0  0
  -25.2220  -12.1950   20.6610 C   0  0  0  0  0  0  0  0  0  0  0  0
  -26.7620  -13.5150   19.9490 N   0  0  0  0  0  0  0  0  0  0  0  0
  -26.4410  -12.1990   20.1150 N   0  0  0  0  0  0  0  0  0  0  0  0
  -24.4940  -10.9280   20.8500 C   0  0  0  0  0  0  0  0  0  0  0  0
  -24.9870   -9.9050   21.6920 C   0  0  0  0  0  3  0  0  0  0  0  0
  -24.2510   -8.7150   21.8820 C   0  0  0  0  0  3  0  0  0  0  0  0
  -23.0070   -8.5350   21.2320 C   0  0  0  0  0  0  0  0  0  0  0  0
  -22.5290   -9.5460   20.3800 C   0  0  0  0  0  3  0  0  0  0  0  0
  -23.2650  -10.7280   20.1890 C   0  0  0  0  0  3  0  0  0  0  0  0
  -22.2390   -7.3990   21.3340 O   0  0  0  0  0  0  0  0  0  0  0  0
  -22.1550   -6.6850   22.5030 C   0  0  0  0  0  0  0  0  0  0  0  0
  -21.7500   -7.2850   23.7160 C   0  0  0  0  0  3  0  0  0  0  0  0
  -21.6120   -6.5000   24.8780 C   0  0  0  0  0  3  0  0  0  0  0  0
  -21.8700   -5.1180   24.8310 C   0  0  0  0  0  0  0  0  0  0  0  0
  -22.2690   -4.5180   23.6230 C   0  0  0  0  0  3  0  0  0  0  0  0
  -22.4090   -5.2980   22.4630 C   0  0  0  0  0  0  0  0  0  0  0  0
  -22.7730   -4.7110   21.2970 F   0  0  0  0  0  0  0  0  0  0  0  0
  -21.7320   -4.3630   25.9460 F   0  0  0  0  0  0  0  0  0  0  0  0
  -23.4890  -13.9970   21.4890 C   0  0  0  0  0  0  0  0  0  0  0  0
  -22.9290  -13.2520   22.4340 N   0  0  0  0  0  0  0  0  0  0  0  0
  -22.9850  -15.0620   21.1320 O   0  0  0  0  0  0  0  0  0  0  0  0
  -23.3490  -12.3870   22.7400 H   0  0  0  0  0  0  0  0  0  0  0  0
  -22.0570  -13.5460   22.8500 H   0  0  0  0  0  0  0  0  0  0  0  0
  -25.9540  -15.7280   20.4230 N   0  0  0  0  0  0  0  0  0  0  0  0
  -25.1980  -16.3520   20.6800 H   0  0  0  0  0  0  0  0  0  0  0  0
  -26.6970  -16.1960   19.9220 H   0  0  0  0  0  0  0  0  0  0  0  0
  -30.5750  -19.3440   20.5810 C   0  0  0  0  0  2  0  0  0  0  0  0
  -32.4570  -18.4000   19.1560 C   0  0  0  0  0  0  0  0  0  0  0  0
  -33.0360  -19.6850   21.1460 C   0  0  0  0  0  3  0  0  0  0  0  0
  -34.7970  -18.6740   19.7930 C   0  0  0  0  0  3  0  0  0  0  0  0
  -32.0550  -19.1450   20.2850 C   0  0  0  0  0  0  0  0  0  0  0  0
  -33.8260  -18.1710   18.9000 C   0  0  0  0  0  0  0  0  0  0  0  0
  -34.4070  -19.4360   20.9160 C   0  0  0  0  0  0  0  0  0  0  0  0
  -34.2500  -17.4170   17.6460 C   0  0  0  0  0  2  0  0  0  0  0  0
  -35.1430  -13.9060   18.3760 C   0  0  0  0  0  2  0  0  0  0  0  0
  -35.3640  -14.1220   16.8850 C   0  0  0  0  0  2  0  0  0  0  0  0
  -34.7850  -15.3060   18.8760 C   0  0  0  0  0  2  0  0  0  0  0  0
  -34.3380  -15.2020   16.5210 C   0  0  0  0  0  2  0  0  0  0  0  0
  -34.0470  -15.9550   17.7670 N   0  0  2  0  0  4  0  0  0  0  0  0
  -33.0650  -15.8200   17.9490 H   0  0  0  0  0  0  0  0  0  0  0  0
  -35.4590  -20.0030   21.8660 C   0  0  0  0  0  2  0  0  0  0  0  0
  -34.9120  -21.0550   22.7640 N   0  0  1  0  0  4  0  0  0  0  0  0
  -34.6590  -21.8180   22.1580 H   0  0  0  0  0  0  0  0  0  0  0  0
  -33.6550  -20.6520   23.4500 C   0  0  0  0  0  2  0  0  0  0  0  0
  -31.2750  -21.3660   24.0740 C   0  0  0  0  0  1  0  0  0  0  0  0
  -32.6400  -21.8100   23.5300 C   0  0  0  0  0  2  0  0  0  0  0  0
  -35.9350  -21.5860   23.7070 C   0  0  0  0  0  2  0  0  0  0  0  0
  -37.8210  -23.2880   24.0570 C   0  0  0  0  0  1  0  0  0  0  0  0
  -36.8180  -22.6770   23.0670 C   0  0  0  0  0  2  0  0  0  0  0  0
  -28.7750  -20.7440   19.2220 C   0  0  0  0  0 15  0  0  0  0  0  0
  -28.5420  -23.0840   19.0700 C   0  0  0  0  0 15  0  0  0  0  0  0
  -28.2200  -25.1210   19.5040 O   0  0  0  0  0  1  0  0  0  0  0  0
  -24.8600  -31.8850   23.1230 C   0  0  0  0  0  0  0  0  0  0  0  0
  -27.2770  -26.5890   19.5840 C   0  0  0  0  0  0  0  0  0  0  0  0
  -23.6120  -30.5510   21.4860 C   0  0  0  0  0  3  0  0  0  0  0  0
  -24.9990  -28.9330   19.8700 C   0  0  0  0  0  0  0  0  0  0  0  0
  -26.1990  -30.6030   21.2380 C   0  0  0  0  0  2  0  0  0  0  0  0
  -26.2430  -29.1590   20.4660 C   0  0  0  0  0  0  0  0  0  0  0  0
  -27.3210  -28.0370   20.2890 C   0  0  0  0  0  3  0  0  0  0  0  0
  -25.9850  -26.7430   18.9460 C   0  0  0  0  0  3  0  0  0  0  0  0
  -24.9430  -27.7610   19.0820 C   0  0  0  0  0  3  0  0  0  0  0  0
  -23.7950  -29.9120   20.0670 C   0  0  0  0  0  2  0  0  0  0  0  0
  -24.9240  -31.0600   22.0020 N   0  0  0  0  0  0  0  0  0  0  0  0
  -23.7870  -32.1390   23.7050 O   0  0  0  0  0  0  0  0  0  0  0  0
  -22.9440  -29.5380   22.4610 C   0  0  0  0  0  0  0  0  0  0  0  0
  -21.6160  -29.3130   22.3710 N   0  0  0  0  0  0  0  0  0  0  0  0
  -23.6460  -28.9460   23.2840 O   0  0  0  0  0  0  0  0  0  0  0  0
  -21.0830  -29.8460   21.6980 H   0  0  0  0  0  0  0  0  0  0  0  0
  -18.3670  -27.7250   22.8580 C   0  0  0  0  0  0  0  0  0  0  0  0
  -20.8790  -28.2910   23.1350 C   0  0  0  0  0  3  0  0  0  0  0  0
  -21.1440  -26.8770   22.5660 C   0  0  0  0  0  2  0  0  0  0  0  0
  -20.0990  -26.4350   21.5370 C   0  0  0  0  0  2  0  0  0  0  0  0
  -18.7030  -26.4130   22.1680 C   0  0  0  0  0  2  0  0  0  0  0  0
  -19.3850  -28.6140   23.2960 C   0  0  0  0  0  0  0  0  0  0  0  0
  -19.0110  -29.8290   23.9100 C   0  0  0  0  0  3  0  0  0  0  0  0
  -17.6540  -30.1620   24.0820 C   0  0  0  0  0  3  0  0  0  0  0  0
  -16.6510  -29.2740   23.6540 C   0  0  0  0  0  3  0  0  0  0  0  0
  -17.0090  -28.0570   23.0490 C   0  0  0  0  0  3  0  0  0  0  0  0
  -26.1220  -32.5620   23.7420 C   0  0  0  0  0  3  0  0  0  0  0  0
  -25.7810  -33.9480   24.1510 N   0  0  0  0  0  0  0  0  0  0  0  0
  -26.1240  -35.0680   23.4970 C   0  0  0  0  0  0  0  0  0  0  0  0
  -26.8020  -35.0460   22.4680 O   0  0  0  0  0  0  0  0  0  0  0  0
  -25.1760  -34.0360   24.9530 H   0  0  0  0  0  0  0  0  0  0  0  0
  -24.4140  -36.9160   23.2940 C   0  0  0  0  0  1  0  0  0  0  0  0
  -25.6480  -36.4250   24.0680 C   0  0  0  0  0  3  0  0  0  0  0  0
  -27.7930  -37.2320   24.9630 C   0  0  0  0  0  1  0  0  0  0  0  0
  -26.6870  -37.4810   24.0420 N   0  0  0  0  0  0  0  0  0  0  0  0
  -26.2850  -38.3870   24.2670 H   0  0  0  0  0  0  0  0  0  0  0  0
  -26.6830  -31.7830   24.9980 C   0  0  1  0  0  0  0  0  0  0  0  0
  -25.6230  -31.5100   26.0930 C   0  0  0  0  0  1  0  0  0  0  0  0
  -27.2790  -30.4180   24.5910 C   0  0  0  0  0  1  0  0  0  0  0  0
  -27.8390  -32.5860   25.6410 C   0  0  0  0  0  1  0  0  0  0  0  0
  1  7  1  0
  1  9  2  0
  2  7  1  0
  3  4  1  0
  3  2  1  0
  5  4  1  0
  5 13  1  0
  5  6  1  0
  7  6  1  0
  8 39  1  0
  8  1  1  0
  9 38  1  0
 10 11  2  0
 11 30  1  0
 12 15  1  0
 12 11  1  0
 13 14  1  0
 13 10  1  0
 14 12  2  0
 15 16  1  0
 16 17  2  0
 18 21  1  0
 18 17  1  0
 19 18  2  0
 20 19  1  0
 20 15  2  0
 21 22  1  0
 22 23  1  0
 23 24  2  0
 25 24  1  0
 25 29  1  0
 26 25  2  0
 27 22  2  0
 27 26  1  0
 28 27  1  0
 30 31  1  0
 31 33  1  0
 31 34  1  0
 32 30  2  0
 35 10  1  0
 35 36  1  0
 37 35  1  0
 39 42  1  0
 41 44  2  0
 42 38  1  0
 42 40  2  0
 43 39  2  0
 43 41  1  0
 44 40  1  0
 44 52  1  0
 45 50  1  0
 45 43  1  0
 46 48  1  0
 47 46  1  0
 49 47  1  0
 49 50  1  0
 50 51  1  1
 50 48  1  0
 52 53  1  0
 53 55  1  0
 53 58  1  0
 53 54  1  6
 55 57  1  0
 57 56  1  0
 60 58  1  0
 60 59  1  0
 63 65  1  0
 64 75  2  0
 65 70  1  0
 66 74  1  0
 66 76  1  0
 67 73  1  0
 67 69  1  0
 68 74  1  0
 69 68  1  0
 70 69  2  0
 71 72  1  0
 71 65  2  0
 72 67  2  0
 73 66  1  0
 74 64  1  0
 76 78  2  0
 77 76  1  0
 79 77  1  0
 80 89  2  0
 80 85  1  0
 81 77  1  0
 81 85  1  0
 82 81  1  0
 83 84  1  0
 83 82  1  0
 84 80  1  0
 85 86  2  0
 86 87  1  0
 88 87  2  0
 89 88  1  0
 90 64  1  0
 90 91  1  0
 90100  1  0
 91 94  1  0
 92 96  1  0
 92 91  1  0
 93 92  2  0
 96 95  1  0
 98 96  1  0
 98 99  1  0
 98 97  1  0
100103  1  1
100101  1  0
102100  1  0
M  ISO  4   1 100   9 100  62 101  63 101
M  END
>  <TORSDO>  (69) 
F 27

>  <SCORE>  (69) 
-10.282

>  <name>  (69) 
69

>  <ligand_id>  (69) 
69

>  <original_smiles>  (69) 
[H]c1c([H])c([H])c2c(c1[H])C([H])([H])C([H])([H])C([H])([H])C2([H])N([H])C(=O)C1([H])N(C(=O)C([H])(N([H])C(=O)C([H])(N([H])C([H])([H])[H])C([H])([H])[H])C(C([H])([H])[H])(C([H])([H])[H])C([H])([H])[H])C([H])([H])c2c([H])c(OC([H])([H])C([H])([H])N(C(=O)N3C([H])([H])C([H])([H])C([H])([H])C([H])(n4nc(-c5c([H])c([H])c(Oc6c([H])c([H])c(F)c([H])c6F)c([H])c5[H])c(C(=O)N([H])[H])c4N([H])[H])C3([H])[H])C([H])([H])c3c([H])c(C([H])([H])[N+]([H])(C([H])([H])C([H])([H])C([H])([H])[H])C([H])([H])C([H])([H])C([H])([H])[H])c([H])c(C([H])([H])[N+]4([H])C([H])([H])C([H])([H])C([H])([H])C4([H])[H])c3[H])c([H])c([H])c2C1([H])[H]

>  <smiles>  (69) 
[H]c1c([H])c([H])c2c(c1[H])C([H])([H])C([H])([H])C([H])([H])C2([H])N([H])C(=O)C1([H])N(C(=O)C([H])(N([H])C(=O)C([H])(N([H])C([H])([H])[H])C([H])([H])[H])C(C([H])([H])[H])(C([H])([H])[H])C([H])([H])[H])C([H])([H])c2c([H])c(OC([H])([H])C([H])([H])N(C(=O)N3C([H])([H])C([H])([H])C([H])([H])C([H])(n4nc(-c5c([H])c([H])c(Oc6c([H])c([H])c(F)c([H])c6F)c([H])c5[H])c(C(=O)N([H])[H])c4N([H])[H])C3([H])[H])C([H])([H])c3c([H])c(C([H])([H])[N+]([H])(C([H])([H])C([H])([H])C([H])([H])[H])C([H])([H])C([H])([H])C([H])([H])[H])c([H])c(C([H])([H])[N+]4([H])C([H])([H])C([H])([H])C([H])([H])C4([H])[H])c3[H])c([H])c([H])c2C1([H])[H]

$$$$
70:0:0
     RDKit          3D

 92100  0  0  1  0  0  0  0  0999 V2000
  -29.0770  -21.4230   19.2540 N   0  0  0  0  0  0  0  0  0  0  0  0
  -29.8440  -17.7140   18.7860 C   0  0  0  0  0  3  0  0  0  0  0  0
  -29.5660  -19.0940   18.5540 C   0  0  0  0  0  3  0  0  0  0  0  0
  -30.2110  -18.2180   21.0980 C   0  0  0  0  0  3  0  0  0  0  0  0
  -29.9640  -19.6100   20.8680 C   0  0  0  0  0  0  0  0  0  0  0  0
  -30.1420  -17.2290   20.0810 C   0  0  0  0  0  0  0  0  0  0  0  0
  -29.5630  -20.0910   19.5780 C   0  0  0  0  0  0  0  0  0  0  0  0
  -30.1080  -20.5250   22.0720 C   0  0  0  0  0  1  0  0  0  0  0  0
  -30.9550  -14.7760   19.8850 C   0  0  0  0  0  0  0  0  0  0  0  0
  -30.7000  -12.4940   18.9300 C   0  0  0  0  0  2  0  0  0  0  0  0
  -29.6870  -12.5930   17.7670 C   0  0  0  0  0  2  0  0  0  0  0  0
  -28.2370  -12.4650   18.2760 C   0  0  0  0  0  2  0  0  0  0  0  0
  -27.9590  -13.3480   19.5200 C   0  0  0  0  0  3  0  0  0  0  0  0
  -29.0810  -13.2160   20.5720 C   0  0  0  0  0  2  0  0  0  0  0  0
  -30.3560  -13.5420   19.9150 N   0  0  0  0  0  0  0  0  0  0  0  0
  -32.0460  -14.9470   19.3320 O   0  0  0  0  0  0  0  0  0  0  0  0
  -30.2440  -15.8120   20.4310 N   0  0  0  0  0  0  0  0  0  0  0  0
  -29.5570  -15.5010   21.1000 H   0  0  0  0  0  0  0  0  0  0  0  0
  -25.6500  -13.9740   20.4550 C   0  0  0  0  0  0  0  0  0  0  0  0
  -24.5880  -13.2130   20.8640 C   0  0  0  0  0  0  0  0  0  0  0  0
  -24.9970  -11.8520   20.7160 C   0  0  0  0  0  0  0  0  0  0  0  0
  -26.6420  -13.0790   20.0900 N   0  0  0  0  0  0  0  0  0  0  0  0
  -26.2580  -11.7930   20.3020 N   0  0  0  0  0  0  0  0  0  0  0  0
  -24.2440  -10.6050   20.8890 C   0  0  0  0  0  0  0  0  0  0  0  0
  -24.6440   -9.6250   21.8230 C   0  0  0  0  0  3  0  0  0  0  0  0
  -23.8920   -8.4420   21.9870 C   0  0  0  0  0  3  0  0  0  0  0  0
  -22.7250   -8.2290   21.2150 C   0  0  0  0  0  0  0  0  0  0  0  0
  -22.3420   -9.1970   20.2700 C   0  0  0  0  0  3  0  0  0  0  0  0
  -23.0950  -10.3720   20.1050 C   0  0  0  0  0  3  0  0  0  0  0  0
  -21.9500   -7.0970   21.2820 O   0  0  0  0  0  0  0  0  0  0  0  0
  -21.7690   -6.4170   22.4600 C   0  0  0  0  0  0  0  0  0  0  0  0
  -21.1800   -7.0260   23.5880 C   0  0  0  0  0  3  0  0  0  0  0  0
  -20.9560   -6.2720   24.7570 C   0  0  0  0  0  3  0  0  0  0  0  0
  -21.3040   -4.9100   24.7950 C   0  0  0  0  0  0  0  0  0  0  0  0
  -21.8810   -4.2990   23.6690 C   0  0  0  0  0  3  0  0  0  0  0  0
  -22.1120   -5.0510   22.5040 C   0  0  0  0  0  0  0  0  0  0  0  0
  -22.6530   -4.4520   21.4160 F   0  0  0  0  0  0  0  0  0  0  0  0
  -21.0800   -4.1840   25.9170 F   0  0  0  0  0  0  0  0  0  0  0  0
  -23.2360  -13.7180   21.2780 C   0  0  0  0  0  0  0  0  0  0  0  0
  -22.5590  -12.9930   22.1610 N   0  0  0  0  0  0  0  0  0  0  0  0
  -22.7950  -14.7880   20.8600 O   0  0  0  0  0  0  0  0  0  0  0  0
  -22.9340  -12.1300   22.5240 H   0  0  0  0  0  0  0  0  0  0  0  0
  -21.6540  -13.3070   22.4850 H   0  0  0  0  0  0  0  0  0  0  0  0
  -25.8410  -15.3490   20.3430 N   0  0  0  0  0  0  0  0  0  0  0  0
  -25.0880  -16.0050   20.5180 H   0  0  0  0  0  0  0  0  0  0  0  0
  -26.6720  -15.7890   19.9670 H   0  0  0  0  0  0  0  0  0  0  0  0
  -26.5910  -21.2570   19.2040 C   0  0  0  0  0  1  0  0  0  0  0  0
  -27.8900  -21.3540   18.3920 C   0  0  0  0  0  2  0  0  0  0  0  0
  -29.1310  -22.6360   20.1430 C   0  0  0  0  0  2  0  0  0  0  0  0
  -28.9070  -24.0830   19.4830 C   0  0  0  0  0  3  0  0  0  0  0  0
  -28.5750  -25.2770   20.4780 C   0  0  0  0  0  3  0  0  0  0  0  0
  -28.6270  -26.6710   20.0080 O   0  0  0  0  0  0  0  0  0  0  0  0
  -24.5850  -31.7490   23.1620 C   0  0  0  0  0  0  0  0  0  0  0  0
  -27.4510  -27.4210   20.0350 C   0  0  0  0  0  0  0  0  0  0  0  0
  -23.4670  -30.3330   21.4720 C   0  0  0  0  0  3  0  0  0  0  0  0
  -25.0050  -28.8820   20.0350 C   0  0  0  0  0  0  0  0  0  0  0  0
  -25.9810  -30.7880   21.3210 C   0  0  0  0  0  2  0  0  0  0  0  0
  -26.1370  -29.4260   20.6550 C   0  0  0  0  0  0  0  0  0  0  0  0
  -27.3650  -28.7060   20.6430 C   0  0  0  0  0  3  0  0  0  0  0  0
  -26.2960  -26.9100   19.4110 C   0  0  0  0  0  3  0  0  0  0  0  0
  -25.0830  -27.6280   19.4060 C   0  0  0  0  0  3  0  0  0  0  0  0
  -23.7280  -29.6950   20.0810 C   0  0  0  0  0  2  0  0  0  0  0  0
  -24.6940  -30.9730   22.0440 N   0  0  0  0  0  0  0  0  0  0  0  0
  -23.4850  -31.9660   23.6880 O   0  0  0  0  0  0  0  0  0  0  0  0
  -22.8410  -29.2670   22.4030 C   0  0  0  0  0  0  0  0  0  0  0  0
  -21.5260  -29.0400   22.2600 N   0  0  0  0  0  0  0  0  0  0  0  0
  -23.5400  -28.6490   23.2120 O   0  0  0  0  0  0  0  0  0  0  0  0
  -21.0230  -29.5970   21.5840 H   0  0  0  0  0  0  0  0  0  0  0  0
  -18.1900  -27.7200   22.7120 C   0  0  0  0  0  0  0  0  0  0  0  0
  -20.7370  -28.0520   22.9970 C   0  0  0  0  0  3  0  0  0  0  0  0
  -20.8860  -26.6460   22.3710 C   0  0  0  0  0  2  0  0  0  0  0  0
  -19.7960  -26.3230   21.3450 C   0  0  0  0  0  2  0  0  0  0  0  0
  -18.4100  -26.4010   21.9910 C   0  0  0  0  0  2  0  0  0  0  0  0
  -19.2830  -28.5040   23.1700 C   0  0  0  0  0  0  0  0  0  0  0  0
  -19.0210  -29.7390   23.8020 C   0  0  0  0  0  3  0  0  0  0  0  0
  -17.6990  -30.1890   23.9840 C   0  0  0  0  0  3  0  0  0  0  0  0
  -16.6230  -29.4020   23.5420 C   0  0  0  0  0  3  0  0  0  0  0  0
  -16.8680  -28.1710   22.9090 C   0  0  0  0  0  3  0  0  0  0  0  0
  -25.8310  -32.4230   23.8160 C   0  0  0  0  0  3  0  0  0  0  0  0
  -25.4590  -33.8010   24.1660 N   0  0  0  0  0  0  0  0  0  0  0  0
  -25.7500  -34.8800   23.4260 C   0  0  0  0  0  0  0  0  0  0  0  0
  -26.4300  -34.8210   22.3980 O   0  0  0  0  0  0  0  0  0  0  0  0
  -24.8520  -33.9140   24.9640 H   0  0  0  0  0  0  0  0  0  0  0  0
  -23.9450  -36.6000   23.0840 C   0  0  0  0  0  1  0  0  0  0  0  0
  -25.1980  -36.2380   23.8990 C   0  0  0  0  0  3  0  0  0  0  0  0
  -27.2820  -37.2090   24.7640 C   0  0  0  0  0  1  0  0  0  0  0  0
  -26.1840  -37.3380   23.8100 N   0  0  0  0  0  0  0  0  0  0  0  0
  -25.7350  -38.2370   23.9610 H   0  0  0  0  0  0  0  0  0  0  0  0
  -26.3580  -31.6490   25.0860 C   0  0  1  0  0  0  0  0  0  0  0  0
  -25.2570  -31.3410   26.1280 C   0  0  0  0  0  1  0  0  0  0  0  0
  -27.0070  -30.3080   24.6750 C   0  0  0  0  0  1  0  0  0  0  0  0
  -27.4580  -32.4800   25.7900 C   0  0  0  0  0  1  0  0  0  0  0  0
  1  7  1  0
  1 49  1  0
  2  6  1  0
  3  2  2  0
  3  7  1  0
  5  4  1  0
  5  8  1  0
  6 17  1  0
  6  4  2  0
  7  5  2  0
  9 15  1  0
  9 17  1  0
 10 15  1  0
 11 12  1  0
 11 10  1  0
 13 12  1  0
 13 22  1  0
 13 14  1  0
 15 14  1  0
 16  9  2  0
 17 18  1  0
 19 20  2  0
 20 39  1  0
 21 20  1  0
 21 24  1  0
 22 23  1  0
 22 19  1  0
 23 21  2  0
 24 25  1  0
 25 26  2  0
 27 30  1  0
 27 26  1  0
 28 27  2  0
 29 28  1  0
 29 24  2  0
 30 31  1  0
 31 36  2  0
 31 32  1  0
 32 33  2  0
 33 34  1  0
 34 38  1  0
 35 34  2  0
 36 35  1  0
 37 36  1  0
 39 40  1  0
 40 43  1  0
 40 42  1  0
 41 39  2  0
 44 19  1  0
 44 45  1  0
 46 44  1  0
 48 47  1  0
 48  1  1  0
 50 49  1  0
 50 51  2  0
 52 54  1  0
 52 51  1  0
 53 64  2  0
 54 59  1  0
 55 63  1  0
 55 65  1  0
 56 62  1  0
 56 58  1  0
 57 63  1  0
 58 57  1  0
 59 58  2  0
 60 54  2  0
 61 60  1  0
 61 56  2  0
 62 55  1  0
 63 53  1  0
 65 67  2  0
 66 65  1  0
 68 66  1  0
 69 78  2  0
 69 74  1  0
 70 66  1  0
 70 74  1  0
 71 70  1  0
 72 73  1  0
 72 71  1  0
 73 69  1  0
 74 75  2  0
 75 76  1  0
 77 76  2  0
 78 77  1  0
 79 53  1  0
 79 80  1  0
 79 89  1  0
 80 83  1  0
 81 85  1  0
 81 80  1  0
 82 81  2  0
 85 84  1  0
 87 85  1  0
 87 88  1  0
 87 86  1  0
 89 92  1  1
 89 90  1  0
 91 89  1  0
M  ISO  4   9 100  17 100  51 101  52 101
M  END
>  <TORSDO>  (70) 
F 21

>  <SCORE>  (70) 
-12.715

>  <name>  (70) 
70

>  <ligand_id>  (70) 
70

>  <original_smiles>  (70) 
[H]c1c([H])c([H])c2c(c1[H])C([H])([H])C([H])([H])C([H])([H])C2([H])N([H])C(=O)C1([H])N(C(=O)C([H])(N([H])C(=O)C([H])(N([H])C([H])([H])[H])C([H])([H])[H])C(C([H])([H])[H])(C([H])([H])[H])C([H])([H])[H])C([H])([H])c2c([H])c(OC([H])([H])C([H])([H])C([H])([H])N(c3c([H])c([H])c(N([H])C(=O)N4C([H])([H])C([H])([H])C([H])([H])C([H])(n5nc(-c6c([H])c([H])c(Oc7c([H])c([H])c(F)c([H])c7F)c([H])c6[H])c(C(=O)N([H])[H])c5N([H])[H])C4([H])[H])c([H])c3C([H])([H])[H])C([H])([H])C([H])([H])[H])c([H])c([H])c2C1([H])[H]

>  <smiles>  (70) 
[H]c1c([H])c([H])c2c(c1[H])C([H])([H])C([H])([H])C([H])([H])C2([H])N([H])C(=O)C1([H])N(C(=O)C([H])(N([H])C(=O)C([H])(N([H])C([H])([H])[H])C([H])([H])[H])C(C([H])([H])[H])(C([H])([H])[H])C([H])([H])[H])C([H])([H])c2c([H])c(OC([H])([H])C([H])([H])C([H])([H])N(c3c([H])c([H])c(N([H])C(=O)N4C([H])([H])C([H])([H])C([H])([H])C([H])(n5nc(-c6c([H])c([H])c(Oc7c([H])c([H])c(F)c([H])c7F)c([H])c6[H])c(C(=O)N([H])[H])c5N([H])[H])C4([H])[H])c([H])c3C([H])([H])[H])C([H])([H])C([H])([H])[H])c([H])c([H])c2C1([H])[H]

$$$$
71:0:0
     RDKit          3D

 92100  0  0  1  0  0  0  0  0999 V2000
  -31.1040  -17.8450   19.9290 C   0  0  0  0  0  3  0  0  0  0  0  0
  -28.7390  -19.3320   20.2240 C   0  0  0  0  0  3  0  0  0  0  0  0
  -29.9150  -17.1240   20.2200 C   0  0  0  0  0  0  0  0  0  0  0  0
  -29.9280  -20.0500   19.9410 C   0  0  0  0  0  0  0  0  0  0  0  0
  -31.1080  -19.2660   19.8010 C   0  0  0  0  0  0  0  0  0  0  0  0
  -28.7380  -17.9130   20.3720 C   0  0  0  0  0  0  0  0  0  0  0  0
  -32.2790  -19.8970   19.5360 F   0  0  0  0  0  0  0  0  0  0  0  0
  -27.2480  -17.1320   20.7650 Cl  0  0  0  0  0  0  0  0  0  0  0  0
  -30.5260  -14.6230   19.8410 C   0  0  0  0  0  0  0  0  0  0  0  0
  -30.1780  -12.4150   18.7540 C   0  0  0  0  0  2  0  0  0  0  0  0
  -29.1330  -12.5870   17.6280 C   0  0  0  0  0  2  0  0  0  0  0  0
  -27.7010  -12.4430   18.1810 C   0  0  0  0  0  2  0  0  0  0  0  0
  -27.4670  -13.2840   19.4640 C   0  0  0  0  0  3  0  0  0  0  0  0
  -28.6160  -13.0860   20.4790 C   0  0  0  0  0  2  0  0  0  0  0  0
  -29.8800  -13.4160   19.7990 N   0  0  0  0  0  0  0  0  0  0  0  0
  -31.6370  -14.7730   19.3250 O   0  0  0  0  0  0  0  0  0  0  0  0
  -29.8090  -15.6680   20.3520 N   0  0  0  0  0  0  0  0  0  0  0  0
  -28.9590  -15.3730   20.8110 H   0  0  0  0  0  0  0  0  0  0  0  0
  -25.1510  -13.9010   20.3930 C   0  0  0  0  0  0  0  0  0  0  0  0
  -24.1080  -13.1380   20.8400 C   0  0  0  0  0  0  0  0  0  0  0  0
  -24.5440  -11.7810   20.7420 C   0  0  0  0  0  0  0  0  0  0  0  0
  -26.1600  -13.0120   20.0570 N   0  0  0  0  0  0  0  0  0  0  0  0
  -25.8030  -11.7290   20.3230 N   0  0  0  0  0  0  0  0  0  0  0  0
  -23.8140  -10.5270   20.9670 C   0  0  0  0  0  0  0  0  0  0  0  0
  -24.3060   -9.5330   21.8410 C   0  0  0  0  0  3  0  0  0  0  0  0
  -23.5760   -8.3430   22.0550 C   0  0  0  0  0  3  0  0  0  0  0  0
  -22.3400   -8.1410   21.3970 C   0  0  0  0  0  0  0  0  0  0  0  0
  -21.8660   -9.1240   20.5100 C   0  0  0  0  0  3  0  0  0  0  0  0
  -22.5960  -10.3050   20.2940 C   0  0  0  0  0  3  0  0  0  0  0  0
  -21.5760   -7.0060   21.5230 O   0  0  0  0  0  0  0  0  0  0  0  0
  -21.6080   -6.2400   22.6610 C   0  0  0  0  0  0  0  0  0  0  0  0
  -21.2930   -6.7770   23.9290 C   0  0  0  0  0  3  0  0  0  0  0  0
  -21.2700   -5.9390   25.0620 C   0  0  0  0  0  3  0  0  0  0  0  0
  -21.5520   -4.5660   24.9300 C   0  0  0  0  0  0  0  0  0  0  0  0
  -21.8600   -4.0300   23.6670 C   0  0  0  0  0  3  0  0  0  0  0  0
  -21.8850   -4.8640   22.5360 C   0  0  0  0  0  0  0  0  0  0  0  0
  -22.1620   -4.3380   21.3180 F   0  0  0  0  0  0  0  0  0  0  0  0
  -21.5230   -3.7600   26.0160 F   0  0  0  0  0  0  0  0  0  0  0  0
  -22.7500  -13.6310   21.2460 C   0  0  0  0  0  0  0  0  0  0  0  0
  -22.0970  -12.9390   22.1730 N   0  0  0  0  0  0  0  0  0  0  0  0
  -22.2780  -14.6670   20.7760 O   0  0  0  0  0  0  0  0  0  0  0  0
  -22.4930  -12.1010   22.5730 H   0  0  0  0  0  0  0  0  0  0  0  0
  -21.1890  -13.2510   22.4870 H   0  0  0  0  0  0  0  0  0  0  0  0
  -25.3150  -15.2720   20.2240 N   0  0  0  0  0  0  0  0  0  0  0  0
  -24.5810  -15.9320   20.4470 H   0  0  0  0  0  0  0  0  0  0  0  0
  -26.1620  -15.7190   19.9010 H   0  0  0  0  0  0  0  0  0  0  0  0
  -30.0160  -21.4800   19.8270 N   0  0  0  0  0  0  0  0  0  0  0  0
  -30.9290  -21.8050   19.5170 H   0  0  0  0  0  0  0  0  0  0  0  0
  -28.8860  -22.4370   19.6450 C   0  0  0  0  0  2  0  0  0  0  0  0
  -29.2540  -23.9850   19.7550 C   0  0  0  0  0  3  0  0  0  0  0  0
  -28.0870  -25.0200   19.4670 C   0  0  0  0  0  3  0  0  0  0  0  0
  -28.2920  -26.4710   19.6790 O   0  0  0  0  0  0  0  0  0  0  0  0
  -24.5080  -31.6080   23.0440 C   0  0  0  0  0  0  0  0  0  0  0  0
  -27.1510  -27.2890   19.6940 C   0  0  0  0  0  0  0  0  0  0  0  0
  -23.3000  -30.2830   21.3470 C   0  0  0  0  0  3  0  0  0  0  0  0
  -24.7530  -28.8460   19.8150 C   0  0  0  0  0  0  0  0  0  0  0  0
  -25.8300  -30.6620   21.1410 C   0  0  0  0  0  2  0  0  0  0  0  0
  -25.9230  -29.3240   20.4170 C   0  0  0  0  0  0  0  0  0  0  0  0
  -27.1250  -28.5600   20.3460 C   0  0  0  0  0  3  0  0  0  0  0  0
  -25.9510  -26.8630   19.0750 C   0  0  0  0  0  3  0  0  0  0  0  0
  -24.7680  -27.6200   19.1360 C   0  0  0  0  0  3  0  0  0  0  0  0
  -23.5020  -29.6910   19.9290 C   0  0  0  0  0  2  0  0  0  0  0  0
  -24.5650  -30.8640   21.9020 N   0  0  0  0  0  0  0  0  0  0  0  0
  -23.4280  -31.8370   23.6100 O   0  0  0  0  0  0  0  0  0  0  0  0
  -22.6720  -29.2010   22.2580 C   0  0  0  0  0  0  0  0  0  0  0  0
  -21.3460  -29.0130   22.1450 N   0  0  0  0  0  0  0  0  0  0  0  0
  -23.3750  -28.5380   23.0250 O   0  0  0  0  0  0  0  0  0  0  0  0
  -20.8370  -29.6020   21.5020 H   0  0  0  0  0  0  0  0  0  0  0  0
  -17.9920  -27.7560   22.6500 C   0  0  0  0  0  0  0  0  0  0  0  0
  -20.5540  -28.0220   22.8750 C   0  0  0  0  0  3  0  0  0  0  0  0
  -20.6530  -26.6290   22.2110 C   0  0  0  0  0  2  0  0  0  0  0  0
  -19.5290  -26.3600   21.2050 C   0  0  0  0  0  2  0  0  0  0  0  0
  -18.1620  -26.4530   21.8880 C   0  0  0  0  0  2  0  0  0  0  0  0
  -19.1150  -28.5000   23.1000 C   0  0  0  0  0  0  0  0  0  0  0  0
  -18.9000  -29.7220   23.7730 C   0  0  0  0  0  3  0  0  0  0  0  0
  -17.5960  -30.2010   24.0000 C   0  0  0  0  0  3  0  0  0  0  0  0
  -16.4880  -29.4530   23.5660 C   0  0  0  0  0  3  0  0  0  0  0  0
  -16.6870  -28.2320   22.8970 C   0  0  0  0  0  3  0  0  0  0  0  0
  -25.7900  -32.2270   23.6800 C   0  0  0  0  0  3  0  0  0  0  0  0
  -26.3200  -31.4130   24.9250 C   0  0  1  0  0  0  0  0  0  0  0  0
  -25.2360  -31.1350   25.9930 C   0  0  0  0  0  1  0  0  0  0  0  0
  -26.9040  -30.0530   24.4810 C   0  0  0  0  0  1  0  0  0  0  0  0
  -27.4730  -32.1880   25.6050 C   0  0  0  0  0  1  0  0  0  0  0  0
  -25.4720  -33.6100   24.0630 N   0  0  0  0  0  0  0  0  0  0  0  0
  -25.7820  -34.6920   23.3360 C   0  0  0  0  0  0  0  0  0  0  0  0
  -26.4360  -34.6300   22.2910 O   0  0  0  0  0  0  0  0  0  0  0  0
  -24.8890  -33.7300   24.8790 H   0  0  0  0  0  0  0  0  0  0  0  0
  -24.0240  -36.4720   23.0800 C   0  0  0  0  0  1  0  0  0  0  0  0
  -25.2890  -36.0590   23.8480 C   0  0  0  0  0  3  0  0  0  0  0  0
  -27.4310  -36.9470   24.6580 C   0  0  0  0  0  1  0  0  0  0  0  0
  -26.3050  -37.1280   23.7440 N   0  0  0  0  0  0  0  0  0  0  0  0
  -25.8920  -38.0380   23.9270 H   0  0  0  0  0  0  0  0  0  0  0  0
  1  3  1  0
  2  6  1  0
  3 17  1  0
  3  6  2  0
  4  2  2  0
  5  1  2  0
  5  4  1  0
  6  8  1  0
  7  5  1  0
  9 17  1  0
 10 15  1  0
 11 12  1  0
 11 10  1  0
 13 12  1  0
 13 22  1  0
 13 14  1  0
 15  9  1  0
 15 14  1  0
 16  9  2  0
 17 18  1  0
 19 20  2  0
 20 39  1  0
 21 20  1  0
 21 24  1  0
 22 23  1  0
 22 19  1  0
 23 21  2  0
 24 25  1  0
 25 26  2  0
 27 30  1  0
 27 26  1  0
 28 27  2  0
 29 28  1  0
 29 24  2  0
 30 31  1  0
 31 32  1  0
 32 33  2  0
 34 33  1  0
 34 38  1  0
 35 34  2  0
 36 31  2  0
 36 35  1  0
 37 36  1  0
 39 40  1  0
 40 43  1  0
 40 42  1  0
 41 39  2  0
 44 19  1  0
 44 45  1  0
 46 44  1  0
 47  4  1  0
 48 47  1  0
 49 50  1  0
 49 47  1  0
 51 52  1  0
 51 50  2  0
 52 54  1  0
 53 64  2  0
 54 59  1  0
 55 63  1  0
 55 65  1  0
 56 62  1  0
 56 58  1  0
 57 63  1  0
 58 57  1  0
 59 58  2  0
 60 61  1  0
 60 54  2  0
 61 56  2  0
 62 55  1  0
 63 53  1  0
 65 67  2  0
 66 65  1  0
 68 66  1  0
 69 78  2  0
 69 74  1  0
 70 66  1  0
 70 74  1  0
 71 70  1  0
 72 73  1  0
 72 71  1  0
 73 69  1  0
 74 75  2  0
 75 76  1  0
 77 76  2  0
 78 77  1  0
 79 53  1  0
 79 84  1  0
 79 80  1  0
 80 83  1  1
 80 81  1  0
 82 80  1  0
 84 87  1  0
 85 89  1  0
 85 84  1  0
 86 85  2  0
 89 88  1  0
 91 89  1  0
 91 92  1  0
 91 90  1  0
M  ISO  4   9 100  17 100  51 101  52 101
M  END
>  <TORSDO>  (71) 
F 20

>  <SCORE>  (71) 
-12.815

>  <name>  (71) 
71

>  <ligand_id>  (71) 
71

>  <original_smiles>  (71) 
[H]c1c([H])c([H])c2c(c1[H])C([H])([H])C([H])([H])C([H])([H])C2([H])N([H])C(=O)C1([H])N(C(=O)C([H])(N([H])C(=O)C([H])(N([H])C([H])([H])[H])C([H])([H])[H])C(C([H])([H])[H])(C([H])([H])[H])C([H])([H])[H])C([H])([H])c2c([H])c(OC([H])([H])C([H])([H])C([H])([H])N([H])c3c([H])c(Cl)c(N([H])C(=O)N4C([H])([H])C([H])([H])C([H])([H])C([H])(n5nc(-c6c([H])c([H])c(Oc7c([H])c([H])c(F)c([H])c7F)c([H])c6[H])c(C(=O)N([H])[H])c5N([H])[H])C4([H])[H])c([H])c3F)c([H])c([H])c2C1([H])[H]

>  <smiles>  (71) 
[H]c1c([H])c([H])c2c(c1[H])C([H])([H])C([H])([H])C([H])([H])C2([H])N([H])C(=O)C1([H])N(C(=O)C([H])(N([H])C(=O)C([H])(N([H])C([H])([H])[H])C([H])([H])[H])C(C([H])([H])[H])(C([H])([H])[H])C([H])([H])[H])C([H])([H])c2c([H])c(OC([H])([H])C([H])([H])C([H])([H])N([H])c3c([H])c(Cl)c(N([H])C(=O)N4C([H])([H])C([H])([H])C([H])([H])C([H])(n5nc(-c6c([H])c([H])c(Oc7c([H])c([H])c(F)c([H])c7F)c([H])c6[H])c(C(=O)N([H])[H])c5N([H])[H])C4([H])[H])c([H])c3F)c([H])c([H])c2C1([H])[H]

$$$$
72:0:0
     RDKit          3D

 98107  0  0  1  0  0  0  0  0999 V2000
  -32.5950  -20.8630   17.9360 C   0  0  0  0  0  2  0  0  0  0  0  0
  -31.7170  -21.8900   18.6530 C   0  0  0  0  0  2  0  0  0  0  0  0
  -32.0690  -19.5210   18.4470 C   0  0  0  0  0  2  0  0  0  0  0  0
  -30.3460  -21.2070   18.7680 C   0  0  0  0  0  3  0  0  0  0  0  0
  -30.7230  -19.7960   18.9390 N   0  0  0  0  0  0  0  0  0  0  0  0
  -27.7440  -18.0460   20.3840 C   0  0  0  0  0  3  0  0  0  0  0  0
  -28.5520  -19.0380   19.7990 C   0  0  0  0  0  3  0  0  0  0  0  0
  -28.2850  -16.7890   20.7040 C   0  0  0  0  0  3  0  0  0  0  0  0
  -30.4540  -17.5140   19.8600 C   0  0  0  0  0  3  0  0  0  0  0  0
  -29.9180  -18.7910   19.5250 C   0  0  0  0  0  0  0  0  0  0  0  0
  -29.6400  -16.5060   20.4420 C   0  0  0  0  0  0  0  0  0  0  0  0
  -30.6750  -14.2840   20.0000 C   0  0  0  0  0  0  0  0  0  0  0  0
  -30.4490  -11.9980   19.0880 C   0  0  0  0  0  2  0  0  0  0  0  0
  -29.4430  -12.0210   17.9180 C   0  0  0  0  0  2  0  0  0  0  0  0
  -27.9920  -11.8850   18.4210 C   0  0  0  0  0  2  0  0  0  0  0  0
  -27.6750  -12.8570   19.5890 C   0  0  0  0  0  3  0  0  0  0  0  0
  -28.7750  -12.7700   20.6680 C   0  0  0  0  0  2  0  0  0  0  0  0
  -30.0760  -13.0630   20.0330 N   0  0  0  0  0  0  0  0  0  0  0  0
  -31.6830  -14.5320   19.3290 O   0  0  0  0  0  0  0  0  0  0  0  0
  -30.0870  -15.1970   20.7900 N   0  0  0  0  0  0  0  0  0  0  0  0
  -29.5100  -14.7530   21.4870 H   0  0  0  0  0  0  0  0  0  0  0  0
  -25.3270  -13.5010   20.4370 C   0  0  0  0  0  0  0  0  0  0  0  0
  -24.2760  -12.7420   20.8750 C   0  0  0  0  0  0  0  0  0  0  0  0
  -24.7180  -11.3850   20.8200 C   0  0  0  0  0  0  0  0  0  0  0  0
  -26.3480  -12.6060   20.1470 N   0  0  0  0  0  0  0  0  0  0  0  0
  -25.9850  -11.3290   20.4310 N   0  0  0  0  0  0  0  0  0  0  0  0
  -23.9910  -10.1330   21.0630 C   0  0  0  0  0  0  0  0  0  0  0  0
  -24.4150   -9.2120   22.0470 C   0  0  0  0  0  3  0  0  0  0  0  0
  -23.6900   -8.0230   22.2740 C   0  0  0  0  0  3  0  0  0  0  0  0
  -22.5280   -7.7450   21.5160 C   0  0  0  0  0  0  0  0  0  0  0  0
  -22.1230   -8.6540   20.5230 C   0  0  0  0  0  3  0  0  0  0  0  0
  -22.8480   -9.8350   20.2940 C   0  0  0  0  0  3  0  0  0  0  0  0
  -21.7750   -6.6030   21.6500 O   0  0  0  0  0  0  0  0  0  0  0  0
  -21.6570   -5.9540   22.8530 C   0  0  0  0  0  0  0  0  0  0  0  0
  -21.1210   -6.5920   23.9940 C   0  0  0  0  0  3  0  0  0  0  0  0
  -20.9530   -5.8680   25.1910 C   0  0  0  0  0  3  0  0  0  0  0  0
  -21.3110   -4.5080   25.2480 C   0  0  0  0  0  0  0  0  0  0  0  0
  -21.8400   -3.8690   24.1120 C   0  0  0  0  0  3  0  0  0  0  0  0
  -22.0090   -4.5910   22.9170 C   0  0  0  0  0  0  0  0  0  0  0  0
  -22.5000   -3.9660   21.8190 F   0  0  0  0  0  0  0  0  0  0  0  0
  -21.1430   -3.8090   26.3950 F   0  0  0  0  0  0  0  0  0  0  0  0
  -22.9040  -13.2350   21.2380 C   0  0  0  0  0  0  0  0  0  0  0  0
  -22.2310  -12.5550   22.1600 N   0  0  0  0  0  0  0  0  0  0  0  0
  -22.4380  -14.2570   20.7360 O   0  0  0  0  0  0  0  0  0  0  0  0
  -22.6230  -11.7280   22.5880 H   0  0  0  0  0  0  0  0  0  0  0  0
  -21.3130  -12.8650   22.4440 H   0  0  0  0  0  0  0  0  0  0  0  0
  -25.4960  -14.8690   20.2460 N   0  0  0  0  0  0  0  0  0  0  0  0
  -24.7470  -15.5340   20.4090 H   0  0  0  0  0  0  0  0  0  0  0  0
  -26.3370  -15.3010   19.8870 H   0  0  0  0  0  0  0  0  0  0  0  0
  -29.4130  -21.3930   17.5300 C   0  0  0  0  0  2  0  0  0  0  0  0
  -28.9080  -22.7710   17.2430 N   0  0  1  0  0  4  0  0  0  0  0  0
  -28.1150  -22.5440   16.6600 H   0  0  0  0  0  0  0  0  0  0  0  0
  -28.9900  -24.5040   19.0630 C   0  0  0  0  0  3  0  0  0  0  0  0
  -28.3340  -23.5310   18.4000 C   0  0  0  0  0  3  0  0  0  0  0  0
  -28.4140  -25.2940   20.2240 C   0  0  0  0  0  2  0  0  0  0  0  0
  -28.5020  -26.7050   20.0010 O   0  0  0  0  0  0  0  0  0  0  0  0
  -24.6830  -31.7450   23.2360 C   0  0  0  0  0  0  0  0  0  0  0  0
  -27.3230  -27.4120   20.0200 C   0  0  0  0  0  0  0  0  0  0  0  0
  -23.4800  -30.4180   21.5290 C   0  0  0  0  0  3  0  0  0  0  0  0
  -24.9350  -28.9200   20.0640 C   0  0  0  0  0  0  0  0  0  0  0  0
  -26.0090  -30.7660   21.3680 C   0  0  0  0  0  2  0  0  0  0  0  0
  -26.0890  -29.4200   20.6790 C   0  0  0  0  0  0  0  0  0  0  0  0
  -27.2880  -28.6740   20.6490 C   0  0  0  0  0  3  0  0  0  0  0  0
  -26.1520  -26.9200   19.4010 C   0  0  0  0  0  3  0  0  0  0  0  0
  -24.9600  -27.6670   19.4230 C   0  0  0  0  0  3  0  0  0  0  0  0
  -23.6960  -29.7840   20.1280 C   0  0  0  0  0  2  0  0  0  0  0  0
  -24.7430  -30.9890   22.1040 N   0  0  0  0  0  0  0  0  0  0  0  0
  -23.5990  -32.0070   23.7760 O   0  0  0  0  0  0  0  0  0  0  0  0
  -22.8090  -29.3690   22.4430 C   0  0  0  0  0  0  0  0  0  0  0  0
  -21.4800  -29.2290   22.3170 N   0  0  0  0  0  0  0  0  0  0  0  0
  -23.4810  -28.6870   23.2210 O   0  0  0  0  0  0  0  0  0  0  0  0
  -21.0010  -29.8310   21.6620 H   0  0  0  0  0  0  0  0  0  0  0  0
  -18.0730  -28.1310   22.8050 C   0  0  0  0  0  0  0  0  0  0  0  0
  -20.6430  -28.2770   23.0440 C   0  0  0  0  0  3  0  0  0  0  0  0
  -20.6820  -26.8810   22.3800 C   0  0  0  0  0  2  0  0  0  0  0  0
  -19.5510  -26.6620   21.3700 C   0  0  0  0  0  2  0  0  0  0  0  0
  -18.1870  -26.8190   22.0470 C   0  0  0  0  0  2  0  0  0  0  0  0
  -19.2270  -28.8240   23.2600 C   0  0  0  0  0  0  0  0  0  0  0  0
  -19.0670  -30.0570   23.9280 C   0  0  0  0  0  3  0  0  0  0  0  0
  -17.7850  -30.5960   24.1460 C   0  0  0  0  0  3  0  0  0  0  0  0
  -16.6470  -29.8990   23.7090 C   0  0  0  0  0  3  0  0  0  0  0  0
  -16.7920  -28.6680   23.0440 C   0  0  0  0  0  3  0  0  0  0  0  0
  -25.9690  -32.3380   23.8930 C   0  0  0  0  0  3  0  0  0  0  0  0
  -25.6760  -33.7300   24.2590 N   0  0  0  0  0  0  0  0  0  0  0  0
  -26.0320  -34.7980   23.5320 C   0  0  0  0  0  0  0  0  0  0  0  0
  -26.7100  -34.7140   22.5040 O   0  0  0  0  0  0  0  0  0  0  0  0
  -25.0760  -33.8710   25.0590 H   0  0  0  0  0  0  0  0  0  0  0  0
  -24.3240  -36.6170   23.2150 C   0  0  0  0  0  1  0  0  0  0  0  0
  -25.5570  -36.1790   24.0210 C   0  0  0  0  0  3  0  0  0  0  0  0
  -27.6960  -37.0220   24.8830 C   0  0  0  0  0  1  0  0  0  0  0  0
  -26.6020  -37.2240   23.9380 N   0  0  0  0  0  0  0  0  0  0  0  0
  -26.2050  -38.1450   24.1030 H   0  0  0  0  0  0  0  0  0  0  0  0
  -26.4580  -31.5210   25.1510 C   0  0  1  0  0  0  0  0  0  0  0  0
  -25.3480  -31.2640   26.1960 C   0  0  0  0  0  1  0  0  0  0  0  0
  -27.0280  -30.1490   24.7200 C   0  0  0  0  0  1  0  0  0  0  0  0
  -27.6110  -32.2770   25.8530 C   0  0  0  0  0  1  0  0  0  0  0  0
  -28.9600  -24.7110   15.6320 C   0  0  0  0  0  1  0  0  0  0  0  0
  -29.7360  -23.5500   16.2790 C   0  0  0  0  0  2  0  0  0  0  0  0
  1  3  1  0
  1  2  1  0
  2  4  1  0
  3  5  1  0
  4 50  1  0
  4  5  1  0
  5 10  1  0
  6  8  1  0
  7  6  2  0
  9 11  1  0
 10  7  1  0
 10  9  2  0
 11  8  2  0
 11 20  1  0
 12 18  1  0
 12 20  1  0
 13 18  1  0
 14 15  1  0
 14 13  1  0
 16 15  1  0
 16 25  1  0
 16 17  1  0
 18 17  1  0
 19 12  2  0
 20 21  1  0
 22 23  2  0
 23 42  1  0
 24 23  1  0
 24 27  1  0
 25 26  1  0
 25 22  1  0
 26 24  2  0
 27 28  1  0
 28 29  2  0
 30 33  1  0
 30 29  1  0
 31 30  2  0
 32 31  1  0
 32 27  2  0
 33 34  1  0
 34 39  2  0
 34 35  1  0
 35 36  2  0
 36 37  1  0
 37 41  1  0
 38 37  2  0
 39 38  1  0
 40 39  1  0
 42 43  1  0
 43 46  1  0
 43 45  1  0
 44 42  2  0
 47 48  1  0
 47 22  1  0
 49 47  1  0
 51 50  1  0
 51 54  1  0
 51 52  1  6
 53 55  1  0
 54 53  2  0
 56 58  1  0
 56 55  1  0
 57 68  2  0
 58 63  1  0
 59 67  1  0
 59 69  1  0
 60 66  1  0
 60 62  1  0
 61 67  1  0
 62 61  1  0
 63 62  2  0
 64 65  1  0
 64 58  2  0
 65 60  2  0
 66 59  1  0
 67 57  1  0
 69 71  2  0
 70 69  1  0
 72 70  1  0
 73 82  2  0
 73 78  1  0
 74 70  1  0
 74 78  1  0
 75 74  1  0
 76 77  1  0
 76 75  1  0
 77 73  1  0
 78 79  2  0
 79 80  1  0
 81 80  2  0
 82 81  1  0
 83 57  1  0
 83 84  1  0
 83 93  1  0
 84 87  1  0
 85 89  1  0
 85 84  1  0
 86 85  2  0
 89 88  1  0
 91 89  1  0
 91 92  1  0
 91 90  1  0
 93 96  1  1
 93 94  1  0
 95 93  1  0
 97 98  1  0
 98 51  1  0
M  ISO  4  12 100  20 100  55 101  56 101
M  END
>  <TORSDO>  (72) 
F 22

>  <SCORE>  (72) 
-12.615

>  <name>  (72) 
72

>  <ligand_id>  (72) 
72

>  <original_smiles>  (72) 
[H]C(=C([H])[N+]([H])(C([H])([H])C([H])([H])[H])C([H])([H])C1([H])N(c2c([H])c([H])c([H])c(N([H])C(=O)N3C([H])([H])C([H])([H])C([H])([H])C([H])(n4nc(-c5c([H])c([H])c(Oc6c([H])c([H])c(F)c([H])c6F)c([H])c5[H])c(C(=O)N([H])[H])c4N([H])[H])C3([H])[H])c2[H])C([H])([H])C([H])([H])C1([H])[H])C([H])([H])Oc1c([H])c([H])c2c(c1[H])C([H])([H])N(C(=O)C([H])(N([H])C(=O)C([H])(N([H])C([H])([H])[H])C([H])([H])[H])C(C([H])([H])[H])(C([H])([H])[H])C([H])([H])[H])C([H])(C(=O)N([H])C1([H])c3c([H])c([H])c([H])c([H])c3C([H])([H])C([H])([H])C1([H])[H])C2([H])[H]

>  <smiles>  (72) 
[H]C(=C([H])[N+]([H])(C([H])([H])C([H])([H])[H])C([H])([H])C1([H])N(c2c([H])c([H])c([H])c(N([H])C(=O)N3C([H])([H])C([H])([H])C([H])([H])C([H])(n4nc(-c5c([H])c([H])c(Oc6c([H])c([H])c(F)c([H])c6F)c([H])c5[H])c(C(=O)N([H])[H])c4N([H])[H])C3([H])[H])c2[H])C([H])([H])C([H])([H])C1([H])[H])C([H])([H])Oc1c([H])c([H])c2c(c1[H])C([H])([H])N(C(=O)C([H])(N([H])C(=O)C([H])(N([H])C([H])([H])[H])C([H])([H])[H])C(C([H])([H])[H])(C([H])([H])[H])C([H])([H])[H])C([H])(C(=O)N([H])C1([H])c3c([H])c([H])c([H])c([H])c3C([H])([H])C([H])([H])C1([H])[H])C2([H])[H]

$$$$
73:0:0
     RDKit          3D

 92101  0  0  1  0  0  0  0  0999 V2000
  -29.9990  -19.8400   18.7080 C   0  0  0  0  0  3  0  0  0  0  0  0
  -29.7050  -19.9720   21.0300 C   0  0  0  0  0  3  0  0  0  0  0  0
  -29.6920  -20.7270   19.8090 C   0  0  0  0  0  0  0  0  0  0  0  0
  -30.2460  -17.6600   20.0200 C   0  0  0  0  0  0  0  0  0  0  0  0
  -30.2660  -18.4070   18.7950 C   0  0  0  0  0  0  0  0  0  0  0  0
  -29.9400  -18.5350   21.1280 C   0  0  0  0  0  0  0  0  0  0  0  0
  -30.4900  -17.7300   17.6410 F   0  0  0  0  0  0  0  0  0  0  0  0
  -29.8100  -17.8220   22.6970 Cl  0  0  0  0  0  0  0  0  0  0  0  0
  -31.1260  -15.0380   19.7740 C   0  0  0  0  0  0  0  0  0  0  0  0
  -30.9870  -12.6780   18.8530 C   0  0  0  0  0  2  0  0  0  0  0  0
  -29.9260  -12.6350   17.7260 C   0  0  0  0  0  2  0  0  0  0  0  0
  -28.5170  -12.4040   18.3080 C   0  0  0  0  0  2  0  0  0  0  0  0
  -28.2280  -13.3180   19.5260 C   0  0  0  0  0  3  0  0  0  0  0  0
  -29.3940  -13.3130   20.5390 C   0  0  0  0  0  2  0  0  0  0  0  0
  -30.5960  -13.7490   19.8150 N   0  0  0  0  0  0  0  0  0  0  0  0
  -32.2570  -15.1730   19.2940 O   0  0  0  0  0  0  0  0  0  0  0  0
  -30.3220  -16.1300   20.1870 N   0  0  0  0  0  0  0  0  0  0  0  0
  -29.5510  -15.7930   20.7440 H   0  0  0  0  0  0  0  0  0  0  0  0
  -25.9770  -13.8840   20.6050 C   0  0  0  0  0  0  0  0  0  0  0  0
  -24.9390  -13.1040   21.0350 C   0  0  0  0  0  0  0  0  0  0  0  0
  -25.3460  -11.7510   20.8200 C   0  0  0  0  0  0  0  0  0  0  0  0
  -26.9500  -13.0080   20.1560 N   0  0  0  0  0  0  0  0  0  0  0  0
  -26.5860  -11.7130   20.3460 N   0  0  0  0  0  0  0  0  0  0  0  0
  -24.6030  -10.4950   20.9810 C   0  0  0  0  0  0  0  0  0  0  0  0
  -25.0100   -9.5090   21.9060 C   0  0  0  0  0  3  0  0  0  0  0  0
  -24.2680   -8.3170   22.0580 C   0  0  0  0  0  3  0  0  0  0  0  0
  -23.1030   -8.1050   21.2830 C   0  0  0  0  0  0  0  0  0  0  0  0
  -22.7140   -9.0790   20.3470 C   0  0  0  0  0  3  0  0  0  0  0  0
  -23.4580  -10.2610   20.1940 C   0  0  0  0  0  3  0  0  0  0  0  0
  -22.3330   -6.9680   21.3430 O   0  0  0  0  0  0  0  0  0  0  0  0
  -22.0780   -6.3340   22.5330 C   0  0  0  0  0  0  0  0  0  0  0  0
  -21.4230   -6.9880   23.6010 C   0  0  0  0  0  3  0  0  0  0  0  0
  -21.1200   -6.2770   24.7790 C   0  0  0  0  0  3  0  0  0  0  0  0
  -21.4610   -4.9160   24.8890 C   0  0  0  0  0  0  0  0  0  0  0  0
  -22.1090   -4.2630   23.8260 C   0  0  0  0  0  3  0  0  0  0  0  0
  -22.4140   -4.9710   22.6500 C   0  0  0  0  0  0  0  0  0  0  0  0
  -23.0190   -4.3320   21.6200 F   0  0  0  0  0  0  0  0  0  0  0  0
  -21.1640   -4.2310   26.0190 F   0  0  0  0  0  0  0  0  0  0  0  0
  -23.6040  -13.5870   21.5220 C   0  0  0  0  0  0  0  0  0  0  0  0
  -22.9670  -12.8350   22.4130 N   0  0  0  0  0  0  0  0  0  0  0  0
  -23.1400  -14.6650   21.1510 O   0  0  0  0  0  0  0  0  0  0  0  0
  -23.3570  -11.9610   22.7330 H   0  0  0  0  0  0  0  0  0  0  0  0
  -22.0780  -13.1390   22.7810 H   0  0  0  0  0  0  0  0  0  0  0  0
  -26.1660  -15.2620   20.5340 N   0  0  0  0  0  0  0  0  0  0  0  0
  -25.4340  -15.9160   20.7900 H   0  0  0  0  0  0  0  0  0  0  0  0
  -26.9660  -15.7100   20.1080 H   0  0  0  0  0  0  0  0  0  0  0  0
  -28.6280  -24.2230   18.4110 C   0  0  0  0  0  2  0  0  0  0  0  0
  -29.2990  -22.8000   18.3160 C   0  0  0  0  0  2  0  0  0  0  0  0
  -29.0260  -23.3520   20.5960 C   0  0  0  0  0  2  0  0  0  0  0  0
  -29.0190  -24.7870   19.7850 C   0  0  0  0  0  3  0  0  0  0  0  0
  -29.3680  -22.1860   19.6520 N   0  0  0  0  0  0  0  0  0  0  0  0
  -28.7870  -26.2780   20.2120 O   0  0  0  0  0  0  0  0  0  0  0  0
  -24.9410  -31.6860   23.3380 C   0  0  0  0  0  0  0  0  0  0  0  0
  -27.6570  -27.1660   20.1410 C   0  0  0  0  0  0  0  0  0  0  0  0
  -23.7940  -30.3540   21.6080 C   0  0  0  0  0  3  0  0  0  0  0  0
  -25.2910  -28.8620   20.1390 C   0  0  0  0  0  0  0  0  0  0  0  0
  -26.3420  -30.6660   21.5040 C   0  0  0  0  0  2  0  0  0  0  0  0
  -26.4470  -29.3070   20.7920 C   0  0  0  0  0  0  0  0  0  0  0  0
  -27.6240  -28.4740   20.7730 C   0  0  0  0  0  3  0  0  0  0  0  0
  -26.4740  -26.8120   19.4610 C   0  0  0  0  0  3  0  0  0  0  0  0
  -25.3180  -27.6300   19.4610 C   0  0  0  0  0  3  0  0  0  0  0  0
  -24.0490  -29.7390   20.2050 C   0  0  0  0  0  2  0  0  0  0  0  0
  -25.0440  -30.9230   22.2070 N   0  0  0  0  0  0  0  0  0  0  0  0
  -23.8410  -31.9290   23.8590 O   0  0  0  0  0  0  0  0  0  0  0  0
  -23.1120  -29.2960   22.5100 C   0  0  0  0  0  0  0  0  0  0  0  0
  -21.7950  -29.0890   22.3250 N   0  0  0  0  0  0  0  0  0  0  0  0
  -23.7710  -28.6630   23.3390 O   0  0  0  0  0  0  0  0  0  0  0  0
  -21.3190  -29.6500   21.6320 H   0  0  0  0  0  0  0  0  0  0  0  0
  -18.4450  -27.7530   22.6370 C   0  0  0  0  0  0  0  0  0  0  0  0
  -20.9770  -28.1000   23.0310 C   0  0  0  0  0  3  0  0  0  0  0  0
  -21.1590  -26.6900   22.4210 C   0  0  0  0  0  2  0  0  0  0  0  0
  -20.1180  -26.3600   21.3480 C   0  0  0  0  0  2  0  0  0  0  0  0
  -18.7030  -26.4350   21.9280 C   0  0  0  0  0  2  0  0  0  0  0  0
  -19.5120  -28.5430   23.1410 C   0  0  0  0  0  0  0  0  0  0  0  0
  -19.2180  -29.7760   23.7610 C   0  0  0  0  0  3  0  0  0  0  0  0
  -17.8890  -30.2220   23.8830 C   0  0  0  0  0  3  0  0  0  0  0  0
  -16.8360  -29.4310   23.3960 C   0  0  0  0  0  3  0  0  0  0  0  0
  -17.1120  -28.1990   22.7790 C   0  0  0  0  0  3  0  0  0  0  0  0
  -26.1970  -32.3100   24.0220 C   0  0  0  0  0  3  0  0  0  0  0  0
  -25.8690  -33.6960   24.3870 N   0  0  0  0  0  0  0  0  0  0  0  0
  -26.1800  -34.7750   23.6560 C   0  0  0  0  0  0  0  0  0  0  0  0
  -26.8390  -34.7080   22.6170 O   0  0  0  0  0  0  0  0  0  0  0  0
  -25.2840  -33.8210   25.2010 H   0  0  0  0  0  0  0  0  0  0  0  0
  -24.4080  -36.5430   23.3920 C   0  0  0  0  0  1  0  0  0  0  0  0
  -25.6810  -36.1460   24.1580 C   0  0  0  0  0  3  0  0  0  0  0  0
  -27.8150  -37.0650   24.9520 C   0  0  0  0  0  1  0  0  0  0  0  0
  -26.6900  -37.2210   24.0350 N   0  0  0  0  0  0  0  0  0  0  0  0
  -26.2670  -38.1310   24.2040 H   0  0  0  0  0  0  0  0  0  0  0  0
  -26.6740  -31.5060   25.2940 C   0  0  1  0  0  0  0  0  0  0  0  0
  -25.5460  -31.2340   26.3170 C   0  0  0  0  0  1  0  0  0  0  0  0
  -27.2790  -30.1430   24.8860 C   0  0  0  0  0  1  0  0  0  0  0  0
  -27.7980  -32.2870   26.0160 C   0  0  0  0  0  1  0  0  0  0  0  0
  1  5  2  0
  1  3  1  0
  2  6  1  0
  3  2  2  0
  4 17  1  0
  4  6  2  0
  5  4  1  0
  6  8  1  0
  7  5  1  0
  9 15  1  0
  9 17  1  0
 10 15  1  0
 11 12  1  0
 11 10  1  0
 13 12  1  0
 13 22  1  0
 13 14  1  0
 15 14  1  0
 16  9  2  0
 17 18  1  0
 19 20  2  0
 20 39  1  0
 21 24  1  0
 21 20  1  0
 22 23  1  0
 22 19  1  0
 23 21  2  0
 24 25  1  0
 25 26  2  0
 27 30  1  0
 27 26  1  0
 28 27  2  0
 29 28  1  0
 29 24  2  0
 30 31  1  0
 31 36  2  0
 31 32  1  0
 32 33  2  0
 33 34  1  0
 34 38  1  0
 35 34  2  0
 36 35  1  0
 37 36  1  0
 39 40  1  0
 40 42  1  0
 40 43  1  0
 41 39  2  0
 44 19  1  0
 44 45  1  0
 46 44  1  0
 47 50  1  0
 48 47  1  0
 48 51  1  0
 50 52  1  0
 50 49  1  0
 51  3  1  0
 51 49  1  0
 53 64  2  0
 54 52  1  0
 54 59  1  0
 55 63  1  0
 55 65  1  0
 56 62  1  0
 56 58  1  0
 57 63  1  0
 58 57  1  0
 59 58  2  0
 60 61  1  0
 60 54  2  0
 61 56  2  0
 62 55  1  0
 63 53  1  0
 65 67  2  0
 66 65  1  0
 68 66  1  0
 69 78  2  0
 69 74  1  0
 70 66  1  0
 70 74  1  0
 71 70  1  0
 72 73  1  0
 72 71  1  0
 73 69  1  0
 74 75  2  0
 75 76  1  0
 77 76  2  0
 78 77  1  0
 79 53  1  0
 79 80  1  0
 79 89  1  0
 80 83  1  0
 81 85  1  0
 81 80  1  0
 82 81  2  0
 85 84  1  0
 87 85  1  0
 87 88  1  0
 87 86  1  0
 89 92  1  1
 89 90  1  0
 91 89  1  0
M  ISO  4   9 100  17 100  50 101  52 101
M  END
>  <TORSDO>  (73) 
F 17

>  <SCORE>  (73) 
-12.329

>  <name>  (73) 
73

>  <ligand_id>  (73) 
73

>  <original_smiles>  (73) 
[H]c1c([H])c([H])c2c(c1[H])C([H])([H])C([H])([H])C([H])([H])C2([H])N([H])C(=O)C1([H])N(C(=O)C([H])(N([H])C(=O)C([H])(N([H])C([H])([H])[H])C([H])([H])[H])C(C([H])([H])[H])(C([H])([H])[H])C([H])([H])[H])C([H])([H])c2c([H])c(OC3([H])C([H])([H])N(c4c([H])c(F)c(N([H])C(=O)N5C([H])([H])C([H])([H])C([H])([H])C([H])(n6nc(-c7c([H])c([H])c(Oc8c([H])c([H])c(F)c([H])c8F)c([H])c7[H])c(C(=O)N([H])[H])c6N([H])[H])C5([H])[H])c(Cl)c4[H])C([H])([H])C3([H])[H])c([H])c([H])c2C1([H])[H]

>  <smiles>  (73) 
[H]c1c([H])c([H])c2c(c1[H])C([H])([H])C([H])([H])C([H])([H])C2([H])N([H])C(=O)C1([H])N(C(=O)C([H])(N([H])C(=O)C([H])(N([H])C([H])([H])[H])C([H])([H])[H])C(C([H])([H])[H])(C([H])([H])[H])C([H])([H])[H])C([H])([H])c2c([H])c(OC3([H])C([H])([H])N(c4c([H])c(F)c(N([H])C(=O)N5C([H])([H])C([H])([H])C([H])([H])C([H])(n6nc(-c7c([H])c([H])c(Oc8c([H])c([H])c(F)c([H])c8F)c([H])c7[H])c(C(=O)N([H])[H])c6N([H])[H])C5([H])[H])c(Cl)c4[H])C([H])([H])C3([H])[H])c([H])c([H])c2C1([H])[H]

$$$$
74:0:0
     RDKit          3D

 94103  0  0  1  0  0  0  0  0999 V2000
  -30.7400  -19.2570   20.9230 C   0  0  0  0  0  3  0  0  0  0  0  0
  -30.5410  -20.6480   21.1310 C   0  0  0  0  0  3  0  0  0  0  0  0
  -29.8970  -18.5070   20.0750 C   0  0  0  0  0  0  0  0  0  0  0  0
  -29.5170  -21.4030   20.4860 C   0  0  0  0  0  0  0  0  0  0  0  0
  -28.8130  -19.2190   19.4890 C   0  0  0  0  0  0  0  0  0  0  0  0
  -28.6190  -20.6250   19.6930 C   0  0  0  0  0  0  0  0  0  0  0  0
  -27.9670  -18.5600   18.6610 F   0  0  0  0  0  0  0  0  0  0  0  0
  -27.5760  -21.2200   19.0650 F   0  0  0  0  0  0  0  0  0  0  0  0
  -30.6920  -23.9420   18.8700 C   0  0  0  0  0  2  0  0  0  0  0  0
  -29.1860  -24.0830   18.6320 C   0  0  0  0  0  2  0  0  0  0  0  0
  -30.8130  -23.4280   20.3110 C   0  0  0  0  0  2  0  0  0  0  0  0
  -28.5570  -23.8270   20.0080 C   0  0  0  0  0  3  0  0  0  0  0  0
  -29.5070  -22.8480   20.6350 N   0  0  0  0  0  0  0  0  0  0  0  0
  -28.3160  -25.1800   20.8480 C   0  0  0  0  0  2  0  0  0  0  0  0
  -28.4230  -26.5360   20.2660 O   0  0  0  0  0  0  0  0  0  0  0  0
  -24.6170  -31.9180   23.2500 C   0  0  0  0  0  0  0  0  0  0  0  0
  -27.2860  -27.3490   20.2740 C   0  0  0  0  0  0  0  0  0  0  0  0
  -23.4320  -30.4840   21.6260 C   0  0  0  0  0  3  0  0  0  0  0  0
  -24.9020  -28.9200   20.2360 C   0  0  0  0  0  0  0  0  0  0  0  0
  -25.9690  -30.8210   21.4510 C   0  0  0  0  0  2  0  0  0  0  0  0
  -26.0650  -29.4380   20.8200 C   0  0  0  0  0  0  0  0  0  0  0  0
  -27.2630  -28.6650   20.8240 C   0  0  0  0  0  3  0  0  0  0  0  0
  -26.1010  -26.8660   19.6860 C   0  0  0  0  0  3  0  0  0  0  0  0
  -24.9190  -27.6360   19.6640 C   0  0  0  0  0  3  0  0  0  0  0  0
  -23.6600  -29.7890   20.2580 C   0  0  0  0  0  2  0  0  0  0  0  0
  -24.6910  -31.0940   22.1640 N   0  0  0  0  0  0  0  0  0  0  0  0
  -23.5290  -32.1950   23.7750 O   0  0  0  0  0  0  0  0  0  0  0  0
  -22.7750  -29.4760   22.5970 C   0  0  0  0  0  0  0  0  0  0  0  0
  -21.4510  -29.2850   22.4680 N   0  0  0  0  0  0  0  0  0  0  0  0
  -23.4560  -28.8670   23.4270 O   0  0  0  0  0  0  0  0  0  0  0  0
  -20.9580  -29.8280   21.7730 H   0  0  0  0  0  0  0  0  0  0  0  0
  -18.0790  -28.0870   22.9810 C   0  0  0  0  0  0  0  0  0  0  0  0
  -20.6360  -28.3540   23.2490 C   0  0  0  0  0  3  0  0  0  0  0  0
  -20.7430  -26.9170   22.6900 C   0  0  0  0  0  2  0  0  0  0  0  0
  -19.6450  -26.5800   21.6780 C   0  0  0  0  0  2  0  0  0  0  0  0
  -18.2600  -26.7300   22.3170 C   0  0  0  0  0  2  0  0  0  0  0  0
  -19.1960  -28.8560   23.4030 C   0  0  0  0  0  0  0  0  0  0  0  0
  -18.9750  -30.1250   23.9780 C   0  0  0  0  0  3  0  0  0  0  0  0
  -17.6690  -30.6260   24.1410 C   0  0  0  0  0  3  0  0  0  0  0  0
  -16.5670  -29.8550   23.7350 C   0  0  0  0  0  3  0  0  0  0  0  0
  -16.7710  -28.5880   23.1610 C   0  0  0  0  0  3  0  0  0  0  0  0
  -25.8940  -32.5690   23.8680 C   0  0  0  0  0  3  0  0  0  0  0  0
  -26.4190  -31.8160   25.1510 C   0  0  1  0  0  0  0  0  0  0  0  0
  -25.3240  -31.5690   26.2150 C   0  0  0  0  0  1  0  0  0  0  0  0
  -27.0310  -30.4450   24.7750 C   0  0  0  0  0  1  0  0  0  0  0  0
  -27.5490  -32.6370   25.8170 C   0  0  0  0  0  1  0  0  0  0  0  0
  -25.5720  -33.9670   24.1860 N   0  0  0  0  0  0  0  0  0  0  0  0
  -25.8920  -35.0170   23.4210 C   0  0  0  0  0  0  0  0  0  0  0  0
  -26.5600  -34.9140   22.3880 O   0  0  0  0  0  0  0  0  0  0  0  0
  -24.9810  -34.1240   24.9910 H   0  0  0  0  0  0  0  0  0  0  0  0
  -24.1420  -36.7860   23.0550 C   0  0  0  0  0  1  0  0  0  0  0  0
  -25.3880  -36.4010   23.8670 C   0  0  0  0  0  3  0  0  0  0  0  0
  -27.5130  -37.3170   24.6900 C   0  0  0  0  0  1  0  0  0  0  0  0
  -26.4090  -37.4670   23.7470 N   0  0  0  0  0  0  0  0  0  0  0  0
  -25.9890  -38.3810   23.8940 H   0  0  0  0  0  0  0  0  0  0  0  0
  -30.2810  -17.0470   19.6310 C   0  0  0  0  0  2  0  0  0  0  0  0
  -30.7950  -14.6510   20.1650 C   0  0  0  0  0  0  0  0  0  0  0  0
  -30.4300  -12.4720   19.0270 C   0  0  0  0  0  2  0  0  0  0  0  0
  -29.4440  -12.6400   17.8520 C   0  0  0  0  0  2  0  0  0  0  0  0
  -27.9920  -12.4780   18.3380 C   0  0  0  0  0  2  0  0  0  0  0  0
  -27.6960  -13.3220   19.6060 C   0  0  0  0  0  3  0  0  0  0  0  0
  -28.7960  -13.1410   20.6750 C   0  0  0  0  0  2  0  0  0  0  0  0
  -30.0830  -13.4810   20.0520 N   0  0  0  0  0  0  0  0  0  0  0  0
  -31.9260  -14.7290   19.6750 O   0  0  0  0  0  0  0  0  0  0  0  0
  -29.6740  -16.0420   21.8710 C   0  0  0  0  0  1  0  0  0  0  0  0
  -30.1250  -15.8150   20.4940 N   0  0  0  0  0  0  0  0  0  0  0  0
  -25.3340  -13.9180   20.4200 C   0  0  0  0  0  0  0  0  0  0  0  0
  -24.2780  -13.1430   20.8160 C   0  0  0  0  0  0  0  0  0  0  0  0
  -24.7350  -11.7900   20.7580 C   0  0  0  0  0  0  0  0  0  0  0  0
  -26.3660  -13.0380   20.1400 N   0  0  0  0  0  0  0  0  0  0  0  0
  -26.0140  -11.7530   20.4040 N   0  0  0  0  0  0  0  0  0  0  0  0
  -24.0130  -10.5280   20.9580 C   0  0  0  0  0  0  0  0  0  0  0  0
  -24.4600   -9.5610   21.8870 C   0  0  0  0  0  3  0  0  0  0  0  0
  -23.7380   -8.3640   22.0780 C   0  0  0  0  0  3  0  0  0  0  0  0
  -22.5550   -8.1230   21.3400 C   0  0  0  0  0  0  0  0  0  0  0  0
  -22.1270   -9.0770   20.4010 C   0  0  0  0  0  3  0  0  0  0  0  0
  -22.8490  -10.2660   20.2070 C   0  0  0  0  0  3  0  0  0  0  0  0
  -21.8050   -6.9750   21.4380 O   0  0  0  0  0  0  0  0  0  0  0  0
  -21.7490   -6.2510   22.6020 C   0  0  0  0  0  0  0  0  0  0  0  0
  -21.2990   -6.8190   23.8140 C   0  0  0  0  0  3  0  0  0  0  0  0
  -21.1910   -6.0200   24.9690 C   0  0  0  0  0  3  0  0  0  0  0  0
  -21.5230   -4.6530   24.9140 C   0  0  0  0  0  0  0  0  0  0  0  0
  -21.9670   -4.0830   23.7070 C   0  0  0  0  0  3  0  0  0  0  0  0
  -22.0750   -4.8810   22.5530 C   0  0  0  0  0  0  0  0  0  0  0  0
  -22.4820   -4.3220   21.3880 F   0  0  0  0  0  0  0  0  0  0  0  0
  -21.4120   -3.8830   26.0210 F   0  0  0  0  0  0  0  0  0  0  0  0
  -22.8920  -13.6200   21.1400 C   0  0  0  0  0  0  0  0  0  0  0  0
  -22.1970  -12.9150   22.0270 N   0  0  0  0  0  0  0  0  0  0  0  0
  -22.4350  -14.6500   20.6450 O   0  0  0  0  0  0  0  0  0  0  0  0
  -22.5800  -12.0810   22.4450 H   0  0  0  0  0  0  0  0  0  0  0  0
  -21.2660  -13.2110   22.2880 H   0  0  0  0  0  0  0  0  0  0  0  0
  -25.5000  -15.2890   20.2520 N   0  0  0  0  0  0  0  0  0  0  0  0
  -24.7500  -15.9540   20.4010 H   0  0  0  0  0  0  0  0  0  0  0  0
  -26.3520  -15.7220   19.9160 H   0  0  0  0  0  0  0  0  0  0  0  0
  1  2  1  0
  3  1  2  0
  4 13  1  0
  4  2  2  0
  5  6  2  0
  5  3  1  0
  6  4  1  0
  7  5  1  0
  8  6  1  0
  9 11  1  0
 10  9  1  0
 10 12  1  0
 11 13  1  0
 12 13  1  0
 12 14  1  0
 15 17  1  0
 15 14  1  0
 16 27  2  0
 17 22  1  0
 18 26  1  0
 18 28  1  0
 19 25  1  0
 19 21  1  0
 20 26  1  0
 21 22  2  0
 21 20  1  0
 23 17  2  0
 24 23  1  0
 24 19  2  0
 25 18  1  0
 26 16  1  0
 28 30  2  0
 29 28  1  0
 31 29  1  0
 32 41  2  0
 32 37  1  0
 33 29  1  0
 33 37  1  0
 34 33  1  0
 35 36  1  0
 35 34  1  0
 36 32  1  0
 37 38  2  0
 38 39  1  0
 40 39  2  0
 41 40  1  0
 42 16  1  0
 42 47  1  0
 42 43  1  0
 43 46  1  1
 43 44  1  0
 45 43  1  0
 47 50  1  0
 48 52  1  0
 48 47  1  0
 49 48  2  0
 52 51  1  0
 54 52  1  0
 54 55  1  0
 54 53  1  0
 56  3  1  0
 56 66  1  0
 57 66  1  0
 58 63  1  0
 59 60  1  0
 59 58  1  0
 61 60  1  0
 61 70  1  0
 61 62  1  0
 63 57  1  0
 63 62  1  0
 64 57  2  0
 66 65  1  0
 67 68  2  0
 68 87  1  0
 69 68  1  0
 69 72  1  0
 70 71  1  0
 70 67  1  0
 71 69  2  0
 72 73  1  0
 73 74  2  0
 75 78  1  0
 75 74  1  0
 76 75  2  0
 77 76  1  0
 77 72  2  0
 78 79  1  0
 79 80  1  0
 80 81  2  0
 82 81  1  0
 82 86  1  0
 83 82  2  0
 84 79  2  0
 84 83  1  0
 85 84  1  0
 87 88  1  0
 88 91  1  0
 88 90  1  0
 89 87  2  0
 92 93  1  0
 92 67  1  0
 94 92  1  0
M  ISO  4  14 101  15 101  57 100  66 100
M  END
>  <TORSDO>  (74) 
F 19

>  <SCORE>  (74) 
-14.236

>  <name>  (74) 
74

>  <ligand_id>  (74) 
74

>  <original_smiles>  (74) 
[H]c1c([H])c([H])c2c(c1[H])C([H])([H])C([H])([H])C([H])([H])C2([H])N([H])C(=O)C1([H])N(C(=O)C([H])(N([H])C(=O)C([H])(N([H])C([H])([H])[H])C([H])([H])[H])C(C([H])([H])[H])(C([H])([H])[H])C([H])([H])[H])C([H])([H])c2c([H])c(OC([H])([H])C3([H])N(c4c([H])c([H])c(C([H])([H])N(C(=O)N5C([H])([H])C([H])([H])C([H])([H])C([H])(n6nc(-c7c([H])c([H])c(Oc8c([H])c([H])c(F)c([H])c8F)c([H])c7[H])c(C(=O)N([H])[H])c6N([H])[H])C5([H])[H])C([H])([H])[H])c(F)c4F)C([H])([H])C([H])([H])C3([H])[H])c([H])c([H])c2C1([H])[H]

>  <smiles>  (74) 
[H]c1c([H])c([H])c2c(c1[H])C([H])([H])C([H])([H])C([H])([H])C2([H])N([H])C(=O)C1([H])N(C(=O)C([H])(N([H])C(=O)C([H])(N([H])C([H])([H])[H])C([H])([H])[H])C(C([H])([H])[H])(C([H])([H])[H])C([H])([H])[H])C([H])([H])c2c([H])c(OC([H])([H])C3([H])N(c4c([H])c([H])c(C([H])([H])N(C(=O)N5C([H])([H])C([H])([H])C([H])([H])C([H])(n6nc(-c7c([H])c([H])c(Oc8c([H])c([H])c(F)c([H])c8F)c([H])c7[H])c(C(=O)N([H])[H])c6N([H])[H])C5([H])[H])C([H])([H])[H])c(F)c4F)C([H])([H])C([H])([H])C3([H])[H])c([H])c([H])c2C1([H])[H]

$$$$
75:0:0
     RDKit          3D

 94103  0  0  1  0  0  0  0  0999 V2000
  -30.1590  -22.3730   21.1090 C   0  0  0  0  0  3  0  0  0  0  0  0
  -29.9160  -23.5640   20.4900 C   0  0  0  0  0  2  0  0  0  0  0  0
  -31.1180  -22.3440   22.2830 C   0  0  0  0  0  2  0  0  0  0  0  0
  -30.3980  -21.4700   23.3120 C   0  0  0  0  0  2  0  0  0  0  0  0
  -29.0750  -21.1280   22.6150 C   0  0  0  0  0  2  0  0  0  0  0  0
  -29.3520  -21.2220   21.1770 N   0  0  0  0  0  0  0  0  0  0  0  0
  -30.9680  -19.2890   21.0140 C   0  0  0  0  0  3  0  0  0  0  0  0
  -31.1820  -17.8810   20.9350 C   0  0  0  0  0  3  0  0  0  0  0  0
  -28.8620  -17.5940   20.3350 C   0  0  0  0  0  3  0  0  0  0  0  0
  -28.6490  -18.9930   20.3930 C   0  0  0  0  0  0  0  0  0  0  0  0
  -29.6850  -19.8750   20.8090 C   0  0  0  0  0  0  0  0  0  0  0  0
  -30.1090  -17.0040   20.6370 C   0  0  0  0  0  0  0  0  0  0  0  0
  -27.2590  -19.5180   20.0620 C   0  0  0  0  0  1  0  0  0  0  0  0
  -30.9260  -14.6040   20.1340 C   0  0  0  0  0  0  0  0  0  0  0  0
  -30.6330  -12.4360   18.9580 C   0  0  0  0  0  2  0  0  0  0  0  0
  -29.6510  -12.6660   17.7860 C   0  0  0  0  0  2  0  0  0  0  0  0
  -28.1810  -12.5580   18.2490 C   0  0  0  0  0  2  0  0  0  0  0  0
  -27.9020  -13.3730   19.5390 C   0  0  0  0  0  3  0  0  0  0  0  0
  -28.9790  -13.0750   20.6080 C   0  0  0  0  0  2  0  0  0  0  0  0
  -30.2940  -13.3980   20.0200 N   0  0  0  0  0  0  0  0  0  0  0  0
  -32.0520  -14.8120   19.6680 O   0  0  0  0  0  0  0  0  0  0  0  0
  -30.1380  -15.5630   20.6820 N   0  0  0  0  0  0  0  0  0  0  0  0
  -29.2810  -15.1560   21.0220 H   0  0  0  0  0  0  0  0  0  0  0  0
  -25.5410  -14.0560   20.3070 C   0  0  0  0  0  0  0  0  0  0  0  0
  -24.4580  -13.3170   20.7010 C   0  0  0  0  0  0  0  0  0  0  0  0
  -24.8730  -11.9500   20.6460 C   0  0  0  0  0  0  0  0  0  0  0  0
  -26.5510  -13.1410   20.0460 N   0  0  0  0  0  0  0  0  0  0  0  0
  -26.1530  -11.8700   20.3040 N   0  0  0  0  0  0  0  0  0  0  0  0
  -24.1100  -10.7110   20.8410 C   0  0  0  0  0  0  0  0  0  0  0  0
  -24.5130   -9.7370   21.7800 C   0  0  0  0  0  3  0  0  0  0  0  0
  -23.7540   -8.5620   21.9620 C   0  0  0  0  0  3  0  0  0  0  0  0
  -22.5780   -8.3520   21.2050 C   0  0  0  0  0  0  0  0  0  0  0  0
  -22.1920   -9.3150   20.2560 C   0  0  0  0  0  3  0  0  0  0  0  0
  -22.9520  -10.4820   20.0710 C   0  0  0  0  0  3  0  0  0  0  0  0
  -21.7940   -7.2270   21.2950 O   0  0  0  0  0  0  0  0  0  0  0  0
  -21.6830   -6.5210   22.4650 C   0  0  0  0  0  0  0  0  0  0  0  0
  -21.2310   -7.1230   23.6600 C   0  0  0  0  0  3  0  0  0  0  0  0
  -21.0630   -6.3430   24.8220 C   0  0  0  0  0  3  0  0  0  0  0  0
  -21.3380   -4.9640   24.7900 C   0  0  0  0  0  0  0  0  0  0  0  0
  -21.7830   -4.3610   23.6000 C   0  0  0  0  0  3  0  0  0  0  0  0
  -21.9520   -5.1380   22.4400 C   0  0  0  0  0  0  0  0  0  0  0  0
  -22.3590   -4.5480   21.2910 F   0  0  0  0  0  0  0  0  0  0  0  0
  -21.1700   -4.2120   25.9030 F   0  0  0  0  0  0  0  0  0  0  0  0
  -23.0840  -13.8380   21.0120 C   0  0  0  0  0  0  0  0  0  0  0  0
  -22.3640  -13.1720   21.9080 N   0  0  0  0  0  0  0  0  0  0  0  0
  -22.6590  -14.8710   20.4960 O   0  0  0  0  0  0  0  0  0  0  0  0
  -22.7210  -12.3360   22.3460 H   0  0  0  0  0  0  0  0  0  0  0  0
  -21.4440  -13.5040   22.1600 H   0  0  0  0  0  0  0  0  0  0  0  0
  -25.7420  -15.4210   20.1280 N   0  0  0  0  0  0  0  0  0  0  0  0
  -24.9750  -16.0780   20.2100 H   0  0  0  0  0  0  0  0  0  0  0  0
  -26.5490  -15.8110   19.6580 H   0  0  0  0  0  0  0  0  0  0  0  0
  -28.7570  -24.0280   19.5940 C   0  0  0  0  0  2  0  0  0  0  0  0
  -28.9660  -25.4420   18.9290 C   0  0  0  0  0  2  0  0  0  0  0  0
  -28.7560  -26.6330   19.7430 O   0  0  0  0  0  0  0  0  0  0  0  0
  -24.7080  -31.5790   22.9830 C   0  0  0  0  0  0  0  0  0  0  0  0
  -27.5450  -27.3250   19.7370 C   0  0  0  0  0  0  0  0  0  0  0  0
  -23.5680  -30.1940   21.2840 C   0  0  0  0  0  3  0  0  0  0  0  0
  -25.0890  -28.7710   19.8070 C   0  0  0  0  0  0  0  0  0  0  0  0
  -26.0830  -30.6520   21.1140 C   0  0  0  0  0  2  0  0  0  0  0  0
  -26.2270  -29.3080   20.4170 C   0  0  0  0  0  0  0  0  0  0  0  0
  -27.4530  -28.5930   20.3790 C   0  0  0  0  0  3  0  0  0  0  0  0
  -26.3730  -26.8080   19.1390 C   0  0  0  0  0  3  0  0  0  0  0  0
  -25.1590  -27.5220   19.1680 C   0  0  0  0  0  3  0  0  0  0  0  0
  -23.8110  -29.5790   19.8810 C   0  0  0  0  0  2  0  0  0  0  0  0
  -24.8040  -30.8240   21.8510 N   0  0  0  0  0  0  0  0  0  0  0  0
  -23.6130  -31.7820   23.5280 O   0  0  0  0  0  0  0  0  0  0  0  0
  -22.9570  -29.1090   22.2010 C   0  0  0  0  0  0  0  0  0  0  0  0
  -21.6340  -28.9050   22.0920 N   0  0  0  0  0  0  0  0  0  0  0  0
  -23.6710  -28.4570   22.9690 O   0  0  0  0  0  0  0  0  0  0  0  0
  -21.1160  -29.4830   21.4440 H   0  0  0  0  0  0  0  0  0  0  0  0
  -18.2920  -27.6410   22.6350 C   0  0  0  0  0  0  0  0  0  0  0  0
  -20.8550  -27.9100   22.8300 C   0  0  0  0  0  3  0  0  0  0  0  0
  -20.9490  -26.5200   22.1560 C   0  0  0  0  0  2  0  0  0  0  0  0
  -19.8150  -26.2530   21.1630 C   0  0  0  0  0  2  0  0  0  0  0  0
  -18.4550  -26.3420   21.8640 C   0  0  0  0  0  2  0  0  0  0  0  0
  -19.4180  -28.3860   23.0740 C   0  0  0  0  0  0  0  0  0  0  0  0
  -19.2090  -29.6040   23.7550 C   0  0  0  0  0  3  0  0  0  0  0  0
  -17.9070  -30.0790   23.9990 C   0  0  0  0  0  3  0  0  0  0  0  0
  -16.7950  -29.3300   23.5750 C   0  0  0  0  0  3  0  0  0  0  0  0
  -16.9880  -28.1120   22.8990 C   0  0  0  0  0  3  0  0  0  0  0  0
  -25.9610  -32.2440   23.6320 C   0  0  0  0  0  3  0  0  0  0  0  0
  -26.5120  -31.4460   24.8760 C   0  0  1  0  0  0  0  0  0  0  0  0
  -25.4320  -31.1200   25.9340 C   0  0  0  0  0  1  0  0  0  0  0  0
  -27.1540  -30.1130   24.4280 C   0  0  0  0  0  1  0  0  0  0  0  0
  -27.6290  -32.2620   25.5680 C   0  0  0  0  0  1  0  0  0  0  0  0
  -25.5880  -33.6110   24.0180 N   0  0  0  0  0  0  0  0  0  0  0  0
  -25.8820  -34.7090   23.3070 C   0  0  0  0  0  0  0  0  0  0  0  0
  -26.5650  -34.6760   22.2790 O   0  0  0  0  0  0  0  0  0  0  0  0
  -24.9810  -33.7060   24.8190 H   0  0  0  0  0  0  0  0  0  0  0  0
  -24.0800  -36.4360   23.0110 C   0  0  0  0  0  1  0  0  0  0  0  0
  -25.3320  -36.0540   23.8170 C   0  0  0  0  0  3  0  0  0  0  0  0
  -27.4180  -36.9970   24.7020 C   0  0  0  0  0  1  0  0  0  0  0  0
  -26.3170  -37.1560   23.7560 N   0  0  0  0  0  0  0  0  0  0  0  0
  -25.8700  -38.0510   23.9350 H   0  0  0  0  0  0  0  0  0  0  0  0
  1  2  1  0
  1  6  1  0
  1  3  1  0
  3  4  1  0
  5  4  1  0
  6  5  1  0
  8  7  1  0
  9 10  2  0
  9 12  1  0
 10 11  1  0
 11  7  2  0
 11  6  1  0
 12 22  1  0
 12  8  2  0
 13 10  1  0
 14 22  1  0
 15 20  1  0
 16 17  1  0
 16 15  1  0
 18 17  1  0
 18 27  1  0
 18 19  1  0
 20 14  1  0
 20 19  1  0
 21 14  2  0
 22 23  1  0
 24 25  2  0
 25 44  1  0
 26 25  1  0
 26 29  1  0
 27 28  1  0
 27 24  1  0
 28 26  2  0
 29 30  1  0
 30 31  2  0
 32 35  1  0
 32 31  1  0
 33 32  2  0
 34 33  1  0
 34 29  2  0
 35 36  1  0
 36 37  1  0
 37 38  2  0
 39 38  1  0
 39 43  1  0
 40 39  2  0
 41 36  2  0
 41 40  1  0
 42 41  1  0
 44 45  1  0
 45 48  1  0
 45 47  1  0
 46 44  2  0
 49 50  1  0
 49 24  1  0
 51 49  1  0
 52  2  1  0
 53 52  1  0
 53 54  1  0
 55 66  2  0
 56 54  1  0
 56 61  1  0
 57 65  1  0
 57 67  1  0
 58 64  1  0
 58 60  1  0
 59 65  1  0
 60 59  1  0
 61 60  2  0
 62 63  1  0
 62 56  2  0
 63 58  2  0
 64 57  1  0
 65 55  1  0
 67 69  2  0
 68 67  1  0
 70 68  1  0
 71 80  2  0
 71 76  1  0
 72 68  1  0
 72 76  1  0
 73 72  1  0
 74 75  1  0
 74 73  1  0
 75 71  1  0
 76 77  2  0
 77 78  1  0
 79 78  2  0
 80 79  1  0
 81 55  1  0
 81 86  1  0
 81 82  1  0
 82 85  1  1
 82 83  1  0
 84 82  1  0
 86 89  1  0
 87 91  1  0
 87 86  1  0
 88 87  2  0
 91 90  1  0
 93 91  1  0
 93 94  1  0
 93 92  1  0
M  ISO  4  14 100  22 100  53 101  54 101
M  END
>  <TORSDO>  (75) 
F 19

>  <SCORE>  (75) 
-12.865

>  <name>  (75) 
75

>  <ligand_id>  (75) 
75

>  <original_smiles>  (75) 
[H]C(=C1N(c2c([H])c([H])c(N([H])C(=O)N3C([H])([H])C([H])([H])C([H])([H])C([H])(n4nc(-c5c([H])c([H])c(Oc6c([H])c([H])c(F)c([H])c6F)c([H])c5[H])c(C(=O)N([H])[H])c4N([H])[H])C3([H])[H])c([H])c2C([H])([H])[H])C([H])([H])C([H])([H])C1([H])[H])C([H])([H])C([H])([H])Oc1c([H])c([H])c2c(c1[H])C([H])([H])N(C(=O)C([H])(N([H])C(=O)C([H])(N([H])C([H])([H])[H])C([H])([H])[H])C(C([H])([H])[H])(C([H])([H])[H])C([H])([H])[H])C([H])(C(=O)N([H])C1([H])c3c([H])c([H])c([H])c([H])c3C([H])([H])C([H])([H])C1([H])[H])C2([H])[H]

>  <smiles>  (75) 
[H]C(=C1N(c2c([H])c([H])c(N([H])C(=O)N3C([H])([H])C([H])([H])C([H])([H])C([H])(n4nc(-c5c([H])c([H])c(Oc6c([H])c([H])c(F)c([H])c6F)c([H])c5[H])c(C(=O)N([H])[H])c4N([H])[H])C3([H])[H])c([H])c2C([H])([H])[H])C([H])([H])C([H])([H])C1([H])[H])C([H])([H])C([H])([H])Oc1c([H])c([H])c2c(c1[H])C([H])([H])N(C(=O)C([H])(N([H])C(=O)C([H])(N([H])C([H])([H])[H])C([H])([H])[H])C(C([H])([H])[H])(C([H])([H])[H])C([H])([H])[H])C([H])(C(=O)N([H])C1([H])c3c([H])c([H])c([H])c([H])c3C([H])([H])C([H])([H])C1([H])[H])C2([H])[H]

$$$$
76:0:0
     RDKit          3D

 94103  0  0  1  0  0  0  0  0999 V2000
  -29.9100  -23.5480   18.7220 C   0  0  0  0  0  0  0  0  0  0  0  0
  -29.0810  -24.6110   18.8940 C   0  0  0  0  0  3  0  0  0  0  0  0
  -30.8410  -23.5330   17.5220 C   0  0  0  0  0  2  0  0  0  0  0  0
  -32.0470  -22.7270   17.9880 C   0  0  0  0  0  2  0  0  0  0  0  0
  -31.7960  -22.5950   19.4920 C   0  0  0  0  0  2  0  0  0  0  0  0
  -30.3360  -22.5650   19.6370 N   0  0  0  0  0  0  0  0  0  0  0  0
  -30.4560  -18.9920   20.8120 C   0  0  0  0  0  3  0  0  0  0  0  0
  -30.4970  -20.4070   20.7840 C   0  0  0  0  0  3  0  0  0  0  0  0
  -29.2060  -19.0220   18.7580 C   0  0  0  0  0  3  0  0  0  0  0  0
  -29.8540  -18.2600   19.7590 C   0  0  0  0  0  0  0  0  0  0  0  0
  -29.2280  -20.4440   18.7280 C   0  0  0  0  0  0  0  0  0  0  0  0
  -29.9670  -21.1760   19.7110 C   0  0  0  0  0  0  0  0  0  0  0  0
  -28.4700  -21.0990   17.5860 C   0  0  0  0  0  1  0  0  0  0  0  0
  -29.9140  -16.7110   19.5660 C   0  0  0  0  0  2  0  0  0  0  0  0
  -30.8930  -14.4890   20.0970 C   0  0  0  0  0  0  0  0  0  0  0  0
  -30.5340  -12.3440   18.9170 C   0  0  0  0  0  2  0  0  0  0  0  0
  -29.5350  -12.5680   17.7610 C   0  0  0  0  0  2  0  0  0  0  0  0
  -28.0800  -12.4430   18.2570 C   0  0  0  0  0  2  0  0  0  0  0  0
  -27.8150  -13.2510   19.5540 C   0  0  0  0  0  3  0  0  0  0  0  0
  -28.9160  -12.9810   20.5990 C   0  0  0  0  0  2  0  0  0  0  0  0
  -30.2100  -13.3120   19.9810 N   0  0  0  0  0  0  0  0  0  0  0  0
  -32.0000  -14.6430   19.5670 O   0  0  0  0  0  0  0  0  0  0  0  0
  -29.9580  -15.7850   21.9610 C   0  0  0  0  0  1  0  0  0  0  0  0
  -30.1760  -15.5770   20.5190 N   0  0  0  0  0  0  0  0  0  0  0  0
  -25.4640  -13.8760   20.3900 C   0  0  0  0  0  0  0  0  0  0  0  0
  -24.4060  -13.1110   20.8010 C   0  0  0  0  0  0  0  0  0  0  0  0
  -24.8490  -11.7560   20.7290 C   0  0  0  0  0  0  0  0  0  0  0  0
  -26.4840  -12.9850   20.0940 N   0  0  0  0  0  0  0  0  0  0  0  0
  -26.1200  -11.7040   20.3570 N   0  0  0  0  0  0  0  0  0  0  0  0
  -24.1170  -10.4990   20.9380 C   0  0  0  0  0  0  0  0  0  0  0  0
  -24.5530   -9.5390   21.8770 C   0  0  0  0  0  3  0  0  0  0  0  0
  -23.8240   -8.3460   22.0730 C   0  0  0  0  0  3  0  0  0  0  0  0
  -22.6440   -8.1070   21.3300 C   0  0  0  0  0  0  0  0  0  0  0  0
  -22.2270   -9.0560   20.3790 C   0  0  0  0  0  3  0  0  0  0  0  0
  -22.9570  -10.2390   20.1820 C   0  0  0  0  0  3  0  0  0  0  0  0
  -21.8850   -6.9660   21.4340 O   0  0  0  0  0  0  0  0  0  0  0  0
  -21.8020   -6.2620   22.6080 C   0  0  0  0  0  0  0  0  0  0  0  0
  -21.3460   -6.8570   23.8040 C   0  0  0  0  0  3  0  0  0  0  0  0
  -21.2090   -6.0790   24.9720 C   0  0  0  0  0  3  0  0  0  0  0  0
  -21.5180   -4.7070   24.9440 C   0  0  0  0  0  0  0  0  0  0  0  0
  -21.9670   -4.1100   23.7520 C   0  0  0  0  0  3  0  0  0  0  0  0
  -22.1050   -4.8850   22.5880 C   0  0  0  0  0  0  0  0  0  0  0  0
  -22.5180   -4.3010   21.4370 F   0  0  0  0  0  0  0  0  0  0  0  0
  -21.3810   -3.9560   26.0620 F   0  0  0  0  0  0  0  0  0  0  0  0
  -23.0290  -13.6010   21.1460 C   0  0  0  0  0  0  0  0  0  0  0  0
  -22.3390  -12.9040   22.0410 N   0  0  0  0  0  0  0  0  0  0  0  0
  -22.5760  -14.6360   20.6590 O   0  0  0  0  0  0  0  0  0  0  0  0
  -22.7180  -12.0670   22.4590 H   0  0  0  0  0  0  0  0  0  0  0  0
  -21.4160  -13.2100   22.3150 H   0  0  0  0  0  0  0  0  0  0  0  0
  -25.6400  -15.2460   20.2240 N   0  0  0  0  0  0  0  0  0  0  0  0
  -24.8900  -15.9120   20.3730 H   0  0  0  0  0  0  0  0  0  0  0  0
  -26.4880  -15.6780   19.8750 H   0  0  0  0  0  0  0  0  0  0  0  0
  -28.3440  -25.1230   20.1300 C   0  0  0  0  0  2  0  0  0  0  0  0
  -28.3970  -26.5770   20.2140 O   0  0  0  0  0  0  0  0  0  0  0  0
  -24.6100  -31.8370   23.2360 C   0  0  0  0  0  0  0  0  0  0  0  0
  -27.2270  -27.3240   20.1840 C   0  0  0  0  0  0  0  0  0  0  0  0
  -23.3990  -30.4320   21.6000 C   0  0  0  0  0  3  0  0  0  0  0  0
  -24.8450  -28.8780   20.1830 C   0  0  0  0  0  0  0  0  0  0  0  0
  -25.9320  -30.7640   21.4090 C   0  0  0  0  0  2  0  0  0  0  0  0
  -26.0090  -29.3880   20.7710 C   0  0  0  0  0  0  0  0  0  0  0  0
  -27.2000  -28.6210   20.7640 C   0  0  0  0  0  3  0  0  0  0  0  0
  -26.0440  -26.8460   19.5750 C   0  0  0  0  0  3  0  0  0  0  0  0
  -24.8600  -27.6070   19.5820 C   0  0  0  0  0  3  0  0  0  0  0  0
  -23.6080  -29.7470   20.2240 C   0  0  0  0  0  2  0  0  0  0  0  0
  -24.6650  -31.0280   22.1390 N   0  0  0  0  0  0  0  0  0  0  0  0
  -23.5280  -32.1180   23.7710 O   0  0  0  0  0  0  0  0  0  0  0  0
  -22.7410  -29.4200   22.5650 C   0  0  0  0  0  0  0  0  0  0  0  0
  -21.4140  -29.2460   22.4400 N   0  0  0  0  0  0  0  0  0  0  0  0
  -23.4190  -28.7920   23.3820 O   0  0  0  0  0  0  0  0  0  0  0  0
  -20.9260  -29.8060   21.7540 H   0  0  0  0  0  0  0  0  0  0  0  0
  -18.0340  -28.0680   22.9390 C   0  0  0  0  0  0  0  0  0  0  0  0
  -20.5920  -28.3160   23.2140 C   0  0  0  0  0  3  0  0  0  0  0  0
  -20.6890  -26.8810   22.6460 C   0  0  0  0  0  2  0  0  0  0  0  0
  -19.5880  -26.5580   21.6320 C   0  0  0  0  0  2  0  0  0  0  0  0
  -18.2050  -26.7140   22.2720 C   0  0  0  0  0  2  0  0  0  0  0  0
  -19.1550  -28.8280   23.3680 C   0  0  0  0  0  0  0  0  0  0  0  0
  -18.9410  -30.0960   23.9500 C   0  0  0  0  0  3  0  0  0  0  0  0
  -17.6380  -30.6040   24.1080 C   0  0  0  0  0  3  0  0  0  0  0  0
  -16.5310  -29.8420   23.6980 C   0  0  0  0  0  3  0  0  0  0  0  0
  -16.7300  -28.5760   23.1180 C   0  0  0  0  0  3  0  0  0  0  0  0
  -25.8960  -32.4650   23.8550 C   0  0  0  0  0  3  0  0  0  0  0  0
  -26.4200  -31.6890   25.1260 C   0  0  1  0  0  0  0  0  0  0  0  0
  -25.3340  -31.4460   26.1980 C   0  0  0  0  0  1  0  0  0  0  0  0
  -27.0030  -30.3140   24.7240 C   0  0  0  0  0  1  0  0  0  0  0  0
  -27.5720  -32.4830   25.7870 C   0  0  0  0  0  1  0  0  0  0  0  0
  -25.5880  -33.8630   24.1910 N   0  0  0  0  0  0  0  0  0  0  0  0
  -25.9170  -34.9180   23.4350 C   0  0  0  0  0  0  0  0  0  0  0  0
  -26.5820  -34.8180   22.4010 O   0  0  0  0  0  0  0  0  0  0  0  0
  -24.9970  -34.0140   24.9960 H   0  0  0  0  0  0  0  0  0  0  0  0
  -24.1830  -36.7080   23.0980 C   0  0  0  0  0  1  0  0  0  0  0  0
  -25.4310  -36.3040   23.9000 C   0  0  0  0  0  3  0  0  0  0  0  0
  -27.5700  -37.1890   24.7190 C   0  0  0  0  0  1  0  0  0  0  0  0
  -26.4610  -37.3590   23.7830 N   0  0  0  0  0  0  0  0  0  0  0  0
  -26.0550  -38.2780   23.9350 H   0  0  0  0  0  0  0  0  0  0  0  0
  1  2  2  0
  1  6  1  0
  2 53  1  0
  3  4  1  0
  3  1  1  0
  4  5  1  0
  5  6  1  0
  6 12  1  0
  8  7  1  0
  9 10  1  0
 10  7  2  0
 11  9  2  0
 11 12  1  0
 12  8  2  0
 13 11  1  0
 14 10  1  0
 14 24  1  0
 15 24  1  0
 16 21  1  0
 17 18  1  0
 17 16  1  0
 19 18  1  0
 19 28  1  0
 19 20  1  0
 21 15  1  0
 21 20  1  0
 22 15  2  0
 24 23  1  0
 25 26  2  0
 26 45  1  0
 27 26  1  0
 27 30  1  0
 28 29  1  0
 28 25  1  0
 29 27  2  0
 30 31  1  0
 31 32  2  0
 33 36  1  0
 33 32  1  0
 34 33  2  0
 35 34  1  0
 35 30  2  0
 36 37  1  0
 37 38  1  0
 38 39  2  0
 40 39  1  0
 40 44  1  0
 41 40  2  0
 42 37  2  0
 42 41  1  0
 43 42  1  0
 45 46  1  0
 46 49  1  0
 46 48  1  0
 47 45  2  0
 50 51  1  0
 50 25  1  0
 52 50  1  0
 53 54  1  0
 55 66  2  0
 56 54  1  0
 56 61  1  0
 57 65  1  0
 57 67  1  0
 58 64  1  0
 58 60  1  0
 59 65  1  0
 60 59  1  0
 61 60  2  0
 62 63  1  0
 62 56  2  0
 63 58  2  0
 64 57  1  0
 65 55  1  0
 67 69  2  0
 68 67  1  0
 70 68  1  0
 71 80  2  0
 71 76  1  0
 72 68  1  0
 72 76  1  0
 73 72  1  0
 74 75  1  0
 74 73  1  0
 75 71  1  0
 76 77  2  0
 77 78  1  0
 79 78  2  0
 80 79  1  0
 81 55  1  0
 81 86  1  0
 81 82  1  0
 82 85  1  1
 82 83  1  0
 84 82  1  0
 86 89  1  0
 87 91  1  0
 87 86  1  0
 88 87  2  0
 91 90  1  0
 93 91  1  0
 93 94  1  0
 93 92  1  0
M  ISO  4  15 100  24 100  53 101  54 101
M  END
>  <TORSDO>  (76) 
F 19

>  <SCORE>  (76) 
-13.872

>  <name>  (76) 
76

>  <ligand_id>  (76) 
76

>  <original_smiles>  (76) 
[H]C(=C1N(c2c([H])c([H])c(C([H])([H])N(C(=O)N3C([H])([H])C([H])([H])C([H])([H])C([H])(n4nc(-c5c([H])c([H])c(Oc6c([H])c([H])c(F)c([H])c6F)c([H])c5[H])c(C(=O)N([H])[H])c4N([H])[H])C3([H])[H])C([H])([H])[H])c([H])c2C([H])([H])[H])C([H])([H])C([H])([H])C1([H])[H])C([H])([H])Oc1c([H])c([H])c2c(c1[H])C([H])([H])N(C(=O)C([H])(N([H])C(=O)C([H])(N([H])C([H])([H])[H])C([H])([H])[H])C(C([H])([H])[H])(C([H])([H])[H])C([H])([H])[H])C([H])(C(=O)N([H])C1([H])c3c([H])c([H])c([H])c([H])c3C([H])([H])C([H])([H])C1([H])[H])C2([H])[H]

>  <smiles>  (76) 
[H]C(=C1N(c2c([H])c([H])c(C([H])([H])N(C(=O)N3C([H])([H])C([H])([H])C([H])([H])C([H])(n4nc(-c5c([H])c([H])c(Oc6c([H])c([H])c(F)c([H])c6F)c([H])c5[H])c(C(=O)N([H])[H])c4N([H])[H])C3([H])[H])C([H])([H])[H])c([H])c2C([H])([H])[H])C([H])([H])C([H])([H])C1([H])[H])C([H])([H])Oc1c([H])c([H])c2c(c1[H])C([H])([H])N(C(=O)C([H])(N([H])C(=O)C([H])(N([H])C([H])([H])[H])C([H])([H])[H])C(C([H])([H])[H])(C([H])([H])[H])C([H])([H])[H])C([H])(C(=O)N([H])C1([H])c3c([H])c([H])c([H])c([H])c3C([H])([H])C([H])([H])C1([H])[H])C2([H])[H]

$$$$
77:0:0
     RDKit          3D

 90 98  0  0  1  0  0  0  0  0999 V2000
  -28.6310  -19.4630   20.2180 C   0  0  0  0  0  3  0  0  0  0  0  0
  -28.7350  -18.0500   20.0650 C   0  0  0  0  0  3  0  0  0  0  0  0
  -30.7970  -19.4710   21.2420 C   0  0  0  0  0  3  0  0  0  0  0  0
  -29.6710  -20.2270   20.8050 C   0  0  0  0  0  0  0  0  0  0  0  0
  -29.8780  -17.2930   20.4560 C   0  0  0  0  0  0  0  0  0  0  0  0
  -30.9190  -18.0540   21.0680 C   0  0  0  0  0  0  0  0  0  0  0  0
  -32.0730  -17.4550   21.4470 F   0  0  0  0  0  0  0  0  0  0  0  0
  -30.6810  -14.8140   20.5590 C   0  0  0  0  0  0  0  0  0  0  0  0
  -30.5210  -12.4720   19.7330 C   0  0  0  0  0  2  0  0  0  0  0  0
  -29.6140  -12.3440   18.4850 C   0  0  0  0  0  2  0  0  0  0  0  0
  -28.1180  -12.2960   18.8500 C   0  0  0  0  0  2  0  0  0  0  0  0
  -27.6860  -13.2580   19.9920 C   0  0  0  0  0  3  0  0  0  0  0  0
  -28.7210  -13.3270   21.1410 C   0  0  0  0  0  2  0  0  0  0  0  0
  -30.0310  -13.6040   20.5450 N   0  0  0  0  0  0  0  0  0  0  0  0
  -31.9110  -14.8450   20.5340 O   0  0  0  0  0  0  0  0  0  0  0  0
  -29.7250  -15.7890   18.5630 C   0  0  0  0  0  1  0  0  0  0  0  0
  -29.9720  -15.8860   20.0180 N   0  0  0  0  0  0  0  0  0  0  0  0
  -25.2650  -13.8620   20.6130 C   0  0  0  0  0  0  0  0  0  0  0  0
  -24.1810  -13.0850   20.9330 C   0  0  0  0  0  0  0  0  0  0  0  0
  -24.6520  -11.7410   20.9520 C   0  0  0  0  0  0  0  0  0  0  0  0
  -26.3250  -12.9830   20.4470 N   0  0  0  0  0  0  0  0  0  0  0  0
  -25.9610  -11.7050   20.7230 N   0  0  0  0  0  0  0  0  0  0  0  0
  -23.9230  -10.4730   21.1160 C   0  0  0  0  0  0  0  0  0  0  0  0
  -24.3160   -9.5140   22.0740 C   0  0  0  0  0  3  0  0  0  0  0  0
  -23.5880   -8.3140   22.2270 C   0  0  0  0  0  3  0  0  0  0  0  0
  -22.4540   -8.0620   21.4190 C   0  0  0  0  0  0  0  0  0  0  0  0
  -22.0850   -9.0100   20.4490 C   0  0  0  0  0  3  0  0  0  0  0  0
  -22.8130  -10.2020   20.2940 C   0  0  0  0  0  3  0  0  0  0  0  0
  -21.7010   -6.9140   21.4820 O   0  0  0  0  0  0  0  0  0  0  0  0
  -21.6050   -6.1810   22.6370 C   0  0  0  0  0  0  0  0  0  0  0  0
  -21.1090   -6.7380   23.8350 C   0  0  0  0  0  3  0  0  0  0  0  0
  -20.9590   -5.9300   24.9790 C   0  0  0  0  0  3  0  0  0  0  0  0
  -21.2950   -4.5630   24.9270 C   0  0  0  0  0  0  0  0  0  0  0  0
  -21.7820   -4.0050   23.7320 C   0  0  0  0  0  3  0  0  0  0  0  0
  -21.9340   -4.8110   22.5920 C   0  0  0  0  0  0  0  0  0  0  0  0
  -22.3830   -4.2610   21.4360 F   0  0  0  0  0  0  0  0  0  0  0  0
  -21.1450   -3.7850   26.0230 F   0  0  0  0  0  0  0  0  0  0  0  0
  -22.7640  -13.5570   21.1090 C   0  0  0  0  0  0  0  0  0  0  0  0
  -21.9900  -12.8650   21.9370 N   0  0  0  0  0  0  0  0  0  0  0  0
  -22.3550  -14.5760   20.5560 O   0  0  0  0  0  0  0  0  0  0  0  0
  -22.3340  -12.0430   22.4120 H   0  0  0  0  0  0  0  0  0  0  0  0
  -21.0420  -13.1700   22.0990 H   0  0  0  0  0  0  0  0  0  0  0  0
  -25.4230  -15.2320   20.4200 N   0  0  0  0  0  0  0  0  0  0  0  0
  -24.6460  -15.8820   20.4570 H   0  0  0  0  0  0  0  0  0  0  0  0
  -26.2890  -15.6700   20.1360 H   0  0  0  0  0  0  0  0  0  0  0  0
  -29.0680  -22.5720   20.3460 C   0  0  0  0  0  3  0  0  0  0  0  0
  -29.6250  -21.6430   21.0660 N   0  0  0  0  0  0  0  0  0  0  0  0
  -29.0980  -24.1090   20.7150 C   0  0  0  0  0  3  0  0  0  0  0  0
  -28.1720  -25.0990   19.8970 C   0  0  0  0  0  3  0  0  0  0  0  0
  -28.2980  -26.5460   20.1810 O   0  0  0  0  0  0  0  0  0  0  0  0
  -24.5480  -31.8980   23.2280 C   0  0  0  0  0  0  0  0  0  0  0  0
  -27.1640  -27.3720   20.1340 C   0  0  0  0  0  0  0  0  0  0  0  0
  -23.3450  -30.5100   21.5800 C   0  0  0  0  0  3  0  0  0  0  0  0
  -24.7910  -28.9690   20.1500 C   0  0  0  0  0  0  0  0  0  0  0  0
  -25.8810  -30.8330   21.3960 C   0  0  0  0  0  2  0  0  0  0  0  0
  -25.9610  -29.4580   20.7450 C   0  0  0  0  0  0  0  0  0  0  0  0
  -27.1460  -28.6690   20.7340 C   0  0  0  0  0  3  0  0  0  0  0  0
  -25.9760  -26.9450   19.4940 C   0  0  0  0  0  3  0  0  0  0  0  0
  -24.7970  -27.7140   19.5270 C   0  0  0  0  0  3  0  0  0  0  0  0
  -23.5610  -29.8500   20.1920 C   0  0  0  0  0  2  0  0  0  0  0  0
  -24.6100  -31.0980   22.1270 N   0  0  0  0  0  0  0  0  0  0  0  0
  -23.4640  -32.1750   23.7610 O   0  0  0  0  0  0  0  0  0  0  0  0
  -22.6860  -29.4830   22.5310 C   0  0  0  0  0  0  0  0  0  0  0  0
  -21.3600  -29.3000   22.4110 N   0  0  0  0  0  0  0  0  0  0  0  0
  -23.3670  -28.8530   23.3430 O   0  0  0  0  0  0  0  0  0  0  0  0
  -20.8650  -29.8690   21.7410 H   0  0  0  0  0  0  0  0  0  0  0  0
  -17.9890  -28.0970   22.9150 C   0  0  0  0  0  0  0  0  0  0  0  0
  -20.5490  -28.3570   23.1800 C   0  0  0  0  0  3  0  0  0  0  0  0
  -20.6440  -26.9260   22.6000 C   0  0  0  0  0  2  0  0  0  0  0  0
  -19.5420  -26.6060   21.5870 C   0  0  0  0  0  2  0  0  0  0  0  0
  -18.1620  -26.7510   22.2340 C   0  0  0  0  0  2  0  0  0  0  0  0
  -19.1060  -28.8580   23.3470 C   0  0  0  0  0  0  0  0  0  0  0  0
  -18.8870  -30.1190   23.9440 C   0  0  0  0  0  3  0  0  0  0  0  0
  -17.5790  -30.6160   24.1140 C   0  0  0  0  0  3  0  0  0  0  0  0
  -16.4770  -29.8550   23.6900 C   0  0  0  0  0  3  0  0  0  0  0  0
  -16.6820  -28.5980   23.0970 C   0  0  0  0  0  3  0  0  0  0  0  0
  -25.8330  -32.5270   23.8520 C   0  0  0  0  0  3  0  0  0  0  0  0
  -26.3390  -31.7590   25.1370 C   0  0  1  0  0  0  0  0  0  0  0  0
  -25.2420  -31.5320   26.2000 C   0  0  0  0  0  1  0  0  0  0  0  0
  -26.9170  -30.3760   24.7560 C   0  0  0  0  0  1  0  0  0  0  0  0
  -27.4860  -32.5520   25.8070 C   0  0  0  0  0  1  0  0  0  0  0  0
  -25.5250  -33.9270   24.1760 N   0  0  0  0  0  0  0  0  0  0  0  0
  -25.8680  -34.9760   23.4150 C   0  0  0  0  0  0  0  0  0  0  0  0
  -26.5480  -34.8650   22.3920 O   0  0  0  0  0  0  0  0  0  0  0  0
  -24.9180  -34.0870   24.9670 H   0  0  0  0  0  0  0  0  0  0  0  0
  -24.1630  -36.7860   23.0180 C   0  0  0  0  0  1  0  0  0  0  0  0
  -25.3770  -36.3660   23.8620 C   0  0  0  0  0  3  0  0  0  0  0  0
  -27.4920  -37.2440   24.7510 C   0  0  0  0  0  1  0  0  0  0  0  0
  -26.4200  -37.4120   23.7750 N   0  0  0  0  0  0  0  0  0  0  0  0
  -26.0130  -38.3350   23.9010 H   0  0  0  0  0  0  0  0  0  0  0  0
  1  4  1  0
  2  1  2  0
  2  5  1  0
  4 47  1  0
  4  3  2  0
  5  6  2  0
  6  3  1  0
  6  7  1  0
  9 14  1  0
 10 11  1  0
 10  9  1  0
 12 11  1  0
 12 21  1  0
 12 13  1  0
 14  8  1  0
 14 13  1  0
 15  8  2  0
 16 17  1  0
 17  5  1  0
 17  8  1  0
 18 19  2  0
 19 20  1  0
 19 38  1  0
 20 23  1  0
 21 18  1  0
 21 22  1  0
 22 20  2  0
 23 24  1  0
 24 25  2  0
 26 29  1  0
 26 25  1  0
 27 26  2  0
 28 27  1  0
 28 23  2  0
 29 30  1  0
 30 31  1  0
 31 32  2  0
 33 32  1  0
 33 37  1  0
 34 33  2  0
 35 30  2  0
 35 34  1  0
 36 35  1  0
 38 39  1  0
 39 42  1  0
 39 41  1  0
 40 38  2  0
 43 44  1  0
 43 18  1  0
 45 43  1  0
 46 48  1  0
 46 47  2  0
 49 50  1  0
 49 48  2  0
 51 62  2  0
 52 50  1  0
 52 57  1  0
 53 61  1  0
 53 63  1  0
 54 60  1  0
 54 56  1  0
 55 61  1  0
 56 55  1  0
 57 56  2  0
 58 59  1  0
 58 52  2  0
 59 54  2  0
 60 53  1  0
 61 51  1  0
 63 65  2  0
 64 63  1  0
 66 64  1  0
 67 76  2  0
 67 72  1  0
 68 64  1  0
 68 72  1  0
 69 68  1  0
 70 71  1  0
 70 69  1  0
 71 67  1  0
 72 73  2  0
 73 74  1  0
 75 74  2  0
 76 75  1  0
 77 51  1  0
 77 82  1  0
 77 78  1  0
 78 81  1  1
 78 79  1  0
 80 78  1  0
 82 85  1  0
 83 87  1  0
 83 82  1  0
 84 83  2  0
 87 86  1  0
 89 87  1  0
 89 90  1  0
 89 88  1  0
M  ISO  4   8 100  17 100  49 101  50 101
M  END
>  <TORSDO>  (77) 
F 19

>  <SCORE>  (77) 
-13.972

>  <name>  (77) 
77

>  <ligand_id>  (77) 
77

>  <original_smiles>  (77) 
[H]C(=Nc1c([H])c([H])c(N(C(=O)N2C([H])([H])C([H])([H])C([H])([H])C([H])(n3nc(-c4c([H])c([H])c(Oc5c([H])c([H])c(F)c([H])c5F)c([H])c4[H])c(C(=O)N([H])[H])c3N([H])[H])C2([H])[H])C([H])([H])[H])c(F)c1[H])C([H])([H])C([H])([H])Oc1c([H])c([H])c2c(c1[H])C([H])([H])N(C(=O)C([H])(N([H])C(=O)C([H])(N([H])C([H])([H])[H])C([H])([H])[H])C(C([H])([H])[H])(C([H])([H])[H])C([H])([H])[H])C([H])(C(=O)N([H])C1([H])c3c([H])c([H])c([H])c([H])c3C([H])([H])C([H])([H])C1([H])[H])C2([H])[H]

>  <smiles>  (77) 
[H]C(=Nc1c([H])c([H])c(N(C(=O)N2C([H])([H])C([H])([H])C([H])([H])C([H])(n3nc(-c4c([H])c([H])c(Oc5c([H])c([H])c(F)c([H])c5F)c([H])c4[H])c(C(=O)N([H])[H])c3N([H])[H])C2([H])[H])C([H])([H])[H])c(F)c1[H])C([H])([H])C([H])([H])Oc1c([H])c([H])c2c(c1[H])C([H])([H])N(C(=O)C([H])(N([H])C(=O)C([H])(N([H])C([H])([H])[H])C([H])([H])[H])C(C([H])([H])[H])(C([H])([H])[H])C([H])([H])[H])C([H])(C(=O)N([H])C1([H])c3c([H])c([H])c([H])c([H])c3C([H])([H])C([H])([H])C1([H])[H])C2([H])[H]

$$$$
78:0:0
     RDKit          3D

 93102  0  0  1  0  0  0  0  0999 V2000
  -30.5330  -23.8020   20.4710 C   0  0  0  0  0  2  0  0  0  0  0  0
  -31.0090  -22.3520   20.2190 C   0  0  0  0  0  2  0  0  0  0  0  0
  -28.6250  -22.4140   20.1440 C   0  0  0  0  0  2  0  0  0  0  0  0
  -29.1260  -23.8860   19.8600 C   0  0  0  0  0  3  0  0  0  0  0  0
  -29.8090  -21.5200   20.1910 N   0  0  0  0  0  0  0  0  0  0  0  0
  -31.0980  -19.3680   20.2490 C   0  0  0  0  0  3  0  0  0  0  0  0
  -31.1900  -17.9440   20.3290 C   0  0  0  0  0  3  0  0  0  0  0  0
  -29.8580  -20.0770   20.2900 C   0  0  0  0  0  0  0  0  0  0  0  0
  -30.0320  -17.1370   20.4760 C   0  0  0  0  0  0  0  0  0  0  0  0
  -28.7040  -19.2580   20.4480 C   0  0  0  0  0  0  0  0  0  0  0  0
  -28.7970  -17.8360   20.5470 C   0  0  0  0  0  0  0  0  0  0  0  0
  -27.4740  -19.8260   20.5210 F   0  0  0  0  0  0  0  0  0  0  0  0
  -27.6600  -17.1160   20.7090 F   0  0  0  0  0  0  0  0  0  0  0  0
  -30.7670  -14.6720   20.0410 C   0  0  0  0  0  0  0  0  0  0  0  0
  -30.4900  -12.4760   18.9040 C   0  0  0  0  0  2  0  0  0  0  0  0
  -29.4560  -12.6500   17.7680 C   0  0  0  0  0  2  0  0  0  0  0  0
  -28.0160  -12.4750   18.2970 C   0  0  0  0  0  2  0  0  0  0  0  0
  -27.7530  -13.2860   19.5940 C   0  0  0  0  0  3  0  0  0  0  0  0
  -28.8900  -13.0780   20.6210 C   0  0  0  0  0  2  0  0  0  0  0  0
  -30.1570  -13.4460   19.9670 N   0  0  0  0  0  0  0  0  0  0  0  0
  -31.8780  -14.8670   19.5400 O   0  0  0  0  0  0  0  0  0  0  0  0
  -30.0020  -15.6770   20.5730 N   0  0  0  0  0  0  0  0  0  0  0  0
  -29.1490  -15.3250   20.9800 H   0  0  0  0  0  0  0  0  0  0  0  0
  -25.4270  -13.8660   20.5230 C   0  0  0  0  0  0  0  0  0  0  0  0
  -24.3810  -13.0840   20.9290 C   0  0  0  0  0  0  0  0  0  0  0  0
  -24.8200  -11.7320   20.7870 C   0  0  0  0  0  0  0  0  0  0  0  0
  -26.4400  -12.9910   20.1610 N   0  0  0  0  0  0  0  0  0  0  0  0
  -26.0820  -11.6980   20.3780 N   0  0  0  0  0  0  0  0  0  0  0  0
  -24.0940  -10.4680   20.9650 C   0  0  0  0  0  0  0  0  0  0  0  0
  -24.5350   -9.4850   21.8790 C   0  0  0  0  0  3  0  0  0  0  0  0
  -23.8090   -8.2850   22.0440 C   0  0  0  0  0  3  0  0  0  0  0  0
  -22.6310   -8.0580   21.2950 C   0  0  0  0  0  0  0  0  0  0  0  0
  -22.2090   -9.0310   20.3710 C   0  0  0  0  0  3  0  0  0  0  0  0
  -22.9340  -10.2230   20.2030 C   0  0  0  0  0  3  0  0  0  0  0  0
  -21.8750   -6.9130   21.3710 O   0  0  0  0  0  0  0  0  0  0  0  0
  -21.7700   -6.1980   22.5370 C   0  0  0  0  0  0  0  0  0  0  0  0
  -21.2720   -6.7760   23.7240 C   0  0  0  0  0  3  0  0  0  0  0  0
  -21.1160   -5.9860   24.8810 C   0  0  0  0  0  3  0  0  0  0  0  0
  -21.4450   -4.6180   24.8490 C   0  0  0  0  0  0  0  0  0  0  0  0
  -21.9360   -4.0390   23.6660 C   0  0  0  0  0  3  0  0  0  0  0  0
  -22.0960   -4.8270   22.5130 C   0  0  0  0  0  0  0  0  0  0  0  0
  -22.5490   -4.2590   21.3680 F   0  0  0  0  0  0  0  0  0  0  0  0
  -21.2880   -3.8560   25.9570 F   0  0  0  0  0  0  0  0  0  0  0  0
  -23.0160  -13.5590   21.3380 C   0  0  0  0  0  0  0  0  0  0  0  0
  -22.3550  -12.8280   22.2300 N   0  0  0  0  0  0  0  0  0  0  0  0
  -22.5480  -14.6110   20.9060 O   0  0  0  0  0  0  0  0  0  0  0  0
  -22.7480  -11.9770   22.6030 H   0  0  0  0  0  0  0  0  0  0  0  0
  -21.4440  -13.1280   22.5480 H   0  0  0  0  0  0  0  0  0  0  0  0
  -25.5970  -15.2430   20.4150 N   0  0  0  0  0  0  0  0  0  0  0  0
  -24.8620  -15.8980   20.6540 H   0  0  0  0  0  0  0  0  0  0  0  0
  -26.4510  -15.7000   20.1280 H   0  0  0  0  0  0  0  0  0  0  0  0
  -28.2110  -25.0900   20.3640 C   0  0  0  0  0  2  0  0  0  0  0  0
  -28.4320  -26.4800   19.8920 O   0  0  0  0  0  0  0  0  0  0  0  0
  -24.7000  -31.7880   23.0590 C   0  0  0  0  0  0  0  0  0  0  0  0
  -27.3190  -27.3310   19.8820 C   0  0  0  0  0  0  0  0  0  0  0  0
  -23.4950  -30.4380   21.3780 C   0  0  0  0  0  3  0  0  0  0  0  0
  -24.9500  -28.9290   19.9080 C   0  0  0  0  0  0  0  0  0  0  0  0
  -26.0330  -30.7650   21.2060 C   0  0  0  0  0  2  0  0  0  0  0  0
  -26.1170  -29.4040   20.5230 C   0  0  0  0  0  0  0  0  0  0  0  0
  -27.3050  -28.6170   20.5020 C   0  0  0  0  0  3  0  0  0  0  0  0
  -26.1360  -26.9140   19.2310 C   0  0  0  0  0  3  0  0  0  0  0  0
  -24.9620  -27.6890   19.2520 C   0  0  0  0  0  3  0  0  0  0  0  0
  -23.7110  -29.7980   19.9800 C   0  0  0  0  0  2  0  0  0  0  0  0
  -24.7610  -31.0130   21.9370 N   0  0  0  0  0  0  0  0  0  0  0  0
  -23.6170  -32.0520   23.6020 O   0  0  0  0  0  0  0  0  0  0  0  0
  -22.8340  -29.3940   22.3090 C   0  0  0  0  0  0  0  0  0  0  0  0
  -21.5030  -29.2450   22.2020 N   0  0  0  0  0  0  0  0  0  0  0  0
  -23.5170  -28.7200   23.0860 O   0  0  0  0  0  0  0  0  0  0  0  0
  -21.0140  -29.8350   21.5420 H   0  0  0  0  0  0  0  0  0  0  0  0
  -18.1040  -28.1490   22.7850 C   0  0  0  0  0  0  0  0  0  0  0  0
  -20.6810  -28.2930   22.9500 C   0  0  0  0  0  3  0  0  0  0  0  0
  -20.6980  -26.8980   22.2820 C   0  0  0  0  0  2  0  0  0  0  0  0
  -19.5390  -26.6830   21.3020 C   0  0  0  0  0  2  0  0  0  0  0  0
  -18.1940  -26.8390   22.0170 C   0  0  0  0  0  2  0  0  0  0  0  0
  -19.2720  -28.8390   23.2080 C   0  0  0  0  0  0  0  0  0  0  0  0
  -19.1320  -30.0680   23.8870 C   0  0  0  0  0  3  0  0  0  0  0  0
  -17.8580  -30.6100   24.1430 C   0  0  0  0  0  3  0  0  0  0  0  0
  -16.7060  -29.9170   23.7350 C   0  0  0  0  0  3  0  0  0  0  0  0
  -16.8290  -28.6880   23.0640 C   0  0  0  0  0  3  0  0  0  0  0  0
  -25.9830  -32.4020   23.6980 C   0  0  0  0  0  3  0  0  0  0  0  0
  -25.6720  -33.7880   24.0740 N   0  0  0  0  0  0  0  0  0  0  0  0
  -26.0050  -34.8670   23.3500 C   0  0  0  0  0  0  0  0  0  0  0  0
  -26.6820  -34.7980   22.3200 O   0  0  0  0  0  0  0  0  0  0  0  0
  -25.0740  -33.9150   24.8770 H   0  0  0  0  0  0  0  0  0  0  0  0
  -24.2880  -36.6770   23.0350 C   0  0  0  0  0  1  0  0  0  0  0  0
  -25.5150  -36.2390   23.8500 C   0  0  0  0  0  3  0  0  0  0  0  0
  -27.6370  -37.0890   24.7500 C   0  0  0  0  0  1  0  0  0  0  0  0
  -26.5530  -37.2920   23.7920 N   0  0  0  0  0  0  0  0  0  0  0  0
  -26.1460  -38.2080   23.9600 H   0  0  0  0  0  0  0  0  0  0  0  0
  -26.5030  -31.5900   24.9490 C   0  0  1  0  0  0  0  0  0  0  0  0
  -25.4080  -31.3130   26.0070 C   0  0  0  0  0  1  0  0  0  0  0  0
  -27.0900  -30.2270   24.5150 C   0  0  0  0  0  1  0  0  0  0  0  0
  -27.6520  -32.3660   25.6340 C   0  0  0  0  0  1  0  0  0  0  0  0
  2  1  1  0
  3  5  1  0
  4  3  1  0
  4 52  1  0
  4  1  1  0
  5  2  1  0
  5  8  1  0
  6  8  2  0
  6  7  1  0
  7  9  2  0
  8 10  1  0
  9 11  1  0
  9 22  1  0
 10 12  1  0
 10 11  2  0
 11 13  1  0
 14 22  1  0
 15 20  1  0
 16 17  1  0
 16 15  1  0
 18 17  1  0
 18 27  1  0
 18 19  1  0
 20 14  1  0
 20 19  1  0
 21 14  2  0
 22 23  1  0
 24 25  2  0
 25 44  1  0
 26 25  1  0
 26 29  1  0
 27 28  1  0
 27 24  1  0
 28 26  2  0
 29 30  1  0
 30 31  2  0
 32 35  1  0
 32 31  1  0
 33 32  2  0
 34 33  1  0
 34 29  2  0
 35 36  1  0
 36 37  1  0
 37 38  2  0
 39 38  1  0
 39 43  1  0
 40 39  2  0
 41 36  2  0
 41 40  1  0
 42 41  1  0
 44 45  1  0
 45 48  1  0
 45 47  1  0
 46 44  2  0
 49 24  1  0
 49 50  1  0
 51 49  1  0
 53 52  1  0
 54 65  2  0
 55 53  1  0
 55 60  1  0
 56 64  1  0
 56 66  1  0
 57 63  1  0
 57 59  1  0
 58 64  1  0
 59 58  1  0
 60 59  2  0
 61 62  1  0
 61 55  2  0
 62 57  2  0
 63 56  1  0
 64 54  1  0
 66 68  2  0
 67 66  1  0
 69 67  1  0
 70 79  2  0
 70 75  1  0
 71 67  1  0
 71 75  1  0
 72 71  1  0
 73 74  1  0
 73 72  1  0
 74 70  1  0
 75 76  2  0
 76 77  1  0
 78 77  2  0
 79 78  1  0
 80 54  1  0
 80 81  1  0
 80 90  1  0
 81 84  1  0
 82 86  1  0
 82 81  1  0
 83 82  2  0
 86 85  1  0
 88 86  1  0
 88 89  1  0
 88 87  1  0
 90 93  1  1
 90 91  1  0
 92 90  1  0
M  ISO  4  14 100  22 100  52 101  53 101
M  END
>  <TORSDO>  (78) 
F 18

>  <SCORE>  (78) 
-14.294

>  <name>  (78) 
78

>  <ligand_id>  (78) 
78

>  <original_smiles>  (78) 
[H]c1c([H])c([H])c2c(c1[H])C([H])([H])C([H])([H])C([H])([H])C2([H])N([H])C(=O)C1([H])N(C(=O)C([H])(N([H])C(=O)C([H])(N([H])C([H])([H])[H])C([H])([H])[H])C(C([H])([H])[H])(C([H])([H])[H])C([H])([H])[H])C([H])([H])c2c([H])c(OC([H])([H])C3([H])C([H])([H])N(c4c([H])c([H])c(N([H])C(=O)N5C([H])([H])C([H])([H])C([H])([H])C([H])(n6nc(-c7c([H])c([H])c(Oc8c([H])c([H])c(F)c([H])c8F)c([H])c7[H])c(C(=O)N([H])[H])c6N([H])[H])C5([H])[H])c(F)c4F)C([H])([H])C3([H])[H])c([H])c([H])c2C1([H])[H]

>  <smiles>  (78) 
[H]c1c([H])c([H])c2c(c1[H])C([H])([H])C([H])([H])C([H])([H])C2([H])N([H])C(=O)C1([H])N(C(=O)C([H])(N([H])C(=O)C([H])(N([H])C([H])([H])[H])C([H])([H])[H])C(C([H])([H])[H])(C([H])([H])[H])C([H])([H])[H])C([H])([H])c2c([H])c(OC([H])([H])C3([H])C([H])([H])N(c4c([H])c([H])c(N([H])C(=O)N5C([H])([H])C([H])([H])C([H])([H])C([H])(n6nc(-c7c([H])c([H])c(Oc8c([H])c([H])c(F)c([H])c8F)c([H])c7[H])c(C(=O)N([H])[H])c6N([H])[H])C5([H])[H])c(F)c4F)C([H])([H])C3([H])[H])c([H])c([H])c2C1([H])[H]

$$$$
79:0:0
     RDKit          3D

 94103  0  0  1  0  0  0  0  0999 V2000
  -29.2110  -22.6960   19.9630 C   0  0  0  0  0  0  0  0  0  0  0  0
  -26.5600  -22.3990   21.0400 C   0  0  0  0  0  2  0  0  0  0  0  0
  -27.1450  -23.8340   20.9530 C   0  0  0  0  0  2  0  0  0  0  0  0
  -27.1740  -21.3910   20.0330 C   0  0  0  0  0  2  0  0  0  0  0  0
  -28.2280  -23.9530   19.8600 C   0  0  0  0  0  3  0  0  0  0  0  0
  -28.6450  -21.4310   20.0320 N   0  0  0  0  0  0  0  0  0  0  0  0
  -30.4330  -22.8750   19.9710 O   0  0  0  0  0  0  0  0  0  0  0  0
  -30.0950  -19.6910   21.1830 C   0  0  0  0  0  3  0  0  0  0  0  0
  -30.4600  -18.3230   21.3730 C   0  0  0  0  0  3  0  0  0  0  0  0
  -28.9740  -19.0740   19.1610 C   0  0  0  0  0  3  0  0  0  0  0  0
  -29.3010  -20.1060   20.0870 C   0  0  0  0  0  0  0  0  0  0  0  0
  -30.0920  -17.2640   20.4820 C   0  0  0  0  0  0  0  0  0  0  0  0
  -29.3590  -17.7050   19.3330 C   0  0  0  0  0  0  0  0  0  0  0  0
  -28.8210  -16.5910   18.1260 Cl  0  0  0  0  0  0  0  0  0  0  0  0
  -30.8630  -14.8430   20.0310 C   0  0  0  0  0  0  0  0  0  0  0  0
  -30.5420  -12.6310   18.9150 C   0  0  0  0  0  2  0  0  0  0  0  0
  -29.5330  -12.7540   17.7560 C   0  0  0  0  0  2  0  0  0  0  0  0
  -28.0900  -12.5770   18.2620 C   0  0  0  0  0  2  0  0  0  0  0  0
  -27.7950  -13.4290   19.5250 C   0  0  0  0  0  3  0  0  0  0  0  0
  -28.9110  -13.2830   20.5770 C   0  0  0  0  0  2  0  0  0  0  0  0
  -30.1920  -13.6420   19.9400 N   0  0  0  0  0  0  0  0  0  0  0  0
  -31.9190  -15.0160   19.4180 O   0  0  0  0  0  0  0  0  0  0  0  0
  -30.6280  -15.5770   22.2670 C   0  0  0  0  0  1  0  0  0  0  0  0
  -30.3620  -15.8420   20.8440 N   0  0  0  0  0  0  0  0  0  0  0  0
  -25.4610  -14.0170   20.4230 C   0  0  0  0  0  0  0  0  0  0  0  0
  -24.4160  -13.2370   20.8370 C   0  0  0  0  0  0  0  0  0  0  0  0
  -24.8630  -11.8850   20.7230 C   0  0  0  0  0  0  0  0  0  0  0  0
  -26.4780  -13.1380   20.0850 N   0  0  0  0  0  0  0  0  0  0  0  0
  -26.1280  -11.8490   20.3270 N   0  0  0  0  0  0  0  0  0  0  0  0
  -24.1400  -10.6200   20.9130 C   0  0  0  0  0  0  0  0  0  0  0  0
  -24.5440   -9.6740   21.8830 C   0  0  0  0  0  3  0  0  0  0  0  0
  -23.8170   -8.4770   22.0580 C   0  0  0  0  0  3  0  0  0  0  0  0
  -22.6750   -8.2170   21.2650 C   0  0  0  0  0  0  0  0  0  0  0  0
  -22.2920   -9.1510   20.2850 C   0  0  0  0  0  3  0  0  0  0  0  0
  -23.0200  -10.3390   20.1050 C   0  0  0  0  0  3  0  0  0  0  0  0
  -21.9250   -7.0700   21.3460 O   0  0  0  0  0  0  0  0  0  0  0  0
  -21.7240   -6.4240   22.5400 C   0  0  0  0  0  0  0  0  0  0  0  0
  -21.1170   -7.0670   23.6400 C   0  0  0  0  0  3  0  0  0  0  0  0
  -20.8610   -6.3480   24.8250 C   0  0  0  0  0  3  0  0  0  0  0  0
  -21.2060   -4.9850   24.9110 C   0  0  0  0  0  0  0  0  0  0  0  0
  -21.8080   -4.3410   23.8140 C   0  0  0  0  0  3  0  0  0  0  0  0
  -22.0610   -5.0580   22.6310 C   0  0  0  0  0  0  0  0  0  0  0  0
  -22.6180   -4.4250   21.5710 F   0  0  0  0  0  0  0  0  0  0  0  0
  -20.9570   -4.2910   26.0470 F   0  0  0  0  0  0  0  0  0  0  0  0
  -23.0430  -13.7110   21.2190 C   0  0  0  0  0  0  0  0  0  0  0  0
  -22.3760  -12.9950   22.1180 N   0  0  0  0  0  0  0  0  0  0  0  0
  -22.5750  -14.7520   20.7600 O   0  0  0  0  0  0  0  0  0  0  0  0
  -22.7780  -12.1580   22.5130 H   0  0  0  0  0  0  0  0  0  0  0  0
  -21.4530  -13.2850   22.4080 H   0  0  0  0  0  0  0  0  0  0  0  0
  -25.6240  -15.3940   20.2900 N   0  0  0  0  0  0  0  0  0  0  0  0
  -24.8720  -16.0480   20.4860 H   0  0  0  0  0  0  0  0  0  0  0  0
  -26.4540  -15.8420   19.9260 H   0  0  0  0  0  0  0  0  0  0  0  0
  -28.7510  -25.4400   19.4960 C   0  0  0  0  0  2  0  0  0  0  0  0
  -28.5120  -26.6970   20.2510 O   0  0  0  0  0  0  0  0  0  0  0  0
  -24.5560  -31.9400   23.1810 C   0  0  0  0  0  0  0  0  0  0  0  0
  -27.3530  -27.4820   20.1370 C   0  0  0  0  0  0  0  0  0  0  0  0
  -23.4120  -30.5070   21.5240 C   0  0  0  0  0  3  0  0  0  0  0  0
  -24.9270  -29.0050   20.0990 C   0  0  0  0  0  0  0  0  0  0  0  0
  -25.9370  -30.9120   21.3600 C   0  0  0  0  0  2  0  0  0  0  0  0
  -26.0670  -29.5370   20.7160 C   0  0  0  0  0  0  0  0  0  0  0  0
  -27.2760  -28.7810   20.7320 C   0  0  0  0  0  3  0  0  0  0  0  0
  -26.1930  -27.0030   19.4900 C   0  0  0  0  0  3  0  0  0  0  0  0
  -24.9920  -27.7470   19.4760 C   0  0  0  0  0  3  0  0  0  0  0  0
  -23.6580  -29.8350   20.1440 C   0  0  0  0  0  2  0  0  0  0  0  0
  -24.6530  -31.1420   22.0770 N   0  0  0  0  0  0  0  0  0  0  0  0
  -23.4600  -32.1780   23.7080 O   0  0  0  0  0  0  0  0  0  0  0  0
  -22.7790  -29.4650   22.4800 C   0  0  0  0  0  0  0  0  0  0  0  0
  -21.4660  -29.2200   22.3260 N   0  0  0  0  0  0  0  0  0  0  0  0
  -23.4690  -28.8830   23.3220 O   0  0  0  0  0  0  0  0  0  0  0  0
  -20.9650  -29.7470   21.6250 H   0  0  0  0  0  0  0  0  0  0  0  0
  -18.1460  -27.8460   22.7350 C   0  0  0  0  0  0  0  0  0  0  0  0
  -20.6760  -28.2430   23.0780 C   0  0  0  0  0  3  0  0  0  0  0  0
  -20.8730  -26.8130   22.5200 C   0  0  0  0  0  2  0  0  0  0  0  0
  -19.8220  -26.4240   21.4770 C   0  0  0  0  0  2  0  0  0  0  0  0
  -18.4150  -26.5020   22.0770 C   0  0  0  0  0  2  0  0  0  0  0  0
  -19.2090  -28.6710   23.1890 C   0  0  0  0  0  0  0  0  0  0  0  0
  -18.9040  -29.9270   23.7600 C   0  0  0  0  0  3  0  0  0  0  0  0
  -17.5700  -30.3570   23.8830 C   0  0  0  0  0  3  0  0  0  0  0  0
  -16.5210  -29.5290   23.4480 C   0  0  0  0  0  3  0  0  0  0  0  0
  -16.8090  -28.2750   22.8780 C   0  0  0  0  0  3  0  0  0  0  0  0
  -25.8100  -32.6130   23.8200 C   0  0  0  0  0  3  0  0  0  0  0  0
  -25.4530  -34.0010   24.1480 N   0  0  0  0  0  0  0  0  0  0  0  0
  -25.7510  -35.0660   23.3930 C   0  0  0  0  0  0  0  0  0  0  0  0
  -26.4290  -34.9880   22.3640 O   0  0  0  0  0  0  0  0  0  0  0  0
  -24.8620  -34.1350   24.9570 H   0  0  0  0  0  0  0  0  0  0  0  0
  -23.9660  -36.8010   23.0330 C   0  0  0  0  0  1  0  0  0  0  0  0
  -25.2160  -36.4370   23.8510 C   0  0  0  0  0  3  0  0  0  0  0  0
  -27.3120  -37.3930   24.6990 C   0  0  0  0  0  1  0  0  0  0  0  0
  -26.2140  -37.5230   23.7460 N   0  0  0  0  0  0  0  0  0  0  0  0
  -25.7770  -38.4310   23.8850 H   0  0  0  0  0  0  0  0  0  0  0  0
  -26.3370  -31.8610   25.1060 C   0  0  1  0  0  0  0  0  0  0  0  0
  -25.2380  -31.5800   26.1570 C   0  0  0  0  0  1  0  0  0  0  0  0
  -26.9790  -30.5090   24.7210 C   0  0  0  0  0  1  0  0  0  0  0  0
  -27.4440  -32.7000   25.7880 C   0  0  0  0  0  1  0  0  0  0  0  0
  1  7  2  0
  1  6  1  0
  3  2  1  0
  4  2  1  0
  5 53  1  0
  5  1  1  0
  5  3  1  0
  6  4  1  0
  6 11  1  0
  8  9  1  0
 10 13  2  0
 10 11  1  0
 11  8  2  0
 12 24  1  0
 12  9  2  0
 13 12  1  0
 14 13  1  0
 15 24  1  0
 16 21  1  0
 17 18  1  0
 17 16  1  0
 19 18  1  0
 19 28  1  0
 19 20  1  0
 21 15  1  0
 21 20  1  0
 22 15  2  0
 24 23  1  0
 25 26  2  0
 26 45  1  0
 27 26  1  0
 27 30  1  0
 28 29  1  0
 28 25  1  0
 29 27  2  0
 30 31  1  0
 31 32  2  0
 33 36  1  0
 33 32  1  0
 34 33  2  0
 35 34  1  0
 35 30  2  0
 36 37  1  0
 37 42  2  0
 37 38  1  0
 38 39  2  0
 39 40  1  0
 40 44  1  0
 41 40  2  0
 42 41  1  0
 43 42  1  0
 45 46  1  0
 46 49  1  0
 46 48  1  0
 47 45  2  0
 50 25  1  0
 50 51  1  0
 52 50  1  0
 53 54  1  0
 55 66  2  0
 56 54  1  0
 56 61  1  0
 57 65  1  0
 57 67  1  0
 58 64  1  0
 58 60  1  0
 59 65  1  0
 60 61  2  0
 60 59  1  0
 62 56  2  0
 63 62  1  0
 63 58  2  0
 64 57  1  0
 65 55  1  0
 67 69  2  0
 68 67  1  0
 70 68  1  0
 71 80  2  0
 71 76  1  0
 72 68  1  0
 72 76  1  0
 73 72  1  0
 74 75  1  0
 74 73  1  0
 75 71  1  0
 76 77  2  0
 77 78  1  0
 79 78  2  0
 80 79  1  0
 81 55  1  0
 81 82  1  0
 81 91  1  0
 82 85  1  0
 83 87  1  0
 83 82  1  0
 84 83  2  0
 87 86  1  0
 89 87  1  0
 89 90  1  0
 89 88  1  0
 91 94  1  1
 91 92  1  0
 93 91  1  0
M  ISO  4  15 100  24 100  53 101  54 101
M  END
>  <TORSDO>  (79) 
F 18

>  <SCORE>  (79) 
-12.801

>  <name>  (79) 
79

>  <ligand_id>  (79) 
79

>  <original_smiles>  (79) 
[H]c1c([H])c([H])c2c(c1[H])C([H])([H])C([H])([H])C([H])([H])C2([H])N([H])C(=O)C1([H])N(C(=O)C([H])(N([H])C(=O)C([H])(N([H])C([H])([H])[H])C([H])([H])[H])C(C([H])([H])[H])(C([H])([H])[H])C([H])([H])[H])C([H])([H])c2c([H])c(OC([H])([H])C3([H])C(=O)N(c4c([H])c([H])c(N(C(=O)N5C([H])([H])C([H])([H])C([H])([H])C([H])(n6nc(-c7c([H])c([H])c(Oc8c([H])c([H])c(F)c([H])c8F)c([H])c7[H])c(C(=O)N([H])[H])c6N([H])[H])C5([H])[H])C([H])([H])[H])c(Cl)c4[H])C([H])([H])C([H])([H])C3([H])[H])c([H])c([H])c2C1([H])[H]

>  <smiles>  (79) 
[H]c1c([H])c([H])c2c(c1[H])C([H])([H])C([H])([H])C([H])([H])C2([H])N([H])C(=O)C1([H])N(C(=O)C([H])(N([H])C(=O)C([H])(N([H])C([H])([H])[H])C([H])([H])[H])C(C([H])([H])[H])(C([H])([H])[H])C([H])([H])[H])C([H])([H])c2c([H])c(OC([H])([H])C3([H])C(=O)N(c4c([H])c([H])c(N(C(=O)N5C([H])([H])C([H])([H])C([H])([H])C([H])(n6nc(-c7c([H])c([H])c(Oc8c([H])c([H])c(F)c([H])c8F)c([H])c7[H])c(C(=O)N([H])[H])c6N([H])[H])C5([H])[H])C([H])([H])[H])c(Cl)c4[H])C([H])([H])C([H])([H])C3([H])[H])c([H])c([H])c2C1([H])[H]

$$$$
80:0:0
     RDKit          3D

 92101  0  0  1  0  0  0  0  0999 V2000
  -27.1990  -22.5880   21.6540 C   0  0  0  0  0  2  0  0  0  0  0  0
  -28.4610  -23.4630   21.7200 C   0  0  0  0  0  2  0  0  0  0  0  0
  -27.1750  -22.0160   20.2270 C   0  0  0  0  0  2  0  0  0  0  0  0
  -28.9150  -23.5630   20.2610 C   0  0  0  0  0  3  0  0  0  0  0  0
  -28.5380  -22.1530   19.7190 N   0  0  0  0  0  0  0  0  0  0  0  0
  -29.8840  -20.2000   20.8720 C   0  0  0  0  0  3  0  0  0  0  0  0
  -30.2030  -18.7810   20.9790 C   0  0  0  0  0  3  0  0  0  0  0  0
  -29.1300  -18.3700   18.9230 C   0  0  0  0  0  3  0  0  0  0  0  0
  -29.1330  -20.7850   19.7960 C   0  0  0  0  0  0  0  0  0  0  0  0
  -29.8380  -17.7750   20.0150 C   0  0  0  0  0  0  0  0  0  0  0  0
  -28.7970  -19.7780   18.8180 C   0  0  0  0  0  0  0  0  0  0  0  0
  -28.0600  -20.1620   17.7460 F   0  0  0  0  0  0  0  0  0  0  0  0
  -30.7090  -15.1700   19.9230 C   0  0  0  0  0  0  0  0  0  0  0  0
  -30.5890  -12.8170   19.0000 C   0  0  0  0  0  2  0  0  0  0  0  0
  -29.5890  -12.7930   17.8180 C   0  0  0  0  0  2  0  0  0  0  0  0
  -28.1470  -12.5820   18.3200 C   0  0  0  0  0  2  0  0  0  0  0  0
  -27.8030  -13.4920   19.5290 C   0  0  0  0  0  3  0  0  0  0  0  0
  -28.9170  -13.4760   20.5990 C   0  0  0  0  0  2  0  0  0  0  0  0
  -30.1620  -13.8910   19.9370 N   0  0  0  0  0  0  0  0  0  0  0  0
  -31.8650  -15.3040   19.5050 O   0  0  0  0  0  0  0  0  0  0  0  0
  -29.8830  -16.2670   20.2590 N   0  0  0  0  0  0  0  0  0  0  0  0
  -29.0190  -15.9210   20.6510 H   0  0  0  0  0  0  0  0  0  0  0  0
  -25.4750  -14.0650   20.4270 C   0  0  0  0  0  0  0  0  0  0  0  0
  -24.4280  -13.2840   20.8350 C   0  0  0  0  0  0  0  0  0  0  0  0
  -24.8760  -11.9320   20.7250 C   0  0  0  0  0  0  0  0  0  0  0  0
  -26.4920  -13.1880   20.0910 N   0  0  0  0  0  0  0  0  0  0  0  0
  -26.1460  -11.8970   20.3340 N   0  0  0  0  0  0  0  0  0  0  0  0
  -24.1500  -10.6690   20.9150 C   0  0  0  0  0  0  0  0  0  0  0  0
  -24.5670   -9.7130   21.8660 C   0  0  0  0  0  3  0  0  0  0  0  0
  -23.8410   -8.5150   22.0430 C   0  0  0  0  0  3  0  0  0  0  0  0
  -22.6830   -8.2660   21.2680 C   0  0  0  0  0  0  0  0  0  0  0  0
  -22.2860   -9.2110   20.3060 C   0  0  0  0  0  3  0  0  0  0  0  0
  -23.0130  -10.4000   20.1280 C   0  0  0  0  0  3  0  0  0  0  0  0
  -21.9310   -7.1190   21.3530 O   0  0  0  0  0  0  0  0  0  0  0  0
  -21.7810   -6.4420   22.5370 C   0  0  0  0  0  0  0  0  0  0  0  0
  -21.1900   -7.0450   23.6690 C   0  0  0  0  0  3  0  0  0  0  0  0
  -20.9920   -6.2910   24.8440 C   0  0  0  0  0  3  0  0  0  0  0  0
  -21.3750   -4.9370   24.8850 C   0  0  0  0  0  0  0  0  0  0  0  0
  -21.9590   -4.3340   23.7570 C   0  0  0  0  0  3  0  0  0  0  0  0
  -22.1580   -5.0850   22.5850 C   0  0  0  0  0  0  0  0  0  0  0  0
  -22.7010   -4.4950   21.4940 F   0  0  0  0  0  0  0  0  0  0  0  0
  -21.1780   -4.2110   26.0100 F   0  0  0  0  0  0  0  0  0  0  0  0
  -23.0550  -13.7620   21.2090 C   0  0  0  0  0  0  0  0  0  0  0  0
  -22.3770  -13.0420   22.0960 N   0  0  0  0  0  0  0  0  0  0  0  0
  -22.5960  -14.8080   20.7510 O   0  0  0  0  0  0  0  0  0  0  0  0
  -22.7640  -12.1960   22.4870 H   0  0  0  0  0  0  0  0  0  0  0  0
  -21.4580  -13.3430   22.3890 H   0  0  0  0  0  0  0  0  0  0  0  0
  -25.6390  -15.4400   20.2910 N   0  0  0  0  0  0  0  0  0  0  0  0
  -24.8820  -16.0890   20.4720 H   0  0  0  0  0  0  0  0  0  0  0  0
  -26.4550  -15.8870   19.8950 H   0  0  0  0  0  0  0  0  0  0  0  0
  -28.1730  -24.9430   19.6310 C   0  0  0  0  0  2  0  0  0  0  0  0
  -28.3290  -26.4260   20.0660 O   0  0  0  0  0  0  0  0  0  0  0  0
  -24.5950  -31.9630   23.1350 C   0  0  0  0  0  0  0  0  0  0  0  0
  -27.2510  -27.3790   19.9930 C   0  0  0  0  0  0  0  0  0  0  0  0
  -23.4130  -30.5700   21.4810 C   0  0  0  0  0  3  0  0  0  0  0  0
  -24.8850  -29.0610   20.0120 C   0  0  0  0  0  0  0  0  0  0  0  0
  -25.9570  -30.8970   21.3040 C   0  0  0  0  0  2  0  0  0  0  0  0
  -26.0550  -29.5210   20.6260 C   0  0  0  0  0  0  0  0  0  0  0  0
  -27.2360  -28.6920   20.6080 C   0  0  0  0  0  3  0  0  0  0  0  0
  -26.0600  -27.0320   19.3160 C   0  0  0  0  0  3  0  0  0  0  0  0
  -24.8980  -27.8310   19.3410 C   0  0  0  0  0  3  0  0  0  0  0  0
  -23.6360  -29.9260   20.0870 C   0  0  0  0  0  2  0  0  0  0  0  0
  -24.6750  -31.1640   22.0270 N   0  0  0  0  0  0  0  0  0  0  0  0
  -23.5080  -32.2140   23.6760 O   0  0  0  0  0  0  0  0  0  0  0  0
  -22.7670  -29.5290   22.4280 C   0  0  0  0  0  0  0  0  0  0  0  0
  -21.4420  -29.3290   22.3060 N   0  0  0  0  0  0  0  0  0  0  0  0
  -23.4590  -28.9050   23.2360 O   0  0  0  0  0  0  0  0  0  0  0  0
  -20.9400  -29.8920   21.6330 H   0  0  0  0  0  0  0  0  0  0  0  0
  -18.0920  -28.0530   22.8150 C   0  0  0  0  0  0  0  0  0  0  0  0
  -20.6480  -28.3580   23.0620 C   0  0  0  0  0  3  0  0  0  0  0  0
  -20.7730  -26.9420   22.4550 C   0  0  0  0  0  2  0  0  0  0  0  0
  -19.6640  -26.6130   21.4490 C   0  0  0  0  0  2  0  0  0  0  0  0
  -18.2860  -26.7220   22.1070 C   0  0  0  0  0  2  0  0  0  0  0  0
  -19.2000  -28.8280   23.2500 C   0  0  0  0  0  0  0  0  0  0  0  0
  -18.9620  -30.0710   23.8740 C   0  0  0  0  0  3  0  0  0  0  0  0
  -17.6490  -30.5420   24.0650 C   0  0  0  0  0  3  0  0  0  0  0  0
  -16.5560  -29.7650   23.6450 C   0  0  0  0  0  3  0  0  0  0  0  0
  -16.7780  -28.5210   23.0260 C   0  0  0  0  0  3  0  0  0  0  0  0
  -25.8650  -32.6140   23.7630 C   0  0  0  0  0  3  0  0  0  0  0  0
  -25.5310  -34.0050   24.1040 N   0  0  0  0  0  0  0  0  0  0  0  0
  -25.8310  -35.0700   23.3470 C   0  0  0  0  0  0  0  0  0  0  0  0
  -26.4860  -34.9850   22.3050 O   0  0  0  0  0  0  0  0  0  0  0  0
  -24.9460  -34.1430   24.9140 H   0  0  0  0  0  0  0  0  0  0  0  0
  -24.0650  -36.8380   23.0320 C   0  0  0  0  0  1  0  0  0  0  0  0
  -25.3260  -36.4470   23.8220 C   0  0  0  0  0  3  0  0  0  0  0  0
  -27.4480  -37.3770   24.6380 C   0  0  0  0  0  1  0  0  0  0  0  0
  -26.3380  -37.5200   23.6990 N   0  0  0  0  0  0  0  0  0  0  0  0
  -25.9160  -38.4330   23.8450 H   0  0  0  0  0  0  0  0  0  0  0  0
  -26.3890  -31.8450   25.0390 C   0  0  1  0  0  0  0  0  0  0  0  0
  -25.2940  -31.5820   26.0990 C   0  0  0  0  0  1  0  0  0  0  0  0
  -27.0020  -30.4810   24.6480 C   0  0  0  0  0  1  0  0  0  0  0  0
  -27.5190  -32.6590   25.7110 C   0  0  0  0  0  1  0  0  0  0  0  0
  1  2  1  0
  3  1  1  0
  4 51  1  0
  4  2  1  0
  5  9  1  0
  5  3  1  0
  5  4  1  0
  6  7  1  0
  8 10  1  0
  9  6  2  0
 10 21  1  0
 10  7  2  0
 11  8  2  0
 11  9  1  0
 12 11  1  0
 13 19  1  0
 13 21  1  0
 14 19  1  0
 15 16  1  0
 15 14  1  0
 17 16  1  0
 17 26  1  0
 17 18  1  0
 19 18  1  0
 20 13  2  0
 21 22  1  0
 23 24  2  0
 24 43  1  0
 25 24  1  0
 25 28  1  0
 26 27  1  0
 26 23  1  0
 27 25  2  0
 28 29  1  0
 29 30  2  0
 31 34  1  0
 31 30  1  0
 32 31  2  0
 33 32  1  0
 33 28  2  0
 34 35  1  0
 35 40  2  0
 35 36  1  0
 36 37  2  0
 37 38  1  0
 38 42  1  0
 39 38  2  0
 40 39  1  0
 41 40  1  0
 43 44  1  0
 44 47  1  0
 44 46  1  0
 45 43  2  0
 48 23  1  0
 48 49  1  0
 50 48  1  0
 51 52  1  0
 53 64  2  0
 54 52  1  0
 54 59  1  0
 55 63  1  0
 55 65  1  0
 56 62  1  0
 56 58  1  0
 57 63  1  0
 58 57  1  0
 59 58  2  0
 60 61  1  0
 60 54  2  0
 61 56  2  0
 62 55  1  0
 63 53  1  0
 65 67  2  0
 66 65  1  0
 68 66  1  0
 69 78  2  0
 69 74  1  0
 70 66  1  0
 70 74  1  0
 71 70  1  0
 72 73  1  0
 72 71  1  0
 73 69  1  0
 74 75  2  0
 75 76  1  0
 77 76  2  0
 78 77  1  0
 79 53  1  0
 79 80  1  0
 79 89  1  0
 80 83  1  0
 81 85  1  0
 81 80  1  0
 82 81  2  0
 85 84  1  0
 87 85  1  0
 87 88  1  0
 87 86  1  0
 89 92  1  1
 89 90  1  0
 91 89  1  0
M  ISO  4  13 100  21 100  51 101  52 101
M  END
>  <TORSDO>  (80) 
F 18

>  <SCORE>  (80) 
-14.277

>  <name>  (80) 
80

>  <ligand_id>  (80) 
80

>  <original_smiles>  (80) 
[H]c1c([H])c([H])c2c(c1[H])C([H])([H])C([H])([H])C([H])([H])C2([H])N([H])C(=O)C1([H])N(C(=O)C([H])(N([H])C(=O)C([H])(N([H])C([H])([H])[H])C([H])([H])[H])C(C([H])([H])[H])(C([H])([H])[H])C([H])([H])[H])C([H])([H])c2c([H])c(OC([H])([H])C3([H])N(c4c([H])c([H])c(N([H])C(=O)N5C([H])([H])C([H])([H])C([H])([H])C([H])(n6nc(-c7c([H])c([H])c(Oc8c([H])c([H])c(F)c([H])c8F)c([H])c7[H])c(C(=O)N([H])[H])c6N([H])[H])C5([H])[H])c([H])c4F)C([H])([H])C([H])([H])C3([H])[H])c([H])c([H])c2C1([H])[H]

>  <smiles>  (80) 
[H]c1c([H])c([H])c2c(c1[H])C([H])([H])C([H])([H])C([H])([H])C2([H])N([H])C(=O)C1([H])N(C(=O)C([H])(N([H])C(=O)C([H])(N([H])C([H])([H])[H])C([H])([H])[H])C(C([H])([H])[H])(C([H])([H])[H])C([H])([H])[H])C([H])([H])c2c([H])c(OC([H])([H])C3([H])N(c4c([H])c([H])c(N([H])C(=O)N5C([H])([H])C([H])([H])C([H])([H])C([H])(n6nc(-c7c([H])c([H])c(Oc8c([H])c([H])c(F)c([H])c8F)c([H])c7[H])c(C(=O)N([H])[H])c6N([H])[H])C5([H])[H])c([H])c4F)C([H])([H])C([H])([H])C3([H])[H])c([H])c([H])c2C1([H])[H]

$$$$
81:0:0
     RDKit          3D

 93102  0  0  1  0  0  0  0  0999 V2000
  -29.9390  -24.2950   18.1230 C   0  0  0  0  0  2  0  0  0  0  0  0
  -28.4550  -24.0360   18.3740 C   0  0  0  0  0  2  0  0  0  0  0  0
  -30.6640  -23.4760   19.2010 C   0  0  0  0  0  2  0  0  0  0  0  0
  -28.4130  -23.7610   19.8740 C   0  0  0  0  0  3  0  0  0  0  0  0
  -29.6340  -22.9140   20.0840 N   0  0  0  0  0  0  0  0  0  0  0  0
  -31.2390  -19.5340   20.7890 C   0  0  0  0  0  3  0  0  0  0  0  0
  -31.0180  -20.9240   20.5890 C   0  0  0  0  0  3  0  0  0  0  0  0
  -28.7010  -20.5090   20.1790 C   0  0  0  0  0  3  0  0  0  0  0  0
  -30.2030  -18.5670   20.7150 C   0  0  0  0  0  0  0  0  0  0  0  0
  -29.7470  -21.4770   20.2760 C   0  0  0  0  0  0  0  0  0  0  0  0
  -28.9150  -19.0980   20.3960 C   0  0  0  0  0  0  0  0  0  0  0  0
  -27.5570  -18.0370   20.3030 Cl  0  0  0  0  0  0  0  0  0  0  0  0
  -30.5710  -17.0930   21.1830 C   0  0  0  0  0  2  0  0  0  0  0  0
  -30.6650  -14.6530   20.3720 C   0  0  0  0  0  0  0  0  0  0  0  0
  -30.3910  -12.4120   19.3200 C   0  0  0  0  0  2  0  0  0  0  0  0
  -29.4550  -12.5120   18.0960 C   0  0  0  0  0  2  0  0  0  0  0  0
  -27.9850  -12.3620   18.5280 C   0  0  0  0  0  2  0  0  0  0  0  0
  -27.6240  -13.2560   19.7460 C   0  0  0  0  0  3  0  0  0  0  0  0
  -28.6800  -13.1490   20.8680 C   0  0  0  0  0  2  0  0  0  0  0  0
  -29.9830  -13.4670   20.2700 N   0  0  0  0  0  0  0  0  0  0  0  0
  -31.8490  -14.7230   20.0350 O   0  0  0  0  0  0  0  0  0  0  0  0
  -29.9690  -15.7930   20.7050 N   0  0  0  0  0  0  0  0  0  0  0  0
  -28.9800  -15.6770   20.8650 H   0  0  0  0  0  0  0  0  0  0  0  0
  -25.2370  -13.8710   20.4580 C   0  0  0  0  0  0  0  0  0  0  0  0
  -24.1630  -13.1060   20.8260 C   0  0  0  0  0  0  0  0  0  0  0  0
  -24.6160  -11.7520   20.8080 C   0  0  0  0  0  0  0  0  0  0  0  0
  -26.2750  -12.9810   20.2340 N   0  0  0  0  0  0  0  0  0  0  0  0
  -25.9090  -11.7030   20.5070 N   0  0  0  0  0  0  0  0  0  0  0  0
  -23.8790  -10.4970   21.0020 C   0  0  0  0  0  0  0  0  0  0  0  0
  -24.2940   -9.5350   21.9490 C   0  0  0  0  0  3  0  0  0  0  0  0
  -23.5570   -8.3450   22.1310 C   0  0  0  0  0  3  0  0  0  0  0  0
  -22.3900   -8.1080   21.3650 C   0  0  0  0  0  0  0  0  0  0  0  0
  -21.9950   -9.0580   20.4070 C   0  0  0  0  0  3  0  0  0  0  0  0
  -22.7330  -10.2400   20.2230 C   0  0  0  0  0  3  0  0  0  0  0  0
  -21.6270   -6.9700   21.4540 O   0  0  0  0  0  0  0  0  0  0  0  0
  -21.5560   -6.2410   22.6140 C   0  0  0  0  0  0  0  0  0  0  0  0
  -21.1120   -6.8110   23.8270 C   0  0  0  0  0  3  0  0  0  0  0  0
  -20.9900   -6.0080   24.9800 C   0  0  0  0  0  3  0  0  0  0  0  0
  -21.2990   -4.6360   24.9190 C   0  0  0  0  0  0  0  0  0  0  0  0
  -21.7360   -4.0660   23.7110 C   0  0  0  0  0  3  0  0  0  0  0  0
  -21.8610   -4.8660   22.5610 C   0  0  0  0  0  0  0  0  0  0  0  0
  -22.2610   -4.3060   21.3940 F   0  0  0  0  0  0  0  0  0  0  0  0
  -21.1750   -3.8630   26.0230 F   0  0  0  0  0  0  0  0  0  0  0  0
  -22.7670  -13.5970   21.0870 C   0  0  0  0  0  0  0  0  0  0  0  0
  -22.0300  -12.9100   21.9510 N   0  0  0  0  0  0  0  0  0  0  0  0
  -22.3400  -14.6220   20.5580 O   0  0  0  0  0  0  0  0  0  0  0  0
  -22.3890  -12.0800   22.4000 H   0  0  0  0  0  0  0  0  0  0  0  0
  -21.0920  -13.2190   22.1670 H   0  0  0  0  0  0  0  0  0  0  0  0
  -25.4100  -15.2390   20.2750 N   0  0  0  0  0  0  0  0  0  0  0  0
  -24.6480  -15.8970   20.3950 H   0  0  0  0  0  0  0  0  0  0  0  0
  -26.2690  -15.6860   19.9780 H   0  0  0  0  0  0  0  0  0  0  0  0
  -28.3350  -25.1370   20.7160 C   0  0  0  0  0  2  0  0  0  0  0  0
  -28.3760  -26.4890   20.1050 O   0  0  0  0  0  0  0  0  0  0  0  0
  -24.5990  -31.8460   23.1800 C   0  0  0  0  0  0  0  0  0  0  0  0
  -27.2350  -27.3000   20.1370 C   0  0  0  0  0  0  0  0  0  0  0  0
  -23.3980  -30.4430   21.5390 C   0  0  0  0  0  3  0  0  0  0  0  0
  -24.8550  -28.8870   20.1210 C   0  0  0  0  0  0  0  0  0  0  0  0
  -25.9340  -30.7750   21.3480 C   0  0  0  0  0  2  0  0  0  0  0  0
  -26.0220  -29.3930   20.7110 C   0  0  0  0  0  0  0  0  0  0  0  0
  -27.2180  -28.6140   20.6990 C   0  0  0  0  0  3  0  0  0  0  0  0
  -26.0430  -26.8330   19.5470 C   0  0  0  0  0  3  0  0  0  0  0  0
  -24.8700  -27.6140   19.5270 C   0  0  0  0  0  3  0  0  0  0  0  0
  -23.6160  -29.7580   20.1630 C   0  0  0  0  0  2  0  0  0  0  0  0
  -24.6630  -31.0400   22.0800 N   0  0  0  0  0  0  0  0  0  0  0  0
  -23.5160  -32.1200   23.7160 O   0  0  0  0  0  0  0  0  0  0  0  0
  -22.7380  -29.4280   22.5010 C   0  0  0  0  0  0  0  0  0  0  0  0
  -21.4090  -29.2670   22.3910 N   0  0  0  0  0  0  0  0  0  0  0  0
  -23.4190  -28.7880   23.3060 O   0  0  0  0  0  0  0  0  0  0  0  0
  -20.9190  -29.8390   21.7160 H   0  0  0  0  0  0  0  0  0  0  0  0
  -18.0220  -28.1130   22.9270 C   0  0  0  0  0  0  0  0  0  0  0  0
  -20.5870  -28.3300   23.1600 C   0  0  0  0  0  3  0  0  0  0  0  0
  -20.6580  -26.9040   22.5650 C   0  0  0  0  0  2  0  0  0  0  0  0
  -19.5370  -26.6110   21.5630 C   0  0  0  0  0  2  0  0  0  0  0  0
  -18.1680  -26.7690   22.2310 C   0  0  0  0  0  2  0  0  0  0  0  0
  -19.1580  -28.8520   23.3490 C   0  0  0  0  0  0  0  0  0  0  0  0
  -18.9690  -30.1100   23.9610 C   0  0  0  0  0  3  0  0  0  0  0  0
  -17.6750  -30.6300   24.1520 C   0  0  0  0  0  3  0  0  0  0  0  0
  -16.5540  -29.8860   23.7480 C   0  0  0  0  0  3  0  0  0  0  0  0
  -16.7270  -28.6300   23.1410 C   0  0  0  0  0  3  0  0  0  0  0  0
  -25.8800  -32.4800   23.8060 C   0  0  0  0  0  3  0  0  0  0  0  0
  -26.4080  -31.6990   25.0730 C   0  0  1  0  0  0  0  0  0  0  0  0
  -25.3220  -31.4370   26.1430 C   0  0  0  0  0  1  0  0  0  0  0  0
  -27.0000  -30.3330   24.6580 C   0  0  0  0  0  1  0  0  0  0  0  0
  -27.5560  -32.4930   25.7400 C   0  0  0  0  0  1  0  0  0  0  0  0
  -25.5640  -33.8730   24.1560 N   0  0  0  0  0  0  0  0  0  0  0  0
  -25.8800  -34.9380   23.4040 C   0  0  0  0  0  0  0  0  0  0  0  0
  -26.5400  -34.8510   22.3660 O   0  0  0  0  0  0  0  0  0  0  0  0
  -24.9850  -34.0140   24.9700 H   0  0  0  0  0  0  0  0  0  0  0  0
  -24.1360  -36.7200   23.0880 C   0  0  0  0  0  1  0  0  0  0  0  0
  -25.3860  -36.3160   23.8830 C   0  0  0  0  0  3  0  0  0  0  0  0
  -27.5190  -37.2080   24.7070 C   0  0  0  0  0  1  0  0  0  0  0  0
  -26.4100  -37.3790   23.7750 N   0  0  0  0  0  0  0  0  0  0  0  0
  -25.9960  -38.2930   23.9380 H   0  0  0  0  0  0  0  0  0  0  0  0
  1  2  1  0
  1  3  1  0
  2  4  1  0
  3  5  1  0
  4  5  1  0
  4 52  1  0
  5 10  1  0
  7  6  2  0
  8 10  2  0
  8 11  1  0
  9  6  1  0
  9 13  1  0
 10  7  1  0
 11  9  2  0
 12 11  1  0
 14 22  1  0
 15 20  1  0
 16 17  1  0
 16 15  1  0
 18 17  1  0
 18 27  1  0
 18 19  1  0
 20 14  1  0
 20 19  1  0
 21 14  2  0
 22 23  1  0
 22 13  1  0
 24 25  2  0
 25 44  1  0
 26 25  1  0
 26 29  1  0
 27 24  1  0
 27 28  1  0
 28 26  2  0
 29 30  1  0
 30 31  2  0
 32 35  1  0
 32 31  1  0
 33 32  2  0
 34 33  1  0
 34 29  2  0
 35 36  1  0
 36 37  1  0
 37 38  2  0
 39 38  1  0
 39 43  1  0
 40 39  2  0
 41 36  2  0
 41 40  1  0
 42 41  1  0
 44 45  1  0
 45 48  1  0
 45 47  1  0
 46 44  2  0
 49 50  1  0
 49 24  1  0
 51 49  1  0
 53 55  1  0
 53 52  1  0
 54 65  2  0
 55 60  1  0
 56 64  1  0
 56 66  1  0
 57 63  1  0
 57 59  1  0
 58 64  1  0
 59 58  1  0
 60 59  2  0
 61 55  2  0
 62 61  1  0
 62 57  2  0
 63 56  1  0
 64 54  1  0
 66 68  2  0
 67 66  1  0
 69 67  1  0
 70 79  2  0
 70 75  1  0
 71 67  1  0
 71 75  1  0
 72 71  1  0
 73 74  1  0
 73 72  1  0
 74 70  1  0
 75 76  2  0
 76 77  1  0
 78 77  2  0
 79 78  1  0
 80 54  1  0
 80 85  1  0
 80 81  1  0
 81 84  1  1
 81 82  1  0
 83 81  1  0
 85 88  1  0
 86 90  1  0
 86 85  1  0
 87 86  2  0
 90 89  1  0
 92 90  1  0
 92 93  1  0
 92 91  1  0
M  ISO  4  14 100  22 100  52 101  53 101
M  END
>  <TORSDO>  (81) 
F 19

>  <SCORE>  (81) 
-14.519

>  <name>  (81) 
81

>  <ligand_id>  (81) 
81

>  <original_smiles>  (81) 
[H]c1c([H])c([H])c2c(c1[H])C([H])([H])C([H])([H])C([H])([H])C2([H])N([H])C(=O)C1([H])N(C(=O)C([H])(N([H])C(=O)C([H])(N([H])C([H])([H])[H])C([H])([H])[H])C(C([H])([H])[H])(C([H])([H])[H])C([H])([H])[H])C([H])([H])c2c([H])c(OC([H])([H])C3([H])N(c4c([H])c([H])c(C([H])([H])N([H])C(=O)N5C([H])([H])C([H])([H])C([H])([H])C([H])(n6nc(-c7c([H])c([H])c(Oc8c([H])c([H])c(F)c([H])c8F)c([H])c7[H])c(C(=O)N([H])[H])c6N([H])[H])C5([H])[H])c(Cl)c4[H])C([H])([H])C([H])([H])C3([H])[H])c([H])c([H])c2C1([H])[H]

>  <smiles>  (81) 
[H]c1c([H])c([H])c2c(c1[H])C([H])([H])C([H])([H])C([H])([H])C2([H])N([H])C(=O)C1([H])N(C(=O)C([H])(N([H])C(=O)C([H])(N([H])C([H])([H])[H])C([H])([H])[H])C(C([H])([H])[H])(C([H])([H])[H])C([H])([H])[H])C([H])([H])c2c([H])c(OC([H])([H])C3([H])N(c4c([H])c([H])c(C([H])([H])N([H])C(=O)N5C([H])([H])C([H])([H])C([H])([H])C([H])(n6nc(-c7c([H])c([H])c(Oc8c([H])c([H])c(F)c([H])c8F)c([H])c7[H])c(C(=O)N([H])[H])c6N([H])[H])C5([H])[H])c(Cl)c4[H])C([H])([H])C([H])([H])C3([H])[H])c([H])c([H])c2C1([H])[H]

$$$$
82:0:0
     RDKit          3D

 93101  0  0  1  0  0  0  0  0999 V2000
  -30.1140  -20.2950   19.1460 C   0  0  0  0  0  3  0  0  0  0  0  0
  -29.0740  -18.9100   21.3520 C   0  0  0  0  0  3  0  0  0  0  0  0
  -30.1410  -18.8760   19.1680 C   0  0  0  0  0  0  0  0  0  0  0  0
  -29.6010  -18.1650   20.2730 C   0  0  0  0  0  0  0  0  0  0  0  0
  -29.5570  -21.0360   20.2160 C   0  0  0  0  0  0  0  0  0  0  0  0
  -29.0520  -20.3210   21.3260 C   0  0  0  0  0  0  0  0  0  0  0  0
  -30.7270  -18.1380   17.9770 C   0  0  0  0  0  1  0  0  0  0  0  0
  -28.5210  -21.0000   22.3740 F   0  0  0  0  0  0  0  0  0  0  0  0
  -29.4700  -22.4470   20.2270 N   0  0  0  0  0  0  0  0  0  0  0  0
  -29.1160  -22.8840   21.0740 H   0  0  0  0  0  0  0  0  0  0  0  0
  -30.0040  -23.2860   19.1480 C   0  0  0  0  0  2  0  0  0  0  0  0
  -29.9500  -24.8160   19.4280 C   0  0  0  0  0  2  0  0  0  0  0  0
  -28.5920  -25.5080   19.1600 C   0  0  0  0  0  2  0  0  0  0  0  0
  -28.6360  -26.9220   19.4500 O   0  0  0  0  0  0  0  0  0  0  0  0
  -24.6980  -31.6340   23.0710 C   0  0  0  0  0  0  0  0  0  0  0  0
  -27.4320  -27.6050   19.5160 C   0  0  0  0  0  0  0  0  0  0  0  0
  -23.5060  -30.3450   21.3310 C   0  0  0  0  0  3  0  0  0  0  0  0
  -24.9800  -29.0170   19.7290 C   0  0  0  0  0  0  0  0  0  0  0  0
  -26.0100  -30.8260   21.1080 C   0  0  0  0  0  2  0  0  0  0  0  0
  -26.1330  -29.5270   20.3360 C   0  0  0  0  0  0  0  0  0  0  0  0
  -27.3610  -28.8310   20.2230 C   0  0  0  0  0  3  0  0  0  0  0  0
  -26.2540  -27.1180   18.9020 C   0  0  0  0  0  3  0  0  0  0  0  0
  -25.0360  -27.8130   19.0080 C   0  0  0  0  0  3  0  0  0  0  0  0
  -23.7040  -29.8130   19.8870 C   0  0  0  0  0  2  0  0  0  0  0  0
  -24.7570  -30.9450   21.8960 N   0  0  0  0  0  0  0  0  0  0  0  0
  -23.6220  -31.8060   23.6600 O   0  0  0  0  0  0  0  0  0  0  0  0
  -22.9230  -29.2080   22.2030 C   0  0  0  0  0  0  0  0  0  0  0  0
  -21.6040  -28.9830   22.0910 N   0  0  0  0  0  0  0  0  0  0  0  0
  -23.6540  -28.5360   22.9360 O   0  0  0  0  0  0  0  0  0  0  0  0
  -21.0720  -29.5840   21.4770 H   0  0  0  0  0  0  0  0  0  0  0  0
  -18.2950  -27.6070   22.5550 C   0  0  0  0  0  0  0  0  0  0  0  0
  -20.8480  -27.9420   22.7860 C   0  0  0  0  0  3  0  0  0  0  0  0
  -20.9890  -26.5790   22.0690 C   0  0  0  0  0  2  0  0  0  0  0  0
  -19.8710  -26.3120   21.0570 C   0  0  0  0  0  2  0  0  0  0  0  0
  -18.5030  -26.3370   21.7470 C   0  0  0  0  0  2  0  0  0  0  0  0
  -19.3950  -28.3690   23.0300 C   0  0  0  0  0  0  0  0  0  0  0  0
  -19.1460  -29.5600   23.7450 C   0  0  0  0  0  3  0  0  0  0  0  0
  -17.8290  -29.9900   23.9920 C   0  0  0  0  0  3  0  0  0  0  0  0
  -16.7440  -29.2240   23.5340 C   0  0  0  0  0  3  0  0  0  0  0  0
  -16.9780  -28.0350   22.8200 C   0  0  0  0  0  3  0  0  0  0  0  0
  -25.9740  -32.2580   23.7170 C   0  0  0  0  0  3  0  0  0  0  0  0
  -25.6280  -33.6180   24.1540 N   0  0  0  0  0  0  0  0  0  0  0  0
  -25.9220  -34.7330   23.4720 C   0  0  0  0  0  0  0  0  0  0  0  0
  -26.5850  -34.7260   22.4300 O   0  0  0  0  0  0  0  0  0  0  0  0
  -25.0380  -33.6940   24.9690 H   0  0  0  0  0  0  0  0  0  0  0  0
  -24.1350  -36.4910   23.2690 C   0  0  0  0  0  1  0  0  0  0  0  0
  -25.3980  -36.0680   24.0350 C   0  0  0  0  0  3  0  0  0  0  0  0
  -27.5100  -36.9630   24.9130 C   0  0  0  0  0  1  0  0  0  0  0  0
  -26.3960  -37.1590   23.9880 N   0  0  0  0  0  0  0  0  0  0  0  0
  -25.9620  -38.0530   24.1990 H   0  0  0  0  0  0  0  0  0  0  0  0
  -26.5390  -31.4110   24.9230 C   0  0  1  0  0  0  0  0  0  0  0  0
  -25.4750  -31.0620   25.9890 C   0  0  0  0  0  1  0  0  0  0  0  0
  -27.1540  -30.0850   24.4180 C   0  0  0  0  0  1  0  0  0  0  0  0
  -27.6780  -32.1890   25.6220 C   0  0  0  0  0  1  0  0  0  0  0  0
  -29.4790  -16.6250   20.2910 C   0  0  0  0  0  2  0  0  0  0  0  0
  -31.1310  -14.8040   20.0580 C   0  0  0  0  0  0  0  0  0  0  0  0
  -30.7520  -12.6030   18.9920 C   0  0  0  0  0  2  0  0  0  0  0  0
  -29.7750  -12.7340   17.8070 C   0  0  0  0  0  2  0  0  0  0  0  0
  -28.3180  -12.6020   18.2900 C   0  0  0  0  0  2  0  0  0  0  0  0
  -28.0130  -13.5120   19.5070 C   0  0  0  0  0  3  0  0  0  0  0  0
  -29.1020  -13.3750   20.5960 C   0  0  0  0  0  2  0  0  0  0  0  0
  -30.4080  -13.6470   19.9740 N   0  0  0  0  0  0  0  0  0  0  0  0
  -32.2360  -14.9220   19.5210 O   0  0  0  0  0  0  0  0  0  0  0  0
  -31.5090  -16.5230   21.7300 C   0  0  0  0  0  1  0  0  0  0  0  0
  -30.6190  -15.8230   20.7970 N   0  0  0  0  0  0  0  0  0  0  0  0
  -25.6690  -14.1840   20.3230 C   0  0  0  0  0  0  0  0  0  0  0  0
  -24.5940  -13.4380   20.7250 C   0  0  0  0  0  0  0  0  0  0  0  0
  -25.0130  -12.0740   20.6580 C   0  0  0  0  0  0  0  0  0  0  0  0
  -26.6760  -13.2740   20.0390 N   0  0  0  0  0  0  0  0  0  0  0  0
  -26.2880  -12.0000   20.2990 N   0  0  0  0  0  0  0  0  0  0  0  0
  -24.2590  -10.8320   20.8570 C   0  0  0  0  0  0  0  0  0  0  0  0
  -24.6520   -9.8750   21.8190 C   0  0  0  0  0  3  0  0  0  0  0  0
  -23.9000   -8.6960   22.0050 C   0  0  0  0  0  3  0  0  0  0  0  0
  -22.7400   -8.4650   21.2270 C   0  0  0  0  0  0  0  0  0  0  0  0
  -22.3660   -9.4080   20.2550 C   0  0  0  0  0  3  0  0  0  0  0  0
  -23.1190  -10.5790   20.0670 C   0  0  0  0  0  3  0  0  0  0  0  0
  -21.9620   -7.3360   21.3210 O   0  0  0  0  0  0  0  0  0  0  0  0
  -21.8150   -6.6610   22.5060 C   0  0  0  0  0  0  0  0  0  0  0  0
  -21.2780   -7.2800   23.6550 C   0  0  0  0  0  3  0  0  0  0  0  0
  -21.0790   -6.5300   24.8320 C   0  0  0  0  0  3  0  0  0  0  0  0
  -21.4070   -5.1610   24.8580 C   0  0  0  0  0  0  0  0  0  0  0  0
  -21.9380   -4.5410   23.7130 C   0  0  0  0  0  3  0  0  0  0  0  0
  -22.1380   -5.2890   22.5390 C   0  0  0  0  0  0  0  0  0  0  0  0
  -22.6300   -4.6830   21.4320 F   0  0  0  0  0  0  0  0  0  0  0  0
  -21.2090   -4.4380   25.9850 F   0  0  0  0  0  0  0  0  0  0  0  0
  -23.2230  -13.9520   21.0570 C   0  0  0  0  0  0  0  0  0  0  0  0
  -22.5120  -13.2680   21.9450 N   0  0  0  0  0  0  0  0  0  0  0  0
  -22.7940  -14.9950   20.5650 O   0  0  0  0  0  0  0  0  0  0  0  0
  -22.8720  -12.4250   22.3660 H   0  0  0  0  0  0  0  0  0  0  0  0
  -21.5920  -13.5930   22.2100 H   0  0  0  0  0  0  0  0  0  0  0  0
  -25.8650  -15.5510   20.1540 N   0  0  0  0  0  0  0  0  0  0  0  0
  -25.1130  -16.2180   20.2940 H   0  0  0  0  0  0  0  0  0  0  0  0
  -26.6960  -15.9720   19.7620 H   0  0  0  0  0  0  0  0  0  0  0  0
  1  3  2  0
  1  5  1  0
  3  4  1  0
  4 55  1  0
  4  2  2  0
  5  9  1  0
  5  6  2  0
  6  2  1  0
  6  8  1  0
  7  3  1  0
  9 10  1  0
 11 12  1  0
 11  9  1  0
 13 12  1  0
 13 14  1  0
 14 16  1  0
 15 26  2  0
 16 21  1  0
 17 25  1  0
 17 27  1  0
 18 24  1  0
 18 20  1  0
 19 25  1  0
 20 19  1  0
 21 20  2  0
 22 23  1  0
 22 16  2  0
 23 18  2  0
 24 17  1  0
 25 15  1  0
 27 29  2  0
 28 27  1  0
 30 28  1  0
 31 40  2  0
 31 36  1  0
 32 28  1  0
 32 36  1  0
 33 32  1  0
 34 35  1  0
 34 33  1  0
 35 31  1  0
 36 37  2  0
 37 38  1  0
 39 38  2  0
 40 39  1  0
 41 15  1  0
 41 42  1  0
 41 51  1  0
 42 45  1  0
 43 47  1  0
 43 42  1  0
 44 43  2  0
 47 46  1  0
 49 47  1  0
 49 50  1  0
 49 48  1  0
 51 54  1  1
 51 52  1  0
 53 51  1  0
 55 65  1  0
 56 65  1  0
 57 62  1  0
 58 59  1  0
 58 57  1  0
 60 59  1  0
 60 69  1  0
 60 61  1  0
 62 56  1  0
 62 61  1  0
 63 56  2  0
 65 64  1  0
 66 67  2  0
 67 86  1  0
 68 67  1  0
 68 71  1  0
 69 70  1  0
 69 66  1  0
 70 68  2  0
 71 72  1  0
 72 73  2  0
 74 77  1  0
 74 73  1  0
 75 74  2  0
 76 75  1  0
 76 71  2  0
 77 78  1  0
 78 83  2  0
 78 79  1  0
 79 80  2  0
 80 81  1  0
 81 85  1  0
 82 81  2  0
 83 82  1  0
 84 83  1  0
 86 87  1  0
 87 90  1  0
 87 89  1  0
 88 86  2  0
 91 92  1  0
 91 66  1  0
 93 91  1  0
M  ISO  4  13 101  14 101  56 100  65 100
M  END
>  <TORSDO>  (82) 
F 21

>  <SCORE>  (82) 
-11.135

>  <name>  (82) 
82

>  <ligand_id>  (82) 
82

>  <original_smiles>  (82) 
[H]c1c([H])c([H])c2c(c1[H])C([H])([H])C([H])([H])C([H])([H])C2([H])N([H])C(=O)C1([H])N(C(=O)C([H])(N([H])C(=O)C([H])(N([H])C([H])([H])[H])C([H])([H])[H])C(C([H])([H])[H])(C([H])([H])[H])C([H])([H])[H])C([H])([H])c2c([H])c(OC([H])([H])C([H])([H])C([H])([H])N([H])c3c([H])c(C([H])([H])[H])c(C([H])([H])N(C(=O)N4C([H])([H])C([H])([H])C([H])([H])C([H])(n5nc(-c6c([H])c([H])c(Oc7c([H])c([H])c(F)c([H])c7F)c([H])c6[H])c(C(=O)N([H])[H])c5N([H])[H])C4([H])[H])C([H])([H])[H])c([H])c3F)c([H])c([H])c2C1([H])[H]

>  <smiles>  (82) 
[H]c1c([H])c([H])c2c(c1[H])C([H])([H])C([H])([H])C([H])([H])C2([H])N([H])C(=O)C1([H])N(C(=O)C([H])(N([H])C(=O)C([H])(N([H])C([H])([H])[H])C([H])([H])[H])C(C([H])([H])[H])(C([H])([H])[H])C([H])([H])[H])C([H])([H])c2c([H])c(OC([H])([H])C([H])([H])C([H])([H])N([H])c3c([H])c(C([H])([H])[H])c(C([H])([H])N(C(=O)N4C([H])([H])C([H])([H])C([H])([H])C([H])(n5nc(-c6c([H])c([H])c(Oc7c([H])c([H])c(F)c([H])c7F)c([H])c6[H])c(C(=O)N([H])[H])c5N([H])[H])C4([H])[H])C([H])([H])[H])c([H])c3F)c([H])c([H])c2C1([H])[H]

$$$$
83:0:0
     RDKit          3D

 93102  0  0  1  0  0  0  0  0999 V2000
  -29.2290  -19.0060   20.3390 C   0  0  0  0  0  3  0  0  0  0  0  0
  -31.1820  -17.8890   21.2910 C   0  0  0  0  0  3  0  0  0  0  0  0
  -29.6600  -20.3790   20.8060 C   0  0  0  0  0  0  0  0  0  0  0  0
  -30.8470  -20.3180   21.5560 C   0  0  0  0  0  0  0  0  0  0  0  0
  -29.9750  -17.7030   20.5890 C   0  0  0  0  0  0  0  0  0  0  0  0
  -31.6060  -19.1420   21.7690 C   0  0  0  0  0  0  0  0  0  0  0  0
  -29.2570  -21.9820   20.8810 C   0  0  0  0  0  3  0  0  0  0  0  0
  -30.2420  -22.5180   21.8290 C   0  0  0  0  0  0  0  0  0  0  0  0
  -28.3860  -22.9910   20.3440 C   0  0  0  0  0  2  0  0  0  0  0  0
  -32.3170  -21.8180   22.9720 C   0  0  0  0  0  1  0  0  0  0  0  0
  -31.1490  -21.5720   22.1200 N   0  0  0  0  0  0  0  0  0  0  0  0
  -30.3080  -23.6670   22.2810 O   0  0  0  0  0  0  0  0  0  0  0  0
  -32.7600  -19.1750   22.4790 F   0  0  0  0  0  0  0  0  0  0  0  0
  -30.3910  -14.9840   20.1750 C   0  0  0  0  0  0  0  0  0  0  0  0
  -30.2550  -12.6430   19.1550 C   0  0  0  0  0  2  0  0  0  0  0  0
  -29.2690  -12.5820   17.9670 C   0  0  0  0  0  2  0  0  0  0  0  0
  -27.8340  -12.3280   18.4640 C   0  0  0  0  0  2  0  0  0  0  0  0
  -27.4610  -13.2250   19.6730 C   0  0  0  0  0  3  0  0  0  0  0  0
  -28.5680  -13.2530   20.7480 C   0  0  0  0  0  2  0  0  0  0  0  0
  -29.7880  -13.7220   20.0810 N   0  0  0  0  0  0  0  0  0  0  0  0
  -31.5980  -15.0150   19.9040 O   0  0  0  0  0  0  0  0  0  0  0  0
  -29.6240  -16.2070   20.3010 N   0  0  0  0  0  0  0  0  0  0  0  0
  -28.6330  -16.0290   20.2480 H   0  0  0  0  0  0  0  0  0  0  0  0
  -25.1120  -13.7500   20.5300 C   0  0  0  0  0  0  0  0  0  0  0  0
  -24.0750  -12.9530   20.9260 C   0  0  0  0  0  0  0  0  0  0  0  0
  -24.5580  -11.6100   20.8520 C   0  0  0  0  0  0  0  0  0  0  0  0
  -26.1550  -12.8920   20.2290 N   0  0  0  0  0  0  0  0  0  0  0  0
  -25.8360  -11.5990   20.4890 N   0  0  0  0  0  0  0  0  0  0  0  0
  -23.8560  -10.3340   21.0450 C   0  0  0  0  0  0  0  0  0  0  0  0
  -24.3200   -9.3660   21.9620 C   0  0  0  0  0  3  0  0  0  0  0  0
  -23.6140   -8.1560   22.1440 C   0  0  0  0  0  3  0  0  0  0  0  0
  -22.4300   -7.9080   21.4090 C   0  0  0  0  0  0  0  0  0  0  0  0
  -21.9870   -8.8640   20.4800 C   0  0  0  0  0  3  0  0  0  0  0  0
  -22.6920  -10.0650   20.2960 C   0  0  0  0  0  3  0  0  0  0  0  0
  -21.6940   -6.7510   21.5010 O   0  0  0  0  0  0  0  0  0  0  0  0
  -21.6690   -6.0050   22.6520 C   0  0  0  0  0  0  0  0  0  0  0  0
  -21.2170   -6.5400   23.8790 C   0  0  0  0  0  3  0  0  0  0  0  0
  -21.1430   -5.7170   25.0210 C   0  0  0  0  0  3  0  0  0  0  0  0
  -21.5090   -4.3600   24.9380 C   0  0  0  0  0  0  0  0  0  0  0  0
  -21.9540   -3.8250   23.7150 C   0  0  0  0  0  3  0  0  0  0  0  0
  -22.0300   -4.6440   22.5760 C   0  0  0  0  0  0  0  0  0  0  0  0
  -22.4390   -4.1170   21.3960 F   0  0  0  0  0  0  0  0  0  0  0  0
  -21.4300   -3.5670   26.0310 F   0  0  0  0  0  0  0  0  0  0  0  0
  -22.6830  -13.4050   21.2570 C   0  0  0  0  0  0  0  0  0  0  0  0
  -21.9990  -12.6870   22.1400 N   0  0  0  0  0  0  0  0  0  0  0  0
  -22.2120  -14.4320   20.7680 O   0  0  0  0  0  0  0  0  0  0  0  0
  -22.3940  -11.8560   22.5560 H   0  0  0  0  0  0  0  0  0  0  0  0
  -21.0660  -12.9730   22.4040 H   0  0  0  0  0  0  0  0  0  0  0  0
  -25.2480  -15.1260   20.3720 N   0  0  0  0  0  0  0  0  0  0  0  0
  -24.4750  -15.7640   20.5280 H   0  0  0  0  0  0  0  0  0  0  0  0
  -26.0650  -15.5850   19.9930 H   0  0  0  0  0  0  0  0  0  0  0  0
  -27.9190  -24.5390   20.8580 C   0  0  0  0  0  2  0  0  0  0  0  0
  -28.2240  -25.9950   20.3280 O   0  0  0  0  0  0  0  0  0  0  0  0
  -24.5970  -31.8220   23.2430 C   0  0  0  0  0  0  0  0  0  0  0  0
  -27.1950  -27.0260   20.3060 C   0  0  0  0  0  0  0  0  0  0  0  0
  -23.4180  -30.4110   21.6050 C   0  0  0  0  0  3  0  0  0  0  0  0
  -24.8810  -28.8110   20.2180 C   0  0  0  0  0  0  0  0  0  0  0  0
  -25.9780  -30.6570   21.4740 C   0  0  0  0  0  2  0  0  0  0  0  0
  -26.0580  -29.2520   20.8380 C   0  0  0  0  0  0  0  0  0  0  0  0
  -27.2190  -28.3780   20.8580 C   0  0  0  0  0  3  0  0  0  0  0  0
  -25.9930  -26.7010   19.6440 C   0  0  0  0  0  3  0  0  0  0  0  0
  -24.8650  -27.5500   19.6020 C   0  0  0  0  0  3  0  0  0  0  0  0
  -23.6580  -29.7170   20.2390 C   0  0  0  0  0  2  0  0  0  0  0  0
  -24.6850  -30.9870   22.1620 N   0  0  0  0  0  0  0  0  0  0  0  0
  -23.5040  -32.1140   23.7530 O   0  0  0  0  0  0  0  0  0  0  0  0
  -22.7220  -29.4170   22.5700 C   0  0  0  0  0  0  0  0  0  0  0  0
  -21.3930  -29.2590   22.4410 N   0  0  0  0  0  0  0  0  0  0  0  0
  -23.3830  -28.7890   23.4020 O   0  0  0  0  0  0  0  0  0  0  0  0
  -20.9150  -29.8160   21.7460 H   0  0  0  0  0  0  0  0  0  0  0  0
  -17.9950  -28.1060   22.9560 C   0  0  0  0  0  0  0  0  0  0  0  0
  -20.5590  -28.3330   23.2130 C   0  0  0  0  0  3  0  0  0  0  0  0
  -20.6370  -26.9000   22.6370 C   0  0  0  0  0  2  0  0  0  0  0  0
  -19.5270  -26.5930   21.6270 C   0  0  0  0  0  2  0  0  0  0  0  0
  -18.1510  -26.7560   22.2760 C   0  0  0  0  0  2  0  0  0  0  0  0
  -19.1260  -28.8530   23.3810 C   0  0  0  0  0  0  0  0  0  0  0  0
  -18.9240  -30.1160   23.9800 C   0  0  0  0  0  3  0  0  0  0  0  0
  -17.6260  -30.6330   24.1540 C   0  0  0  0  0  3  0  0  0  0  0  0
  -16.5110  -29.8830   23.7420 C   0  0  0  0  0  3  0  0  0  0  0  0
  -16.6950  -28.6210   23.1500 C   0  0  0  0  0  3  0  0  0  0  0  0
  -25.8670  -32.4660   23.8800 C   0  0  0  0  0  3  0  0  0  0  0  0
  -25.5490  -33.8680   24.1970 N   0  0  0  0  0  0  0  0  0  0  0  0
  -25.8910  -34.9190   23.4390 C   0  0  0  0  0  0  0  0  0  0  0  0
  -26.5730  -34.8120   22.4180 O   0  0  0  0  0  0  0  0  0  0  0  0
  -24.9450  -34.0260   24.9890 H   0  0  0  0  0  0  0  0  0  0  0  0
  -24.1750  -36.7210   23.0580 C   0  0  0  0  0  1  0  0  0  0  0  0
  -25.4030  -36.3120   23.8870 C   0  0  0  0  0  3  0  0  0  0  0  0
  -27.5230  -37.1970   24.7530 C   0  0  0  0  0  1  0  0  0  0  0  0
  -26.4400  -37.3610   23.7870 N   0  0  0  0  0  0  0  0  0  0  0  0
  -26.0340  -38.2840   23.9210 H   0  0  0  0  0  0  0  0  0  0  0  0
  -26.3580  -31.7110   25.1770 C   0  0  1  0  0  0  0  0  0  0  0  0
  -25.2450  -31.4880   26.2280 C   0  0  0  0  0  1  0  0  0  0  0  0
  -26.9490  -30.3280   24.8200 C   0  0  0  0  0  1  0  0  0  0  0  0
  -27.4970  -32.5140   25.8490 C   0  0  0  0  0  1  0  0  0  0  0  0
  1  5  2  0
  1  3  1  0
  2  6  2  0
  3  7  1  0
  3  4  2  0
  4  6  1  0
  4 11  1  0
  5  2  1  0
  6 13  1  0
  7  9  1  0
  7  8  1  0
  8 11  1  0
  8 12  2  0
  9 52  1  0
 11 10  1  0
 14 22  1  0
 15 20  1  0
 16 17  1  0
 16 15  1  0
 18 17  1  0
 18 27  1  0
 18 19  1  0
 20 14  1  0
 20 19  1  0
 21 14  2  0
 22  5  1  0
 23 22  1  0
 24 25  2  0
 25 44  1  0
 26 25  1  0
 26 29  1  0
 27 28  1  0
 27 24  1  0
 28 26  2  0
 29 30  1  0
 30 31  2  0
 32 35  1  0
 32 31  1  0
 33 32  2  0
 34 33  1  0
 34 29  2  0
 35 36  1  0
 36 37  1  0
 37 38  2  0
 39 38  1  0
 39 43  1  0
 40 39  2  0
 41 36  2  0
 41 40  1  0
 42 41  1  0
 44 45  1  0
 45 48  1  0
 45 47  1  0
 46 44  2  0
 49 50  1  0
 49 24  1  0
 51 49  1  0
 53 52  1  0
 54 65  2  0
 55 53  1  0
 55 60  1  0
 56 64  1  0
 56 66  1  0
 57 63  1  0
 57 59  1  0
 58 64  1  0
 59 60  2  0
 59 58  1  0
 61 55  2  0
 62 61  1  0
 62 57  2  0
 63 56  1  0
 64 54  1  0
 66 68  2  0
 67 66  1  0
 69 67  1  0
 70 79  2  0
 70 75  1  0
 71 67  1  0
 71 75  1  0
 72 71  1  0
 73 74  1  0
 73 72  1  0
 74 70  1  0
 75 76  2  0
 76 77  1  0
 78 77  2  0
 79 78  1  0
 80 54  1  0
 80 81  1  0
 80 90  1  0
 81 84  1  0
 82 86  1  0
 82 81  1  0
 83 82  2  0
 86 85  1  0
 88 86  1  0
 88 89  1  0
 88 87  1  0
 90 93  1  1
 90 91  1  0
 92 90  1  0
M  ISO  4  14 100  22 100  52 101  53 101
M  END
>  <TORSDO>  (83) 
F 17

>  <SCORE>  (83) 
-15.359

>  <name>  (83) 
83

>  <ligand_id>  (83) 
83

>  <original_smiles>  (83) 
[H]C(=C1C(=O)N(C([H])([H])[H])c2c(F)c([H])c(N([H])C(=O)N3C([H])([H])C([H])([H])C([H])([H])C([H])(n4nc(-c5c([H])c([H])c(Oc6c([H])c([H])c(F)c([H])c6F)c([H])c5[H])c(C(=O)N([H])[H])c4N([H])[H])C3([H])[H])c([H])c21)C([H])([H])Oc1c([H])c([H])c2c(c1[H])C([H])([H])N(C(=O)C([H])(N([H])C(=O)C([H])(N([H])C([H])([H])[H])C([H])([H])[H])C(C([H])([H])[H])(C([H])([H])[H])C([H])([H])[H])C([H])(C(=O)N([H])C1([H])c3c([H])c([H])c([H])c([H])c3C([H])([H])C([H])([H])C1([H])[H])C2([H])[H]

>  <smiles>  (83) 
[H]C(=C1C(=O)N(C([H])([H])[H])c2c(F)c([H])c(N([H])C(=O)N3C([H])([H])C([H])([H])C([H])([H])C([H])(n4nc(-c5c([H])c([H])c(Oc6c([H])c([H])c(F)c([H])c6F)c([H])c5[H])c(C(=O)N([H])[H])c4N([H])[H])C3([H])[H])c([H])c21)C([H])([H])Oc1c([H])c([H])c2c(c1[H])C([H])([H])N(C(=O)C([H])(N([H])C(=O)C([H])(N([H])C([H])([H])[H])C([H])([H])[H])C(C([H])([H])[H])(C([H])([H])[H])C([H])([H])[H])C([H])(C(=O)N([H])C1([H])c3c([H])c([H])c([H])c([H])c3C([H])([H])C([H])([H])C1([H])[H])C2([H])[H]

$$$$
84:0:0
     RDKit          3D

 92100  0  0  1  0  0  0  0  0999 V2000
  -30.5070  -19.3340   19.6500 C   0  0  0  0  0  3  0  0  0  0  0  0
  -30.8560  -17.9730   19.9470 C   0  0  0  0  0  3  0  0  0  0  0  0
  -28.1600  -18.7770   19.7980 C   0  0  0  0  0  0  0  0  0  0  0  0
  -29.1530  -19.7660   19.5410 C   0  0  0  0  0  0  0  0  0  0  0  0
  -29.8550  -16.9870   20.1670 C   0  0  0  0  0  0  0  0  0  0  0  0
  -28.5140  -17.4310   20.1040 C   0  0  0  0  0  0  0  0  0  0  0  0
  -26.6790  -19.1280   19.7260 C   0  0  0  0  0  1  0  0  0  0  0  0
  -27.5350  -16.5190   20.3200 F   0  0  0  0  0  0  0  0  0  0  0  0
  -30.7760  -14.5620   19.8830 C   0  0  0  0  0  0  0  0  0  0  0  0
  -30.5370  -12.2740   18.9280 C   0  0  0  0  0  2  0  0  0  0  0  0
  -29.5180  -12.3450   17.7690 C   0  0  0  0  0  2  0  0  0  0  0  0
  -28.0730  -12.2080   18.2910 C   0  0  0  0  0  2  0  0  0  0  0  0
  -27.7900  -13.1330   19.5050 C   0  0  0  0  0  3  0  0  0  0  0  0
  -28.9080  -13.0000   20.5630 C   0  0  0  0  0  2  0  0  0  0  0  0
  -30.1870  -13.3240   19.9060 N   0  0  0  0  0  0  0  0  0  0  0  0
  -31.8700  -14.7510   19.3410 O   0  0  0  0  0  0  0  0  0  0  0  0
  -30.0260  -15.5620   20.4280 N   0  0  0  0  0  0  0  0  0  0  0  0
  -29.2570  -15.1910   20.9670 H   0  0  0  0  0  0  0  0  0  0  0  0
  -25.4790  -13.8000   20.4150 C   0  0  0  0  0  0  0  0  0  0  0  0
  -24.4120  -13.0540   20.8400 C   0  0  0  0  0  0  0  0  0  0  0  0
  -24.8160  -11.6890   20.7280 C   0  0  0  0  0  0  0  0  0  0  0  0
  -26.4680  -12.8900   20.0760 N   0  0  0  0  0  0  0  0  0  0  0  0
  -26.0770  -11.6130   20.3190 N   0  0  0  0  0  0  0  0  0  0  0  0
  -24.0560  -10.4490   20.9300 C   0  0  0  0  0  0  0  0  0  0  0  0
  -24.4750   -9.4680   21.8550 C   0  0  0  0  0  3  0  0  0  0  0  0
  -23.7180   -8.2930   22.0440 C   0  0  0  0  0  3  0  0  0  0  0  0
  -22.5270   -8.0900   21.3060 C   0  0  0  0  0  0  0  0  0  0  0  0
  -22.1270   -9.0590   20.3690 C   0  0  0  0  0  3  0  0  0  0  0  0
  -22.8850  -10.2260   20.1790 C   0  0  0  0  0  3  0  0  0  0  0  0
  -21.7410   -6.9670   21.4040 O   0  0  0  0  0  0  0  0  0  0  0  0
  -21.6380   -6.2620   22.5760 C   0  0  0  0  0  0  0  0  0  0  0  0
  -21.1590   -6.8560   23.7650 C   0  0  0  0  0  3  0  0  0  0  0  0
  -21.0030   -6.0760   24.9280 C   0  0  0  0  0  3  0  0  0  0  0  0
  -21.3170   -4.7040   24.9030 C   0  0  0  0  0  0  0  0  0  0  0  0
  -21.7880   -4.1100   23.7200 C   0  0  0  0  0  3  0  0  0  0  0  0
  -21.9460   -4.8860   22.5590 C   0  0  0  0  0  0  0  0  0  0  0  0
  -22.3810   -4.3050   21.4160 F   0  0  0  0  0  0  0  0  0  0  0  0
  -21.1590   -3.9530   26.0190 F   0  0  0  0  0  0  0  0  0  0  0  0
  -23.0600  -13.5740   21.2380 C   0  0  0  0  0  0  0  0  0  0  0  0
  -22.3810  -12.8810   22.1470 N   0  0  0  0  0  0  0  0  0  0  0  0
  -22.6190  -14.6280   20.7820 O   0  0  0  0  0  0  0  0  0  0  0  0
  -22.7530  -12.0270   22.5360 H   0  0  0  0  0  0  0  0  0  0  0  0
  -21.4790  -13.2100   22.4580 H   0  0  0  0  0  0  0  0  0  0  0  0
  -25.6810  -15.1680   20.2720 N   0  0  0  0  0  0  0  0  0  0  0  0
  -24.9600  -15.8450   20.4930 H   0  0  0  0  0  0  0  0  0  0  0  0
  -26.5530  -15.5950   19.9890 H   0  0  0  0  0  0  0  0  0  0  0  0
  -28.7370  -21.0730   19.1130 N   0  0  0  0  0  0  0  0  0  0  0  0
  -27.7450  -21.1430   18.9070 H   0  0  0  0  0  0  0  0  0  0  0  0
  -29.3820  -22.3900   19.3990 C   0  0  0  0  0  2  0  0  0  0  0  0
  -28.4670  -23.6910   19.1300 C   0  0  0  0  0  2  0  0  0  0  0  0
  -28.0760  -24.9980   19.9870 C   0  0  0  0  0  2  0  0  0  0  0  0
  -28.1740  -26.3530   19.4090 O   0  0  0  0  0  0  0  0  0  0  0  0
  -24.5440  -31.4870   22.9520 C   0  0  0  0  0  0  0  0  0  0  0  0
  -27.0490  -27.1770   19.5040 C   0  0  0  0  0  0  0  0  0  0  0  0
  -23.2850  -30.2140   21.2480 C   0  0  0  0  0  3  0  0  0  0  0  0
  -24.6860  -28.7640   19.6750 C   0  0  0  0  0  0  0  0  0  0  0  0
  -25.8150  -30.5480   21.0110 C   0  0  0  0  0  2  0  0  0  0  0  0
  -25.8720  -29.2200   20.2670 C   0  0  0  0  0  0  0  0  0  0  0  0
  -27.0590  -28.4390   20.1690 C   0  0  0  0  0  3  0  0  0  0  0  0
  -25.8430  -26.7580   18.9090 C   0  0  0  0  0  3  0  0  0  0  0  0
  -24.6710  -27.5360   18.9910 C   0  0  0  0  0  3  0  0  0  0  0  0
  -23.4560  -29.6380   19.8180 C   0  0  0  0  0  2  0  0  0  0  0  0
  -24.5690  -30.7610   21.7950 N   0  0  0  0  0  0  0  0  0  0  0  0
  -23.4790  -31.7310   23.5370 O   0  0  0  0  0  0  0  0  0  0  0  0
  -22.6420  -29.1370   22.1520 C   0  0  0  0  0  0  0  0  0  0  0  0
  -21.3090  -28.9990   22.0740 N   0  0  0  0  0  0  0  0  0  0  0  0
  -23.3400  -28.4290   22.8820 O   0  0  0  0  0  0  0  0  0  0  0  0
  -20.8040  -29.6230   21.4620 H   0  0  0  0  0  0  0  0  0  0  0  0
  -17.9220  -27.8620   22.6520 C   0  0  0  0  0  0  0  0  0  0  0  0
  -20.5000  -28.0190   22.8020 C   0  0  0  0  0  3  0  0  0  0  0  0
  -20.5220  -26.6440   22.0940 C   0  0  0  0  0  2  0  0  0  0  0  0
  -19.3570  -26.4500   21.1180 C   0  0  0  0  0  2  0  0  0  0  0  0
  -18.0170  -26.5760   21.8490 C   0  0  0  0  0  2  0  0  0  0  0  0
  -19.0880  -28.5490   23.0850 C   0  0  0  0  0  0  0  0  0  0  0  0
  -18.9460  -29.7580   23.8000 C   0  0  0  0  0  3  0  0  0  0  0  0
  -17.6700  -30.2800   24.0840 C   0  0  0  0  0  3  0  0  0  0  0  0
  -16.5200  -29.5890   23.6670 C   0  0  0  0  0  3  0  0  0  0  0  0
  -16.6460  -28.3820   22.9550 C   0  0  0  0  0  3  0  0  0  0  0  0
  -25.8490  -32.0650   23.5800 C   0  0  0  0  0  3  0  0  0  0  0  0
  -26.3870  -31.2070   24.7890 C   0  0  1  0  0  0  0  0  0  0  0  0
  -25.3230  -30.9240   25.8740 C   0  0  0  0  0  1  0  0  0  0  0  0
  -26.9280  -29.8450   24.2930 C   0  0  0  0  0  1  0  0  0  0  0  0
  -27.5740  -31.9360   25.4620 C   0  0  0  0  0  1  0  0  0  0  0  0
  -25.5640  -33.4400   24.0100 N   0  0  0  0  0  0  0  0  0  0  0  0
  -25.9050  -34.5390   23.3240 C   0  0  0  0  0  0  0  0  0  0  0  0
  -26.5620  -34.5000   22.2810 O   0  0  0  0  0  0  0  0  0  0  0  0
  -24.9760  -33.5470   24.8240 H   0  0  0  0  0  0  0  0  0  0  0  0
  -24.1990  -36.3780   23.1180 C   0  0  0  0  0  1  0  0  0  0  0  0
  -25.4430  -35.8990   23.8840 C   0  0  0  0  0  3  0  0  0  0  0  0
  -27.5950  -36.7000   24.7520 C   0  0  0  0  0  1  0  0  0  0  0  0
  -26.4870  -36.9450   23.8310 N   0  0  0  0  0  0  0  0  0  0  0  0
  -26.0960  -37.8590   24.0410 H   0  0  0  0  0  0  0  0  0  0  0  0
  1  2  1  0
  2  5  2  0
  3  6  2  0
  4  1  2  0
  4  3  1  0
  5 17  1  0
  6  5  1  0
  6  8  1  0
  7  3  1  0
  9 15  1  0
  9 17  1  0
 10 15  1  0
 11 12  1  0
 11 10  1  0
 13 12  1  0
 13 22  1  0
 13 14  1  0
 15 14  1  0
 16  9  2  0
 17 18  1  0
 19 20  2  0
 20 39  1  0
 21 20  1  0
 21 24  1  0
 22 23  1  0
 22 19  1  0
 23 21  2  0
 24 25  1  0
 25 26  2  0
 27 30  1  0
 27 26  1  0
 28 27  2  0
 29 28  1  0
 29 24  2  0
 30 31  1  0
 31 32  1  0
 32 33  2  0
 34 33  1  0
 34 38  1  0
 35 34  2  0
 36 31  2  0
 36 35  1  0
 37 36  1  0
 39 40  1  0
 40 43  1  0
 40 42  1  0
 41 39  2  0
 44 19  1  0
 44 45  1  0
 46 44  1  0
 47 49  1  0
 47  4  1  0
 48 47  1  0
 50 49  1  0
 50 51  1  0
 52 54  1  0
 52 51  1  0
 53 64  2  0
 54 59  1  0
 55 63  1  0
 55 65  1  0
 56 62  1  0
 56 58  1  0
 57 63  1  0
 58 57  1  0
 59 58  2  0
 60 61  1  0
 60 54  2  0
 61 56  2  0
 62 55  1  0
 63 53  1  0
 65 67  2  0
 66 65  1  0
 68 66  1  0
 69 78  2  0
 69 74  1  0
 70 66  1  0
 70 74  1  0
 71 70  1  0
 72 73  1  0
 72 71  1  0
 73 69  1  0
 74 75  2  0
 75 76  1  0
 77 76  2  0
 78 77  1  0
 79 53  1  0
 79 84  1  0
 79 80  1  0
 80 83  1  1
 80 81  1  0
 82 80  1  0
 84 87  1  0
 85 89  1  0
 85 84  1  0
 86 85  2  0
 89 88  1  0
 91 89  1  0
 91 92  1  0
 91 90  1  0
M  ISO  4   9 100  17 100  51 101  52 101
M  END
>  <TORSDO>  (84) 
F 20

>  <SCORE>  (84) 
-12.746

>  <name>  (84) 
84

>  <ligand_id>  (84) 
84

>  <original_smiles>  (84) 
[H]c1c([H])c([H])c2c(c1[H])C([H])([H])C([H])([H])C([H])([H])C2([H])N([H])C(=O)C1([H])N(C(=O)C([H])(N([H])C(=O)C([H])(N([H])C([H])([H])[H])C([H])([H])[H])C(C([H])([H])[H])(C([H])([H])[H])C([H])([H])[H])C([H])([H])c2c([H])c(OC([H])([H])C([H])([H])C([H])([H])N([H])c3c([H])c([H])c(N([H])C(=O)N4C([H])([H])C([H])([H])C([H])([H])C([H])(n5nc(-c6c([H])c([H])c(Oc7c([H])c([H])c(F)c([H])c7F)c([H])c6[H])c(C(=O)N([H])[H])c5N([H])[H])C4([H])[H])c(F)c3C([H])([H])[H])c([H])c([H])c2C1([H])[H]

>  <smiles>  (84) 
[H]c1c([H])c([H])c2c(c1[H])C([H])([H])C([H])([H])C([H])([H])C2([H])N([H])C(=O)C1([H])N(C(=O)C([H])(N([H])C(=O)C([H])(N([H])C([H])([H])[H])C([H])([H])[H])C(C([H])([H])[H])(C([H])([H])[H])C([H])([H])[H])C([H])([H])c2c([H])c(OC([H])([H])C([H])([H])C([H])([H])N([H])c3c([H])c([H])c(N([H])C(=O)N4C([H])([H])C([H])([H])C([H])([H])C([H])(n5nc(-c6c([H])c([H])c(Oc7c([H])c([H])c(F)c([H])c7F)c([H])c6[H])c(C(=O)N([H])[H])c5N([H])[H])C4([H])[H])c(F)c3C([H])([H])[H])c([H])c([H])c2C1([H])[H]

$$$$
85:0:0
     RDKit          3D

 90 98  0  0  1  0  0  0  0  0999 V2000
  -27.8170  -21.8590   21.4820 C   0  0  0  0  0  1  0  0  0  0  0  0
  -28.8510  -21.5230   20.5000 N   0  0  0  0  0  0  0  0  0  0  0  0
  -28.7220  -17.7450   21.0840 C   0  0  0  0  0  3  0  0  0  0  0  0
  -30.7610  -18.1740   19.9040 C   0  0  0  0  0  3  0  0  0  0  0  0
  -28.4120  -19.1270   21.0620 C   0  0  0  0  0  3  0  0  0  0  0  0
  -30.4460  -19.5830   19.8980 C   0  0  0  0  0  3  0  0  0  0  0  0
  -29.8940  -17.2100   20.5020 C   0  0  0  0  0  0  0  0  0  0  0  0
  -29.2500  -20.1210   20.4770 C   0  0  0  0  0  0  0  0  0  0  0  0
  -30.8040  -14.7780   20.0020 C   0  0  0  0  0  0  0  0  0  0  0  0
  -30.5680  -12.5550   18.8950 C   0  0  0  0  0  2  0  0  0  0  0  0
  -29.5430  -12.6930   17.7450 C   0  0  0  0  0  2  0  0  0  0  0  0
  -28.0960  -12.5270   18.2590 C   0  0  0  0  0  2  0  0  0  0  0  0
  -27.8160  -13.3560   19.5390 C   0  0  0  0  0  3  0  0  0  0  0  0
  -28.9430  -13.1550   20.5780 C   0  0  0  0  0  2  0  0  0  0  0  0
  -30.2160  -13.5380   19.9390 N   0  0  0  0  0  0  0  0  0  0  0  0
  -31.9070  -14.9980   19.4920 O   0  0  0  0  0  0  0  0  0  0  0  0
  -30.0250  -15.7490   20.5770 N   0  0  0  0  0  0  0  0  0  0  0  0
  -29.2520  -15.3170   21.0570 H   0  0  0  0  0  0  0  0  0  0  0  0
  -25.4770  -13.9400   20.4360 C   0  0  0  0  0  0  0  0  0  0  0  0
  -24.4300  -13.1580   20.8450 C   0  0  0  0  0  0  0  0  0  0  0  0
  -24.8770  -11.8060   20.7260 C   0  0  0  0  0  0  0  0  0  0  0  0
  -26.4970  -13.0630   20.0970 N   0  0  0  0  0  0  0  0  0  0  0  0
  -26.1430  -11.7730   20.3300 N   0  0  0  0  0  0  0  0  0  0  0  0
  -24.1550  -10.5410   20.9120 C   0  0  0  0  0  0  0  0  0  0  0  0
  -24.5700   -9.5860   21.8660 C   0  0  0  0  0  3  0  0  0  0  0  0
  -23.8490   -8.3850   22.0370 C   0  0  0  0  0  3  0  0  0  0  0  0
  -22.6960   -8.1310   21.2560 C   0  0  0  0  0  0  0  0  0  0  0  0
  -22.3000   -9.0750   20.2930 C   0  0  0  0  0  3  0  0  0  0  0  0
  -23.0220  -10.2670   20.1180 C   0  0  0  0  0  3  0  0  0  0  0  0
  -21.9470   -6.9820   21.3370 O   0  0  0  0  0  0  0  0  0  0  0  0
  -21.7830   -6.3130   22.5230 C   0  0  0  0  0  0  0  0  0  0  0  0
  -21.2160   -6.9340   23.6580 C   0  0  0  0  0  3  0  0  0  0  0  0
  -21.0030   -6.1890   24.8340 C   0  0  0  0  0  3  0  0  0  0  0  0
  -21.3430   -4.8240   24.8770 C   0  0  0  0  0  0  0  0  0  0  0  0
  -21.9000   -4.2020   23.7460 C   0  0  0  0  0  3  0  0  0  0  0  0
  -22.1170   -4.9440   22.5710 C   0  0  0  0  0  0  0  0  0  0  0  0
  -22.6350   -4.3350   21.4780 F   0  0  0  0  0  0  0  0  0  0  0  0
  -21.1300   -4.1060   26.0040 F   0  0  0  0  0  0  0  0  0  0  0  0
  -23.0560  -13.6310   21.2290 C   0  0  0  0  0  0  0  0  0  0  0  0
  -22.3810  -12.9020   22.1100 N   0  0  0  0  0  0  0  0  0  0  0  0
  -22.5940  -14.6800   20.7830 O   0  0  0  0  0  0  0  0  0  0  0  0
  -22.7660  -12.0500   22.4920 H   0  0  0  0  0  0  0  0  0  0  0  0
  -21.4620  -13.1980   22.4070 H   0  0  0  0  0  0  0  0  0  0  0  0
  -25.6430  -15.3160   20.3050 N   0  0  0  0  0  0  0  0  0  0  0  0
  -24.8930  -15.9730   20.4890 H   0  0  0  0  0  0  0  0  0  0  0  0
  -26.4660  -15.7550   19.9150 H   0  0  0  0  0  0  0  0  0  0  0  0
  -29.6530  -22.6970   20.0230 C   0  0  0  0  0  2  0  0  0  0  0  0
  -28.8940  -24.0390   19.5470 C   0  0  0  0  0  2  0  0  0  0  0  0
  -28.5450  -25.2350   20.5460 C   0  0  0  0  0  2  0  0  0  0  0  0
  -28.5920  -26.6390   20.0720 O   0  0  0  0  0  0  0  0  0  0  0  0
  -24.7880  -31.8390   23.3650 C   0  0  0  0  0  0  0  0  0  0  0  0
  -27.4430  -27.4370   20.1310 C   0  0  0  0  0  0  0  0  0  0  0  0
  -23.5970  -30.5090   21.6570 C   0  0  0  0  0  3  0  0  0  0  0  0
  -25.0610  -29.0190   20.1780 C   0  0  0  0  0  0  0  0  0  0  0  0
  -26.1320  -30.8500   21.4970 C   0  0  0  0  0  2  0  0  0  0  0  0
  -26.2240  -29.4970   20.7980 C   0  0  0  0  0  0  0  0  0  0  0  0
  -27.4180  -28.7190   20.7590 C   0  0  0  0  0  3  0  0  0  0  0  0
  -26.2560  -26.9960   19.5080 C   0  0  0  0  0  3  0  0  0  0  0  0
  -25.0780  -27.7730   19.5280 C   0  0  0  0  0  3  0  0  0  0  0  0
  -23.8200  -29.8880   20.2520 C   0  0  0  0  0  2  0  0  0  0  0  0
  -24.8570  -31.0810   22.2320 N   0  0  0  0  0  0  0  0  0  0  0  0
  -23.7020  -32.0930   23.9060 O   0  0  0  0  0  0  0  0  0  0  0  0
  -22.9320  -29.4510   22.5700 C   0  0  0  0  0  0  0  0  0  0  0  0
  -21.6070  -29.2760   22.4240 N   0  0  0  0  0  0  0  0  0  0  0  0
  -23.6040  -28.7930   23.3670 O   0  0  0  0  0  0  0  0  0  0  0  0
  -21.1260  -29.8590   21.7520 H   0  0  0  0  0  0  0  0  0  0  0  0
  -18.2290  -28.0480   22.8280 C   0  0  0  0  0  0  0  0  0  0  0  0
  -20.7820  -28.3050   23.1450 C   0  0  0  0  0  3  0  0  0  0  0  0
  -20.8980  -26.8990   22.5110 C   0  0  0  0  0  2  0  0  0  0  0  0
  -19.8110  -26.6160   21.4700 C   0  0  0  0  0  2  0  0  0  0  0  0
  -18.4190  -26.7280   22.1000 C   0  0  0  0  0  2  0  0  0  0  0  0
  -19.3390  -28.7960   23.3030 C   0  0  0  0  0  0  0  0  0  0  0  0
  -19.1070  -30.0330   23.9430 C   0  0  0  0  0  3  0  0  0  0  0  0
  -17.7980  -30.5220   24.1150 C   0  0  0  0  0  3  0  0  0  0  0  0
  -16.7020  -29.7700   23.6570 C   0  0  0  0  0  3  0  0  0  0  0  0
  -16.9180  -28.5350   23.0190 C   0  0  0  0  0  3  0  0  0  0  0  0
  -26.0670  -32.4430   24.0250 C   0  0  0  0  0  3  0  0  0  0  0  0
  -26.5630  -31.6270   25.2810 C   0  0  1  0  0  0  0  0  0  0  0  0
  -25.4530  -31.3550   26.3250 C   0  0  0  0  0  1  0  0  0  0  0  0
  -27.1460  -30.2630   24.8440 C   0  0  0  0  0  1  0  0  0  0  0  0
  -27.7090  -32.3910   25.9840 C   0  0  0  0  0  1  0  0  0  0  0  0
  -25.7600  -33.8310   24.3990 N   0  0  0  0  0  0  0  0  0  0  0  0
  -26.1160  -34.9080   23.6890 C   0  0  0  0  0  0  0  0  0  0  0  0
  -26.8050  -34.8380   22.6660 O   0  0  0  0  0  0  0  0  0  0  0  0
  -25.1460  -33.9580   25.1900 H   0  0  0  0  0  0  0  0  0  0  0  0
  -24.4150  -36.7330   23.3560 C   0  0  0  0  0  1  0  0  0  0  0  0
  -25.6280  -36.2820   24.1870 C   0  0  0  0  0  3  0  0  0  0  0  0
  -27.7440  -37.1110   25.1140 C   0  0  0  0  0  1  0  0  0  0  0  0
  -26.6720  -37.3290   24.1460 N   0  0  0  0  0  0  0  0  0  0  0  0
  -26.2710  -38.2470   24.3180 H   0  0  0  0  0  0  0  0  0  0  0  0
  2  1  1  0
  4  7  1  0
  5  3  1  0
  6  4  2  0
  6  8  1  0
  7 17  1  0
  7  3  2  0
  8  2  1  0
  8  5  2  0
  9 17  1  0
 10 15  1  0
 11 12  1  0
 11 10  1  0
 13 12  1  0
 13 22  1  0
 13 14  1  0
 15  9  1  0
 15 14  1  0
 16  9  2  0
 17 18  1  0
 19 20  2  0
 20 39  1  0
 21 20  1  0
 21 24  1  0
 22 23  1  0
 22 19  1  0
 23 21  2  0
 24 25  1  0
 25 26  2  0
 27 30  1  0
 27 26  1  0
 28 27  2  0
 29 28  1  0
 29 24  2  0
 30 31  1  0
 31 36  2  0
 31 32  1  0
 32 33  2  0
 33 34  1  0
 34 38  1  0
 35 34  2  0
 36 35  1  0
 37 36  1  0
 39 40  1  0
 40 43  1  0
 40 42  1  0
 41 39  2  0
 44 19  1  0
 44 45  1  0
 46 44  1  0
 47  2  1  0
 48 47  1  0
 48 49  1  0
 50 52  1  0
 50 49  1  0
 51 62  2  0
 52 57  1  0
 53 61  1  0
 53 63  1  0
 54 60  1  0
 54 56  1  0
 55 61  1  0
 56 55  1  0
 57 56  2  0
 58 59  1  0
 58 52  2  0
 59 54  2  0
 60 53  1  0
 61 51  1  0
 63 65  2  0
 64 63  1  0
 66 64  1  0
 67 76  2  0
 67 72  1  0
 68 64  1  0
 68 72  1  0
 69 68  1  0
 70 71  1  0
 70 69  1  0
 71 67  1  0
 72 73  2  0
 73 74  1  0
 75 74  2  0
 76 75  1  0
 77 51  1  0
 77 82  1  0
 77 78  1  0
 78 81  1  1
 78 79  1  0
 80 78  1  0
 82 85  1  0
 83 87  1  0
 83 82  1  0
 84 83  2  0
 87 86  1  0
 89 87  1  0
 89 90  1  0
 89 88  1  0
M  ISO  4   9 100  17 100  49 101  50 101
M  END
>  <TORSDO>  (85) 
F 20

>  <SCORE>  (85) 
-12.465

>  <name>  (85) 
85

>  <ligand_id>  (85) 
85

>  <original_smiles>  (85) 
[H]c1c([H])c([H])c2c(c1[H])C([H])([H])C([H])([H])C([H])([H])C2([H])N([H])C(=O)C1([H])N(C(=O)C([H])(N([H])C(=O)C([H])(N([H])C([H])([H])[H])C([H])([H])[H])C(C([H])([H])[H])(C([H])([H])[H])C([H])([H])[H])C([H])([H])c2c([H])c(OC([H])([H])C([H])([H])C([H])([H])N(c3c([H])c([H])c(N([H])C(=O)N4C([H])([H])C([H])([H])C([H])([H])C([H])(n5nc(-c6c([H])c([H])c(Oc7c([H])c([H])c(F)c([H])c7F)c([H])c6[H])c(C(=O)N([H])[H])c5N([H])[H])C4([H])[H])c([H])c3[H])C([H])([H])[H])c([H])c([H])c2C1([H])[H]

>  <smiles>  (85) 
[H]c1c([H])c([H])c2c(c1[H])C([H])([H])C([H])([H])C([H])([H])C2([H])N([H])C(=O)C1([H])N(C(=O)C([H])(N([H])C(=O)C([H])(N([H])C([H])([H])[H])C([H])([H])[H])C(C([H])([H])[H])(C([H])([H])[H])C([H])([H])[H])C([H])([H])c2c([H])c(OC([H])([H])C([H])([H])C([H])([H])N(c3c([H])c([H])c(N([H])C(=O)N4C([H])([H])C([H])([H])C([H])([H])C([H])(n5nc(-c6c([H])c([H])c(Oc7c([H])c([H])c(F)c([H])c7F)c([H])c6[H])c(C(=O)N([H])[H])c5N([H])[H])C4([H])[H])c([H])c3[H])C([H])([H])[H])c([H])c([H])c2C1([H])[H]

$$$$
86:0:0
     RDKit          3D

 99108  0  0  1  0  0  0  0  0999 V2000
  -30.0770  -19.6550   19.5910 C   0  0  0  0  0  0  0  0  0  0  0  0
  -27.2550  -19.4280   17.8210 C   0  0  0  0  0  2  0  0  0  0  0  0
  -27.4650  -18.1230   18.5900 C   0  0  0  0  0  2  0  0  0  0  0  0
  -28.5680  -20.1400   17.4750 C   0  0  0  0  0  2  0  0  0  0  0  0
  -27.9790  -18.3610   20.0180 C   0  0  0  0  0  2  0  0  0  0  0  0
  -29.3900  -20.6950   18.6580 C   0  0  0  0  0  3  0  0  0  0  0  0
  -29.4250  -18.5890   20.1450 N   0  0  0  0  0  0  0  0  0  0  0  0
  -31.2830  -19.8370   19.7990 O   0  0  0  0  0  0  0  0  0  0  0  0
  -30.4590  -18.6110   22.3420 C   0  0  0  0  0  3  0  0  0  0  0  0
  -31.0840  -17.9680   23.4170 C   0  0  0  0  0  3  0  0  0  0  0  0
  -30.9530  -15.9240   22.3660 C   0  0  0  0  0  3  0  0  0  0  0  0
  -30.0690  -17.8700   21.2090 C   0  0  0  0  0  0  0  0  0  0  0  0
  -30.3030  -16.4620   21.2310 C   0  0  0  0  0  0  0  0  0  0  0  0
  -31.3310  -16.6460   23.4370 N   0  0  0  0  0  0  0  0  0  0  0  0
  -30.5810  -14.5400   19.7360 C   0  0  0  0  0  0  0  0  0  0  0  0
  -30.2350  -12.3840   18.5690 C   0  0  0  0  0  2  0  0  0  0  0  0
  -29.1590  -12.5840   17.4830 C   0  0  0  0  0  2  0  0  0  0  0  0
  -27.7430  -12.4100   18.0720 C   0  0  0  0  0  2  0  0  0  0  0  0
  -27.5320  -13.2190   19.3800 C   0  0  0  0  0  3  0  0  0  0  0  0
  -28.7080  -12.9910   20.3570 C   0  0  0  0  0  2  0  0  0  0  0  0
  -29.9390  -13.3480   19.6370 N   0  0  0  0  0  0  0  0  0  0  0  0
  -31.6900  -14.7550   19.2370 O   0  0  0  0  0  0  0  0  0  0  0  0
  -29.8420  -15.5530   20.2360 N   0  0  0  0  0  0  0  0  0  0  0  0
  -28.8500  -15.3680   20.2670 H   0  0  0  0  0  0  0  0  0  0  0  0
  -25.2200  -13.7870   20.3480 C   0  0  0  0  0  0  0  0  0  0  0  0
  -24.2100  -12.9960   20.8250 C   0  0  0  0  0  0  0  0  0  0  0  0
  -24.6890  -11.6520   20.7360 C   0  0  0  0  0  0  0  0  0  0  0  0
  -26.2470  -12.9230   20.0020 N   0  0  0  0  0  0  0  0  0  0  0  0
  -25.9390  -11.6360   20.2950 N   0  0  0  0  0  0  0  0  0  0  0  0
  -24.0100  -10.3750   20.9940 C   0  0  0  0  0  0  0  0  0  0  0  0
  -24.4980   -9.4550   21.9470 C   0  0  0  0  0  3  0  0  0  0  0  0
  -23.8140   -8.2430   22.1860 C   0  0  0  0  0  3  0  0  0  0  0  0
  -22.6300   -7.9460   21.4720 C   0  0  0  0  0  0  0  0  0  0  0  0
  -22.1630   -8.8520   20.5050 C   0  0  0  0  0  3  0  0  0  0  0  0
  -22.8490  -10.0540   20.2640 C   0  0  0  0  0  3  0  0  0  0  0  0
  -21.9170   -6.7800   21.6210 O   0  0  0  0  0  0  0  0  0  0  0  0
  -21.8450   -6.1290   22.8270 C   0  0  0  0  0  0  0  0  0  0  0  0
  -21.3120   -6.7490   23.9780 C   0  0  0  0  0  3  0  0  0  0  0  0
  -21.1970   -6.0220   25.1790 C   0  0  0  0  0  3  0  0  0  0  0  0
  -21.6010   -4.6740   25.2290 C   0  0  0  0  0  0  0  0  0  0  0  0
  -22.1280   -4.0540   24.0810 C   0  0  0  0  0  3  0  0  0  0  0  0
  -22.2450   -4.7790   22.8840 C   0  0  0  0  0  0  0  0  0  0  0  0
  -22.7360   -4.1710   21.7750 F   0  0  0  0  0  0  0  0  0  0  0  0
  -21.4810   -3.9720   26.3780 F   0  0  0  0  0  0  0  0  0  0  0  0
  -22.8420  -13.4450   21.2490 C   0  0  0  0  0  0  0  0  0  0  0  0
  -22.2300  -12.7340   22.1910 N   0  0  0  0  0  0  0  0  0  0  0  0
  -22.3260  -14.4570   20.7780 O   0  0  0  0  0  0  0  0  0  0  0  0
  -22.6620  -11.9070   22.5820 H   0  0  0  0  0  0  0  0  0  0  0  0
  -21.3210  -13.0120   22.5290 H   0  0  0  0  0  0  0  0  0  0  0  0
  -25.3470  -15.1590   20.1590 N   0  0  0  0  0  0  0  0  0  0  0  0
  -24.5890  -15.8070   20.3420 H   0  0  0  0  0  0  0  0  0  0  0  0
  -26.1340  -15.5920   19.6980 H   0  0  0  0  0  0  0  0  0  0  0  0
  -28.7190  -21.8440   19.3490 N   0  0  0  0  0  4  0  0  0  0  0  0
  -28.7420  -21.6920   20.3450 H   0  0  0  0  0  0  0  0  0  0  0  0
  -27.7580  -21.8370   19.0590 H   0  0  0  0  0  0  0  0  0  0  0  0
  -29.2960  -23.1920   19.0460 C   0  0  0  0  0  2  0  0  0  0  0  0
  -28.2780  -24.3780   18.9880 C   0  0  0  0  0  2  0  0  0  0  0  0
  -28.2870  -25.3840   20.1700 C   0  0  0  0  0  2  0  0  0  0  0  0
  -28.3260  -26.7700   19.7660 O   0  0  0  0  0  0  0  0  0  0  0  0
  -24.6680  -31.8960   23.1130 C   0  0  0  0  0  0  0  0  0  0  0  0
  -27.1540  -27.4970   19.8360 C   0  0  0  0  0  0  0  0  0  0  0  0
  -23.3880  -30.5440   21.4860 C   0  0  0  0  0  3  0  0  0  0  0  0
  -24.7730  -29.0250   19.9690 C   0  0  0  0  0  0  0  0  0  0  0  0
  -25.9080  -30.8820   21.2000 C   0  0  0  0  0  2  0  0  0  0  0  0
  -25.9570  -29.5280   20.5220 C   0  0  0  0  0  0  0  0  0  0  0  0
  -27.1500  -28.7730   20.4460 C   0  0  0  0  0  3  0  0  0  0  0  0
  -25.9530  -27.0090   19.2760 C   0  0  0  0  0  3  0  0  0  0  0  0
  -24.7660  -27.7670   19.3410 C   0  0  0  0  0  3  0  0  0  0  0  0
  -23.5360  -29.8870   20.0860 C   0  0  0  0  0  2  0  0  0  0  0  0
  -24.6760  -31.1190   21.9910 N   0  0  0  0  0  0  0  0  0  0  0  0
  -23.6120  -32.1630   23.7020 O   0  0  0  0  0  0  0  0  0  0  0  0
  -22.7660  -29.5070   22.4460 C   0  0  0  0  0  0  0  0  0  0  0  0
  -21.4400  -29.3220   22.3500 N   0  0  0  0  0  0  0  0  0  0  0  0
  -23.4720  -28.8630   23.2280 O   0  0  0  0  0  0  0  0  0  0  0  0
  -20.9300  -29.8900   21.6850 H   0  0  0  0  0  0  0  0  0  0  0  0
  -18.0820  -28.1150   22.9120 C   0  0  0  0  0  0  0  0  0  0  0  0
  -20.6470  -28.3590   23.1160 C   0  0  0  0  0  3  0  0  0  0  0  0
  -20.7370  -26.9460   22.4940 C   0  0  0  0  0  2  0  0  0  0  0  0
  -19.5970  -26.6310   21.5220 C   0  0  0  0  0  2  0  0  0  0  0  0
  -18.2320  -26.7790   22.2010 C   0  0  0  0  0  2  0  0  0  0  0  0
  -19.2150  -28.8610   23.3290 C   0  0  0  0  0  0  0  0  0  0  0  0
  -19.0170  -30.1080   23.9630 C   0  0  0  0  0  3  0  0  0  0  0  0
  -17.7210  -30.6120   24.1740 C   0  0  0  0  0  3  0  0  0  0  0  0
  -16.6020  -29.8650   23.7670 C   0  0  0  0  0  3  0  0  0  0  0  0
  -16.7850  -28.6160   23.1470 C   0  0  0  0  0  3  0  0  0  0  0  0
  -25.9820  -32.5040   23.6930 C   0  0  0  0  0  3  0  0  0  0  0  0
  -25.6870  -33.8770   24.1190 N   0  0  0  0  0  0  0  0  0  0  0  0
  -25.9730  -34.9740   23.4030 C   0  0  0  0  0  0  0  0  0  0  0  0
  -26.5870  -34.9330   22.3340 O   0  0  0  0  0  0  0  0  0  0  0  0
  -25.1400  -33.9820   24.9610 H   0  0  0  0  0  0  0  0  0  0  0  0
  -24.2240  -36.7700   23.2330 C   0  0  0  0  0  1  0  0  0  0  0  0
  -25.5030  -36.3290   23.9630 C   0  0  0  0  0  3  0  0  0  0  0  0
  -27.6630  -37.1830   24.7550 C   0  0  0  0  0  1  0  0  0  0  0  0
  -26.5240  -37.3930   23.8650 N   0  0  0  0  0  0  0  0  0  0  0  0
  -26.1190  -38.3000   24.0780 H   0  0  0  0  0  0  0  0  0  0  0  0
  -26.5770  -31.6640   24.8910 C   0  0  1  0  0  0  0  0  0  0  0  0
  -25.5380  -31.3160   25.9820 C   0  0  0  0  0  1  0  0  0  0  0  0
  -27.1840  -30.3380   24.3780 C   0  0  0  0  0  1  0  0  0  0  0  0
  -27.7290  -32.4500   25.5620 C   0  0  0  0  0  1  0  0  0  0  0  0
  1  8  2  0
  1  7  1  0
  2  3  1  0
  3  5  1  0
  4  2  1  0
  4  6  1  0
  5  7  1  0
  6 53  1  0
  6  1  1  0
  7 12  1  0
  9 10  1  0
 10 14  2  0
 11 14  1  0
 12 13  1  0
 12  9  2  0
 13 11  2  0
 15 23  1  0
 16 21  1  0
 17 18  1  0
 17 16  1  0
 19 18  1  0
 19 28  1  0
 19 20  1  0
 21 15  1  0
 21 20  1  0
 22 15  2  0
 23 24  1  0
 23 13  1  0
 25 26  2  0
 26 45  1  0
 27 26  1  0
 27 30  1  0
 28 29  1  0
 28 25  1  0
 29 27  2  0
 30 31  1  0
 31 32  2  0
 33 36  1  0
 33 32  1  0
 34 33  2  0
 35 34  1  0
 35 30  2  0
 36 37  1  0
 37 42  2  0
 37 38  1  0
 38 39  2  0
 39 40  1  0
 40 44  1  0
 41 40  2  0
 42 41  1  0
 43 42  1  0
 45 46  1  0
 46 49  1  0
 46 48  1  0
 47 45  2  0
 50 51  1  0
 50 25  1  0
 52 50  1  0
 53 54  1  0
 55 53  1  0
 56 53  1  0
 57 56  1  0
 57 58  1  0
 59 61  1  0
 59 58  1  0
 60 71  2  0
 61 66  1  0
 62 70  1  0
 62 72  1  0
 63 69  1  0
 63 65  1  0
 64 70  1  0
 65 64  1  0
 66 65  2  0
 67 68  1  0
 67 61  2  0
 68 63  2  0
 69 62  1  0
 70 60  1  0
 72 74  2  0
 73 72  1  0
 75 73  1  0
 76 85  2  0
 76 81  1  0
 77 73  1  0
 77 81  1  0
 78 77  1  0
 79 80  1  0
 79 78  1  0
 80 76  1  0
 81 82  2  0
 82 83  1  0
 84 83  2  0
 85 84  1  0
 86 60  1  0
 86 87  1  0
 86 96  1  0
 87 90  1  0
 88 92  1  0
 88 87  1  0
 89 88  2  0
 92 91  1  0
 94 92  1  0
 94 95  1  0
 94 93  1  0
 96 99  1  1
 96 97  1  0
 98 96  1  0
M  ISO  4  15 100  23 100  58 101  59 101
M  END
>  <TORSDO>  (86) 
F 21

>  <SCORE>  (86) 
-11.066

>  <name>  (86) 
86

>  <ligand_id>  (86) 
86

>  <original_smiles>  (86) 
[H]c1nc([H])c(N([H])C(=O)N2C([H])([H])C([H])([H])C([H])([H])C([H])(n3nc(-c4c([H])c([H])c(Oc5c([H])c([H])c(F)c([H])c5F)c([H])c4[H])c(C(=O)N([H])[H])c3N([H])[H])C2([H])[H])c(N2C(=O)C([H])([N+]([H])([H])C([H])([H])C([H])([H])C([H])([H])Oc3c([H])c([H])c4c(c3[H])C([H])([H])N(C(=O)C([H])(N([H])C(=O)C([H])(N([H])C([H])([H])[H])C([H])([H])[H])C(C([H])([H])[H])(C([H])([H])[H])C([H])([H])[H])C([H])(C(=O)N([H])C3([H])c5c([H])c([H])c([H])c([H])c5C([H])([H])C([H])([H])C3([H])[H])C4([H])[H])C([H])([H])C([H])([H])C([H])([H])C2([H])[H])c1[H]

>  <smiles>  (86) 
[H]c1nc([H])c(N([H])C(=O)N2C([H])([H])C([H])([H])C([H])([H])C([H])(n3nc(-c4c([H])c([H])c(Oc5c([H])c([H])c(F)c([H])c5F)c([H])c4[H])c(C(=O)N([H])[H])c3N([H])[H])C2([H])[H])c(N2C(=O)C([H])([N+]([H])([H])C([H])([H])C([H])([H])C([H])([H])Oc3c([H])c([H])c4c(c3[H])C([H])([H])N(C(=O)C([H])(N([H])C(=O)C([H])(N([H])C([H])([H])[H])C([H])([H])[H])C(C([H])([H])[H])(C([H])([H])[H])C([H])([H])[H])C([H])(C(=O)N([H])C3([H])c5c([H])c([H])c([H])c([H])c5C([H])([H])C([H])([H])C3([H])[H])C4([H])[H])C([H])([H])C([H])([H])C([H])([H])C2([H])[H])c1[H]

$$$$
87:0:0
     RDKit          3D

 92100  0  0  1  0  0  0  0  0999 V2000
  -28.7540  -18.7800   21.1070 C   0  0  0  0  0  3  0  0  0  0  0  0
  -28.9570  -20.1720   21.2100 C   0  0  0  0  0  3  0  0  0  0  0  0
  -30.8160  -20.0060   19.6620 C   0  0  0  0  0  3  0  0  0  0  0  0
  -29.5700  -17.9810   20.2730 C   0  0  0  0  0  0  0  0  0  0  0  0
  -30.6060  -18.6130   19.5320 C   0  0  0  0  0  0  0  0  0  0  0  0
  -29.9950  -20.7990   20.4910 C   0  0  0  0  0  0  0  0  0  0  0  0
  -31.5050  -17.8430   18.5790 C   0  0  0  0  0  1  0  0  0  0  0  0
  -30.2310  -22.1830   20.5840 N   0  0  0  0  0  0  0  0  0  0  0  0
  -31.1210  -22.4970   20.2020 H   0  0  0  0  0  0  0  0  0  0  0  0
  -29.0960  -23.0530   20.2820 C   0  0  0  0  0  2  0  0  0  0  0  0
  -29.4600  -24.5560   20.2480 C   0  0  0  0  0  2  0  0  0  0  0  0
  -28.2350  -25.4040   19.8540 C   0  0  0  0  0  2  0  0  0  0  0  0
  -28.3610  -26.8070   20.1340 O   0  0  0  0  0  0  0  0  0  0  0  0
  -24.5740  -31.9540   23.2940 C   0  0  0  0  0  0  0  0  0  0  0  0
  -27.1830  -27.5350   20.1380 C   0  0  0  0  0  0  0  0  0  0  0  0
  -23.3480  -30.5630   21.6590 C   0  0  0  0  0  3  0  0  0  0  0  0
  -24.7820  -29.0420   20.2030 C   0  0  0  0  0  0  0  0  0  0  0  0
  -25.8710  -30.9260   21.4290 C   0  0  0  0  0  2  0  0  0  0  0  0
  -25.9500  -29.5610   20.7780 C   0  0  0  0  0  0  0  0  0  0  0  0
  -27.1530  -28.8150   20.7430 C   0  0  0  0  0  3  0  0  0  0  0  0
  -25.9900  -27.0390   19.5570 C   0  0  0  0  0  3  0  0  0  0  0  0
  -24.7980  -27.7810   19.5910 C   0  0  0  0  0  3  0  0  0  0  0  0
  -23.5380  -29.8950   20.2730 C   0  0  0  0  0  2  0  0  0  0  0  0
  -24.6170  -31.1610   22.1860 N   0  0  0  0  0  0  0  0  0  0  0  0
  -23.5000  -32.2200   23.8490 O   0  0  0  0  0  0  0  0  0  0  0  0
  -22.7120  -29.5310   22.6200 C   0  0  0  0  0  0  0  0  0  0  0  0
  -21.3920  -29.3230   22.4900 N   0  0  0  0  0  0  0  0  0  0  0  0
  -23.4040  -28.9230   23.4410 O   0  0  0  0  0  0  0  0  0  0  0  0
  -20.8930  -29.8710   21.8010 H   0  0  0  0  0  0  0  0  0  0  0  0
  -18.0450  -28.0460   22.9600 C   0  0  0  0  0  0  0  0  0  0  0  0
  -20.5900  -28.3750   23.2630 C   0  0  0  0  0  3  0  0  0  0  0  0
  -20.7390  -26.9390   22.7100 C   0  0  0  0  0  2  0  0  0  0  0  0
  -19.6600  -26.5710   21.6850 C   0  0  0  0  0  2  0  0  0  0  0  0
  -18.2660  -26.6910   22.3080 C   0  0  0  0  0  2  0  0  0  0  0  0
  -19.1370  -28.8420   23.3950 C   0  0  0  0  0  0  0  0  0  0  0  0
  -18.8780  -30.1080   23.9650 C   0  0  0  0  0  3  0  0  0  0  0  0
  -17.5580  -30.5780   24.1040 C   0  0  0  0  0  3  0  0  0  0  0  0
  -16.4800  -29.7780   23.6850 C   0  0  0  0  0  3  0  0  0  0  0  0
  -16.7240  -28.5140   23.1200 C   0  0  0  0  0  3  0  0  0  0  0  0
  -25.8670  -32.5840   23.8990 C   0  0  0  0  0  3  0  0  0  0  0  0
  -25.5650  -33.9840   24.2250 N   0  0  0  0  0  0  0  0  0  0  0  0
  -25.8810  -35.0300   23.4500 C   0  0  0  0  0  0  0  0  0  0  0  0
  -26.5290  -34.9180   22.4060 O   0  0  0  0  0  0  0  0  0  0  0  0
  -24.9870  -34.1450   25.0370 H   0  0  0  0  0  0  0  0  0  0  0  0
  -24.1360  -36.8120   23.1240 C   0  0  0  0  0  1  0  0  0  0  0  0
  -25.4010  -36.4210   23.9060 C   0  0  0  0  0  3  0  0  0  0  0  0
  -27.5540  -37.3220   24.6670 C   0  0  0  0  0  1  0  0  0  0  0  0
  -26.4270  -37.4760   23.7530 N   0  0  0  0  0  0  0  0  0  0  0  0
  -26.0210  -38.3970   23.9030 H   0  0  0  0  0  0  0  0  0  0  0  0
  -26.3970  -31.8170   25.1710 C   0  0  1  0  0  0  0  0  0  0  0  0
  -25.3140  -31.5790   26.2500 C   0  0  0  0  0  1  0  0  0  0  0  0
  -26.9790  -30.4390   24.7760 C   0  0  0  0  0  1  0  0  0  0  0  0
  -27.5520  -32.6140   25.8230 C   0  0  0  0  0  1  0  0  0  0  0  0
  -29.2510  -16.4790   20.1570 C   0  0  0  0  0  2  0  0  0  0  0  0
  -30.7460  -14.5330   20.1140 C   0  0  0  0  0  0  0  0  0  0  0  0
  -30.3410  -12.4090   18.9210 C   0  0  0  0  0  2  0  0  0  0  0  0
  -29.3460  -12.6370   17.7650 C   0  0  0  0  0  2  0  0  0  0  0  0
  -27.8920  -12.5130   18.2590 C   0  0  0  0  0  2  0  0  0  0  0  0
  -27.6250  -13.3410   19.5410 C   0  0  0  0  0  3  0  0  0  0  0  0
  -28.7260  -13.0960   20.5990 C   0  0  0  0  0  2  0  0  0  0  0  0
  -30.0260  -13.3860   19.9740 N   0  0  0  0  0  0  0  0  0  0  0  0
  -31.8520  -14.6950   19.5900 O   0  0  0  0  0  0  0  0  0  0  0  0
  -30.7930  -15.9960   22.0580 C   0  0  0  0  0  1  0  0  0  0  0  0
  -30.1620  -15.5250   20.8250 N   0  0  0  0  0  0  0  0  0  0  0  0
  -25.2660  -13.9900   20.3400 C   0  0  0  0  0  0  0  0  0  0  0  0
  -24.2020  -13.2320   20.7520 C   0  0  0  0  0  0  0  0  0  0  0  0
  -24.6400  -11.8750   20.6990 C   0  0  0  0  0  0  0  0  0  0  0  0
  -26.2880  -13.0910   20.0720 N   0  0  0  0  0  0  0  0  0  0  0  0
  -25.9160  -11.8140   20.3420 N   0  0  0  0  0  0  0  0  0  0  0  0
  -23.9020  -10.6240   20.9100 C   0  0  0  0  0  0  0  0  0  0  0  0
  -24.3430   -9.6530   21.8380 C   0  0  0  0  0  3  0  0  0  0  0  0
  -23.6050   -8.4670   22.0370 C   0  0  0  0  0  3  0  0  0  0  0  0
  -22.4120   -8.2430   21.3080 C   0  0  0  0  0  0  0  0  0  0  0  0
  -21.9930   -9.2000   20.3660 C   0  0  0  0  0  3  0  0  0  0  0  0
  -22.7300  -10.3770   20.1660 C   0  0  0  0  0  3  0  0  0  0  0  0
  -21.6440   -7.1090   21.4180 O   0  0  0  0  0  0  0  0  0  0  0  0
  -21.5880   -6.3880   22.5820 C   0  0  0  0  0  0  0  0  0  0  0  0
  -21.1620   -6.9670   23.7980 C   0  0  0  0  0  3  0  0  0  0  0  0
  -21.0540   -6.1740   24.9570 C   0  0  0  0  0  3  0  0  0  0  0  0
  -21.3610   -4.8010   24.9020 C   0  0  0  0  0  0  0  0  0  0  0  0
  -21.7810   -4.2210   23.6930 C   0  0  0  0  0  3  0  0  0  0  0  0
  -21.8900   -5.0110   22.5350 C   0  0  0  0  0  0  0  0  0  0  0  0
  -22.2750   -4.4420   21.3670 F   0  0  0  0  0  0  0  0  0  0  0  0
  -21.2480   -4.0360   26.0130 F   0  0  0  0  0  0  0  0  0  0  0  0
  -22.8240  -13.7300   21.0800 C   0  0  0  0  0  0  0  0  0  0  0  0
  -22.1250  -13.0430   21.9780 N   0  0  0  0  0  0  0  0  0  0  0  0
  -22.3780  -14.7600   20.5770 O   0  0  0  0  0  0  0  0  0  0  0  0
  -22.5030  -12.2080   22.4020 H   0  0  0  0  0  0  0  0  0  0  0  0
  -21.2040  -13.3560   22.2450 H   0  0  0  0  0  0  0  0  0  0  0  0
  -25.4450  -15.3560   20.1530 N   0  0  0  0  0  0  0  0  0  0  0  0
  -24.6850  -16.0180   20.2730 H   0  0  0  0  0  0  0  0  0  0  0  0
  -26.2730  -15.7720   19.7480 H   0  0  0  0  0  0  0  0  0  0  0  0
  1  2  1  0
  3  6  1  0
  4  1  2  0
  5  3  2  0
  5  4  1  0
  6  8  1  0
  6  2  2  0
  7  5  1  0
  9  8  1  0
 10  8  1  0
 11 10  1  0
 12 13  1  0
 12 11  1  0
 13 15  1  0
 14 25  2  0
 15 20  1  0
 16 24  1  0
 16 26  1  0
 17 23  1  0
 17 19  1  0
 18 24  1  0
 19 18  1  0
 20 19  2  0
 21 22  1  0
 21 15  2  0
 22 17  2  0
 23 16  1  0
 24 14  1  0
 26 28  2  0
 27 26  1  0
 29 27  1  0
 30 39  2  0
 30 35  1  0
 31 27  1  0
 31 35  1  0
 32 31  1  0
 33 34  1  0
 33 32  1  0
 34 30  1  0
 35 36  2  0
 36 37  1  0
 38 37  2  0
 39 38  1  0
 40 14  1  0
 40 41  1  0
 40 50  1  0
 41 44  1  0
 42 46  1  0
 42 41  1  0
 43 42  2  0
 46 45  1  0
 48 49  1  0
 48 46  1  0
 48 47  1  0
 50 53  1  1
 50 51  1  0
 52 50  1  0
 54  4  1  0
 54 64  1  0
 55 64  1  0
 56 61  1  0
 57 58  1  0
 57 56  1  0
 59 58  1  0
 59 68  1  0
 59 60  1  0
 61 55  1  0
 61 60  1  0
 62 55  2  0
 64 63  1  0
 65 66  2  0
 66 85  1  0
 67 66  1  0
 67 70  1  0
 68 65  1  0
 68 69  1  0
 69 67  2  0
 70 71  1  0
 71 72  2  0
 73 76  1  0
 73 72  1  0
 74 73  2  0
 75 74  1  0
 75 70  2  0
 76 77  1  0
 77 78  1  0
 78 79  2  0
 80 79  1  0
 80 84  1  0
 81 80  2  0
 82 77  2  0
 82 81  1  0
 83 82  1  0
 85 86  1  0
 86 89  1  0
 86 88  1  0
 87 85  2  0
 90 91  1  0
 90 65  1  0
 92 90  1  0
M  ISO  4  12 101  13 101  55 100  64 100
M  END
>  <TORSDO>  (87) 
F 21

>  <SCORE>  (87) 
-12.846

>  <name>  (87) 
87

>  <ligand_id>  (87) 
87

>  <original_smiles>  (87) 
[H]c1c([H])c([H])c2c(c1[H])C([H])([H])C([H])([H])C([H])([H])C2([H])N([H])C(=O)C1([H])N(C(=O)C([H])(N([H])C(=O)C([H])(N([H])C([H])([H])[H])C([H])([H])[H])C(C([H])([H])[H])(C([H])([H])[H])C([H])([H])[H])C([H])([H])c2c([H])c(OC([H])([H])C([H])([H])C([H])([H])N([H])c3c([H])c([H])c(C([H])([H])N(C(=O)N4C([H])([H])C([H])([H])C([H])([H])C([H])(n5nc(-c6c([H])c([H])c(Oc7c([H])c([H])c(F)c([H])c7F)c([H])c6[H])c(C(=O)N([H])[H])c5N([H])[H])C4([H])[H])C([H])([H])[H])c(C([H])([H])[H])c3[H])c([H])c([H])c2C1([H])[H]

>  <smiles>  (87) 
[H]c1c([H])c([H])c2c(c1[H])C([H])([H])C([H])([H])C([H])([H])C2([H])N([H])C(=O)C1([H])N(C(=O)C([H])(N([H])C(=O)C([H])(N([H])C([H])([H])[H])C([H])([H])[H])C(C([H])([H])[H])(C([H])([H])[H])C([H])([H])[H])C([H])([H])c2c([H])c(OC([H])([H])C([H])([H])C([H])([H])N([H])c3c([H])c([H])c(C([H])([H])N(C(=O)N4C([H])([H])C([H])([H])C([H])([H])C([H])(n5nc(-c6c([H])c([H])c(Oc7c([H])c([H])c(F)c([H])c7F)c([H])c6[H])c(C(=O)N([H])[H])c5N([H])[H])C4([H])[H])C([H])([H])[H])c(C([H])([H])[H])c3[H])c([H])c([H])c2C1([H])[H]

$$$$
88:0:0
     RDKit          3D

 91 99  0  0  1  0  0  0  0  0999 V2000
  -28.9820  -21.2820   19.7500 N   0  0  0  0  0  0  0  0  0  0  0  0
  -27.9780  -21.4270   19.7990 H   0  0  0  0  0  0  0  0  0  0  0  0
  -31.0030  -18.0450   20.2250 C   0  0  0  0  0  3  0  0  0  0  0  0
  -30.7080  -19.4350   20.0150 C   0  0  0  0  0  3  0  0  0  0  0  0
  -28.6760  -17.6410   20.6810 C   0  0  0  0  0  3  0  0  0  0  0  0
  -28.3740  -19.0140   20.4660 C   0  0  0  0  0  0  0  0  0  0  0  0
  -29.9800  -17.1070   20.5420 C   0  0  0  0  0  0  0  0  0  0  0  0
  -29.3810  -19.9490   20.0990 C   0  0  0  0  0  0  0  0  0  0  0  0
  -26.9240  -19.4530   20.6260 C   0  0  0  0  0  1  0  0  0  0  0  0
  -30.8790  -14.6840   20.1410 C   0  0  0  0  0  0  0  0  0  0  0  0
  -30.6790  -12.4520   19.0560 C   0  0  0  0  0  2  0  0  0  0  0  0
  -29.7250  -12.5870   17.8460 C   0  0  0  0  0  2  0  0  0  0  0  0
  -28.2520  -12.4370   18.2800 C   0  0  0  0  0  2  0  0  0  0  0  0
  -27.9080  -13.3030   19.5210 C   0  0  0  0  0  3  0  0  0  0  0  0
  -28.9630  -13.1080   20.6320 C   0  0  0  0  0  2  0  0  0  0  0  0
  -30.2800  -13.4540   20.0640 N   0  0  0  0  0  0  0  0  0  0  0  0
  -32.0000  -14.8900   19.6650 O   0  0  0  0  0  0  0  0  0  0  0  0
  -30.1070  -15.6620   20.7070 N   0  0  0  0  0  0  0  0  0  0  0  0
  -29.3200  -15.2510   21.1850 H   0  0  0  0  0  0  0  0  0  0  0  0
  -25.5170  -13.9370   20.2280 C   0  0  0  0  0  0  0  0  0  0  0  0
  -24.4430  -13.1770   20.6080 C   0  0  0  0  0  0  0  0  0  0  0  0
  -24.8940  -11.8220   20.5920 C   0  0  0  0  0  0  0  0  0  0  0  0
  -26.5540  -13.0440   20.0040 N   0  0  0  0  0  0  0  0  0  0  0  0
  -26.1820  -11.7690   20.2800 N   0  0  0  0  0  0  0  0  0  0  0  0
  -24.1570  -10.5680   20.7990 C   0  0  0  0  0  0  0  0  0  0  0  0
  -24.4560   -9.7050   21.8750 C   0  0  0  0  0  3  0  0  0  0  0  0
  -23.7220   -8.5130   22.0620 C   0  0  0  0  0  3  0  0  0  0  0  0
  -22.6760   -8.1760   21.1700 C   0  0  0  0  0  0  0  0  0  0  0  0
  -22.3990   -9.0280   20.0860 C   0  0  0  0  0  3  0  0  0  0  0  0
  -23.1340  -10.2110   19.8990 C   0  0  0  0  0  3  0  0  0  0  0  0
  -21.9270   -7.0280   21.2580 O   0  0  0  0  0  0  0  0  0  0  0  0
  -21.5550   -6.5040   22.4700 C   0  0  0  0  0  0  0  0  0  0  0  0
  -20.7730   -7.2360   23.3890 C   0  0  0  0  0  3  0  0  0  0  0  0
  -20.3530   -6.6340   24.5930 C   0  0  0  0  0  3  0  0  0  0  0  0
  -20.7050   -5.3010   24.8740 C   0  0  0  0  0  0  0  0  0  0  0  0
  -21.4780   -4.5670   23.9550 C   0  0  0  0  0  3  0  0  0  0  0  0
  -21.8980   -5.1670   22.7550 C   0  0  0  0  0  0  0  0  0  0  0  0
  -22.6260   -4.4510   21.8660 F   0  0  0  0  0  0  0  0  0  0  0  0
  -20.2940   -4.7190   26.0250 F   0  0  0  0  0  0  0  0  0  0  0  0
  -23.0510  -13.6700   20.8800 C   0  0  0  0  0  0  0  0  0  0  0  0
  -22.3290  -13.0050   21.7770 N   0  0  0  0  0  0  0  0  0  0  0  0
  -22.6110  -14.6800   20.3310 O   0  0  0  0  0  0  0  0  0  0  0  0
  -22.6960  -12.1870   22.2400 H   0  0  0  0  0  0  0  0  0  0  0  0
  -21.3960  -13.3190   22.0020 H   0  0  0  0  0  0  0  0  0  0  0  0
  -25.6940  -15.3040   20.0350 N   0  0  0  0  0  0  0  0  0  0  0  0
  -24.9270  -15.9620   20.1230 H   0  0  0  0  0  0  0  0  0  0  0  0
  -26.5430  -15.7300   19.6860 H   0  0  0  0  0  0  0  0  0  0  0  0
  -29.7650  -22.5490   19.8480 C   0  0  0  0  0  2  0  0  0  0  0  0
  -28.9300  -23.9070   19.5900 C   0  0  0  0  0  2  0  0  0  0  0  0
  -28.6790  -25.2660   20.4170 C   0  0  0  0  0  2  0  0  0  0  0  0
  -28.6680  -26.5800   19.7440 O   0  0  0  0  0  0  0  0  0  0  0  0
  -24.6060  -31.5680   23.0160 C   0  0  0  0  0  0  0  0  0  0  0  0
  -27.4860  -27.3250   19.7870 C   0  0  0  0  0  0  0  0  0  0  0  0
  -23.4820  -30.1650   21.3190 C   0  0  0  0  0  3  0  0  0  0  0  0
  -25.0210  -28.7580   19.8380 C   0  0  0  0  0  0  0  0  0  0  0  0
  -25.9940  -30.6530   21.1440 C   0  0  0  0  0  2  0  0  0  0  0  0
  -26.1570  -29.3080   20.4470 C   0  0  0  0  0  0  0  0  0  0  0  0
  -27.3950  -28.6030   20.4080 C   0  0  0  0  0  3  0  0  0  0  0  0
  -26.3270  -26.8070   19.1730 C   0  0  0  0  0  3  0  0  0  0  0  0
  -25.1050  -27.5120   19.1960 C   0  0  0  0  0  3  0  0  0  0  0  0
  -23.7340  -29.5570   19.9140 C   0  0  0  0  0  2  0  0  0  0  0  0
  -24.7120  -30.8100   21.8860 N   0  0  0  0  0  0  0  0  0  0  0  0
  -23.5100  -31.7610   23.5630 O   0  0  0  0  0  0  0  0  0  0  0  0
  -22.8800  -29.0780   22.2380 C   0  0  0  0  0  0  0  0  0  0  0  0
  -21.5630  -28.8440   22.1160 N   0  0  0  0  0  0  0  0  0  0  0  0
  -23.5970  -28.4480   23.0200 O   0  0  0  0  0  0  0  0  0  0  0  0
  -21.0420  -29.4100   21.4610 H   0  0  0  0  0  0  0  0  0  0  0  0
  -18.2400  -27.5130   22.6330 C   0  0  0  0  0  0  0  0  0  0  0  0
  -20.7970  -27.8360   22.8490 C   0  0  0  0  0  3  0  0  0  0  0  0
  -20.9250  -26.4470   22.1830 C   0  0  0  0  0  2  0  0  0  0  0  0
  -19.8030  -26.1520   21.1810 C   0  0  0  0  0  2  0  0  0  0  0  0
  -18.4370  -26.2130   21.8710 C   0  0  0  0  0  2  0  0  0  0  0  0
  -19.3490  -28.2830   23.0780 C   0  0  0  0  0  0  0  0  0  0  0  0
  -19.1100  -29.4980   23.7530 C   0  0  0  0  0  3  0  0  0  0  0  0
  -17.7970  -29.9480   23.9870 C   0  0  0  0  0  3  0  0  0  0  0  0
  -16.7040  -29.1750   23.5600 C   0  0  0  0  0  3  0  0  0  0  0  0
  -16.9250  -27.9600   22.8850 C   0  0  0  0  0  3  0  0  0  0  0  0
  -25.8520  -32.2460   23.6630 C   0  0  0  0  0  3  0  0  0  0  0  0
  -26.4030  -31.4640   24.9180 C   0  0  1  0  0  0  0  0  0  0  0  0
  -25.3190  -31.1340   25.9690 C   0  0  0  0  0  1  0  0  0  0  0  0
  -27.0620  -30.1350   24.4850 C   0  0  0  0  0  1  0  0  0  0  0  0
  -27.5030  -32.2980   25.6140 C   0  0  0  0  0  1  0  0  0  0  0  0
  -25.4700  -33.6150   24.0340 N   0  0  0  0  0  0  0  0  0  0  0  0
  -25.7570  -34.7070   23.3140 C   0  0  0  0  0  0  0  0  0  0  0  0
  -26.4390  -34.6720   22.2850 O   0  0  0  0  0  0  0  0  0  0  0  0
  -24.8610  -33.7140   24.8310 H   0  0  0  0  0  0  0  0  0  0  0  0
  -23.9430  -36.4240   23.0030 C   0  0  0  0  0  1  0  0  0  0  0  0
  -25.1970  -36.0550   23.8120 C   0  0  0  0  0  3  0  0  0  0  0  0
  -27.2720  -37.0260   24.6950 C   0  0  0  0  0  1  0  0  0  0  0  0
  -26.1750  -37.1620   23.7410 N   0  0  0  0  0  0  0  0  0  0  0  0
  -25.7220  -38.0570   23.9060 H   0  0  0  0  0  0  0  0  0  0  0  0
  1  2  1  0
  1 48  1  0
  1  8  1  0
  3  7  1  0
  4  8  1  0
  4  3  2  0
  6  9  1  0
  6  5  1  0
  7  5  2  0
  7 18  1  0
  8  6  2  0
 10 18  1  0
 11 16  1  0
 12 13  1  0
 12 11  1  0
 14 13  1  0
 14 23  1  0
 14 15  1  0
 16 10  1  0
 16 15  1  0
 17 10  2  0
 18 19  1  0
 20 21  2  0
 21 40  1  0
 22 21  1  0
 22 25  1  0
 23 20  1  0
 23 24  1  0
 24 22  2  0
 25 26  1  0
 26 27  2  0
 28 31  1  0
 28 27  1  0
 29 28  2  0
 30 29  1  0
 30 25  2  0
 31 32  1  0
 32 37  2  0
 32 33  1  0
 33 34  2  0
 34 35  1  0
 35 39  1  0
 36 35  2  0
 37 36  1  0
 38 37  1  0
 40 41  1  0
 41 44  1  0
 41 43  1  0
 42 40  2  0
 45 46  1  0
 45 20  1  0
 47 45  1  0
 49 48  1  0
 49 50  1  0
 51 53  1  0
 51 50  1  0
 52 63  2  0
 53 58  1  0
 54 62  1  0
 54 64  1  0
 55 61  1  0
 55 57  1  0
 56 62  1  0
 57 56  1  0
 58 57  2  0
 59 60  1  0
 59 53  2  0
 60 55  2  0
 61 54  1  0
 62 52  1  0
 64 66  2  0
 65 64  1  0
 67 65  1  0
 68 77  2  0
 68 73  1  0
 69 65  1  0
 69 73  1  0
 70 69  1  0
 71 72  1  0
 71 70  1  0
 72 68  1  0
 73 74  2  0
 74 75  1  0
 76 75  2  0
 77 76  1  0
 78 52  1  0
 78 83  1  0
 78 79  1  0
 79 82  1  1
 79 80  1  0
 81 79  1  0
 83 86  1  0
 84 88  1  0
 84 83  1  0
 85 84  2  0
 88 87  1  0
 90 88  1  0
 90 91  1  0
 90 89  1  0
M  ISO  4  10 100  18 100  50 101  51 101
M  END
>  <TORSDO>  (88) 
F 20

>  <SCORE>  (88) 
-11.014

>  <name>  (88) 
88

>  <ligand_id>  (88) 
88

>  <original_smiles>  (88) 
[H]c1c([H])c([H])c2c(c1[H])C([H])([H])C([H])([H])C([H])([H])C2([H])N([H])C(=O)C1([H])N(C(=O)C([H])(N([H])C(=O)C([H])(N([H])C([H])([H])[H])C([H])([H])[H])C(C([H])([H])[H])(C([H])([H])[H])C([H])([H])[H])C([H])([H])c2c([H])c(OC([H])([H])C([H])([H])C([H])([H])N([H])c3c([H])c([H])c(N([H])C(=O)N4C([H])([H])C([H])([H])C([H])([H])C([H])(n5nc(-c6c([H])c([H])c(Oc7c([H])c([H])c(F)c([H])c7F)c([H])c6[H])c(C(=O)N([H])[H])c5N([H])[H])C4([H])[H])c([H])c3C([H])([H])[H])c([H])c([H])c2C1([H])[H]

>  <smiles>  (88) 
[H]c1c([H])c([H])c2c(c1[H])C([H])([H])C([H])([H])C([H])([H])C2([H])N([H])C(=O)C1([H])N(C(=O)C([H])(N([H])C(=O)C([H])(N([H])C([H])([H])[H])C([H])([H])[H])C(C([H])([H])[H])(C([H])([H])[H])C([H])([H])[H])C([H])([H])c2c([H])c(OC([H])([H])C([H])([H])C([H])([H])N([H])c3c([H])c([H])c(N([H])C(=O)N4C([H])([H])C([H])([H])C([H])([H])C([H])(n5nc(-c6c([H])c([H])c(Oc7c([H])c([H])c(F)c([H])c7F)c([H])c6[H])c(C(=O)N([H])[H])c5N([H])[H])C4([H])[H])c([H])c3C([H])([H])[H])c([H])c([H])c2C1([H])[H]

$$$$
89:0:0
     RDKit          3D

 91 99  0  0  1  0  0  0  0  0999 V2000
  -30.4290  -19.1450   19.2030 C   0  0  0  0  0  3  0  0  0  0  0  0
  -30.3310  -20.5650   19.1520 C   0  0  0  0  0  3  0  0  0  0  0  0
  -28.2140  -20.4840   20.2750 C   0  0  0  0  0  3  0  0  0  0  0  0
  -29.4080  -18.3370   19.7580 C   0  0  0  0  0  0  0  0  0  0  0  0
  -29.2170  -21.2850   19.6590 C   0  0  0  0  0  0  0  0  0  0  0  0
  -28.3030  -19.0510   20.3150 C   0  0  0  0  0  0  0  0  0  0  0  0
  -27.2770  -18.3480   20.8510 F   0  0  0  0  0  0  0  0  0  0  0  0
  -29.1960  -22.7120   19.4680 N   0  0  0  0  0  0  0  0  0  0  0  0
  -29.9650  -23.0780   18.9110 H   0  0  0  0  0  0  0  0  0  0  0  0
  -28.3420  -23.7920   20.0620 C   0  0  0  0  0  2  0  0  0  0  0  0
  -28.5200  -25.2210   19.3530 C   0  0  0  0  0  2  0  0  0  0  0  0
  -28.3730  -26.5010   20.0810 O   0  0  0  0  0  0  0  0  0  0  0  0
  -24.6220  -31.8260   23.1470 C   0  0  0  0  0  0  0  0  0  0  0  0
  -27.2280  -27.3060   20.0230 C   0  0  0  0  0  0  0  0  0  0  0  0
  -23.4180  -30.4530   21.4850 C   0  0  0  0  0  3  0  0  0  0  0  0
  -24.8630  -28.9150   20.0390 C   0  0  0  0  0  0  0  0  0  0  0  0
  -25.9560  -30.7660   21.3100 C   0  0  0  0  0  2  0  0  0  0  0  0
  -26.0300  -29.3980   20.6430 C   0  0  0  0  0  0  0  0  0  0  0  0
  -27.2120  -28.6020   20.6270 C   0  0  0  0  0  3  0  0  0  0  0  0
  -26.0330  -26.8640   19.4140 C   0  0  0  0  0  3  0  0  0  0  0  0
  -24.8660  -27.6540   19.4200 C   0  0  0  0  0  3  0  0  0  0  0  0
  -23.6310  -29.7940   20.0960 C   0  0  0  0  0  2  0  0  0  0  0  0
  -24.6840  -31.0320   22.0380 N   0  0  0  0  0  0  0  0  0  0  0  0
  -23.5370  -32.1020   23.6830 O   0  0  0  0  0  0  0  0  0  0  0  0
  -22.7510  -29.4250   22.4310 C   0  0  0  0  0  0  0  0  0  0  0  0
  -21.4200  -29.2720   22.3160 N   0  0  0  0  0  0  0  0  0  0  0  0
  -23.4280  -28.7710   23.2280 O   0  0  0  0  0  0  0  0  0  0  0  0
  -20.9340  -29.8520   21.6470 H   0  0  0  0  0  0  0  0  0  0  0  0
  -18.0260  -28.1470   22.8600 C   0  0  0  0  0  0  0  0  0  0  0  0
  -20.5960  -28.3310   23.0760 C   0  0  0  0  0  3  0  0  0  0  0  0
  -20.6460  -26.9180   22.4520 C   0  0  0  0  0  2  0  0  0  0  0  0
  -19.5130  -26.6570   21.4550 C   0  0  0  0  0  2  0  0  0  0  0  0
  -18.1510  -26.8170   22.1360 C   0  0  0  0  0  2  0  0  0  0  0  0
  -19.1750  -28.8650   23.2870 C   0  0  0  0  0  0  0  0  0  0  0  0
  -19.0030  -30.1120   23.9270 C   0  0  0  0  0  3  0  0  0  0  0  0
  -17.7180  -30.6430   24.1390 C   0  0  0  0  0  3  0  0  0  0  0  0
  -16.5840  -29.9210   23.7280 C   0  0  0  0  0  3  0  0  0  0  0  0
  -16.7390  -28.6740   23.0950 C   0  0  0  0  0  3  0  0  0  0  0  0
  -25.9070  -32.4460   23.7800 C   0  0  0  0  0  3  0  0  0  0  0  0
  -26.4170  -31.6600   25.0500 C   0  0  1  0  0  0  0  0  0  0  0  0
  -25.3190  -31.4150   26.1110 C   0  0  0  0  0  1  0  0  0  0  0  0
  -26.9970  -30.2840   24.6470 C   0  0  0  0  0  1  0  0  0  0  0  0
  -27.5670  -32.4450   25.7230 C   0  0  0  0  0  1  0  0  0  0  0  0
  -25.6010  -33.8420   24.1260 N   0  0  0  0  0  0  0  0  0  0  0  0
  -25.9410  -34.9030   23.3820 C   0  0  0  0  0  0  0  0  0  0  0  0
  -26.6150  -34.8110   22.3520 O   0  0  0  0  0  0  0  0  0  0  0  0
  -25.0020  -33.9880   24.9250 H   0  0  0  0  0  0  0  0  0  0  0  0
  -24.2270  -36.7110   23.0400 C   0  0  0  0  0  1  0  0  0  0  0  0
  -25.4580  -36.2880   23.8560 C   0  0  0  0  0  3  0  0  0  0  0  0
  -27.5900  -37.1500   24.7200 C   0  0  0  0  0  1  0  0  0  0  0  0
  -26.4980  -37.3370   23.7670 N   0  0  0  0  0  0  0  0  0  0  0  0
  -26.0940  -38.2570   23.9220 H   0  0  0  0  0  0  0  0  0  0  0  0
  -29.4150  -16.7670   19.5370 C   0  0  0  0  0  2  0  0  0  0  0  0
  -30.7390  -14.6430   19.9540 C   0  0  0  0  0  0  0  0  0  0  0  0
  -30.3820  -12.4110   18.9130 C   0  0  0  0  0  2  0  0  0  0  0  0
  -29.3660  -12.5350   17.7590 C   0  0  0  0  0  2  0  0  0  0  0  0
  -27.9280  -12.3890   18.2910 C   0  0  0  0  0  2  0  0  0  0  0  0
  -27.6590  -13.2760   19.5350 C   0  0  0  0  0  3  0  0  0  0  0  0
  -28.7860  -13.1460   20.5820 C   0  0  0  0  0  2  0  0  0  0  0  0
  -30.0530  -13.4540   19.9070 N   0  0  0  0  0  0  0  0  0  0  0  0
  -31.8730  -14.7300   19.4730 O   0  0  0  0  0  0  0  0  0  0  0  0
  -30.6770  -16.3790   21.6410 C   0  0  0  0  0  1  0  0  0  0  0  0
  -30.1040  -15.7700   20.4410 N   0  0  0  0  0  0  0  0  0  0  0  0
  -25.3410  -13.9110   20.4390 C   0  0  0  0  0  0  0  0  0  0  0  0
  -24.2840  -13.1530   20.8630 C   0  0  0  0  0  0  0  0  0  0  0  0
  -24.7110  -11.7940   20.7710 C   0  0  0  0  0  0  0  0  0  0  0  0
  -26.3450  -13.0130   20.1130 N   0  0  0  0  0  0  0  0  0  0  0  0
  -25.9760  -11.7330   20.3750 N   0  0  0  0  0  0  0  0  0  0  0  0
  -23.9680  -10.5430   20.9830 C   0  0  0  0  0  0  0  0  0  0  0  0
  -24.4260   -9.5570   21.8830 C   0  0  0  0  0  3  0  0  0  0  0  0
  -23.6840   -8.3720   22.0840 C   0  0  0  0  0  3  0  0  0  0  0  0
  -22.4720   -8.1680   21.3860 C   0  0  0  0  0  0  0  0  0  0  0  0
  -22.0320   -9.1430   20.4720 C   0  0  0  0  0  3  0  0  0  0  0  0
  -22.7740  -10.3190   20.2700 C   0  0  0  0  0  3  0  0  0  0  0  0
  -21.6980   -7.0380   21.4980 O   0  0  0  0  0  0  0  0  0  0  0  0
  -21.6830   -6.2870   22.6470 C   0  0  0  0  0  0  0  0  0  0  0  0
  -21.3010   -6.8380   23.8900 C   0  0  0  0  0  3  0  0  0  0  0  0
  -21.2320   -6.0150   25.0310 C   0  0  0  0  0  3  0  0  0  0  0  0
  -21.5330   -4.6430   24.9310 C   0  0  0  0  0  0  0  0  0  0  0  0
  -21.9080   -4.0920   23.6930 C   0  0  0  0  0  3  0  0  0  0  0  0
  -21.9790   -4.9130   22.5530 C   0  0  0  0  0  0  0  0  0  0  0  0
  -22.3200   -4.3720   21.3580 F   0  0  0  0  0  0  0  0  0  0  0  0
  -21.4580   -3.8510   26.0270 F   0  0  0  0  0  0  0  0  0  0  0  0
  -22.9210  -13.6570   21.2410 C   0  0  0  0  0  0  0  0  0  0  0  0
  -22.2380  -12.9590   22.1410 N   0  0  0  0  0  0  0  0  0  0  0  0
  -22.4740  -14.7030   20.7740 O   0  0  0  0  0  0  0  0  0  0  0  0
  -22.6130  -12.1110   22.5400 H   0  0  0  0  0  0  0  0  0  0  0  0
  -21.3260  -13.2780   22.4350 H   0  0  0  0  0  0  0  0  0  0  0  0
  -25.5230  -15.2810   20.2840 N   0  0  0  0  0  0  0  0  0  0  0  0
  -24.7880  -15.9480   20.4920 H   0  0  0  0  0  0  0  0  0  0  0  0
  -26.3760  -15.7220   19.9650 H   0  0  0  0  0  0  0  0  0  0  0  0
  1  4  1  0
  2  1  2  0
  2  5  1  0
  3  6  1  0
  4  6  2  0
  5  3  2  0
  6  7  1  0
  8  5  1  0
  8 10  1  0
  9  8  1  0
 11 10  1  0
 11 12  1  0
 13 24  2  0
 14 12  1  0
 14 19  1  0
 15 23  1  0
 15 25  1  0
 16 22  1  0
 16 18  1  0
 17 23  1  0
 18 17  1  0
 19 18  2  0
 20 21  1  0
 20 14  2  0
 21 16  2  0
 22 15  1  0
 23 13  1  0
 25 27  2  0
 26 25  1  0
 28 26  1  0
 29 38  2  0
 29 34  1  0
 30 26  1  0
 30 34  1  0
 31 30  1  0
 32 33  1  0
 32 31  1  0
 33 29  1  0
 34 35  2  0
 35 36  1  0
 37 36  2  0
 38 37  1  0
 39 13  1  0
 39 44  1  0
 39 40  1  0
 40 43  1  1
 40 41  1  0
 42 40  1  0
 44 47  1  0
 45 49  1  0
 45 44  1  0
 46 45  2  0
 49 48  1  0
 51 49  1  0
 51 52  1  0
 51 50  1  0
 53  4  1  0
 53 63  1  0
 54 63  1  0
 55 60  1  0
 56 57  1  0
 56 55  1  0
 58 57  1  0
 58 67  1  0
 58 59  1  0
 60 54  1  0
 60 59  1  0
 61 54  2  0
 63 62  1  0
 64 65  2  0
 65 84  1  0
 66 65  1  0
 66 69  1  0
 67 68  1  0
 67 64  1  0
 68 66  2  0
 69 70  1  0
 70 71  2  0
 72 75  1  0
 72 71  1  0
 73 72  2  0
 74 73  1  0
 74 69  2  0
 75 76  1  0
 76 77  1  0
 77 78  2  0
 79 78  1  0
 79 83  1  0
 80 79  2  0
 81 76  2  0
 81 80  1  0
 82 81  1  0
 84 85  1  0
 85 88  1  0
 85 87  1  0
 86 84  2  0
 89 64  1  0
 89 90  1  0
 91 89  1  0
M  ISO  4  11 101  12 101  54 100  63 100
M  END
>  <TORSDO>  (89) 
F 20

>  <SCORE>  (89) 
-13.780

>  <name>  (89) 
89

>  <ligand_id>  (89) 
89

>  <original_smiles>  (89) 
[H]c1c([H])c([H])c2c(c1[H])C([H])([H])C([H])([H])C([H])([H])C2([H])N([H])C(=O)C1([H])N(C(=O)C([H])(N([H])C(=O)C([H])(N([H])C([H])([H])[H])C([H])([H])[H])C(C([H])([H])[H])(C([H])([H])[H])C([H])([H])[H])C([H])([H])c2c([H])c(OC([H])([H])C([H])([H])N([H])c3c([H])c([H])c(C([H])([H])N(C(=O)N4C([H])([H])C([H])([H])C([H])([H])C([H])(n5nc(-c6c([H])c([H])c(Oc7c([H])c([H])c(F)c([H])c7F)c([H])c6[H])c(C(=O)N([H])[H])c5N([H])[H])C4([H])[H])C([H])([H])[H])c(F)c3[H])c([H])c([H])c2C1([H])[H]

>  <smiles>  (89) 
[H]c1c([H])c([H])c2c(c1[H])C([H])([H])C([H])([H])C([H])([H])C2([H])N([H])C(=O)C1([H])N(C(=O)C([H])(N([H])C(=O)C([H])(N([H])C([H])([H])[H])C([H])([H])[H])C(C([H])([H])[H])(C([H])([H])[H])C([H])([H])[H])C([H])([H])c2c([H])c(OC([H])([H])C([H])([H])N([H])c3c([H])c([H])c(C([H])([H])N(C(=O)N4C([H])([H])C([H])([H])C([H])([H])C([H])(n5nc(-c6c([H])c([H])c(Oc7c([H])c([H])c(F)c([H])c7F)c([H])c6[H])c(C(=O)N([H])[H])c5N([H])[H])C4([H])[H])C([H])([H])[H])c(F)c3[H])c([H])c([H])c2C1([H])[H]

$$$$
90:0:0
     RDKit          3D

 95103  0  0  1  0  0  0  0  0999 V2000
  -30.4650  -19.4330   18.9230 C   0  0  0  0  0  3  0  0  0  0  0  0
  -30.7710  -19.6630   21.6220 C   0  0  0  0  0  3  0  0  0  0  0  0
  -30.0810  -20.7620   19.5120 C   0  0  0  0  0  0  0  0  0  0  0  0
  -30.9990  -18.2100   19.6290 C   0  0  0  0  0  0  0  0  0  0  0  0
  -30.1190  -20.7290   20.9350 C   0  0  0  0  0  0  0  0  0  0  0  0
  -31.2380  -18.4730   21.0060 C   0  0  0  0  0  0  0  0  0  0  0  0
  -32.0240  -17.3260   22.0300 Cl  0  0  0  0  0  0  0  0  0  0  0  0
  -31.7620  -15.5150   19.5600 C   0  0  0  0  0  0  0  0  0  0  0  0
  -31.3720  -13.0820   18.8950 C   0  0  0  0  0  2  0  0  0  0  0  0
  -30.4060  -12.9300   17.7000 C   0  0  0  0  0  2  0  0  0  0  0  0
  -28.9370  -12.9350   18.1740 C   0  0  0  0  0  2  0  0  0  0  0  0
  -28.6500  -14.0140   19.2520 C   0  0  0  0  0  3  0  0  0  0  0  0
  -29.7490  -14.1100   20.3260 C   0  0  0  0  0  2  0  0  0  0  0  0
  -31.0100  -14.3360   19.6180 N   0  0  0  0  0  0  0  0  0  0  0  0
  -32.9830  -15.3530   19.4280 O   0  0  0  0  0  0  0  0  0  0  0  0
  -31.0950  -16.7180   17.6050 C   0  0  0  0  0  1  0  0  0  0  0  0
  -31.1800  -16.7540   19.0730 N   0  0  0  0  0  0  0  0  0  0  0  0
  -26.4420  -14.8850   20.2010 C   0  0  0  0  0  0  0  0  0  0  0  0
  -25.2940  -14.2570   20.5850 C   0  0  0  0  0  0  0  0  0  0  0  0
  -25.5410  -12.8560   20.4610 C   0  0  0  0  0  0  0  0  0  0  0  0
  -27.3190  -13.8780   19.8340 N   0  0  0  0  0  0  0  0  0  0  0  0
  -26.7910  -12.6460   20.0630 N   0  0  0  0  0  0  0  0  0  0  0  0
  -24.6390  -11.7100   20.6290 C   0  0  0  0  0  0  0  0  0  0  0  0
  -25.0250  -10.5680   21.3650 C   0  0  0  0  0  3  0  0  0  0  0  0
  -24.1270   -9.4920   21.5310 C   0  0  0  0  0  3  0  0  0  0  0  0
  -22.8330   -9.5510   20.9640 C   0  0  0  0  0  0  0  0  0  0  0  0
  -22.4640  -10.6770   20.2090 C   0  0  0  0  0  3  0  0  0  0  0  0
  -23.3590  -11.7460   20.0390 C   0  0  0  0  0  3  0  0  0  0  0  0
  -21.9010   -8.5450   21.0500 O   0  0  0  0  0  0  0  0  0  0  0  0
  -21.9740   -7.5830   22.0240 C   0  0  0  0  0  0  0  0  0  0  0  0
  -21.9810   -7.9140   23.3960 C   0  0  0  0  0  3  0  0  0  0  0  0
  -21.9870   -6.8890   24.3640 C   0  0  0  0  0  3  0  0  0  0  0  0
  -21.9770   -5.5420   23.9620 C   0  0  0  0  0  0  0  0  0  0  0  0
  -21.9630   -5.2110   22.5950 C   0  0  0  0  0  3  0  0  0  0  0  0
  -21.9580   -6.2310   21.6280 C   0  0  0  0  0  0  0  0  0  0  0  0
  -21.9230   -5.9120   20.3120 F   0  0  0  0  0  0  0  0  0  0  0  0
  -21.9730   -4.5580   24.8920 F   0  0  0  0  0  0  0  0  0  0  0  0
  -24.0010  -14.9220   20.9570 C   0  0  0  0  0  0  0  0  0  0  0  0
  -23.2280  -14.2960   21.8330 N   0  0  0  0  0  0  0  0  0  0  0  0
  -23.6970  -16.0230   20.5000 O   0  0  0  0  0  0  0  0  0  0  0  0
  -23.5030  -13.4050   22.2230 H   0  0  0  0  0  0  0  0  0  0  0  0
  -22.3500  -14.7060   22.1220 H   0  0  0  0  0  0  0  0  0  0  0  0
  -26.8060  -16.2260   20.0980 N   0  0  0  0  0  0  0  0  0  0  0  0
  -26.1720  -16.9750   20.3540 H   0  0  0  0  0  0  0  0  0  0  0  0
  -27.6940  -16.5640   19.7500 H   0  0  0  0  0  0  0  0  0  0  0  0
  -29.5880  -22.0080   18.8100 N   0  0  0  0  0  0  0  0  0  0  0  0
  -29.3960  -21.8660   17.8210 H   0  0  0  0  0  0  0  0  0  0  0  0
  -29.7110  -23.5530   19.1770 C   0  0  0  0  0  3  0  0  0  0  0  0
  -28.6530  -24.8230   18.7050 C   0  0  0  0  0  3  0  0  0  0  0  0
  -28.7200  -26.3800   18.9880 O   0  0  0  0  0  0  0  0  0  0  0  0
  -24.7140  -31.2600   22.8850 C   0  0  0  0  0  0  0  0  0  0  0  0
  -27.5650  -27.2560   19.1020 C   0  0  0  0  0  0  0  0  0  0  0  0
  -23.5580  -29.8880   21.1910 C   0  0  0  0  0  3  0  0  0  0  0  0
  -25.0500  -28.6910   19.4770 C   0  0  0  0  0  0  0  0  0  0  0  0
  -26.0340  -30.5050   20.8640 C   0  0  0  0  0  2  0  0  0  0  0  0
  -26.2180  -29.2120   20.0450 C   0  0  0  0  0  0  0  0  0  0  0  0
  -27.4720  -28.5080   19.8510 C   0  0  0  0  0  3  0  0  0  0  0  0
  -26.3570  -26.8690   18.4840 C   0  0  0  0  0  3  0  0  0  0  0  0
  -25.1310  -27.5380   18.6830 C   0  0  0  0  0  3  0  0  0  0  0  0
  -23.7330  -29.4040   19.7280 C   0  0  0  0  0  2  0  0  0  0  0  0
  -24.7910  -30.5700   21.7020 N   0  0  0  0  0  0  0  0  0  0  0  0
  -23.6530  -31.3350   23.5240 O   0  0  0  0  0  0  0  0  0  0  0  0
  -23.1050  -28.7050   22.0830 C   0  0  0  0  0  0  0  0  0  0  0  0
  -21.8350  -28.2830   21.9450 N   0  0  0  0  0  0  0  0  0  0  0  0
  -23.8950  -28.1720   22.8650 O   0  0  0  0  0  0  0  0  0  0  0  0
  -21.2440  -28.7750   21.2900 H   0  0  0  0  0  0  0  0  0  0  0  0
  -18.8320  -26.2650   22.2080 C   0  0  0  0  0  0  0  0  0  0  0  0
  -21.2230  -27.1470   22.6430 C   0  0  0  0  0  3  0  0  0  0  0  0
  -21.7160  -25.8060   22.0540 C   0  0  0  0  0  2  0  0  0  0  0  0
  -20.7920  -25.2480   20.9660 C   0  0  0  0  0  2  0  0  0  0  0  0
  -19.3810  -25.0250   21.5210 C   0  0  0  0  0  2  0  0  0  0  0  0
  -19.6980  -27.2680   22.7190 C   0  0  0  0  0  0  0  0  0  0  0  0
  -19.1370  -28.4150   23.3230 C   0  0  0  0  0  3  0  0  0  0  0  0
  -17.7430  -28.5720   23.4180 C   0  0  0  0  0  3  0  0  0  0  0  0
  -16.8890  -27.5700   22.9230 C   0  0  0  0  0  3  0  0  0  0  0  0
  -17.4330  -26.4170   22.3280 C   0  0  0  0  0  3  0  0  0  0  0  0
  -25.9510  -31.9970   23.4830 C   0  0  0  0  0  3  0  0  0  0  0  0
  -25.5040  -33.3200   23.9500 N   0  0  0  0  0  0  0  0  0  0  0  0
  -25.7260  -34.4720   23.3060 C   0  0  0  0  0  0  0  0  0  0  0  0
  -26.3960  -34.5430   22.2730 O   0  0  0  0  0  0  0  0  0  0  0  0
  -24.9070  -33.3360   24.7630 H   0  0  0  0  0  0  0  0  0  0  0  0
  -23.8280  -36.1200   23.1370 C   0  0  0  0  0  1  0  0  0  0  0  0
  -25.1110  -35.7550   23.9030 C   0  0  0  0  0  3  0  0  0  0  0  0
  -27.1600  -36.7500   24.8200 C   0  0  0  0  0  1  0  0  0  0  0  0
  -26.0340  -36.9110   23.9040 N   0  0  0  0  0  0  0  0  0  0  0  0
  -25.5410  -37.7650   24.1520 H   0  0  0  0  0  0  0  0  0  0  0  0
  -26.6370  -31.2040   24.6650 C   0  0  1  0  0  0  0  0  0  0  0  0
  -25.6580  -30.7740   25.7830 C   0  0  0  0  0  1  0  0  0  0  0  0
  -27.3380  -29.9300   24.1420 C   0  0  0  0  0  1  0  0  0  0  0  0
  -27.7430  -32.0740   25.3080 C   0  0  0  0  0  1  0  0  0  0  0  0
  -29.3900  -21.6860   21.6770 N   0  0  0  0  0  0  0  0  0  0  0  0
  -27.0870  -22.6740   21.4280 C   0  0  0  0  0  1  0  0  0  0  0  0
  -27.9400  -21.4430   21.7540 C   0  0  0  0  0  2  0  0  0  0  0  0
  -29.7580  -22.0080   24.1340 C   0  0  0  0  0  1  0  0  0  0  0  0
  -30.0860  -22.4660   22.7040 C   0  0  0  0  0  2  0  0  0  0  0  0
  1  3  2  0
  1  4  1  0
  3  5  1  0
  4  6  2  0
  5  2  2  0
  5 91  1  0
  6  2  1  0
  6  7  1  0
  8 14  1  0
  9 14  1  0
 10 11  1  0
 10  9  1  0
 12 11  1  0
 12 21  1  0
 12 13  1  0
 14 13  1  0
 15  8  2  0
 16 17  1  0
 17  8  1  0
 17  4  1  0
 18 19  2  0
 19 38  1  0
 20 19  1  0
 20 23  1  0
 21 22  1  0
 21 18  1  0
 22 20  2  0
 23 24  1  0
 24 25  2  0
 26 29  1  0
 26 25  1  0
 27 26  2  0
 28 27  1  0
 28 23  2  0
 29 30  1  0
 30 31  1  0
 31 32  2  0
 33 32  1  0
 33 37  1  0
 34 33  2  0
 35 30  2  0
 35 34  1  0
 36 35  1  0
 38 39  1  0
 39 42  1  0
 39 41  1  0
 40 38  2  0
 43 18  1  0
 43 44  1  0
 45 43  1  0
 46 48  1  0
 46  3  1  0
 47 46  1  0
 49 50  1  0
 49 48  2  0
 50 52  1  0
 51 62  2  0
 52 57  1  0
 53 61  1  0
 53 63  1  0
 54 60  1  0
 54 56  1  0
 55 61  1  0
 56 55  1  0
 57 56  2  0
 58 59  1  0
 58 52  2  0
 59 54  2  0
 60 53  1  0
 61 51  1  0
 63 65  2  0
 64 63  1  0
 66 64  1  0
 67 76  2  0
 67 72  1  0
 68 64  1  0
 68 72  1  0
 69 68  1  0
 70 71  1  0
 70 69  1  0
 71 67  1  0
 72 73  2  0
 73 74  1  0
 75 74  2  0
 76 75  1  0
 77 51  1  0
 77 78  1  0
 77 87  1  0
 78 81  1  0
 79 83  1  0
 79 78  1  0
 80 79  2  0
 83 82  1  0
 83 85  1  0
 85 86  1  0
 85 84  1  0
 87 90  1  1
 87 88  1  0
 89 87  1  0
 91 93  1  0
 91 95  1  0
 92 93  1  0
 95 94  1  0
M  ISO  4   8 100  17 100  49 101  50 101
M  END
>  <TORSDO>  (90) 
F 22

>  <SCORE>  (90) 
-8.632

>  <name>  (90) 
90

>  <ligand_id>  (90) 
90

>  <original_smiles>  (90) 
[H]c1c([H])c([H])c2c(c1[H])C([H])([H])C([H])([H])C([H])([H])C2([H])N([H])C(=O)C1([H])N(C(=O)C([H])(N([H])C(=O)C([H])(N([H])C([H])([H])[H])C([H])([H])[H])C(C([H])([H])[H])(C([H])([H])[H])C([H])([H])[H])C([H])([H])c2c([H])c(OC([H])([H])C([H])([H])N([H])c3c([H])c(N(C(=O)N4C([H])([H])C([H])([H])C([H])([H])C([H])(n5nc(-c6c([H])c([H])c(Oc7c([H])c([H])c(F)c([H])c7F)c([H])c6[H])c(C(=O)N([H])[H])c5N([H])[H])C4([H])[H])C([H])([H])[H])c(Cl)c([H])c3N(C([H])([H])C([H])([H])[H])C([H])([H])C([H])([H])[H])c([H])c([H])c2C1([H])[H]

>  <smiles>  (90) 
[H]c1c([H])c([H])c2c(c1[H])C([H])([H])C([H])([H])C([H])([H])C2([H])N([H])C(=O)C1([H])N(C(=O)C([H])(N([H])C(=O)C([H])(N([H])C([H])([H])[H])C([H])([H])[H])C(C([H])([H])[H])(C([H])([H])[H])C([H])([H])[H])C([H])([H])c2c([H])c(OC([H])([H])C([H])([H])N([H])c3c([H])c(N(C(=O)N4C([H])([H])C([H])([H])C([H])([H])C([H])(n5nc(-c6c([H])c([H])c(Oc7c([H])c([H])c(F)c([H])c7F)c([H])c6[H])c(C(=O)N([H])[H])c5N([H])[H])C4([H])[H])C([H])([H])[H])c(Cl)c([H])c3N(C([H])([H])C([H])([H])[H])C([H])([H])C([H])([H])[H])c([H])c([H])c2C1([H])[H]

$$$$
91:0:0
     RDKit          3D

 92100  0  0  1  0  0  0  0  0999 V2000
  -28.4110  -21.1860   20.4780 C   0  0  0  0  0  3  0  0  0  0  0  0
  -30.6290  -21.6360   19.8770 C   0  0  0  0  0  3  0  0  0  0  0  0
  -29.9690  -19.1720   20.0650 C   0  0  0  0  0  0  0  0  0  0  0  0
  -29.3750  -22.2350   20.2330 C   0  0  0  0  0  0  0  0  0  0  0  0
  -28.6840  -19.7450   20.3980 C   0  0  0  0  0  0  0  0  0  0  0  0
  -30.9120  -20.2240   19.7940 C   0  0  0  0  0  0  0  0  0  0  0  0
  -27.6510  -18.8990   20.6260 F   0  0  0  0  0  0  0  0  0  0  0  0
  -32.5180  -19.8220   19.2910 Cl  0  0  0  0  0  0  0  0  0  0  0  0
  -28.0420  -24.6410   20.3030 C   0  0  0  0  0  0  0  0  0  0  0  0
  -30.5040  -24.5060   20.4650 C   0  0  0  0  0  1  0  0  0  0  0  0
  -29.2330  -23.7770   20.3350 N   0  0  0  0  0  0  0  0  0  0  0  0
  -26.9100  -24.1530   20.3190 O   0  0  0  0  0  0  0  0  0  0  0  0
  -28.2550  -26.1860   20.2750 O   0  0  0  0  0  0  0  0  0  0  0  0
  -24.6310  -31.8830   23.2320 C   0  0  0  0  0  0  0  0  0  0  0  0
  -27.2060  -27.1750   20.2020 C   0  0  0  0  0  0  0  0  0  0  0  0
  -23.4290  -30.4850   21.5950 C   0  0  0  0  0  3  0  0  0  0  0  0
  -24.8770  -28.9140   20.1700 C   0  0  0  0  0  0  0  0  0  0  0  0
  -25.9830  -30.7500   21.4330 C   0  0  0  0  0  2  0  0  0  0  0  0
  -26.0540  -29.3580   20.7870 C   0  0  0  0  0  0  0  0  0  0  0  0
  -27.2160  -28.4990   20.7970 C   0  0  0  0  0  3  0  0  0  0  0  0
  -26.0090  -26.8470   19.5260 C   0  0  0  0  0  3  0  0  0  0  0  0
  -24.8660  -27.6700   19.5250 C   0  0  0  0  0  3  0  0  0  0  0  0
  -23.6480  -29.8090   20.2170 C   0  0  0  0  0  2  0  0  0  0  0  0
  -24.7000  -31.0610   22.1400 N   0  0  0  0  0  0  0  0  0  0  0  0
  -23.5450  -32.1680   23.7600 O   0  0  0  0  0  0  0  0  0  0  0  0
  -22.7530  -29.4770   22.5590 C   0  0  0  0  0  0  0  0  0  0  0  0
  -21.4240  -29.3090   22.4360 N   0  0  0  0  0  0  0  0  0  0  0  0
  -23.4260  -28.8500   23.3810 O   0  0  0  0  0  0  0  0  0  0  0  0
  -20.9380  -29.8660   21.7480 H   0  0  0  0  0  0  0  0  0  0  0  0
  -18.0430  -28.1160   22.9500 C   0  0  0  0  0  0  0  0  0  0  0  0
  -20.6030  -28.3750   23.2110 C   0  0  0  0  0  3  0  0  0  0  0  0
  -20.7010  -26.9410   22.6400 C   0  0  0  0  0  2  0  0  0  0  0  0
  -19.5970  -26.6170   21.6290 C   0  0  0  0  0  2  0  0  0  0  0  0
  -18.2160  -26.7650   22.2750 C   0  0  0  0  0  2  0  0  0  0  0  0
  -19.1640  -28.8780   23.3750 C   0  0  0  0  0  0  0  0  0  0  0  0
  -18.9470  -30.1400   23.9680 C   0  0  0  0  0  3  0  0  0  0  0  0
  -17.6430  -30.6420   24.1380 C   0  0  0  0  0  3  0  0  0  0  0  0
  -16.5380  -29.8780   23.7270 C   0  0  0  0  0  3  0  0  0  0  0  0
  -16.7370  -28.6160   23.1390 C   0  0  0  0  0  3  0  0  0  0  0  0
  -25.9100  -32.5200   23.8550 C   0  0  0  0  0  3  0  0  0  0  0  0
  -25.5970  -33.9170   24.1890 N   0  0  0  0  0  0  0  0  0  0  0  0
  -25.9160  -34.9740   23.4300 C   0  0  0  0  0  0  0  0  0  0  0  0
  -26.5720  -34.8750   22.3900 O   0  0  0  0  0  0  0  0  0  0  0  0
  -25.0140  -34.0680   24.9990 H   0  0  0  0  0  0  0  0  0  0  0  0
  -24.1700  -36.7590   23.1170 C   0  0  0  0  0  1  0  0  0  0  0  0
  -25.4330  -36.3620   23.8980 C   0  0  0  0  0  3  0  0  0  0  0  0
  -27.5810  -37.2600   24.6770 C   0  0  0  0  0  1  0  0  0  0  0  0
  -26.4560  -37.4200   23.7600 N   0  0  0  0  0  0  0  0  0  0  0  0
  -26.0480  -38.3390   23.9160 H   0  0  0  0  0  0  0  0  0  0  0  0
  -26.4230  -31.7500   25.1350 C   0  0  1  0  0  0  0  0  0  0  0  0
  -25.3280  -31.5160   26.2010 C   0  0  0  0  0  1  0  0  0  0  0  0
  -27.0060  -30.3710   24.7520 C   0  0  0  0  0  1  0  0  0  0  0  0
  -27.5740  -32.5450   25.7960 C   0  0  0  0  0  1  0  0  0  0  0  0
  -30.4400  -17.5930   19.8190 C   0  0  0  0  0  2  0  0  0  0  0  0
  -30.6220  -14.9510   20.0330 C   0  0  0  0  0  0  0  0  0  0  0  0
  -30.3600  -12.6730   18.9510 C   0  0  0  0  0  2  0  0  0  0  0  0
  -29.3470  -12.7120   17.7840 C   0  0  0  0  0  2  0  0  0  0  0  0
  -27.9110  -12.5000   18.3000 C   0  0  0  0  0  2  0  0  0  0  0  0
  -27.6050  -13.3530   19.5580 C   0  0  0  0  0  3  0  0  0  0  0  0
  -28.7350  -13.2480   20.6040 C   0  0  0  0  0  2  0  0  0  0  0  0
  -29.9660  -13.7160   19.9460 N   0  0  0  0  0  0  0  0  0  0  0  0
  -31.7690  -14.9850   19.5730 O   0  0  0  0  0  0  0  0  0  0  0  0
  -29.1240  -16.3010   21.5310 C   0  0  0  0  0  1  0  0  0  0  0  0
  -29.9630  -16.1880   20.3390 N   0  0  0  0  0  0  0  0  0  0  0  0
  -25.2710  -13.9110   20.4490 C   0  0  0  0  0  0  0  0  0  0  0  0
  -24.2320  -13.1250   20.8640 C   0  0  0  0  0  0  0  0  0  0  0  0
  -24.6940  -11.7770   20.7720 C   0  0  0  0  0  0  0  0  0  0  0  0
  -26.2990  -13.0410   20.1260 N   0  0  0  0  0  0  0  0  0  0  0  0
  -25.9640  -11.7500   20.3840 N   0  0  0  0  0  0  0  0  0  0  0  0
  -23.9800  -10.5090   20.9740 C   0  0  0  0  0  0  0  0  0  0  0  0
  -24.4440   -9.5370   21.8860 C   0  0  0  0  0  3  0  0  0  0  0  0
  -23.7290   -8.3350   22.0780 C   0  0  0  0  0  3  0  0  0  0  0  0
  -22.5340   -8.0980   21.3570 C   0  0  0  0  0  0  0  0  0  0  0  0
  -22.0890   -9.0590   20.4340 C   0  0  0  0  0  3  0  0  0  0  0  0
  -22.8040  -10.2520   20.2400 C   0  0  0  0  0  3  0  0  0  0  0  0
  -21.7860   -6.9500   21.4600 O   0  0  0  0  0  0  0  0  0  0  0  0
  -21.7400   -6.2220   22.6220 C   0  0  0  0  0  0  0  0  0  0  0  0
  -21.3180   -6.7920   23.8420 C   0  0  0  0  0  3  0  0  0  0  0  0
  -21.2190   -5.9900   24.9970 C   0  0  0  0  0  3  0  0  0  0  0  0
  -21.5340   -4.6190   24.9320 C   0  0  0  0  0  0  0  0  0  0  0  0
  -21.9500   -4.0490   23.7170 C   0  0  0  0  0  3  0  0  0  0  0  0
  -22.0500   -4.8470   22.5640 C   0  0  0  0  0  0  0  0  0  0  0  0
  -22.4310   -4.2880   21.3910 F   0  0  0  0  0  0  0  0  0  0  0  0
  -21.4320   -3.8470   26.0400 F   0  0  0  0  0  0  0  0  0  0  0  0
  -22.8540  -13.5950   21.2310 C   0  0  0  0  0  0  0  0  0  0  0  0
  -22.1820  -12.8800   22.1270 N   0  0  0  0  0  0  0  0  0  0  0  0
  -22.3840  -14.6290   20.7580 O   0  0  0  0  0  0  0  0  0  0  0  0
  -22.5760  -12.0440   22.5290 H   0  0  0  0  0  0  0  0  0  0  0  0
  -21.2600  -13.1750   22.4140 H   0  0  0  0  0  0  0  0  0  0  0  0
  -25.4230  -15.2860   20.2960 N   0  0  0  0  0  0  0  0  0  0  0  0
  -24.6690  -15.9370   20.4860 H   0  0  0  0  0  0  0  0  0  0  0  0
  -26.2560  -15.7390   19.9450 H   0  0  0  0  0  0  0  0  0  0  0  0
  2  4  1  0
  3  5  2  0
  4 11  1  0
  4  1  2  0
  5  1  1  0
  5  7  1  0
  6  2  2  0
  6  3  1  0
  8  6  1  0
  9 12  2  0
  9 11  1  0
 11 10  1  0
 13  9  1  0
 14 25  2  0
 15 13  1  0
 15 20  1  0
 16 24  1  0
 16 26  1  0
 17 23  1  0
 17 19  1  0
 18 24  1  0
 19 20  2  0
 19 18  1  0
 21 15  2  0
 22 21  1  0
 22 17  2  0
 23 16  1  0
 24 14  1  0
 26 28  2  0
 27 26  1  0
 29 27  1  0
 30 39  2  0
 30 35  1  0
 31 27  1  0
 31 35  1  0
 32 31  1  0
 33 34  1  0
 33 32  1  0
 34 30  1  0
 35 36  2  0
 36 37  1  0
 38 37  2  0
 39 38  1  0
 40 14  1  0
 40 41  1  0
 40 50  1  0
 41 44  1  0
 42 46  1  0
 42 41  1  0
 43 42  2  0
 46 45  1  0
 48 46  1  0
 48 49  1  0
 48 47  1  0
 50 53  1  1
 50 51  1  0
 52 50  1  0
 54  3  1  0
 54 64  1  0
 55 64  1  0
 56 61  1  0
 57 58  1  0
 57 56  1  0
 59 58  1  0
 59 68  1  0
 59 60  1  0
 61 55  1  0
 61 60  1  0
 62 55  2  0
 64 63  1  0
 65 66  2  0
 66 85  1  0
 67 66  1  0
 67 70  1  0
 68 69  1  0
 68 65  1  0
 69 67  2  0
 70 71  1  0
 71 72  2  0
 73 76  1  0
 73 72  1  0
 74 73  2  0
 75 74  1  0
 75 70  2  0
 76 77  1  0
 77 78  1  0
 78 79  2  0
 80 79  1  0
 80 84  1  0
 81 80  2  0
 82 77  2  0
 82 81  1  0
 83 82  1  0
 85 86  1  0
 86 89  1  0
 86 88  1  0
 87 85  2  0
 90 65  1  0
 90 91  1  0
 92 90  1  0
M  ISO  4   9 101  13 101  55 100  64 100
M  END
>  <TORSDO>  (91) 
F 18

>  <SCORE>  (91) 
-14.510

>  <name>  (91) 
91

>  <ligand_id>  (91) 
91

>  <original_smiles>  (91) 
[H]c1c([H])c([H])c2c(c1[H])C([H])([H])C([H])([H])C([H])([H])C2([H])N([H])C(=O)C1([H])N(C(=O)C([H])(N([H])C(=O)C([H])(N([H])C([H])([H])[H])C([H])([H])[H])C(C([H])([H])[H])(C([H])([H])[H])C([H])([H])[H])C([H])([H])c2c([H])c(OC(=O)N(c3c([H])c(F)c(C([H])([H])N(C(=O)N4C([H])([H])C([H])([H])C([H])([H])C([H])(n5nc(-c6c([H])c([H])c(Oc7c([H])c([H])c(F)c([H])c7F)c([H])c6[H])c(C(=O)N([H])[H])c5N([H])[H])C4([H])[H])C([H])([H])[H])c(Cl)c3[H])C([H])([H])[H])c([H])c([H])c2C1([H])[H]

>  <smiles>  (91) 
[H]c1c([H])c([H])c2c(c1[H])C([H])([H])C([H])([H])C([H])([H])C2([H])N([H])C(=O)C1([H])N(C(=O)C([H])(N([H])C(=O)C([H])(N([H])C([H])([H])[H])C([H])([H])[H])C(C([H])([H])[H])(C([H])([H])[H])C([H])([H])[H])C([H])([H])c2c([H])c(OC(=O)N(c3c([H])c(F)c(C([H])([H])N(C(=O)N4C([H])([H])C([H])([H])C([H])([H])C([H])(n5nc(-c6c([H])c([H])c(Oc7c([H])c([H])c(F)c([H])c7F)c([H])c6[H])c(C(=O)N([H])[H])c5N([H])[H])C4([H])[H])C([H])([H])[H])c(Cl)c3[H])C([H])([H])[H])c([H])c([H])c2C1([H])[H]

$$$$
92:0:0
     RDKit          3D

 91 99  0  0  1  0  0  0  0  0999 V2000
  -29.9210  -21.5280   20.5150 N   0  0  0  0  0  0  0  0  0  0  0  0
  -30.8700  -21.8920   20.4630 H   0  0  0  0  0  0  0  0  0  0  0  0
  -28.6440  -17.9250   20.5540 C   0  0  0  0  0  3  0  0  0  0  0  0
  -28.6320  -19.3530   20.5230 C   0  0  0  0  0  3  0  0  0  0  0  0
  -31.0480  -17.9130   20.4490 C   0  0  0  0  0  3  0  0  0  0  0  0
  -29.8460  -17.1630   20.5210 C   0  0  0  0  0  0  0  0  0  0  0  0
  -29.8360  -20.0970   20.4830 C   0  0  0  0  0  0  0  0  0  0  0  0
  -31.0390  -19.3400   20.4380 C   0  0  0  0  0  0  0  0  0  0  0  0
  -32.2200  -20.0020   20.3870 F   0  0  0  0  0  0  0  0  0  0  0  0
  -30.5840  -14.6810   20.2080 C   0  0  0  0  0  0  0  0  0  0  0  0
  -30.3520  -12.4680   19.1010 C   0  0  0  0  0  2  0  0  0  0  0  0
  -29.3610  -12.6350   17.9260 C   0  0  0  0  0  2  0  0  0  0  0  0
  -27.9010  -12.4740   18.4040 C   0  0  0  0  0  2  0  0  0  0  0  0
  -27.5940  -13.3030   19.6790 C   0  0  0  0  0  3  0  0  0  0  0  0
  -28.6920  -13.0980   20.7460 C   0  0  0  0  0  2  0  0  0  0  0  0
  -29.9810  -13.4550   20.1330 N   0  0  0  0  0  0  0  0  0  0  0  0
  -31.7320  -14.8630   19.7900 O   0  0  0  0  0  0  0  0  0  0  0  0
  -29.7560  -15.7070   20.5930 N   0  0  0  0  0  0  0  0  0  0  0  0
  -28.8540  -15.3640   20.8800 H   0  0  0  0  0  0  0  0  0  0  0  0
  -25.2340  -13.9010   20.5030 C   0  0  0  0  0  0  0  0  0  0  0  0
  -24.1770  -13.1260   20.8990 C   0  0  0  0  0  0  0  0  0  0  0  0
  -24.6290  -11.7730   20.8170 C   0  0  0  0  0  0  0  0  0  0  0  0
  -26.2620  -13.0200   20.2060 N   0  0  0  0  0  0  0  0  0  0  0  0
  -25.9050  -11.7330   20.4500 N   0  0  0  0  0  0  0  0  0  0  0  0
  -23.9020  -10.5110   21.0020 C   0  0  0  0  0  0  0  0  0  0  0  0
  -24.3340   -9.5410   21.9330 C   0  0  0  0  0  3  0  0  0  0  0  0
  -23.6090   -8.3420   22.1080 C   0  0  0  0  0  3  0  0  0  0  0  0
  -22.4370   -8.1060   21.3500 C   0  0  0  0  0  0  0  0  0  0  0  0
  -22.0240   -9.0650   20.4080 C   0  0  0  0  0  3  0  0  0  0  0  0
  -22.7510  -10.2530   20.2330 C   0  0  0  0  0  3  0  0  0  0  0  0
  -21.6840   -6.9590   21.4320 O   0  0  0  0  0  0  0  0  0  0  0  0
  -21.5870   -6.2450   22.5980 C   0  0  0  0  0  0  0  0  0  0  0  0
  -21.0730   -6.8160   23.7840 C   0  0  0  0  0  3  0  0  0  0  0  0
  -20.9300   -6.0240   24.9410 C   0  0  0  0  0  3  0  0  0  0  0  0
  -21.2870   -4.6640   24.9140 C   0  0  0  0  0  0  0  0  0  0  0  0
  -21.7950   -4.0920   23.7340 C   0  0  0  0  0  3  0  0  0  0  0  0
  -21.9420   -4.8810   22.5790 C   0  0  0  0  0  0  0  0  0  0  0  0
  -22.4120   -4.3210   21.4390 F   0  0  0  0  0  0  0  0  0  0  0  0
  -21.1410   -3.9010   26.0230 F   0  0  0  0  0  0  0  0  0  0  0  0
  -22.7950  -13.6040   21.2350 C   0  0  0  0  0  0  0  0  0  0  0  0
  -22.0950  -12.8940   22.1130 N   0  0  0  0  0  0  0  0  0  0  0  0
  -22.3440  -14.6430   20.7560 O   0  0  0  0  0  0  0  0  0  0  0  0
  -22.4710  -12.0540   22.5270 H   0  0  0  0  0  0  0  0  0  0  0  0
  -21.1680  -13.1960   22.3760 H   0  0  0  0  0  0  0  0  0  0  0  0
  -25.3960  -15.2750   20.3510 N   0  0  0  0  0  0  0  0  0  0  0  0
  -24.6200  -15.9140   20.4890 H   0  0  0  0  0  0  0  0  0  0  0  0
  -26.1950  -15.7140   19.9140 H   0  0  0  0  0  0  0  0  0  0  0  0
  -28.8190  -22.5000   20.2830 C   0  0  0  0  0  2  0  0  0  0  0  0
  -29.2120  -24.0390   20.4150 C   0  0  0  0  0  3  0  0  0  0  0  0
  -28.0780  -25.0890   20.0710 C   0  0  0  0  0  3  0  0  0  0  0  0
  -28.3220  -26.5390   20.2230 O   0  0  0  0  0  0  0  0  0  0  0  0
  -24.5630  -31.8870   23.2470 C   0  0  0  0  0  0  0  0  0  0  0  0
  -27.2010  -27.3810   20.1620 C   0  0  0  0  0  0  0  0  0  0  0  0
  -23.3680  -30.5020   21.5870 C   0  0  0  0  0  3  0  0  0  0  0  0
  -24.8300  -28.9750   20.1500 C   0  0  0  0  0  0  0  0  0  0  0  0
  -25.9060  -30.8330   21.4170 C   0  0  0  0  0  2  0  0  0  0  0  0
  -25.9930  -29.4640   20.7580 C   0  0  0  0  0  0  0  0  0  0  0  0
  -27.1820  -28.6780   20.7560 C   0  0  0  0  0  3  0  0  0  0  0  0
  -26.0150  -26.9470   19.5220 C   0  0  0  0  0  3  0  0  0  0  0  0
  -24.8420  -27.7220   19.5230 C   0  0  0  0  0  3  0  0  0  0  0  0
  -23.5890  -29.8420   20.2000 C   0  0  0  0  0  2  0  0  0  0  0  0
  -24.6310  -31.0900   22.1400 N   0  0  0  0  0  0  0  0  0  0  0  0
  -23.4780  -32.1570   23.7790 O   0  0  0  0  0  0  0  0  0  0  0  0
  -22.7070  -29.4720   22.5330 C   0  0  0  0  0  0  0  0  0  0  0  0
  -21.3810  -29.2960   22.4020 N   0  0  0  0  0  0  0  0  0  0  0  0
  -23.3850  -28.8360   23.3440 O   0  0  0  0  0  0  0  0  0  0  0  0
  -20.8950  -29.8650   21.7230 H   0  0  0  0  0  0  0  0  0  0  0  0
  -17.9960  -28.1290   22.9080 C   0  0  0  0  0  0  0  0  0  0  0  0
  -20.5590  -28.3530   23.1600 C   0  0  0  0  0  3  0  0  0  0  0  0
  -20.6390  -26.9320   22.5550 C   0  0  0  0  0  2  0  0  0  0  0  0
  -19.5240  -26.6430   21.5440 C   0  0  0  0  0  2  0  0  0  0  0  0
  -18.1500  -26.7910   22.2040 C   0  0  0  0  0  2  0  0  0  0  0  0
  -19.1280  -28.8690   23.3430 C   0  0  0  0  0  0  0  0  0  0  0  0
  -18.9290  -30.1230   23.9630 C   0  0  0  0  0  3  0  0  0  0  0  0
  -17.6320  -30.6340   24.1510 C   0  0  0  0  0  3  0  0  0  0  0  0
  -16.5150  -29.8910   23.7330 C   0  0  0  0  0  3  0  0  0  0  0  0
  -16.6980  -28.6400   23.1160 C   0  0  0  0  0  3  0  0  0  0  0  0
  -25.8440  -32.5140   23.8800 C   0  0  0  0  0  3  0  0  0  0  0  0
  -26.3460  -31.7420   25.1610 C   0  0  1  0  0  0  0  0  0  0  0  0
  -25.2400  -31.5040   26.2150 C   0  0  0  0  0  1  0  0  0  0  0  0
  -26.9360  -30.3660   24.7750 C   0  0  0  0  0  1  0  0  0  0  0  0
  -27.4860  -32.5380   25.8400 C   0  0  0  0  0  1  0  0  0  0  0  0
  -25.5370  -33.9140   24.2060 N   0  0  0  0  0  0  0  0  0  0  0  0
  -25.8530  -34.9630   23.4330 C   0  0  0  0  0  0  0  0  0  0  0  0
  -26.5060  -34.8540   22.3910 O   0  0  0  0  0  0  0  0  0  0  0  0
  -24.9580  -34.0710   25.0180 H   0  0  0  0  0  0  0  0  0  0  0  0
  -24.1080  -36.7450   23.1080 C   0  0  0  0  0  1  0  0  0  0  0  0
  -25.3700  -36.3520   23.8920 C   0  0  0  0  0  3  0  0  0  0  0  0
  -27.5150  -37.2600   24.6700 C   0  0  0  0  0  1  0  0  0  0  0  0
  -26.3940  -37.4100   23.7460 N   0  0  0  0  0  0  0  0  0  0  0  0
  -25.9850  -38.3290   23.8890 H   0  0  0  0  0  0  0  0  0  0  0  0
  2  1  1  0
  4  3  1  0
  5  6  1  0
  6  3  2  0
  6 18  1  0
  7  1  1  0
  7  4  2  0
  8  5  2  0
  8  7  1  0
  9  8  1  0
 10 18  1  0
 11 16  1  0
 12 13  1  0
 12 11  1  0
 14 13  1  0
 14 23  1  0
 14 15  1  0
 16 10  1  0
 16 15  1  0
 17 10  2  0
 18 19  1  0
 20 21  2  0
 21 40  1  0
 22 21  1  0
 22 25  1  0
 23 24  1  0
 23 20  1  0
 24 22  2  0
 25 26  1  0
 26 27  2  0
 28 31  1  0
 28 27  1  0
 29 28  2  0
 30 29  1  0
 30 25  2  0
 31 32  1  0
 32 33  1  0
 33 34  2  0
 35 34  1  0
 35 39  1  0
 36 35  2  0
 37 32  2  0
 37 36  1  0
 38 37  1  0
 40 41  1  0
 41 44  1  0
 41 43  1  0
 42 40  2  0
 45 46  1  0
 45 20  1  0
 47 45  1  0
 48 49  1  0
 48  1  1  0
 50 51  1  0
 50 49  2  0
 52 63  2  0
 53 51  1  0
 53 58  1  0
 54 62  1  0
 54 64  1  0
 55 61  1  0
 55 57  1  0
 56 62  1  0
 57 56  1  0
 58 57  2  0
 59 60  1  0
 59 53  2  0
 60 55  2  0
 61 54  1  0
 62 52  1  0
 64 66  2  0
 65 64  1  0
 67 65  1  0
 68 77  2  0
 68 73  1  0
 69 65  1  0
 69 73  1  0
 70 69  1  0
 71 72  1  0
 71 70  1  0
 72 68  1  0
 73 74  2  0
 74 75  1  0
 76 75  2  0
 77 76  1  0
 78 52  1  0
 78 83  1  0
 78 79  1  0
 79 82  1  1
 79 80  1  0
 81 79  1  0
 83 86  1  0
 84 88  1  0
 84 83  1  0
 85 84  2  0
 88 87  1  0
 90 91  1  0
 90 88  1  0
 90 89  1  0
M  ISO  4  10 100  18 100  50 101  51 101
M  END
>  <TORSDO>  (92) 
F 20

>  <SCORE>  (92) 
-13.925

>  <name>  (92) 
92

>  <ligand_id>  (92) 
92

>  <original_smiles>  (92) 
[H]c1c([H])c([H])c2c(c1[H])C([H])([H])C([H])([H])C([H])([H])C2([H])N([H])C(=O)C1([H])N(C(=O)C([H])(N([H])C(=O)C([H])(N([H])C([H])([H])[H])C([H])([H])[H])C(C([H])([H])[H])(C([H])([H])[H])C([H])([H])[H])C([H])([H])c2c([H])c(OC([H])([H])C([H])([H])C([H])([H])N([H])c3c([H])c([H])c(N([H])C(=O)N4C([H])([H])C([H])([H])C([H])([H])C([H])(n5nc(-c6c([H])c([H])c(Oc7c([H])c([H])c(F)c([H])c7F)c([H])c6[H])c(C(=O)N([H])[H])c5N([H])[H])C4([H])[H])c([H])c3F)c([H])c([H])c2C1([H])[H]

>  <smiles>  (92) 
[H]c1c([H])c([H])c2c(c1[H])C([H])([H])C([H])([H])C([H])([H])C2([H])N([H])C(=O)C1([H])N(C(=O)C([H])(N([H])C(=O)C([H])(N([H])C([H])([H])[H])C([H])([H])[H])C(C([H])([H])[H])(C([H])([H])[H])C([H])([H])[H])C([H])([H])c2c([H])c(OC([H])([H])C([H])([H])C([H])([H])N([H])c3c([H])c([H])c(N([H])C(=O)N4C([H])([H])C([H])([H])C([H])([H])C([H])(n5nc(-c6c([H])c([H])c(Oc7c([H])c([H])c(F)c([H])c7F)c([H])c6[H])c(C(=O)N([H])[H])c5N([H])[H])C4([H])[H])c([H])c3F)c([H])c([H])c2C1([H])[H]

$$$$
93:0:0
     RDKit          3D

 91 99  0  0  1  0  0  0  0  0999 V2000
  -28.6920  -23.3230   19.9570 C   0  0  0  0  0  0  0  0  0  0  0  0
  -27.9830  -21.8840   21.8280 C   0  0  0  0  0  1  0  0  0  0  0  0
  -28.6370  -21.9820   20.5160 N   0  0  0  0  0  0  0  0  0  0  0  0
  -29.3060  -23.4740   18.8960 O   0  0  0  0  0  0  0  0  0  0  0  0
  -29.0430  -20.4970   19.9740 C   0  0  0  0  0  2  0  0  0  0  0  0
  -31.7050  -19.6370   22.5860 C   0  0  0  0  0  3  0  0  0  0  0  0
  -31.8790  -18.2650   22.6790 C   0  0  0  0  0  3  0  0  0  0  0  0
  -30.7720  -20.1470   21.6820 C   0  0  0  0  0  3  0  0  0  0  0  0
  -31.1460  -17.4170   21.8400 C   0  0  0  0  0  3  0  0  0  0  0  0
  -29.9660  -19.3720   20.8000 C   0  0  0  0  0  0  0  0  0  0  0  0
  -30.2240  -17.8370   20.8300 C   0  0  0  0  0  0  0  0  0  0  0  0
  -30.4180  -15.2610   19.9220 C   0  0  0  0  0  0  0  0  0  0  0  0
  -30.2310  -12.9060   18.9320 C   0  0  0  0  0  2  0  0  0  0  0  0
  -29.2140  -12.8250   17.7700 C   0  0  0  0  0  2  0  0  0  0  0  0
  -27.8040  -12.5320   18.3130 C   0  0  0  0  0  2  0  0  0  0  0  0
  -27.4520  -13.4310   19.5240 C   0  0  0  0  0  3  0  0  0  0  0  0
  -28.5900  -13.5300   20.5660 C   0  0  0  0  0  2  0  0  0  0  0  0
  -29.7870  -14.0010   19.8540 N   0  0  0  0  0  0  0  0  0  0  0  0
  -31.6180  -15.2410   19.6280 O   0  0  0  0  0  0  0  0  0  0  0  0
  -28.5520  -16.7700   19.2620 C   0  0  0  0  0  1  0  0  0  0  0  0
  -29.7340  -16.5500   20.0900 N   0  0  0  0  0  0  0  0  0  0  0  0
  -25.1440  -13.9300   20.4900 C   0  0  0  0  0  0  0  0  0  0  0  0
  -24.1280  -13.1190   20.9070 C   0  0  0  0  0  0  0  0  0  0  0  0
  -24.6110  -11.7800   20.7860 C   0  0  0  0  0  0  0  0  0  0  0  0
  -26.1760  -13.0820   20.1270 N   0  0  0  0  0  0  0  0  0  0  0  0
  -25.8740  -11.7810   20.3740 N   0  0  0  0  0  0  0  0  0  0  0  0
  -23.9210  -10.4970   20.9750 C   0  0  0  0  0  0  0  0  0  0  0  0
  -24.3880   -9.5360   21.8970 C   0  0  0  0  0  3  0  0  0  0  0  0
  -23.6930   -8.3200   22.0760 C   0  0  0  0  0  3  0  0  0  0  0  0
  -22.5170   -8.0590   21.3340 C   0  0  0  0  0  0  0  0  0  0  0  0
  -22.0740   -9.0060   20.3960 C   0  0  0  0  0  3  0  0  0  0  0  0
  -22.7690  -10.2130   20.2120 C   0  0  0  0  0  3  0  0  0  0  0  0
  -21.7910   -6.8960   21.4260 O   0  0  0  0  0  0  0  0  0  0  0  0
  -21.7180   -6.1830   22.5950 C   0  0  0  0  0  0  0  0  0  0  0  0
  -21.2080   -6.7530   23.7820 C   0  0  0  0  0  3  0  0  0  0  0  0
  -21.0960   -5.9680   24.9460 C   0  0  0  0  0  3  0  0  0  0  0  0
  -21.4710   -4.6110   24.9190 C   0  0  0  0  0  0  0  0  0  0  0  0
  -21.9670   -4.0390   23.7350 C   0  0  0  0  0  3  0  0  0  0  0  0
  -22.0910   -4.8230   22.5740 C   0  0  0  0  0  0  0  0  0  0  0  0
  -22.5530   -4.2640   21.4300 F   0  0  0  0  0  0  0  0  0  0  0  0
  -21.3520   -3.8510   26.0350 F   0  0  0  0  0  0  0  0  0  0  0  0
  -22.7480  -13.5600   21.2960 C   0  0  0  0  0  0  0  0  0  0  0  0
  -22.0960  -12.8200   22.1850 N   0  0  0  0  0  0  0  0  0  0  0  0
  -22.2570  -14.5960   20.8480 O   0  0  0  0  0  0  0  0  0  0  0  0
  -22.5160  -11.9950   22.5820 H   0  0  0  0  0  0  0  0  0  0  0  0
  -21.1650  -13.0830   22.4750 H   0  0  0  0  0  0  0  0  0  0  0  0
  -25.2660  -15.3100   20.3600 N   0  0  0  0  0  0  0  0  0  0  0  0
  -24.4960  -15.9380   20.5680 H   0  0  0  0  0  0  0  0  0  0  0  0
  -26.0660  -15.7840   19.9640 H   0  0  0  0  0  0  0  0  0  0  0  0
  -27.9350  -24.7170   20.5660 C   0  0  0  0  0  2  0  0  0  0  0  0
  -28.1960  -26.2260   20.1310 O   0  0  0  0  0  0  0  0  0  0  0  0
  -24.6210  -31.9810   23.2580 C   0  0  0  0  0  0  0  0  0  0  0  0
  -27.1560  -27.2510   20.1440 C   0  0  0  0  0  0  0  0  0  0  0  0
  -23.4080  -30.6090   21.6100 C   0  0  0  0  0  3  0  0  0  0  0  0
  -24.8430  -29.0470   20.1480 C   0  0  0  0  0  0  0  0  0  0  0  0
  -25.9640  -30.8590   21.4300 C   0  0  0  0  0  2  0  0  0  0  0  0
  -26.0320  -29.4690   20.7570 C   0  0  0  0  0  0  0  0  0  0  0  0
  -27.1880  -28.5900   20.7310 C   0  0  0  0  0  3  0  0  0  0  0  0
  -25.9380  -26.9460   19.4960 C   0  0  0  0  0  3  0  0  0  0  0  0
  -24.8120  -27.8040   19.4990 C   0  0  0  0  0  3  0  0  0  0  0  0
  -23.6190  -29.9510   20.2190 C   0  0  0  0  0  2  0  0  0  0  0  0
  -24.6850  -31.1710   22.1540 N   0  0  0  0  0  0  0  0  0  0  0  0
  -23.5370  -32.2570   23.7970 O   0  0  0  0  0  0  0  0  0  0  0  0
  -22.7350  -29.5900   22.5630 C   0  0  0  0  0  0  0  0  0  0  0  0
  -21.4060  -29.4120   22.4340 N   0  0  0  0  0  0  0  0  0  0  0  0
  -23.4070  -28.9620   23.3830 O   0  0  0  0  0  0  0  0  0  0  0  0
  -20.9200  -29.9720   21.7490 H   0  0  0  0  0  0  0  0  0  0  0  0
  -18.0340  -28.1670   22.9120 C   0  0  0  0  0  0  0  0  0  0  0  0
  -20.5890  -28.4610   23.1930 C   0  0  0  0  0  3  0  0  0  0  0  0
  -20.7110  -27.0330   22.6100 C   0  0  0  0  0  2  0  0  0  0  0  0
  -19.6170  -26.7030   21.5900 C   0  0  0  0  0  2  0  0  0  0  0  0
  -18.2310  -26.8260   22.2270 C   0  0  0  0  0  2  0  0  0  0  0  0
  -19.1410  -28.9440   23.3510 C   0  0  0  0  0  0  0  0  0  0  0  0
  -18.9000  -30.1990   23.9510 C   0  0  0  0  0  3  0  0  0  0  0  0
  -17.5870  -30.6770   24.1180 C   0  0  0  0  0  3  0  0  0  0  0  0
  -16.4950  -29.8990   23.6940 C   0  0  0  0  0  3  0  0  0  0  0  0
  -16.7210  -28.6450   23.0980 C   0  0  0  0  0  3  0  0  0  0  0  0
  -25.9020  -32.6080   23.8870 C   0  0  0  0  0  3  0  0  0  0  0  0
  -26.4190  -31.8220   25.1550 C   0  0  1  0  0  0  0  0  0  0  0  0
  -25.3290  -31.5690   26.2240 C   0  0  0  0  0  1  0  0  0  0  0  0
  -27.0010  -30.4500   24.7470 C   0  0  0  0  0  1  0  0  0  0  0  0
  -27.5730  -32.6080   25.8200 C   0  0  0  0  0  1  0  0  0  0  0  0
  -25.5940  -34.0040   24.2420 N   0  0  0  0  0  0  0  0  0  0  0  0
  -25.9210  -35.0710   23.5020 C   0  0  0  0  0  0  0  0  0  0  0  0
  -26.5780  -34.9860   22.4610 O   0  0  0  0  0  0  0  0  0  0  0  0
  -25.0110  -34.1460   25.0540 H   0  0  0  0  0  0  0  0  0  0  0  0
  -24.1920  -36.8790   23.2080 C   0  0  0  0  0  1  0  0  0  0  0  0
  -25.4440  -36.4550   23.9930 C   0  0  0  0  0  3  0  0  0  0  0  0
  -27.5910  -37.3200   24.8130 C   0  0  0  0  0  1  0  0  0  0  0  0
  -26.4780  -37.5080   23.8860 N   0  0  0  0  0  0  0  0  0  0  0  0
  -26.0770  -38.4260   24.0570 H   0  0  0  0  0  0  0  0  0  0  0  0
  1  3  1  0
  1 50  1  0
  3  2  1  0
  4  1  2  0
  5  3  1  0
  5 10  1  0
  6  7  1  0
  8  6  2  0
  9  7  2  0
 10 11  2  0
 10  8  1  0
 11  9  1  0
 12 21  1  0
 13 18  1  0
 14 15  1  0
 14 13  1  0
 16 15  1  0
 16 25  1  0
 16 17  1  0
 18 12  1  0
 18 17  1  0
 19 12  2  0
 20 21  1  0
 21 11  1  0
 22 23  2  0
 23 42  1  0
 24 23  1  0
 24 27  1  0
 25 26  1  0
 25 22  1  0
 26 24  2  0
 27 28  1  0
 28 29  2  0
 30 33  1  0
 30 29  1  0
 31 30  2  0
 32 31  1  0
 32 27  2  0
 33 34  1  0
 34 35  1  0
 35 36  2  0
 37 36  1  0
 37 41  1  0
 38 37  2  0
 39 34  2  0
 39 38  1  0
 40 39  1  0
 42 43  1  0
 43 46  1  0
 43 45  1  0
 44 42  2  0
 47 22  1  0
 47 48  1  0
 49 47  1  0
 51 53  1  0
 51 50  1  0
 52 63  2  0
 53 58  1  0
 54 62  1  0
 54 64  1  0
 55 61  1  0
 55 57  1  0
 56 62  1  0
 57 56  1  0
 58 57  2  0
 59 60  1  0
 59 53  2  0
 60 55  2  0
 61 54  1  0
 62 52  1  0
 64 66  2  0
 65 64  1  0
 67 65  1  0
 68 77  2  0
 68 73  1  0
 69 65  1  0
 69 73  1  0
 70 69  1  0
 71 72  1  0
 71 70  1  0
 72 68  1  0
 73 74  2  0
 74 75  1  0
 76 75  2  0
 77 76  1  0
 78 52  1  0
 78 83  1  0
 78 79  1  0
 79 82  1  1
 79 80  1  0
 81 79  1  0
 83 86  1  0
 84 88  1  0
 84 83  1  0
 85 84  2  0
 88 87  1  0
 90 88  1  0
 90 91  1  0
 90 89  1  0
M  ISO  4  12 100  21 100  50 101  51 101
M  END
>  <TORSDO>  (93) 
F 19

>  <SCORE>  (93) 
-14.248

>  <name>  (93) 
93

>  <ligand_id>  (93) 
93

>  <original_smiles>  (93) 
[H]c1c([H])c([H])c(C([H])([H])N(C(=O)C([H])([H])Oc2c([H])c([H])c3c(c2[H])C([H])([H])N(C(=O)C([H])(N([H])C(=O)C([H])(N([H])C([H])([H])[H])C([H])([H])[H])C(C([H])([H])[H])(C([H])([H])[H])C([H])([H])[H])C([H])(C(=O)N([H])C2([H])c4c([H])c([H])c([H])c([H])c4C([H])([H])C([H])([H])C2([H])[H])C3([H])[H])C([H])([H])[H])c(N(C(=O)N2C([H])([H])C([H])([H])C([H])([H])C([H])(n3nc(-c4c([H])c([H])c(Oc5c([H])c([H])c(F)c([H])c5F)c([H])c4[H])c(C(=O)N([H])[H])c3N([H])[H])C2([H])[H])C([H])([H])[H])c1[H]

>  <smiles>  (93) 
[H]c1c([H])c([H])c(C([H])([H])N(C(=O)C([H])([H])Oc2c([H])c([H])c3c(c2[H])C([H])([H])N(C(=O)C([H])(N([H])C(=O)C([H])(N([H])C([H])([H])[H])C([H])([H])[H])C(C([H])([H])[H])(C([H])([H])[H])C([H])([H])[H])C([H])(C(=O)N([H])C2([H])c4c([H])c([H])c([H])c([H])c4C([H])([H])C([H])([H])C2([H])[H])C3([H])[H])C([H])([H])[H])c(N(C(=O)N2C([H])([H])C([H])([H])C([H])([H])C([H])(n3nc(-c4c([H])c([H])c(Oc5c([H])c([H])c(F)c([H])c5F)c([H])c4[H])c(C(=O)N([H])[H])c3N([H])[H])C2([H])[H])C([H])([H])[H])c1[H]

$$$$
94:0:0
     RDKit          3D

 93101  0  0  1  0  0  0  0  0999 V2000
  -29.0850  -21.6380   20.4470 C   0  0  0  0  0  3  0  0  0  0  0  0
  -30.0710  -20.9960   18.3470 C   0  0  0  0  0  3  0  0  0  0  0  0
  -29.5170  -20.4160   21.0320 C   0  0  0  0  0  0  0  0  0  0  0  0
  -30.2160  -19.4400   20.2590 C   0  0  0  0  0  0  0  0  0  0  0  0
  -29.3580  -21.9590   19.1000 C   0  0  0  0  0  0  0  0  0  0  0  0
  -30.4890  -19.7610   18.9070 C   0  0  0  0  0  0  0  0  0  0  0  0
  -29.2420  -20.2180   22.5160 C   0  0  0  0  0  1  0  0  0  0  0  0
  -31.1820  -18.8930   18.1340 F   0  0  0  0  0  0  0  0  0  0  0  0
  -28.9440  -23.1860   18.5090 N   0  0  0  0  0  0  0  0  0  0  0  0
  -29.2020  -23.3640   17.5370 H   0  0  0  0  0  0  0  0  0  0  0  0
  -28.3790  -24.3100   19.2900 C   0  0  0  0  0  2  0  0  0  0  0  0
  -28.2110  -25.6540   18.4990 C   0  0  0  0  0  2  0  0  0  0  0  0
  -28.1280  -26.8560   19.3110 O   0  0  0  0  0  0  0  0  0  0  0  0
  -24.6680  -31.7810   23.1840 C   0  0  0  0  0  0  0  0  0  0  0  0
  -26.9490  -27.5730   19.4750 C   0  0  0  0  0  0  0  0  0  0  0  0
  -23.2960  -30.5360   21.5510 C   0  0  0  0  0  3  0  0  0  0  0  0
  -24.5850  -29.1070   19.8740 C   0  0  0  0  0  0  0  0  0  0  0  0
  -25.7990  -30.8810   21.1460 C   0  0  0  0  0  2  0  0  0  0  0  0
  -25.8030  -29.5680   20.3830 C   0  0  0  0  0  0  0  0  0  0  0  0
  -26.9830  -28.8050   20.1820 C   0  0  0  0  0  3  0  0  0  0  0  0
  -25.7000  -27.1290   18.9820 C   0  0  0  0  0  3  0  0  0  0  0  0
  -24.5280  -27.8870   19.1800 C   0  0  0  0  0  3  0  0  0  0  0  0
  -23.3700  -29.9770   20.1060 C   0  0  0  0  0  2  0  0  0  0  0  0
  -24.6120  -31.0750   22.0180 N   0  0  0  0  0  0  0  0  0  0  0  0
  -23.6460  -32.0110   23.8460 O   0  0  0  0  0  0  0  0  0  0  0  0
  -22.7240  -29.4390   22.4790 C   0  0  0  0  0  0  0  0  0  0  0  0
  -21.4150  -29.1730   22.3540 N   0  0  0  0  0  0  0  0  0  0  0  0
  -23.4590  -28.8310   23.2670 O   0  0  0  0  0  0  0  0  0  0  0  0
  -20.8810  -29.7190   21.6900 H   0  0  0  0  0  0  0  0  0  0  0  0
  -18.1780  -27.6050   22.7020 C   0  0  0  0  0  0  0  0  0  0  0  0
  -20.6750  -28.1530   23.0940 C   0  0  0  0  0  3  0  0  0  0  0  0
  -20.9690  -26.7430   22.5330 C   0  0  0  0  0  2  0  0  0  0  0  0
  -19.9620  -26.2900   21.4740 C   0  0  0  0  0  2  0  0  0  0  0  0
  -18.5400  -26.2830   22.0470 C   0  0  0  0  0  2  0  0  0  0  0  0
  -19.1820  -28.4910   23.1800 C   0  0  0  0  0  0  0  0  0  0  0  0
  -18.7930  -29.7210   23.7530 C   0  0  0  0  0  3  0  0  0  0  0  0
  -17.4320  -30.0720   23.8550 C   0  0  0  0  0  3  0  0  0  0  0  0
  -16.4450  -29.1890   23.3900 C   0  0  0  0  0  3  0  0  0  0  0  0
  -16.8170  -27.9580   22.8210 C   0  0  0  0  0  3  0  0  0  0  0  0
  -26.0100  -32.3520   23.7330 C   0  0  0  0  0  3  0  0  0  0  0  0
  -25.7540  -33.7270   24.1880 N   0  0  0  0  0  0  0  0  0  0  0  0
  -26.0460  -34.8280   23.4830 C   0  0  0  0  0  0  0  0  0  0  0  0
  -26.6300  -34.7920   22.3980 O   0  0  0  0  0  0  0  0  0  0  0  0
  -25.2280  -33.8310   25.0420 H   0  0  0  0  0  0  0  0  0  0  0  0
  -24.3320  -36.6660   23.3920 C   0  0  0  0  0  1  0  0  0  0  0  0
  -25.6210  -36.1830   24.0760 C   0  0  0  0  0  3  0  0  0  0  0  0
  -27.8250  -36.9780   24.8140 C   0  0  0  0  0  1  0  0  0  0  0  0
  -26.6630  -37.2260   23.9630 N   0  0  0  0  0  0  0  0  0  0  0  0
  -26.2860  -38.1400   24.2010 H   0  0  0  0  0  0  0  0  0  0  0  0
  -26.6250  -31.4860   24.8990 C   0  0  1  0  0  0  0  0  0  0  0  0
  -25.6120  -31.1540   26.0210 C   0  0  0  0  0  1  0  0  0  0  0  0
  -27.1860  -30.1540   24.3500 C   0  0  0  0  0  1  0  0  0  0  0  0
  -27.8200  -32.2330   25.5360 C   0  0  0  0  0  1  0  0  0  0  0  0
  -30.7220  -18.1130   20.8930 C   0  0  0  0  0  2  0  0  0  0  0  0
  -30.7680  -16.8020   20.0300 C   0  0  0  0  0  2  0  0  0  0  0  0
  -32.4890  -14.8840   19.6090 C   0  0  0  0  0  0  0  0  0  0  0  0
  -32.0570  -12.5340   18.9470 C   0  0  0  0  0  2  0  0  0  0  0  0
  -31.0890  -12.5050   17.7490 C   0  0  0  0  0  2  0  0  0  0  0  0
  -29.6280  -12.5060   18.2370 C   0  0  0  0  0  2  0  0  0  0  0  0
  -29.3610  -13.5910   19.3160 C   0  0  0  0  0  3  0  0  0  0  0  0
  -30.4520  -13.5650   20.4140 C   0  0  0  0  0  2  0  0  0  0  0  0
  -31.7470  -13.7400   19.7460 N   0  0  0  0  0  0  0  0  0  0  0  0
  -33.5980  -14.8490   19.0680 O   0  0  0  0  0  0  0  0  0  0  0  0
  -32.0710  -16.0890   20.0830 N   0  0  0  0  0  0  0  0  0  0  0  0
  -32.8280  -16.7560   19.9830 H   0  0  0  0  0  0  0  0  0  0  0  0
  -27.1190  -14.4700   20.2040 C   0  0  0  0  0  0  0  0  0  0  0  0
  -25.9840  -13.8300   20.6210 C   0  0  0  0  0  0  0  0  0  0  0  0
  -26.2600  -12.4300   20.5210 C   0  0  0  0  0  0  0  0  0  0  0  0
  -28.0190  -13.4710   19.8750 N   0  0  0  0  0  0  0  0  0  0  0  0
  -27.5110  -12.2350   20.1200 N   0  0  0  0  0  0  0  0  0  0  0  0
  -25.3870  -11.2660   20.7190 C   0  0  0  0  0  0  0  0  0  0  0  0
  -25.6450  -10.3110   21.7270 C   0  0  0  0  0  3  0  0  0  0  0  0
  -24.7790   -9.2110   21.9100 C   0  0  0  0  0  3  0  0  0  0  0  0
  -23.6400   -9.0590   21.0840 C   0  0  0  0  0  0  0  0  0  0  0  0
  -23.4020  -10.0000   20.0670 C   0  0  0  0  0  3  0  0  0  0  0  0
  -24.2670  -11.0900   19.8840 C   0  0  0  0  0  3  0  0  0  0  0  0
  -22.7580   -8.0100   21.1730 O   0  0  0  0  0  0  0  0  0  0  0  0
  -22.4020   -7.4720   22.3820 C   0  0  0  0  0  0  0  0  0  0  0  0
  -21.7800   -8.2420   23.3880 C   0  0  0  0  0  3  0  0  0  0  0  0
  -21.3720   -7.6310   24.5920 C   0  0  0  0  0  3  0  0  0  0  0  0
  -21.5710   -6.2510   24.7860 C   0  0  0  0  0  0  0  0  0  0  0  0
  -22.1850   -5.4820   23.7810 C   0  0  0  0  0  3  0  0  0  0  0  0
  -22.5960   -6.0910   22.5830 C   0  0  0  0  0  0  0  0  0  0  0  0
  -23.1700   -5.3400   21.6120 F   0  0  0  0  0  0  0  0  0  0  0  0
  -21.1690   -5.6620   25.9370 F   0  0  0  0  0  0  0  0  0  0  0  0
  -24.6820  -14.4750   20.9970 C   0  0  0  0  0  0  0  0  0  0  0  0
  -23.9370  -13.8600   21.9090 N   0  0  0  0  0  0  0  0  0  0  0  0
  -24.3440  -15.5570   20.5180 O   0  0  0  0  0  0  0  0  0  0  0  0
  -24.2250  -12.9810   22.3110 H   0  0  0  0  0  0  0  0  0  0  0  0
  -23.0670  -14.2770   22.2100 H   0  0  0  0  0  0  0  0  0  0  0  0
  -27.4530  -15.8130   20.0560 N   0  0  0  0  0  0  0  0  0  0  0  0
  -26.7830  -16.5530   20.2280 H   0  0  0  0  0  0  0  0  0  0  0  0
  -28.3020  -16.1360   19.6120 H   0  0  0  0  0  0  0  0  0  0  0  0
  1  3  1  0
  2  6  2  0
  2  5  1  0
  3  7  1  0
  4 54  1  0
  4  3  2  0
  5  1  2  0
  6  4  1  0
  8  6  1  0
  9  5  1  0
  9 11  1  0
 10  9  1  0
 12 11  1  0
 12 13  1  0
 13 15  1  0
 14 25  2  0
 15 20  1  0
 16 24  1  0
 16 26  1  0
 17 23  1  0
 17 19  1  0
 18 24  1  0
 19 18  1  0
 20 19  2  0
 21 22  1  0
 21 15  2  0
 22 17  2  0
 23 16  1  0
 24 14  1  0
 26 28  2  0
 27 26  1  0
 29 27  1  0
 30 39  2  0
 30 35  1  0
 31 27  1  0
 31 35  1  0
 32 31  1  0
 33 34  1  0
 33 32  1  0
 34 30  1  0
 35 36  2  0
 36 37  1  0
 38 37  2  0
 39 38  1  0
 40 14  1  0
 40 41  1  0
 40 50  1  0
 41 44  1  0
 42 46  1  0
 42 41  1  0
 43 42  2  0
 46 45  1  0
 48 46  1  0
 48 49  1  0
 48 47  1  0
 50 53  1  1
 50 51  1  0
 52 50  1  0
 55 64  1  0
 55 54  1  0
 56 62  1  0
 56 64  1  0
 57 62  1  0
 58 59  1  0
 58 57  1  0
 60 59  1  0
 60 69  1  0
 60 61  1  0
 62 61  1  0
 63 56  2  0
 65 64  1  0
 66 67  2  0
 67 86  1  0
 68 67  1  0
 68 71  1  0
 69 70  1  0
 69 66  1  0
 70 68  2  0
 71 72  1  0
 72 73  2  0
 74 77  1  0
 74 73  1  0
 75 74  2  0
 76 75  1  0
 76 71  2  0
 77 78  1  0
 78 83  2  0
 78 79  1  0
 79 80  2  0
 80 81  1  0
 81 85  1  0
 82 81  2  0
 83 82  1  0
 84 83  1  0
 86 87  1  0
 87 90  1  0
 87 89  1  0
 88 86  2  0
 91 66  1  0
 91 92  1  0
 93 91  1  0
M  ISO  4  12 101  13 101  56 100  64 100
M  END
>  <TORSDO>  (94) 
F 21

>  <SCORE>  (94) 
-9.575

>  <name>  (94) 
94

>  <ligand_id>  (94) 
94

>  <original_smiles>  (94) 
[H]c1c([H])c([H])c2c(c1[H])C([H])([H])C([H])([H])C([H])([H])C2([H])N([H])C(=O)C1([H])N(C(=O)C([H])(N([H])C(=O)C([H])(N([H])C([H])([H])[H])C([H])([H])[H])C(C([H])([H])[H])(C([H])([H])[H])C([H])([H])[H])C([H])([H])c2c([H])c(OC([H])([H])C([H])([H])N([H])c3c([H])c(F)c(C([H])([H])C([H])([H])N([H])C(=O)N4C([H])([H])C([H])([H])C([H])([H])C([H])(n5nc(-c6c([H])c([H])c(Oc7c([H])c([H])c(F)c([H])c7F)c([H])c6[H])c(C(=O)N([H])[H])c5N([H])[H])C4([H])[H])c(C([H])([H])[H])c3[H])c([H])c([H])c2C1([H])[H]

>  <smiles>  (94) 
[H]c1c([H])c([H])c2c(c1[H])C([H])([H])C([H])([H])C([H])([H])C2([H])N([H])C(=O)C1([H])N(C(=O)C([H])(N([H])C(=O)C([H])(N([H])C([H])([H])[H])C([H])([H])[H])C(C([H])([H])[H])(C([H])([H])[H])C([H])([H])[H])C([H])([H])c2c([H])c(OC([H])([H])C([H])([H])N([H])c3c([H])c(F)c(C([H])([H])C([H])([H])N([H])C(=O)N4C([H])([H])C([H])([H])C([H])([H])C([H])(n5nc(-c6c([H])c([H])c(Oc7c([H])c([H])c(F)c([H])c7F)c([H])c6[H])c(C(=O)N([H])[H])c5N([H])[H])C4([H])[H])c(C([H])([H])[H])c3[H])c([H])c([H])c2C1([H])[H]

$$$$
95:0:0
     RDKit          3D

 93102  0  0  1  0  0  0  0  0999 V2000
  -30.8700  -14.8080   20.1850 C   0  0  0  0  0  0  0  0  0  0  0  0
  -30.6100  -12.4750   19.3190 C   0  0  0  0  0  2  0  0  0  0  0  0
  -29.6910  -12.4590   18.0800 C   0  0  0  0  0  2  0  0  0  0  0  0
  -28.2160  -12.3460   18.5030 C   0  0  0  0  0  2  0  0  0  0  0  0
  -27.8420  -13.3500   19.6250 C   0  0  0  0  0  3  0  0  0  0  0  0
  -28.8760  -13.3360   20.7690 C   0  0  0  0  0  2  0  0  0  0  0  0
  -30.1990  -13.6050   20.1860 N   0  0  0  0  0  0  0  0  0  0  0  0
  -31.9670  -14.9070   19.6240 O   0  0  0  0  0  0  0  0  0  0  0  0
  -29.7670  -19.7130   20.7160 C   0  0  0  0  0  3  0  0  0  0  0  0
  -29.0480  -18.7640   18.6460 C   0  0  0  0  0  3  0  0  0  0  0  0
  -30.1430  -18.4070   21.1710 C   0  0  0  0  0  0  0  0  0  0  0  0
  -30.0150  -17.2270   20.3640 C   0  0  0  0  0  0  0  0  0  0  0  0
  -29.1770  -19.9360   19.4500 C   0  0  0  0  0  0  0  0  0  0  0  0
  -29.4590  -17.4570   19.0730 C   0  0  0  0  0  0  0  0  0  0  0  0
  -30.6520  -18.2790   22.5930 C   0  0  0  0  0  2  0  0  0  0  0  0
  -30.2410  -16.9370   23.1910 C   0  0  0  0  0  2  0  0  0  0  0  0
  -30.7470  -15.7800   22.3240 C   0  0  0  0  0  2  0  0  0  0  0  0
  -30.3590  -15.8770   20.8990 N   0  0  0  0  0  0  0  0  0  0  0  0
  -29.2590  -16.4070   18.2390 F   0  0  0  0  0  0  0  0  0  0  0  0
  -25.4910  -14.0520   20.3760 C   0  0  0  0  0  0  0  0  0  0  0  0
  -24.3900  -13.3260   20.7450 C   0  0  0  0  0  0  0  0  0  0  0  0
  -24.7850  -11.9550   20.6940 C   0  0  0  0  0  0  0  0  0  0  0  0
  -26.4870  -13.1250   20.1190 N   0  0  0  0  0  0  0  0  0  0  0  0
  -26.0700  -11.8590   20.3730 N   0  0  0  0  0  0  0  0  0  0  0  0
  -24.0010  -10.7270   20.8760 C   0  0  0  0  0  0  0  0  0  0  0  0
  -24.3810   -9.7360   21.8070 C   0  0  0  0  0  3  0  0  0  0  0  0
  -23.5980   -8.5730   21.9760 C   0  0  0  0  0  3  0  0  0  0  0  0
  -22.4190   -8.3940   21.2140 C   0  0  0  0  0  0  0  0  0  0  0  0
  -22.0570   -9.3740   20.2720 C   0  0  0  0  0  3  0  0  0  0  0  0
  -22.8400  -10.5270   20.1000 C   0  0  0  0  0  3  0  0  0  0  0  0
  -21.6100   -7.2860   21.2930 O   0  0  0  0  0  0  0  0  0  0  0  0
  -21.5110   -6.5480   22.4440 C   0  0  0  0  0  0  0  0  0  0  0  0
  -21.0960   -7.1230   23.6650 C   0  0  0  0  0  3  0  0  0  0  0  0
  -20.9420   -6.3130   24.8090 C   0  0  0  0  0  3  0  0  0  0  0  0
  -21.1920   -4.9310   24.7320 C   0  0  0  0  0  0  0  0  0  0  0  0
  -21.6020   -4.3560   23.5150 C   0  0  0  0  0  3  0  0  0  0  0  0
  -21.7570   -5.1620   22.3740 C   0  0  0  0  0  0  0  0  0  0  0  0
  -22.1310   -4.6000   21.2000 F   0  0  0  0  0  0  0  0  0  0  0  0
  -21.0370   -4.1510   25.8270 F   0  0  0  0  0  0  0  0  0  0  0  0
  -23.0210  -13.8680   21.0360 C   0  0  0  0  0  0  0  0  0  0  0  0
  -22.2730  -13.2060   21.9130 N   0  0  0  0  0  0  0  0  0  0  0  0
  -22.6230  -14.9110   20.5190 O   0  0  0  0  0  0  0  0  0  0  0  0
  -22.6080  -12.3600   22.3500 H   0  0  0  0  0  0  0  0  0  0  0  0
  -21.3530  -13.5500   22.1500 H   0  0  0  0  0  0  0  0  0  0  0  0
  -25.7210  -15.4150   20.2140 N   0  0  0  0  0  0  0  0  0  0  0  0
  -24.9930  -16.1080   20.3500 H   0  0  0  0  0  0  0  0  0  0  0  0
  -26.5930  -15.8130   19.8900 H   0  0  0  0  0  0  0  0  0  0  0  0
  -28.6260  -21.2060   19.0350 N   0  0  0  0  0  0  0  0  0  0  0  0
  -28.0770  -21.1380   18.1810 H   0  0  0  0  0  0  0  0  0  0  0  0
  -29.2530  -22.5650   19.1940 C   0  0  0  0  0  2  0  0  0  0  0  0
  -28.2860  -23.8350   19.4560 C   0  0  0  0  0  2  0  0  0  0  0  0
  -28.6310  -25.2490   18.7730 C   0  0  0  0  0  2  0  0  0  0  0  0
  -28.4180  -26.5660   19.4310 O   0  0  0  0  0  0  0  0  0  0  0  0
  -24.3570  -31.4160   22.8670 C   0  0  0  0  0  0  0  0  0  0  0  0
  -27.2170  -27.2910   19.4270 C   0  0  0  0  0  0  0  0  0  0  0  0
  -23.2130  -30.0510   21.1520 C   0  0  0  0  0  3  0  0  0  0  0  0
  -24.7350  -28.7130   19.5820 C   0  0  0  0  0  0  0  0  0  0  0  0
  -25.7130  -30.5720   20.9350 C   0  0  0  0  0  2  0  0  0  0  0  0
  -25.8770  -29.2500   20.1900 C   0  0  0  0  0  0  0  0  0  0  0  0
  -27.1140  -28.5480   20.1050 C   0  0  0  0  0  3  0  0  0  0  0  0
  -26.0490  -26.8010   18.8030 C   0  0  0  0  0  3  0  0  0  0  0  0
  -24.8240  -27.4970   18.8800 C   0  0  0  0  0  3  0  0  0  0  0  0
  -23.4380  -29.4860   19.7220 C   0  0  0  0  0  2  0  0  0  0  0  0
  -24.4480  -30.6950   21.7090 N   0  0  0  0  0  0  0  0  0  0  0  0
  -23.2730  -31.5710   23.4470 O   0  0  0  0  0  0  0  0  0  0  0  0
  -22.6530  -28.9240   22.0540 C   0  0  0  0  0  0  0  0  0  0  0  0
  -21.3350  -28.6780   21.9680 N   0  0  0  0  0  0  0  0  0  0  0  0
  -23.4030  -28.2770   22.7900 O   0  0  0  0  0  0  0  0  0  0  0  0
  -20.7830  -29.2610   21.3540 H   0  0  0  0  0  0  0  0  0  0  0  0
  -18.0570  -27.2480   22.5120 C   0  0  0  0  0  0  0  0  0  0  0  0
  -20.6080  -27.6310   22.6880 C   0  0  0  0  0  3  0  0  0  0  0  0
  -20.7580  -26.2610   21.9860 C   0  0  0  0  0  2  0  0  0  0  0  0
  -19.6270  -25.9630   20.9970 C   0  0  0  0  0  2  0  0  0  0  0  0
  -18.2720  -25.9740   21.7120 C   0  0  0  0  0  2  0  0  0  0  0  0
  -19.1540  -28.0340   22.9570 C   0  0  0  0  0  0  0  0  0  0  0  0
  -18.8970  -29.2270   23.6660 C   0  0  0  0  0  3  0  0  0  0  0  0
  -17.5770  -29.6390   23.9300 C   0  0  0  0  0  3  0  0  0  0  0  0
  -16.4960  -28.8480   23.5000 C   0  0  0  0  0  3  0  0  0  0  0  0
  -16.7370  -27.6530   22.7990 C   0  0  0  0  0  3  0  0  0  0  0  0
  -25.6080  -32.0960   23.5060 C   0  0  0  0  0  3  0  0  0  0  0  0
  -26.2150  -31.2780   24.7120 C   0  0  1  0  0  0  0  0  0  0  0  0
  -25.1760  -30.8900   25.7910 C   0  0  0  0  0  1  0  0  0  0  0  0
  -26.8760  -29.9740   24.2070 C   0  0  0  0  0  1  0  0  0  0  0  0
  -27.3310  -32.1030   25.3990 C   0  0  0  0  0  1  0  0  0  0  0  0
  -25.2070  -33.4390   23.9480 N   0  0  0  0  0  0  0  0  0  0  0  0
  -25.4410  -34.5680   23.2640 C   0  0  0  0  0  0  0  0  0  0  0  0
  -26.0880  -34.5920   22.2140 O   0  0  0  0  0  0  0  0  0  0  0  0
  -24.6330  -33.4910   24.7750 H   0  0  0  0  0  0  0  0  0  0  0  0
  -23.5770  -36.2490   23.0910 C   0  0  0  0  0  1  0  0  0  0  0  0
  -24.8680  -35.8790   23.8380 C   0  0  0  0  0  3  0  0  0  0  0  0
  -26.9560  -36.8600   24.6790 C   0  0  0  0  0  1  0  0  0  0  0  0
  -25.8160  -37.0130   23.7790 N   0  0  0  0  0  0  0  0  0  0  0  0
  -25.3480  -37.8850   24.0070 H   0  0  0  0  0  0  0  0  0  0  0  0
  1  7  1  0
  1 18  1  0
  2  7  1  0
  3  4  1  0
  3  2  1  0
  5  4  1  0
  5 23  1  0
  5  6  1  0
  7  6  1  0
  8  1  2  0
  9 11  1  0
 10 14  2  0
 10 13  1  0
 11 15  1  0
 12 18  1  0
 12 11  2  0
 13  9  2  0
 14 12  1  0
 15 16  1  0
 17 16  1  0
 18 17  1  0
 19 14  1  0
 20 21  2  0
 21 40  1  0
 22 21  1  0
 22 25  1  0
 23 24  1  0
 23 20  1  0
 24 22  2  0
 25 26  1  0
 26 27  2  0
 28 31  1  0
 28 27  1  0
 29 28  2  0
 30 29  1  0
 30 25  2  0
 31 32  1  0
 32 33  1  0
 33 34  2  0
 35 34  1  0
 35 39  1  0
 36 35  2  0
 37 32  2  0
 37 36  1  0
 38 37  1  0
 40 41  1  0
 41 44  1  0
 41 43  1  0
 42 40  2  0
 45 46  1  0
 45 20  1  0
 47 45  1  0
 48 50  1  0
 48 13  1  0
 49 48  1  0
 50 51  1  0
 52 53  1  0
 52 51  1  0
 54 65  2  0
 55 53  1  0
 55 60  1  0
 56 64  1  0
 56 66  1  0
 57 63  1  0
 57 59  1  0
 58 64  1  0
 59 58  1  0
 60 59  2  0
 61 62  1  0
 61 55  2  0
 62 57  2  0
 63 56  1  0
 64 54  1  0
 66 68  2  0
 67 66  1  0
 69 67  1  0
 70 79  2  0
 70 75  1  0
 71 67  1  0
 71 75  1  0
 72 71  1  0
 73 74  1  0
 73 72  1  0
 74 70  1  0
 75 76  2  0
 76 77  1  0
 78 77  2  0
 79 78  1  0
 80 54  1  0
 80 85  1  0
 80 81  1  0
 81 84  1  1
 81 82  1  0
 83 81  1  0
 85 88  1  0
 86 90  1  0
 86 85  1  0
 87 86  2  0
 90 89  1  0
 92 90  1  0
 92 93  1  0
 92 91  1  0
M  ISO  4   1 100  18 100  52 101  53 101
M  END
>  <TORSDO>  (95) 
F 19

>  <SCORE>  (95) 
-11.169

>  <name>  (95) 
95

>  <ligand_id>  (95) 
95

>  <original_smiles>  (95) 
[H]c1c([H])c([H])c2c(c1[H])C([H])([H])C([H])([H])C([H])([H])C2([H])N([H])C(=O)C1([H])N(C(=O)C([H])(N([H])C(=O)C([H])(N([H])C([H])([H])[H])C([H])([H])[H])C(C([H])([H])[H])(C([H])([H])[H])C([H])([H])[H])C([H])([H])c2c([H])c(OC([H])([H])C([H])([H])C([H])([H])N([H])c3c([H])c(F)c4c(c3[H])C([H])([H])C([H])([H])C([H])([H])N4C(=O)N3C([H])([H])C([H])([H])C([H])([H])C([H])(n4nc(-c5c([H])c([H])c(Oc6c([H])c([H])c(F)c([H])c6F)c([H])c5[H])c(C(=O)N([H])[H])c4N([H])[H])C3([H])[H])c([H])c([H])c2C1([H])[H]

>  <smiles>  (95) 
[H]c1c([H])c([H])c2c(c1[H])C([H])([H])C([H])([H])C([H])([H])C2([H])N([H])C(=O)C1([H])N(C(=O)C([H])(N([H])C(=O)C([H])(N([H])C([H])([H])[H])C([H])([H])[H])C(C([H])([H])[H])(C([H])([H])[H])C([H])([H])[H])C([H])([H])c2c([H])c(OC([H])([H])C([H])([H])C([H])([H])N([H])c3c([H])c(F)c4c(c3[H])C([H])([H])C([H])([H])C([H])([H])N4C(=O)N3C([H])([H])C([H])([H])C([H])([H])C([H])(n4nc(-c5c([H])c([H])c(Oc6c([H])c([H])c(F)c([H])c6F)c([H])c5[H])c(C(=O)N([H])[H])c4N([H])[H])C3([H])[H])c([H])c([H])c2C1([H])[H]

$$$$
96:0:0
     RDKit          3D

 91 99  0  0  1  0  0  0  0  0999 V2000
  -30.7000  -18.6920   20.5100 C   0  0  0  0  0  3  0  0  0  0  0  0
  -28.4170  -18.1740   20.2300 C   0  0  0  0  0  3  0  0  0  0  0  0
  -29.7320  -17.6310   20.3730 C   0  0  0  0  0  0  0  0  0  0  0  0
  -29.0510  -20.6450   20.2900 C   0  0  0  0  0  0  0  0  0  0  0  0
  -30.3840  -20.1220   20.4790 C   0  0  0  0  0  0  0  0  0  0  0  0
  -28.0960  -19.5810   20.1930 C   0  0  0  0  0  0  0  0  0  0  0  0
  -31.4070  -21.0040   20.5940 F   0  0  0  0  0  0  0  0  0  0  0  0
  -26.7970  -19.9240   20.0120 F   0  0  0  0  0  0  0  0  0  0  0  0
  -30.7160  -15.0720   20.5630 C   0  0  0  0  0  0  0  0  0  0  0  0
  -30.6710  -12.6750   19.7540 C   0  0  0  0  0  2  0  0  0  0  0  0
  -29.8000  -12.5220   18.4840 C   0  0  0  0  0  2  0  0  0  0  0  0
  -28.3140  -12.3460   18.8480 C   0  0  0  0  0  2  0  0  0  0  0  0
  -27.8330  -13.3230   19.9540 C   0  0  0  0  0  3  0  0  0  0  0  0
  -28.8340  -13.4250   21.1230 C   0  0  0  0  0  2  0  0  0  0  0  0
  -30.1250  -13.8110   20.5400 N   0  0  0  0  0  0  0  0  0  0  0  0
  -31.9510  -15.1160   20.5380 O   0  0  0  0  0  0  0  0  0  0  0  0
  -29.9130  -16.0490   18.5390 C   0  0  0  0  0  1  0  0  0  0  0  0
  -29.9870  -16.1680   20.0070 N   0  0  0  0  0  0  0  0  0  0  0  0
  -25.4200  -13.9060   20.5760 C   0  0  0  0  0  0  0  0  0  0  0  0
  -24.3400  -13.1300   20.8940 C   0  0  0  0  0  0  0  0  0  0  0  0
  -24.8090  -11.7810   20.8970 C   0  0  0  0  0  0  0  0  0  0  0  0
  -26.4760  -13.0280   20.3970 N   0  0  0  0  0  0  0  0  0  0  0  0
  -26.1140  -11.7460   20.6580 N   0  0  0  0  0  0  0  0  0  0  0  0
  -24.0790  -10.5180   21.0530 C   0  0  0  0  0  0  0  0  0  0  0  0
  -24.4550   -9.5600   22.0200 C   0  0  0  0  0  3  0  0  0  0  0  0
  -23.7230   -8.3630   22.1650 C   0  0  0  0  0  3  0  0  0  0  0  0
  -22.6010   -8.1130   21.3410 C   0  0  0  0  0  0  0  0  0  0  0  0
  -22.2450   -9.0570   20.3620 C   0  0  0  0  0  3  0  0  0  0  0  0
  -22.9780  -10.2470   20.2160 C   0  0  0  0  0  3  0  0  0  0  0  0
  -21.8460   -6.9650   21.3930 O   0  0  0  0  0  0  0  0  0  0  0  0
  -21.7160   -6.2420   22.5520 C   0  0  0  0  0  0  0  0  0  0  0  0
  -21.1370   -6.7960   23.7140 C   0  0  0  0  0  3  0  0  0  0  0  0
  -20.9600   -5.9960   24.8620 C   0  0  0  0  0  3  0  0  0  0  0  0
  -21.3510   -4.6440   24.8460 C   0  0  0  0  0  0  0  0  0  0  0  0
  -21.9240   -4.0900   23.6870 C   0  0  0  0  0  3  0  0  0  0  0  0
  -22.1030   -4.8870   22.5420 C   0  0  0  0  0  0  0  0  0  0  0  0
  -22.6360   -4.3430   21.4220 F   0  0  0  0  0  0  0  0  0  0  0  0
  -21.1740   -3.8740   25.9440 F   0  0  0  0  0  0  0  0  0  0  0  0
  -22.9290  -13.6050   21.0860 C   0  0  0  0  0  0  0  0  0  0  0  0
  -22.1620  -12.9220   21.9290 N   0  0  0  0  0  0  0  0  0  0  0  0
  -22.5130  -14.6180   20.5250 O   0  0  0  0  0  0  0  0  0  0  0  0
  -22.5090  -12.1030   22.4050 H   0  0  0  0  0  0  0  0  0  0  0  0
  -21.2140  -13.2250   22.1020 H   0  0  0  0  0  0  0  0  0  0  0  0
  -25.5870  -15.2760   20.3960 N   0  0  0  0  0  0  0  0  0  0  0  0
  -24.8120  -15.9280   20.4510 H   0  0  0  0  0  0  0  0  0  0  0  0
  -26.4500  -15.7050   20.0910 H   0  0  0  0  0  0  0  0  0  0  0  0
  -28.5560  -22.0420   20.1560 N   0  0  0  0  0  0  0  0  0  0  0  0
  -27.5550  -22.0360   19.9680 H   0  0  0  0  0  0  0  0  0  0  0  0
  -29.1070  -23.4870   20.2600 C   0  0  0  0  0  3  0  0  0  0  0  0
  -28.0880  -24.7920   19.9780 C   0  0  0  0  0  3  0  0  0  0  0  0
  -28.3440  -26.3040   20.1950 O   0  0  0  0  0  0  0  0  0  0  0  0
  -24.5460  -31.8410   23.1910 C   0  0  0  0  0  0  0  0  0  0  0  0
  -27.2670  -27.2550   20.1210 C   0  0  0  0  0  0  0  0  0  0  0  0
  -23.4050  -30.4650   21.4950 C   0  0  0  0  0  3  0  0  0  0  0  0
  -24.9090  -28.9490   20.0710 C   0  0  0  0  0  0  0  0  0  0  0  0
  -25.9560  -30.7780   21.3940 C   0  0  0  0  0  2  0  0  0  0  0  0
  -26.0660  -29.4040   20.7160 C   0  0  0  0  0  0  0  0  0  0  0  0
  -27.2460  -28.5730   20.7250 C   0  0  0  0  0  3  0  0  0  0  0  0
  -26.0820  -26.8970   19.4400 C   0  0  0  0  0  3  0  0  0  0  0  0
  -24.9280  -27.7080   19.4190 C   0  0  0  0  0  3  0  0  0  0  0  0
  -23.6680  -29.8240   20.1070 C   0  0  0  0  0  2  0  0  0  0  0  0
  -24.6540  -31.0480   22.0830 N   0  0  0  0  0  0  0  0  0  0  0  0
  -23.4440  -32.0970   23.7010 O   0  0  0  0  0  0  0  0  0  0  0  0
  -22.7200  -29.4270   22.4170 C   0  0  0  0  0  0  0  0  0  0  0  0
  -21.3890  -29.2750   22.2880 N   0  0  0  0  0  0  0  0  0  0  0  0
  -23.3870  -28.7620   23.2140 O   0  0  0  0  0  0  0  0  0  0  0  0
  -20.9090  -29.8630   21.6220 H   0  0  0  0  0  0  0  0  0  0  0  0
  -17.9880  -28.1390   22.8020 C   0  0  0  0  0  0  0  0  0  0  0  0
  -20.5600  -28.3190   23.0250 C   0  0  0  0  0  3  0  0  0  0  0  0
  -20.6100  -26.9190   22.3710 C   0  0  0  0  0  2  0  0  0  0  0  0
  -19.4780  -26.6810   21.3660 C   0  0  0  0  0  2  0  0  0  0  0  0
  -18.1150  -26.8250   22.0480 C   0  0  0  0  0  2  0  0  0  0  0  0
  -19.1370  -28.8470   23.2470 C   0  0  0  0  0  0  0  0  0  0  0  0
  -18.9640  -30.0780   23.9150 C   0  0  0  0  0  3  0  0  0  0  0  0
  -17.6770  -30.6020   24.1400 C   0  0  0  0  0  3  0  0  0  0  0  0
  -16.5440  -29.8900   23.7090 C   0  0  0  0  0  3  0  0  0  0  0  0
  -16.7010  -28.6600   23.0460 C   0  0  0  0  0  3  0  0  0  0  0  0
  -25.8010  -32.4800   23.8610 C   0  0  0  0  0  3  0  0  0  0  0  0
  -26.2560  -31.7260   25.1720 C   0  0  1  0  0  0  0  0  0  0  0  0
  -25.1130  -31.5070   26.1920 C   0  0  0  0  0  1  0  0  0  0  0  0
  -26.8510  -30.3390   24.8320 C   0  0  0  0  0  1  0  0  0  0  0  0
  -27.3790  -32.5250   25.8730 C   0  0  0  0  0  1  0  0  0  0  0  0
  -25.4810  -33.8840   24.1620 N   0  0  0  0  0  0  0  0  0  0  0  0
  -25.8090  -34.9250   23.3850 C   0  0  0  0  0  0  0  0  0  0  0  0
  -26.4780  -34.8050   22.3550 O   0  0  0  0  0  0  0  0  0  0  0  0
  -24.8840  -34.0490   24.9590 H   0  0  0  0  0  0  0  0  0  0  0  0
  -24.0680  -36.7040   23.0070 C   0  0  0  0  0  1  0  0  0  0  0  0
  -25.3170  -36.3210   23.8170 C   0  0  0  0  0  3  0  0  0  0  0  0
  -27.4430  -37.2480   24.6260 C   0  0  0  0  0  1  0  0  0  0  0  0
  -26.3440  -37.3770   23.6720 N   0  0  0  0  0  0  0  0  0  0  0  0
  -25.9320  -38.2980   23.7880 H   0  0  0  0  0  0  0  0  0  0  0  0
  2  3  1  0
  3  1  2  0
  4  5  2  0
  5  1  1  0
  5  7  1  0
  6  2  2  0
  6  4  1  0
  8  6  1  0
 10 15  1  0
 11 12  1  0
 11 10  1  0
 13 12  1  0
 13 22  1  0
 13 14  1  0
 15  9  1  0
 15 14  1  0
 16  9  2  0
 17 18  1  0
 18  3  1  0
 18  9  1  0
 19 20  2  0
 20 21  1  0
 20 39  1  0
 21 24  1  0
 22 19  1  0
 22 23  1  0
 23 21  2  0
 24 25  1  0
 25 26  2  0
 27 30  1  0
 27 26  1  0
 28 27  2  0
 29 28  1  0
 29 24  2  0
 30 31  1  0
 31 32  1  0
 32 33  2  0
 34 33  1  0
 34 38  1  0
 35 34  2  0
 36 31  2  0
 36 35  1  0
 37 36  1  0
 39 40  1  0
 40 43  1  0
 40 42  1  0
 41 39  2  0
 44 45  1  0
 44 19  1  0
 46 44  1  0
 47 49  1  0
 47  4  1  0
 48 47  1  0
 50 51  1  0
 50 49  2  0
 52 63  2  0
 53 51  1  0
 53 58  1  0
 54 62  1  0
 54 64  1  0
 55 61  1  0
 55 57  1  0
 56 62  1  0
 57 58  2  0
 57 56  1  0
 59 53  2  0
 60 59  1  0
 60 55  2  0
 61 54  1  0
 62 52  1  0
 64 66  2  0
 65 64  1  0
 67 65  1  0
 68 77  2  0
 68 73  1  0
 69 65  1  0
 69 73  1  0
 70 69  1  0
 71 72  1  0
 71 70  1  0
 72 68  1  0
 73 74  2  0
 74 75  1  0
 76 75  2  0
 77 76  1  0
 78 52  1  0
 78 83  1  0
 78 79  1  0
 79 82  1  1
 79 80  1  0
 81 79  1  0
 83 86  1  0
 84 88  1  0
 84 83  1  0
 85 84  2  0
 88 87  1  0
 90 91  1  0
 90 88  1  0
 90 89  1  0
M  ISO  4   9 100  18 100  50 101  51 101
M  END
>  <TORSDO>  (96) 
F 19

>  <SCORE>  (96) 
-13.547

>  <name>  (96) 
96

>  <ligand_id>  (96) 
96

>  <original_smiles>  (96) 
[H]c1c([H])c([H])c2c(c1[H])C([H])([H])C([H])([H])C([H])([H])C2([H])N([H])C(=O)C1([H])N(C(=O)C([H])(N([H])C(=O)C([H])(N([H])C([H])([H])[H])C([H])([H])[H])C(C([H])([H])[H])(C([H])([H])[H])C([H])([H])[H])C([H])([H])c2c([H])c(OC([H])([H])C([H])([H])N([H])c3c(F)c([H])c(N(C(=O)N4C([H])([H])C([H])([H])C([H])([H])C([H])(n5nc(-c6c([H])c([H])c(Oc7c([H])c([H])c(F)c([H])c7F)c([H])c6[H])c(C(=O)N([H])[H])c5N([H])[H])C4([H])[H])C([H])([H])[H])c([H])c3F)c([H])c([H])c2C1([H])[H]

>  <smiles>  (96) 
[H]c1c([H])c([H])c2c(c1[H])C([H])([H])C([H])([H])C([H])([H])C2([H])N([H])C(=O)C1([H])N(C(=O)C([H])(N([H])C(=O)C([H])(N([H])C([H])([H])[H])C([H])([H])[H])C(C([H])([H])[H])(C([H])([H])[H])C([H])([H])[H])C([H])([H])c2c([H])c(OC([H])([H])C([H])([H])N([H])c3c(F)c([H])c(N(C(=O)N4C([H])([H])C([H])([H])C([H])([H])C([H])(n5nc(-c6c([H])c([H])c(Oc7c([H])c([H])c(F)c([H])c7F)c([H])c6[H])c(C(=O)N([H])[H])c5N([H])[H])C4([H])[H])C([H])([H])[H])c([H])c3F)c([H])c([H])c2C1([H])[H]

$$$$
