0:0:0
     RDKit          3D

101111  0  0  1  0  0  0  0  0999 V2000
  -32.1840  -19.2100   18.8960 C   0  0  0  0  0  3  0  0  0  0  0  0
  -31.6250  -20.2960   19.5900 C   0  0  0  0  0  3  0  0  0  0  0  0
  -31.7830  -17.8870   19.1540 C   0  0  0  0  0  3  0  0  0  0  0  0
  -30.6220  -20.1120   20.5630 C   0  0  0  0  0  0  0  0  0  0  0  0
  -30.2340  -18.7200   20.8370 C   0  0  0  0  0  0  0  0  0  0  0  0
  -30.8080  -17.5690   20.1300 C   0  0  0  0  0  0  0  0  0  0  0  0
  -31.1280  -14.9420   20.2130 C   0  0  0  0  0  0  0  0  0  0  0  0
  -30.8280  -12.6580   19.2510 C   0  0  0  0  0  2  0  0  0  0  0  0
  -29.9560  -12.7610   17.9820 C   0  0  0  0  0  2  0  0  0  0  0  0
  -28.4620  -12.6820   18.3450 C   0  0  0  0  0  2  0  0  0  0  0  0
  -28.0840  -13.6130   19.5270 C   0  0  0  0  0  3  0  0  0  0  0  0
  -29.0840  -13.4990   20.6970 C   0  0  0  0  0  2  0  0  0  0  0  0
  -30.4230  -13.7610   20.1560 N   0  0  0  0  0  0  0  0  0  0  0  0
  -32.3340  -14.9190   19.9590 O   0  0  0  0  0  0  0  0  0  0  0  0
  -30.4280  -16.1390   20.3670 N   0  0  0  0  0  0  0  0  0  0  0  0
  -29.4620  -16.0000   20.6190 H   0  0  0  0  0  0  0  0  0  0  0  0
  -25.6970  -14.3370   20.1220 C   0  0  0  0  0  0  0  0  0  0  0  0
  -24.5790  -13.6260   20.4640 C   0  0  0  0  0  0  0  0  0  0  0  0
  -24.9780  -12.2540   20.4920 C   0  0  0  0  0  0  0  0  0  0  0  0
  -26.7070  -13.4030   19.9610 N   0  0  0  0  0  0  0  0  0  0  0  0
  -26.2770  -12.1470   20.2470 N   0  0  0  0  0  0  0  0  0  0  0  0
  -24.1810  -11.0340   20.6800 C   0  0  0  0  0  0  0  0  0  0  0  0
  -24.5280  -10.0660   21.6500 C   0  0  0  0  0  3  0  0  0  0  0  0
  -23.7340   -8.9120   21.8240 C   0  0  0  0  0  3  0  0  0  0  0  0
  -22.5800   -8.7160   21.0290 C   0  0  0  0  0  0  0  0  0  0  0  0
  -22.2540   -9.6700   20.0500 C   0  0  0  0  0  3  0  0  0  0  0  0
  -23.0470  -10.8160   19.8740 C   0  0  0  0  0  3  0  0  0  0  0  0
  -21.7650   -7.6130   21.1100 O   0  0  0  0  0  0  0  0  0  0  0  0
  -21.5740   -6.9460   22.2930 C   0  0  0  0  0  0  0  0  0  0  0  0
  -21.0720   -7.5960   23.4420 C   0  0  0  0  0  3  0  0  0  0  0  0
  -20.8250   -6.8580   24.6170 C   0  0  0  0  0  3  0  0  0  0  0  0
  -21.0700   -5.4720   24.6430 C   0  0  0  0  0  0  0  0  0  0  0  0
  -21.5650   -4.8220   23.4980 C   0  0  0  0  0  3  0  0  0  0  0  0
  -21.8130   -5.5580   22.3270 C   0  0  0  0  0  0  0  0  0  0  0  0
  -22.2690   -4.9230   21.2200 F   0  0  0  0  0  0  0  0  0  0  0  0
  -20.8270   -4.7600   25.7690 F   0  0  0  0  0  0  0  0  0  0  0  0
  -23.1970  -14.1780   20.6510 C   0  0  0  0  0  0  0  0  0  0  0  0
  -22.4100  -13.5700   21.5330 N   0  0  0  0  0  0  0  0  0  0  0  0
  -22.8220  -15.1830   20.0490 O   0  0  0  0  0  0  0  0  0  0  0  0
  -22.7220  -12.7550   22.0380 H   0  0  0  0  0  0  0  0  0  0  0  0
  -21.4810  -13.9270   21.7060 H   0  0  0  0  0  0  0  0  0  0  0  0
  -25.9340  -15.6910   19.9060 N   0  0  0  0  0  0  0  0  0  0  0  0
  -25.1840  -16.3730   19.9380 H   0  0  0  0  0  0  0  0  0  0  0  0
  -26.7900  -16.0620   19.5170 H   0  0  0  0  0  0  0  0  0  0  0  0
  -29.2120  -18.4440   21.9380 C   0  0  0  0  0  2  0  0  0  0  0  0
  -30.8220  -18.7080   26.0490 C   0  0  0  0  0  2  0  0  0  0  0  0
  -29.3030  -18.8100   25.8420 C   0  0  0  0  0  2  0  0  0  0  0  0
  -31.5820  -19.4260   24.9240 C   0  0  0  0  0  2  0  0  0  0  0  0
  -28.8840  -18.2850   24.4580 C   0  0  0  0  0  2  0  0  0  0  0  0
  -31.1710  -18.8800   23.5490 C   0  0  0  0  0  2  0  0  0  0  0  0
  -29.6460  -18.9910   23.3160 C   0  0  0  0  0  3  0  0  0  0  0  0
  -30.0510  -21.4160   21.3110 C   0  0  0  0  0  2  0  0  0  0  0  0
  -27.3570  -23.3000   19.7240 C   0  0  0  0  0  2  0  0  0  0  0  0
  -28.5310  -23.5800   18.7770 C   0  0  0  0  0  2  0  0  0  0  0  0
  -27.7080  -23.6700   21.1780 C   0  0  0  0  0  2  0  0  0  0  0  0
  -29.7910  -22.7950   19.2060 C   0  0  0  0  0  2  0  0  0  0  0  0
  -29.2210  -23.9210   21.3880 C   0  0  0  0  0  3  0  0  0  0  0  0
  -30.0700  -22.8350   20.6760 N   0  0  1  0  0  4  0  0  0  0  0  0
  -31.0320  -23.1300   20.7720 H   0  0  0  0  0  0  0  0  0  0  0  0
  -29.6750  -25.4980   21.4120 C   0  0  0  0  0  2  0  0  0  0  0  0
  -29.3940  -26.6040   20.4410 O   0  0  0  0  0  0  0  0  0  0  0  0
  -24.7250  -31.4590   23.2460 C   0  0  0  0  0  0  0  0  0  0  0  0
  -28.1700  -27.2980   20.4330 C   0  0  0  0  0  0  0  0  0  0  0  0
  -23.8550  -29.9000   21.5390 C   0  0  0  0  0  3  0  0  0  0  0  0
  -25.6120  -28.5730   20.2370 C   0  0  0  0  0  0  0  0  0  0  0  0
  -26.3290  -30.5750   21.5340 C   0  0  0  0  0  2  0  0  0  0  0  0
  -26.6530  -29.2170   20.9190 C   0  0  0  0  0  0  0  0  0  0  0  0
  -27.9360  -28.5900   21.0120 C   0  0  0  0  0  3  0  0  0  0  0  0
  -27.1110  -26.7290   19.7020 C   0  0  0  0  0  3  0  0  0  0  0  0
  -25.8430  -27.3340   19.6230 C   0  0  0  0  0  3  0  0  0  0  0  0
  -24.2630  -29.2660   20.1840 C   0  0  0  0  0  2  0  0  0  0  0  0
  -24.9820  -30.6660   22.1640 N   0  0  0  0  0  0  0  0  0  0  0  0
  -23.5780  -31.5760   23.7010 O   0  0  0  0  0  0  0  0  0  0  0  0
  -23.2830  -28.7950   22.4600 C   0  0  0  0  0  0  0  0  0  0  0  0
  -22.0020  -28.4420   22.2600 N   0  0  0  0  0  0  0  0  0  0  0  0
  -23.9930  -28.2610   23.3160 O   0  0  0  0  0  0  0  0  0  0  0  0
  -21.4780  -28.9350   21.5510 H   0  0  0  0  0  0  0  0  0  0  0  0
  -18.7780  -26.8400   22.6110 C   0  0  0  0  0  0  0  0  0  0  0  0
  -21.2760  -27.3960   22.9810 C   0  0  0  0  0  3  0  0  0  0  0  0
  -21.5670  -25.9990   22.3850 C   0  0  0  0  0  2  0  0  0  0  0  0
  -20.5490  -25.5720   21.3230 C   0  0  0  0  0  2  0  0  0  0  0  0
  -19.1380  -25.5370   21.9180 C   0  0  0  0  0  2  0  0  0  0  0  0
  -19.7820  -27.7190   23.0960 C   0  0  0  0  0  0  0  0  0  0  0  0
  -19.3950  -28.9330   23.7030 C   0  0  0  0  0  3  0  0  0  0  0  0
  -18.0350  -29.2730   23.8290 C   0  0  0  0  0  3  0  0  0  0  0  0
  -17.0440  -28.3920   23.3610 C   0  0  0  0  0  3  0  0  0  0  0  0
  -17.4160  -27.1780   22.7580 C   0  0  0  0  0  3  0  0  0  0  0  0
  -25.8550  -32.2700   23.9480 C   0  0  0  0  0  3  0  0  0  0  0  0
  -25.3200  -33.6050   24.2510 N   0  0  0  0  0  0  0  0  0  0  0  0
  -25.5400  -34.6990   23.5090 C   0  0  0  0  0  0  0  0  0  0  0  0
  -26.2800  -34.7000   22.5220 O   0  0  0  0  0  0  0  0  0  0  0  0
  -24.6600  -33.6680   25.0120 H   0  0  0  0  0  0  0  0  0  0  0  0
  -23.5870  -36.2150   23.0410 C   0  0  0  0  0  1  0  0  0  0  0  0
  -24.8240  -35.9980   23.9280 C   0  0  0  0  0  3  0  0  0  0  0  0
  -26.7550  -37.1840   24.8710 C   0  0  0  0  0  1  0  0  0  0  0  0
  -25.6910  -37.1950   23.8720 N   0  0  0  0  0  0  0  0  0  0  0  0
  -25.1460  -38.0430   23.9980 H   0  0  0  0  0  0  0  0  0  0  0  0
  -26.3900  -31.5760   25.2620 C   0  0  1  0  0  0  0  0  0  0  0  0
  -25.2690  -31.1400   26.2350 C   0  0  0  0  0  1  0  0  0  0  0  0
  -27.2300  -30.3260   24.9140 C   0  0  0  0  0  1  0  0  0  0  0  0
  -27.3260  -32.5440   26.0200 C   0  0  0  0  0  1  0  0  0  0  0  0
  1  3  2  0
  1  2  1  0
  2  4  2  0
  3  6  1  0
  4  5  1  0
  4 52  1  0
  5 45  1  0
  6 15  1  0
  6  5  2  0
  7 15  1  0
  8 13  1  0
  9 10  1  0
  9  8  1  0
 11 10  1  0
 11 20  1  0
 11 12  1  0
 13  7  1  0
 13 12  1  0
 14  7  2  0
 15 16  1  0
 17 18  2  0
 18 19  1  0
 18 37  1  0
 19 22  1  0
 20 17  1  0
 20 21  1  0
 21 19  2  0
 22 23  1  0
 23 24  2  0
 25 28  1  0
 25 24  1  0
 26 25  2  0
 27 26  1  0
 27 22  2  0
 28 29  1  0
 29 34  2  0
 29 30  1  0
 30 31  2  0
 31 32  1  0
 32 36  1  0
 33 32  2  0
 34 33  1  0
 35 34  1  0
 37 38  1  0
 38 41  1  0
 38 40  1  0
 39 37  2  0
 42 43  1  0
 42 17  1  0
 44 42  1  0
 45 51  1  0
 47 46  1  0
 48 46  1  0
 49 47  1  0
 50 48  1  0
 51 50  1  0
 51 49  1  0
 53 55  1  0
 54 56  1  0
 54 53  1  0
 55 57  1  0
 56 58  1  0
 57 60  1  0
 58 59  1  6
 58 52  1  0
 58 57  1  0
 61 60  1  0
 62 73  2  0
 63 61  1  0
 63 68  1  0
 64 72  1  0
 64 74  1  0
 65 67  1  0
 66 72  1  0
 67 68  2  0
 67 66  1  0
 69 63  2  0
 70 69  1  0
 70 65  2  0
 71 65  1  0
 71 64  1  0
 72 62  1  0
 74 76  2  0
 75 74  1  0
 77 75  1  0
 78 87  2  0
 78 83  1  0
 79 75  1  0
 79 83  1  0
 80 79  1  0
 81 82  1  0
 81 80  1  0
 82 78  1  0
 83 84  2  0
 84 85  1  0
 86 85  2  0
 87 86  1  0
 88 62  1  0
 88 89  1  0
 88 98  1  0
 89 92  1  0
 90 94  1  0
 90 89  1  0
 91 90  2  0
 94 93  1  0
 96 94  1  0
 96 97  1  0
 96 95  1  0
 98101  1  1
 98 99  1  0
100 98  1  0
M  ISO  4   7 100  15 100  60 101  61 101
M  END
>  <TORSDO>  (1) 
F 21

>  <SCORE>  (1) 
4.855

>  <name>  (1) 
0

>  <ligand_id>  (1) 
0

>  <original_smiles>  (1) 
[H]c1c([H])c([H])c2c(c1[H])C([H])([H])C([H])([H])C([H])([H])C2([H])N([H])C(=O)C1([H])N(C(=O)C([H])(N([H])C(=O)C([H])(N([H])C([H])([H])[H])C([H])([H])[H])C(C([H])([H])[H])(C([H])([H])[H])C([H])([H])[H])C([H])([H])c2c([H])c(OC([H])([H])C3([H])C([H])([H])C([H])([H])C([H])([H])C([H])([H])[N+]3([H])C([H])([H])c3c([H])c([H])c([H])c(N([H])C(=O)N4C([H])([H])C([H])([H])C([H])([H])C([H])(n5nc(-c6c([H])c([H])c(Oc7c([H])c([H])c(F)c([H])c7F)c([H])c6[H])c(C(=O)N([H])[H])c5N([H])[H])C4([H])[H])c3C([H])([H])C3([H])C([H])([H])C([H])([H])C([H])([H])C([H])([H])C3([H])[H])c([H])c([H])c2C1([H])[H]

>  <smiles>  (1) 
[H]c1c([H])c([H])c2c(c1[H])C([H])([H])C([H])([H])C([H])([H])C2([H])N([H])C(=O)C1([H])N(C(=O)C([H])(N([H])C(=O)C([H])(N([H])C([H])([H])[H])C([H])([H])[H])C(C([H])([H])[H])(C([H])([H])[H])C([H])([H])[H])C([H])([H])c2c([H])c(OC([H])([H])C3([H])C([H])([H])C([H])([H])C([H])([H])C([H])([H])[N+]3([H])C([H])([H])c3c([H])c([H])c([H])c(N([H])C(=O)N4C([H])([H])C([H])([H])C([H])([H])C([H])(n5nc(-c6c([H])c([H])c(Oc7c([H])c([H])c(F)c([H])c7F)c([H])c6[H])c(C(=O)N([H])[H])c5N([H])[H])C4([H])[H])c3C([H])([H])C3([H])C([H])([H])C([H])([H])C([H])([H])C([H])([H])C3([H])[H])c([H])c([H])c2C1([H])[H]

$$$$
1:0:0
     RDKit          3D

 93102  0  0  1  0  0  0  0  0999 V2000
  -28.5870  -22.8410   18.7910 C   0  0  0  0  0  0  0  0  0  0  0  0
  -28.3180  -24.3470   18.5950 C   0  0  0  0  0  2  0  0  0  0  0  0
  -28.9650  -23.8240   20.8240 C   0  0  0  0  0  2  0  0  0  0  0  0
  -28.1300  -24.9080   20.0150 C   0  0  0  0  0  3  0  0  0  0  0  0
  -28.9650  -22.5310   20.0470 N   0  0  0  0  0  0  0  0  0  0  0  0
  -28.4110  -22.0270   17.8800 O   0  0  0  0  0  0  0  0  0  0  0  0
  -28.3480  -26.3930   20.1510 O   0  0  0  0  0  0  0  0  0  0  0  0
  -24.6680  -31.8580   23.1740 C   0  0  0  0  0  0  0  0  0  0  0  0
  -27.2480  -27.2810   20.0820 C   0  0  0  0  0  0  0  0  0  0  0  0
  -23.4490  -30.4590   21.5490 C   0  0  0  0  0  3  0  0  0  0  0  0
  -24.8870  -28.9190   20.0930 C   0  0  0  0  0  0  0  0  0  0  0  0
  -25.9890  -30.7770   21.3360 C   0  0  0  0  0  2  0  0  0  0  0  0
  -26.0650  -29.3990   20.6830 C   0  0  0  0  0  0  0  0  0  0  0  0
  -27.2470  -28.5920   20.6640 C   0  0  0  0  0  3  0  0  0  0  0  0
  -26.0510  -26.8780   19.4450 C   0  0  0  0  0  3  0  0  0  0  0  0
  -24.8860  -27.6680   19.4620 C   0  0  0  0  0  3  0  0  0  0  0  0
  -23.6490  -29.7910   20.1630 C   0  0  0  0  0  2  0  0  0  0  0  0
  -24.7220  -31.0490   22.0760 N   0  0  0  0  0  0  0  0  0  0  0  0
  -23.5900  -32.1330   23.7230 O   0  0  0  0  0  0  0  0  0  0  0  0
  -22.7990  -29.4380   22.5140 C   0  0  0  0  0  0  0  0  0  0  0  0
  -21.4720  -29.2600   22.4060 N   0  0  0  0  0  0  0  0  0  0  0  0
  -23.4890  -28.8100   23.3220 O   0  0  0  0  0  0  0  0  0  0  0  0
  -20.9740  -29.8240   21.7320 H   0  0  0  0  0  0  0  0  0  0  0  0
  -18.1020  -28.0550   22.9440 C   0  0  0  0  0  0  0  0  0  0  0  0
  -20.6630  -28.3190   23.1840 C   0  0  0  0  0  3  0  0  0  0  0  0
  -20.7610  -26.8880   22.6050 C   0  0  0  0  0  2  0  0  0  0  0  0
  -19.6480  -26.5640   21.6040 C   0  0  0  0  0  2  0  0  0  0  0  0
  -18.2740  -26.7050   22.2660 C   0  0  0  0  0  2  0  0  0  0  0  0
  -19.2250  -28.8180   23.3610 C   0  0  0  0  0  0  0  0  0  0  0  0
  -19.0100  -30.0790   23.9590 C   0  0  0  0  0  3  0  0  0  0  0  0
  -17.7060  -30.5770   24.1410 C   0  0  0  0  0  3  0  0  0  0  0  0
  -16.5980  -29.8100   23.7420 C   0  0  0  0  0  3  0  0  0  0  0  0
  -16.7970  -28.5500   23.1490 C   0  0  0  0  0  3  0  0  0  0  0  0
  -25.9550  -32.4980   23.7800 C   0  0  0  0  0  3  0  0  0  0  0  0
  -25.6360  -33.8870   24.1370 N   0  0  0  0  0  0  0  0  0  0  0  0
  -25.9340  -34.9560   23.3860 C   0  0  0  0  0  0  0  0  0  0  0  0
  -26.5760  -34.8760   22.3350 O   0  0  0  0  0  0  0  0  0  0  0  0
  -25.0650  -34.0220   24.9590 H   0  0  0  0  0  0  0  0  0  0  0  0
  -24.1760  -36.7330   23.1070 C   0  0  0  0  0  1  0  0  0  0  0  0
  -25.4430  -36.3310   23.8780 C   0  0  0  0  0  3  0  0  0  0  0  0
  -27.5850  -37.2320   24.6700 C   0  0  0  0  0  1  0  0  0  0  0  0
  -26.4580  -37.4000   23.7560 N   0  0  0  0  0  0  0  0  0  0  0  0
  -26.0430  -38.3120   23.9280 H   0  0  0  0  0  0  0  0  0  0  0  0
  -26.5030  -31.7140   25.0360 C   0  0  1  0  0  0  0  0  0  0  0  0
  -25.4320  -31.4450   26.1200 C   0  0  0  0  0  1  0  0  0  0  0  0
  -27.0950  -30.3510   24.6110 C   0  0  0  0  0  1  0  0  0  0  0  0
  -27.6550  -32.5130   25.6880 C   0  0  0  0  0  1  0  0  0  0  0  0
  -28.9350  -21.1290   20.6690 C   0  0  0  0  0  2  0  0  0  0  0  0
  -31.7660  -19.0930   18.9370 C   0  0  0  0  0  3  0  0  0  0  0  0
  -30.9520  -20.1420   19.4050 C   0  0  0  0  0  3  0  0  0  0  0  0
  -31.4580  -17.7440   19.2010 C   0  0  0  0  0  3  0  0  0  0  0  0
  -29.7910  -19.8810   20.1560 C   0  0  0  0  0  0  0  0  0  0  0  0
  -29.5050  -18.4730   20.4530 C   0  0  0  0  0  0  0  0  0  0  0  0
  -30.3340  -17.3680   19.9790 C   0  0  0  0  0  0  0  0  0  0  0  0
  -28.2970  -18.1220   21.3080 C   0  0  0  0  0  1  0  0  0  0  0  0
  -30.7590  -14.7700   19.9240 C   0  0  0  0  0  0  0  0  0  0  0  0
  -30.4310  -12.5450   18.8500 C   0  0  0  0  0  2  0  0  0  0  0  0
  -29.4040  -12.6830   17.7050 C   0  0  0  0  0  2  0  0  0  0  0  0
  -27.9720  -12.5030   18.2410 C   0  0  0  0  0  2  0  0  0  0  0  0
  -27.7010  -13.3430   19.5170 C   0  0  0  0  0  3  0  0  0  0  0  0
  -28.8420  -13.2080   20.5500 C   0  0  0  0  0  2  0  0  0  0  0  0
  -30.0940  -13.5640   19.8700 N   0  0  0  0  0  0  0  0  0  0  0  0
  -31.9310  -14.8200   19.5420 O   0  0  0  0  0  0  0  0  0  0  0  0
  -30.0390  -15.9220   20.2230 N   0  0  0  0  0  0  0  0  0  0  0  0
  -29.1150  -15.7350   20.5790 H   0  0  0  0  0  0  0  0  0  0  0  0
  -25.3750  -13.9120   20.4340 C   0  0  0  0  0  0  0  0  0  0  0  0
  -24.3350  -13.1270   20.8530 C   0  0  0  0  0  0  0  0  0  0  0  0
  -24.7910  -11.7770   20.7450 C   0  0  0  0  0  0  0  0  0  0  0  0
  -26.3970  -13.0400   20.0950 N   0  0  0  0  0  0  0  0  0  0  0  0
  -26.0570  -11.7490   20.3460 N   0  0  0  0  0  0  0  0  0  0  0  0
  -24.0760  -10.5100   20.9420 C   0  0  0  0  0  0  0  0  0  0  0  0
  -24.5260   -9.5430   21.8690 C   0  0  0  0  0  3  0  0  0  0  0  0
  -23.8100   -8.3400   22.0560 C   0  0  0  0  0  3  0  0  0  0  0  0
  -22.6290   -8.0950   21.3150 C   0  0  0  0  0  0  0  0  0  0  0  0
  -22.1970   -9.0510   20.3780 C   0  0  0  0  0  3  0  0  0  0  0  0
  -22.9140  -10.2440   20.1900 C   0  0  0  0  0  3  0  0  0  0  0  0
  -21.8830   -6.9460   21.4110 O   0  0  0  0  0  0  0  0  0  0  0  0
  -21.7950   -6.2400   22.5850 C   0  0  0  0  0  0  0  0  0  0  0  0
  -21.3100   -6.8280   23.7730 C   0  0  0  0  0  3  0  0  0  0  0  0
  -21.1720   -6.0490   24.9390 C   0  0  0  0  0  3  0  0  0  0  0  0
  -21.5080   -4.6830   24.9170 C   0  0  0  0  0  0  0  0  0  0  0  0
  -21.9870   -4.0940   23.7340 C   0  0  0  0  0  3  0  0  0  0  0  0
  -22.1270   -4.8700   22.5690 C   0  0  0  0  0  0  0  0  0  0  0  0
  -22.5690   -4.2940   21.4250 F   0  0  0  0  0  0  0  0  0  0  0  0
  -21.3690   -3.9310   26.0350 F   0  0  0  0  0  0  0  0  0  0  0  0
  -22.9630  -13.5960   21.2370 C   0  0  0  0  0  0  0  0  0  0  0  0
  -22.2950  -12.8700   22.1270 N   0  0  0  0  0  0  0  0  0  0  0  0
  -22.4930  -14.6380   20.7820 O   0  0  0  0  0  0  0  0  0  0  0  0
  -22.6900  -12.0250   22.5120 H   0  0  0  0  0  0  0  0  0  0  0  0
  -21.3770  -13.1640   22.4300 H   0  0  0  0  0  0  0  0  0  0  0  0
  -25.5300  -15.2860   20.2860 N   0  0  0  0  0  0  0  0  0  0  0  0
  -24.7680  -15.9330   20.4550 H   0  0  0  0  0  0  0  0  0  0  0  0
  -26.3320  -15.7260   19.8530 H   0  0  0  0  0  0  0  0  0  0  0  0
  1  5  1  0
  2  1  1  0
  2  4  1  0
  4  7  1  0
  4  3  1  0
  5 48  1  0
  5  3  1  0
  6  1  2  0
  8 19  2  0
  9  7  1  0
  9 14  1  0
 10 18  1  0
 10 20  1  0
 11 17  1  0
 11 13  1  0
 12 18  1  0
 13 12  1  0
 14 13  2  0
 15 16  1  0
 15  9  2  0
 16 11  2  0
 17 10  1  0
 18  8  1  0
 20 22  2  0
 21 20  1  0
 23 21  1  0
 24 33  2  0
 24 29  1  0
 25 21  1  0
 25 29  1  0
 26 25  1  0
 27 28  1  0
 27 26  1  0
 28 24  1  0
 29 30  2  0
 30 31  1  0
 32 31  2  0
 33 32  1  0
 34  8  1  0
 34 35  1  0
 34 44  1  0
 35 38  1  0
 36 40  1  0
 36 35  1  0
 37 36  2  0
 40 39  1  0
 42 40  1  0
 42 43  1  0
 42 41  1  0
 44 47  1  1
 44 45  1  0
 46 44  1  0
 49 51  2  0
 49 50  1  0
 50 52  2  0
 51 54  1  0
 52 53  1  0
 52 48  1  0
 53 55  1  0
 54 64  1  0
 54 53  2  0
 56 64  1  0
 57 62  1  0
 58 59  1  0
 58 57  1  0
 60 59  1  0
 60 69  1  0
 60 61  1  0
 62 56  1  0
 62 61  1  0
 63 56  2  0
 64 65  1  0
 66 67  2  0
 67 86  1  0
 68 67  1  0
 68 71  1  0
 69 70  1  0
 69 66  1  0
 70 68  2  0
 71 72  1  0
 72 73  2  0
 74 77  1  0
 74 73  1  0
 75 74  2  0
 76 75  1  0
 76 71  2  0
 77 78  1  0
 78 79  1  0
 79 80  2  0
 81 80  1  0
 81 85  1  0
 82 81  2  0
 83 78  2  0
 83 82  1  0
 84 83  1  0
 86 87  1  0
 87 90  1  0
 87 89  1  0
 88 86  2  0
 91 66  1  0
 91 92  1  0
 93 91  1  0
M  ISO  4   4 101   7 101  56 100  64 100
M  END
>  <TORSDO>  (2) 
F 18

>  <SCORE>  (2) 
-13.428

>  <name>  (2) 
1

>  <ligand_id>  (2) 
1

>  <original_smiles>  (2) 
[H]c1c([H])c(N([H])C(=O)N2C([H])([H])C([H])([H])C([H])([H])C([H])(n3nc(-c4c([H])c([H])c(Oc5c([H])c([H])c(F)c([H])c5F)c([H])c4[H])c(C(=O)N([H])[H])c3N([H])[H])C2([H])[H])c(C([H])([H])[H])c(C([H])([H])N2C(=O)C([H])([H])C([H])(Oc3c([H])c([H])c4c(c3[H])C([H])([H])N(C(=O)C([H])(N([H])C(=O)C([H])(N([H])C([H])([H])[H])C([H])([H])[H])C(C([H])([H])[H])(C([H])([H])[H])C([H])([H])[H])C([H])(C(=O)N([H])C3([H])c5c([H])c([H])c([H])c([H])c5C([H])([H])C([H])([H])C3([H])[H])C4([H])[H])C2([H])[H])c1[H]

>  <smiles>  (2) 
[H]c1c([H])c(N([H])C(=O)N2C([H])([H])C([H])([H])C([H])([H])C([H])(n3nc(-c4c([H])c([H])c(Oc5c([H])c([H])c(F)c([H])c5F)c([H])c4[H])c(C(=O)N([H])[H])c3N([H])[H])C2([H])[H])c(C([H])([H])[H])c(C([H])([H])N2C(=O)C([H])([H])C([H])(Oc3c([H])c([H])c4c(c3[H])C([H])([H])N(C(=O)C([H])(N([H])C(=O)C([H])(N([H])C([H])([H])[H])C([H])([H])[H])C(C([H])([H])[H])(C([H])([H])[H])C([H])([H])[H])C([H])(C(=O)N([H])C3([H])c5c([H])c([H])c([H])c([H])c5C([H])([H])C([H])([H])C3([H])[H])C4([H])[H])C2([H])[H])c1[H]

$$$$
2:0:0
     RDKit          3D

 93102  0  0  1  0  0  0  0  0999 V2000
  -28.5930  -22.6360   18.7730 C   0  0  0  0  0  0  0  0  0  0  0  0
  -28.8790  -21.8190   17.7470 C   0  0  0  0  0  2  0  0  0  0  0  0
  -28.1800  -24.1340   18.6750 C   0  0  0  0  0  2  0  0  0  0  0  0
  -28.2820  -23.5020   20.9590 C   0  0  0  0  0  2  0  0  0  0  0  0
  -28.4670  -24.8050   20.0290 C   0  0  0  0  0  3  0  0  0  0  0  0
  -28.7910  -22.2400   20.2150 N   0  0  1  0  0  4  0  0  0  0  0  0
  -29.7860  -22.2300   20.3850 H   0  0  0  0  0  0  0  0  0  0  0  0
  -28.2740  -26.3200   20.3050 O   0  0  0  0  0  0  0  0  0  0  0  0
  -24.5680  -31.8630   23.2410 C   0  0  0  0  0  0  0  0  0  0  0  0
  -27.1420  -27.1870   20.2160 C   0  0  0  0  0  0  0  0  0  0  0  0
  -23.3600  -30.4670   21.6030 C   0  0  0  0  0  3  0  0  0  0  0  0
  -24.8010  -28.8900   20.1740 C   0  0  0  0  0  0  0  0  0  0  0  0
  -25.9050  -30.7510   21.4180 C   0  0  0  0  0  2  0  0  0  0  0  0
  -25.9740  -29.3580   20.7730 C   0  0  0  0  0  0  0  0  0  0  0  0
  -27.1420  -28.5230   20.7720 C   0  0  0  0  0  3  0  0  0  0  0  0
  -25.9430  -26.7950   19.5860 C   0  0  0  0  0  3  0  0  0  0  0  0
  -24.7950  -27.6210   19.5650 C   0  0  0  0  0  3  0  0  0  0  0  0
  -23.5700  -29.7830   20.2240 C   0  0  0  0  0  2  0  0  0  0  0  0
  -24.6310  -31.0500   22.1430 N   0  0  0  0  0  0  0  0  0  0  0  0
  -23.4870  -32.1440   23.7780 O   0  0  0  0  0  0  0  0  0  0  0  0
  -22.6890  -29.4590   22.5670 C   0  0  0  0  0  0  0  0  0  0  0  0
  -21.3620  -29.2850   22.4430 N   0  0  0  0  0  0  0  0  0  0  0  0
  -23.3650  -28.8360   23.3910 O   0  0  0  0  0  0  0  0  0  0  0  0
  -20.8740  -29.8380   21.7500 H   0  0  0  0  0  0  0  0  0  0  0  0
  -17.9850  -28.0800   22.9410 C   0  0  0  0  0  0  0  0  0  0  0  0
  -20.5430  -28.3470   23.2150 C   0  0  0  0  0  3  0  0  0  0  0  0
  -20.6480  -26.9150   22.6450 C   0  0  0  0  0  2  0  0  0  0  0  0
  -19.5500  -26.5890   21.6270 C   0  0  0  0  0  2  0  0  0  0  0  0
  -18.1660  -26.7310   22.2670 C   0  0  0  0  0  2  0  0  0  0  0  0
  -19.1020  -28.8470   23.3720 C   0  0  0  0  0  0  0  0  0  0  0  0
  -18.8770  -30.1090   23.9620 C   0  0  0  0  0  3  0  0  0  0  0  0
  -17.5710  -30.6070   24.1250 C   0  0  0  0  0  3  0  0  0  0  0  0
  -16.4700  -29.8380   23.7100 C   0  0  0  0  0  3  0  0  0  0  0  0
  -16.6780  -28.5770   23.1250 C   0  0  0  0  0  3  0  0  0  0  0  0
  -25.8510  -32.4950   23.8640 C   0  0  0  0  0  3  0  0  0  0  0  0
  -25.5470  -33.8970   24.1930 N   0  0  0  0  0  0  0  0  0  0  0  0
  -25.8770  -34.9500   23.4320 C   0  0  0  0  0  0  0  0  0  0  0  0
  -26.5370  -34.8440   22.3960 O   0  0  0  0  0  0  0  0  0  0  0  0
  -24.9650  -34.0550   25.0020 H   0  0  0  0  0  0  0  0  0  0  0  0
  -24.1480  -36.7460   23.0950 C   0  0  0  0  0  1  0  0  0  0  0  0
  -25.3980  -36.3410   23.8940 C   0  0  0  0  0  3  0  0  0  0  0  0
  -27.5410  -37.2270   24.6990 C   0  0  0  0  0  1  0  0  0  0  0  0
  -26.4300  -37.3930   23.7650 N   0  0  0  0  0  0  0  0  0  0  0  0
  -26.0270  -38.3150   23.9110 H   0  0  0  0  0  0  0  0  0  0  0  0
  -26.3600  -31.7290   25.1460 C   0  0  1  0  0  0  0  0  0  0  0  0
  -25.2650  -31.5010   26.2130 C   0  0  0  0  0  1  0  0  0  0  0  0
  -26.9340  -30.3460   24.7610 C   0  0  0  0  0  1  0  0  0  0  0  0
  -27.5140  -32.5200   25.8080 C   0  0  0  0  0  1  0  0  0  0  0  0
  -28.3240  -20.8150   20.7040 C   0  0  0  0  0  2  0  0  0  0  0  0
  -28.8350  -16.9660   19.3560 C   0  0  0  0  0  3  0  0  0  0  0  0
  -29.9370  -18.6920   21.2060 C   0  0  0  0  0  3  0  0  0  0  0  0
  -29.8260  -16.3460   20.1890 C   0  0  0  0  0  0  0  0  0  0  0  0
  -28.4040  -18.3530   19.4400 C   0  0  0  0  0  0  0  0  0  0  0  0
  -30.3690  -17.3060   21.1220 C   0  0  0  0  0  0  0  0  0  0  0  0
  -28.9420  -19.3130   20.3800 C   0  0  0  0  0  0  0  0  0  0  0  0
  -27.3160  -18.7600   18.4570 C   0  0  0  0  0  1  0  0  0  0  0  0
  -31.4510  -16.8610   22.0950 C   0  0  0  0  0  1  0  0  0  0  0  0
  -30.4590  -14.8940   19.9210 C   0  0  0  0  0  0  0  0  0  0  0  0
  -30.2020  -12.5820   18.9510 C   0  0  0  0  0  2  0  0  0  0  0  0
  -29.1970  -12.5910   17.7780 C   0  0  0  0  0  2  0  0  0  0  0  0
  -27.7670  -12.3720   18.3050 C   0  0  0  0  0  2  0  0  0  0  0  0
  -27.4440  -13.2780   19.5210 C   0  0  0  0  0  3  0  0  0  0  0  0
  -28.5690  -13.2850   20.5740 C   0  0  0  0  0  2  0  0  0  0  0  0
  -29.8070  -13.6680   19.8920 N   0  0  0  0  0  0  0  0  0  0  0  0
  -31.6390  -14.8910   19.5510 O   0  0  0  0  0  0  0  0  0  0  0  0
  -25.1280  -13.8400   20.4460 C   0  0  0  0  0  0  0  0  0  0  0  0
  -24.0920  -13.0550   20.8690 C   0  0  0  0  0  0  0  0  0  0  0  0
  -24.5520  -11.7050   20.7740 C   0  0  0  0  0  0  0  0  0  0  0  0
  -26.1480  -12.9670   20.1080 N   0  0  0  0  0  0  0  0  0  0  0  0
  -25.8180  -11.6780   20.3730 N   0  0  0  0  0  0  0  0  0  0  0  0
  -23.8390  -10.4380   20.9850 C   0  0  0  0  0  0  0  0  0  0  0  0
  -24.3170   -9.4620   21.8870 C   0  0  0  0  0  3  0  0  0  0  0  0
  -23.6020   -8.2600   22.0860 C   0  0  0  0  0  3  0  0  0  0  0  0
  -22.3970   -8.0260   21.3820 C   0  0  0  0  0  0  0  0  0  0  0  0
  -21.9380   -8.9920   20.4690 C   0  0  0  0  0  3  0  0  0  0  0  0
  -22.6530  -10.1850   20.2680 C   0  0  0  0  0  3  0  0  0  0  0  0
  -21.6490   -6.8790   21.4920 O   0  0  0  0  0  0  0  0  0  0  0  0
  -21.6480   -6.1290   22.6410 C   0  0  0  0  0  0  0  0  0  0  0  0
  -21.2550   -6.6720   23.8840 C   0  0  0  0  0  3  0  0  0  0  0  0
  -21.2010   -5.8480   25.0260 C   0  0  0  0  0  3  0  0  0  0  0  0
  -21.5290   -4.4830   24.9270 C   0  0  0  0  0  0  0  0  0  0  0  0
  -21.9140   -3.9390   23.6880 C   0  0  0  0  0  3  0  0  0  0  0  0
  -21.9700   -4.7600   22.5480 C   0  0  0  0  0  0  0  0  0  0  0  0
  -22.3210   -4.2280   21.3530 F   0  0  0  0  0  0  0  0  0  0  0  0
  -21.4690   -3.6890   26.0210 F   0  0  0  0  0  0  0  0  0  0  0  0
  -22.7170  -13.5250   21.2470 C   0  0  0  0  0  0  0  0  0  0  0  0
  -22.0500  -12.8080   22.1430 N   0  0  0  0  0  0  0  0  0  0  0  0
  -22.2460  -14.5630   20.7830 O   0  0  0  0  0  0  0  0  0  0  0  0
  -22.4450  -11.9660   22.5360 H   0  0  0  0  0  0  0  0  0  0  0  0
  -21.1320  -13.1050   22.4430 H   0  0  0  0  0  0  0  0  0  0  0  0
  -25.2850  -15.2140   20.2940 N   0  0  0  0  0  0  0  0  0  0  0  0
  -24.5380  -15.8710   20.4960 H   0  0  0  0  0  0  0  0  0  0  0  0
  -26.1350  -15.6630   19.9770 H   0  0  0  0  0  0  0  0  0  0  0  0
  1  6  1  0
  2  1  2  0
  3  1  1  0
  3  5  1  0
  5  8  1  0
  5  4  1  0
  6  7  1  6
  6 49  1  0
  6  4  1  0
  9 20  2  0
 10  8  1  0
 10 15  1  0
 11 19  1  0
 11 21  1  0
 12 18  1  0
 12 14  1  0
 13 19  1  0
 14 13  1  0
 15 14  2  0
 16 10  2  0
 17 16  1  0
 17 12  2  0
 18 11  1  0
 19  9  1  0
 21 23  2  0
 22 21  1  0
 24 22  1  0
 25 34  2  0
 25 30  1  0
 26 22  1  0
 26 30  1  0
 27 26  1  0
 28 29  1  0
 28 27  1  0
 29 25  1  0
 30 31  2  0
 31 32  1  0
 33 32  2  0
 34 33  1  0
 35  9  1  0
 35 36  1  0
 35 45  1  0
 36 39  1  0
 37 41  1  0
 37 36  1  0
 38 37  2  0
 41 40  1  0
 43 41  1  0
 43 44  1  0
 43 42  1  0
 45 48  1  1
 45 46  1  0
 47 45  1  0
 50 53  2  0
 50 52  1  0
 52 54  2  0
 53 55  1  0
 54 51  1  0
 54 57  1  0
 55 49  1  0
 55 51  2  0
 56 53  1  0
 58 52  1  0
 59 64  1  0
 60 61  1  0
 60 59  1  0
 62 61  1  0
 62 69  1  0
 62 63  1  0
 64 58  1  0
 64 63  1  0
 65 58  2  0
 66 67  2  0
 67 86  1  0
 68 67  1  0
 68 71  1  0
 69 70  1  0
 69 66  1  0
 70 68  2  0
 71 72  1  0
 72 73  2  0
 74 77  1  0
 74 73  1  0
 75 74  2  0
 76 75  1  0
 76 71  2  0
 77 78  1  0
 78 79  1  0
 79 80  2  0
 81 80  1  0
 81 85  1  0
 82 81  2  0
 83 78  2  0
 83 82  1  0
 84 83  1  0
 86 87  1  0
 87 90  1  0
 87 89  1  0
 88 86  2  0
 91 66  1  0
 91 92  1  0
 93 91  1  0
M  ISO  4   5 101   8 101  52 100  58 100
M  END
>  <TORSDO>  (3) 
F 18

>  <SCORE>  (3) 
-14.342

>  <name>  (3) 
2

>  <ligand_id>  (3) 
2

>  <original_smiles>  (3) 
[H]C([H])=C1C([H])([H])C([H])(Oc2c([H])c([H])c3c(c2[H])C([H])([H])N(C(=O)C([H])(N([H])C(=O)C([H])(N([H])C([H])([H])[H])C([H])([H])[H])C(C([H])([H])[H])(C([H])([H])[H])C([H])([H])[H])C([H])(C(=O)N([H])C2([H])c4c([H])c([H])c([H])c([H])c4C([H])([H])C([H])([H])C2([H])[H])C3([H])[H])C([H])([H])[N+]1([H])C([H])([H])c1c([H])c(C([H])([H])[H])c(C(=O)N2C([H])([H])C([H])([H])C([H])([H])C([H])(n3nc(-c4c([H])c([H])c(Oc5c([H])c([H])c(F)c([H])c5F)c([H])c4[H])c(C(=O)N([H])[H])c3N([H])[H])C2([H])[H])c([H])c1C([H])([H])[H]

>  <smiles>  (3) 
[H]C([H])=C1C([H])([H])C([H])(Oc2c([H])c([H])c3c(c2[H])C([H])([H])N(C(=O)C([H])(N([H])C(=O)C([H])(N([H])C([H])([H])[H])C([H])([H])[H])C(C([H])([H])[H])(C([H])([H])[H])C([H])([H])[H])C([H])(C(=O)N([H])C2([H])c4c([H])c([H])c([H])c([H])c4C([H])([H])C([H])([H])C2([H])[H])C3([H])[H])C([H])([H])[N+]1([H])C([H])([H])c1c([H])c(C([H])([H])[H])c(C(=O)N2C([H])([H])C([H])([H])C([H])([H])C([H])(n3nc(-c4c([H])c([H])c(Oc5c([H])c([H])c(F)c([H])c5F)c([H])c4[H])c(C(=O)N([H])[H])c3N([H])[H])C2([H])[H])c([H])c1C([H])([H])[H]

$$$$
3:0:0
     RDKit          3D

 96105  0  0  1  0  0  0  0  0999 V2000
  -29.1220  -21.8530   21.2490 C   0  0  0  0  0  2  0  0  0  0  0  0
  -32.3220  -19.7000   20.8820 C   0  0  0  0  0  3  0  0  0  0  0  0
  -29.5670  -19.3610   20.6200 C   0  0  0  0  0  3  0  0  0  0  0  0
  -31.8230  -18.4690   20.4180 C   0  0  0  0  0  0  0  0  0  0  0  0
  -31.4700  -20.7790   21.1810 C   0  0  0  0  0  0  0  0  0  0  0  0
  -30.4230  -18.2520   20.3290 C   0  0  0  0  0  0  0  0  0  0  0  0
  -30.0690  -20.6440   21.0060 C   0  0  0  0  0  0  0  0  0  0  0  0
  -32.8370  -17.4340   19.9680 C   0  0  0  0  0  1  0  0  0  0  0  0
  -32.1180  -22.0680   21.6610 C   0  0  0  0  0  1  0  0  0  0  0  0
  -29.8350  -16.9290   19.7570 C   0  0  0  0  0  2  0  0  0  0  0  0
  -30.5770  -14.5620   20.2740 C   0  0  0  0  0  0  0  0  0  0  0  0
  -30.2820  -12.3500   19.2430 C   0  0  0  0  0  2  0  0  0  0  0  0
  -29.3300  -12.5240   18.0390 C   0  0  0  0  0  2  0  0  0  0  0  0
  -27.8640  -12.3880   18.4880 C   0  0  0  0  0  2  0  0  0  0  0  0
  -27.5340  -13.2390   19.7450 C   0  0  0  0  0  3  0  0  0  0  0  0
  -28.6090  -13.0720   20.8460 C   0  0  0  0  0  2  0  0  0  0  0  0
  -29.9190  -13.3670   20.2480 N   0  0  0  0  0  0  0  0  0  0  0  0
  -31.7130  -14.6700   19.8230 O   0  0  0  0  0  0  0  0  0  0  0  0
  -29.8310  -15.6640   20.5510 N   0  0  0  0  0  0  0  0  0  0  0  0
  -28.9510  -15.4640   20.9990 H   0  0  0  0  0  0  0  0  0  0  0  0
  -25.1480  -13.8300   20.4930 C   0  0  0  0  0  0  0  0  0  0  0  0
  -24.0870  -13.0560   20.8790 C   0  0  0  0  0  0  0  0  0  0  0  0
  -24.5520  -11.7060   20.8400 C   0  0  0  0  0  0  0  0  0  0  0  0
  -26.1910  -12.9530   20.2460 N   0  0  0  0  0  0  0  0  0  0  0  0
  -25.8390  -11.6690   20.5130 N   0  0  0  0  0  0  0  0  0  0  0  0
  -23.8310  -10.4430   21.0380 C   0  0  0  0  0  0  0  0  0  0  0  0
  -24.2830   -9.4690   21.9560 C   0  0  0  0  0  3  0  0  0  0  0  0
  -23.5640   -8.2700   22.1420 C   0  0  0  0  0  3  0  0  0  0  0  0
  -22.3730   -8.0350   21.4110 C   0  0  0  0  0  0  0  0  0  0  0  0
  -21.9420   -8.9960   20.4810 C   0  0  0  0  0  3  0  0  0  0  0  0
  -22.6630  -10.1870   20.2940 C   0  0  0  0  0  3  0  0  0  0  0  0
  -21.6220   -6.8890   21.5090 O   0  0  0  0  0  0  0  0  0  0  0  0
  -21.6090   -6.1320   22.6530 C   0  0  0  0  0  0  0  0  0  0  0  0
  -21.2280   -6.6720   23.9010 C   0  0  0  0  0  3  0  0  0  0  0  0
  -21.1610   -5.8410   25.0360 C   0  0  0  0  0  3  0  0  0  0  0  0
  -21.4640   -4.4710   24.9270 C   0  0  0  0  0  0  0  0  0  0  0  0
  -21.8380   -3.9310   23.6840 C   0  0  0  0  0  3  0  0  0  0  0  0
  -21.9060   -4.7580   22.5500 C   0  0  0  0  0  0  0  0  0  0  0  0
  -22.2460   -4.2280   21.3510 F   0  0  0  0  0  0  0  0  0  0  0  0
  -21.3950   -3.6710   26.0170 F   0  0  0  0  0  0  0  0  0  0  0  0
  -22.6940  -13.5310   21.1790 C   0  0  0  0  0  0  0  0  0  0  0  0
  -21.9790  -12.8260   22.0500 N   0  0  0  0  0  0  0  0  0  0  0  0
  -22.2490  -14.5620   20.6780 O   0  0  0  0  0  0  0  0  0  0  0  0
  -22.3550  -11.9940   22.4800 H   0  0  0  0  0  0  0  0  0  0  0  0
  -21.0460  -13.1260   22.2930 H   0  0  0  0  0  0  0  0  0  0  0  0
  -25.3110  -15.1990   20.3090 N   0  0  0  0  0  0  0  0  0  0  0  0
  -24.5560  -15.8640   20.4390 H   0  0  0  0  0  0  0  0  0  0  0  0
  -26.1550  -15.6250   19.9490 H   0  0  0  0  0  0  0  0  0  0  0  0
  -28.6740  -23.1060   19.0720 C   0  0  0  0  0  0  0  0  0  0  0  0
  -28.4900  -22.0610   18.2470 C   0  0  0  0  0  2  0  0  0  0  0  0
  -28.1600  -24.5230   18.8930 C   0  0  0  0  0  2  0  0  0  0  0  0
  -29.2650  -24.3970   21.0170 C   0  0  0  0  0  2  0  0  0  0  0  0
  -28.1410  -25.1660   20.2830 C   0  0  0  0  0  3  0  0  0  0  0  0
  -29.3970  -23.0470   20.3740 N   0  0  1  0  0  4  0  0  0  0  0  0
  -30.3830  -22.9540   20.1750 H   0  0  0  0  0  0  0  0  0  0  0  0
  -28.3080  -26.6150   20.2470 O   0  0  0  0  0  0  0  0  0  0  0  0
  -24.5800  -31.9100   23.2400 C   0  0  0  0  0  0  0  0  0  0  0  0
  -27.1620  -27.3980   20.1870 C   0  0  0  0  0  0  0  0  0  0  0  0
  -23.3580  -30.5130   21.6100 C   0  0  0  0  0  3  0  0  0  0  0  0
  -24.7900  -28.9640   20.1800 C   0  0  0  0  0  0  0  0  0  0  0  0
  -25.8850  -30.8490   21.3920 C   0  0  0  0  0  2  0  0  0  0  0  0
  -25.9590  -29.4710   20.7600 C   0  0  0  0  0  0  0  0  0  0  0  0
  -27.1480  -28.6990   20.7560 C   0  0  0  0  0  3  0  0  0  0  0  0
  -25.9720  -26.9290   19.5820 C   0  0  0  0  0  3  0  0  0  0  0  0
  -24.7940  -27.6950   19.5840 C   0  0  0  0  0  3  0  0  0  0  0  0
  -23.5530  -29.8330   20.2300 C   0  0  0  0  0  2  0  0  0  0  0  0
  -24.6280  -31.1050   22.1390 N   0  0  0  0  0  0  0  0  0  0  0  0
  -23.5040  -32.1910   23.7820 O   0  0  0  0  0  0  0  0  0  0  0  0
  -22.7040  -29.4970   22.5770 C   0  0  0  0  0  0  0  0  0  0  0  0
  -21.3770  -29.3220   22.4560 N   0  0  0  0  0  0  0  0  0  0  0  0
  -23.3860  -28.8710   23.3910 O   0  0  0  0  0  0  0  0  0  0  0  0
  -20.8860  -29.8760   21.7690 H   0  0  0  0  0  0  0  0  0  0  0  0
  -18.0000  -28.1420   22.9680 C   0  0  0  0  0  0  0  0  0  0  0  0
  -20.5590  -28.3920   23.2360 C   0  0  0  0  0  3  0  0  0  0  0  0
  -20.6570  -26.9570   22.6690 C   0  0  0  0  0  2  0  0  0  0  0  0
  -19.5520  -26.6330   21.6580 C   0  0  0  0  0  2  0  0  0  0  0  0
  -18.1710  -26.7880   22.3020 C   0  0  0  0  0  2  0  0  0  0  0  0
  -19.1210  -28.9030   23.3930 C   0  0  0  0  0  0  0  0  0  0  0  0
  -18.9060  -30.1710   23.9730 C   0  0  0  0  0  3  0  0  0  0  0  0
  -17.6020  -30.6780   24.1360 C   0  0  0  0  0  3  0  0  0  0  0  0
  -16.4970  -29.9130   23.7270 C   0  0  0  0  0  3  0  0  0  0  0  0
  -16.6970  -28.6480   23.1490 C   0  0  0  0  0  3  0  0  0  0  0  0
  -25.8730  -32.5340   23.8490 C   0  0  0  0  0  3  0  0  0  0  0  0
  -26.3990  -31.7570   25.1170 C   0  0  1  0  0  0  0  0  0  0  0  0
  -25.3180  -31.5180   26.1960 C   0  0  0  0  0  1  0  0  0  0  0  0
  -26.9690  -30.3790   24.7080 C   0  0  0  0  0  1  0  0  0  0  0  0
  -27.5600  -32.5430   25.7700 C   0  0  0  0  0  1  0  0  0  0  0  0
  -25.5720  -33.9330   24.1860 N   0  0  0  0  0  0  0  0  0  0  0  0
  -25.9020  -34.9850   23.4240 C   0  0  0  0  0  0  0  0  0  0  0  0
  -26.5660  -34.8790   22.3880 O   0  0  0  0  0  0  0  0  0  0  0  0
  -24.9870  -34.0910   24.9940 H   0  0  0  0  0  0  0  0  0  0  0  0
  -24.1830  -36.7850   23.0740 C   0  0  0  0  0  1  0  0  0  0  0  0
  -25.4230  -36.3740   23.8840 C   0  0  0  0  0  3  0  0  0  0  0  0
  -27.5660  -37.2460   24.7090 C   0  0  0  0  0  1  0  0  0  0  0  0
  -26.4610  -37.4220   23.7710 N   0  0  0  0  0  0  0  0  0  0  0  0
  -26.0590  -38.3440   23.9200 H   0  0  0  0  0  0  0  0  0  0  0  0
  2  5  1  0
  3  7  1  0
  4  2  2  0
  5  9  1  0
  6  4  1  0
  6  3  2  0
  7  5  2  0
  7  1  1  0
  8  4  1  0
 10  6  1  0
 10 19  1  0
 11 19  1  0
 12 17  1  0
 13 14  1  0
 13 12  1  0
 15 14  1  0
 15 24  1  0
 15 16  1  0
 17 11  1  0
 17 16  1  0
 18 11  2  0
 19 20  1  0
 21 22  2  0
 22 41  1  0
 23 22  1  0
 23 26  1  0
 24 21  1  0
 24 25  1  0
 25 23  2  0
 26 27  1  0
 27 28  2  0
 29 32  1  0
 29 28  1  0
 30 29  2  0
 31 30  1  0
 31 26  2  0
 32 33  1  0
 33 34  1  0
 34 35  2  0
 36 35  1  0
 36 40  1  0
 37 36  2  0
 38 33  2  0
 38 37  1  0
 39 38  1  0
 41 42  1  0
 42 45  1  0
 42 44  1  0
 43 41  2  0
 46 47  1  0
 46 21  1  0
 48 46  1  0
 49 54  1  0
 50 49  2  0
 51 49  1  0
 51 53  1  0
 53 56  1  0
 53 52  1  0
 54 52  1  0
 54  1  1  0
 54 55  1  6
 57 68  2  0
 58 56  1  0
 58 63  1  0
 59 67  1  0
 59 69  1  0
 60 66  1  0
 60 62  1  0
 61 67  1  0
 62 61  1  0
 63 62  2  0
 64 65  1  0
 64 58  2  0
 65 60  2  0
 66 59  1  0
 67 57  1  0
 69 71  2  0
 70 69  1  0
 72 70  1  0
 73 82  2  0
 73 78  1  0
 74 70  1  0
 74 78  1  0
 75 74  1  0
 76 77  1  0
 76 75  1  0
 77 73  1  0
 78 79  2  0
 79 80  1  0
 81 80  2  0
 82 81  1  0
 83 57  1  0
 83 88  1  0
 83 84  1  0
 84 87  1  1
 84 85  1  0
 86 84  1  0
 88 91  1  0
 89 93  1  0
 89 88  1  0
 90 89  2  0
 93 92  1  0
 95 93  1  0
 95 96  1  0
 95 94  1  0
M  ISO  4  11 100  19 100  53 101  56 101
M  END
>  <TORSDO>  (4) 
F 19

>  <SCORE>  (4) 
-14.318

>  <name>  (4) 
3

>  <ligand_id>  (4) 
3

>  <original_smiles>  (4) 
[H]C([H])=C1C([H])([H])C([H])(Oc2c([H])c([H])c3c(c2[H])C([H])([H])N(C(=O)C([H])(N([H])C(=O)C([H])(N([H])C([H])([H])[H])C([H])([H])[H])C(C([H])([H])[H])(C([H])([H])[H])C([H])([H])[H])C([H])(C(=O)N([H])C2([H])c4c([H])c([H])c([H])c([H])c4C([H])([H])C([H])([H])C2([H])[H])C3([H])[H])C([H])([H])[N+]1([H])C([H])([H])c1c([H])c(C([H])([H])N([H])C(=O)N2C([H])([H])C([H])([H])C([H])([H])C([H])(n3nc(-c4c([H])c([H])c(Oc5c([H])c([H])c(F)c([H])c5F)c([H])c4[H])c(C(=O)N([H])[H])c3N([H])[H])C2([H])[H])c(C([H])([H])[H])c([H])c1C([H])([H])[H]

>  <smiles>  (4) 
[H]C([H])=C1C([H])([H])C([H])(Oc2c([H])c([H])c3c(c2[H])C([H])([H])N(C(=O)C([H])(N([H])C(=O)C([H])(N([H])C([H])([H])[H])C([H])([H])[H])C(C([H])([H])[H])(C([H])([H])[H])C([H])([H])[H])C([H])(C(=O)N([H])C2([H])c4c([H])c([H])c([H])c([H])c4C([H])([H])C([H])([H])C2([H])[H])C3([H])[H])C([H])([H])[N+]1([H])C([H])([H])c1c([H])c(C([H])([H])N([H])C(=O)N2C([H])([H])C([H])([H])C([H])([H])C([H])(n3nc(-c4c([H])c([H])c(Oc5c([H])c([H])c(F)c([H])c5F)c([H])c4[H])c(C(=O)N([H])[H])c3N([H])[H])C2([H])[H])c(C([H])([H])[H])c([H])c1C([H])([H])[H]

$$$$
4:0:0
     RDKit          3D

 95104  0  0  1  0  0  0  0  0999 V2000
  -31.8930  -23.5060   20.1060 C   0  0  0  0  0  2  0  0  0  0  0  0
  -32.4430  -22.4750   19.4680 C   0  0  0  0  0  2  0  0  0  0  0  0
  -30.4640  -23.3540   20.1200 C   0  0  0  0  0  3  0  0  0  0  0  0
  -31.3950  -21.5590   19.0820 C   0  0  0  0  0  0  0  0  0  0  0  0
  -29.7340  -24.4910   20.4010 C   0  0  0  0  0  2  0  0  0  0  0  0
  -30.2490  -22.0060   19.6560 N   0  0  0  0  0  0  0  0  0  0  0  0
  -31.5350  -20.5330   18.4080 O   0  0  0  0  0  0  0  0  0  0  0  0
  -29.2030  -20.9930   20.0220 C   0  0  0  0  0  2  0  0  0  0  0  0
  -31.2270  -18.6380   22.3390 C   0  0  0  0  0  3  0  0  0  0  0  0
  -30.6240  -19.7630   21.7480 C   0  0  0  0  0  3  0  0  0  0  0  0
  -30.9680  -17.3420   21.8570 C   0  0  0  0  0  3  0  0  0  0  0  0
  -29.7480  -19.6370   20.6460 C   0  0  0  0  0  0  0  0  0  0  0  0
  -29.4740  -18.2950   20.1660 C   0  0  0  0  0  0  0  0  0  0  0  0
  -30.0910  -17.1290   20.7710 C   0  0  0  0  0  0  0  0  0  0  0  0
  -28.5400  -18.1120   18.9760 C   0  0  0  0  0  1  0  0  0  0  0  0
  -30.5710  -14.6440   20.2660 C   0  0  0  0  0  0  0  0  0  0  0  0
  -30.3290  -12.4080   19.2030 C   0  0  0  0  0  2  0  0  0  0  0  0
  -29.3720  -12.5300   17.9960 C   0  0  0  0  0  2  0  0  0  0  0  0
  -27.9060  -12.3670   18.4450 C   0  0  0  0  0  2  0  0  0  0  0  0
  -27.5560  -13.2460   19.6760 C   0  0  0  0  0  3  0  0  0  0  0  0
  -28.6270  -13.1160   20.7800 C   0  0  0  0  0  2  0  0  0  0  0  0
  -29.9260  -13.4390   20.1750 N   0  0  0  0  0  0  0  0  0  0  0  0
  -31.7600  -14.7560   19.9530 O   0  0  0  0  0  0  0  0  0  0  0  0
  -29.7670  -15.7470   20.4180 N   0  0  0  0  0  0  0  0  0  0  0  0
  -28.7830  -15.5470   20.3470 H   0  0  0  0  0  0  0  0  0  0  0  0
  -25.1770  -13.8590   20.4230 C   0  0  0  0  0  0  0  0  0  0  0  0
  -24.1100  -13.0920   20.8090 C   0  0  0  0  0  0  0  0  0  0  0  0
  -24.5660  -11.7390   20.7800 C   0  0  0  0  0  0  0  0  0  0  0  0
  -26.2140  -12.9710   20.1790 N   0  0  0  0  0  0  0  0  0  0  0  0
  -25.8520  -11.6920   20.4560 N   0  0  0  0  0  0  0  0  0  0  0  0
  -23.8350  -10.4820   20.9860 C   0  0  0  0  0  0  0  0  0  0  0  0
  -24.2710   -9.5190   21.9200 C   0  0  0  0  0  3  0  0  0  0  0  0
  -23.5420   -8.3260   22.1150 C   0  0  0  0  0  3  0  0  0  0  0  0
  -22.3600   -8.0890   21.3730 C   0  0  0  0  0  0  0  0  0  0  0  0
  -21.9400   -9.0420   20.4280 C   0  0  0  0  0  3  0  0  0  0  0  0
  -22.6710  -10.2260   20.2340 C   0  0  0  0  0  3  0  0  0  0  0  0
  -21.6020   -6.9460   21.4750 O   0  0  0  0  0  0  0  0  0  0  0  0
  -21.5660   -6.2080   22.6290 C   0  0  0  0  0  0  0  0  0  0  0  0
  -21.1670   -6.7690   23.8610 C   0  0  0  0  0  3  0  0  0  0  0  0
  -21.0750   -5.9580   25.0090 C   0  0  0  0  0  3  0  0  0  0  0  0
  -21.3740   -4.5840   24.9260 C   0  0  0  0  0  0  0  0  0  0  0  0
  -21.7680   -4.0210   23.6990 C   0  0  0  0  0  3  0  0  0  0  0  0
  -21.8610   -4.8310   22.5540 C   0  0  0  0  0  0  0  0  0  0  0  0
  -22.2200   -4.2790   21.3680 F   0  0  0  0  0  0  0  0  0  0  0  0
  -21.2780   -3.8030   26.0250 F   0  0  0  0  0  0  0  0  0  0  0  0
  -22.7200  -13.5800   21.0940 C   0  0  0  0  0  0  0  0  0  0  0  0
  -21.9960  -12.8970   21.9710 N   0  0  0  0  0  0  0  0  0  0  0  0
  -22.2810  -14.6030   20.5680 O   0  0  0  0  0  0  0  0  0  0  0  0
  -22.3600  -12.0690   22.4220 H   0  0  0  0  0  0  0  0  0  0  0  0
  -21.0620  -13.2070   22.2010 H   0  0  0  0  0  0  0  0  0  0  0  0
  -25.3410  -15.2270   20.2360 N   0  0  0  0  0  0  0  0  0  0  0  0
  -24.5660  -15.8730   20.3450 H   0  0  0  0  0  0  0  0  0  0  0  0
  -26.1780  -15.6730   19.8870 H   0  0  0  0  0  0  0  0  0  0  0  0
  -28.3070  -25.0550   20.1960 C   0  0  0  0  0  2  0  0  0  0  0  0
  -28.3530  -26.5360   20.1900 O   0  0  0  0  0  0  0  0  0  0  0  0
  -24.5860  -31.8540   23.2350 C   0  0  0  0  0  0  0  0  0  0  0  0
  -27.1920  -27.3150   20.1720 C   0  0  0  0  0  0  0  0  0  0  0  0
  -23.3720  -30.4560   21.6000 C   0  0  0  0  0  3  0  0  0  0  0  0
  -24.8160  -28.9000   20.1710 C   0  0  0  0  0  0  0  0  0  0  0  0
  -25.9060  -30.7870   21.3940 C   0  0  0  0  0  2  0  0  0  0  0  0
  -25.9850  -29.4070   20.7520 C   0  0  0  0  0  0  0  0  0  0  0  0
  -27.1750  -28.6280   20.7350 C   0  0  0  0  0  3  0  0  0  0  0  0
  -25.9980  -26.8440   19.5820 C   0  0  0  0  0  3  0  0  0  0  0  0
  -24.8230  -27.6250   19.5780 C   0  0  0  0  0  3  0  0  0  0  0  0
  -23.5770  -29.7720   20.2210 C   0  0  0  0  0  2  0  0  0  0  0  0
  -24.6410  -31.0490   22.1350 N   0  0  0  0  0  0  0  0  0  0  0  0
  -23.5060  -32.1330   23.7760 O   0  0  0  0  0  0  0  0  0  0  0  0
  -22.7150  -29.4430   22.5650 C   0  0  0  0  0  0  0  0  0  0  0  0
  -21.3880  -29.2680   22.4430 N   0  0  0  0  0  0  0  0  0  0  0  0
  -23.3960  -28.8150   23.3800 O   0  0  0  0  0  0  0  0  0  0  0  0
  -20.9010  -29.8240   21.7540 H   0  0  0  0  0  0  0  0  0  0  0  0
  -18.0100  -28.0830   22.9490 C   0  0  0  0  0  0  0  0  0  0  0  0
  -20.5690  -28.3340   23.2140 C   0  0  0  0  0  3  0  0  0  0  0  0
  -20.6670  -26.9030   22.6380 C   0  0  0  0  0  2  0  0  0  0  0  0
  -19.5610  -26.5840   21.6260 C   0  0  0  0  0  2  0  0  0  0  0  0
  -18.1810  -26.7320   22.2730 C   0  0  0  0  0  2  0  0  0  0  0  0
  -19.1310  -28.8420   23.3760 C   0  0  0  0  0  0  0  0  0  0  0  0
  -18.9170  -30.1060   23.9680 C   0  0  0  0  0  3  0  0  0  0  0  0
  -17.6140  -30.6100   24.1360 C   0  0  0  0  0  3  0  0  0  0  0  0
  -16.5070  -29.8470   23.7240 C   0  0  0  0  0  3  0  0  0  0  0  0
  -16.7060  -28.5860   23.1350 C   0  0  0  0  0  3  0  0  0  0  0  0
  -25.8720  -32.4840   23.8530 C   0  0  0  0  0  3  0  0  0  0  0  0
  -26.3950  -31.7090   25.1240 C   0  0  1  0  0  0  0  0  0  0  0  0
  -25.3060  -31.4690   26.1970 C   0  0  0  0  0  1  0  0  0  0  0  0
  -26.9710  -30.3310   24.7220 C   0  0  0  0  0  1  0  0  0  0  0  0
  -27.5490  -32.5000   25.7830 C   0  0  0  0  0  1  0  0  0  0  0  0
  -25.5620  -33.8810   24.1900 N   0  0  0  0  0  0  0  0  0  0  0  0
  -25.8780  -34.9370   23.4280 C   0  0  0  0  0  0  0  0  0  0  0  0
  -26.5290  -34.8380   22.3840 O   0  0  0  0  0  0  0  0  0  0  0  0
  -24.9800  -34.0310   25.0010 H   0  0  0  0  0  0  0  0  0  0  0  0
  -24.1290  -36.7190   23.1250 C   0  0  0  0  0  1  0  0  0  0  0  0
  -25.3960  -36.3220   23.8980 C   0  0  0  0  0  3  0  0  0  0  0  0
  -27.5500  -37.2230   24.6610 C   0  0  0  0  0  1  0  0  0  0  0  0
  -26.4170  -37.3830   23.7530 N   0  0  0  0  0  0  0  0  0  0  0  0
  -26.0090  -38.3010   23.9150 H   0  0  0  0  0  0  0  0  0  0  0  0
  1  3  1  0
  2  1  1  0
  3  5  1  0
  4  2  1  0
  4  6  1  0
  6  8  1  0
  6  3  1  0
  7  4  2  0
  8 12  1  0
 10  9  2  0
 11  9  1  0
 12 10  1  0
 13 12  2  0
 13 14  1  0
 14 11  2  0
 15 13  1  0
 16 24  1  0
 17 22  1  0
 18 19  1  0
 18 17  1  0
 20 19  1  0
 20 29  1  0
 20 21  1  0
 22 16  1  0
 22 21  1  0
 23 16  2  0
 24 14  1  0
 25 24  1  0
 26 27  2  0
 27 46  1  0
 28 27  1  0
 28 31  1  0
 29 26  1  0
 29 30  1  0
 30 28  2  0
 31 32  1  0
 32 33  2  0
 34 37  1  0
 34 33  1  0
 35 34  2  0
 36 35  1  0
 36 31  2  0
 37 38  1  0
 38 39  1  0
 39 40  2  0
 41 40  1  0
 41 45  1  0
 42 41  2  0
 43 38  2  0
 43 42  1  0
 44 43  1  0
 46 47  1  0
 47 50  1  0
 47 49  1  0
 48 46  2  0
 51 52  1  0
 51 26  1  0
 53 51  1  0
 54  5  1  0
 55 54  1  0
 56 67  2  0
 57 55  1  0
 57 62  1  0
 58 66  1  0
 58 68  1  0
 59 65  1  0
 59 61  1  0
 60 66  1  0
 61 60  1  0
 62 61  2  0
 63 57  2  0
 64 63  1  0
 64 59  2  0
 65 58  1  0
 66 56  1  0
 68 70  2  0
 69 68  1  0
 71 69  1  0
 72 81  2  0
 72 77  1  0
 73 69  1  0
 73 77  1  0
 74 73  1  0
 75 76  1  0
 75 74  1  0
 76 72  1  0
 77 78  2  0
 78 79  1  0
 80 79  2  0
 81 80  1  0
 82 56  1  0
 82 87  1  0
 82 83  1  0
 83 86  1  1
 83 84  1  0
 85 83  1  0
 87 90  1  0
 88 92  1  0
 88 87  1  0
 89 88  2  0
 92 91  1  0
 94 92  1  0
 94 95  1  0
 94 93  1  0
M  ISO  4  16 100  24 100  54 101  55 101
M  END
>  <TORSDO>  (5) 
F 19

>  <SCORE>  (5) 
-14.443

>  <name>  (5) 
4

>  <ligand_id>  (5) 
4

>  <original_smiles>  (5) 
[H]C1=C([H])C(=C([H])C([H])([H])Oc2c([H])c([H])c3c(c2[H])C([H])([H])N(C(=O)C([H])(N([H])C(=O)C([H])(N([H])C([H])([H])[H])C([H])([H])[H])C(C([H])([H])[H])(C([H])([H])[H])C([H])([H])[H])C([H])(C(=O)N([H])C2([H])c4c([H])c([H])c([H])c([H])c4C([H])([H])C([H])([H])C2([H])[H])C3([H])[H])N(C([H])([H])c2c([H])c([H])c([H])c(N([H])C(=O)N3C([H])([H])C([H])([H])C([H])([H])C([H])(n4nc(-c5c([H])c([H])c(Oc6c([H])c([H])c(F)c([H])c6F)c([H])c5[H])c(C(=O)N([H])[H])c4N([H])[H])C3([H])[H])c2C([H])([H])[H])C1=O

>  <smiles>  (5) 
[H]C1=C([H])C(=C([H])C([H])([H])Oc2c([H])c([H])c3c(c2[H])C([H])([H])N(C(=O)C([H])(N([H])C(=O)C([H])(N([H])C([H])([H])[H])C([H])([H])[H])C(C([H])([H])[H])(C([H])([H])[H])C([H])([H])[H])C([H])(C(=O)N([H])C2([H])c4c([H])c([H])c([H])c([H])c4C([H])([H])C([H])([H])C2([H])[H])C3([H])[H])N(C([H])([H])c2c([H])c([H])c([H])c(N([H])C(=O)N3C([H])([H])C([H])([H])C([H])([H])C([H])(n4nc(-c5c([H])c([H])c(Oc6c([H])c([H])c(F)c([H])c6F)c([H])c5[H])c(C(=O)N([H])[H])c4N([H])[H])C3([H])[H])c2C([H])([H])[H])C1=O

$$$$
5:0:0
     RDKit          3D

 96105  0  0  1  0  0  0  0  0999 V2000
  -29.7470  -22.8170   21.1650 C   0  0  0  0  0  0  0  0  0  0  0  0
  -28.9720  -22.2180   22.0920 C   0  0  0  0  0  3  0  0  0  0  0  0
  -30.7320  -23.9370   21.4820 C   0  0  0  0  0  2  0  0  0  0  0  0
  -30.3420  -25.2690   20.7830 C   0  0  0  0  0  2  0  0  0  0  0  0
  -28.8020  -24.0240   19.2160 C   0  0  0  0  0  2  0  0  0  0  0  0
  -28.9070  -25.2790   20.1980 C   0  0  0  0  0  3  0  0  0  0  0  0
  -27.7540  -21.3490   21.8730 C   0  0  0  0  0  1  0  0  0  0  0  0
  -29.5800  -22.7920   19.6860 N   0  0  2  0  0  4  0  0  0  0  0  0
  -30.5080  -22.9960   19.3510 H   0  0  0  0  0  0  0  0  0  0  0  0
  -28.7310  -26.6650   19.7330 O   0  0  0  0  0  0  0  0  0  0  0  0
  -24.6420  -31.6210   23.0710 C   0  0  0  0  0  0  0  0  0  0  0  0
  -27.5290  -27.3600   19.8550 C   0  0  0  0  0  0  0  0  0  0  0  0
  -23.5390  -30.2690   21.3210 C   0  0  0  0  0  3  0  0  0  0  0  0
  -25.0880  -28.8370   19.8770 C   0  0  0  0  0  0  0  0  0  0  0  0
  -26.0630  -30.6990   21.2270 C   0  0  0  0  0  2  0  0  0  0  0  0
  -26.2190  -29.3550   20.5220 C   0  0  0  0  0  0  0  0  0  0  0  0
  -27.4430  -28.6310   20.4970 C   0  0  0  0  0  3  0  0  0  0  0  0
  -26.3750  -26.8690   19.2140 C   0  0  0  0  0  3  0  0  0  0  0  0
  -25.1640  -27.5940   19.2200 C   0  0  0  0  0  3  0  0  0  0  0  0
  -23.8180  -29.6650   19.9190 C   0  0  0  0  0  2  0  0  0  0  0  0
  -24.7650  -30.8780   21.9320 N   0  0  0  0  0  0  0  0  0  0  0  0
  -23.5350  -31.8300   23.5870 O   0  0  0  0  0  0  0  0  0  0  0  0
  -22.8920  -29.1790   22.2070 C   0  0  0  0  0  0  0  0  0  0  0  0
  -21.5680  -28.9980   22.0710 N   0  0  0  0  0  0  0  0  0  0  0  0
  -23.5800  -28.5020   22.9750 O   0  0  0  0  0  0  0  0  0  0  0  0
  -21.0720  -29.6030   21.4320 H   0  0  0  0  0  0  0  0  0  0  0  0
  -18.1900  -27.8220   22.5800 C   0  0  0  0  0  0  0  0  0  0  0  0
  -20.7600  -27.9990   22.7700 C   0  0  0  0  0  3  0  0  0  0  0  0
  -20.8030  -26.6360   22.0400 C   0  0  0  0  0  2  0  0  0  0  0  0
  -19.6540  -26.4490   21.0430 C   0  0  0  0  0  2  0  0  0  0  0  0
  -18.3050  -26.5510   21.7570 C   0  0  0  0  0  2  0  0  0  0  0  0
  -19.3430  -28.5120   23.0420 C   0  0  0  0  0  0  0  0  0  0  0  0
  -19.1770  -29.7090   23.7720 C   0  0  0  0  0  3  0  0  0  0  0  0
  -17.8930  -30.2140   24.0460 C   0  0  0  0  0  3  0  0  0  0  0  0
  -16.7560  -29.5210   23.5980 C   0  0  0  0  0  3  0  0  0  0  0  0
  -16.9050  -28.3240   22.8720 C   0  0  0  0  0  3  0  0  0  0  0  0
  -25.8860  -32.2620   23.7660 C   0  0  0  0  0  3  0  0  0  0  0  0
  -25.5290  -33.6420   24.1220 N   0  0  0  0  0  0  0  0  0  0  0  0
  -25.8710  -34.7240   23.4090 C   0  0  0  0  0  0  0  0  0  0  0  0
  -26.5880  -34.6650   22.4070 O   0  0  0  0  0  0  0  0  0  0  0  0
  -24.9000  -33.7620   24.9030 H   0  0  0  0  0  0  0  0  0  0  0  0
  -24.1140  -36.4840   23.0320 C   0  0  0  0  0  1  0  0  0  0  0  0
  -25.3310  -36.0860   23.8830 C   0  0  0  0  0  3  0  0  0  0  0  0
  -27.4020  -37.0020   24.8320 C   0  0  0  0  0  1  0  0  0  0  0  0
  -26.3400  -37.1660   23.8430 N   0  0  0  0  0  0  0  0  0  0  0  0
  -25.9030  -38.0710   23.9950 H   0  0  0  0  0  0  0  0  0  0  0  0
  -26.3650  -31.4670   25.0440 C   0  0  1  0  0  0  0  0  0  0  0  0
  -25.2330  -31.1710   26.0550 C   0  0  0  0  0  1  0  0  0  0  0  0
  -27.0020  -30.1150   24.6400 C   0  0  0  0  0  1  0  0  0  0  0  0
  -27.4610  -32.2690   25.7850 C   0  0  0  0  0  1  0  0  0  0  0  0
  -29.3460  -21.4780   18.9450 C   0  0  0  0  0  2  0  0  0  0  0  0
  -31.0270  -19.6050   19.8350 C   0  0  0  0  0  3  0  0  0  0  0  0
  -31.3570  -18.2390   20.1510 C   0  0  0  0  0  3  0  0  0  0  0  0
  -29.0420  -17.6650   19.9120 C   0  0  0  0  0  3  0  0  0  0  0  0
  -29.7000  -20.0370   19.5230 C   0  0  0  0  0  0  0  0  0  0  0  0
  -30.3620  -17.2210   20.1810 C   0  0  0  0  0  0  0  0  0  0  0  0
  -28.7140  -19.0030   19.5690 C   0  0  0  0  0  0  0  0  0  0  0  0
  -27.0650  -19.2970   19.1300 Cl  0  0  0  0  0  0  0  0  0  0  0  0
  -31.3170  -14.7690   19.9960 C   0  0  0  0  0  0  0  0  0  0  0  0
  -31.0510  -12.5060   18.9870 C   0  0  0  0  0  2  0  0  0  0  0  0
  -30.0880  -12.6580   17.7870 C   0  0  0  0  0  2  0  0  0  0  0  0
  -28.6160  -12.5660   18.2420 C   0  0  0  0  0  2  0  0  0  0  0  0
  -28.3210  -13.4580   19.4790 C   0  0  0  0  0  3  0  0  0  0  0  0
  -29.3880  -13.2510   20.5770 C   0  0  0  0  0  2  0  0  0  0  0  0
  -30.7010  -13.5420   19.9760 N   0  0  0  0  0  0  0  0  0  0  0  0
  -32.4560  -14.9260   19.5420 O   0  0  0  0  0  0  0  0  0  0  0  0
  -30.5230  -15.7890   20.4540 N   0  0  0  0  0  0  0  0  0  0  0  0
  -29.7080  -15.3920   20.8950 H   0  0  0  0  0  0  0  0  0  0  0  0
  -25.9890  -14.2060   20.2650 C   0  0  0  0  0  0  0  0  0  0  0  0
  -24.8870  -13.4990   20.6630 C   0  0  0  0  0  0  0  0  0  0  0  0
  -25.2600  -12.1220   20.6030 C   0  0  0  0  0  0  0  0  0  0  0  0
  -26.9680  -13.2620   19.9920 N   0  0  0  0  0  0  0  0  0  0  0  0
  -26.5350  -12.0030   20.2540 N   0  0  0  0  0  0  0  0  0  0  0  0
  -24.4600  -10.9070   20.8060 C   0  0  0  0  0  0  0  0  0  0  0  0
  -24.8240   -9.9400   21.7680 C   0  0  0  0  0  3  0  0  0  0  0  0
  -24.0340   -8.7840   21.9540 C   0  0  0  0  0  3  0  0  0  0  0  0
  -22.8640   -8.5920   21.1800 C   0  0  0  0  0  0  0  0  0  0  0  0
  -22.5200   -9.5490   20.2070 C   0  0  0  0  0  3  0  0  0  0  0  0
  -23.3090  -10.6960   20.0200 C   0  0  0  0  0  3  0  0  0  0  0  0
  -22.0480   -7.4920   21.2740 O   0  0  0  0  0  0  0  0  0  0  0  0
  -21.8720   -6.8280   22.4630 C   0  0  0  0  0  0  0  0  0  0  0  0
  -21.3800   -7.4790   23.6170 C   0  0  0  0  0  3  0  0  0  0  0  0
  -21.1460   -6.7430   24.7940 C   0  0  0  0  0  3  0  0  0  0  0  0
  -21.3940   -5.3570   24.8220 C   0  0  0  0  0  0  0  0  0  0  0  0
  -21.8770   -4.7060   23.6730 C   0  0  0  0  0  3  0  0  0  0  0  0
  -22.1130   -5.4400   22.4960 C   0  0  0  0  0  0  0  0  0  0  0  0
  -22.5590   -4.8040   21.3860 F   0  0  0  0  0  0  0  0  0  0  0  0
  -21.1630   -4.6480   25.9500 F   0  0  0  0  0  0  0  0  0  0  0  0
  -23.5310  -14.0630   20.9800 C   0  0  0  0  0  0  0  0  0  0  0  0
  -22.7910  -13.4240   21.8800 N   0  0  0  0  0  0  0  0  0  0  0  0
  -23.1350  -15.1070   20.4620 O   0  0  0  0  0  0  0  0  0  0  0  0
  -23.1230  -12.5820   22.3260 H   0  0  0  0  0  0  0  0  0  0  0  0
  -21.8790  -13.7840   22.1240 H   0  0  0  0  0  0  0  0  0  0  0  0
  -26.2380  -15.5640   20.0920 N   0  0  0  0  0  0  0  0  0  0  0  0
  -25.5050  -16.2570   20.2030 H   0  0  0  0  0  0  0  0  0  0  0  0
  -27.0740  -15.9360   19.6620 H   0  0  0  0  0  0  0  0  0  0  0  0
  1  3  1  0
  1  2  2  0
  4  3  1  0
  5  8  1  0
  5  6  1  0
  6 10  1  0
  6  4  1  0
  7  2  1  0
  8  1  1  0
  8  9  1  6
 10 12  1  0
 11 22  2  0
 12 17  1  0
 13 21  1  0
 13 23  1  0
 14 20  1  0
 14 16  1  0
 15 21  1  0
 16 15  1  0
 17 16  2  0
 18 19  1  0
 18 12  2  0
 19 14  2  0
 20 13  1  0
 21 11  1  0
 23 25  2  0
 24 23  1  0
 26 24  1  0
 27 36  2  0
 27 32  1  0
 28 24  1  0
 28 32  1  0
 29 28  1  0
 30 31  1  0
 30 29  1  0
 31 27  1  0
 32 33  2  0
 33 34  1  0
 35 34  2  0
 36 35  1  0
 37 11  1  0
 37 38  1  0
 37 47  1  0
 38 41  1  0
 39 43  1  0
 39 38  1  0
 40 39  2  0
 43 42  1  0
 45 43  1  0
 45 46  1  0
 45 44  1  0
 47 50  1  1
 47 48  1  0
 49 47  1  0
 51 55  1  0
 51  8  1  0
 52 53  1  0
 53 56  2  0
 54 56  1  0
 55 57  1  0
 55 52  2  0
 56 67  1  0
 57 54  2  0
 58 57  1  0
 59 67  1  0
 60 65  1  0
 61 62  1  0
 61 60  1  0
 63 62  1  0
 63 72  1  0
 63 64  1  0
 65 59  1  0
 65 64  1  0
 66 59  2  0
 67 68  1  0
 69 70  2  0
 70 89  1  0
 71 70  1  0
 71 74  1  0
 72 73  1  0
 72 69  1  0
 73 71  2  0
 74 75  1  0
 75 76  2  0
 77 80  1  0
 77 76  1  0
 78 77  2  0
 79 78  1  0
 79 74  2  0
 80 81  1  0
 81 86  2  0
 81 82  1  0
 82 83  2  0
 83 84  1  0
 84 88  1  0
 85 84  2  0
 86 85  1  0
 87 86  1  0
 89 90  1  0
 90 93  1  0
 90 92  1  0
 91 89  2  0
 94 95  1  0
 94 69  1  0
 96 94  1  0
M  ISO  4   6 101  10 101  59 100  67 100
M  END
>  <TORSDO>  (6) 
F 18

>  <SCORE>  (6) 
-13.022

>  <name>  (6) 
5

>  <ligand_id>  (6) 
5

>  <original_smiles>  (6) 
[H]C(=C1C([H])([H])C([H])([H])C([H])(Oc2c([H])c([H])c3c(c2[H])C([H])([H])N(C(=O)C([H])(N([H])C(=O)C([H])(N([H])C([H])([H])[H])C([H])([H])[H])C(C([H])([H])[H])(C([H])([H])[H])C([H])([H])[H])C([H])(C(=O)N([H])C2([H])c4c([H])c([H])c([H])c([H])c4C([H])([H])C([H])([H])C2([H])[H])C3([H])[H])C([H])([H])[N+]1([H])C([H])([H])c1c([H])c([H])c(N([H])C(=O)N2C([H])([H])C([H])([H])C([H])([H])C([H])(n3nc(-c4c([H])c([H])c(Oc5c([H])c([H])c(F)c([H])c5F)c([H])c4[H])c(C(=O)N([H])[H])c3N([H])[H])C2([H])[H])c([H])c1Cl)C([H])([H])[H]

>  <smiles>  (6) 
[H]C(=C1C([H])([H])C([H])([H])C([H])(Oc2c([H])c([H])c3c(c2[H])C([H])([H])N(C(=O)C([H])(N([H])C(=O)C([H])(N([H])C([H])([H])[H])C([H])([H])[H])C(C([H])([H])[H])(C([H])([H])[H])C([H])([H])[H])C([H])(C(=O)N([H])C2([H])c4c([H])c([H])c([H])c([H])c4C([H])([H])C([H])([H])C2([H])[H])C3([H])[H])C([H])([H])[N+]1([H])C([H])([H])c1c([H])c([H])c(N([H])C(=O)N2C([H])([H])C([H])([H])C([H])([H])C([H])(n3nc(-c4c([H])c([H])c(Oc5c([H])c([H])c(F)c([H])c5F)c([H])c4[H])c(C(=O)N([H])[H])c3N([H])[H])C2([H])[H])c([H])c1Cl)C([H])([H])[H]

$$$$
6:0:0
     RDKit          3D

 96105  0  0  1  0  0  0  0  0999 V2000
  -31.3050  -24.1980   19.1730 C   0  0  0  0  0  2  0  0  0  0  0  0
  -30.3050  -25.3770   19.2350 C   0  0  0  0  0  2  0  0  0  0  0  0
  -30.8870  -23.0970   18.1800 C   0  0  0  0  0  2  0  0  0  0  0  0
  -28.3900  -23.6140   20.0390 C   0  0  0  0  0  2  0  0  0  0  0  0
  -28.7810  -25.1370   19.5260 C   0  0  0  0  0  3  0  0  0  0  0  0
  -29.9910  -22.0000   18.7950 C   0  0  0  0  0  3  0  0  0  0  0  0
  -28.9450  -21.3490   17.8460 C   0  0  0  0  0  1  0  0  0  0  0  0
  -29.4060  -22.4190   20.1040 N   0  0  2  0  0  4  0  0  0  0  0  0
  -30.1920  -22.8090   20.6050 H   0  0  0  0  0  0  0  0  0  0  0  0
  -28.4000  -26.4250   20.2390 O   0  0  0  0  0  0  0  0  0  0  0  0
  -24.6300  -31.8540   23.2060 C   0  0  0  0  0  0  0  0  0  0  0  0
  -27.2480  -27.2530   20.1170 C   0  0  0  0  0  0  0  0  0  0  0  0
  -23.4120  -30.4580   21.5690 C   0  0  0  0  0  3  0  0  0  0  0  0
  -24.8580  -28.8850   20.1280 C   0  0  0  0  0  0  0  0  0  0  0  0
  -25.9520  -30.7570   21.3750 C   0  0  0  0  0  2  0  0  0  0  0  0
  -26.0260  -29.3720   20.7270 C   0  0  0  0  0  0  0  0  0  0  0  0
  -27.2080  -28.5610   20.7160 C   0  0  0  0  0  3  0  0  0  0  0  0
  -26.0560  -26.8330   19.4840 C   0  0  0  0  0  3  0  0  0  0  0  0
  -24.8800  -27.6250   19.4970 C   0  0  0  0  0  3  0  0  0  0  0  0
  -23.6180  -29.7670   20.1880 C   0  0  0  0  0  2  0  0  0  0  0  0
  -24.6840  -31.0440   22.1070 N   0  0  0  0  0  0  0  0  0  0  0  0
  -23.5510  -32.1360   23.7490 O   0  0  0  0  0  0  0  0  0  0  0  0
  -22.7460  -29.4550   22.5420 C   0  0  0  0  0  0  0  0  0  0  0  0
  -21.4160  -29.2880   22.4280 N   0  0  0  0  0  0  0  0  0  0  0  0
  -23.4250  -28.8230   23.3570 O   0  0  0  0  0  0  0  0  0  0  0  0
  -20.9270  -29.8460   21.7430 H   0  0  0  0  0  0  0  0  0  0  0  0
  -18.0400  -28.0970   22.9510 C   0  0  0  0  0  0  0  0  0  0  0  0
  -20.6000  -28.3550   23.2050 C   0  0  0  0  0  3  0  0  0  0  0  0
  -20.6950  -26.9220   22.6300 C   0  0  0  0  0  2  0  0  0  0  0  0
  -19.5880  -26.6010   21.6220 C   0  0  0  0  0  2  0  0  0  0  0  0
  -18.2100  -26.7480   22.2730 C   0  0  0  0  0  2  0  0  0  0  0  0
  -19.1620  -28.8590   23.3750 C   0  0  0  0  0  0  0  0  0  0  0  0
  -18.9480  -30.1200   23.9720 C   0  0  0  0  0  3  0  0  0  0  0  0
  -17.6440  -30.6210   24.1480 C   0  0  0  0  0  3  0  0  0  0  0  0
  -16.5370  -29.8580   23.7400 C   0  0  0  0  0  3  0  0  0  0  0  0
  -16.7350  -28.5970   23.1480 C   0  0  0  0  0  3  0  0  0  0  0  0
  -25.9180  -32.4880   23.8220 C   0  0  0  0  0  3  0  0  0  0  0  0
  -25.6100  -33.8850   24.1650 N   0  0  0  0  0  0  0  0  0  0  0  0
  -25.9340  -34.9460   23.4150 C   0  0  0  0  0  0  0  0  0  0  0  0
  -26.5900  -34.8510   22.3740 O   0  0  0  0  0  0  0  0  0  0  0  0
  -25.0250  -34.0300   24.9750 H   0  0  0  0  0  0  0  0  0  0  0  0
  -24.1990  -36.7440   23.1070 C   0  0  0  0  0  1  0  0  0  0  0  0
  -25.4550  -36.3320   23.8920 C   0  0  0  0  0  3  0  0  0  0  0  0
  -27.6050  -37.2130   24.6910 C   0  0  0  0  0  1  0  0  0  0  0  0
  -26.4870  -37.3860   23.7660 N   0  0  0  0  0  0  0  0  0  0  0  0
  -26.0820  -38.3050   23.9240 H   0  0  0  0  0  0  0  0  0  0  0  0
  -26.4450  -31.7110   25.0930 C   0  0  1  0  0  0  0  0  0  0  0  0
  -25.3600  -31.4760   26.1690 C   0  0  0  0  0  1  0  0  0  0  0  0
  -27.0200  -30.3330   24.6950 C   0  0  0  0  0  1  0  0  0  0  0  0
  -27.6050  -32.4990   25.7450 C   0  0  0  0  0  1  0  0  0  0  0  0
  -29.0260  -21.1680   20.9300 C   0  0  0  0  0  2  0  0  0  0  0  0
  -32.0390  -18.7700   21.7970 C   0  0  0  0  0  3  0  0  0  0  0  0
  -31.5880  -17.4850   21.4330 C   0  0  0  0  0  3  0  0  0  0  0  0
  -29.5260  -18.5080   20.6540 C   0  0  0  0  0  3  0  0  0  0  0  0
  -31.2530  -19.9360   21.6160 C   0  0  0  0  0  0  0  0  0  0  0  0
  -29.9620  -19.8560   21.0210 C   0  0  0  0  0  0  0  0  0  0  0  0
  -30.3160  -17.2930   20.8510 C   0  0  0  0  0  0  0  0  0  0  0  0
  -31.8450  -21.2470   22.1260 C   0  0  0  0  0  1  0  0  0  0  0  0
  -30.5650  -14.7510   20.2370 C   0  0  0  0  0  0  0  0  0  0  0  0
  -30.3040  -12.4970   19.1600 C   0  0  0  0  0  2  0  0  0  0  0  0
  -29.3470  -12.5700   17.9520 C   0  0  0  0  0  2  0  0  0  0  0  0
  -27.8930  -12.3590   18.4150 C   0  0  0  0  0  2  0  0  0  0  0  0
  -27.5260  -13.2520   19.6340 C   0  0  0  0  0  3  0  0  0  0  0  0
  -28.6050  -13.1810   20.7340 C   0  0  0  0  0  2  0  0  0  0  0  0
  -29.8910  -13.5470   20.1240 N   0  0  0  0  0  0  0  0  0  0  0  0
  -31.7300  -14.8190   19.8360 O   0  0  0  0  0  0  0  0  0  0  0  0
  -29.8530  -15.9000   20.5740 N   0  0  0  0  0  0  0  0  0  0  0  0
  -28.8610  -15.7520   20.6740 H   0  0  0  0  0  0  0  0  0  0  0  0
  -25.1530  -13.8170   20.4240 C   0  0  0  0  0  0  0  0  0  0  0  0
  -24.1020  -13.0380   20.8220 C   0  0  0  0  0  0  0  0  0  0  0  0
  -24.5740  -11.6880   20.7750 C   0  0  0  0  0  0  0  0  0  0  0  0
  -26.1970  -12.9480   20.1560 N   0  0  0  0  0  0  0  0  0  0  0  0
  -25.8600  -11.6620   20.4380 N   0  0  0  0  0  0  0  0  0  0  0  0
  -23.8590  -10.4200   20.9790 C   0  0  0  0  0  0  0  0  0  0  0  0
  -24.3150   -9.4620   21.9090 C   0  0  0  0  0  3  0  0  0  0  0  0
  -23.6010   -8.2600   22.1080 C   0  0  0  0  0  3  0  0  0  0  0  0
  -22.4160   -8.0060   21.3780 C   0  0  0  0  0  0  0  0  0  0  0  0
  -21.9780   -8.9540   20.4340 C   0  0  0  0  0  3  0  0  0  0  0  0
  -22.6920  -10.1470   20.2330 C   0  0  0  0  0  3  0  0  0  0  0  0
  -21.6770   -6.8520   21.4770 O   0  0  0  0  0  0  0  0  0  0  0  0
  -21.6530   -6.1140   22.6350 C   0  0  0  0  0  0  0  0  0  0  0  0
  -21.2470   -6.6700   23.8660 C   0  0  0  0  0  3  0  0  0  0  0  0
  -21.1710   -5.8560   25.0150 C   0  0  0  0  0  3  0  0  0  0  0  0
  -21.4900   -4.4880   24.9300 C   0  0  0  0  0  0  0  0  0  0  0  0
  -21.8880   -3.9310   23.7010 C   0  0  0  0  0  3  0  0  0  0  0  0
  -21.9670   -4.7420   22.5570 C   0  0  0  0  0  0  0  0  0  0  0  0
  -22.3270   -4.1970   21.3700 F   0  0  0  0  0  0  0  0  0  0  0  0
  -21.4100   -3.7040   26.0300 F   0  0  0  0  0  0  0  0  0  0  0  0
  -22.7070  -13.5040   21.1250 C   0  0  0  0  0  0  0  0  0  0  0  0
  -22.0020  -12.8030   22.0050 N   0  0  0  0  0  0  0  0  0  0  0  0
  -22.2520  -14.5240   20.6080 O   0  0  0  0  0  0  0  0  0  0  0  0
  -22.3870  -11.9840   22.4540 H   0  0  0  0  0  0  0  0  0  0  0  0
  -21.0620  -13.0870   22.2380 H   0  0  0  0  0  0  0  0  0  0  0  0
  -25.3070  -15.1890   20.2340 N   0  0  0  0  0  0  0  0  0  0  0  0
  -24.5330  -15.8370   20.3260 H   0  0  0  0  0  0  0  0  0  0  0  0
  -26.1320  -15.6090   19.8270 H   0  0  0  0  0  0  0  0  0  0  0  0
  1  2  1  0
  2  5  1  0
  3  6  1  0
  3  1  1  0
  4  8  1  0
  5  4  1  0
  5 10  1  0
  6  7  1  0
  6  8  1  0
  8  9  1  1
  8 51  1  0
 11 22  2  0
 12 10  1  0
 12 17  1  0
 13 21  1  0
 13 23  1  0
 14 20  1  0
 14 16  1  0
 15 21  1  0
 16 15  1  0
 17 16  2  0
 18 19  1  0
 18 12  2  0
 19 14  2  0
 20 13  1  0
 21 11  1  0
 23 25  2  0
 24 23  1  0
 26 24  1  0
 27 36  2  0
 27 32  1  0
 28 24  1  0
 28 32  1  0
 29 28  1  0
 30 31  1  0
 30 29  1  0
 31 27  1  0
 32 33  2  0
 33 34  1  0
 35 34  2  0
 36 35  1  0
 37 11  1  0
 37 38  1  0
 37 47  1  0
 38 41  1  0
 39 43  1  0
 39 38  1  0
 40 39  2  0
 43 42  1  0
 45 43  1  0
 45 46  1  0
 45 44  1  0
 47 50  1  1
 47 48  1  0
 49 47  1  0
 51 56  1  0
 53 52  2  0
 54 57  2  0
 54 56  1  0
 55 52  1  0
 55 58  1  0
 56 55  2  0
 57 53  1  0
 59 67  1  0
 60 65  1  0
 61 62  1  0
 61 60  1  0
 63 62  1  0
 63 72  1  0
 63 64  1  0
 65 59  1  0
 65 64  1  0
 66 59  2  0
 67 68  1  0
 67 57  1  0
 69 70  2  0
 70 89  1  0
 71 70  1  0
 71 74  1  0
 72 69  1  0
 72 73  1  0
 73 71  2  0
 74 75  1  0
 75 76  2  0
 77 80  1  0
 77 76  1  0
 78 77  2  0
 79 78  1  0
 79 74  2  0
 80 81  1  0
 81 82  1  0
 82 83  2  0
 84 83  1  0
 84 88  1  0
 85 84  2  0
 86 81  2  0
 86 85  1  0
 87 86  1  0
 89 90  1  0
 90 93  1  0
 90 92  1  0
 91 89  2  0
 94 95  1  0
 94 69  1  0
 96 94  1  0
M  ISO  4   5 101  10 101  59 100  67 100
M  END
>  <TORSDO>  (7) 
F 18

>  <SCORE>  (7) 
-14.809

>  <name>  (7) 
6

>  <ligand_id>  (7) 
6

>  <original_smiles>  (7) 
[H]c1c([H])c([H])c2c(c1[H])C([H])([H])C([H])([H])C([H])([H])C2([H])N([H])C(=O)C1([H])N(C(=O)C([H])(N([H])C(=O)C([H])(N([H])C([H])([H])[H])C([H])([H])[H])C(C([H])([H])[H])(C([H])([H])[H])C([H])([H])[H])C([H])([H])c2c([H])c(OC3([H])C([H])([H])C([H])([H])C([H])([H])C([H])(C([H])([H])[H])[N+]([H])(C([H])([H])c4c([H])c(N([H])C(=O)N5C([H])([H])C([H])([H])C([H])([H])C([H])(n6nc(-c7c([H])c([H])c(Oc8c([H])c([H])c(F)c([H])c8F)c([H])c7[H])c(C(=O)N([H])[H])c6N([H])[H])C5([H])[H])c([H])c([H])c4C([H])([H])[H])C3([H])[H])c([H])c([H])c2C1([H])[H]

>  <smiles>  (7) 
[H]c1c([H])c([H])c2c(c1[H])C([H])([H])C([H])([H])C([H])([H])C2([H])N([H])C(=O)C1([H])N(C(=O)C([H])(N([H])C(=O)C([H])(N([H])C([H])([H])[H])C([H])([H])[H])C(C([H])([H])[H])(C([H])([H])[H])C([H])([H])[H])C([H])([H])c2c([H])c(OC3([H])C([H])([H])C([H])([H])C([H])([H])C([H])(C([H])([H])[H])[N+]([H])(C([H])([H])c4c([H])c(N([H])C(=O)N5C([H])([H])C([H])([H])C([H])([H])C([H])(n6nc(-c7c([H])c([H])c(Oc8c([H])c([H])c(F)c([H])c8F)c([H])c7[H])c(C(=O)N([H])[H])c6N([H])[H])C5([H])[H])c([H])c([H])c4C([H])([H])[H])C3([H])[H])c([H])c([H])c2C1([H])[H]

$$$$
7:0:0
     RDKit          3D

 98107  0  0  1  0  0  0  0  0999 V2000
  -29.4610  -23.0630   19.3850 C   0  0  0  0  0  0  0  0  0  0  0  0
  -29.0950  -22.7960   18.1160 C   0  0  0  0  0  2  0  0  0  0  0  0
  -31.3860  -23.7940   21.4910 C   0  0  0  0  0  2  0  0  0  0  0  0
  -30.6590  -24.8830   20.6870 C   0  0  0  0  0  2  0  0  0  0  0  0
  -31.5400  -22.5110   20.6600 C   0  0  0  0  0  2  0  0  0  0  0  0
  -29.2960  -24.4010   20.1410 C   0  0  0  0  0  3  0  0  0  0  0  0
  -30.2310  -22.0250   20.1630 N   0  0  1  0  0  4  0  0  0  0  0  0
  -30.4960  -21.3140   19.4980 H   0  0  0  0  0  0  0  0  0  0  0  0
  -29.4600  -21.2260   21.1600 C   0  0  0  0  0  2  0  0  0  0  0  0
  -30.7930  -17.6320   21.7780 C   0  0  0  0  0  3  0  0  0  0  0  0
  -30.6030  -19.0250   21.8900 C   0  0  0  0  0  0  0  0  0  0  0  0
  -28.9860  -18.9270   20.0560 C   0  0  0  0  0  0  0  0  0  0  0  0
  -29.7020  -19.7020   21.0210 C   0  0  0  0  0  0  0  0  0  0  0  0
  -29.2080  -17.5220   19.9350 C   0  0  0  0  0  0  0  0  0  0  0  0
  -30.1120  -16.8670   20.8160 C   0  0  0  0  0  0  0  0  0  0  0  0
  -31.3300  -19.7340   23.0260 C   0  0  0  0  0  1  0  0  0  0  0  0
  -27.9190  -19.5650   19.1640 C   0  0  0  0  0  1  0  0  0  0  0  0
  -28.3980  -16.7400   18.9020 C   0  0  0  0  0  1  0  0  0  0  0  0
  -30.8870  -14.5560   20.2140 C   0  0  0  0  0  0  0  0  0  0  0  0
  -30.5850  -12.4300   18.9920 C   0  0  0  0  0  2  0  0  0  0  0  0
  -29.5770  -12.6560   17.8440 C   0  0  0  0  0  2  0  0  0  0  0  0
  -28.1220  -12.5090   18.3340 C   0  0  0  0  0  2  0  0  0  0  0  0
  -27.8440  -13.3020   19.6390 C   0  0  0  0  0  3  0  0  0  0  0  0
  -28.9470  -13.0190   20.6840 C   0  0  0  0  0  2  0  0  0  0  0  0
  -30.2500  -13.3600   20.0810 N   0  0  0  0  0  0  0  0  0  0  0  0
  -31.9500  -14.8300   19.6460 O   0  0  0  0  0  0  0  0  0  0  0  0
  -30.2030  -15.4500   20.9500 N   0  0  0  0  0  0  0  0  0  0  0  0
  -29.4730  -15.0330   21.5060 H   0  0  0  0  0  0  0  0  0  0  0  0
  -25.4840  -13.9040   20.4830 C   0  0  0  0  0  0  0  0  0  0  0  0
  -24.4280  -13.1250   20.8740 C   0  0  0  0  0  0  0  0  0  0  0  0
  -24.8760  -11.7740   20.7710 C   0  0  0  0  0  0  0  0  0  0  0  0
  -26.5090  -13.0230   20.1690 N   0  0  0  0  0  0  0  0  0  0  0  0
  -26.1480  -11.7360   20.3960 N   0  0  0  0  0  0  0  0  0  0  0  0
  -24.1510  -10.5090   20.9530 C   0  0  0  0  0  0  0  0  0  0  0  0
  -24.5580   -9.5560   21.9140 C   0  0  0  0  0  3  0  0  0  0  0  0
  -23.8360   -8.3550   22.0810 C   0  0  0  0  0  3  0  0  0  0  0  0
  -22.6940   -8.0980   21.2870 C   0  0  0  0  0  0  0  0  0  0  0  0
  -22.3070   -9.0400   20.3170 C   0  0  0  0  0  3  0  0  0  0  0  0
  -23.0300  -10.2320   20.1470 C   0  0  0  0  0  3  0  0  0  0  0  0
  -21.9460   -6.9470   21.3590 O   0  0  0  0  0  0  0  0  0  0  0  0
  -21.7630   -6.2840   22.5460 C   0  0  0  0  0  0  0  0  0  0  0  0
  -21.1680   -6.9080   23.6650 C   0  0  0  0  0  3  0  0  0  0  0  0
  -20.9360   -6.1700   24.8420 C   0  0  0  0  0  3  0  0  0  0  0  0
  -21.2850   -4.8070   24.9000 C   0  0  0  0  0  0  0  0  0  0  0  0
  -21.8700   -4.1830   23.7840 C   0  0  0  0  0  3  0  0  0  0  0  0
  -22.1050   -4.9190   22.6110 C   0  0  0  0  0  0  0  0  0  0  0  0
  -22.6520   -4.3070   21.5310 F   0  0  0  0  0  0  0  0  0  0  0  0
  -21.0530   -4.0940   26.0270 F   0  0  0  0  0  0  0  0  0  0  0  0
  -23.0490  -13.6000   21.2360 C   0  0  0  0  0  0  0  0  0  0  0  0
  -22.3630  -12.8840   22.1190 N   0  0  0  0  0  0  0  0  0  0  0  0
  -22.5890  -14.6430   20.7710 O   0  0  0  0  0  0  0  0  0  0  0  0
  -22.7440  -12.0400   22.5210 H   0  0  0  0  0  0  0  0  0  0  0  0
  -21.4400  -13.1870   22.3980 H   0  0  0  0  0  0  0  0  0  0  0  0
  -25.6530  -15.2780   20.3510 N   0  0  0  0  0  0  0  0  0  0  0  0
  -24.9080  -15.9400   20.5380 H   0  0  0  0  0  0  0  0  0  0  0  0
  -26.5120  -15.7240   20.0530 H   0  0  0  0  0  0  0  0  0  0  0  0
  -28.6280  -25.5130   19.2760 C   0  0  0  0  0  2  0  0  0  0  0  0
  -28.4240  -26.7420   19.9960 O   0  0  0  0  0  0  0  0  0  0  0  0
  -24.6150  -31.8440   23.1640 C   0  0  0  0  0  0  0  0  0  0  0  0
  -27.2180  -27.4240   19.9860 C   0  0  0  0  0  0  0  0  0  0  0  0
  -23.3840  -30.4580   21.5260 C   0  0  0  0  0  3  0  0  0  0  0  0
  -24.8140  -28.9380   20.0630 C   0  0  0  0  0  0  0  0  0  0  0  0
  -25.9080  -30.8160   21.2940 C   0  0  0  0  0  2  0  0  0  0  0  0
  -25.9810  -29.4510   20.6370 C   0  0  0  0  0  0  0  0  0  0  0  0
  -27.1790  -28.7000   20.5980 C   0  0  0  0  0  3  0  0  0  0  0  0
  -26.0180  -26.9200   19.4240 C   0  0  0  0  0  3  0  0  0  0  0  0
  -24.8290  -27.6710   19.4580 C   0  0  0  0  0  3  0  0  0  0  0  0
  -23.5720  -29.7960   20.1360 C   0  0  0  0  0  2  0  0  0  0  0  0
  -24.6550  -31.0540   22.0530 N   0  0  0  0  0  0  0  0  0  0  0  0
  -23.5420  -32.1080   23.7220 O   0  0  0  0  0  0  0  0  0  0  0  0
  -22.7510  -29.4240   22.4840 C   0  0  0  0  0  0  0  0  0  0  0  0
  -21.4320  -29.2120   22.3470 N   0  0  0  0  0  0  0  0  0  0  0  0
  -23.4420  -28.8160   23.3050 O   0  0  0  0  0  0  0  0  0  0  0  0
  -20.9350  -29.7550   21.6550 H   0  0  0  0  0  0  0  0  0  0  0  0
  -18.0910  -27.9080   22.7840 C   0  0  0  0  0  0  0  0  0  0  0  0
  -20.6300  -28.2590   23.1130 C   0  0  0  0  0  3  0  0  0  0  0  0
  -20.7950  -26.8220   22.5650 C   0  0  0  0  0  2  0  0  0  0  0  0
  -19.7300  -26.4450   21.5300 C   0  0  0  0  0  2  0  0  0  0  0  0
  -18.3290  -26.5550   22.1380 C   0  0  0  0  0  2  0  0  0  0  0  0
  -19.1720  -28.7160   23.2280 C   0  0  0  0  0  0  0  0  0  0  0  0
  -18.8960  -29.9820   23.7880 C   0  0  0  0  0  3  0  0  0  0  0  0
  -17.5710  -30.4420   23.9120 C   0  0  0  0  0  3  0  0  0  0  0  0
  -16.5040  -29.6310   23.4860 C   0  0  0  0  0  3  0  0  0  0  0  0
  -16.7660  -28.3670   22.9280 C   0  0  0  0  0  3  0  0  0  0  0  0
  -25.9110  -32.4690   23.7700 C   0  0  0  0  0  3  0  0  0  0  0  0
  -26.4610  -31.6740   25.0170 C   0  0  1  0  0  0  0  0  0  0  0  0
  -25.3930  -31.4070   26.1040 C   0  0  0  0  0  1  0  0  0  0  0  0
  -27.0440  -30.3100   24.5820 C   0  0  0  0  0  1  0  0  0  0  0  0
  -27.6190  -32.4640   25.6720 C   0  0  0  0  0  1  0  0  0  0  0  0
  -25.6020  -33.8580   24.1330 N   0  0  0  0  0  0  0  0  0  0  0  0
  -25.9110  -34.9250   23.3840 C   0  0  0  0  0  0  0  0  0  0  0  0
  -26.5590  -34.8450   22.3370 O   0  0  0  0  0  0  0  0  0  0  0  0
  -25.0260  -33.9940   24.9510 H   0  0  0  0  0  0  0  0  0  0  0  0
  -24.1630  -36.7100   23.0990 C   0  0  0  0  0  1  0  0  0  0  0  0
  -25.4230  -36.3010   23.8770 C   0  0  0  0  0  3  0  0  0  0  0  0
  -27.5670  -37.1880   24.6810 C   0  0  0  0  0  1  0  0  0  0  0  0
  -26.4460  -37.3630   23.7620 N   0  0  0  0  0  0  0  0  0  0  0  0
  -26.0360  -38.2780   23.9310 H   0  0  0  0  0  0  0  0  0  0  0  0
  1  6  1  0
  1  7  1  0
  2  1  2  0
  4  3  1  0
  5  3  1  0
  6 57  1  0
  6  4  1  0
  7  5  1  0
  7  9  1  0
  7  8  1  6
 10 11  1  0
 11 16  1  0
 12 13  1  0
 13  9  1  0
 13 11  2  0
 14 12  2  0
 14 15  1  0
 15 27  1  0
 15 10  2  0
 17 12  1  0
 18 14  1  0
 19 27  1  0
 20 25  1  0
 21 22  1  0
 21 20  1  0
 23 22  1  0
 23 32  1  0
 23 24  1  0
 25 19  1  0
 25 24  1  0
 26 19  2  0
 27 28  1  0
 29 30  2  0
 30 49  1  0
 31 30  1  0
 31 34  1  0
 32 33  1  0
 32 29  1  0
 33 31  2  0
 34 35  1  0
 35 36  2  0
 37 40  1  0
 37 36  1  0
 38 37  2  0
 39 38  1  0
 39 34  2  0
 40 41  1  0
 41 46  2  0
 41 42  1  0
 42 43  2  0
 43 44  1  0
 44 48  1  0
 45 44  2  0
 46 45  1  0
 47 46  1  0
 49 50  1  0
 50 53  1  0
 50 52  1  0
 51 49  2  0
 54 29  1  0
 54 55  1  0
 56 54  1  0
 57 58  1  0
 59 70  2  0
 60 58  1  0
 60 65  1  0
 61 69  1  0
 61 71  1  0
 62 68  1  0
 62 64  1  0
 63 69  1  0
 64 63  1  0
 65 64  2  0
 66 67  1  0
 66 60  2  0
 67 62  2  0
 68 61  1  0
 69 59  1  0
 71 73  2  0
 72 71  1  0
 74 72  1  0
 75 84  2  0
 75 80  1  0
 76 72  1  0
 76 80  1  0
 77 76  1  0
 78 79  1  0
 78 77  1  0
 79 75  1  0
 80 81  2  0
 81 82  1  0
 83 82  2  0
 84 83  1  0
 85 59  1  0
 85 90  1  0
 85 86  1  0
 86 89  1  1
 86 87  1  0
 88 86  1  0
 90 93  1  0
 91 95  1  0
 91 90  1  0
 92 91  2  0
 95 94  1  0
 97 95  1  0
 97 98  1  0
 97 96  1  0
M  ISO  4  19 100  27 100  57 101  58 101
M  END
>  <TORSDO>  (8) 
F 19

>  <SCORE>  (8) 
-14.015

>  <name>  (8) 
7

>  <ligand_id>  (8) 
7

>  <original_smiles>  (8) 
[H]C([H])=C1C([H])(C([H])([H])Oc2c([H])c([H])c3c(c2[H])C([H])([H])N(C(=O)C([H])(N([H])C(=O)C([H])(N([H])C([H])([H])[H])C([H])([H])[H])C(C([H])([H])[H])(C([H])([H])[H])C([H])([H])[H])C([H])(C(=O)N([H])C2([H])c4c([H])c([H])c([H])c([H])c4C([H])([H])C([H])([H])C2([H])[H])C3([H])[H])C([H])([H])C([H])([H])C([H])([H])[N+]1([H])C([H])([H])c1c(C([H])([H])[H])c([H])c(N([H])C(=O)N2C([H])([H])C([H])([H])C([H])([H])C([H])(n3nc(-c4c([H])c([H])c(Oc5c([H])c([H])c(F)c([H])c5F)c([H])c4[H])c(C(=O)N([H])[H])c3N([H])[H])C2([H])[H])c(C([H])([H])[H])c1C([H])([H])[H]

>  <smiles>  (8) 
[H]C([H])=C1C([H])(C([H])([H])Oc2c([H])c([H])c3c(c2[H])C([H])([H])N(C(=O)C([H])(N([H])C(=O)C([H])(N([H])C([H])([H])[H])C([H])([H])[H])C(C([H])([H])[H])(C([H])([H])[H])C([H])([H])[H])C([H])(C(=O)N([H])C2([H])c4c([H])c([H])c([H])c([H])c4C([H])([H])C([H])([H])C2([H])[H])C3([H])[H])C([H])([H])C([H])([H])C([H])([H])[N+]1([H])C([H])([H])c1c(C([H])([H])[H])c([H])c(N([H])C(=O)N2C([H])([H])C([H])([H])C([H])([H])C([H])(n3nc(-c4c([H])c([H])c(Oc5c([H])c([H])c(F)c([H])c5F)c([H])c4[H])c(C(=O)N([H])[H])c3N([H])[H])C2([H])[H])c(C([H])([H])[H])c1C([H])([H])[H]

$$$$
8:0:0
     RDKit          3D

 95104  0  0  1  0  0  0  0  0999 V2000
  -29.6410  -23.6830   17.8440 C   0  0  0  0  0  2  0  0  0  0  0  0
  -29.4100  -25.0410   18.5390 C   0  0  0  0  0  2  0  0  0  0  0  0
  -30.0210  -22.5560   18.8320 C   0  0  0  0  0  2  0  0  0  0  0  0
  -28.6800  -23.6870   20.5760 C   0  0  0  0  0  2  0  0  0  0  0  0
  -28.3440  -24.9760   19.6440 C   0  0  0  0  0  3  0  0  0  0  0  0
  -28.9580  -22.3470   19.8500 N   0  0  2  0  0  4  0  0  0  0  0  0
  -28.1130  -22.1410   19.3370 H   0  0  0  0  0  0  0  0  0  0  0  0
  -28.2960  -26.3820   20.2050 O   0  0  0  0  0  0  0  0  0  0  0  0
  -24.6190  -31.8710   23.2240 C   0  0  0  0  0  0  0  0  0  0  0  0
  -27.1770  -27.2540   20.1280 C   0  0  0  0  0  0  0  0  0  0  0  0
  -23.3990  -30.4770   21.5950 C   0  0  0  0  0  3  0  0  0  0  0  0
  -24.8270  -28.9230   20.1490 C   0  0  0  0  0  0  0  0  0  0  0  0
  -25.9430  -30.7700   21.3930 C   0  0  0  0  0  2  0  0  0  0  0  0
  -26.0060  -29.3880   20.7430 C   0  0  0  0  0  0  0  0  0  0  0  0
  -27.1770  -28.5620   20.7280 C   0  0  0  0  0  3  0  0  0  0  0  0
  -25.9680  -26.8650   19.5030 C   0  0  0  0  0  3  0  0  0  0  0  0
  -24.8140  -27.6710   19.5210 C   0  0  0  0  0  3  0  0  0  0  0  0
  -23.6010  -29.8140   20.2080 C   0  0  0  0  0  2  0  0  0  0  0  0
  -24.6740  -31.0580   22.1270 N   0  0  0  0  0  0  0  0  0  0  0  0
  -23.5410  -32.1480   23.7700 O   0  0  0  0  0  0  0  0  0  0  0  0
  -22.7450  -29.4580   22.5600 C   0  0  0  0  0  0  0  0  0  0  0  0
  -21.4180  -29.2790   22.4480 N   0  0  0  0  0  0  0  0  0  0  0  0
  -23.4320  -28.8330   23.3740 O   0  0  0  0  0  0  0  0  0  0  0  0
  -20.9180  -29.8420   21.7740 H   0  0  0  0  0  0  0  0  0  0  0  0
  -18.0510  -28.0590   22.9700 C   0  0  0  0  0  0  0  0  0  0  0  0
  -20.6090  -28.3400   23.2280 C   0  0  0  0  0  3  0  0  0  0  0  0
  -20.7200  -26.9050   22.6640 C   0  0  0  0  0  2  0  0  0  0  0  0
  -19.6170  -26.5650   21.6560 C   0  0  0  0  0  2  0  0  0  0  0  0
  -18.2360  -26.7060   22.3030 C   0  0  0  0  0  2  0  0  0  0  0  0
  -19.1660  -28.8310   23.3930 C   0  0  0  0  0  0  0  0  0  0  0  0
  -18.9390  -30.0960   23.9770 C   0  0  0  0  0  3  0  0  0  0  0  0
  -17.6320  -30.5900   24.1450 C   0  0  0  0  0  3  0  0  0  0  0  0
  -16.5320  -29.8150   23.7390 C   0  0  0  0  0  3  0  0  0  0  0  0
  -16.7420  -28.5510   23.1580 C   0  0  0  0  0  3  0  0  0  0  0  0
  -25.9080  -32.5080   23.8300 C   0  0  0  0  0  3  0  0  0  0  0  0
  -25.6020  -33.9050   24.1650 N   0  0  0  0  0  0  0  0  0  0  0  0
  -25.9140  -34.9610   23.4020 C   0  0  0  0  0  0  0  0  0  0  0  0
  -26.5600  -34.8620   22.3560 O   0  0  0  0  0  0  0  0  0  0  0  0
  -25.0380  -34.0570   24.9890 H   0  0  0  0  0  0  0  0  0  0  0  0
  -24.1670  -36.7440   23.0950 C   0  0  0  0  0  1  0  0  0  0  0  0
  -25.4290  -36.3450   23.8760 C   0  0  0  0  0  3  0  0  0  0  0  0
  -27.5860  -37.2360   24.6460 C   0  0  0  0  0  1  0  0  0  0  0  0
  -26.4500  -37.4080   23.7450 N   0  0  0  0  0  0  0  0  0  0  0  0
  -26.0400  -38.3210   23.9290 H   0  0  0  0  0  0  0  0  0  0  0  0
  -26.4380  -31.7410   25.1040 C   0  0  1  0  0  0  0  0  0  0  0  0
  -25.3580  -31.5110   26.1880 C   0  0  0  0  0  1  0  0  0  0  0  0
  -27.0140  -30.3610   24.7090 C   0  0  0  0  0  1  0  0  0  0  0  0
  -27.5940  -32.5370   25.7540 C   0  0  0  0  0  1  0  0  0  0  0  0
  -29.1690  -21.0600   20.6880 C   0  0  0  0  0  2  0  0  0  0  0  0
  -28.2690  -18.0270   18.3070 C   0  0  0  0  0  3  0  0  0  0  0  0
  -28.8790  -16.9210   18.9170 C   0  0  0  0  0  3  0  0  0  0  0  0
  -28.2910  -19.3140   18.8880 C   0  0  0  0  0  0  0  0  0  0  0  0
  -29.0600  -19.5790   20.0590 C   0  0  0  0  0  0  0  0  0  0  0  0
  -29.5250  -17.0510   20.1600 C   0  0  0  0  0  0  0  0  0  0  0  0
  -29.6350  -18.3980   20.7030 C   0  0  0  0  0  0  0  0  0  0  0  0
  -27.3780  -20.3410   18.2410 C   0  0  0  0  0  1  0  0  0  0  0  0
  -30.2590  -18.5510   21.8960 F   0  0  0  0  0  0  0  0  0  0  0  0
  -30.5630  -14.7130   20.3870 C   0  0  0  0  0  0  0  0  0  0  0  0
  -30.3600  -12.4480   19.3640 C   0  0  0  0  0  2  0  0  0  0  0  0
  -29.4160  -12.5600   18.1450 C   0  0  0  0  0  2  0  0  0  0  0  0
  -27.9480  -12.3860   18.5760 C   0  0  0  0  0  2  0  0  0  0  0  0
  -27.5880  -13.2410   19.8220 C   0  0  0  0  0  3  0  0  0  0  0  0
  -28.6550  -13.1230   20.9340 C   0  0  0  0  0  2  0  0  0  0  0  0
  -29.9550  -13.4790   20.3490 N   0  0  0  0  0  0  0  0  0  0  0  0
  -31.6960  -14.8660   19.9220 O   0  0  0  0  0  0  0  0  0  0  0  0
  -29.8430  -15.7910   20.8580 N   0  0  0  0  0  0  0  0  0  0  0  0
  -29.0970  -15.4960   21.4700 H   0  0  0  0  0  0  0  0  0  0  0  0
  -25.2000  -13.8090   20.5730 C   0  0  0  0  0  0  0  0  0  0  0  0
  -24.1410  -13.0260   20.9410 C   0  0  0  0  0  0  0  0  0  0  0  0
  -24.6130  -11.6770   20.8920 C   0  0  0  0  0  0  0  0  0  0  0  0
  -26.2480  -12.9400   20.3160 N   0  0  0  0  0  0  0  0  0  0  0  0
  -25.9010  -11.6510   20.5690 N   0  0  0  0  0  0  0  0  0  0  0  0
  -23.8970  -10.4090   21.0810 C   0  0  0  0  0  0  0  0  0  0  0  0
  -24.3520   -9.4320   21.9930 C   0  0  0  0  0  3  0  0  0  0  0  0
  -23.6350   -8.2280   22.1700 C   0  0  0  0  0  3  0  0  0  0  0  0
  -22.4490   -7.9950   21.4350 C   0  0  0  0  0  0  0  0  0  0  0  0
  -22.0120   -8.9600   20.5110 C   0  0  0  0  0  3  0  0  0  0  0  0
  -22.7300  -10.1540   20.3310 C   0  0  0  0  0  3  0  0  0  0  0  0
  -21.7010   -6.8440   21.5230 O   0  0  0  0  0  0  0  0  0  0  0  0
  -21.6860   -6.0810   22.6620 C   0  0  0  0  0  0  0  0  0  0  0  0
  -21.2890   -6.6100   23.9100 C   0  0  0  0  0  3  0  0  0  0  0  0
  -21.2200   -5.7710   25.0400 C   0  0  0  0  0  3  0  0  0  0  0  0
  -21.5410   -4.4050   24.9230 C   0  0  0  0  0  0  0  0  0  0  0  0
  -21.9340   -3.8750   23.6810 C   0  0  0  0  0  3  0  0  0  0  0  0
  -22.0040   -4.7120   22.5540 C   0  0  0  0  0  0  0  0  0  0  0  0
  -22.3600   -4.1920   21.3540 F   0  0  0  0  0  0  0  0  0  0  0  0
  -21.4680   -3.5970   26.0060 F   0  0  0  0  0  0  0  0  0  0  0  0
  -22.7450  -13.4920   21.2330 C   0  0  0  0  0  0  0  0  0  0  0  0
  -22.0310  -12.7830   22.1020 N   0  0  0  0  0  0  0  0  0  0  0  0
  -22.2950  -14.5210   20.7300 O   0  0  0  0  0  0  0  0  0  0  0  0
  -22.4090  -11.9460   22.5220 H   0  0  0  0  0  0  0  0  0  0  0  0
  -21.1000  -13.0810   22.3510 H   0  0  0  0  0  0  0  0  0  0  0  0
  -25.3560  -15.1830   20.4160 N   0  0  0  0  0  0  0  0  0  0  0  0
  -24.5910  -15.8320   20.5700 H   0  0  0  0  0  0  0  0  0  0  0  0
  -26.2130  -15.6370   20.1290 H   0  0  0  0  0  0  0  0  0  0  0  0
  1  2  1  0
  1  3  1  0
  2  5  1  0
  3  6  1  0
  5  8  1  0
  5  4  1  0
  6  4  1  0
  6 49  1  0
  6  7  1  6
  9 20  2  0
 10  8  1  0
 10 15  1  0
 11 19  1  0
 11 21  1  0
 12 18  1  0
 12 14  1  0
 13 19  1  0
 14 13  1  0
 15 14  2  0
 16 17  1  0
 16 10  2  0
 17 12  2  0
 18 11  1  0
 19  9  1  0
 21 23  2  0
 22 21  1  0
 24 22  1  0
 25 34  2  0
 25 30  1  0
 26 22  1  0
 26 30  1  0
 27 26  1  0
 28 29  1  0
 28 27  1  0
 29 25  1  0
 30 31  2  0
 31 32  1  0
 33 32  2  0
 34 33  1  0
 35  9  1  0
 35 36  1  0
 35 45  1  0
 36 39  1  0
 37 41  1  0
 37 36  1  0
 38 37  2  0
 41 40  1  0
 43 41  1  0
 43 44  1  0
 43 42  1  0
 45 48  1  1
 45 46  1  0
 47 45  1  0
 50 52  2  0
 50 51  1  0
 51 54  2  0
 52 53  1  0
 53 49  1  0
 53 55  2  0
 54 55  1  0
 54 66  1  0
 55 57  1  0
 56 52  1  0
 58 66  1  0
 59 64  1  0
 60 61  1  0
 60 59  1  0
 62 61  1  0
 62 71  1  0
 62 63  1  0
 64 58  1  0
 64 63  1  0
 65 58  2  0
 66 67  1  0
 68 69  2  0
 69 88  1  0
 70 69  1  0
 70 73  1  0
 71 72  1  0
 71 68  1  0
 72 70  2  0
 73 74  1  0
 74 75  2  0
 76 79  1  0
 76 75  1  0
 77 76  2  0
 78 77  1  0
 78 73  2  0
 79 80  1  0
 80 81  1  0
 81 82  2  0
 83 82  1  0
 83 87  1  0
 84 83  2  0
 85 80  2  0
 85 84  1  0
 86 85  1  0
 88 89  1  0
 89 92  1  0
 89 91  1  0
 90 88  2  0
 93 94  1  0
 93 68  1  0
 95 93  1  0
M  ISO  4   5 101   8 101  58 100  66 100
M  END
>  <TORSDO>  (9) 
F 18

>  <SCORE>  (9) 
-14.978

>  <name>  (9) 
8

>  <ligand_id>  (9) 
8

>  <original_smiles>  (9) 
[H]c1c([H])c([H])c2c(c1[H])C([H])([H])C([H])([H])C([H])([H])C2([H])N([H])C(=O)C1([H])N(C(=O)C([H])(N([H])C(=O)C([H])(N([H])C([H])([H])[H])C([H])([H])[H])C(C([H])([H])[H])(C([H])([H])[H])C([H])([H])[H])C([H])([H])c2c([H])c(OC3([H])C([H])([H])C([H])([H])C([H])([H])[N+]([H])(C([H])([H])c4c(F)c(N([H])C(=O)N5C([H])([H])C([H])([H])C([H])([H])C([H])(n6nc(-c7c([H])c([H])c(Oc8c([H])c([H])c(F)c([H])c8F)c([H])c7[H])c(C(=O)N([H])[H])c6N([H])[H])C5([H])[H])c([H])c([H])c4C([H])([H])[H])C3([H])[H])c([H])c([H])c2C1([H])[H]

>  <smiles>  (9) 
[H]c1c([H])c([H])c2c(c1[H])C([H])([H])C([H])([H])C([H])([H])C2([H])N([H])C(=O)C1([H])N(C(=O)C([H])(N([H])C(=O)C([H])(N([H])C([H])([H])[H])C([H])([H])[H])C(C([H])([H])[H])(C([H])([H])[H])C([H])([H])[H])C([H])([H])c2c([H])c(OC3([H])C([H])([H])C([H])([H])C([H])([H])[N+]([H])(C([H])([H])c4c(F)c(N([H])C(=O)N5C([H])([H])C([H])([H])C([H])([H])C([H])(n6nc(-c7c([H])c([H])c(Oc8c([H])c([H])c(F)c([H])c8F)c([H])c7[H])c(C(=O)N([H])[H])c6N([H])[H])C5([H])[H])c([H])c([H])c4C([H])([H])[H])C3([H])[H])c([H])c([H])c2C1([H])[H]

$$$$
9:0:0
     RDKit          3D

 96105  0  0  1  0  0  0  0  0999 V2000
  -29.3700  -21.8420   19.8210 C   0  0  0  0  0  2  0  0  0  0  0  0
  -27.5450  -18.4320   19.2680 C   0  0  0  0  0  3  0  0  0  0  0  0
  -28.3960  -17.5140   19.8980 C   0  0  0  0  0  3  0  0  0  0  0  0
  -27.8410  -19.8140   19.2330 C   0  0  0  0  0  0  0  0  0  0  0  0
  -29.5770  -17.9550   20.5190 C   0  0  0  0  0  0  0  0  0  0  0  0
  -29.8140  -19.3730   20.6210 C   0  0  0  0  0  0  0  0  0  0  0  0
  -28.9690  -20.3270   19.9390 C   0  0  0  0  0  0  0  0  0  0  0  0
  -26.9080  -20.6770   18.3970 C   0  0  0  0  0  1  0  0  0  0  0  0
  -30.9980  -19.8700   21.4470 C   0  0  0  0  0  1  0  0  0  0  0  0
  -30.5910  -16.8910   21.0180 C   0  0  0  0  0  2  0  0  0  0  0  0
  -30.7630  -14.4620   20.2960 C   0  0  0  0  0  0  0  0  0  0  0  0
  -30.4440  -12.2390   19.2550 C   0  0  0  0  0  2  0  0  0  0  0  0
  -29.4740  -12.3490   18.0580 C   0  0  0  0  0  2  0  0  0  0  0  0
  -28.0130  -12.2190   18.5260 C   0  0  0  0  0  2  0  0  0  0  0  0
  -27.6950  -13.1460   19.7300 C   0  0  0  0  0  3  0  0  0  0  0  0
  -28.7670  -13.0040   20.8370 C   0  0  0  0  0  2  0  0  0  0  0  0
  -30.0840  -13.2790   20.2350 N   0  0  0  0  0  0  0  0  0  0  0  0
  -31.8270  -14.6340   19.6960 O   0  0  0  0  0  0  0  0  0  0  0  0
  -30.1700  -15.4680   20.9840 N   0  0  0  0  0  0  0  0  0  0  0  0
  -29.3860  -15.2270   21.5660 H   0  0  0  0  0  0  0  0  0  0  0  0
  -25.3350  -13.8070   20.5210 C   0  0  0  0  0  0  0  0  0  0  0  0
  -24.2560  -13.0600   20.9030 C   0  0  0  0  0  0  0  0  0  0  0  0
  -24.6690  -11.6940   20.8140 C   0  0  0  0  0  0  0  0  0  0  0  0
  -26.3460  -12.9010   20.2350 N   0  0  0  0  0  0  0  0  0  0  0  0
  -25.9470  -11.6220   20.4650 N   0  0  0  0  0  0  0  0  0  0  0  0
  -23.9060  -10.4520   20.9870 C   0  0  0  0  0  0  0  0  0  0  0  0
  -24.3370   -9.4400   21.8730 C   0  0  0  0  0  3  0  0  0  0  0  0
  -23.5750   -8.2650   22.0400 C   0  0  0  0  0  3  0  0  0  0  0  0
  -22.3660   -8.0940   21.3260 C   0  0  0  0  0  0  0  0  0  0  0  0
  -21.9540   -9.0950   20.4270 C   0  0  0  0  0  3  0  0  0  0  0  0
  -22.7150  -10.2620   20.2570 C   0  0  0  0  0  3  0  0  0  0  0  0
  -21.5740   -6.9730   21.4030 O   0  0  0  0  0  0  0  0  0  0  0  0
  -21.5470   -6.1880   22.5280 C   0  0  0  0  0  0  0  0  0  0  0  0
  -21.1850   -6.7050   23.7910 C   0  0  0  0  0  3  0  0  0  0  0  0
  -21.1000   -5.8490   24.9070 C   0  0  0  0  0  3  0  0  0  0  0  0
  -21.3740   -4.4760   24.7620 C   0  0  0  0  0  0  0  0  0  0  0  0
  -21.7350   -3.9570   23.5050 C   0  0  0  0  0  3  0  0  0  0  0  0
  -21.8190   -4.8120   22.3910 C   0  0  0  0  0  0  0  0  0  0  0  0
  -22.1420   -4.3020   21.1790 F   0  0  0  0  0  0  0  0  0  0  0  0
  -21.2880   -3.6500   25.8320 F   0  0  0  0  0  0  0  0  0  0  0  0
  -22.8850  -13.5750   21.2380 C   0  0  0  0  0  0  0  0  0  0  0  0
  -22.1700  -12.8890   22.1180 N   0  0  0  0  0  0  0  0  0  0  0  0
  -22.4620  -14.6230   20.7480 O   0  0  0  0  0  0  0  0  0  0  0  0
  -22.5290  -12.0430   22.5370 H   0  0  0  0  0  0  0  0  0  0  0  0
  -21.2490  -13.2100   22.3780 H   0  0  0  0  0  0  0  0  0  0  0  0
  -25.5360  -15.1760   20.3780 N   0  0  0  0  0  0  0  0  0  0  0  0
  -24.7840  -15.8380   20.5260 H   0  0  0  0  0  0  0  0  0  0  0  0
  -26.3830  -15.6030   20.0240 H   0  0  0  0  0  0  0  0  0  0  0  0
  -28.4400  -23.3720   21.6990 C   0  0  0  0  0  0  0  0  0  0  0  0
  -28.4230  -22.5460   22.7560 C   0  0  0  0  0  2  0  0  0  0  0  0
  -28.4270  -24.9030   21.6970 C   0  0  0  0  0  2  0  0  0  0  0  0
  -28.3200  -24.1330   19.4260 C   0  0  0  0  0  2  0  0  0  0  0  0
  -28.8170  -25.3170   20.2850 C   0  0  0  0  0  3  0  0  0  0  0  0
  -28.3980  -22.9040   20.2780 N   0  0  1  0  0  4  0  0  0  0  0  0
  -27.5080  -22.4470   20.1400 H   0  0  0  0  0  0  0  0  0  0  0  0
  -28.6270  -26.7210   19.9200 O   0  0  0  0  0  0  0  0  0  0  0  0
  -24.7190  -31.7660   23.2090 C   0  0  0  0  0  0  0  0  0  0  0  0
  -27.4160  -27.3880   20.0190 C   0  0  0  0  0  0  0  0  0  0  0  0
  -23.5470  -30.3620   21.5700 C   0  0  0  0  0  3  0  0  0  0  0  0
  -24.9940  -28.8690   20.0970 C   0  0  0  0  0  0  0  0  0  0  0  0
  -26.0500  -30.7700   21.3280 C   0  0  0  0  0  2  0  0  0  0  0  0
  -26.1490  -29.4000   20.6780 C   0  0  0  0  0  0  0  0  0  0  0  0
  -27.3620  -28.6660   20.6350 C   0  0  0  0  0  3  0  0  0  0  0  0
  -26.2440  -26.8950   19.4060 C   0  0  0  0  0  3  0  0  0  0  0  0
  -25.0350  -27.6190   19.4540 C   0  0  0  0  0  3  0  0  0  0  0  0
  -23.7410  -29.7120   20.1730 C   0  0  0  0  0  2  0  0  0  0  0  0
  -24.7970  -30.9810   22.0970 N   0  0  0  0  0  0  0  0  0  0  0  0
  -23.6350  -31.9960   23.7620 O   0  0  0  0  0  0  0  0  0  0  0  0
  -22.9330  -29.3170   22.5280 C   0  0  0  0  0  0  0  0  0  0  0  0
  -21.6120  -29.2310   22.4210 N   0  0  0  0  0  0  0  0  0  0  0  0
  -23.6200  -28.6150   23.2730 O   0  0  0  0  0  0  0  0  0  0  0  0
  -21.1960  -29.9540   21.8510 H   0  0  0  0  0  0  0  0  0  0  0  0
  -18.2220  -27.7140   22.8730 C   0  0  0  0  0  0  0  0  0  0  0  0
  -20.6820  -28.1910   22.7820 C   0  0  0  0  0  3  0  0  0  0  0  0
  -20.9870  -26.7060   22.5660 C   0  0  0  0  0  2  0  0  0  0  0  0
  -19.8850  -26.1110   21.6620 C   0  0  0  0  0  2  0  0  0  0  0  0
  -18.4650  -26.3490   22.2210 C   0  0  0  0  0  2  0  0  0  0  0  0
  -19.2970  -28.5550   23.2490 C   0  0  0  0  0  0  0  0  0  0  0  0
  -19.0490  -29.8010   23.8590 C   0  0  0  0  0  3  0  0  0  0  0  0
  -17.7260  -30.2380   24.0420 C   0  0  0  0  0  3  0  0  0  0  0  0
  -16.6540  -29.4200   23.6440 C   0  0  0  0  0  3  0  0  0  0  0  0
  -16.9000  -28.1550   23.0790 C   0  0  0  0  0  3  0  0  0  0  0  0
  -25.9910  -32.4230   23.8210 C   0  0  0  0  0  3  0  0  0  0  0  0
  -26.5360  -31.6480   25.0810 C   0  0  1  0  0  0  0  0  0  0  0  0
  -25.4600  -31.3680   26.1570 C   0  0  0  0  0  1  0  0  0  0  0  0
  -27.1470  -30.2920   24.6570 C   0  0  0  0  0  1  0  0  0  0  0  0
  -27.6720  -32.4630   25.7420 C   0  0  0  0  0  1  0  0  0  0  0  0
  -25.6470  -33.8090   24.1670 N   0  0  0  0  0  0  0  0  0  0  0  0
  -25.9550  -34.8740   23.4180 C   0  0  0  0  0  0  0  0  0  0  0  0
  -26.6260  -34.7960   22.3850 O   0  0  0  0  0  0  0  0  0  0  0  0
  -25.0450  -33.9410   24.9670 H   0  0  0  0  0  0  0  0  0  0  0  0
  -24.1890  -36.6370   23.0790 C   0  0  0  0  0  1  0  0  0  0  0  0
  -25.4370  -36.2490   23.8880 C   0  0  0  0  0  3  0  0  0  0  0  0
  -27.5510  -37.1660   24.7370 C   0  0  0  0  0  1  0  0  0  0  0  0
  -26.4500  -37.3230   23.7910 N   0  0  0  0  0  0  0  0  0  0  0  0
  -26.0240  -38.2340   23.9470 H   0  0  0  0  0  0  0  0  0  0  0  0
  1  7  1  0
  1 54  1  0
  2  3  1  0
  3  5  2  0
  4  2  2  0
  4  7  1  0
  5  6  1  0
  5 10  1  0
  6  9  1  0
  7  6  2  0
  8  4  1  0
 11 19  1  0
 12 17  1  0
 13 14  1  0
 13 12  1  0
 15 14  1  0
 15 24  1  0
 15 16  1  0
 17 11  1  0
 17 16  1  0
 18 11  2  0
 19 10  1  0
 19 20  1  0
 21 22  2  0
 22 41  1  0
 23 22  1  0
 23 26  1  0
 24 25  1  0
 24 21  1  0
 25 23  2  0
 26 27  1  0
 27 28  2  0
 29 32  1  0
 29 28  1  0
 30 29  2  0
 31 30  1  0
 31 26  2  0
 32 33  1  0
 33 34  1  0
 34 35  2  0
 36 35  1  0
 36 40  1  0
 37 36  2  0
 38 33  2  0
 38 37  1  0
 39 38  1  0
 41 42  1  0
 42 45  1  0
 42 44  1  0
 43 41  2  0
 46 21  1  0
 46 47  1  0
 48 46  1  0
 49 50  2  0
 51 49  1  0
 52 54  1  0
 52 53  1  0
 53 56  1  0
 53 51  1  0
 54 49  1  0
 54 55  1  1
 56 58  1  0
 57 68  2  0
 58 63  1  0
 59 67  1  0
 59 69  1  0
 60 66  1  0
 60 62  1  0
 61 67  1  0
 62 61  1  0
 63 62  2  0
 64 65  1  0
 64 58  2  0
 65 60  2  0
 66 59  1  0
 67 57  1  0
 69 71  2  0
 70 69  1  0
 72 70  1  0
 73 82  2  0
 73 78  1  0
 74 70  1  0
 74 78  1  0
 75 74  1  0
 76 77  1  0
 76 75  1  0
 77 73  1  0
 78 79  2  0
 79 80  1  0
 81 80  2  0
 82 81  1  0
 83 57  1  0
 83 88  1  0
 83 84  1  0
 84 87  1  1
 84 85  1  0
 86 84  1  0
 88 91  1  0
 89 93  1  0
 89 88  1  0
 90 89  2  0
 93 92  1  0
 95 93  1  0
 95 96  1  0
 95 94  1  0
M  ISO  4  11 100  19 100  53 101  56 101
M  END
>  <TORSDO>  (10) 
F 19

>  <SCORE>  (10) 
-13.999

>  <name>  (10) 
9

>  <ligand_id>  (10) 
9

>  <original_smiles>  (10) 
[H]C([H])=C1C([H])([H])C([H])(Oc2c([H])c([H])c3c(c2[H])C([H])([H])N(C(=O)C([H])(N([H])C(=O)C([H])(N([H])C([H])([H])[H])C([H])([H])[H])C(C([H])([H])[H])(C([H])([H])[H])C([H])([H])[H])C([H])(C(=O)N([H])C2([H])c4c([H])c([H])c([H])c([H])c4C([H])([H])C([H])([H])C2([H])[H])C3([H])[H])C([H])([H])[N+]1([H])C([H])([H])c1c(C([H])([H])[H])c([H])c([H])c(C([H])([H])N([H])C(=O)N2C([H])([H])C([H])([H])C([H])([H])C([H])(n3nc(-c4c([H])c([H])c(Oc5c([H])c([H])c(F)c([H])c5F)c([H])c4[H])c(C(=O)N([H])[H])c3N([H])[H])C2([H])[H])c1C([H])([H])[H]

>  <smiles>  (10) 
[H]C([H])=C1C([H])([H])C([H])(Oc2c([H])c([H])c3c(c2[H])C([H])([H])N(C(=O)C([H])(N([H])C(=O)C([H])(N([H])C([H])([H])[H])C([H])([H])[H])C(C([H])([H])[H])(C([H])([H])[H])C([H])([H])[H])C([H])(C(=O)N([H])C2([H])c4c([H])c([H])c([H])c([H])c4C([H])([H])C([H])([H])C2([H])[H])C3([H])[H])C([H])([H])[N+]1([H])C([H])([H])c1c(C([H])([H])[H])c([H])c([H])c(C([H])([H])N([H])C(=O)N2C([H])([H])C([H])([H])C([H])([H])C([H])(n3nc(-c4c([H])c([H])c(Oc5c([H])c([H])c(F)c([H])c5F)c([H])c4[H])c(C(=O)N([H])[H])c3N([H])[H])C2([H])[H])c1C([H])([H])[H]

$$$$
10:0:0
     RDKit          3D

 94102  0  0  1  0  0  0  0  0999 V2000
  -28.3410  -17.7250   20.3340 C   0  0  0  0  0  3  0  0  0  0  0  0
  -27.3080  -18.6510   20.0980 C   0  0  0  0  0  3  0  0  0  0  0  0
  -29.6570  -18.1650   20.5810 C   0  0  0  0  0  0  0  0  0  0  0  0
  -28.8750  -20.5240   20.3190 C   0  0  0  0  0  0  0  0  0  0  0  0
  -27.5650  -20.0330   20.0990 C   0  0  0  0  0  0  0  0  0  0  0  0
  -29.9200  -19.5700   20.5500 C   0  0  0  0  0  0  0  0  0  0  0  0
  -26.2380  -21.1150   19.8360 Cl  0  0  0  0  0  0  0  0  0  0  0  0
  -31.5480  -20.1110   20.8000 Cl  0  0  0  0  0  0  0  0  0  0  0  0
  -30.7870  -17.1380   20.8490 C   0  0  0  0  0  2  0  0  0  0  0  0
  -31.2140  -14.6590   20.8100 C   0  0  0  0  0  0  0  0  0  0  0  0
  -31.0780  -12.3510   19.9310 C   0  0  0  0  0  2  0  0  0  0  0  0
  -30.2520  -12.3800   18.6240 C   0  0  0  0  0  2  0  0  0  0  0  0
  -28.7400  -12.3000   18.9230 C   0  0  0  0  0  2  0  0  0  0  0  0
  -28.2880  -13.3050   20.0170 C   0  0  0  0  0  3  0  0  0  0  0  0
  -29.2150  -13.1940   21.2450 C   0  0  0  0  0  2  0  0  0  0  0  0
  -30.5900  -13.4480   20.7900 N   0  0  0  0  0  0  0  0  0  0  0  0
  -32.3820  -14.8080   20.4390 O   0  0  0  0  0  0  0  0  0  0  0  0
  -30.4200  -15.7210   21.0940 N   0  0  0  0  0  0  0  0  0  0  0  0
  -29.4870  -15.5200   21.4200 H   0  0  0  0  0  0  0  0  0  0  0  0
  -25.8660  -14.0520   20.4670 C   0  0  0  0  0  0  0  0  0  0  0  0
  -24.7390  -13.3470   20.7950 C   0  0  0  0  0  0  0  0  0  0  0  0
  -25.1410  -11.9810   20.8670 C   0  0  0  0  0  0  0  0  0  0  0  0
  -26.8880  -13.1180   20.3840 N   0  0  0  0  0  0  0  0  0  0  0  0
  -26.4480  -11.8690   20.6740 N   0  0  0  0  0  0  0  0  0  0  0  0
  -24.3470  -10.7600   21.0450 C   0  0  0  0  0  0  0  0  0  0  0  0
  -24.6940   -9.7890   22.0100 C   0  0  0  0  0  3  0  0  0  0  0  0
  -23.9010   -8.6330   22.1780 C   0  0  0  0  0  3  0  0  0  0  0  0
  -22.7490   -8.4400   21.3790 C   0  0  0  0  0  0  0  0  0  0  0  0
  -22.4250   -9.3970   20.4020 C   0  0  0  0  0  3  0  0  0  0  0  0
  -23.2170  -10.5440   20.2320 C   0  0  0  0  0  3  0  0  0  0  0  0
  -21.9360   -7.3370   21.4520 O   0  0  0  0  0  0  0  0  0  0  0  0
  -21.8680   -6.5670   22.5860 C   0  0  0  0  0  0  0  0  0  0  0  0
  -21.4990   -7.1130   23.8340 C   0  0  0  0  0  3  0  0  0  0  0  0
  -21.3820   -6.2720   24.9590 C   0  0  0  0  0  3  0  0  0  0  0  0
  -21.6190   -4.8910   24.8360 C   0  0  0  0  0  0  0  0  0  0  0  0
  -21.9820   -4.3480   23.5920 C   0  0  0  0  0  3  0  0  0  0  0  0
  -22.1040   -5.1830   22.4690 C   0  0  0  0  0  0  0  0  0  0  0  0
  -22.4350   -4.6520   21.2670 F   0  0  0  0  0  0  0  0  0  0  0  0
  -21.4990   -4.0840   25.9160 F   0  0  0  0  0  0  0  0  0  0  0  0
  -23.3500  -13.8990   20.9150 C   0  0  0  0  0  0  0  0  0  0  0  0
  -22.5190  -13.2890   21.7530 N   0  0  0  0  0  0  0  0  0  0  0  0
  -23.0050  -14.9030   20.2950 O   0  0  0  0  0  0  0  0  0  0  0  0
  -22.8060  -12.4780   22.2810 H   0  0  0  0  0  0  0  0  0  0  0  0
  -21.5800  -13.6410   21.8710 H   0  0  0  0  0  0  0  0  0  0  0  0
  -26.0900  -15.3960   20.1980 N   0  0  0  0  0  0  0  0  0  0  0  0
  -25.2880  -16.0020   20.0580 H   0  0  0  0  0  0  0  0  0  0  0  0
  -26.9020  -15.7080   19.6770 H   0  0  0  0  0  0  0  0  0  0  0  0
  -29.1030  -22.0540   20.4110 C   0  0  0  0  0  2  0  0  0  0  0  0
  -28.4700  -22.8760   19.3330 N   0  0  0  0  0  4  0  0  0  0  0  0
  -27.5330  -22.5180   19.1880 H   0  0  0  0  0  0  0  0  0  0  0  0
  -28.9920  -22.7130   18.4890 H   0  0  0  0  0  0  0  0  0  0  0  0
  -28.3810  -24.3540   19.5990 C   0  0  0  0  0  2  0  0  0  0  0  0
  -28.2190  -25.2480   18.3260 C   0  0  0  0  0  2  0  0  0  0  0  0
  -28.2770  -26.6800   18.5730 O   0  0  0  0  0  0  0  0  0  0  0  0
  -24.7020  -31.1890   22.8220 C   0  0  0  0  0  0  0  0  0  0  0  0
  -27.1170  -27.4180   18.7670 C   0  0  0  0  0  0  0  0  0  0  0  0
  -23.4060  -30.1560   20.9920 C   0  0  0  0  0  3  0  0  0  0  0  0
  -24.7650  -28.9420   19.2180 C   0  0  0  0  0  0  0  0  0  0  0  0
  -25.9330  -30.5270   20.7540 C   0  0  0  0  0  2  0  0  0  0  0  0
  -25.9630  -29.3210   19.8330 C   0  0  0  0  0  0  0  0  0  0  0  0
  -27.1440  -28.5690   19.6010 C   0  0  0  0  0  3  0  0  0  0  0  0
  -25.8860  -27.0680   18.1660 C   0  0  0  0  0  3  0  0  0  0  0  0
  -24.7220  -27.8200   18.3820 C   0  0  0  0  0  3  0  0  0  0  0  0
  -23.5420  -29.7820   19.4940 C   0  0  0  0  0  2  0  0  0  0  0  0
  -24.7020  -30.6290   21.5800 N   0  0  0  0  0  0  0  0  0  0  0  0
  -23.6510  -31.3460   23.4580 O   0  0  0  0  0  0  0  0  0  0  0  0
  -22.7890  -28.9570   21.7520 C   0  0  0  0  0  0  0  0  0  0  0  0
  -21.4600  -28.7940   21.6410 N   0  0  0  0  0  0  0  0  0  0  0  0
  -23.5020  -28.1840   22.3980 O   0  0  0  0  0  0  0  0  0  0  0  0
  -20.9450  -29.4710   21.0920 H   0  0  0  0  0  0  0  0  0  0  0  0
  -18.1150  -27.4450   21.9610 C   0  0  0  0  0  0  0  0  0  0  0  0
  -20.6750  -27.7080   22.2310 C   0  0  0  0  0  3  0  0  0  0  0  0
  -20.7970  -26.4170   21.3890 C   0  0  0  0  0  2  0  0  0  0  0  0
  -19.6750  -26.2590   20.3580 C   0  0  0  0  0  2  0  0  0  0  0  0
  -18.3060  -26.2420   21.0510 C   0  0  0  0  0  2  0  0  0  0  0  0
  -19.2280  -28.1390   22.5070 C   0  0  0  0  0  0  0  0  0  0  0  0
  -18.9920  -29.2680   23.3240 C   0  0  0  0  0  3  0  0  0  0  0  0
  -17.6780  -29.6950   23.6010 C   0  0  0  0  0  3  0  0  0  0  0  0
  -16.5820  -28.9950   23.0650 C   0  0  0  0  0  3  0  0  0  0  0  0
  -16.8030  -27.8720   22.2480 C   0  0  0  0  0  3  0  0  0  0  0  0
  -26.0210  -31.6820   23.4940 C   0  0  0  0  0  3  0  0  0  0  0  0
  -25.7350  -32.9710   24.1380 N   0  0  0  0  0  0  0  0  0  0  0  0
  -26.1000  -34.1620   23.6490 C   0  0  0  0  0  0  0  0  0  0  0  0
  -26.7860  -34.2840   22.6300 O   0  0  0  0  0  0  0  0  0  0  0  0
  -25.1290  -32.9490   24.9450 H   0  0  0  0  0  0  0  0  0  0  0  0
  -24.4340  -36.0430   23.6790 C   0  0  0  0  0  1  0  0  0  0  0  0
  -25.6290  -35.4160   24.4110 C   0  0  0  0  0  3  0  0  0  0  0  0
  -27.7460  -36.0010   25.5050 C   0  0  0  0  0  1  0  0  0  0  0  0
  -26.6910  -36.4270   24.5900 N   0  0  0  0  0  0  0  0  0  0  0  0
  -26.3040  -37.2990   24.9390 H   0  0  0  0  0  0  0  0  0  0  0  0
  -26.6090  -30.6570   24.5410 C   0  0  1  0  0  0  0  0  0  0  0  0
  -25.5800  -30.1880   25.5950 C   0  0  0  0  0  1  0  0  0  0  0  0
  -27.1610  -29.3990   23.8300 C   0  0  0  0  0  1  0  0  0  0  0  0
  -27.8010  -31.2960   25.2910 C   0  0  0  0  0  1  0  0  0  0  0  0
  1  3  1  0
  2  5  1  0
  2  1  2  0
  3  9  1  0
  4 48  1  0
  4  6  1  0
  5  4  2  0
  6  3  2  0
  6  8  1  0
  7  5  1  0
  9 18  1  0
 10 18  1  0
 11 16  1  0
 12 13  1  0
 12 11  1  0
 14 13  1  0
 14 23  1  0
 14 15  1  0
 16 10  1  0
 16 15  1  0
 17 10  2  0
 18 19  1  0
 20 21  2  0
 21 22  1  0
 21 40  1  0
 22 25  1  0
 23 20  1  0
 23 24  1  0
 24 22  2  0
 25 26  1  0
 26 27  2  0
 28 31  1  0
 28 27  1  0
 29 28  2  0
 30 29  1  0
 30 25  2  0
 31 32  1  0
 32 33  1  0
 33 34  2  0
 35 34  1  0
 35 39  1  0
 36 35  2  0
 37 32  2  0
 37 36  1  0
 38 37  1  0
 40 41  1  0
 41 44  1  0
 41 43  1  0
 42 40  2  0
 45 20  1  0
 46 45  1  0
 47 45  1  0
 49 52  1  0
 49 48  1  0
 50 49  1  0
 51 49  1  0
 53 54  1  0
 53 52  1  0
 54 56  1  0
 55 66  2  0
 56 61  1  0
 57 65  1  0
 57 67  1  0
 58 64  1  0
 58 60  1  0
 59 65  1  0
 60 59  1  0
 61 60  2  0
 62 63  1  0
 62 56  2  0
 63 58  2  0
 64 57  1  0
 65 55  1  0
 67 69  2  0
 68 67  1  0
 70 68  1  0
 71 80  2  0
 71 76  1  0
 72 68  1  0
 72 76  1  0
 73 72  1  0
 74 75  1  0
 74 73  1  0
 75 71  1  0
 76 77  2  0
 77 78  1  0
 79 78  2  0
 80 79  1  0
 81 55  1  0
 81 82  1  0
 81 91  1  0
 82 85  1  0
 83 82  1  0
 83 87  1  0
 84 83  2  0
 87 86  1  0
 87 89  1  0
 89 90  1  0
 89 88  1  0
 91 94  1  1
 91 92  1  0
 93 91  1  0
M  ISO  4  10 100  18 100  53 101  54 101
M  END
>  <TORSDO>  (11) 
F 21

>  <SCORE>  (11) 
-10.139

>  <name>  (11) 
10

>  <ligand_id>  (11) 
10

>  <original_smiles>  (11) 
[H]c1c([H])c([H])c2c(c1[H])C([H])([H])C([H])([H])C([H])([H])C2([H])N([H])C(=O)C1([H])N(C(=O)C([H])(N([H])C(=O)C([H])(N([H])C([H])([H])[H])C([H])([H])[H])C(C([H])([H])[H])(C([H])([H])[H])C([H])([H])[H])C([H])([H])c2c([H])c(OC([H])([H])C([H])([H])[N+]([H])([H])C([H])([H])c3c(Cl)c([H])c([H])c(C([H])([H])N([H])C(=O)N4C([H])([H])C([H])([H])C([H])([H])C([H])(n5nc(-c6c([H])c([H])c(Oc7c([H])c([H])c(F)c([H])c7F)c([H])c6[H])c(C(=O)N([H])[H])c5N([H])[H])C4([H])[H])c3Cl)c([H])c([H])c2C1([H])[H]

>  <smiles>  (11) 
[H]c1c([H])c([H])c2c(c1[H])C([H])([H])C([H])([H])C([H])([H])C2([H])N([H])C(=O)C1([H])N(C(=O)C([H])(N([H])C(=O)C([H])(N([H])C([H])([H])[H])C([H])([H])[H])C(C([H])([H])[H])(C([H])([H])[H])C([H])([H])[H])C([H])([H])c2c([H])c(OC([H])([H])C([H])([H])[N+]([H])([H])C([H])([H])c3c(Cl)c([H])c([H])c(C([H])([H])N([H])C(=O)N4C([H])([H])C([H])([H])C([H])([H])C([H])(n5nc(-c6c([H])c([H])c(Oc7c([H])c([H])c(F)c([H])c7F)c([H])c6[H])c(C(=O)N([H])[H])c5N([H])[H])C4([H])[H])c3Cl)c([H])c([H])c2C1([H])[H]

$$$$
11:0:0
     RDKit          3D

 96105  0  0  1  0  0  0  0  0999 V2000
  -29.8800  -21.6360   19.6960 C   0  0  0  0  0  2  0  0  0  0  0  0
  -31.1900  -17.9410   20.1560 C   0  0  0  0  0  3  0  0  0  0  0  0
  -31.0820  -19.3480   19.9540 C   0  0  0  0  0  0  0  0  0  0  0  0
  -28.6740  -19.2040   20.1090 C   0  0  0  0  0  0  0  0  0  0  0  0
  -29.8270  -20.0460   19.9250 C   0  0  0  0  0  0  0  0  0  0  0  0
  -28.8070  -17.7930   20.3990 C   0  0  0  0  0  0  0  0  0  0  0  0
  -30.0680  -17.1170   20.3820 C   0  0  0  0  0  0  0  0  0  0  0  0
  -32.3940  -20.0860   19.7290 C   0  0  0  0  0  1  0  0  0  0  0  0
  -27.2560  -19.7550   19.9700 C   0  0  0  0  0  1  0  0  0  0  0  0
  -27.5530  -16.9910   20.7510 C   0  0  0  0  0  1  0  0  0  0  0  0
  -30.9330  -14.6660   20.0280 C   0  0  0  0  0  0  0  0  0  0  0  0
  -30.7410  -12.4240   18.9550 C   0  0  0  0  0  2  0  0  0  0  0  0
  -29.7390  -12.5370   17.7830 C   0  0  0  0  0  2  0  0  0  0  0  0
  -28.2870  -12.3650   18.2720 C   0  0  0  0  0  2  0  0  0  0  0  0
  -27.9760  -13.2140   19.5330 C   0  0  0  0  0  3  0  0  0  0  0  0
  -29.0810  -13.0450   20.5990 C   0  0  0  0  0  2  0  0  0  0  0  0
  -30.3590  -13.4210   19.9750 N   0  0  0  0  0  0  0  0  0  0  0  0
  -32.0530  -14.8700   19.5460 O   0  0  0  0  0  0  0  0  0  0  0  0
  -30.1340  -15.6580   20.5420 N   0  0  0  0  0  0  0  0  0  0  0  0
  -29.3200  -15.2720   20.9930 H   0  0  0  0  0  0  0  0  0  0  0  0
  -25.6210  -13.7970   20.3760 C   0  0  0  0  0  0  0  0  0  0  0  0
  -24.5730  -13.0180   20.7830 C   0  0  0  0  0  0  0  0  0  0  0  0
  -25.0310  -11.6680   20.6940 C   0  0  0  0  0  0  0  0  0  0  0  0
  -26.6510  -12.9220   20.0710 N   0  0  0  0  0  0  0  0  0  0  0  0
  -26.3040  -11.6340   20.3190 N   0  0  0  0  0  0  0  0  0  0  0  0
  -24.3120  -10.4030   20.8890 C   0  0  0  0  0  0  0  0  0  0  0  0
  -24.7170   -9.4650   21.8640 C   0  0  0  0  0  3  0  0  0  0  0  0
  -24.0000   -8.2640   22.0430 C   0  0  0  0  0  3  0  0  0  0  0  0
  -22.8610   -7.9920   21.2490 C   0  0  0  0  0  0  0  0  0  0  0  0
  -22.4760   -8.9170   20.2620 C   0  0  0  0  0  3  0  0  0  0  0  0
  -23.1940  -10.1100   20.0820 C   0  0  0  0  0  3  0  0  0  0  0  0
  -22.1170   -6.8400   21.3360 O   0  0  0  0  0  0  0  0  0  0  0  0
  -21.9460   -6.1820   22.5270 C   0  0  0  0  0  0  0  0  0  0  0  0
  -21.3690   -6.8150   23.6510 C   0  0  0  0  0  3  0  0  0  0  0  0
  -21.1480   -6.0810   24.8330 C   0  0  0  0  0  3  0  0  0  0  0  0
  -21.4930   -4.7180   24.8930 C   0  0  0  0  0  0  0  0  0  0  0  0
  -22.0630   -4.0870   23.7750 C   0  0  0  0  0  3  0  0  0  0  0  0
  -22.2870   -4.8160   22.5950 C   0  0  0  0  0  0  0  0  0  0  0  0
  -22.8170   -4.1980   21.5120 F   0  0  0  0  0  0  0  0  0  0  0  0
  -21.2720   -4.0130   26.0270 F   0  0  0  0  0  0  0  0  0  0  0  0
  -23.1940  -13.4910   21.1380 C   0  0  0  0  0  0  0  0  0  0  0  0
  -22.5170  -12.7840   22.0370 N   0  0  0  0  0  0  0  0  0  0  0  0
  -22.7260  -14.5210   20.6550 O   0  0  0  0  0  0  0  0  0  0  0  0
  -22.9090  -11.9500   22.4470 H   0  0  0  0  0  0  0  0  0  0  0  0
  -21.5940  -13.0820   22.3190 H   0  0  0  0  0  0  0  0  0  0  0  0
  -25.7770  -15.1690   20.2210 N   0  0  0  0  0  0  0  0  0  0  0  0
  -25.0260  -15.8230   20.4120 H   0  0  0  0  0  0  0  0  0  0  0  0
  -26.6070  -15.6150   19.8510 H   0  0  0  0  0  0  0  0  0  0  0  0
  -28.7550  -23.2070   21.4590 C   0  0  0  0  0  0  0  0  0  0  0  0
  -29.0940  -22.5150   22.5610 C   0  0  0  0  0  2  0  0  0  0  0  0
  -28.3790  -24.6920   21.3940 C   0  0  0  0  0  2  0  0  0  0  0  0
  -28.7700  -23.9130   19.1620 C   0  0  0  0  0  2  0  0  0  0  0  0
  -28.9420  -25.1780   20.0660 C   0  0  0  0  0  3  0  0  0  0  0  0
  -28.8090  -22.6740   20.0470 N   0  0  1  0  0  4  0  0  0  0  0  0
  -27.9390  -22.2000   19.8560 H   0  0  0  0  0  0  0  0  0  0  0  0
  -28.7650  -26.5920   19.6490 O   0  0  0  0  0  0  0  0  0  0  0  0
  -25.0150  -31.6810   23.1130 C   0  0  0  0  0  0  0  0  0  0  0  0
  -27.5900  -27.3420   19.7470 C   0  0  0  0  0  0  0  0  0  0  0  0
  -23.8060  -30.4480   21.3430 C   0  0  0  0  0  3  0  0  0  0  0  0
  -25.2450  -28.9730   19.8250 C   0  0  0  0  0  0  0  0  0  0  0  0
  -26.3490  -30.7350   21.2140 C   0  0  0  0  0  2  0  0  0  0  0  0
  -26.4090  -29.4050   20.4700 C   0  0  0  0  0  0  0  0  0  0  0  0
  -27.5830  -28.6040   20.4140 C   0  0  0  0  0  3  0  0  0  0  0  0
  -26.4020  -26.9400   19.1020 C   0  0  0  0  0  3  0  0  0  0  0  0
  -25.2420  -27.7470   19.1350 C   0  0  0  0  0  3  0  0  0  0  0  0
  -24.0280  -29.8730   19.9170 C   0  0  0  0  0  2  0  0  0  0  0  0
  -25.0750  -30.9680   21.9490 N   0  0  0  0  0  0  0  0  0  0  0  0
  -23.9300  -31.9360   23.6550 O   0  0  0  0  0  0  0  0  0  0  0  0
  -23.1100  -29.3710   22.2090 C   0  0  0  0  0  0  0  0  0  0  0  0
  -21.7730  -29.2840   22.1060 N   0  0  0  0  0  0  0  0  0  0  0  0
  -23.7700  -28.6220   22.9320 O   0  0  0  0  0  0  0  0  0  0  0  0
  -21.3010  -29.9460   21.5040 H   0  0  0  0  0  0  0  0  0  0  0  0
  -18.3380  -28.2910   22.6320 C   0  0  0  0  0  0  0  0  0  0  0  0
  -20.9180  -28.3160   22.7920 C   0  0  0  0  0  3  0  0  0  0  0  0
  -20.8760  -26.9700   22.0310 C   0  0  0  0  0  2  0  0  0  0  0  0
  -19.7080  -26.8710   21.0460 C   0  0  0  0  0  2  0  0  0  0  0  0
  -18.3720  -27.0330   21.7790 C   0  0  0  0  0  2  0  0  0  0  0  0
  -19.5330  -28.9010   23.0950 C   0  0  0  0  0  0  0  0  0  0  0  0
  -19.4460  -30.0890   23.8540 C   0  0  0  0  0  3  0  0  0  0  0  0
  -18.1940  -30.6590   24.1560 C   0  0  0  0  0  3  0  0  0  0  0  0
  -17.0150  -30.0420   23.7100 C   0  0  0  0  0  3  0  0  0  0  0  0
  -17.0860  -28.8590   22.9530 C   0  0  0  0  0  3  0  0  0  0  0  0
  -26.3010  -32.2290   23.8040 C   0  0  0  0  0  3  0  0  0  0  0  0
  -26.0000  -33.5810   24.2980 N   0  0  0  0  0  0  0  0  0  0  0  0
  -26.3650  -34.7150   23.6840 C   0  0  0  0  0  0  0  0  0  0  0  0
  -27.0560  -34.7300   22.6620 O   0  0  0  0  0  0  0  0  0  0  0  0
  -25.3920  -33.6460   25.1010 H   0  0  0  0  0  0  0  0  0  0  0  0
  -24.6730  -36.5650   23.5130 C   0  0  0  0  0  1  0  0  0  0  0  0
  -25.8850  -36.0430   24.3000 C   0  0  0  0  0  3  0  0  0  0  0  0
  -28.0070  -36.7820   25.2920 C   0  0  0  0  0  1  0  0  0  0  0  0
  -26.9350  -37.0840   24.3450 N   0  0  0  0  0  0  0  0  0  0  0  0
  -26.5380  -37.9850   24.5930 H   0  0  0  0  0  0  0  0  0  0  0  0
  -26.8140  -31.3110   24.9810 C   0  0  1  0  0  0  0  0  0  0  0  0
  -25.7230  -30.9590   26.0200 C   0  0  0  0  0  1  0  0  0  0  0  0
  -27.3850  -29.9870   24.4230 C   0  0  0  0  0  1  0  0  0  0  0  0
  -27.9720  -32.0130   25.7280 C   0  0  0  0  0  1  0  0  0  0  0  0
  1  5  1  0
  1 54  1  0
  2  7  1  0
  3  2  2  0
  4  6  1  0
  5  3  1  0
  5  4  2  0
  6 10  1  0
  7  6  2  0
  7 19  1  0
  8  3  1  0
  9  4  1  0
 11 19  1  0
 12 17  1  0
 13 14  1  0
 13 12  1  0
 15 14  1  0
 15 24  1  0
 15 16  1  0
 17 11  1  0
 17 16  1  0
 18 11  2  0
 19 20  1  0
 21 22  2  0
 22 41  1  0
 23 22  1  0
 23 26  1  0
 24 25  1  0
 24 21  1  0
 25 23  2  0
 26 27  1  0
 27 28  2  0
 29 32  1  0
 29 28  1  0
 30 29  2  0
 31 30  1  0
 31 26  2  0
 32 33  1  0
 33 38  2  0
 33 34  1  0
 34 35  2  0
 35 36  1  0
 36 40  1  0
 37 36  2  0
 38 37  1  0
 39 38  1  0
 41 42  1  0
 42 45  1  0
 42 44  1  0
 43 41  2  0
 46 21  1  0
 46 47  1  0
 48 46  1  0
 49 50  2  0
 51 49  1  0
 52 54  1  0
 52 53  1  0
 53 56  1  0
 53 51  1  0
 54 49  1  0
 54 55  1  6
 56 58  1  0
 57 68  2  0
 58 63  1  0
 59 67  1  0
 59 69  1  0
 60 66  1  0
 60 62  1  0
 61 67  1  0
 62 61  1  0
 63 62  2  0
 64 65  1  0
 64 58  2  0
 65 60  2  0
 66 59  1  0
 67 57  1  0
 69 71  2  0
 70 69  1  0
 72 70  1  0
 73 82  2  0
 73 78  1  0
 74 70  1  0
 74 78  1  0
 75 74  1  0
 76 77  1  0
 76 75  1  0
 77 73  1  0
 78 79  2  0
 79 80  1  0
 81 80  2  0
 82 81  1  0
 83 57  1  0
 83 84  1  0
 83 93  1  0
 84 87  1  0
 85 84  1  0
 85 89  1  0
 86 85  2  0
 89 88  1  0
 89 91  1  0
 91 92  1  0
 91 90  1  0
 93 96  1  1
 93 94  1  0
 95 93  1  0
M  ISO  4  11 100  19 100  53 101  56 101
M  END
>  <TORSDO>  (12) 
F 18

>  <SCORE>  (12) 
-12.645

>  <name>  (12) 
11

>  <ligand_id>  (12) 
11

>  <original_smiles>  (12) 
[H]C([H])=C1C([H])([H])C([H])(Oc2c([H])c([H])c3c(c2[H])C([H])([H])N(C(=O)C([H])(N([H])C(=O)C([H])(N([H])C([H])([H])[H])C([H])([H])[H])C(C([H])([H])[H])(C([H])([H])[H])C([H])([H])[H])C([H])(C(=O)N([H])C2([H])c4c([H])c([H])c([H])c([H])c4C([H])([H])C([H])([H])C2([H])[H])C3([H])[H])C([H])([H])[N+]1([H])C([H])([H])c1c(C([H])([H])[H])c([H])c(N([H])C(=O)N2C([H])([H])C([H])([H])C([H])([H])C([H])(n3nc(-c4c([H])c([H])c(Oc5c([H])c([H])c(F)c([H])c5F)c([H])c4[H])c(C(=O)N([H])[H])c3N([H])[H])C2([H])[H])c(C([H])([H])[H])c1C([H])([H])[H]

>  <smiles>  (12) 
[H]C([H])=C1C([H])([H])C([H])(Oc2c([H])c([H])c3c(c2[H])C([H])([H])N(C(=O)C([H])(N([H])C(=O)C([H])(N([H])C([H])([H])[H])C([H])([H])[H])C(C([H])([H])[H])(C([H])([H])[H])C([H])([H])[H])C([H])(C(=O)N([H])C2([H])c4c([H])c([H])c([H])c([H])c4C([H])([H])C([H])([H])C2([H])[H])C3([H])[H])C([H])([H])[N+]1([H])C([H])([H])c1c(C([H])([H])[H])c([H])c(N([H])C(=O)N2C([H])([H])C([H])([H])C([H])([H])C([H])(n3nc(-c4c([H])c([H])c(Oc5c([H])c([H])c(F)c([H])c5F)c([H])c4[H])c(C(=O)N([H])[H])c3N([H])[H])C2([H])[H])c(C([H])([H])[H])c1C([H])([H])[H]

$$$$
12:0:0
     RDKit          3D

 94103  0  0  1  0  0  0  0  0999 V2000
  -30.8160  -19.6820   18.9750 C   0  0  0  0  0  3  0  0  0  0  0  0
  -29.1910  -20.3680   21.0980 C   0  0  0  0  0  3  0  0  0  0  0  0
  -30.3790  -21.0340   19.1140 C   0  0  0  0  0  0  0  0  0  0  0  0
  -30.4700  -18.6400   19.8730 C   0  0  0  0  0  0  0  0  0  0  0  0
  -29.5430  -21.4340   20.2050 C   0  0  0  0  0  0  0  0  0  0  0  0
  -29.6270  -19.0180   20.9460 C   0  0  0  0  0  0  0  0  0  0  0  0
  -30.8340  -21.9990   18.0300 C   0  0  0  0  0  1  0  0  0  0  0  0
  -29.1520  -17.8500   22.1270 Cl  0  0  0  0  0  0  0  0  0  0  0  0
  -27.9360  -23.1650   21.1120 C   0  0  0  0  0  0  0  0  0  0  0  0
  -27.6740  -24.6680   21.1330 C   0  0  0  0  0  2  0  0  0  0  0  0
  -29.6290  -24.0910   19.8810 C   0  0  0  0  0  2  0  0  0  0  0  0
  -28.9830  -25.3090   20.6350 C   0  0  0  0  0  3  0  0  0  0  0  0
  -29.0550  -22.8230   20.4270 N   0  0  0  0  0  0  0  0  0  0  0  0
  -27.1350  -22.3940   21.6500 O   0  0  0  0  0  0  0  0  0  0  0  0
  -28.9940  -26.6400   19.9680 O   0  0  0  0  0  0  0  0  0  0  0  0
  -24.7740  -31.5810   23.0930 C   0  0  0  0  0  0  0  0  0  0  0  0
  -27.8330  -27.4140   19.9460 C   0  0  0  0  0  0  0  0  0  0  0  0
  -23.7490  -30.1940   21.3270 C   0  0  0  0  0  3  0  0  0  0  0  0
  -25.3720  -28.8430   19.8870 C   0  0  0  0  0  0  0  0  0  0  0  0
  -26.2590  -30.7080   21.2830 C   0  0  0  0  0  2  0  0  0  0  0  0
  -26.4670  -29.3760   20.5790 C   0  0  0  0  0  0  0  0  0  0  0  0
  -27.7040  -28.6670   20.6110 C   0  0  0  0  0  3  0  0  0  0  0  0
  -26.7400  -26.9650   19.1790 C   0  0  0  0  0  3  0  0  0  0  0  0
  -25.5070  -27.6400   19.1790 C   0  0  0  0  0  3  0  0  0  0  0  0
  -24.0700  -29.6170   19.9240 C   0  0  0  0  0  2  0  0  0  0  0  0
  -24.9420  -30.8430   21.9590 N   0  0  0  0  0  0  0  0  0  0  0  0
  -23.6510  -31.7510   23.5900 O   0  0  0  0  0  0  0  0  0  0  0  0
  -23.1270  -29.0790   22.1990 C   0  0  0  0  0  0  0  0  0  0  0  0
  -21.8120  -28.8520   22.0390 N   0  0  0  0  0  0  0  0  0  0  0  0
  -23.8240  -28.4220   22.9760 O   0  0  0  0  0  0  0  0  0  0  0  0
  -21.3060  -29.4360   21.3890 H   0  0  0  0  0  0  0  0  0  0  0  0
  -18.4700  -27.5360   22.4710 C   0  0  0  0  0  0  0  0  0  0  0  0
  -21.0270  -27.8260   22.7270 C   0  0  0  0  0  3  0  0  0  0  0  0
  -21.1480  -26.4600   22.0120 C   0  0  0  0  0  2  0  0  0  0  0  0
  -20.0360  -26.2110   20.9880 C   0  0  0  0  0  2  0  0  0  0  0  0
  -18.6620  -26.2630   21.6640 C   0  0  0  0  0  2  0  0  0  0  0  0
  -19.5800  -28.2770   22.9550 C   0  0  0  0  0  0  0  0  0  0  0  0
  -19.3460  -29.4720   23.6700 C   0  0  0  0  0  3  0  0  0  0  0  0
  -18.0340  -29.9260   23.9040 C   0  0  0  0  0  3  0  0  0  0  0  0
  -16.9390  -29.1810   23.4350 C   0  0  0  0  0  3  0  0  0  0  0  0
  -17.1580  -27.9860   22.7250 C   0  0  0  0  0  3  0  0  0  0  0  0
  -25.9810  -32.2660   23.8070 C   0  0  0  0  0  3  0  0  0  0  0  0
  -25.5730  -33.6370   24.1480 N   0  0  0  0  0  0  0  0  0  0  0  0
  -25.8560  -34.7210   23.4150 C   0  0  0  0  0  0  0  0  0  0  0  0
  -26.5600  -34.6790   22.4020 O   0  0  0  0  0  0  0  0  0  0  0  0
  -24.9470  -33.7390   24.9330 H   0  0  0  0  0  0  0  0  0  0  0  0
  -24.0100  -36.3900   23.0570 C   0  0  0  0  0  1  0  0  0  0  0  0
  -25.2670  -36.0660   23.8800 C   0  0  0  0  0  3  0  0  0  0  0  0
  -27.3150  -37.1000   24.7540 C   0  0  0  0  0  1  0  0  0  0  0  0
  -26.2230  -37.1920   23.7890 N   0  0  0  0  0  0  0  0  0  0  0  0
  -25.7470  -38.0790   23.9330 H   0  0  0  0  0  0  0  0  0  0  0  0
  -26.4630  -31.4920   25.0930 C   0  0  1  0  0  0  0  0  0  0  0  0
  -25.3250  -31.1640   26.0860 C   0  0  0  0  0  1  0  0  0  0  0  0
  -27.1490  -30.1590   24.7070 C   0  0  0  0  0  1  0  0  0  0  0  0
  -27.5250  -32.3320   25.8410 C   0  0  0  0  0  1  0  0  0  0  0  0
  -31.1920  -17.2520   19.7210 C   0  0  0  0  0  2  0  0  0  0  0  0
  -31.2630  -14.7440   19.7850 C   0  0  0  0  0  0  0  0  0  0  0  0
  -30.9440  -12.4430   18.9290 C   0  0  0  0  0  2  0  0  0  0  0  0
  -29.9460  -12.4720   17.7550 C   0  0  0  0  0  2  0  0  0  0  0  0
  -28.5040  -12.3410   18.2780 C   0  0  0  0  0  2  0  0  0  0  0  0
  -28.2020  -13.3070   19.4570 C   0  0  0  0  0  3  0  0  0  0  0  0
  -29.3220  -13.2870   20.5210 C   0  0  0  0  0  2  0  0  0  0  0  0
  -30.5890  -13.5540   19.8330 N   0  0  0  0  0  0  0  0  0  0  0  0
  -32.4240  -14.7930   19.3730 O   0  0  0  0  0  0  0  0  0  0  0  0
  -30.5720  -15.9100   19.9820 N   0  0  0  0  0  0  0  0  0  0  0  0
  -29.6040  -15.8700   20.2610 H   0  0  0  0  0  0  0  0  0  0  0  0
  -25.9030  -13.9480   20.4040 C   0  0  0  0  0  0  0  0  0  0  0  0
  -24.8390  -13.1950   20.8190 C   0  0  0  0  0  0  0  0  0  0  0  0
  -25.2430  -11.8310   20.6820 C   0  0  0  0  0  0  0  0  0  0  0  0
  -26.8890  -13.0460   20.0390 N   0  0  0  0  0  0  0  0  0  0  0  0
  -26.5020  -11.7640   20.2680 N   0  0  0  0  0  0  0  0  0  0  0  0
  -24.4820  -10.5880   20.8640 C   0  0  0  0  0  0  0  0  0  0  0  0
  -24.8610   -9.6230   21.8230 C   0  0  0  0  0  3  0  0  0  0  0  0
  -24.1020   -8.4450   21.9920 C   0  0  0  0  0  3  0  0  0  0  0  0
  -22.9490   -8.2240   21.2000 C   0  0  0  0  0  0  0  0  0  0  0  0
  -22.5900   -9.1770   20.2310 C   0  0  0  0  0  3  0  0  0  0  0  0
  -23.3510  -10.3450   20.0600 C   0  0  0  0  0  3  0  0  0  0  0  0
  -22.1660   -7.0980   21.2780 O   0  0  0  0  0  0  0  0  0  0  0  0
  -21.9270   -6.4660   22.4720 C   0  0  0  0  0  0  0  0  0  0  0  0
  -21.2750   -7.1190   23.5420 C   0  0  0  0  0  3  0  0  0  0  0  0
  -20.9880   -6.4120   24.7270 C   0  0  0  0  0  3  0  0  0  0  0  0
  -21.3430   -5.0540   24.8420 C   0  0  0  0  0  0  0  0  0  0  0  0
  -21.9880   -4.4020   23.7760 C   0  0  0  0  0  3  0  0  0  0  0  0
  -22.2760   -5.1060   22.5930 C   0  0  0  0  0  0  0  0  0  0  0  0
  -22.8780   -4.4680   21.5610 F   0  0  0  0  0  0  0  0  0  0  0  0
  -21.0610   -4.3740   25.9760 F   0  0  0  0  0  0  0  0  0  0  0  0
  -23.4880  -13.7080   21.2250 C   0  0  0  0  0  0  0  0  0  0  0  0
  -22.8100  -13.0040   22.1250 N   0  0  0  0  0  0  0  0  0  0  0  0
  -23.0450  -14.7670   20.7810 O   0  0  0  0  0  0  0  0  0  0  0  0
  -23.1820  -12.1440   22.5020 H   0  0  0  0  0  0  0  0  0  0  0  0
  -21.9080  -13.3310   22.4420 H   0  0  0  0  0  0  0  0  0  0  0  0
  -26.1060  -15.3210   20.2840 N   0  0  0  0  0  0  0  0  0  0  0  0
  -25.3790  -15.9940   20.5020 H   0  0  0  0  0  0  0  0  0  0  0  0
  -26.9430  -15.7520   19.9140 H   0  0  0  0  0  0  0  0  0  0  0  0
  1  3  2  0
  1  4  1  0
  3  5  1  0
  4  6  2  0
  5 13  1  0
  5  2  2  0
  6  2  1  0
  6  8  1  0
  7  3  1  0
  9 10  1  0
  9 14  2  0
 11 13  1  0
 11 12  1  0
 12 15  1  0
 12 10  1  0
 13  9  1  0
 16 27  2  0
 17 15  1  0
 17 22  1  0
 18 26  1  0
 18 28  1  0
 19 25  1  0
 19 21  1  0
 20 26  1  0
 21 22  2  0
 21 20  1  0
 23 17  2  0
 24 23  1  0
 24 19  2  0
 25 18  1  0
 26 16  1  0
 28 30  2  0
 29 28  1  0
 31 29  1  0
 32 41  2  0
 32 37  1  0
 33 29  1  0
 33 37  1  0
 34 33  1  0
 35 36  1  0
 35 34  1  0
 36 32  1  0
 37 38  2  0
 38 39  1  0
 40 39  2  0
 41 40  1  0
 42 16  1  0
 42 43  1  0
 42 52  1  0
 43 46  1  0
 44 48  1  0
 44 43  1  0
 45 44  2  0
 48 47  1  0
 50 48  1  0
 50 51  1  0
 50 49  1  0
 52 55  1  1
 52 53  1  0
 54 52  1  0
 56  4  1  0
 56 65  1  0
 57 63  1  0
 57 65  1  0
 58 63  1  0
 59 60  1  0
 59 58  1  0
 61 60  1  0
 61 70  1  0
 61 62  1  0
 63 62  1  0
 64 57  2  0
 65 66  1  0
 67 68  2  0
 68 87  1  0
 69 68  1  0
 69 72  1  0
 70 71  1  0
 70 67  1  0
 71 69  2  0
 72 73  1  0
 73 74  2  0
 75 78  1  0
 75 74  1  0
 76 75  2  0
 77 76  1  0
 77 72  2  0
 78 79  1  0
 79 84  2  0
 79 80  1  0
 80 81  2  0
 81 82  1  0
 82 86  1  0
 83 82  2  0
 84 83  1  0
 85 84  1  0
 87 88  1  0
 88 91  1  0
 88 90  1  0
 89 87  2  0
 92 67  1  0
 92 93  1  0
 94 92  1  0
M  ISO  4  12 101  15 101  57 100  65 100
M  END
>  <TORSDO>  (13) 
F 18

>  <SCORE>  (13) 
-11.790

>  <name>  (13) 
12

>  <ligand_id>  (13) 
12

>  <original_smiles>  (13) 
[H]c1c([H])c([H])c2c(c1[H])C([H])([H])C([H])([H])C([H])([H])C2([H])N([H])C(=O)C1([H])N(C(=O)C([H])(N([H])C(=O)C([H])(N([H])C([H])([H])[H])C([H])([H])[H])C(C([H])([H])[H])(C([H])([H])[H])C([H])([H])[H])C([H])([H])c2c([H])c(OC3([H])C([H])([H])C(=O)N(c4c([H])c(Cl)c(C([H])([H])N([H])C(=O)N5C([H])([H])C([H])([H])C([H])([H])C([H])(n6nc(-c7c([H])c([H])c(Oc8c([H])c([H])c(F)c([H])c8F)c([H])c7[H])c(C(=O)N([H])[H])c6N([H])[H])C5([H])[H])c([H])c4C([H])([H])[H])C3([H])[H])c([H])c([H])c2C1([H])[H]

>  <smiles>  (13) 
[H]c1c([H])c([H])c2c(c1[H])C([H])([H])C([H])([H])C([H])([H])C2([H])N([H])C(=O)C1([H])N(C(=O)C([H])(N([H])C(=O)C([H])(N([H])C([H])([H])[H])C([H])([H])[H])C(C([H])([H])[H])(C([H])([H])[H])C([H])([H])[H])C([H])([H])c2c([H])c(OC3([H])C([H])([H])C(=O)N(c4c([H])c(Cl)c(C([H])([H])N([H])C(=O)N5C([H])([H])C([H])([H])C([H])([H])C([H])(n6nc(-c7c([H])c([H])c(Oc8c([H])c([H])c(F)c([H])c8F)c([H])c7[H])c(C(=O)N([H])[H])c6N([H])[H])C5([H])[H])c([H])c4C([H])([H])[H])C3([H])[H])c([H])c([H])c2C1([H])[H]

$$$$
13:0:0
     RDKit          3D

 96105  0  0  1  0  0  0  0  0999 V2000
  -30.9170  -18.3950   22.1360 C   0  0  0  0  0  3  0  0  0  0  0  0
  -30.9400  -19.5180   22.9830 C   0  0  0  0  0  0  0  0  0  0  0  0
  -30.2490  -18.4140   20.8990 C   0  0  0  0  0  0  0  0  0  0  0  0
  -30.2810  -20.7270   22.5940 C   0  0  0  0  0  0  0  0  0  0  0  0
  -29.6660  -19.6500   20.4610 C   0  0  0  0  0  0  0  0  0  0  0  0
  -29.6340  -20.8120   21.3160 C   0  0  0  0  0  0  0  0  0  0  0  0
  -31.6810  -19.3300   24.3120 C   0  0  0  0  0  1  0  0  0  0  0  0
  -30.2580  -21.9180   23.5670 C   0  0  0  0  0  1  0  0  0  0  0  0
  -29.0960  -19.7200   19.0380 C   0  0  0  0  0  1  0  0  0  0  0  0
  -30.2460  -17.1150   20.0410 C   0  0  0  0  0  2  0  0  0  0  0  0
  -30.8200  -14.7320   20.5460 C   0  0  0  0  0  0  0  0  0  0  0  0
  -30.6770  -12.4050   19.7410 C   0  0  0  0  0  2  0  0  0  0  0  0
  -29.8120  -12.3580   18.4640 C   0  0  0  0  0  2  0  0  0  0  0  0
  -28.3190  -12.2180   18.8180 C   0  0  0  0  0  2  0  0  0  0  0  0
  -27.8630  -13.2270   19.9030 C   0  0  0  0  0  3  0  0  0  0  0  0
  -28.8460  -13.2560   21.0970 C   0  0  0  0  0  2  0  0  0  0  0  0
  -30.1940  -13.5210   20.5720 N   0  0  0  0  0  0  0  0  0  0  0  0
  -31.9810  -14.8630   20.1440 O   0  0  0  0  0  0  0  0  0  0  0  0
  -30.0390  -15.8230   20.7390 N   0  0  0  0  0  0  0  0  0  0  0  0
  -29.0930  -15.6460   21.0440 H   0  0  0  0  0  0  0  0  0  0  0  0
  -25.4470  -13.8580   20.5220 C   0  0  0  0  0  0  0  0  0  0  0  0
  -24.3620  -13.1010   20.8620 C   0  0  0  0  0  0  0  0  0  0  0  0
  -24.8130  -11.7420   20.8660 C   0  0  0  0  0  0  0  0  0  0  0  0
  -26.4940  -12.9660   20.3370 N   0  0  0  0  0  0  0  0  0  0  0  0
  -26.1140  -11.6930   20.6070 N   0  0  0  0  0  0  0  0  0  0  0  0
  -24.0720  -10.4880   21.0460 C   0  0  0  0  0  0  0  0  0  0  0  0
  -24.4470   -9.5390   22.0220 C   0  0  0  0  0  3  0  0  0  0  0  0
  -23.7070   -8.3490   22.1870 C   0  0  0  0  0  3  0  0  0  0  0  0
  -22.5770   -8.0970   21.3750 C   0  0  0  0  0  0  0  0  0  0  0  0
  -22.2190   -9.0330   20.3870 C   0  0  0  0  0  3  0  0  0  0  0  0
  -22.9610  -10.2160   20.2210 C   0  0  0  0  0  3  0  0  0  0  0  0
  -21.8140   -6.9570   21.4470 O   0  0  0  0  0  0  0  0  0  0  0  0
  -21.7000   -6.2380   22.6090 C   0  0  0  0  0  0  0  0  0  0  0  0
  -21.1780   -6.8120   23.7900 C   0  0  0  0  0  3  0  0  0  0  0  0
  -21.0130   -6.0190   24.9430 C   0  0  0  0  0  3  0  0  0  0  0  0
  -21.3600   -4.6550   24.9170 C   0  0  0  0  0  0  0  0  0  0  0  0
  -21.8730   -4.0810   23.7420 C   0  0  0  0  0  3  0  0  0  0  0  0
  -22.0400   -4.8690   22.5900 C   0  0  0  0  0  0  0  0  0  0  0  0
  -22.5160   -4.3080   21.4540 F   0  0  0  0  0  0  0  0  0  0  0  0
  -21.1950   -3.8910   26.0230 F   0  0  0  0  0  0  0  0  0  0  0  0
  -22.9570  -13.5880   21.0760 C   0  0  0  0  0  0  0  0  0  0  0  0
  -22.1910  -12.9030   21.9170 N   0  0  0  0  0  0  0  0  0  0  0  0
  -22.5440  -14.6110   20.5300 O   0  0  0  0  0  0  0  0  0  0  0  0
  -22.5320  -12.0750   22.3800 H   0  0  0  0  0  0  0  0  0  0  0  0
  -21.2440  -13.2090   22.1010 H   0  0  0  0  0  0  0  0  0  0  0  0
  -25.6320  -15.2250   20.3310 N   0  0  0  0  0  0  0  0  0  0  0  0
  -24.8750  -15.8950   20.4120 H   0  0  0  0  0  0  0  0  0  0  0  0
  -26.4950  -15.6480   20.0140 H   0  0  0  0  0  0  0  0  0  0  0  0
  -28.7560  -22.0590   20.9280 C   0  0  0  0  0  2  0  0  0  0  0  0
  -28.5310  -24.2190   19.6320 C   0  0  0  0  0  0  0  0  0  0  0  0
  -28.0000  -23.9310   18.4240 C   0  0  0  0  0  2  0  0  0  0  0  0
  -29.5240  -24.5220   21.3440 C   0  0  0  0  0  2  0  0  0  0  0  0
  -28.3640  -25.3430   20.6740 C   0  0  0  0  0  3  0  0  0  0  0  0
  -29.3800  -23.3510   20.4340 N   0  0  1  0  0  4  0  0  0  0  0  0
  -30.2430  -23.1610   19.9450 H   0  0  0  0  0  0  0  0  0  0  0  0
  -28.6930  -26.7490   20.3140 O   0  0  0  0  0  0  0  0  0  0  0  0
  -24.5710  -31.8710   23.2820 C   0  0  0  0  0  0  0  0  0  0  0  0
  -27.5830  -27.6010   20.2190 C   0  0  0  0  0  0  0  0  0  0  0  0
  -23.5430  -30.4740   21.5310 C   0  0  0  0  0  3  0  0  0  0  0  0
  -25.1600  -29.0900   20.1140 C   0  0  0  0  0  0  0  0  0  0  0  0
  -26.0650  -30.9570   21.4990 C   0  0  0  0  0  2  0  0  0  0  0  0
  -26.2630  -29.6160   20.7980 C   0  0  0  0  0  0  0  0  0  0  0  0
  -27.4880  -28.8820   20.8430 C   0  0  0  0  0  3  0  0  0  0  0  0
  -26.4700  -27.1440   19.4920 C   0  0  0  0  0  3  0  0  0  0  0  0
  -25.2660  -27.8640   19.4480 C   0  0  0  0  0  3  0  0  0  0  0  0
  -23.8690  -29.8780   20.1340 C   0  0  0  0  0  2  0  0  0  0  0  0
  -24.7440  -31.1110   22.1640 N   0  0  0  0  0  0  0  0  0  0  0  0
  -23.4440  -32.0690   23.7620 O   0  0  0  0  0  0  0  0  0  0  0  0
  -22.9030  -29.3780   22.4100 C   0  0  0  0  0  0  0  0  0  0  0  0
  -21.5910  -29.1350   22.2240 N   0  0  0  0  0  0  0  0  0  0  0  0
  -23.5800  -28.7450   23.2270 O   0  0  0  0  0  0  0  0  0  0  0  0
  -21.0990  -29.6980   21.5450 H   0  0  0  0  0  0  0  0  0  0  0  0
  -18.2430  -27.8260   22.5900 C   0  0  0  0  0  0  0  0  0  0  0  0
  -20.7910  -28.1260   22.9200 C   0  0  0  0  0  3  0  0  0  0  0  0
  -20.9350  -26.7390   22.2510 C   0  0  0  0  0  2  0  0  0  0  0  0
  -19.8570  -26.4610   21.2040 C   0  0  0  0  0  2  0  0  0  0  0  0
  -18.4630  -26.5300   21.8330 C   0  0  0  0  0  2  0  0  0  0  0  0
  -19.3370  -28.5810   23.0910 C   0  0  0  0  0  0  0  0  0  0  0  0
  -19.0760  -29.7930   23.7660 C   0  0  0  0  0  3  0  0  0  0  0  0
  -17.7570  -30.2450   23.9490 C   0  0  0  0  0  3  0  0  0  0  0  0
  -16.6780  -29.4810   23.4790 C   0  0  0  0  0  3  0  0  0  0  0  0
  -16.9230  -28.2740   22.8000 C   0  0  0  0  0  3  0  0  0  0  0  0
  -25.7790  -32.5600   23.9900 C   0  0  0  0  0  3  0  0  0  0  0  0
  -26.2040  -31.8360   25.3270 C   0  0  1  0  0  0  0  0  0  0  0  0
  -25.0280  -31.5900   26.3000 C   0  0  0  0  0  1  0  0  0  0  0  0
  -26.8630  -30.4700   25.0230 C   0  0  0  0  0  1  0  0  0  0  0  0
  -27.2630  -32.6860   26.0690 C   0  0  0  0  0  1  0  0  0  0  0  0
  -25.4030  -33.9590   24.2570 N   0  0  0  0  0  0  0  0  0  0  0  0
  -25.7270  -34.9970   23.4780 C   0  0  0  0  0  0  0  0  0  0  0  0
  -26.4560  -34.8790   22.4890 O   0  0  0  0  0  0  0  0  0  0  0  0
  -24.7720  -34.1180   25.0280 H   0  0  0  0  0  0  0  0  0  0  0  0
  -23.9440  -36.6970   23.0040 C   0  0  0  0  0  1  0  0  0  0  0  0
  -25.1720  -36.3770   23.8670 C   0  0  0  0  0  3  0  0  0  0  0  0
  -27.2330  -37.3910   24.7300 C   0  0  0  0  0  1  0  0  0  0  0  0
  -26.1580  -37.4720   23.7440 N   0  0  0  0  0  0  0  0  0  0  0  0
  -25.7050  -38.3750   23.8460 H   0  0  0  0  0  0  0  0  0  0  0  0
  1  2  1  0
  2  7  1  0
  3  1  2  0
  4  2  2  0
  4  8  1  0
  5  3  1  0
  5  6  2  0
  6  4  1  0
  9  5  1  0
 10 19  1  0
 10  3  1  0
 11 17  1  0
 11 19  1  0
 12 17  1  0
 13 14  1  0
 13 12  1  0
 15 14  1  0
 15 24  1  0
 15 16  1  0
 17 16  1  0
 18 11  2  0
 19 20  1  0
 21 22  2  0
 22 23  1  0
 22 41  1  0
 23 26  1  0
 24 21  1  0
 24 25  1  0
 25 23  2  0
 26 27  1  0
 27 28  2  0
 29 32  1  0
 29 28  1  0
 30 29  2  0
 31 30  1  0
 31 26  2  0
 32 33  1  0
 33 34  1  0
 34 35  2  0
 36 35  1  0
 36 40  1  0
 37 36  2  0
 38 33  2  0
 38 37  1  0
 39 38  1  0
 41 42  1  0
 42 45  1  0
 42 44  1  0
 43 41  2  0
 46 47  1  0
 46 21  1  0
 48 46  1  0
 49  6  1  0
 50 54  1  0
 50 53  1  0
 51 50  2  0
 53 56  1  0
 53 52  1  0
 54 49  1  0
 54 52  1  0
 54 55  1  6
 57 68  2  0
 58 56  1  0
 58 63  1  0
 59 67  1  0
 59 69  1  0
 60 66  1  0
 60 62  1  0
 61 67  1  0
 62 63  2  0
 62 61  1  0
 64 58  2  0
 65 64  1  0
 65 60  2  0
 66 59  1  0
 67 57  1  0
 69 71  2  0
 70 69  1  0
 72 70  1  0
 73 82  2  0
 73 78  1  0
 74 70  1  0
 74 78  1  0
 75 74  1  0
 76 77  1  0
 76 75  1  0
 77 73  1  0
 78 79  2  0
 79 80  1  0
 81 80  2  0
 82 81  1  0
 83 57  1  0
 83 88  1  0
 83 84  1  0
 84 87  1  1
 84 85  1  0
 86 84  1  0
 88 91  1  0
 89 93  1  0
 89 88  1  0
 90 89  2  0
 93 92  1  0
 95 96  1  0
 95 93  1  0
 95 94  1  0
M  ISO  4  11 100  19 100  53 101  56 101
M  END
>  <TORSDO>  (14) 
F 19

>  <SCORE>  (14) 
-12.976

>  <name>  (14) 
13

>  <ligand_id>  (14) 
13

>  <original_smiles>  (14) 
[H]C([H])=C1C([H])(Oc2c([H])c([H])c3c(c2[H])C([H])([H])N(C(=O)C([H])(N([H])C(=O)C([H])(N([H])C([H])([H])[H])C([H])([H])[H])C(C([H])([H])[H])(C([H])([H])[H])C([H])([H])[H])C([H])(C(=O)N([H])C2([H])c4c([H])c([H])c([H])c([H])c4C([H])([H])C([H])([H])C2([H])[H])C3([H])[H])C([H])([H])[N+]1([H])C([H])([H])c1c(C([H])([H])[H])c(C([H])([H])[H])c([H])c(C([H])([H])N([H])C(=O)N2C([H])([H])C([H])([H])C([H])([H])C([H])(n3nc(-c4c([H])c([H])c(Oc5c([H])c([H])c(F)c([H])c5F)c([H])c4[H])c(C(=O)N([H])[H])c3N([H])[H])C2([H])[H])c1C([H])([H])[H]

>  <smiles>  (14) 
[H]C([H])=C1C([H])(Oc2c([H])c([H])c3c(c2[H])C([H])([H])N(C(=O)C([H])(N([H])C(=O)C([H])(N([H])C([H])([H])[H])C([H])([H])[H])C(C([H])([H])[H])(C([H])([H])[H])C([H])([H])[H])C([H])(C(=O)N([H])C2([H])c4c([H])c([H])c([H])c([H])c4C([H])([H])C([H])([H])C2([H])[H])C3([H])[H])C([H])([H])[N+]1([H])C([H])([H])c1c(C([H])([H])[H])c(C([H])([H])[H])c([H])c(C([H])([H])N([H])C(=O)N2C([H])([H])C([H])([H])C([H])([H])C([H])(n3nc(-c4c([H])c([H])c(Oc5c([H])c([H])c(F)c([H])c5F)c([H])c4[H])c(C(=O)N([H])[H])c3N([H])[H])C2([H])[H])c1C([H])([H])[H]

$$$$
14:0:0
     RDKit          3D

 97106  0  0  1  0  0  0  0  0999 V2000
  -29.0860  -20.8590   19.8350 C   0  0  0  0  0  2  0  0  0  0  0  0
  -29.8760  -23.1920   18.7670 C   0  0  0  0  0  0  0  0  0  0  0  0
  -30.8760  -22.6920   18.0230 C   0  0  0  0  0  2  0  0  0  0  0  0
  -29.5120  -24.6770   18.9110 C   0  0  0  0  0  2  0  0  0  0  0  0
  -27.9550  -23.3940   20.2200 C   0  0  0  0  0  2  0  0  0  0  0  0
  -28.1020  -24.8450   19.5070 C   0  0  0  0  0  3  0  0  0  0  0  0
  -28.8590  -22.3820   19.4970 N   0  0  2  0  0  4  0  0  0  0  0  0
  -28.2160  -22.1610   18.7510 H   0  0  0  0  0  0  0  0  0  0  0  0
  -28.0590  -26.2410   20.1180 O   0  0  0  0  0  0  0  0  0  0  0  0
  -24.5830  -31.8440   23.1900 C   0  0  0  0  0  0  0  0  0  0  0  0
  -26.9800  -27.1560   20.0600 C   0  0  0  0  0  0  0  0  0  0  0  0
  -23.3060  -30.4760   21.5810 C   0  0  0  0  0  3  0  0  0  0  0  0
  -24.6780  -28.8830   20.1120 C   0  0  0  0  0  0  0  0  0  0  0  0
  -25.8520  -30.7130   21.3350 C   0  0  0  0  0  2  0  0  0  0  0  0
  -25.8770  -29.3250   20.6820 C   0  0  0  0  0  0  0  0  0  0  0  0
  -27.0300  -28.4760   20.6440 C   0  0  0  0  0  3  0  0  0  0  0  0
  -25.7590  -26.7820   19.4680 C   0  0  0  0  0  3  0  0  0  0  0  0
  -24.6250  -27.6200   19.4970 C   0  0  0  0  0  3  0  0  0  0  0  0
  -23.4690  -29.7960   20.1940 C   0  0  0  0  0  2  0  0  0  0  0  0
  -24.6040  -31.0300   22.0900 N   0  0  0  0  0  0  0  0  0  0  0  0
  -23.5200  -32.1400   23.7500 O   0  0  0  0  0  0  0  0  0  0  0  0
  -22.6480  -29.4710   22.5600 C   0  0  0  0  0  0  0  0  0  0  0  0
  -21.3210  -29.2840   22.4400 N   0  0  0  0  0  0  0  0  0  0  0  0
  -23.3290  -28.8590   23.3890 O   0  0  0  0  0  0  0  0  0  0  0  0
  -20.8270  -29.8380   21.7530 H   0  0  0  0  0  0  0  0  0  0  0  0
  -17.9650  -28.0110   22.9020 C   0  0  0  0  0  0  0  0  0  0  0  0
  -20.5090  -28.3530   23.2280 C   0  0  0  0  0  3  0  0  0  0  0  0
  -20.6640  -26.9020   22.7150 C   0  0  0  0  0  2  0  0  0  0  0  0
  -19.6000  -26.5110   21.6840 C   0  0  0  0  0  2  0  0  0  0  0  0
  -18.1970  -26.6420   22.2860 C   0  0  0  0  0  2  0  0  0  0  0  0
  -19.0510  -28.8200   23.3310 C   0  0  0  0  0  0  0  0  0  0  0  0
  -18.7820  -30.0980   23.8670 C   0  0  0  0  0  3  0  0  0  0  0  0
  -17.4570  -30.5690   23.9770 C   0  0  0  0  0  3  0  0  0  0  0  0
  -16.3880  -29.7560   23.5660 C   0  0  0  0  0  3  0  0  0  0  0  0
  -16.6420  -28.4790   23.0350 C   0  0  0  0  0  3  0  0  0  0  0  0
  -25.8910  -32.4550   23.7800 C   0  0  0  0  0  3  0  0  0  0  0  0
  -26.4410  -31.6560   25.0250 C   0  0  1  0  0  0  0  0  0  0  0  0
  -25.3860  -31.4100   26.1290 C   0  0  0  0  0  1  0  0  0  0  0  0
  -26.9910  -30.2800   24.5840 C   0  0  0  0  0  1  0  0  0  0  0  0
  -27.6200  -32.4240   25.6650 C   0  0  0  0  0  1  0  0  0  0  0  0
  -25.6060  -33.8480   24.1510 N   0  0  0  0  0  0  0  0  0  0  0  0
  -25.9130  -34.9160   23.4030 C   0  0  0  0  0  0  0  0  0  0  0  0
  -26.5300  -34.8300   22.3370 O   0  0  0  0  0  0  0  0  0  0  0  0
  -25.0600  -33.9860   24.9880 H   0  0  0  0  0  0  0  0  0  0  0  0
  -24.1870  -36.7310   23.1730 C   0  0  0  0  0  1  0  0  0  0  0  0
  -25.4610  -36.2990   23.9150 C   0  0  0  0  0  3  0  0  0  0  0  0
  -27.6370  -37.1520   24.6610 C   0  0  0  0  0  1  0  0  0  0  0  0
  -26.4940  -37.3470   23.7720 N   0  0  0  0  0  0  0  0  0  0  0  0
  -26.1050  -38.2680   23.9580 H   0  0  0  0  0  0  0  0  0  0  0  0
  -30.8940  -18.2890   22.2820 C   0  0  0  0  0  3  0  0  0  0  0  0
  -31.1460  -19.1890   23.3310 C   0  0  0  0  0  3  0  0  0  0  0  0
  -30.3880  -18.7030   21.0190 C   0  0  0  0  0  0  0  0  0  0  0  0
  -31.0890  -20.5710   23.1060 C   0  0  0  0  0  0  0  0  0  0  0  0
  -30.7360  -21.0290   21.8120 C   0  0  0  0  0  0  0  0  0  0  0  0
  -30.1240  -20.1660   20.8540 C   0  0  0  0  0  0  0  0  0  0  0  0
  -31.2470  -22.3980   21.3930 C   0  0  0  0  0  1  0  0  0  0  0  0
  -31.3840  -21.5330   24.2580 C   0  0  0  0  0  2  0  0  0  0  0  0
  -30.2450  -22.0790   24.6950 F   0  0  0  0  0  0  0  0  0  0  0  0
  -30.2530  -17.5030   19.9520 C   0  0  0  0  0  2  0  0  0  0  0  0
  -31.0020  -14.8860   20.1130 C   0  0  0  0  0  0  0  0  0  0  0  0
  -30.8580  -12.5320   19.2230 C   0  0  0  0  0  2  0  0  0  0  0  0
  -29.9200  -12.5050   17.9930 C   0  0  0  0  0  2  0  0  0  0  0  0
  -28.4450  -12.3710   18.4240 C   0  0  0  0  0  2  0  0  0  0  0  0
  -28.0770  -13.3370   19.5790 C   0  0  0  0  0  3  0  0  0  0  0  0
  -29.1210  -13.2880   20.7120 C   0  0  0  0  0  2  0  0  0  0  0  0
  -30.4180  -13.6310   20.1200 N   0  0  0  0  0  0  0  0  0  0  0  0
  -32.1680  -14.9940   19.7160 O   0  0  0  0  0  0  0  0  0  0  0  0
  -30.1830  -16.0000   20.3620 N   0  0  0  0  0  0  0  0  0  0  0  0
  -29.2720  -15.7300   20.6990 H   0  0  0  0  0  0  0  0  0  0  0  0
  -25.7320  -14.0400   20.3310 C   0  0  0  0  0  0  0  0  0  0  0  0
  -24.6380  -13.3140   20.7140 C   0  0  0  0  0  0  0  0  0  0  0  0
  -25.0390  -11.9430   20.6790 C   0  0  0  0  0  0  0  0  0  0  0  0
  -26.7290  -13.1120   20.0790 N   0  0  0  0  0  0  0  0  0  0  0  0
  -26.3210  -11.8470   20.3500 N   0  0  0  0  0  0  0  0  0  0  0  0
  -24.2590  -10.7160   20.8820 C   0  0  0  0  0  0  0  0  0  0  0  0
  -24.6400   -9.7470   21.8340 C   0  0  0  0  0  3  0  0  0  0  0  0
  -23.8600   -8.5850   22.0220 C   0  0  0  0  0  3  0  0  0  0  0  0
  -22.6870   -8.3860   21.2550 C   0  0  0  0  0  0  0  0  0  0  0  0
  -22.3250   -9.3440   20.2920 C   0  0  0  0  0  3  0  0  0  0  0  0
  -23.1050  -10.4970   20.1030 C   0  0  0  0  0  3  0  0  0  0  0  0
  -21.8810   -7.2760   21.3510 O   0  0  0  0  0  0  0  0  0  0  0  0
  -21.7510   -6.5820   22.5270 C   0  0  0  0  0  0  0  0  0  0  0  0
  -21.2930   -7.2010   23.7120 C   0  0  0  0  0  3  0  0  0  0  0  0
  -21.1060   -6.4340   24.8800 C   0  0  0  0  0  3  0  0  0  0  0  0
  -21.3680   -5.0510   24.8630 C   0  0  0  0  0  0  0  0  0  0  0  0
  -21.8180   -4.4320   23.6830 C   0  0  0  0  0  3  0  0  0  0  0  0
  -22.0060   -5.1970   22.5190 C   0  0  0  0  0  0  0  0  0  0  0  0
  -22.4190   -4.5930   21.3770 F   0  0  0  0  0  0  0  0  0  0  0  0
  -21.1820   -4.3120   25.9820 F   0  0  0  0  0  0  0  0  0  0  0  0
  -23.2680  -13.8570   20.9990 C   0  0  0  0  0  0  0  0  0  0  0  0
  -22.5320  -13.2180   21.9010 N   0  0  0  0  0  0  0  0  0  0  0  0
  -22.8610  -14.8840   20.4570 O   0  0  0  0  0  0  0  0  0  0  0  0
  -22.8750  -12.3850   22.3580 H   0  0  0  0  0  0  0  0  0  0  0  0
  -21.6150  -13.5660   22.1370 H   0  0  0  0  0  0  0  0  0  0  0  0
  -25.9520  -15.4020   20.1550 N   0  0  0  0  0  0  0  0  0  0  0  0
  -25.2140  -16.0800   20.3060 H   0  0  0  0  0  0  0  0  0  0  0  0
  -26.7980  -15.8150   19.7820 H   0  0  0  0  0  0  0  0  0  0  0  0
  1 55  1  0
  2  4  1  0
  2  7  1  0
  3  2  2  0
  4  6  1  0
  6  9  1  0
  6  5  1  0
  7  1  1  0
  7  5  1  0
  7  8  1  6
 10 21  2  0
 11  9  1  0
 11 16  1  0
 12 20  1  0
 12 22  1  0
 13 19  1  0
 13 15  1  0
 14 20  1  0
 15 14  1  0
 16 15  2  0
 17 18  1  0
 17 11  2  0
 18 13  2  0
 19 12  1  0
 20 10  1  0
 22 24  2  0
 23 22  1  0
 25 23  1  0
 26 35  2  0
 26 31  1  0
 27 23  1  0
 27 31  1  0
 28 27  1  0
 29 30  1  0
 29 28  1  0
 30 26  1  0
 31 32  2  0
 32 33  1  0
 34 33  2  0
 35 34  1  0
 36 10  1  0
 36 41  1  0
 36 37  1  0
 37 40  1  1
 37 38  1  0
 39 37  1  0
 41 44  1  0
 42 46  1  0
 42 41  1  0
 43 42  2  0
 46 45  1  0
 48 46  1  0
 48 49  1  0
 48 47  1  0
 50 51  1  0
 52 50  2  0
 53 51  2  0
 53 57  1  0
 54 53  1  0
 55 52  1  0
 55 54  2  0
 56 54  1  0
 57 58  1  0
 59 68  1  0
 59 52  1  0
 60 66  1  0
 60 68  1  0
 61 66  1  0
 62 63  1  0
 62 61  1  0
 64 63  1  0
 64 73  1  0
 64 65  1  0
 66 65  1  0
 67 60  2  0
 68 69  1  0
 70 71  2  0
 71 90  1  0
 72 71  1  0
 72 75  1  0
 73 70  1  0
 73 74  1  0
 74 72  2  0
 75 76  1  0
 76 77  2  0
 78 81  1  0
 78 77  1  0
 79 78  2  0
 80 79  1  0
 80 75  2  0
 81 82  1  0
 82 83  1  0
 83 84  2  0
 85 84  1  0
 85 89  1  0
 86 85  2  0
 87 82  2  0
 87 86  1  0
 88 87  1  0
 90 91  1  0
 91 94  1  0
 91 93  1  0
 92 90  2  0
 95 96  1  0
 95 70  1  0
 97 95  1  0
M  ISO  4   6 101   9 101  60 100  68 100
M  END
>  <TORSDO>  (15) 
F 20

>  <SCORE>  (15) 
-14.021

>  <name>  (15) 
14

>  <ligand_id>  (15) 
14

>  <original_smiles>  (15) 
[H]C([H])=C1C([H])([H])C([H])(Oc2c([H])c([H])c3c(c2[H])C([H])([H])N(C(=O)C([H])(N([H])C(=O)C([H])(N([H])C([H])([H])[H])C([H])([H])[H])C(C([H])([H])[H])(C([H])([H])[H])C([H])([H])[H])C([H])(C(=O)N([H])C2([H])c4c([H])c([H])c([H])c([H])c4C([H])([H])C([H])([H])C2([H])[H])C3([H])[H])C([H])([H])[N+]1([H])C([H])([H])c1c(C([H])([H])[H])c(C([H])([H])F)c([H])c([H])c1C([H])([H])N([H])C(=O)N1C([H])([H])C([H])([H])C([H])([H])C([H])(n2nc(-c3c([H])c([H])c(Oc4c([H])c([H])c(F)c([H])c4F)c([H])c3[H])c(C(=O)N([H])[H])c2N([H])[H])C1([H])[H]

>  <smiles>  (15) 
[H]C([H])=C1C([H])([H])C([H])(Oc2c([H])c([H])c3c(c2[H])C([H])([H])N(C(=O)C([H])(N([H])C(=O)C([H])(N([H])C([H])([H])[H])C([H])([H])[H])C(C([H])([H])[H])(C([H])([H])[H])C([H])([H])[H])C([H])(C(=O)N([H])C2([H])c4c([H])c([H])c([H])c([H])c4C([H])([H])C([H])([H])C2([H])[H])C3([H])[H])C([H])([H])[N+]1([H])C([H])([H])c1c(C([H])([H])[H])c(C([H])([H])F)c([H])c([H])c1C([H])([H])N([H])C(=O)N1C([H])([H])C([H])([H])C([H])([H])C([H])(n2nc(-c3c([H])c([H])c(Oc4c([H])c([H])c(F)c([H])c4F)c([H])c3[H])c(C(=O)N([H])[H])c2N([H])[H])C1([H])[H]

$$$$
15:0:0
     RDKit          3D

 98107  0  0  1  0  0  0  0  0999 V2000
  -28.5030  -22.6600   21.5220 C   0  0  0  0  0  3  0  0  0  0  0  0
  -28.4600  -23.9880   21.0460 C   0  0  0  0  0  3  0  0  0  0  0  0
  -28.9780  -21.8670   19.2870 C   0  0  0  0  0  3  0  0  0  0  0  0
  -28.7770  -21.5770   20.6540 C   0  0  0  0  0  0  0  0  0  0  0  0
  -28.6700  -24.2850   19.6810 C   0  0  0  0  0  0  0  0  0  0  0  0
  -28.9390  -23.2010   18.7930 C   0  0  0  0  0  0  0  0  0  0  0  0
  -29.5970  -22.2900   16.4410 C   0  0  0  0  0  1  0  0  0  0  0  0
  -29.1740  -23.4890   17.3080 C   0  0  0  0  0  2  0  0  0  0  0  0
  -28.7160  -20.1120   21.1460 C   0  0  0  0  0  2  0  0  0  0  0  0
  -30.7060  -18.8170   22.1180 C   0  0  0  0  0  0  0  0  0  0  0  0
  -31.2080  -19.6070   23.0850 C   0  0  0  0  0  3  0  0  0  0  0  0
  -30.9080  -17.3140   22.0340 C   0  0  0  0  0  2  0  0  0  0  0  0
  -29.6340  -17.9900   20.1470 C   0  0  0  0  0  2  0  0  0  0  0  0
  -30.7070  -16.9550   20.5690 C   0  0  0  0  0  3  0  0  0  0  0  0
  -29.9290  -19.2500   20.8980 N   0  0  1  0  0  4  0  0  0  0  0  0
  -30.5390  -19.7990   20.3150 H   0  0  0  0  0  0  0  0  0  0  0  0
  -31.1050  -14.4990   19.9560 C   0  0  0  0  0  0  0  0  0  0  0  0
  -30.8020  -12.2380   18.9970 C   0  0  0  0  0  2  0  0  0  0  0  0
  -29.8170  -12.3160   17.8110 C   0  0  0  0  0  2  0  0  0  0  0  0
  -28.3540  -12.2380   18.2940 C   0  0  0  0  0  2  0  0  0  0  0  0
  -28.0640  -13.2000   19.4760 C   0  0  0  0  0  3  0  0  0  0  0  0
  -29.1430  -13.0510   20.5700 C   0  0  0  0  0  2  0  0  0  0  0  0
  -30.4510  -13.3060   19.9420 N   0  0  0  0  0  0  0  0  0  0  0  0
  -32.2330  -14.6560   19.4780 O   0  0  0  0  0  0  0  0  0  0  0  0
  -30.3560  -15.5290   20.4000 N   0  0  0  0  0  0  0  0  0  0  0  0
  -29.4410  -15.2610   20.7290 H   0  0  0  0  0  0  0  0  0  0  0  0
  -25.7460  -13.9520   20.3050 C   0  0  0  0  0  0  0  0  0  0  0  0
  -24.6500  -13.2420   20.7160 C   0  0  0  0  0  0  0  0  0  0  0  0
  -25.0240  -11.8650   20.6490 C   0  0  0  0  0  0  0  0  0  0  0  0
  -26.7190  -13.0080   20.0130 N   0  0  0  0  0  0  0  0  0  0  0  0
  -26.2920  -11.7490   20.2780 N   0  0  0  0  0  0  0  0  0  0  0  0
  -24.2310  -10.6450   20.8540 C   0  0  0  0  0  0  0  0  0  0  0  0
  -24.6230   -9.6610   21.7870 C   0  0  0  0  0  3  0  0  0  0  0  0
  -23.8390   -8.5020   21.9790 C   0  0  0  0  0  3  0  0  0  0  0  0
  -22.6470   -8.3230   21.2370 C   0  0  0  0  0  0  0  0  0  0  0  0
  -22.2720   -9.2970   20.2950 C   0  0  0  0  0  3  0  0  0  0  0  0
  -23.0580  -10.4470   20.1010 C   0  0  0  0  0  3  0  0  0  0  0  0
  -21.8360   -7.2180   21.3360 O   0  0  0  0  0  0  0  0  0  0  0  0
  -21.7230   -6.5140   22.5080 C   0  0  0  0  0  0  0  0  0  0  0  0
  -21.3020   -7.1280   23.7090 C   0  0  0  0  0  3  0  0  0  0  0  0
  -21.1310   -6.3520   24.8730 C   0  0  0  0  0  3  0  0  0  0  0  0
  -21.3680   -4.9660   24.8370 C   0  0  0  0  0  0  0  0  0  0  0  0
  -21.7850   -4.3520   23.6430 C   0  0  0  0  0  3  0  0  0  0  0  0
  -21.9560   -5.1230   22.4810 C   0  0  0  0  0  0  0  0  0  0  0  0
  -22.3350   -4.5240   21.3260 F   0  0  0  0  0  0  0  0  0  0  0  0
  -21.1980   -4.2180   25.9550 F   0  0  0  0  0  0  0  0  0  0  0  0
  -23.2990  -13.8000   21.0610 C   0  0  0  0  0  0  0  0  0  0  0  0
  -22.5780  -13.1430   21.9630 N   0  0  0  0  0  0  0  0  0  0  0  0
  -22.8930  -14.8500   20.5640 O   0  0  0  0  0  0  0  0  0  0  0  0
  -22.9140  -12.2860   22.3770 H   0  0  0  0  0  0  0  0  0  0  0  0
  -21.6740  -13.5000   22.2380 H   0  0  0  0  0  0  0  0  0  0  0  0
  -25.9960  -15.3090   20.1300 N   0  0  0  0  0  0  0  0  0  0  0  0
  -25.2760  -16.0130   20.2480 H   0  0  0  0  0  0  0  0  0  0  0  0
  -26.8270  -15.6650   19.6770 H   0  0  0  0  0  0  0  0  0  0  0  0
  -31.3460  -21.7480   24.2370 C   0  0  0  0  0  2  0  0  0  0  0  0
  -31.1440  -21.0490   23.1090 C   0  0  0  0  0  3  0  0  0  0  0  0
  -28.6490  -25.7500   19.1830 C   0  0  0  0  0  2  0  0  0  0  0  0
  -28.4320  -26.7790   20.1750 O   0  0  0  0  0  0  0  0  0  0  0  0
  -24.6210  -31.9580   23.2900 C   0  0  0  0  0  0  0  0  0  0  0  0
  -27.2430  -27.4890   20.1950 C   0  0  0  0  0  0  0  0  0  0  0  0
  -23.4070  -30.5630   21.6480 C   0  0  0  0  0  3  0  0  0  0  0  0
  -24.8520  -29.0190   20.2300 C   0  0  0  0  0  0  0  0  0  0  0  0
  -25.9380  -30.9090   21.4450 C   0  0  0  0  0  2  0  0  0  0  0  0
  -26.0170  -29.5360   20.8050 C   0  0  0  0  0  0  0  0  0  0  0  0
  -27.2120  -28.7760   20.7840 C   0  0  0  0  0  3  0  0  0  0  0  0
  -26.0430  -26.9740   19.6570 C   0  0  0  0  0  3  0  0  0  0  0  0
  -24.8580  -27.7330   19.6640 C   0  0  0  0  0  3  0  0  0  0  0  0
  -23.6170  -29.8940   20.2650 C   0  0  0  0  0  2  0  0  0  0  0  0
  -24.6740  -31.1600   22.1860 N   0  0  0  0  0  0  0  0  0  0  0  0
  -23.5410  -32.2310   23.8320 O   0  0  0  0  0  0  0  0  0  0  0  0
  -22.7650  -29.5330   22.6090 C   0  0  0  0  0  0  0  0  0  0  0  0
  -21.4410  -29.3350   22.4800 N   0  0  0  0  0  0  0  0  0  0  0  0
  -23.4530  -28.9200   23.4270 O   0  0  0  0  0  0  0  0  0  0  0  0
  -20.9410  -29.8880   21.7970 H   0  0  0  0  0  0  0  0  0  0  0  0
  -18.0890  -28.0860   22.9570 C   0  0  0  0  0  0  0  0  0  0  0  0
  -20.6380  -28.3930   23.2570 C   0  0  0  0  0  3  0  0  0  0  0  0
  -20.7740  -26.9540   22.7080 C   0  0  0  0  0  2  0  0  0  0  0  0
  -19.6930  -26.5970   21.6850 C   0  0  0  0  0  2  0  0  0  0  0  0
  -18.2980  -26.7300   22.3060 C   0  0  0  0  0  2  0  0  0  0  0  0
  -19.1870  -28.8720   23.3910 C   0  0  0  0  0  0  0  0  0  0  0  0
  -18.9380  -30.1440   23.9570 C   0  0  0  0  0  3  0  0  0  0  0  0
  -17.6210  -30.6200   24.1020 C   0  0  0  0  0  3  0  0  0  0  0  0
  -16.5370  -29.8290   23.6860 C   0  0  0  0  0  3  0  0  0  0  0  0
  -16.7720  -28.5650   23.1130 C   0  0  0  0  0  3  0  0  0  0  0  0
  -25.9090  -32.5950   23.9020 C   0  0  0  0  0  3  0  0  0  0  0  0
  -25.6020  -33.9960   24.2200 N   0  0  0  0  0  0  0  0  0  0  0  0
  -25.9260  -35.0410   23.4470 C   0  0  0  0  0  0  0  0  0  0  0  0
  -26.5910  -34.9300   22.4130 O   0  0  0  0  0  0  0  0  0  0  0  0
  -25.0300  -34.1630   25.0340 H   0  0  0  0  0  0  0  0  0  0  0  0
  -24.1910  -36.8220   23.0880 C   0  0  0  0  0  1  0  0  0  0  0  0
  -25.4380  -36.4300   23.8950 C   0  0  0  0  0  3  0  0  0  0  0  0
  -27.5780  -37.3300   24.6970 C   0  0  0  0  0  1  0  0  0  0  0  0
  -26.4670  -37.4850   23.7610 N   0  0  0  0  0  0  0  0  0  0  0  0
  -26.0600  -38.4030   23.9100 H   0  0  0  0  0  0  0  0  0  0  0  0
  -26.4310  -31.8350   25.1820 C   0  0  1  0  0  0  0  0  0  0  0  0
  -25.3390  -31.5900   26.2500 C   0  0  0  0  0  1  0  0  0  0  0  0
  -27.0310  -30.4630   24.7940 C   0  0  0  0  0  1  0  0  0  0  0  0
  -27.5750  -32.6380   25.8430 C   0  0  0  0  0  1  0  0  0  0  0  0
  2  1  1  0
  3  4  1  0
  4  9  1  0
  4  1  2  0
  5  2  2  0
  6  3  2  0
  6  5  1  0
  7  8  1  0
  8  6  1  0
 10 11  2  0
 11 56  1  0
 12 10  1  0
 13 14  1  0
 13 15  1  0
 14 25  1  0
 14 12  1  0
 15  9  1  0
 15 10  1  0
 15 16  1  6
 17 25  1  0
 18 23  1  0
 19 20  1  0
 19 18  1  0
 21 20  1  0
 21 30  1  0
 21 22  1  0
 23 17  1  0
 23 22  1  0
 24 17  2  0
 25 26  1  0
 27 28  2  0
 28 47  1  0
 29 28  1  0
 29 32  1  0
 30 31  1  0
 30 27  1  0
 31 29  2  0
 32 33  1  0
 33 34  2  0
 35 38  1  0
 35 34  1  0
 36 35  2  0
 37 36  1  0
 37 32  2  0
 38 39  1  0
 39 40  1  0
 40 41  2  0
 42 41  1  0
 42 46  1  0
 43 42  2  0
 44 39  2  0
 44 43  1  0
 45 44  1  0
 47 48  1  0
 48 51  1  0
 48 50  1  0
 49 47  2  0
 52 53  1  0
 52 27  1  0
 54 52  1  0
 56 55  2  0
 57  5  1  0
 57 58  1  0
 58 60  1  0
 59 70  2  0
 60 65  1  0
 61 69  1  0
 61 71  1  0
 62 68  1  0
 62 64  1  0
 63 69  1  0
 64 63  1  0
 65 64  2  0
 66 67  1  0
 66 60  2  0
 67 62  2  0
 68 61  1  0
 69 59  1  0
 71 73  2  0
 72 71  1  0
 74 72  1  0
 75 84  2  0
 75 80  1  0
 76 72  1  0
 76 80  1  0
 77 76  1  0
 78 79  1  0
 78 77  1  0
 79 75  1  0
 80 81  2  0
 81 82  1  0
 83 82  2  0
 84 83  1  0
 85 59  1  0
 85 86  1  0
 85 95  1  0
 86 89  1  0
 87 91  1  0
 87 86  1  0
 88 87  2  0
 91 90  1  0
 93 91  1  0
 93 94  1  0
 93 92  1  0
 95 98  1  1
 95 96  1  0
 97 95  1  0
M  ISO  4  17 100  25 100  57 101  58 101
M  END
>  <TORSDO>  (16) 
F 21

>  <SCORE>  (16) 
-13.598

>  <name>  (16) 
15

>  <ligand_id>  (16) 
15

>  <original_smiles>  (16) 
[H]C([H])=C([H])C([H])=C1C([H])([H])C([H])(N([H])C(=O)N2C([H])([H])C([H])([H])C([H])([H])C([H])(n3nc(-c4c([H])c([H])c(Oc5c([H])c([H])c(F)c([H])c5F)c([H])c4[H])c(C(=O)N([H])[H])c3N([H])[H])C2([H])[H])C([H])([H])[N+]1([H])C([H])([H])c1c([H])c([H])c(C([H])([H])Oc2c([H])c([H])c3c(c2[H])C([H])([H])N(C(=O)C([H])(N([H])C(=O)C([H])(N([H])C([H])([H])[H])C([H])([H])[H])C(C([H])([H])[H])(C([H])([H])[H])C([H])([H])[H])C([H])(C(=O)N([H])C2([H])c4c([H])c([H])c([H])c([H])c4C([H])([H])C([H])([H])C2([H])[H])C3([H])[H])c(C([H])([H])C([H])([H])[H])c1[H]

>  <smiles>  (16) 
[H]C([H])=C([H])C([H])=C1C([H])([H])C([H])(N([H])C(=O)N2C([H])([H])C([H])([H])C([H])([H])C([H])(n3nc(-c4c([H])c([H])c(Oc5c([H])c([H])c(F)c([H])c5F)c([H])c4[H])c(C(=O)N([H])[H])c3N([H])[H])C2([H])[H])C([H])([H])[N+]1([H])C([H])([H])c1c([H])c([H])c(C([H])([H])Oc2c([H])c([H])c3c(c2[H])C([H])([H])N(C(=O)C([H])(N([H])C(=O)C([H])(N([H])C([H])([H])[H])C([H])([H])[H])C(C([H])([H])[H])(C([H])([H])[H])C([H])([H])[H])C([H])(C(=O)N([H])C2([H])c4c([H])c([H])c([H])c([H])c4C([H])([H])C([H])([H])C2([H])[H])C3([H])[H])c(C([H])([H])C([H])([H])[H])c1[H]

$$$$
16:0:0
     RDKit          3D

 94103  0  0  1  0  0  0  0  0999 V2000
  -29.7370  -20.9540   19.4660 C   0  0  0  0  0  3  0  0  0  0  0  0
  -30.4880  -19.2870   21.5960 C   0  0  0  0  0  0  0  0  0  0  0  0
  -30.5000  -18.7180   20.2890 C   0  0  0  0  0  0  0  0  0  0  0  0
  -29.7870  -21.5620   20.7440 C   0  0  0  0  0  0  0  0  0  0  0  0
  -30.0750  -19.5900   19.2380 C   0  0  0  0  0  0  0  0  0  0  0  0
  -30.1150  -20.6590   21.8180 C   0  0  0  0  0  0  0  0  0  0  0  0
  -30.9210  -18.4510   22.7980 C   0  0  0  0  0  1  0  0  0  0  0  0
  -29.9990  -19.0390   17.5990 Cl  0  0  0  0  0  0  0  0  0  0  0  0
  -30.0500  -21.1840   23.4720 Cl  0  0  0  0  0  0  0  0  0  0  0  0
  -30.0420  -25.2350   21.6450 C   0  0  0  0  0  2  0  0  0  0  0  0
  -30.0380  -23.7470   22.0430 C   0  0  0  0  0  2  0  0  0  0  0  0
  -29.1390  -23.9780   19.8620 C   0  0  0  0  0  2  0  0  0  0  0  0
  -28.9310  -25.3540   20.6080 C   0  0  0  0  0  3  0  0  0  0  0  0
  -29.5290  -22.9830   20.9010 N   0  0  0  0  0  0  0  0  0  0  0  0
  -28.9900  -26.6660   19.9230 O   0  0  0  0  0  0  0  0  0  0  0  0
  -24.7260  -31.5650   23.0510 C   0  0  0  0  0  0  0  0  0  0  0  0
  -27.8040  -27.4040   19.9000 C   0  0  0  0  0  0  0  0  0  0  0  0
  -23.6800  -30.0990   21.3620 C   0  0  0  0  0  3  0  0  0  0  0  0
  -25.2900  -28.7490   19.9040 C   0  0  0  0  0  0  0  0  0  0  0  0
  -26.1710  -30.6880   21.2060 C   0  0  0  0  0  2  0  0  0  0  0  0
  -26.3970  -29.3450   20.5240 C   0  0  0  0  0  0  0  0  0  0  0  0
  -27.6590  -28.6860   20.5110 C   0  0  0  0  0  3  0  0  0  0  0  0
  -26.6780  -26.8590   19.2510 C   0  0  0  0  0  3  0  0  0  0  0  0
  -25.4310  -27.5110   19.2570 C   0  0  0  0  0  3  0  0  0  0  0  0
  -23.9690  -29.4880   19.9650 C   0  0  0  0  0  2  0  0  0  0  0  0
  -24.8750  -30.8010   21.9310 N   0  0  0  0  0  0  0  0  0  0  0  0
  -23.6170  -31.7150   23.5850 O   0  0  0  0  0  0  0  0  0  0  0  0
  -23.1210  -28.9920   22.2870 C   0  0  0  0  0  0  0  0  0  0  0  0
  -21.8390  -28.6350   22.0960 N   0  0  0  0  0  0  0  0  0  0  0  0
  -23.8390  -28.4590   23.1360 O   0  0  0  0  0  0  0  0  0  0  0  0
  -21.3130  -29.1260   21.3860 H   0  0  0  0  0  0  0  0  0  0  0  0
  -18.6640  -26.9230   22.3630 C   0  0  0  0  0  0  0  0  0  0  0  0
  -21.1200  -27.5890   22.8240 C   0  0  0  0  0  3  0  0  0  0  0  0
  -21.4920  -26.1850   22.2930 C   0  0  0  0  0  2  0  0  0  0  0  0
  -20.5390  -25.6790   21.2050 C   0  0  0  0  0  2  0  0  0  0  0  0
  -19.1050  -25.6110   21.7370 C   0  0  0  0  0  2  0  0  0  0  0  0
  -19.6110  -27.8590   22.8590 C   0  0  0  0  0  0  0  0  0  0  0  0
  -19.1490  -29.0780   23.4000 C   0  0  0  0  0  3  0  0  0  0  0  0
  -17.7730  -29.3680   23.4520 C   0  0  0  0  0  3  0  0  0  0  0  0
  -16.8390  -28.4330   22.9740 C   0  0  0  0  0  3  0  0  0  0  0  0
  -17.2850  -27.2120   22.4350 C   0  0  0  0  0  3  0  0  0  0  0  0
  -25.9350  -32.3050   23.7020 C   0  0  0  0  0  3  0  0  0  0  0  0
  -25.4830  -33.6550   24.0680 N   0  0  0  0  0  0  0  0  0  0  0  0
  -25.7120  -34.7580   23.3410 C   0  0  0  0  0  0  0  0  0  0  0  0
  -26.3950  -34.7520   22.3120 O   0  0  0  0  0  0  0  0  0  0  0  0
  -24.8720  -33.7260   24.8670 H   0  0  0  0  0  0  0  0  0  0  0  0
  -23.8120  -36.3750   23.0240 C   0  0  0  0  0  1  0  0  0  0  0  0
  -25.0840  -36.0760   23.8320 C   0  0  0  0  0  3  0  0  0  0  0  0
  -27.1150  -37.1500   24.7010 C   0  0  0  0  0  1  0  0  0  0  0  0
  -26.0050  -37.2310   23.7550 N   0  0  0  0  0  0  0  0  0  0  0  0
  -25.5070  -38.1010   23.9250 H   0  0  0  0  0  0  0  0  0  0  0  0
  -26.5180  -31.5550   24.9600 C   0  0  1  0  0  0  0  0  0  0  0  0
  -25.4490  -31.1840   26.0150 C   0  0  0  0  0  1  0  0  0  0  0  0
  -27.2350  -30.2510   24.5370 C   0  0  0  0  0  1  0  0  0  0  0  0
  -27.5840  -32.4390   25.6500 C   0  0  0  0  0  1  0  0  0  0  0  0
  -31.1540  -17.3120   19.9670 C   0  0  0  0  0  2  0  0  0  0  0  0
  -31.1570  -14.7940   19.9690 C   0  0  0  0  0  0  0  0  0  0  0  0
  -30.7990  -12.5440   18.9950 C   0  0  0  0  0  2  0  0  0  0  0  0
  -29.8360  -12.6560   17.7960 C   0  0  0  0  0  2  0  0  0  0  0  0
  -28.3750  -12.5450   18.2690 C   0  0  0  0  0  2  0  0  0  0  0  0
  -28.0660  -13.4640   19.4830 C   0  0  0  0  0  3  0  0  0  0  0  0
  -29.1520  -13.3600   20.5770 C   0  0  0  0  0  2  0  0  0  0  0  0
  -30.4470  -13.6240   19.9410 N   0  0  0  0  0  0  0  0  0  0  0  0
  -32.3320  -14.8220   19.5930 O   0  0  0  0  0  0  0  0  0  0  0  0
  -30.4970  -15.9750   20.1930 N   0  0  0  0  0  0  0  0  0  0  0  0
  -29.5180  -15.9480   20.4330 H   0  0  0  0  0  0  0  0  0  0  0  0
  -25.7260  -14.1310   20.2990 C   0  0  0  0  0  0  0  0  0  0  0  0
  -24.6460  -13.3890   20.6930 C   0  0  0  0  0  0  0  0  0  0  0  0
  -25.0570  -12.0220   20.6230 C   0  0  0  0  0  0  0  0  0  0  0  0
  -26.7290  -13.2180   20.0140 N   0  0  0  0  0  0  0  0  0  0  0  0
  -26.3350  -11.9450   20.2710 N   0  0  0  0  0  0  0  0  0  0  0  0
  -24.2920  -10.7840   20.8160 C   0  0  0  0  0  0  0  0  0  0  0  0
  -24.6840   -9.8130   21.7650 C   0  0  0  0  0  3  0  0  0  0  0  0
  -23.9190   -8.6400   21.9450 C   0  0  0  0  0  3  0  0  0  0  0  0
  -22.7500   -8.4290   21.1770 C   0  0  0  0  0  0  0  0  0  0  0  0
  -22.3770   -9.3880   20.2180 C   0  0  0  0  0  3  0  0  0  0  0  0
  -23.1410  -10.5530   20.0360 C   0  0  0  0  0  3  0  0  0  0  0  0
  -21.9610   -7.3080   21.2660 O   0  0  0  0  0  0  0  0  0  0  0  0
  -21.8080   -6.6270   22.4480 C   0  0  0  0  0  0  0  0  0  0  0  0
  -21.3080   -7.2550   23.6090 C   0  0  0  0  0  3  0  0  0  0  0  0
  -21.1010   -6.5030   24.7820 C   0  0  0  0  0  3  0  0  0  0  0  0
  -21.3810   -5.1240   24.7940 C   0  0  0  0  0  0  0  0  0  0  0  0
  -21.8730   -4.4960   23.6370 C   0  0  0  0  0  3  0  0  0  0  0  0
  -22.0820   -5.2450   22.4650 C   0  0  0  0  0  0  0  0  0  0  0  0
  -22.5360   -4.6310   21.3460 F   0  0  0  0  0  0  0  0  0  0  0  0
  -21.1750   -4.3980   25.9180 F   0  0  0  0  0  0  0  0  0  0  0  0
  -23.2760  -13.9110   21.0170 C   0  0  0  0  0  0  0  0  0  0  0  0
  -22.5590  -13.2360   21.9090 N   0  0  0  0  0  0  0  0  0  0  0  0
  -22.8530  -14.9520   20.5170 O   0  0  0  0  0  0  0  0  0  0  0  0
  -22.9150  -12.3930   22.3340 H   0  0  0  0  0  0  0  0  0  0  0  0
  -21.6410  -13.5670   22.1690 H   0  0  0  0  0  0  0  0  0  0  0  0
  -25.9330  -15.4970   20.1370 N   0  0  0  0  0  0  0  0  0  0  0  0
  -25.1930  -16.1750   20.2800 H   0  0  0  0  0  0  0  0  0  0  0  0
  -26.7800  -15.9110   19.7680 H   0  0  0  0  0  0  0  0  0  0  0  0
  1  4  1  0
  2  6  1  0
  2  7  1  0
  3  2  2  0
  4 14  1  0
  4  6  2  0
  5  1  2  0
  5  3  1  0
  6  9  1  0
  8  5  1  0
 10 11  1  0
 12 13  1  0
 12 14  1  0
 13 15  1  0
 13 10  1  0
 14 11  1  0
 16 27  2  0
 17 15  1  0
 17 22  1  0
 18 26  1  0
 18 28  1  0
 19 25  1  0
 19 21  1  0
 20 26  1  0
 21 20  1  0
 22 21  2  0
 23 24  1  0
 23 17  2  0
 24 19  2  0
 25 18  1  0
 26 16  1  0
 28 30  2  0
 29 28  1  0
 31 29  1  0
 32 41  2  0
 32 37  1  0
 33 29  1  0
 33 37  1  0
 34 33  1  0
 35 36  1  0
 35 34  1  0
 36 32  1  0
 37 38  2  0
 38 39  1  0
 40 39  2  0
 41 40  1  0
 42 16  1  0
 42 43  1  0
 42 52  1  0
 43 46  1  0
 44 48  1  0
 44 43  1  0
 45 44  2  0
 48 47  1  0
 50 48  1  0
 50 51  1  0
 50 49  1  0
 52 55  1  1
 52 53  1  0
 54 52  1  0
 56 65  1  0
 56  3  1  0
 57 65  1  0
 58 63  1  0
 59 60  1  0
 59 58  1  0
 61 60  1  0
 61 70  1  0
 61 62  1  0
 63 57  1  0
 63 62  1  0
 64 57  2  0
 65 66  1  0
 67 68  2  0
 68 87  1  0
 69 68  1  0
 69 72  1  0
 70 71  1  0
 70 67  1  0
 71 69  2  0
 72 73  1  0
 73 74  2  0
 75 78  1  0
 75 74  1  0
 76 75  2  0
 77 76  1  0
 77 72  2  0
 78 79  1  0
 79 84  2  0
 79 80  1  0
 80 81  2  0
 81 82  1  0
 82 86  1  0
 83 82  2  0
 84 83  1  0
 85 84  1  0
 87 88  1  0
 88 91  1  0
 88 90  1  0
 89 87  2  0
 92 93  1  0
 92 67  1  0
 94 92  1  0
M  ISO  4  13 101  15 101  57 100  65 100
M  END
>  <TORSDO>  (17) 
F 18

>  <SCORE>  (17) 
-13.099

>  <name>  (17) 
16

>  <ligand_id>  (17) 
16

>  <original_smiles>  (17) 
[H]c1c([H])c([H])c2c(c1[H])C([H])([H])C([H])([H])C([H])([H])C2([H])N([H])C(=O)C1([H])N(C(=O)C([H])(N([H])C(=O)C([H])(N([H])C([H])([H])[H])C([H])([H])[H])C(C([H])([H])[H])(C([H])([H])[H])C([H])([H])[H])C([H])([H])c2c([H])c(OC3([H])C([H])([H])N(c4c([H])c(Cl)c(C([H])([H])N([H])C(=O)N5C([H])([H])C([H])([H])C([H])([H])C([H])(n6nc(-c7c([H])c([H])c(Oc8c([H])c([H])c(F)c([H])c8F)c([H])c7[H])c(C(=O)N([H])[H])c6N([H])[H])C5([H])[H])c(C([H])([H])[H])c4Cl)C([H])([H])C3([H])[H])c([H])c([H])c2C1([H])[H]

>  <smiles>  (17) 
[H]c1c([H])c([H])c2c(c1[H])C([H])([H])C([H])([H])C([H])([H])C2([H])N([H])C(=O)C1([H])N(C(=O)C([H])(N([H])C(=O)C([H])(N([H])C([H])([H])[H])C([H])([H])[H])C(C([H])([H])[H])(C([H])([H])[H])C([H])([H])[H])C([H])([H])c2c([H])c(OC3([H])C([H])([H])N(c4c([H])c(Cl)c(C([H])([H])N([H])C(=O)N5C([H])([H])C([H])([H])C([H])([H])C([H])(n6nc(-c7c([H])c([H])c(Oc8c([H])c([H])c(F)c([H])c8F)c([H])c7[H])c(C(=O)N([H])[H])c6N([H])[H])C5([H])[H])c(C([H])([H])[H])c4Cl)C([H])([H])C3([H])[H])c([H])c([H])c2C1([H])[H]

$$$$
17:0:0
     RDKit          3D

 93101  0  0  1  0  0  0  0  0999 V2000
  -28.7680  -21.1970   20.4990 C   0  0  0  0  0  0  0  0  0  0  0  0
  -27.6780  -21.0900   21.1300 N   0  0  0  0  0  0  0  0  0  0  0  0
  -27.5550  -20.1480   21.4850 H   0  0  0  0  0  0  0  0  0  0  0  0
  -31.0660  -20.2210   20.1710 C   0  0  0  0  0  3  0  0  0  0  0  0
  -31.6870  -17.8510   20.2080 C   0  0  0  0  0  3  0  0  0  0  0  0
  -29.7000  -19.9380   20.3750 C   0  0  0  0  0  0  0  0  0  0  0  0
  -29.3560  -18.5050   20.4630 C   0  0  0  0  0  0  0  0  0  0  0  0
  -30.3470  -17.4280   20.3760 C   0  0  0  0  0  0  0  0  0  0  0  0
  -32.0360  -19.2080   20.1000 C   0  0  0  0  0  0  0  0  0  0  0  0
  -27.8960  -18.0980   20.6280 C   0  0  0  0  0  1  0  0  0  0  0  0
  -33.6940  -19.6410   19.8890 Cl  0  0  0  0  0  0  0  0  0  0  0  0
  -30.7480  -14.8240   20.0970 C   0  0  0  0  0  0  0  0  0  0  0  0
  -30.4420  -12.6140   18.9780 C   0  0  0  0  0  2  0  0  0  0  0  0
  -29.4400  -12.7700   17.8130 C   0  0  0  0  0  2  0  0  0  0  0  0
  -27.9970  -12.5780   18.3170 C   0  0  0  0  0  2  0  0  0  0  0  0
  -27.7000  -13.3950   19.6040 C   0  0  0  0  0  3  0  0  0  0  0  0
  -28.8230  -13.2500   20.6560 C   0  0  0  0  0  2  0  0  0  0  0  0
  -30.0850  -13.6200   20.0060 N   0  0  0  0  0  0  0  0  0  0  0  0
  -31.9100  -14.8890   19.6920 O   0  0  0  0  0  0  0  0  0  0  0  0
  -30.0270  -15.9650   20.4510 N   0  0  0  0  0  0  0  0  0  0  0  0
  -29.0860  -15.7530   20.7430 H   0  0  0  0  0  0  0  0  0  0  0  0
  -25.3510  -13.9380   20.4770 C   0  0  0  0  0  0  0  0  0  0  0  0
  -24.3150  -13.1430   20.8820 C   0  0  0  0  0  0  0  0  0  0  0  0
  -24.7830  -11.7980   20.7790 C   0  0  0  0  0  0  0  0  0  0  0  0
  -26.3870  -13.0760   20.1550 N   0  0  0  0  0  0  0  0  0  0  0  0
  -26.0560  -11.7810   20.4000 N   0  0  0  0  0  0  0  0  0  0  0  0
  -24.0750  -10.5240   20.9610 C   0  0  0  0  0  0  0  0  0  0  0  0
  -24.4990   -9.5720   21.9140 C   0  0  0  0  0  3  0  0  0  0  0  0
  -23.7890   -8.3650   22.0860 C   0  0  0  0  0  3  0  0  0  0  0  0
  -22.6410   -8.0990   21.3020 C   0  0  0  0  0  0  0  0  0  0  0  0
  -22.2370   -9.0390   20.3380 C   0  0  0  0  0  3  0  0  0  0  0  0
  -22.9470  -10.2390   20.1650 C   0  0  0  0  0  3  0  0  0  0  0  0
  -21.9040   -6.9420   21.3810 O   0  0  0  0  0  0  0  0  0  0  0  0
  -21.7590   -6.2590   22.5610 C   0  0  0  0  0  0  0  0  0  0  0  0
  -21.1770   -6.8560   23.7010 C   0  0  0  0  0  3  0  0  0  0  0  0
  -20.9840   -6.0990   24.8730 C   0  0  0  0  0  3  0  0  0  0  0  0
  -21.3630   -4.7430   24.9070 C   0  0  0  0  0  0  0  0  0  0  0  0
  -21.9380   -4.1450   23.7710 C   0  0  0  0  0  3  0  0  0  0  0  0
  -22.1330   -4.9010   22.6020 C   0  0  0  0  0  0  0  0  0  0  0  0
  -22.6680   -4.3130   21.5040 F   0  0  0  0  0  0  0  0  0  0  0  0
  -21.1710   -4.0130   26.0290 F   0  0  0  0  0  0  0  0  0  0  0  0
  -22.9300  -13.5990   21.2430 C   0  0  0  0  0  0  0  0  0  0  0  0
  -22.2510  -12.8620   22.1150 N   0  0  0  0  0  0  0  0  0  0  0  0
  -22.4630  -14.6420   20.7880 O   0  0  0  0  0  0  0  0  0  0  0  0
  -22.6440  -12.0180   22.5030 H   0  0  0  0  0  0  0  0  0  0  0  0
  -21.3250  -13.1470   22.3990 H   0  0  0  0  0  0  0  0  0  0  0  0
  -25.4920  -15.3150   20.3290 N   0  0  0  0  0  0  0  0  0  0  0  0
  -24.7080  -15.9420   20.4630 H   0  0  0  0  0  0  0  0  0  0  0  0
  -26.2680  -15.7500   19.8490 H   0  0  0  0  0  0  0  0  0  0  0  0
  -29.0420  -22.6150   19.9340 C   0  0  0  0  0  3  0  0  0  0  0  0
  -28.4050  -23.8210   20.2020 C   0  0  0  0  0  3  0  0  0  0  0  0
  -28.6360  -25.2130   19.4790 C   0  0  0  0  0  2  0  0  0  0  0  0
  -28.4890  -26.5170   20.1950 O   0  0  0  0  0  0  0  0  0  0  0  0
  -24.6510  -31.8460   23.2090 C   0  0  0  0  0  0  0  0  0  0  0  0
  -27.3520  -27.3490   20.1040 C   0  0  0  0  0  0  0  0  0  0  0  0
  -23.4870  -30.4710   21.5220 C   0  0  0  0  0  3  0  0  0  0  0  0
  -24.9740  -28.9590   20.0860 C   0  0  0  0  0  0  0  0  0  0  0  0
  -26.0270  -30.8090   21.3860 C   0  0  0  0  0  2  0  0  0  0  0  0
  -26.1280  -29.4420   20.7140 C   0  0  0  0  0  0  0  0  0  0  0  0
  -27.3150  -28.6470   20.7150 C   0  0  0  0  0  3  0  0  0  0  0  0
  -26.1710  -26.9210   19.4600 C   0  0  0  0  0  3  0  0  0  0  0  0
  -24.9990  -27.7070   19.4500 C   0  0  0  0  0  3  0  0  0  0  0  0
  -23.7300  -29.8220   20.1320 C   0  0  0  0  0  2  0  0  0  0  0  0
  -24.7400  -31.0590   22.0960 N   0  0  0  0  0  0  0  0  0  0  0  0
  -23.5560  -32.1060   23.7310 O   0  0  0  0  0  0  0  0  0  0  0  0
  -22.8150  -29.4320   22.4510 C   0  0  0  0  0  0  0  0  0  0  0  0
  -21.4900  -29.2580   22.3090 N   0  0  0  0  0  0  0  0  0  0  0  0
  -23.4870  -28.7860   23.2610 O   0  0  0  0  0  0  0  0  0  0  0  0
  -21.0060  -29.8330   21.6330 H   0  0  0  0  0  0  0  0  0  0  0  0
  -18.1070  -28.0590   22.7610 C   0  0  0  0  0  0  0  0  0  0  0  0
  -20.6650  -28.3000   23.0480 C   0  0  0  0  0  3  0  0  0  0  0  0
  -20.7630  -26.8870   22.4290 C   0  0  0  0  0  2  0  0  0  0  0  0
  -19.6630  -26.6000   21.4010 C   0  0  0  0  0  2  0  0  0  0  0  0
  -18.2800  -26.7300   22.0450 C   0  0  0  0  0  2  0  0  0  0  0  0
  -19.2280  -28.8030   23.2180 C   0  0  0  0  0  0  0  0  0  0  0  0
  -19.0100  -30.0490   23.8480 C   0  0  0  0  0  3  0  0  0  0  0  0
  -17.7060  -30.5490   24.0260 C   0  0  0  0  0  3  0  0  0  0  0  0
  -16.6020  -29.8020   23.5840 C   0  0  0  0  0  3  0  0  0  0  0  0
  -16.8020  -28.5580   22.9590 C   0  0  0  0  0  3  0  0  0  0  0  0
  -25.9170  -32.4770   23.8670 C   0  0  0  0  0  3  0  0  0  0  0  0
  -26.4110  -31.6890   25.1430 C   0  0  1  0  0  0  0  0  0  0  0  0
  -25.2970  -31.4270   26.1830 C   0  0  0  0  0  1  0  0  0  0  0  0
  -27.0120  -30.3210   24.7440 C   0  0  0  0  0  1  0  0  0  0  0  0
  -27.5410  -32.4810   25.8420 C   0  0  0  0  0  1  0  0  0  0  0  0
  -25.5920  -33.8680   24.2120 N   0  0  0  0  0  0  0  0  0  0  0  0
  -25.9360  -34.9350   23.4780 C   0  0  0  0  0  0  0  0  0  0  0  0
  -26.6270  -34.8510   22.4590 O   0  0  0  0  0  0  0  0  0  0  0  0
  -24.9750  -34.0080   24.9990 H   0  0  0  0  0  0  0  0  0  0  0  0
  -24.2130  -36.7340   23.1150 C   0  0  0  0  0  1  0  0  0  0  0  0
  -25.4340  -36.3150   23.9490 C   0  0  0  0  0  3  0  0  0  0  0  0
  -27.5400  -37.1920   24.8550 C   0  0  0  0  0  1  0  0  0  0  0  0
  -26.4670  -37.3710   23.8820 N   0  0  0  0  0  0  0  0  0  0  0  0
  -26.0550  -38.2890   24.0290 H   0  0  0  0  0  0  0  0  0  0  0  0
  1  2  2  0
  2  3  1  0
  4  6  1  0
  5  8  2  0
  6  7  2  0
  6  1  1  0
  7 10  1  0
  8 20  1  0
  8  7  1  0
  9  4  2  0
  9  5  1  0
 11  9  1  0
 12 20  1  0
 13 18  1  0
 14 15  1  0
 14 13  1  0
 16 15  1  0
 16 25  1  0
 16 17  1  0
 18 12  1  0
 18 17  1  0
 19 12  2  0
 20 21  1  0
 22 23  2  0
 23 42  1  0
 24 23  1  0
 24 27  1  0
 25 26  1  0
 25 22  1  0
 26 24  2  0
 27 28  1  0
 28 29  2  0
 30 33  1  0
 30 29  1  0
 31 30  2  0
 32 31  1  0
 32 27  2  0
 33 34  1  0
 34 39  2  0
 34 35  1  0
 35 36  2  0
 36 37  1  0
 37 41  1  0
 38 37  2  0
 39 38  1  0
 40 39  1  0
 42 43  1  0
 43 46  1  0
 43 45  1  0
 44 42  2  0
 47 48  1  0
 47 22  1  0
 49 47  1  0
 50 51  2  0
 50  1  1  0
 52 53  1  0
 52 51  1  0
 54 65  2  0
 55 53  1  0
 55 60  1  0
 56 64  1  0
 56 66  1  0
 57 63  1  0
 57 59  1  0
 58 64  1  0
 59 60  2  0
 59 58  1  0
 61 55  2  0
 62 61  1  0
 62 57  2  0
 63 56  1  0
 64 54  1  0
 66 68  2  0
 67 66  1  0
 69 67  1  0
 70 79  2  0
 70 75  1  0
 71 67  1  0
 71 75  1  0
 72 71  1  0
 73 74  1  0
 73 72  1  0
 74 70  1  0
 75 76  2  0
 76 77  1  0
 78 77  2  0
 79 78  1  0
 80 54  1  0
 80 85  1  0
 80 81  1  0
 81 84  1  1
 81 82  1  0
 83 81  1  0
 85 88  1  0
 86 90  1  0
 86 85  1  0
 87 86  2  0
 90 89  1  0
 92 90  1  0
 92 93  1  0
 92 91  1  0
M  ISO  4  12 100  20 100  52 101  53 101
M  END
>  <TORSDO>  (18) 
F 19

>  <SCORE>  (18) 
-14.115

>  <name>  (18) 
17

>  <ligand_id>  (18) 
17

>  <original_smiles>  (18) 
[H]N=C(C([H])=C([H])C([H])([H])Oc1c([H])c([H])c2c(c1[H])C([H])([H])N(C(=O)C([H])(N([H])C(=O)C([H])(N([H])C([H])([H])[H])C([H])([H])[H])C(C([H])([H])[H])(C([H])([H])[H])C([H])([H])[H])C([H])(C(=O)N([H])C1([H])c3c([H])c([H])c([H])c([H])c3C([H])([H])C([H])([H])C1([H])[H])C2([H])[H])c1c([H])c(Cl)c([H])c(N([H])C(=O)N2C([H])([H])C([H])([H])C([H])([H])C([H])(n3nc(-c4c([H])c([H])c(Oc5c([H])c([H])c(F)c([H])c5F)c([H])c4[H])c(C(=O)N([H])[H])c3N([H])[H])C2([H])[H])c1C([H])([H])[H]

>  <smiles>  (18) 
[H]N=C(C([H])=C([H])C([H])([H])Oc1c([H])c([H])c2c(c1[H])C([H])([H])N(C(=O)C([H])(N([H])C(=O)C([H])(N([H])C([H])([H])[H])C([H])([H])[H])C(C([H])([H])[H])(C([H])([H])[H])C([H])([H])[H])C([H])(C(=O)N([H])C1([H])c3c([H])c([H])c([H])c([H])c3C([H])([H])C([H])([H])C1([H])[H])C2([H])[H])c1c([H])c(Cl)c([H])c(N([H])C(=O)N2C([H])([H])C([H])([H])C([H])([H])C([H])(n3nc(-c4c([H])c([H])c(Oc5c([H])c([H])c(F)c([H])c5F)c([H])c4[H])c(C(=O)N([H])[H])c3N([H])[H])C2([H])[H])c1C([H])([H])[H]

$$$$
18:0:0
     RDKit          3D

105115  0  0  1  0  0  0  0  0999 V2000
  -29.6850  -18.7250   20.7890 C   0  0  0  0  0  3  0  0  0  0  0  0
  -29.3710  -20.1130   20.6790 C   0  0  0  0  0  0  0  0  0  0  0  0
  -30.7670  -18.2610   21.5630 C   0  0  0  0  0  0  0  0  0  0  0  0
  -30.1800  -21.1160   21.3200 C   0  0  0  0  0  0  0  0  0  0  0  0
  -31.3860  -20.6500   21.9460 C   0  0  0  0  0  0  0  0  0  0  0  0
  -31.6210  -19.2500   22.1290 C   0  0  0  0  0  0  0  0  0  0  0  0
  -32.4720  -21.6100   22.4420 C   0  0  0  0  0  1  0  0  0  0  0  0
  -32.9570  -18.7400   23.1070 Cl  0  0  0  0  0  0  0  0  0  0  0  0
  -31.0980  -16.7540   21.7960 C   0  0  0  0  0  2  0  0  0  0  0  0
  -30.6850  -14.6810   20.4250 C   0  0  0  0  0  0  0  0  0  0  0  0
  -30.3540  -12.5270   19.2580 C   0  0  0  0  0  2  0  0  0  0  0  0
  -29.3340  -12.6580   18.1110 C   0  0  0  0  0  2  0  0  0  0  0  0
  -27.9120  -12.4090   18.6320 C   0  0  0  0  0  2  0  0  0  0  0  0
  -27.5940  -13.2480   19.8910 C   0  0  0  0  0  3  0  0  0  0  0  0
  -28.7180  -13.1250   20.9470 C   0  0  0  0  0  2  0  0  0  0  0  0
  -29.9950  -13.5010   20.3090 N   0  0  0  0  0  0  0  0  0  0  0  0
  -31.7110  -14.8830   19.7700 O   0  0  0  0  0  0  0  0  0  0  0  0
  -30.2440  -15.6290   21.2860 N   0  0  0  0  0  0  0  0  0  0  0  0
  -29.4210  -15.3970   21.8260 H   0  0  0  0  0  0  0  0  0  0  0  0
  -25.2380  -13.7160   20.7890 C   0  0  0  0  0  0  0  0  0  0  0  0
  -24.2190  -12.8840   21.1680 C   0  0  0  0  0  0  0  0  0  0  0  0
  -24.7130  -11.5540   21.0120 C   0  0  0  0  0  0  0  0  0  0  0  0
  -26.2900  -12.8880   20.4350 N   0  0  0  0  0  0  0  0  0  0  0  0
  -25.9830  -11.5780   20.6220 N   0  0  0  0  0  0  0  0  0  0  0  0
  -24.0320  -10.2620   21.1630 C   0  0  0  0  0  0  0  0  0  0  0  0
  -24.5030   -9.2840   22.0650 C   0  0  0  0  0  3  0  0  0  0  0  0
  -23.8270   -8.0510   22.2030 C   0  0  0  0  0  3  0  0  0  0  0  0
  -22.6630   -7.7900   21.4430 C   0  0  0  0  0  0  0  0  0  0  0  0
  -22.2140   -8.7530   20.5250 C   0  0  0  0  0  3  0  0  0  0  0  0
  -22.8900   -9.9790   20.3860 C   0  0  0  0  0  3  0  0  0  0  0  0
  -21.9540   -6.6120   21.4920 O   0  0  0  0  0  0  0  0  0  0  0  0
  -21.8610   -5.8860   22.6500 C   0  0  0  0  0  0  0  0  0  0  0  0
  -21.2070   -6.3890   23.7960 C   0  0  0  0  0  3  0  0  0  0  0  0
  -21.0710   -5.5760   24.9410 C   0  0  0  0  0  3  0  0  0  0  0  0
  -21.5760   -4.2610   24.9380 C   0  0  0  0  0  0  0  0  0  0  0  0
  -22.2190   -3.7600   23.7930 C   0  0  0  0  0  3  0  0  0  0  0  0
  -22.3580   -4.5710   22.6550 C   0  0  0  0  0  0  0  0  0  0  0  0
  -22.9620   -4.0770   21.5470 F   0  0  0  0  0  0  0  0  0  0  0  0
  -21.4390   -3.4770   26.0340 F   0  0  0  0  0  0  0  0  0  0  0  0
  -22.8320  -13.2950   21.5650 C   0  0  0  0  0  0  0  0  0  0  0  0
  -22.1970  -12.5170   22.4360 N   0  0  0  0  0  0  0  0  0  0  0  0
  -22.3270  -14.3360   21.1460 O   0  0  0  0  0  0  0  0  0  0  0  0
  -22.6210  -11.6740   22.7930 H   0  0  0  0  0  0  0  0  0  0  0  0
  -21.2700  -12.7670   22.7480 H   0  0  0  0  0  0  0  0  0  0  0  0
  -25.3580  -15.0970   20.7050 N   0  0  0  0  0  0  0  0  0  0  0  0
  -24.5990  -15.7330   20.9290 H   0  0  0  0  0  0  0  0  0  0  0  0
  -26.1870  -15.5660   20.3630 H   0  0  0  0  0  0  0  0  0  0  0  0
  -28.0920  -20.4440   19.8980 C   0  0  0  0  0  2  0  0  0  0  0  0
  -27.9410  -19.2560   15.6930 C   0  0  0  0  0  2  0  0  0  0  0  0
  -26.6500  -19.6200   16.4320 C   0  0  0  0  0  2  0  0  0  0  0  0
  -28.8250  -18.4450   16.6470 C   0  0  0  0  0  2  0  0  0  0  0  0
  -26.9300  -20.3760   17.7420 C   0  0  0  0  0  2  0  0  0  0  0  0
  -29.1380  -19.2490   17.9240 C   0  0  0  0  0  2  0  0  0  0  0  0
  -27.8950  -19.6710   18.6340 N   0  0  1  0  0  4  0  0  0  0  0  0
  -27.4500  -18.8080   18.9100 H   0  0  0  0  0  0  0  0  0  0  0  0
  -29.6580  -22.5870   21.5640 C   0  0  0  0  0  2  0  0  0  0  0  0
  -30.5260  -24.5590   20.1090 C   0  0  0  0  0  0  0  0  0  0  0  0
  -31.4360  -24.4920   19.1120 C   0  0  0  0  0  3  0  0  0  0  0  0
  -30.0910  -25.8430   20.7960 C   0  0  0  0  0  2  0  0  0  0  0  0
  -28.2090  -24.3670   20.4500 C   0  0  0  0  0  2  0  0  0  0  0  0
  -28.5560  -25.8470   20.8150 C   0  0  0  0  0  3  0  0  0  0  0  0
  -31.6670  -23.3570   18.1380 C   0  0  0  0  0  1  0  0  0  0  0  0
  -29.4680  -23.5440   20.3960 N   0  0  2  0  0  4  0  0  0  0  0  0
  -29.3850  -22.9480   19.5950 H   0  0  0  0  0  0  0  0  0  0  0  0
  -28.1090  -26.8530   19.8640 O   0  0  0  0  0  0  0  0  0  0  0  0
  -24.4350  -31.9950   23.3470 C   0  0  0  0  0  0  0  0  0  0  0  0
  -26.9470  -27.5850   20.0680 C   0  0  0  0  0  0  0  0  0  0  0  0
  -23.1700  -30.6920   21.6680 C   0  0  0  0  0  3  0  0  0  0  0  0
  -24.5750  -29.1680   20.1690 C   0  0  0  0  0  0  0  0  0  0  0  0
  -25.7040  -30.9860   21.4530 C   0  0  0  0  0  2  0  0  0  0  0  0
  -25.7570  -29.6330   20.7630 C   0  0  0  0  0  0  0  0  0  0  0  0
  -26.9390  -28.8530   20.7130 C   0  0  0  0  0  3  0  0  0  0  0  0
  -25.7440  -27.1420   19.4720 C   0  0  0  0  0  3  0  0  0  0  0  0
  -24.5680  -27.9190   19.5190 C   0  0  0  0  0  3  0  0  0  0  0  0
  -23.3520  -30.0570   20.2630 C   0  0  0  0  0  2  0  0  0  0  0  0
  -24.4550  -31.2380   22.2140 N   0  0  0  0  0  0  0  0  0  0  0  0
  -23.3690  -32.2710   23.9160 O   0  0  0  0  0  0  0  0  0  0  0  0
  -22.5030  -29.6520   22.5960 C   0  0  0  0  0  0  0  0  0  0  0  0
  -21.1800  -29.4750   22.4520 N   0  0  0  0  0  0  0  0  0  0  0  0
  -23.1770  -28.9980   23.3980 O   0  0  0  0  0  0  0  0  0  0  0  0
  -20.6930  -30.0510   21.7780 H   0  0  0  0  0  0  0  0  0  0  0  0
  -17.7980  -28.2930   22.8970 C   0  0  0  0  0  0  0  0  0  0  0  0
  -20.3550  -28.5180   23.1900 C   0  0  0  0  0  3  0  0  0  0  0  0
  -20.4510  -27.1070   22.5680 C   0  0  0  0  0  2  0  0  0  0  0  0
  -19.3540  -26.8280   21.5370 C   0  0  0  0  0  2  0  0  0  0  0  0
  -17.9670  -26.9650   22.1760 C   0  0  0  0  0  2  0  0  0  0  0  0
  -18.9220  -29.0290   23.3580 C   0  0  0  0  0  0  0  0  0  0  0  0
  -18.7150  -30.2740   23.9890 C   0  0  0  0  0  3  0  0  0  0  0  0
  -17.4140  -30.7840   24.1650 C   0  0  0  0  0  3  0  0  0  0  0  0
  -16.3040  -30.0430   23.7240 C   0  0  0  0  0  3  0  0  0  0  0  0
  -16.4960  -28.8000   23.0950 C   0  0  0  0  0  3  0  0  0  0  0  0
  -25.7450  -32.5680   23.9710 C   0  0  0  0  0  3  0  0  0  0  0  0
  -25.5100  -33.9870   24.2690 N   0  0  0  0  0  0  0  0  0  0  0  0
  -25.9360  -35.0040   23.5110 C   0  0  0  0  0  0  0  0  0  0  0  0
  -26.6400  -34.8440   22.5070 O   0  0  0  0  0  0  0  0  0  0  0  0
  -24.8880  -34.1900   25.0380 H   0  0  0  0  0  0  0  0  0  0  0  0
  -24.3750  -36.9130   23.0260 C   0  0  0  0  0  1  0  0  0  0  0  0
  -25.5170  -36.4250   23.9310 C   0  0  0  0  0  3  0  0  0  0  0  0
  -27.6240  -37.1740   24.9450 C   0  0  0  0  0  1  0  0  0  0  0  0
  -26.6290  -37.4020   23.9000 N   0  0  0  0  0  0  0  0  0  0  0  0
  -26.2770  -38.3500   24.0010 H   0  0  0  0  0  0  0  0  0  0  0  0
  -26.2050  -31.7960   25.2670 C   0  0  1  0  0  0  0  0  0  0  0  0
  -25.0780  -31.6260   26.3100 C   0  0  0  0  0  1  0  0  0  0  0  0
  -26.7380  -30.3880   24.9090 C   0  0  0  0  0  1  0  0  0  0  0  0
  -27.3690  -32.5550   25.9440 C   0  0  0  0  0  1  0  0  0  0  0  0
  1  3  1  0
  2  1  2  0
  2  4  1  0
  3  9  1  0
  3  6  2  0
  4 56  1  0
  4  5  2  0
  5  6  1  0
  5  7  1  0
  6  8  1  0
 10 18  1  0
 11 16  1  0
 12 13  1  0
 12 11  1  0
 14 13  1  0
 14 23  1  0
 14 15  1  0
 16 10  1  0
 16 15  1  0
 17 10  2  0
 18  9  1  0
 18 19  1  0
 20 21  2  0
 21 40  1  0
 22 25  1  0
 22 21  1  0
 23 24  1  0
 23 20  1  0
 24 22  2  0
 25 26  1  0
 26 27  2  0
 28 31  1  0
 28 27  1  0
 29 28  2  0
 30 29  1  0
 30 25  2  0
 31 32  1  0
 32 37  2  0
 32 33  1  0
 33 34  2  0
 35 34  1  0
 35 39  1  0
 36 35  2  0
 37 36  1  0
 38 37  1  0
 40 41  1  0
 41 44  1  0
 41 43  1  0
 42 40  2  0
 45 20  1  0
 45 46  1  0
 47 45  1  0
 48  2  1  0
 49 50  1  0
 49 51  1  0
 50 52  1  0
 51 53  1  0
 52 54  1  0
 53 54  1  0
 54 55  1  1
 54 48  1  0
 57 63  1  0
 57 59  1  0
 58 57  2  0
 59 61  1  0
 60 61  1  0
 61 65  1  0
 62 58  1  0
 63 60  1  0
 63 56  1  0
 63 64  1  6
 65 67  1  0
 66 77  2  0
 67 72  1  0
 68 76  1  0
 68 78  1  0
 69 75  1  0
 69 71  1  0
 70 76  1  0
 71 70  1  0
 72 71  2  0
 73 74  1  0
 73 67  2  0
 74 69  2  0
 75 68  1  0
 76 66  1  0
 78 80  2  0
 79 78  1  0
 81 79  1  0
 82 91  2  0
 82 87  1  0
 83 79  1  0
 83 87  1  0
 84 83  1  0
 85 86  1  0
 85 84  1  0
 86 82  1  0
 87 88  2  0
 88 89  1  0
 90 89  2  0
 91 90  1  0
 92 66  1  0
 92 93  1  0
 92102  1  0
 93 96  1  0
 94 98  1  0
 94 93  1  0
 95 94  2  0
 98 97  1  0
100 98  1  0
100101  1  0
100 99  1  0
102105  1  1
102103  1  0
104102  1  0
M  ISO  4  10 100  18 100  61 101  65 101
M  END
>  <TORSDO>  (19) 
F 21

>  <SCORE>  (19) 
-11.167

>  <name>  (19) 
18

>  <ligand_id>  (19) 
18

>  <original_smiles>  (19) 
[H]C(=C1C([H])([H])C([H])(Oc2c([H])c([H])c3c(c2[H])C([H])([H])N(C(=O)C([H])(N([H])C(=O)C([H])(N([H])C([H])([H])[H])C([H])([H])[H])C(C([H])([H])[H])(C([H])([H])[H])C([H])([H])[H])C([H])(C(=O)N([H])C2([H])c4c([H])c([H])c([H])c([H])c4C([H])([H])C([H])([H])C2([H])[H])C3([H])[H])C([H])([H])[N+]1([H])C([H])([H])c1c(C([H])([H])[H])c(Cl)c(C([H])([H])N([H])C(=O)N2C([H])([H])C([H])([H])C([H])([H])C([H])(n3nc(-c4c([H])c([H])c(Oc5c([H])c([H])c(F)c([H])c5F)c([H])c4[H])c(C(=O)N([H])[H])c3N([H])[H])C2([H])[H])c([H])c1C([H])([H])[N+]1([H])C([H])([H])C([H])([H])C([H])([H])C([H])([H])C1([H])[H])C([H])([H])[H]

>  <smiles>  (19) 
[H]C(=C1C([H])([H])C([H])(Oc2c([H])c([H])c3c(c2[H])C([H])([H])N(C(=O)C([H])(N([H])C(=O)C([H])(N([H])C([H])([H])[H])C([H])([H])[H])C(C([H])([H])[H])(C([H])([H])[H])C([H])([H])[H])C([H])(C(=O)N([H])C2([H])c4c([H])c([H])c([H])c([H])c4C([H])([H])C([H])([H])C2([H])[H])C3([H])[H])C([H])([H])[N+]1([H])C([H])([H])c1c(C([H])([H])[H])c(Cl)c(C([H])([H])N([H])C(=O)N2C([H])([H])C([H])([H])C([H])([H])C([H])(n3nc(-c4c([H])c([H])c(Oc5c([H])c([H])c(F)c([H])c5F)c([H])c4[H])c(C(=O)N([H])[H])c3N([H])[H])C2([H])[H])c([H])c1C([H])([H])[N+]1([H])C([H])([H])C([H])([H])C([H])([H])C([H])([H])C1([H])[H])C([H])([H])[H]

$$$$
19:0:0
     RDKit          3D

 98100  0  0  1  0  0  0  0  0999 V2000
  -20.9020  -25.7310   17.7350 C   0  0  0  0  0  3  0  0  0  0  0  0
  -21.7900  -27.2390   18.1950 C   0  0  0  0  0  3  0  0  0  0  0  0
  -20.6750  -24.0380   18.3850 C   0  0  0  0  0  2  0  0  0  0  0  0
  -21.1970  -26.9390   20.6870 C   0  0  0  0  0  2  0  0  0  0  0  0
  -22.7180  -27.6600   19.6350 C   0  0  0  0  0  2  0  0  0  0  0  0
  -20.8440  -23.3290   20.0910 C   0  0  0  0  0  3  0  0  0  0  0  0
  -19.7660  -22.2670   20.4420 C   0  0  0  0  0  1  0  0  0  0  0  0
  -21.3160  -24.3410   21.4450 N   0  0  0  0  0  2  0  0  0  0  0  0
  -20.8820  -24.0210   22.3260 H   0  0  0  0  0  0  0  0  0  0  0  0
  -24.5040  -27.9040   20.0540 O   0  0  0  0  0  0  0  0  0  0  0  0
  -24.9450  -32.3400   23.6690 C   0  0  0  0  0  0  0  0  0  0  0  0
  -25.7410  -28.4270   19.4570 C   0  0  0  0  0  3  0  0  0  0  0  0
  -23.3900  -31.3100   22.1030 C   0  0  0  0  0  3  0  0  0  0  0  0
  -24.3720  -30.5580   19.7850 C   0  0  0  0  0  3  0  0  0  0  0  0
  -25.8490  -31.6460   21.4590 C   0  0  0  0  0  2  0  0  0  0  0  0
  -25.5940  -30.5570   20.4490 C   0  0  0  0  0  3  0  0  0  0  0  0
  -26.4270  -29.4600   20.1770 C   0  0  0  0  0  2  0  0  0  0  0  0
  -25.2610  -28.8650   18.2640 C   0  0  0  0  0  2  0  0  0  0  0  0
  -24.2850  -29.8410   18.5570 C   0  0  0  0  0  2  0  0  0  0  0  0
  -23.2170  -31.1930   20.5260 C   0  0  0  0  0  2  0  0  0  0  0  0
  -24.7370  -31.8460   22.4230 N   0  0  0  0  0  0  0  0  0  0  0  0
  -24.0150  -32.4530   24.4760 O   0  0  0  0  0  0  0  0  0  0  0  0
  -23.2190  -30.0280   23.0040 C   0  0  0  0  0  0  0  0  0  0  0  0
  -22.1540  -29.7710   23.7530 N   0  0  0  0  0  0  0  0  0  0  0  0
  -24.0900  -29.1700   23.0100 O   0  0  0  0  0  0  0  0  0  0  0  0
  -21.4250  -30.4730   23.7620 H   0  0  0  0  0  0  0  0  0  0  0  0
  -19.2640  -28.2530   22.5730 C   0  0  0  0  0  0  0  0  0  0  0  0
  -21.6600  -28.3550   24.1050 C   0  0  0  0  0  2  0  0  0  0  0  0
  -22.8830  -26.9000   23.3980 C   0  0  0  0  0 15  0  0  0  0  0  0
  -22.3470  -25.9740   21.2920 C   0  0  0  0  0  1  0  0  0  0  0  0
  -19.9260  -27.1210   21.3050 C   0  0  0  0  0  2  0  0  0  0  0  0
  -20.0760  -28.8190   23.6810 C   0  0  0  0  0  0  0  0  0  0  0  0
  -19.5450  -30.0150   24.3830 C   0  0  0  0  0  3  0  0  0  0  0  0
  -18.2760  -30.6240   24.2160 C   0  0  0  0  0  3  0  0  0  0  0  0
  -17.4020  -29.9720   23.3410 C   0  0  0  0  0  3  0  0  0  0  0  0
  -17.8940  -28.8550   22.5580 C   0  0  0  0  0  3  0  0  0  0  0  0
  -26.3570  -32.7940   24.1240 C   0  0  0  0  0  3  0  0  0  0  0  0
  -27.0570  -31.7740   25.1050 C   0  0  1  0  0  0  0  0  0  0  0  0
  -26.1730  -31.3390   26.2950 C   0  0  0  0  0  1  0  0  0  0  0  0
  -27.5020  -30.4850   24.3780 C   0  0  0  0  0  1  0  0  0  0  0  0
  -28.3500  -32.4170   25.6640 C   0  0  0  0  0  1  0  0  0  0  0  0
  -26.1700  -34.0950   24.7750 N   0  0  0  0  0  0  0  0  0  0  0  0
  -26.4660  -35.2690   24.2090 C   0  0  0  0  0  0  0  0  0  0  0  0
  -27.0260  -35.3600   23.1130 O   0  0  0  0  0  0  0  0  0  0  0  0
  -25.6780  -34.0920   25.6580 H   0  0  0  0  0  0  0  0  0  0  0  0
  -24.8530  -37.1920   24.3380 C   0  0  0  0  0  1  0  0  0  0  0  0
  -26.0850  -36.5420   24.9830 C   0  0  0  0  0  3  0  0  0  0  0  0
  -28.3110  -37.0560   25.8800 C   0  0  0  0  0  1  0  0  0  0  0  0
  -27.1880  -37.5230   25.0690 N   0  0  0  0  0  0  0  0  0  0  0  0
  -26.8580  -38.4010   25.4620 H   0  0  0  0  0  0  0  0  0  0  0  0
  -23.0780  -23.3390   21.3540 C   0  0  0  0  0 15  0  0  0  0  0  0
  -27.3330  -24.4530   21.8260 C   0  0  0  0  0  3  0  0  0  0  0  0
  -28.3670  -23.7260   21.1750 C   0  0  0  0  0  3  0  0  0  0  0  0
  -25.9210  -24.2410   21.8300 C   0  0  0  0  0  0  0  0  0  0  0  0
  -28.2180  -22.5600   20.3870 C   0  0  0  0  0  3  0  0  0  0  0  0
  -26.4920  -22.4780   20.3420 C   0  0  0  0  0  0  0  0  0  0  0  0
  -25.1480  -23.3190   21.0270 C   0  0  0  0  0  3  0  0  0  0  0  0
  -25.2130  -25.0350   22.8790 C   0  0  0  0  0  1  0  0  0  0  0  0
  -25.9980  -21.3620   19.4360 C   0  0  0  0  0  1  0  0  0  0  0  0
  -30.0130  -21.6060   20.0400 C   0  0  0  0  0 15  0  0  0  0  0  0
  -33.4330  -21.5040   18.8750 C   0  0  0  0  0  0  0  0  0  0  0  0
  -35.7310  -20.3340   17.7540 C   0  0  0  0  0  2  0  0  0  0  0  0
  -35.6080  -19.2510   16.6160 C   0  0  0  0  0  2  0  0  0  0  0  0
  -34.9640  -17.9580   17.1440 C   0  0  0  0  0  2  0  0  0  0  0  0
  -33.8830  -18.3330   18.1720 C   0  0  0  0  0  3  0  0  0  0  0  0
  -34.4070  -19.1980   19.3020 C   0  0  0  0  0  2  0  0  0  0  0  0
  -34.4430  -20.4540   18.6400 N   0  0  0  0  0  0  0  0  0  0  0  0
  -34.1670  -22.5190   18.6250 O   0  0  0  0  0  0  0  0  0  0  0  0
  -31.7790  -21.3360   19.2090 N   0  0  0  0  0  2  0  0  0  0  0  0
  -31.6900  -20.3520   18.9870 H   0  0  0  0  0  0  0  0  0  0  0  0
  -31.8550  -17.3190   19.1810 C   0  0  0  0  0  0  0  0  0  0  0  0
  -31.6110  -16.0650   19.6700 C   0  0  0  0  0  0  0  0  0  0  0  0
  -32.8350  -15.3470   19.5350 C   0  0  0  0  0  0  0  0  0  0  0  0
  -33.1630  -17.2670   18.7540 N   0  0  0  0  0  0  0  0  0  0  0  0
  -33.7940  -16.1180   19.0500 N   0  0  0  0  0  0  0  0  0  0  0  0
  -33.1410  -13.9370   19.7540 C   0  0  0  0  0  0  0  0  0  0  0  0
  -34.2700  -13.5360   20.4940 C   0  0  0  0  0  3  0  0  0  0  0  0
  -34.5300  -12.1650   20.7010 C   0  0  0  0  0  3  0  0  0  0  0  0
  -33.6520  -11.1910   20.1650 C   0  0  0  0  0  0  0  0  0  0  0  0
  -32.5450  -11.6030   19.4040 C   0  0  0  0  0  3  0  0  0  0  0  0
  -32.2930  -12.9680   19.1940 C   0  0  0  0  0  3  0  0  0  0  0  0
  -33.8340   -9.8370   20.2950 O   0  0  0  0  0  0  0  0  0  0  0  0
  -34.6290   -9.3140   21.2810 C   0  0  0  0  0  0  0  0  0  0  0  0
  -34.3830   -9.5620   22.6490 C   0  0  0  0  0  3  0  0  0  0  0  0
  -35.1840   -8.9460   23.6300 C   0  0  0  0  0  3  0  0  0  0  0  0
  -36.2240   -8.0770   23.2470 C   0  0  0  0  0  0  0  0  0  0  0  0
  -36.4670   -7.8260   21.8850 C   0  0  0  0  0  3  0  0  0  0  0  0
  -35.6690   -8.4410   20.9050 C   0  0  0  0  0  0  0  0  0  0  0  0
  -35.8910   -8.1800   19.5940 F   0  0  0  0  0  0  0  0  0  0  0  0
  -36.9880   -7.4770   24.1890 F   0  0  0  0  0  0  0  0  0  0  0  0
  -30.2760  -15.5540   20.1020 C   0  0  0  0  0  0  0  0  0  0  0  0
  -30.2620  -14.6450   21.0740 N   0  0  0  0  0  0  0  0  0  0  0  0
  -29.2410  -15.9890   19.6120 O   0  0  0  0  0  0  0  0  0  0  0  0
  -31.1140  -14.3070   21.4910 H   0  0  0  0  0  0  0  0  0  0  0  0
  -29.3770  -14.2920   21.4060 H   0  0  0  0  0  0  0  0  0  0  0  0
  -31.0720  -18.4600   19.0300 N   0  0  0  0  0  0  0  0  0  0  0  0
  -30.0890  -18.2680   19.1980 H   0  0  0  0  0  0  0  0  0  0  0  0
  -31.1790  -18.9370   18.1430 H   0  0  0  0  0  0  0  0  0  0  0  0
  1  2  2  0
  1  3  1  0
  2  5  1  0
  3  6  1  0
  4 30  1  0
  4 31  1  0
  5 10  1  0
  6  7  1  0
  6  8  1  0
  8  9  1  0
 11 22  2  0
 12 10  1  0
 12 17  1  0
 13 21  1  0
 13 23  1  0
 14 19  1  0
 14 16  1  0
 14 20  1  0
 15 21  1  0
 16 17  1  0
 16 15  1  0
 18 19  1  0
 18 12  1  0
 20 13  1  0
 21 11  1  0
 23 25  2  0
 23 24  1  0
 24 26  1  0
 24 28  1  0
 27 32  1  0
 31 27  1  0
 32 28  1  0
 32 33  2  0
 34 33  1  0
 35 34  2  0
 36 27  2  0
 36 35  1  0
 37 11  1  0
 37 42  1  0
 37 38  1  0
 38 41  1  1
 38 39  1  0
 40 38  1  0
 42 45  1  0
 43 42  1  0
 43 47  1  0
 44 43  2  0
 47 46  1  0
 47 49  1  0
 49 50  1  0
 49 48  1  0
 52 54  1  0
 53 52  2  0
 54 58  1  0
 55 53  1  0
 56 55  2  0
 56 57  1  0
 57 54  2  0
 59 56  1  0
 61 69  1  0
 62 67  1  0
 63 64  1  0
 63 62  1  0
 65 64  1  0
 65 74  1  0
 65 66  1  0
 67 61  1  0
 67 66  1  0
 68 61  2  0
 70 69  1  0
 71 72  2  0
 72 91  1  0
 73 72  1  0
 73 76  1  0
 74 75  1  0
 74 71  1  0
 75 73  2  0
 76 77  1  0
 77 78  2  0
 79 82  1  0
 79 78  1  0
 80 79  2  0
 81 80  1  0
 81 76  2  0
 82 83  1  0
 83 84  1  0
 84 85  2  0
 86 85  1  0
 86 90  1  0
 87 86  2  0
 88 83  2  0
 88 87  1  0
 89 88  1  0
 91 92  1  0
 92 95  1  0
 92 94  1  0
 93 91  2  0
 96 71  1  0
 96 97  1  0
 98 96  1  0
M  ISO  4   5 101  10 101  61 100  69 100
M  END
>  <TORSDO>  (20) 
F 19

>  <SCORE>  (20) 
-5.512

>  <name>  (20) 
19

>  <ligand_id>  (20) 
19

>  <original_smiles>  (20) 
[H]c1c([H])c([H])c2c(c1[H])C([H])([H])C([H])([H])C([H])([H])C2([H])N([H])C(=O)C1([H])N(C(=O)C([H])(N([H])C(=O)C([H])(N([H])C([H])([H])[H])C([H])([H])[H])C(C([H])([H])[H])(C([H])([H])[H])C([H])([H])[H])C([H])([H])c2c([H])c(OC3([H])C([H])([H])C([H])([H])C([H])([H])C([H])(C([H])([H])[H])[N+]([H])(C([H])([H])c4c(C([H])([H])[H])c([H])c([H])c(C([H])([H])N([H])C(=O)N5C([H])([H])C([H])([H])C([H])([H])C([H])(n6nc(-c7c([H])c([H])c(Oc8c([H])c([H])c(F)c([H])c8F)c([H])c7[H])c(C(=O)N([H])[H])c6N([H])[H])C5([H])[H])c4C([H])([H])[H])C3([H])[H])c([H])c([H])c2C1([H])[H]

>  <smiles>  (20) 
[H]c1c([H])c([H])c2c(c1[H])C([H])([H])C([H])([H])C([H])([H])C2([H])N([H])C(=O)C1([H])N(C(=O)C([H])(N([H])C(=O)C([H])(N([H])C([H])([H])[H])C([H])([H])[H])C(C([H])([H])[H])(C([H])([H])[H])C([H])([H])[H])C([H])([H])c2c([H])c(OC3([H])C([H])([H])C([H])([H])C([H])([H])C([H])(C([H])([H])[H])[N+]([H])(C([H])([H])c4c(C([H])([H])[H])c([H])c([H])c(C([H])([H])N([H])C(=O)N5C([H])([H])C([H])([H])C([H])([H])C([H])(n6nc(-c7c([H])c([H])c(Oc8c([H])c([H])c(F)c([H])c8F)c([H])c7[H])c(C(=O)N([H])[H])c6N([H])[H])C5([H])[H])c4C([H])([H])[H])C3([H])[H])c([H])c([H])c2C1([H])[H]

$$$$
20:0:0
     RDKit          3D

 96105  0  0  1  0  0  0  0  0999 V2000
  -29.1270  -21.8570   21.2200 C   0  0  0  0  0  2  0  0  0  0  0  0
  -32.3300  -19.7090   20.8590 C   0  0  0  0  0  3  0  0  0  0  0  0
  -29.5740  -19.3600   20.6090 C   0  0  0  0  0  3  0  0  0  0  0  0
  -31.8320  -18.4710   20.4070 C   0  0  0  0  0  0  0  0  0  0  0  0
  -31.4770  -20.7880   21.1510 C   0  0  0  0  0  0  0  0  0  0  0  0
  -30.4320  -18.2520   20.3230 C   0  0  0  0  0  0  0  0  0  0  0  0
  -30.0750  -20.6470   20.9830 C   0  0  0  0  0  0  0  0  0  0  0  0
  -32.8470  -17.4350   19.9620 C   0  0  0  0  0  1  0  0  0  0  0  0
  -32.1220  -22.0850   21.6140 C   0  0  0  0  0  1  0  0  0  0  0  0
  -29.8450  -16.9250   19.7580 C   0  0  0  0  0  2  0  0  0  0  0  0
  -30.5890  -14.5610   20.2870 C   0  0  0  0  0  0  0  0  0  0  0  0
  -30.2970  -12.3470   19.2590 C   0  0  0  0  0  2  0  0  0  0  0  0
  -29.3510  -12.5180   18.0510 C   0  0  0  0  0  2  0  0  0  0  0  0
  -27.8820  -12.3850   18.4940 C   0  0  0  0  0  2  0  0  0  0  0  0
  -27.5470  -13.2390   19.7470 C   0  0  0  0  0  3  0  0  0  0  0  0
  -28.6180  -13.0750   20.8530 C   0  0  0  0  0  2  0  0  0  0  0  0
  -29.9300  -13.3670   20.2600 N   0  0  0  0  0  0  0  0  0  0  0  0
  -31.7280  -14.6690   19.8400 O   0  0  0  0  0  0  0  0  0  0  0  0
  -29.8420  -15.6640   20.5580 N   0  0  0  0  0  0  0  0  0  0  0  0
  -28.9590  -15.4630   21.0000 H   0  0  0  0  0  0  0  0  0  0  0  0
  -25.1580  -13.8320   20.4860 C   0  0  0  0  0  0  0  0  0  0  0  0
  -24.0970  -13.0590   20.8690 C   0  0  0  0  0  0  0  0  0  0  0  0
  -24.5620  -11.7090   20.8340 C   0  0  0  0  0  0  0  0  0  0  0  0
  -26.2030  -12.9550   20.2440 N   0  0  0  0  0  0  0  0  0  0  0  0
  -25.8480  -11.6710   20.5120 N   0  0  0  0  0  0  0  0  0  0  0  0
  -23.8390  -10.4460   21.0310 C   0  0  0  0  0  0  0  0  0  0  0  0
  -24.2850   -9.4760   21.9560 C   0  0  0  0  0  3  0  0  0  0  0  0
  -23.5630   -8.2770   22.1410 C   0  0  0  0  0  3  0  0  0  0  0  0
  -22.3790   -8.0390   21.4030 C   0  0  0  0  0  0  0  0  0  0  0  0
  -21.9520   -8.9980   20.4680 C   0  0  0  0  0  3  0  0  0  0  0  0
  -22.6750  -10.1880   20.2810 C   0  0  0  0  0  3  0  0  0  0  0  0
  -21.6270   -6.8950   21.5000 O   0  0  0  0  0  0  0  0  0  0  0  0
  -21.6030   -6.1440   22.6480 C   0  0  0  0  0  0  0  0  0  0  0  0
  -21.2080   -6.6890   23.8890 C   0  0  0  0  0  3  0  0  0  0  0  0
  -21.1320   -5.8650   25.0280 C   0  0  0  0  0  3  0  0  0  0  0  0
  -21.4380   -4.4950   24.9280 C   0  0  0  0  0  0  0  0  0  0  0  0
  -21.8250   -3.9480   23.6930 C   0  0  0  0  0  3  0  0  0  0  0  0
  -21.9030   -4.7700   22.5550 C   0  0  0  0  0  0  0  0  0  0  0  0
  -22.2560   -4.2340   21.3630 F   0  0  0  0  0  0  0  0  0  0  0  0
  -21.3590   -3.7000   26.0220 F   0  0  0  0  0  0  0  0  0  0  0  0
  -22.7020  -13.5360   21.1620 C   0  0  0  0  0  0  0  0  0  0  0  0
  -21.9840  -12.8320   22.0310 N   0  0  0  0  0  0  0  0  0  0  0  0
  -22.2590  -14.5650   20.6570 O   0  0  0  0  0  0  0  0  0  0  0  0
  -22.3570  -12.0010   22.4640 H   0  0  0  0  0  0  0  0  0  0  0  0
  -21.0500  -13.1330   22.2700 H   0  0  0  0  0  0  0  0  0  0  0  0
  -25.3230  -15.2010   20.3000 N   0  0  0  0  0  0  0  0  0  0  0  0
  -24.5670  -15.8650   20.4260 H   0  0  0  0  0  0  0  0  0  0  0  0
  -26.1680  -15.6280   19.9410 H   0  0  0  0  0  0  0  0  0  0  0  0
  -28.6660  -23.1070   19.0420 C   0  0  0  0  0  0  0  0  0  0  0  0
  -28.4580  -22.0610   18.2270 C   0  0  0  0  0  2  0  0  0  0  0  0
  -28.1700  -24.5310   18.8620 C   0  0  0  0  0  2  0  0  0  0  0  0
  -29.2810  -24.3990   20.9790 C   0  0  0  0  0  2  0  0  0  0  0  0
  -28.1520  -25.1680   20.2540 C   0  0  0  0  0  3  0  0  0  0  0  0
  -29.4010  -23.0470   20.3390 N   0  0  1  0  0  4  0  0  0  0  0  0
  -30.3840  -22.9470   20.1310 H   0  0  0  0  0  0  0  0  0  0  0  0
  -28.3130  -26.6180   20.2320 O   0  0  0  0  0  0  0  0  0  0  0  0
  -24.5770  -31.9040   23.2410 C   0  0  0  0  0  0  0  0  0  0  0  0
  -27.1660  -27.3990   20.1790 C   0  0  0  0  0  0  0  0  0  0  0  0
  -23.3560  -30.5090   21.6080 C   0  0  0  0  0  3  0  0  0  0  0  0
  -24.7910  -28.9620   20.1780 C   0  0  0  0  0  0  0  0  0  0  0  0
  -25.8860  -30.8450   21.3940 C   0  0  0  0  0  2  0  0  0  0  0  0
  -25.9600  -29.4690   20.7580 C   0  0  0  0  0  0  0  0  0  0  0  0
  -27.1500  -28.6980   20.7520 C   0  0  0  0  0  3  0  0  0  0  0  0
  -25.9740  -26.9310   19.5750 C   0  0  0  0  0  3  0  0  0  0  0  0
  -24.7970  -27.6940   19.5800 C   0  0  0  0  0  3  0  0  0  0  0  0
  -23.5550  -29.8310   20.2270 C   0  0  0  0  0  2  0  0  0  0  0  0
  -24.6270  -31.1000   22.1390 N   0  0  0  0  0  0  0  0  0  0  0  0
  -23.4990  -32.1840   23.7830 O   0  0  0  0  0  0  0  0  0  0  0  0
  -22.7010  -29.4920   22.5720 C   0  0  0  0  0  0  0  0  0  0  0  0
  -21.3760  -29.3170   22.4500 N   0  0  0  0  0  0  0  0  0  0  0  0
  -23.3830  -28.8640   23.3850 O   0  0  0  0  0  0  0  0  0  0  0  0
  -20.8850  -29.8710   21.7610 H   0  0  0  0  0  0  0  0  0  0  0  0
  -17.9980  -28.1410   22.9610 C   0  0  0  0  0  0  0  0  0  0  0  0
  -20.5570  -28.3860   23.2260 C   0  0  0  0  0  3  0  0  0  0  0  0
  -20.6520  -26.9530   22.6540 C   0  0  0  0  0  2  0  0  0  0  0  0
  -19.5460  -26.6330   21.6430 C   0  0  0  0  0  2  0  0  0  0  0  0
  -18.1650  -26.7890   22.2890 C   0  0  0  0  0  2  0  0  0  0  0  0
  -19.1200  -28.8990   23.3870 C   0  0  0  0  0  0  0  0  0  0  0  0
  -18.9080  -30.1650   23.9720 C   0  0  0  0  0  3  0  0  0  0  0  0
  -17.6050  -30.6740   24.1370 C   0  0  0  0  0  3  0  0  0  0  0  0
  -16.4980  -29.9120   23.7270 C   0  0  0  0  0  3  0  0  0  0  0  0
  -16.6940  -28.6490   23.1450 C   0  0  0  0  0  3  0  0  0  0  0  0
  -25.8690  -32.5280   23.8530 C   0  0  0  0  0  3  0  0  0  0  0  0
  -26.3930  -31.7500   25.1210 C   0  0  1  0  0  0  0  0  0  0  0  0
  -25.3090  -31.5110   26.1980 C   0  0  0  0  0  1  0  0  0  0  0  0
  -26.9630  -30.3720   24.7140 C   0  0  0  0  0  1  0  0  0  0  0  0
  -27.5520  -32.5350   25.7760 C   0  0  0  0  0  1  0  0  0  0  0  0
  -25.5680  -33.9270   24.1870 N   0  0  0  0  0  0  0  0  0  0  0  0
  -25.9010  -34.9780   23.4270 C   0  0  0  0  0  0  0  0  0  0  0  0
  -26.5660  -34.8730   22.3930 O   0  0  0  0  0  0  0  0  0  0  0  0
  -24.9820  -34.0840   24.9940 H   0  0  0  0  0  0  0  0  0  0  0  0
  -24.1840  -36.7800   23.0730 C   0  0  0  0  0  1  0  0  0  0  0  0
  -25.4210  -36.3680   23.8860 C   0  0  0  0  0  3  0  0  0  0  0  0
  -27.5630  -37.2380   24.7180 C   0  0  0  0  0  1  0  0  0  0  0  0
  -26.4600  -37.4150   23.7760 N   0  0  0  0  0  0  0  0  0  0  0  0
  -26.0600  -38.3370   23.9260 H   0  0  0  0  0  0  0  0  0  0  0  0
  2  5  1  0
  3  7  1  0
  4  2  2  0
  5  9  1  0
  6  4  1  0
  6  3  2  0
  7  5  2  0
  7  1  1  0
  8  4  1  0
 10  6  1  0
 10 19  1  0
 11 19  1  0
 12 17  1  0
 13 14  1  0
 13 12  1  0
 15 14  1  0
 15 24  1  0
 15 16  1  0
 17 11  1  0
 17 16  1  0
 18 11  2  0
 19 20  1  0
 21 22  2  0
 22 41  1  0
 23 22  1  0
 23 26  1  0
 24 21  1  0
 24 25  1  0
 25 23  2  0
 26 27  1  0
 27 28  2  0
 29 32  1  0
 29 28  1  0
 30 29  2  0
 31 30  1  0
 31 26  2  0
 32 33  1  0
 33 34  1  0
 34 35  2  0
 36 35  1  0
 36 40  1  0
 37 36  2  0
 38 33  2  0
 38 37  1  0
 39 38  1  0
 41 42  1  0
 42 45  1  0
 42 44  1  0
 43 41  2  0
 46 47  1  0
 46 21  1  0
 48 46  1  0
 49 54  1  0
 50 49  2  0
 51 49  1  0
 51 53  1  0
 53 56  1  0
 53 52  1  0
 54 52  1  0
 54  1  1  0
 54 55  1  6
 57 68  2  0
 58 56  1  0
 58 63  1  0
 59 67  1  0
 59 69  1  0
 60 66  1  0
 60 62  1  0
 61 67  1  0
 62 61  1  0
 63 62  2  0
 64 65  1  0
 64 58  2  0
 65 60  2  0
 66 59  1  0
 67 57  1  0
 69 71  2  0
 70 69  1  0
 72 70  1  0
 73 82  2  0
 73 78  1  0
 74 70  1  0
 74 78  1  0
 75 74  1  0
 76 77  1  0
 76 75  1  0
 77 73  1  0
 78 79  2  0
 79 80  1  0
 81 80  2  0
 82 81  1  0
 83 57  1  0
 83 88  1  0
 83 84  1  0
 84 87  1  1
 84 85  1  0
 86 84  1  0
 88 91  1  0
 89 93  1  0
 89 88  1  0
 90 89  2  0
 93 92  1  0
 95 93  1  0
 95 96  1  0
 95 94  1  0
M  ISO  4  11 100  19 100  53 101  56 101
M  END
>  <TORSDO>  (21) 
F 19

>  <SCORE>  (21) 
-14.324

>  <name>  (21) 
20

>  <ligand_id>  (21) 
20

>  <original_smiles>  (21) 
[H]C([H])=C1C([H])([H])C([H])(Oc2c([H])c([H])c3c(c2[H])C([H])([H])N(C(=O)C([H])(N([H])C(=O)C([H])(N([H])C([H])([H])[H])C([H])([H])[H])C(C([H])([H])[H])(C([H])([H])[H])C([H])([H])[H])C([H])(C(=O)N([H])C2([H])c4c([H])c([H])c([H])c([H])c4C([H])([H])C([H])([H])C2([H])[H])C3([H])[H])C([H])([H])[N+]1([H])C([H])([H])c1c([H])c(C([H])([H])N([H])C(=O)N2C([H])([H])C([H])([H])C([H])([H])C([H])(n3nc(-c4c([H])c([H])c(Oc5c([H])c([H])c(F)c([H])c5F)c([H])c4[H])c(C(=O)N([H])[H])c3N([H])[H])C2([H])[H])c(C([H])([H])[H])c([H])c1C([H])([H])[H]

>  <smiles>  (21) 
[H]C([H])=C1C([H])([H])C([H])(Oc2c([H])c([H])c3c(c2[H])C([H])([H])N(C(=O)C([H])(N([H])C(=O)C([H])(N([H])C([H])([H])[H])C([H])([H])[H])C(C([H])([H])[H])(C([H])([H])[H])C([H])([H])[H])C([H])(C(=O)N([H])C2([H])c4c([H])c([H])c([H])c([H])c4C([H])([H])C([H])([H])C2([H])[H])C3([H])[H])C([H])([H])[N+]1([H])C([H])([H])c1c([H])c(C([H])([H])N([H])C(=O)N2C([H])([H])C([H])([H])C([H])([H])C([H])(n3nc(-c4c([H])c([H])c(Oc5c([H])c([H])c(F)c([H])c5F)c([H])c4[H])c(C(=O)N([H])[H])c3N([H])[H])C2([H])[H])c(C([H])([H])[H])c([H])c1C([H])([H])[H]

$$$$
21:0:0
     RDKit          3D

 96105  0  0  1  0  0  0  0  0999 V2000
  -28.5350  -21.0990   20.0600 C   0  0  0  0  0  2  0  0  0  0  0  0
  -29.4450  -18.5330   19.9500 C   0  0  0  0  0  3  0  0  0  0  0  0
  -29.3740  -19.8310   20.6130 C   0  0  0  0  0  0  0  0  0  0  0  0
  -29.9620  -19.8790   21.9080 C   0  0  0  0  0  0  0  0  0  0  0  0
  -30.7120  -18.7780   22.4230 C   0  0  0  0  0  0  0  0  0  0  0  0
  -30.7590  -17.5220   21.7460 C   0  0  0  0  0  0  0  0  0  0  0  0
  -30.1020  -17.3470   20.4940 C   0  0  0  0  0  0  0  0  0  0  0  0
  -29.7140  -21.0850   22.8130 C   0  0  0  0  0  1  0  0  0  0  0  0
  -31.4210  -18.9450   23.7730 C   0  0  0  0  0  1  0  0  0  0  0  0
  -31.4490  -16.3260   22.4120 C   0  0  0  0  0  1  0  0  0  0  0  0
  -30.7140  -14.8270   19.8670 C   0  0  0  0  0  0  0  0  0  0  0  0
  -30.4090  -12.5390   18.8860 C   0  0  0  0  0  2  0  0  0  0  0  0
  -29.3890  -12.5990   17.7290 C   0  0  0  0  0  2  0  0  0  0  0  0
  -27.9460  -12.4790   18.2580 C   0  0  0  0  0  2  0  0  0  0  0  0
  -27.6670  -13.4110   19.4660 C   0  0  0  0  0  3  0  0  0  0  0  0
  -28.7930  -13.3140   20.5170 C   0  0  0  0  0  2  0  0  0  0  0  0
  -30.0540  -13.6190   19.8280 N   0  0  0  0  0  0  0  0  0  0  0  0
  -31.9100  -14.8830   19.5660 O   0  0  0  0  0  0  0  0  0  0  0  0
  -29.9260  -15.9720   19.9330 N   0  0  0  0  0  0  0  0  0  0  0  0
  -28.9650  -15.7600   19.7230 H   0  0  0  0  0  0  0  0  0  0  0  0
  -25.3630  -14.1050   20.3560 C   0  0  0  0  0  0  0  0  0  0  0  0
  -24.2860  -13.3750   20.7830 C   0  0  0  0  0  0  0  0  0  0  0  0
  -24.6880  -12.0050   20.7130 C   0  0  0  0  0  0  0  0  0  0  0  0
  -26.3480  -13.1810   20.0440 N   0  0  0  0  0  0  0  0  0  0  0  0
  -25.9520  -11.9130   20.3240 N   0  0  0  0  0  0  0  0  0  0  0  0
  -23.9180  -10.7740   20.9360 C   0  0  0  0  0  0  0  0  0  0  0  0
  -24.3580   -9.7790   21.8370 C   0  0  0  0  0  3  0  0  0  0  0  0
  -23.5900   -8.6130   22.0460 C   0  0  0  0  0  3  0  0  0  0  0  0
  -22.3690   -8.4330   21.3540 C   0  0  0  0  0  0  0  0  0  0  0  0
  -21.9480   -9.4160   20.4400 C   0  0  0  0  0  3  0  0  0  0  0  0
  -22.7180  -10.5730   20.2280 C   0  0  0  0  0  3  0  0  0  0  0  0
  -21.5710   -7.3200   21.4760 O   0  0  0  0  0  0  0  0  0  0  0  0
  -21.5430   -6.5780   22.6300 C   0  0  0  0  0  0  0  0  0  0  0  0
  -21.2140   -7.1520   23.8780 C   0  0  0  0  0  3  0  0  0  0  0  0
  -21.1250   -6.3390   25.0260 C   0  0  0  0  0  3  0  0  0  0  0  0
  -21.3610   -4.9540   24.9290 C   0  0  0  0  0  0  0  0  0  0  0  0
  -21.6840   -4.3810   23.6870 C   0  0  0  0  0  3  0  0  0  0  0  0
  -21.7730   -5.1900   22.5410 C   0  0  0  0  0  0  0  0  0  0  0  0
  -22.0630   -4.6280   21.3430 F   0  0  0  0  0  0  0  0  0  0  0  0
  -21.2710   -4.1730   26.0290 F   0  0  0  0  0  0  0  0  0  0  0  0
  -22.9310  -13.9090   21.1440 C   0  0  0  0  0  0  0  0  0  0  0  0
  -22.2320  -13.2410   22.0570 N   0  0  0  0  0  0  0  0  0  0  0  0
  -22.5010  -14.9500   20.6510 O   0  0  0  0  0  0  0  0  0  0  0  0
  -22.5890  -12.3940   22.4710 H   0  0  0  0  0  0  0  0  0  0  0  0
  -21.3260  -13.5840   22.3440 H   0  0  0  0  0  0  0  0  0  0  0  0
  -25.5810  -15.4700   20.1810 N   0  0  0  0  0  0  0  0  0  0  0  0
  -24.8690  -16.1690   20.3620 H   0  0  0  0  0  0  0  0  0  0  0  0
  -26.4360  -15.8750   19.8240 H   0  0  0  0  0  0  0  0  0  0  0  0
  -29.9480  -23.1490   19.2270 C   0  0  0  0  0  0  0  0  0  0  0  0
  -30.8190  -22.4340   18.4920 C   0  0  0  0  0  2  0  0  0  0  0  0
  -29.7310  -24.6670   19.1860 C   0  0  0  0  0  2  0  0  0  0  0  0
  -28.0070  -23.7030   20.5140 C   0  0  0  0  0  2  0  0  0  0  0  0
  -28.2990  -25.0000   19.6260 C   0  0  0  0  0  3  0  0  0  0  0  0
  -29.0110  -22.5720   20.2360 N   0  0  1  0  0  4  0  0  0  0  0  0
  -29.5280  -22.5170   21.1020 H   0  0  0  0  0  0  0  0  0  0  0  0
  -28.2500  -26.4340   20.1190 O   0  0  0  0  0  0  0  0  0  0  0  0
  -24.5720  -31.8850   23.1850 C   0  0  0  0  0  0  0  0  0  0  0  0
  -27.1230  -27.2910   20.0660 C   0  0  0  0  0  0  0  0  0  0  0  0
  -23.3380  -30.4980   21.5580 C   0  0  0  0  0  3  0  0  0  0  0  0
  -24.7620  -28.9430   20.0960 C   0  0  0  0  0  0  0  0  0  0  0  0
  -25.8760  -30.8040   21.3280 C   0  0  0  0  0  2  0  0  0  0  0  0
  -25.9410  -29.4200   20.6760 C   0  0  0  0  0  0  0  0  0  0  0  0
  -27.1200  -28.6070   20.6460 C   0  0  0  0  0  3  0  0  0  0  0  0
  -25.9110  -26.8750   19.4690 C   0  0  0  0  0  3  0  0  0  0  0  0
  -24.7530  -27.6790   19.4840 C   0  0  0  0  0  3  0  0  0  0  0  0
  -23.5300  -29.8280   20.1710 C   0  0  0  0  0  2  0  0  0  0  0  0
  -24.6180  -31.0800   22.0820 N   0  0  0  0  0  0  0  0  0  0  0  0
  -23.4970  -32.1550   23.7430 O   0  0  0  0  0  0  0  0  0  0  0  0
  -22.6970  -29.4740   22.5260 C   0  0  0  0  0  0  0  0  0  0  0  0
  -21.3690  -29.2900   22.4270 N   0  0  0  0  0  0  0  0  0  0  0  0
  -23.3930  -28.8510   23.3320 O   0  0  0  0  0  0  0  0  0  0  0  0
  -20.8660  -29.8520   21.7530 H   0  0  0  0  0  0  0  0  0  0  0  0
  -18.0150  -28.0500   22.9730 C   0  0  0  0  0  0  0  0  0  0  0  0
  -20.5720  -28.3440   23.2110 C   0  0  0  0  0  3  0  0  0  0  0  0
  -20.6890  -26.9110   22.6440 C   0  0  0  0  0  2  0  0  0  0  0  0
  -19.5820  -26.5680   21.6420 C   0  0  0  0  0  2  0  0  0  0  0  0
  -18.2040  -26.7000   22.2990 C   0  0  0  0  0  2  0  0  0  0  0  0
  -19.1280  -28.8270   23.3880 C   0  0  0  0  0  0  0  0  0  0  0  0
  -18.9030  -30.0880   23.9790 C   0  0  0  0  0  3  0  0  0  0  0  0
  -17.5940  -30.5740   24.1590 C   0  0  0  0  0  3  0  0  0  0  0  0
  -16.4950  -29.7960   23.7560 C   0  0  0  0  0  3  0  0  0  0  0  0
  -16.7050  -28.5340   23.1690 C   0  0  0  0  0  3  0  0  0  0  0  0
  -25.8630  -32.5220   23.7870 C   0  0  0  0  0  3  0  0  0  0  0  0
  -25.5510  -33.9140   24.1410 N   0  0  0  0  0  0  0  0  0  0  0  0
  -25.8600  -34.9820   23.3900 C   0  0  0  0  0  0  0  0  0  0  0  0
  -26.5050  -34.8960   22.3420 O   0  0  0  0  0  0  0  0  0  0  0  0
  -24.9760  -34.0510   24.9580 H   0  0  0  0  0  0  0  0  0  0  0  0
  -24.1100  -36.7690   23.1110 C   0  0  0  0  0  1  0  0  0  0  0  0
  -25.3750  -36.3590   23.8820 C   0  0  0  0  0  3  0  0  0  0  0  0
  -27.5250  -37.2480   24.6670 C   0  0  0  0  0  1  0  0  0  0  0  0
  -26.3960  -37.4220   23.7590 N   0  0  0  0  0  0  0  0  0  0  0  0
  -25.9860  -38.3340   23.9360 H   0  0  0  0  0  0  0  0  0  0  0  0
  -26.4130  -31.7440   25.0460 C   0  0  1  0  0  0  0  0  0  0  0  0
  -25.3500  -31.4950   26.1380 C   0  0  0  0  0  1  0  0  0  0  0  0
  -26.9950  -30.3750   24.6260 C   0  0  0  0  0  1  0  0  0  0  0  0
  -27.5730  -32.5390   25.6880 C   0  0  0  0  0  1  0  0  0  0  0  0
  1 54  1  0
  1  3  1  0
  2  7  2  0
  2  3  1  0
  3  4  2  0
  4  5  1  0
  4  8  1  0
  5  9  1  0
  6 10  1  0
  6  5  2  0
  7  6  1  0
 11 19  1  0
 12 17  1  0
 13 14  1  0
 13 12  1  0
 15 14  1  0
 15 24  1  0
 15 16  1  0
 17 11  1  0
 17 16  1  0
 18 11  2  0
 19  7  1  0
 20 19  1  0
 21 22  2  0
 22 41  1  0
 23 22  1  0
 23 26  1  0
 24 25  1  0
 24 21  1  0
 25 23  2  0
 26 27  1  0
 27 28  2  0
 29 32  1  0
 29 28  1  0
 30 29  2  0
 31 30  1  0
 31 26  2  0
 32 33  1  0
 33 34  1  0
 34 35  2  0
 36 35  1  0
 36 40  1  0
 37 36  2  0
 38 33  2  0
 38 37  1  0
 39 38  1  0
 41 42  1  0
 42 45  1  0
 42 44  1  0
 43 41  2  0
 46 21  1  0
 46 47  1  0
 48 46  1  0
 49 54  1  0
 50 49  2  0
 51 49  1  0
 51 53  1  0
 53 56  1  0
 53 52  1  0
 54 52  1  0
 54 55  1  1
 57 68  2  0
 58 56  1  0
 58 63  1  0
 59 67  1  0
 59 69  1  0
 60 66  1  0
 60 62  1  0
 61 67  1  0
 62 61  1  0
 63 62  2  0
 64 65  1  0
 64 58  2  0
 65 60  2  0
 66 59  1  0
 67 57  1  0
 69 71  2  0
 70 69  1  0
 72 70  1  0
 73 82  2  0
 73 78  1  0
 74 70  1  0
 74 78  1  0
 75 74  1  0
 76 77  1  0
 76 75  1  0
 77 73  1  0
 78 79  2  0
 79 80  1  0
 81 80  2  0
 82 81  1  0
 83 57  1  0
 83 84  1  0
 83 93  1  0
 84 87  1  0
 85 89  1  0
 85 84  1  0
 86 85  2  0
 89 88  1  0
 91 89  1  0
 91 92  1  0
 91 90  1  0
 93 96  1  1
 93 94  1  0
 95 93  1  0
M  ISO  4  11 100  19 100  53 101  56 101
M  END
>  <TORSDO>  (22) 
F 18

>  <SCORE>  (22) 
-12.766

>  <name>  (22) 
21

>  <ligand_id>  (22) 
21

>  <original_smiles>  (22) 
[H]C([H])=C1C([H])([H])C([H])(Oc2c([H])c([H])c3c(c2[H])C([H])([H])N(C(=O)C([H])(N([H])C(=O)C([H])(N([H])C([H])([H])[H])C([H])([H])[H])C(C([H])([H])[H])(C([H])([H])[H])C([H])([H])[H])C([H])(C(=O)N([H])C2([H])c4c([H])c([H])c([H])c([H])c4C([H])([H])C([H])([H])C2([H])[H])C3([H])[H])C([H])([H])[N+]1([H])C([H])([H])c1c([H])c(N([H])C(=O)N2C([H])([H])C([H])([H])C([H])([H])C([H])(n3nc(-c4c([H])c([H])c(Oc5c([H])c([H])c(F)c([H])c5F)c([H])c4[H])c(C(=O)N([H])[H])c3N([H])[H])C2([H])[H])c(C([H])([H])[H])c(C([H])([H])[H])c1C([H])([H])[H]

>  <smiles>  (22) 
[H]C([H])=C1C([H])([H])C([H])(Oc2c([H])c([H])c3c(c2[H])C([H])([H])N(C(=O)C([H])(N([H])C(=O)C([H])(N([H])C([H])([H])[H])C([H])([H])[H])C(C([H])([H])[H])(C([H])([H])[H])C([H])([H])[H])C([H])(C(=O)N([H])C2([H])c4c([H])c([H])c([H])c([H])c4C([H])([H])C([H])([H])C2([H])[H])C3([H])[H])C([H])([H])[N+]1([H])C([H])([H])c1c([H])c(N([H])C(=O)N2C([H])([H])C([H])([H])C([H])([H])C([H])(n3nc(-c4c([H])c([H])c(Oc5c([H])c([H])c(F)c([H])c5F)c([H])c4[H])c(C(=O)N([H])[H])c3N([H])[H])C2([H])[H])c(C([H])([H])[H])c(C([H])([H])[H])c1C([H])([H])[H]

$$$$
22:0:0
     RDKit          3D

 96105  0  0  1  0  0  0  0  0999 V2000
  -30.5520  -18.2900   21.6870 C   0  0  0  0  0  3  0  0  0  0  0  0
  -29.8620  -18.2520   20.4620 C   0  0  0  0  0  0  0  0  0  0  0  0
  -29.4820  -19.4960   19.8500 C   0  0  0  0  0  0  0  0  0  0  0  0
  -29.8820  -20.7530   20.4210 C   0  0  0  0  0  0  0  0  0  0  0  0
  -30.6610  -20.7370   21.6170 C   0  0  0  0  0  0  0  0  0  0  0  0
  -30.9420  -19.5080   22.2610 C   0  0  0  0  0  0  0  0  0  0  0  0
  -28.6600  -19.4910   18.5570 C   0  0  0  0  0  1  0  0  0  0  0  0
  -31.2500  -22.0070   22.2320 C   0  0  0  0  0  1  0  0  0  0  0  0
  -31.7840  -19.4670   23.7710 Cl  0  0  0  0  0  0  0  0  0  0  0  0
  -29.5780  -16.8810   19.8040 C   0  0  0  0  0  2  0  0  0  0  0  0
  -30.5870  -14.6050   20.2170 C   0  0  0  0  0  0  0  0  0  0  0  0
  -30.3610  -12.3510   19.2370 C   0  0  0  0  0  2  0  0  0  0  0  0
  -29.3910  -12.4660   18.0380 C   0  0  0  0  0  2  0  0  0  0  0  0
  -27.9240  -12.3390   18.4970 C   0  0  0  0  0  2  0  0  0  0  0  0
  -27.5960  -13.2290   19.7270 C   0  0  0  0  0  3  0  0  0  0  0  0
  -28.6760  -13.0790   20.8250 C   0  0  0  0  0  2  0  0  0  0  0  0
  -29.9840  -13.3810   20.2190 N   0  0  0  0  0  0  0  0  0  0  0  0
  -31.6980  -14.7980   19.7180 O   0  0  0  0  0  0  0  0  0  0  0  0
  -29.7760  -15.6280   20.5720 N   0  0  0  0  0  0  0  0  0  0  0  0
  -28.9580  -15.3320   21.0810 H   0  0  0  0  0  0  0  0  0  0  0  0
  -25.2310  -13.8430   20.5350 C   0  0  0  0  0  0  0  0  0  0  0  0
  -24.1680  -13.0730   20.9220 C   0  0  0  0  0  0  0  0  0  0  0  0
  -24.6130  -11.7180   20.8430 C   0  0  0  0  0  0  0  0  0  0  0  0
  -26.2570  -12.9570   20.2460 N   0  0  0  0  0  0  0  0  0  0  0  0
  -25.8910  -11.6730   20.4880 N   0  0  0  0  0  0  0  0  0  0  0  0
  -23.8810  -10.4590   21.0270 C   0  0  0  0  0  0  0  0  0  0  0  0
  -24.3110   -9.4830   21.9540 C   0  0  0  0  0  3  0  0  0  0  0  0
  -23.5790   -8.2890   22.1280 C   0  0  0  0  0  3  0  0  0  0  0  0
  -22.4000   -8.0650   21.3780 C   0  0  0  0  0  0  0  0  0  0  0  0
  -21.9890   -9.0290   20.4410 C   0  0  0  0  0  3  0  0  0  0  0  0
  -22.7230  -10.2140   20.2630 C   0  0  0  0  0  3  0  0  0  0  0  0
  -21.6380   -6.9240   21.4600 O   0  0  0  0  0  0  0  0  0  0  0  0
  -21.5610   -6.1930   22.6170 C   0  0  0  0  0  0  0  0  0  0  0  0
  -21.0370   -6.7370   23.8100 C   0  0  0  0  0  3  0  0  0  0  0  0
  -20.9120   -5.9290   24.9570 C   0  0  0  0  0  3  0  0  0  0  0  0
  -21.3010   -4.5760   24.9120 C   0  0  0  0  0  0  0  0  0  0  0  0
  -21.8170   -4.0310   23.7250 C   0  0  0  0  0  3  0  0  0  0  0  0
  -21.9440   -4.8370   22.5800 C   0  0  0  0  0  0  0  0  0  0  0  0
  -22.4220   -4.3000   21.4310 F   0  0  0  0  0  0  0  0  0  0  0  0
  -21.1750   -3.7980   26.0140 F   0  0  0  0  0  0  0  0  0  0  0  0
  -22.7850  -13.5590   21.2530 C   0  0  0  0  0  0  0  0  0  0  0  0
  -22.0830  -12.8570   22.1350 N   0  0  0  0  0  0  0  0  0  0  0  0
  -22.3370  -14.5950   20.7640 O   0  0  0  0  0  0  0  0  0  0  0  0
  -22.4600  -12.0230   22.5570 H   0  0  0  0  0  0  0  0  0  0  0  0
  -21.1550  -13.1630   22.3950 H   0  0  0  0  0  0  0  0  0  0  0  0
  -25.4010  -15.2160   20.3830 N   0  0  0  0  0  0  0  0  0  0  0  0
  -24.6400  -15.8740   20.5200 H   0  0  0  0  0  0  0  0  0  0  0  0
  -26.2290  -15.6520   20.0020 H   0  0  0  0  0  0  0  0  0  0  0  0
  -29.5840  -22.1120   19.7170 C   0  0  0  0  0  2  0  0  0  0  0  0
  -26.7820  -24.3080   19.9530 C   0  0  0  0  0  2  0  0  0  0  0  0
  -27.3410  -22.9750   20.4720 C   0  0  0  0  0  2  0  0  0  0  0  0
  -29.1120  -24.5550   20.2000 C   0  0  0  0  0  2  0  0  0  0  0  0
  -27.8070  -25.3650   20.3930 C   0  0  0  0  0  3  0  0  0  0  0  0
  -28.8130  -23.1200   20.5170 N   0  0  2  0  0  4  0  0  0  0  0  0
  -29.0740  -22.9700   21.4820 H   0  0  0  0  0  0  0  0  0  0  0  0
  -27.8220  -26.6550   19.7080 O   0  0  0  0  0  0  0  0  0  0  0  0
  -24.4580  -31.9430   23.2000 C   0  0  0  0  0  0  0  0  0  0  0  0
  -26.7080  -27.4740   19.8300 C   0  0  0  0  0  0  0  0  0  0  0  0
  -23.1030  -30.6630   21.5800 C   0  0  0  0  0  3  0  0  0  0  0  0
  -24.4040  -29.1240   20.0200 C   0  0  0  0  0  0  0  0  0  0  0  0
  -25.6320  -30.9100   21.2550 C   0  0  0  0  0  2  0  0  0  0  0  0
  -25.6200  -29.5590   20.5620 C   0  0  0  0  0  0  0  0  0  0  0  0
  -26.7780  -28.7450   20.4580 C   0  0  0  0  0  3  0  0  0  0  0  0
  -25.4760  -27.0830   19.2620 C   0  0  0  0  0  3  0  0  0  0  0  0
  -24.3280  -27.8860   19.3680 C   0  0  0  0  0  3  0  0  0  0  0  0
  -23.2090  -30.0410   20.1630 C   0  0  0  0  0  2  0  0  0  0  0  0
  -24.4200  -31.1840   22.0690 N   0  0  0  0  0  0  0  0  0  0  0  0
  -23.4200  -32.2400   23.8080 O   0  0  0  0  0  0  0  0  0  0  0  0
  -22.4580  -29.6290   22.5320 C   0  0  0  0  0  0  0  0  0  0  0  0
  -21.1280  -29.4710   22.4370 N   0  0  0  0  0  0  0  0  0  0  0  0
  -23.1520  -28.9740   23.3130 O   0  0  0  0  0  0  0  0  0  0  0  0
  -20.6310  -30.0490   21.7740 H   0  0  0  0  0  0  0  0  0  0  0  0
  -17.7530  -28.2880   22.9600 C   0  0  0  0  0  0  0  0  0  0  0  0
  -20.3140  -28.5340   23.2100 C   0  0  0  0  0  3  0  0  0  0  0  0
  -20.4060  -27.1050   22.6260 C   0  0  0  0  0  2  0  0  0  0  0  0
  -19.2940  -26.7920   21.6200 C   0  0  0  0  0  2  0  0  0  0  0  0
  -17.9180  -26.9410   22.2760 C   0  0  0  0  0  2  0  0  0  0  0  0
  -18.8790  -29.0430   23.3850 C   0  0  0  0  0  0  0  0  0  0  0  0
  -18.6700  -30.3050   23.9840 C   0  0  0  0  0  3  0  0  0  0  0  0
  -17.3690  -30.8100   24.1630 C   0  0  0  0  0  3  0  0  0  0  0  0
  -16.2590  -30.0520   23.7550 C   0  0  0  0  0  3  0  0  0  0  0  0
  -16.4520  -28.7920   23.1600 C   0  0  0  0  0  3  0  0  0  0  0  0
  -25.8020  -32.4930   23.7680 C   0  0  0  0  0  3  0  0  0  0  0  0
  -26.3330  -31.6770   25.0090 C   0  0  1  0  0  0  0  0  0  0  0  0
  -25.2770  -31.4840   26.1220 C   0  0  0  0  0  1  0  0  0  0  0  0
  -26.8220  -30.2760   24.5740 C   0  0  0  0  0  1  0  0  0  0  0  0
  -27.5520  -32.4000   25.6270 C   0  0  0  0  0  1  0  0  0  0  0  0
  -25.5860  -33.9030   24.1240 N   0  0  0  0  0  0  0  0  0  0  0  0
  -25.9620  -34.9430   23.3690 C   0  0  0  0  0  0  0  0  0  0  0  0
  -26.5980  -34.8150   22.3200 O   0  0  0  0  0  0  0  0  0  0  0  0
  -25.0210  -34.0820   24.9410 H   0  0  0  0  0  0  0  0  0  0  0  0
  -24.3650  -36.8580   23.0470 C   0  0  0  0  0  1  0  0  0  0  0  0
  -25.5690  -36.3510   23.8560 C   0  0  0  0  0  3  0  0  0  0  0  0
  -27.7460  -37.0730   24.7320 C   0  0  0  0  0  1  0  0  0  0  0  0
  -26.6730  -37.3320   23.7750 N   0  0  0  0  0  0  0  0  0  0  0  0
  -26.3290  -38.2760   23.9330 H   0  0  0  0  0  0  0  0  0  0  0  0
  1  6  1  0
  2  1  2  0
  3  4  2  0
  3  2  1  0
  4  5  1  0
  5  8  1  0
  5  6  2  0
  6  9  1  0
  7  3  1  0
 10  2  1  0
 10 19  1  0
 11 17  1  0
 11 19  1  0
 12 17  1  0
 13 14  1  0
 13 12  1  0
 15 14  1  0
 15 24  1  0
 15 16  1  0
 17 16  1  0
 18 11  2  0
 19 20  1  0
 21 22  2  0
 22 41  1  0
 23 22  1  0
 23 26  1  0
 24 25  1  0
 24 21  1  0
 25 23  2  0
 26 27  1  0
 27 28  2  0
 29 32  1  0
 29 28  1  0
 30 29  2  0
 31 30  1  0
 31 26  2  0
 32 33  1  0
 33 34  1  0
 34 35  2  0
 36 35  1  0
 36 40  1  0
 37 36  2  0
 38 33  2  0
 38 37  1  0
 39 38  1  0
 41 42  1  0
 42 45  1  0
 42 44  1  0
 43 41  2  0
 46 47  1  0
 46 21  1  0
 48 46  1  0
 49  4  1  0
 49 54  1  0
 50 53  1  0
 50 51  1  0
 51 54  1  0
 52 53  1  0
 52 54  1  0
 53 56  1  0
 54 55  1  1
 56 58  1  0
 57 68  2  0
 58 63  1  0
 59 67  1  0
 59 69  1  0
 60 66  1  0
 60 62  1  0
 61 67  1  0
 62 61  1  0
 63 62  2  0
 64 65  1  0
 64 58  2  0
 65 60  2  0
 66 59  1  0
 67 57  1  0
 69 71  2  0
 70 69  1  0
 72 70  1  0
 73 82  2  0
 73 78  1  0
 74 70  1  0
 74 78  1  0
 75 74  1  0
 76 77  1  0
 76 75  1  0
 77 73  1  0
 78 79  2  0
 79 80  1  0
 81 80  2  0
 82 81  1  0
 83 57  1  0
 83 88  1  0
 83 84  1  0
 84 87  1  1
 84 85  1  0
 86 84  1  0
 88 91  1  0
 89 93  1  0
 89 88  1  0
 90 89  2  0
 93 92  1  0
 95 93  1  0
 95 96  1  0
 95 94  1  0
M  ISO  4  11 100  19 100  53 101  56 101
M  END
>  <TORSDO>  (23) 
F 19

>  <SCORE>  (23) 
-13.874

>  <name>  (23) 
22

>  <ligand_id>  (23) 
22

>  <original_smiles>  (23) 
[H]c1c([H])c([H])c2c(c1[H])C([H])([H])C([H])([H])C([H])([H])C2([H])N([H])C(=O)C1([H])N(C(=O)C([H])(N([H])C(=O)C([H])(N([H])C([H])([H])[H])C([H])([H])[H])C(C([H])([H])[H])(C([H])([H])[H])C([H])([H])[H])C([H])([H])c2c([H])c(OC3([H])C([H])([H])C([H])([H])[N+]([H])(C([H])([H])c4c(C([H])([H])[H])c(Cl)c([H])c(C([H])([H])N([H])C(=O)N5C([H])([H])C([H])([H])C([H])([H])C([H])(n6nc(-c7c([H])c([H])c(Oc8c([H])c([H])c(F)c([H])c8F)c([H])c7[H])c(C(=O)N([H])[H])c6N([H])[H])C5([H])[H])c4C([H])([H])[H])C3([H])[H])c([H])c([H])c2C1([H])[H]

>  <smiles>  (23) 
[H]c1c([H])c([H])c2c(c1[H])C([H])([H])C([H])([H])C([H])([H])C2([H])N([H])C(=O)C1([H])N(C(=O)C([H])(N([H])C(=O)C([H])(N([H])C([H])([H])[H])C([H])([H])[H])C(C([H])([H])[H])(C([H])([H])[H])C([H])([H])[H])C([H])([H])c2c([H])c(OC3([H])C([H])([H])C([H])([H])[N+]([H])(C([H])([H])c4c(C([H])([H])[H])c(Cl)c([H])c(C([H])([H])N([H])C(=O)N5C([H])([H])C([H])([H])C([H])([H])C([H])(n6nc(-c7c([H])c([H])c(Oc8c([H])c([H])c(F)c([H])c8F)c([H])c7[H])c(C(=O)N([H])[H])c6N([H])[H])C5([H])[H])c4C([H])([H])[H])C3([H])[H])c([H])c([H])c2C1([H])[H]

$$$$
23:0:0
     RDKit          3D

 95104  0  0  1  0  0  0  0  0999 V2000
  -28.7540  -22.8090   18.8040 C   0  0  0  0  0  0  0  0  0  0  0  0
  -28.9250  -21.8720   17.8540 C   0  0  0  0  0  2  0  0  0  0  0  0
  -28.3640  -24.2970   18.6020 C   0  0  0  0  0  2  0  0  0  0  0  0
  -28.4370  -23.8090   20.9460 C   0  0  0  0  0  2  0  0  0  0  0  0
  -28.6260  -25.0160   19.9390 C   0  0  0  0  0  3  0  0  0  0  0  0
  -28.9990  -22.5610   20.2670 N   0  0  1  0  0  4  0  0  0  0  0  0
  -29.9960  -22.6300   20.4130 H   0  0  0  0  0  0  0  0  0  0  0  0
  -28.3950  -26.4960   20.1790 O   0  0  0  0  0  0  0  0  0  0  0  0
  -24.6210  -31.8710   23.2020 C   0  0  0  0  0  0  0  0  0  0  0  0
  -27.2200  -27.2760   20.1350 C   0  0  0  0  0  0  0  0  0  0  0  0
  -23.4070  -30.4710   21.5680 C   0  0  0  0  0  3  0  0  0  0  0  0
  -24.8460  -28.9060   20.1340 C   0  0  0  0  0  0  0  0  0  0  0  0
  -25.9440  -30.7830   21.3650 C   0  0  0  0  0  2  0  0  0  0  0  0
  -26.0170  -29.3970   20.7210 C   0  0  0  0  0  0  0  0  0  0  0  0
  -27.2000  -28.5970   20.7010 C   0  0  0  0  0  3  0  0  0  0  0  0
  -26.0200  -26.8340   19.5370 C   0  0  0  0  0  3  0  0  0  0  0  0
  -24.8530  -27.6340   19.5330 C   0  0  0  0  0  3  0  0  0  0  0  0
  -23.6110  -29.7890   20.1870 C   0  0  0  0  0  2  0  0  0  0  0  0
  -24.6770  -31.0630   22.1000 N   0  0  0  0  0  0  0  0  0  0  0  0
  -23.5420  -32.1480   23.7450 O   0  0  0  0  0  0  0  0  0  0  0  0
  -22.7510  -29.4600   22.5370 C   0  0  0  0  0  0  0  0  0  0  0  0
  -21.4230  -29.2790   22.4180 N   0  0  0  0  0  0  0  0  0  0  0  0
  -23.4350  -28.8390   23.3560 O   0  0  0  0  0  0  0  0  0  0  0  0
  -20.9270  -29.8330   21.7350 H   0  0  0  0  0  0  0  0  0  0  0  0
  -18.0510  -28.0710   22.9290 C   0  0  0  0  0  0  0  0  0  0  0  0
  -20.6090  -28.3400   23.1940 C   0  0  0  0  0  3  0  0  0  0  0  0
  -20.7150  -26.9070   22.6180 C   0  0  0  0  0  2  0  0  0  0  0  0
  -19.6110  -26.5810   21.6080 C   0  0  0  0  0  2  0  0  0  0  0  0
  -18.2320  -26.7210   22.2540 C   0  0  0  0  0  2  0  0  0  0  0  0
  -19.1680  -28.8380   23.3550 C   0  0  0  0  0  0  0  0  0  0  0  0
  -18.9430  -30.1020   23.9440 C   0  0  0  0  0  3  0  0  0  0  0  0
  -17.6360  -30.5970   24.1130 C   0  0  0  0  0  3  0  0  0  0  0  0
  -16.5350  -29.8270   23.7030 C   0  0  0  0  0  3  0  0  0  0  0  0
  -16.7420  -28.5660   23.1170 C   0  0  0  0  0  3  0  0  0  0  0  0
  -25.9090  -32.5060   23.8180 C   0  0  0  0  0  3  0  0  0  0  0  0
  -25.6000  -33.9050   24.1590 N   0  0  0  0  0  0  0  0  0  0  0  0
  -25.9210  -34.9620   23.4040 C   0  0  0  0  0  0  0  0  0  0  0  0
  -26.5770  -34.8670   22.3640 O   0  0  0  0  0  0  0  0  0  0  0  0
  -25.0240  -34.0540   24.9740 H   0  0  0  0  0  0  0  0  0  0  0  0
  -24.1850  -36.7540   23.0770 C   0  0  0  0  0  1  0  0  0  0  0  0
  -25.4340  -36.3470   23.8750 C   0  0  0  0  0  3  0  0  0  0  0  0
  -27.5720  -37.2310   24.6980 C   0  0  0  0  0  1  0  0  0  0  0  0
  -26.4640  -37.4050   23.7620 N   0  0  0  0  0  0  0  0  0  0  0  0
  -26.0570  -38.3230   23.9200 H   0  0  0  0  0  0  0  0  0  0  0  0
  -26.4350  -31.7320   25.0910 C   0  0  1  0  0  0  0  0  0  0  0  0
  -25.3520  -31.4930   26.1660 C   0  0  0  0  0  1  0  0  0  0  0  0
  -27.0160  -30.3560   24.6930 C   0  0  0  0  0  1  0  0  0  0  0  0
  -27.5900  -32.5250   25.7490 C   0  0  0  0  0  1  0  0  0  0  0  0
  -28.6860  -21.1590   20.8560 C   0  0  0  0  0  2  0  0  0  0  0  0
  -29.3100  -18.5210   20.6210 C   0  0  0  0  0  3  0  0  0  0  0  0
  -31.5820  -17.7220   20.8200 C   0  0  0  0  0  3  0  0  0  0  0  0
  -29.7180  -19.9220   20.7700 C   0  0  0  0  0  0  0  0  0  0  0  0
  -31.1120  -20.1410   20.9790 C   0  0  0  0  0  0  0  0  0  0  0  0
  -30.2230  -17.3800   20.6460 C   0  0  0  0  0  0  0  0  0  0  0  0
  -32.0200  -19.0490   20.9720 C   0  0  0  0  0  0  0  0  0  0  0  0
  -31.6530  -21.5430   21.2520 C   0  0  0  0  0  1  0  0  0  0  0  0
  -33.7250  -19.2830   21.1740 Cl  0  0  0  0  0  0  0  0  0  0  0  0
  -30.5920  -14.7820   20.3140 C   0  0  0  0  0  0  0  0  0  0  0  0
  -30.3670  -12.5000   19.3000 C   0  0  0  0  0  2  0  0  0  0  0  0
  -29.4270  -12.5620   18.0750 C   0  0  0  0  0  2  0  0  0  0  0  0
  -27.9590  -12.3910   18.5110 C   0  0  0  0  0  2  0  0  0  0  0  0
  -27.5940  -13.2880   19.7280 C   0  0  0  0  0  3  0  0  0  0  0  0
  -28.6580  -13.2110   20.8440 C   0  0  0  0  0  2  0  0  0  0  0  0
  -29.9470  -13.5640   20.2410 N   0  0  0  0  0  0  0  0  0  0  0  0
  -31.7750  -14.8430   19.9670 O   0  0  0  0  0  0  0  0  0  0  0  0
  -29.8360  -15.9340   20.5570 N   0  0  0  0  0  0  0  0  0  0  0  0
  -28.8540  -15.7480   20.6790 H   0  0  0  0  0  0  0  0  0  0  0  0
  -25.2210  -13.8900   20.4900 C   0  0  0  0  0  0  0  0  0  0  0  0
  -24.1540  -13.1190   20.8620 C   0  0  0  0  0  0  0  0  0  0  0  0
  -24.6100  -11.7650   20.8210 C   0  0  0  0  0  0  0  0  0  0  0  0
  -26.2550  -13.0050   20.2320 N   0  0  0  0  0  0  0  0  0  0  0  0
  -25.8960  -11.7230   20.4970 N   0  0  0  0  0  0  0  0  0  0  0  0
  -23.8790  -10.5050   21.0110 C   0  0  0  0  0  0  0  0  0  0  0  0
  -24.3090   -9.5360   21.9460 C   0  0  0  0  0  3  0  0  0  0  0  0
  -23.5780   -8.3420   22.1250 C   0  0  0  0  0  3  0  0  0  0  0  0
  -22.4050   -8.1070   21.3700 C   0  0  0  0  0  0  0  0  0  0  0  0
  -21.9940   -9.0630   20.4250 C   0  0  0  0  0  3  0  0  0  0  0  0
  -22.7240  -10.2500   20.2430 C   0  0  0  0  0  3  0  0  0  0  0  0
  -21.6450   -6.9670   21.4600 O   0  0  0  0  0  0  0  0  0  0  0  0
  -21.5840   -6.2310   22.6170 C   0  0  0  0  0  0  0  0  0  0  0  0
  -21.1410   -6.7930   23.8340 C   0  0  0  0  0  3  0  0  0  0  0  0
  -21.0260   -5.9840   24.9810 C   0  0  0  0  0  3  0  0  0  0  0  0
  -21.3440   -4.6140   24.9130 C   0  0  0  0  0  0  0  0  0  0  0  0
  -21.7800   -4.0520   23.7000 C   0  0  0  0  0  3  0  0  0  0  0  0
  -21.8970   -4.8590   22.5550 C   0  0  0  0  0  0  0  0  0  0  0  0
  -22.2990   -4.3090   21.3840 F   0  0  0  0  0  0  0  0  0  0  0  0
  -21.2250   -3.8340   26.0130 F   0  0  0  0  0  0  0  0  0  0  0  0
  -22.7620  -13.6030   21.1460 C   0  0  0  0  0  0  0  0  0  0  0  0
  -22.0340  -12.9050   22.0100 N   0  0  0  0  0  0  0  0  0  0  0  0
  -22.3270  -14.6340   20.6340 O   0  0  0  0  0  0  0  0  0  0  0  0
  -22.3950  -12.0730   22.4510 H   0  0  0  0  0  0  0  0  0  0  0  0
  -21.1000  -13.2130   22.2370 H   0  0  0  0  0  0  0  0  0  0  0  0
  -25.3930  -15.2620   20.3300 N   0  0  0  0  0  0  0  0  0  0  0  0
  -24.6380  -15.9230   20.4790 H   0  0  0  0  0  0  0  0  0  0  0  0
  -26.2480  -15.7060   20.0260 H   0  0  0  0  0  0  0  0  0  0  0  0
  1  6  1  0
  2  1  2  0
  3  1  1  0
  3  5  1  0
  5  8  1  0
  5  4  1  0
  6  7  1  6
  6 49  1  0
  6  4  1  0
  9 20  2  0
 10  8  1  0
 10 15  1  0
 11 19  1  0
 11 21  1  0
 12 18  1  0
 12 14  1  0
 13 19  1  0
 14 13  1  0
 15 14  2  0
 16 10  2  0
 17 16  1  0
 17 12  2  0
 18 11  1  0
 19  9  1  0
 21 23  2  0
 22 21  1  0
 24 22  1  0
 25 34  2  0
 25 30  1  0
 26 22  1  0
 26 30  1  0
 27 26  1  0
 28 29  1  0
 28 27  1  0
 29 25  1  0
 30 31  2  0
 31 32  1  0
 33 32  2  0
 34 33  1  0
 35  9  1  0
 35 36  1  0
 35 45  1  0
 36 39  1  0
 37 41  1  0
 37 36  1  0
 38 37  2  0
 41 40  1  0
 43 41  1  0
 43 44  1  0
 43 42  1  0
 45 48  1  1
 45 46  1  0
 47 45  1  0
 50 54  2  0
 50 52  1  0
 51 55  2  0
 52 49  1  0
 52 53  2  0
 53 56  1  0
 54 51  1  0
 55 53  1  0
 55 57  1  0
 58 66  1  0
 59 64  1  0
 60 61  1  0
 60 59  1  0
 62 61  1  0
 62 71  1  0
 62 63  1  0
 64 58  1  0
 64 63  1  0
 65 58  2  0
 66 54  1  0
 66 67  1  0
 68 69  2  0
 69 88  1  0
 70 69  1  0
 70 73  1  0
 71 68  1  0
 71 72  1  0
 72 70  2  0
 73 74  1  0
 74 75  2  0
 76 79  1  0
 76 75  1  0
 77 76  2  0
 78 77  1  0
 78 73  2  0
 79 80  1  0
 80 81  1  0
 81 82  2  0
 83 82  1  0
 83 87  1  0
 84 83  2  0
 85 80  2  0
 85 84  1  0
 86 85  1  0
 88 89  1  0
 89 92  1  0
 89 91  1  0
 90 88  2  0
 93 94  1  0
 93 68  1  0
 95 93  1  0
M  ISO  4   5 101   8 101  58 100  66 100
M  END
>  <TORSDO>  (24) 
F 18

>  <SCORE>  (24) 
-15.149

>  <name>  (24) 
23

>  <ligand_id>  (24) 
23

>  <original_smiles>  (24) 
[H]C([H])=C1C([H])([H])C([H])(Oc2c([H])c([H])c3c(c2[H])C([H])([H])N(C(=O)C([H])(N([H])C(=O)C([H])(N([H])C([H])([H])[H])C([H])([H])[H])C(C([H])([H])[H])(C([H])([H])[H])C([H])([H])[H])C([H])(C(=O)N([H])C2([H])c4c([H])c([H])c([H])c([H])c4C([H])([H])C([H])([H])C2([H])[H])C3([H])[H])C([H])([H])[N+]1([H])C([H])([H])c1c([H])c(N([H])C(=O)N2C([H])([H])C([H])([H])C([H])([H])C([H])(n3nc(-c4c([H])c([H])c(Oc5c([H])c([H])c(F)c([H])c5F)c([H])c4[H])c(C(=O)N([H])[H])c3N([H])[H])C2([H])[H])c([H])c(Cl)c1C([H])([H])[H]

>  <smiles>  (24) 
[H]C([H])=C1C([H])([H])C([H])(Oc2c([H])c([H])c3c(c2[H])C([H])([H])N(C(=O)C([H])(N([H])C(=O)C([H])(N([H])C([H])([H])[H])C([H])([H])[H])C(C([H])([H])[H])(C([H])([H])[H])C([H])([H])[H])C([H])(C(=O)N([H])C2([H])c4c([H])c([H])c([H])c([H])c4C([H])([H])C([H])([H])C2([H])[H])C3([H])[H])C([H])([H])[N+]1([H])C([H])([H])c1c([H])c(N([H])C(=O)N2C([H])([H])C([H])([H])C([H])([H])C([H])(n3nc(-c4c([H])c([H])c(Oc5c([H])c([H])c(F)c([H])c5F)c([H])c4[H])c(C(=O)N([H])[H])c3N([H])[H])C2([H])[H])c([H])c(Cl)c1C([H])([H])[H]

$$$$
24:0:0
     RDKit          3D

 96105  0  0  1  0  0  0  0  0999 V2000
  -27.9150  -22.1330   20.7170 C   0  0  0  0  0  2  0  0  0  0  0  0
  -29.8810  -18.9120   21.3830 C   0  0  0  0  0  3  0  0  0  0  0  0
  -29.1540  -20.1020   21.5640 C   0  0  0  0  0  3  0  0  0  0  0  0
  -29.9980  -18.3180   20.1080 C   0  0  0  0  0  0  0  0  0  0  0  0
  -28.5500  -20.7560   20.4690 C   0  0  0  0  0  0  0  0  0  0  0  0
  -29.2880  -18.8960   19.0170 C   0  0  0  0  0  0  0  0  0  0  0  0
  -28.5870  -20.1290   19.1910 C   0  0  0  0  0  0  0  0  0  0  0  0
  -29.2720  -18.2110   17.6510 C   0  0  0  0  0  1  0  0  0  0  0  0
  -27.9150  -20.7800   17.9780 C   0  0  0  0  0  1  0  0  0  0  0  0
  -31.0100  -17.1710   19.9520 C   0  0  0  0  0  2  0  0  0  0  0  0
  -31.1940  -14.7050   19.6380 C   0  0  0  0  0  0  0  0  0  0  0  0
  -30.9370  -12.3550   18.9360 C   0  0  0  0  0  2  0  0  0  0  0  0
  -29.9490  -12.2940   17.7540 C   0  0  0  0  0  2  0  0  0  0  0  0
  -28.4960  -12.1930   18.2610 C   0  0  0  0  0  2  0  0  0  0  0  0
  -28.1700  -13.2410   19.3610 C   0  0  0  0  0  3  0  0  0  0  0  0
  -29.2740  -13.2800   20.4400 C   0  0  0  0  0  2  0  0  0  0  0  0
  -30.5580  -13.5100   19.7640 N   0  0  0  0  0  0  0  0  0  0  0  0
  -32.3010  -14.8160   19.1030 O   0  0  0  0  0  0  0  0  0  0  0  0
  -30.4940  -15.7960   20.0090 N   0  0  0  0  0  0  0  0  0  0  0  0
  -29.5800  -15.6550   20.4130 H   0  0  0  0  0  0  0  0  0  0  0  0
  -25.8800  -13.9360   20.3050 C   0  0  0  0  0  0  0  0  0  0  0  0
  -24.8050  -13.2020   20.7310 C   0  0  0  0  0  0  0  0  0  0  0  0
  -25.1840  -11.8310   20.5960 C   0  0  0  0  0  0  0  0  0  0  0  0
  -26.8490  -13.0140   19.9450 N   0  0  0  0  0  0  0  0  0  0  0  0
  -26.4400  -11.7400   20.1750 N   0  0  0  0  0  0  0  0  0  0  0  0
  -24.4050  -10.6010   20.7900 C   0  0  0  0  0  0  0  0  0  0  0  0
  -24.7650   -9.6420   21.7610 C   0  0  0  0  0  3  0  0  0  0  0  0
  -23.9880   -8.4760   21.9380 C   0  0  0  0  0  3  0  0  0  0  0  0
  -22.8390   -8.2610   21.1390 C   0  0  0  0  0  0  0  0  0  0  0  0
  -22.5000   -9.2080   20.1570 C   0  0  0  0  0  3  0  0  0  0  0  0
  -23.2760  -10.3660   19.9790 C   0  0  0  0  0  3  0  0  0  0  0  0
  -22.0380   -7.1460   21.2230 O   0  0  0  0  0  0  0  0  0  0  0  0
  -21.7840   -6.5320   22.4220 C   0  0  0  0  0  0  0  0  0  0  0  0
  -21.1620   -7.2150   23.4910 C   0  0  0  0  0  3  0  0  0  0  0  0
  -20.8530   -6.5260   24.6810 C   0  0  0  0  0  3  0  0  0  0  0  0
  -21.1600   -5.1580   24.8030 C   0  0  0  0  0  0  0  0  0  0  0  0
  -21.7740   -4.4760   23.7390 C   0  0  0  0  0  3  0  0  0  0  0  0
  -22.0840   -5.1610   22.5510 C   0  0  0  0  0  0  0  0  0  0  0  0
  -22.6580   -4.4950   21.5180 F   0  0  0  0  0  0  0  0  0  0  0  0
  -20.8580   -4.4930   25.9440 F   0  0  0  0  0  0  0  0  0  0  0  0
  -23.4650  -13.7380   21.1460 C   0  0  0  0  0  0  0  0  0  0  0  0
  -22.7780  -13.0440   22.0450 N   0  0  0  0  0  0  0  0  0  0  0  0
  -23.0430  -14.8080   20.7090 O   0  0  0  0  0  0  0  0  0  0  0  0
  -23.1340  -12.1740   22.4170 H   0  0  0  0  0  0  0  0  0  0  0  0
  -21.8860  -13.3870   22.3700 H   0  0  0  0  0  0  0  0  0  0  0  0
  -26.1090  -15.3030   20.1740 N   0  0  0  0  0  0  0  0  0  0  0  0
  -25.3870  -15.9910   20.3550 H   0  0  0  0  0  0  0  0  0  0  0  0
  -26.9520  -15.7090   19.7880 H   0  0  0  0  0  0  0  0  0  0  0  0
  -30.3980  -24.7800   21.9610 C   0  0  0  0  0  2  0  0  0  0  0  0
  -29.6530  -26.0390   21.4890 C   0  0  0  0  0  2  0  0  0  0  0  0
  -29.4790  -23.5500   22.0000 C   0  0  0  0  0  2  0  0  0  0  0  0
  -28.6240  -24.3980   19.7860 C   0  0  0  0  0  2  0  0  0  0  0  0
  -28.4560  -25.7340   20.5610 C   0  0  0  0  0  3  0  0  0  0  0  0
  -28.9430  -23.2100   20.6540 N   0  0  2  0  0  4  0  0  0  0  0  0
  -29.7090  -22.7580   20.1740 H   0  0  0  0  0  0  0  0  0  0  0  0
  -28.3470  -26.8460   19.6580 O   0  0  0  0  0  0  0  0  0  0  0  0
  -24.5040  -31.7870   23.0520 C   0  0  0  0  0  0  0  0  0  0  0  0
  -27.1670  -27.5450   19.7320 C   0  0  0  0  0  0  0  0  0  0  0  0
  -23.2830  -30.4000   21.4050 C   0  0  0  0  0  3  0  0  0  0  0  0
  -24.7310  -28.9620   19.8770 C   0  0  0  0  0  0  0  0  0  0  0  0
  -25.7860  -30.8540   21.1300 C   0  0  0  0  0  2  0  0  0  0  0  0
  -25.8920  -29.5090   20.4380 C   0  0  0  0  0  0  0  0  0  0  0  0
  -27.1160  -28.8070   20.3660 C   0  0  0  0  0  3  0  0  0  0  0  0
  -25.9940  -27.0080   19.1660 C   0  0  0  0  0  3  0  0  0  0  0  0
  -24.7740  -27.7090   19.2390 C   0  0  0  0  0  3  0  0  0  0  0  0
  -23.4620  -29.7750   19.9950 C   0  0  0  0  0  2  0  0  0  0  0  0
  -24.5430  -31.0260   21.9200 N   0  0  0  0  0  0  0  0  0  0  0  0
  -23.4370  -32.0050   23.6430 O   0  0  0  0  0  0  0  0  0  0  0  0
  -22.7040  -29.3260   22.3530 C   0  0  0  0  0  0  0  0  0  0  0  0
  -21.3840  -29.1010   22.2660 N   0  0  0  0  0  0  0  0  0  0  0  0
  -23.4360  -28.6980   23.1250 O   0  0  0  0  0  0  0  0  0  0  0  0
  -20.8540  -29.6600   21.6140 H   0  0  0  0  0  0  0  0  0  0  0  0
  -18.0760  -27.7510   22.8110 C   0  0  0  0  0  0  0  0  0  0  0  0
  -20.6270  -28.1100   23.0300 C   0  0  0  0  0  3  0  0  0  0  0  0
  -20.7760  -26.6990   22.4160 C   0  0  0  0  0  2  0  0  0  0  0  0
  -19.6640  -26.3520   21.4210 C   0  0  0  0  0  2  0  0  0  0  0  0
  -18.2910  -26.4260   22.1010 C   0  0  0  0  0  2  0  0  0  0  0  0
  -19.1720  -28.5490   23.2320 C   0  0  0  0  0  0  0  0  0  0  0  0
  -18.9190  -29.7860   23.8610 C   0  0  0  0  0  3  0  0  0  0  0  0
  -17.6000  -30.2310   24.0710 C   0  0  0  0  0  3  0  0  0  0  0  0
  -16.5180  -29.4310   23.6670 C   0  0  0  0  0  3  0  0  0  0  0  0
  -16.7560  -28.1930   23.0440 C   0  0  0  0  0  3  0  0  0  0  0  0
  -25.7920  -32.4410   23.6440 C   0  0  0  0  0  3  0  0  0  0  0  0
  -26.3890  -31.6450   24.8700 C   0  0  1  0  0  0  0  0  0  0  0  0
  -25.3490  -31.3340   25.9710 C   0  0  0  0  0  1  0  0  0  0  0  0
  -27.0040  -30.3060   24.4040 C   0  0  0  0  0  1  0  0  0  0  0  0
  -27.5370  -32.4570   25.5140 C   0  0  0  0  0  1  0  0  0  0  0  0
  -25.4530  -33.8140   24.0350 N   0  0  0  0  0  0  0  0  0  0  0  0
  -25.7360  -34.9040   23.3080 C   0  0  0  0  0  0  0  0  0  0  0  0
  -26.3800  -34.8590   22.2560 O   0  0  0  0  0  0  0  0  0  0  0  0
  -24.8780  -33.9190   24.8590 H   0  0  0  0  0  0  0  0  0  0  0  0
  -23.9550  -36.6610   23.0520 C   0  0  0  0  0  1  0  0  0  0  0  0
  -25.2180  -36.2580   23.8300 C   0  0  0  0  0  3  0  0  0  0  0  0
  -27.3340  -37.1650   24.6750 C   0  0  0  0  0  1  0  0  0  0  0  0
  -26.2210  -37.3410   23.7470 N   0  0  0  0  0  0  0  0  0  0  0  0
  -25.7940  -38.2430   23.9370 H   0  0  0  0  0  0  0  0  0  0  0  0
  2  3  1  0
  4  2  2  0
  5  1  1  0
  5  3  2  0
  6  7  2  0
  6  4  1  0
  7  5  1  0
  8  6  1  0
  9  7  1  0
 10 19  1  0
 10  4  1  0
 11 17  1  0
 11 19  1  0
 12 17  1  0
 13 14  1  0
 13 12  1  0
 15 14  1  0
 15 24  1  0
 15 16  1  0
 17 16  1  0
 18 11  2  0
 19 20  1  0
 21 22  2  0
 22 41  1  0
 23 22  1  0
 23 26  1  0
 24 25  1  0
 24 21  1  0
 25 23  2  0
 26 27  1  0
 27 28  2  0
 29 32  1  0
 29 28  1  0
 30 29  2  0
 31 30  1  0
 31 26  2  0
 32 33  1  0
 33 38  2  0
 33 34  1  0
 34 35  2  0
 35 36  1  0
 36 40  1  0
 37 36  2  0
 38 37  1  0
 39 38  1  0
 41 42  1  0
 42 45  1  0
 42 44  1  0
 43 41  2  0
 46 21  1  0
 46 47  1  0
 48 46  1  0
 49 51  1  0
 50 49  1  0
 52 53  1  0
 52 54  1  0
 53 56  1  0
 53 50  1  0
 54  1  1  0
 54 51  1  0
 54 55  1  6
 56 58  1  0
 57 68  2  0
 58 63  1  0
 59 67  1  0
 59 69  1  0
 60 66  1  0
 60 62  1  0
 61 67  1  0
 62 61  1  0
 63 62  2  0
 64 65  1  0
 64 58  2  0
 65 60  2  0
 66 59  1  0
 67 57  1  0
 69 71  2  0
 70 69  1  0
 72 70  1  0
 73 82  2  0
 73 78  1  0
 74 70  1  0
 74 78  1  0
 75 74  1  0
 76 77  1  0
 76 75  1  0
 77 73  1  0
 78 79  2  0
 79 80  1  0
 81 80  2  0
 82 81  1  0
 83 57  1  0
 83 88  1  0
 83 84  1  0
 84 87  1  1
 84 85  1  0
 86 84  1  0
 88 91  1  0
 89 93  1  0
 89 88  1  0
 90 89  2  0
 93 92  1  0
 95 93  1  0
 95 96  1  0
 95 94  1  0
M  ISO  4  11 100  19 100  53 101  56 101
M  END
>  <TORSDO>  (25) 
F 19

>  <SCORE>  (25) 
-12.899

>  <name>  (25) 
24

>  <ligand_id>  (25) 
24

>  <original_smiles>  (25) 
[H]c1c([H])c([H])c2c(c1[H])C([H])([H])C([H])([H])C([H])([H])C2([H])N([H])C(=O)C1([H])N(C(=O)C([H])(N([H])C(=O)C([H])(N([H])C([H])([H])[H])C([H])([H])[H])C(C([H])([H])[H])(C([H])([H])[H])C([H])([H])[H])C([H])([H])c2c([H])c(OC3([H])C([H])([H])C([H])([H])C([H])([H])[N+]([H])(C([H])([H])c4c([H])c([H])c(C([H])([H])N([H])C(=O)N5C([H])([H])C([H])([H])C([H])([H])C([H])(n6nc(-c7c([H])c([H])c(Oc8c([H])c([H])c(F)c([H])c8F)c([H])c7[H])c(C(=O)N([H])[H])c6N([H])[H])C5([H])[H])c(C([H])([H])[H])c4C([H])([H])[H])C3([H])[H])c([H])c([H])c2C1([H])[H]

>  <smiles>  (25) 
[H]c1c([H])c([H])c2c(c1[H])C([H])([H])C([H])([H])C([H])([H])C2([H])N([H])C(=O)C1([H])N(C(=O)C([H])(N([H])C(=O)C([H])(N([H])C([H])([H])[H])C([H])([H])[H])C(C([H])([H])[H])(C([H])([H])[H])C([H])([H])[H])C([H])([H])c2c([H])c(OC3([H])C([H])([H])C([H])([H])C([H])([H])[N+]([H])(C([H])([H])c4c([H])c([H])c(C([H])([H])N([H])C(=O)N5C([H])([H])C([H])([H])C([H])([H])C([H])(n6nc(-c7c([H])c([H])c(Oc8c([H])c([H])c(F)c([H])c8F)c([H])c7[H])c(C(=O)N([H])[H])c6N([H])[H])C5([H])[H])c(C([H])([H])[H])c4C([H])([H])[H])C3([H])[H])c([H])c([H])c2C1([H])[H]

$$$$
25:0:0
     RDKit          3D

 95104  0  0  1  0  0  0  0  0999 V2000
  -30.1170  -23.1880   19.3260 C   0  0  0  0  0  0  0  0  0  0  0  0
  -31.0950  -22.5190   18.6890 C   0  0  0  0  0  2  0  0  0  0  0  0
  -29.8550  -24.7000   19.2690 C   0  0  0  0  0  2  0  0  0  0  0  0
  -28.0480  -23.6560   20.4400 C   0  0  0  0  0  2  0  0  0  0  0  0
  -28.3900  -24.9920   19.6220 C   0  0  0  0  0  3  0  0  0  0  0  0
  -29.0940  -22.5540   20.2130 N   0  0  1  0  0  4  0  0  0  0  0  0
  -29.5270  -22.4480   21.1190 H   0  0  0  0  0  0  0  0  0  0  0  0
  -28.2940  -26.4090   20.1570 O   0  0  0  0  0  0  0  0  0  0  0  0
  -24.5290  -31.8540   23.1430 C   0  0  0  0  0  0  0  0  0  0  0  0
  -27.1620  -27.2580   20.0810 C   0  0  0  0  0  0  0  0  0  0  0  0
  -23.3390  -30.4570   21.4920 C   0  0  0  0  0  3  0  0  0  0  0  0
  -24.8000  -28.9060   20.0640 C   0  0  0  0  0  0  0  0  0  0  0  0
  -25.8820  -30.7670   21.3240 C   0  0  0  0  0  2  0  0  0  0  0  0
  -25.9660  -29.3840   20.6710 C   0  0  0  0  0  0  0  0  0  0  0  0
  -27.1460  -28.5730   20.6650 C   0  0  0  0  0  3  0  0  0  0  0  0
  -25.9660  -26.8420   19.4540 C   0  0  0  0  0  3  0  0  0  0  0  0
  -24.8030  -27.6450   19.4440 C   0  0  0  0  0  3  0  0  0  0  0  0
  -23.5670  -29.7910   20.1060 C   0  0  0  0  0  2  0  0  0  0  0  0
  -24.6020  -31.0450   22.0430 N   0  0  0  0  0  0  0  0  0  0  0  0
  -23.4390  -32.1240   23.6720 O   0  0  0  0  0  0  0  0  0  0  0  0
  -22.6720  -29.4360   22.4470 C   0  0  0  0  0  0  0  0  0  0  0  0
  -21.3420  -29.2740   22.3370 N   0  0  0  0  0  0  0  0  0  0  0  0
  -23.3540  -28.7940   23.2520 O   0  0  0  0  0  0  0  0  0  0  0  0
  -20.8470  -29.8550   21.6780 H   0  0  0  0  0  0  0  0  0  0  0  0
  -17.9610  -28.1080   22.8730 C   0  0  0  0  0  0  0  0  0  0  0  0
  -20.5250  -28.3310   23.1060 C   0  0  0  0  0  3  0  0  0  0  0  0
  -20.5990  -26.9090   22.5030 C   0  0  0  0  0  2  0  0  0  0  0  0
  -19.4760  -26.6180   21.5030 C   0  0  0  0  0  2  0  0  0  0  0  0
  -18.1070  -26.7690   22.1690 C   0  0  0  0  0  2  0  0  0  0  0  0
  -19.0950  -28.8480   23.2980 C   0  0  0  0  0  0  0  0  0  0  0  0
  -18.8980  -30.1030   23.9140 C   0  0  0  0  0  3  0  0  0  0  0  0
  -17.6010  -30.6170   24.1090 C   0  0  0  0  0  3  0  0  0  0  0  0
  -16.4810  -29.8720   23.6970 C   0  0  0  0  0  3  0  0  0  0  0  0
  -16.6640  -28.6200   23.0860 C   0  0  0  0  0  3  0  0  0  0  0  0
  -25.8010  -32.4930   23.7750 C   0  0  0  0  0  3  0  0  0  0  0  0
  -25.4800  -33.8850   24.1250 N   0  0  0  0  0  0  0  0  0  0  0  0
  -25.8070  -34.9510   23.3840 C   0  0  0  0  0  0  0  0  0  0  0  0
  -26.4820  -34.8690   22.3530 O   0  0  0  0  0  0  0  0  0  0  0  0
  -24.8870  -34.0270   24.9290 H   0  0  0  0  0  0  0  0  0  0  0  0
  -24.0720  -36.7410   23.0500 C   0  0  0  0  0  1  0  0  0  0  0  0
  -25.3110  -36.3310   23.8640 C   0  0  0  0  0  3  0  0  0  0  0  0
  -27.4350  -37.2120   24.7220 C   0  0  0  0  0  1  0  0  0  0  0  0
  -26.3380  -37.3920   23.7760 N   0  0  0  0  0  0  0  0  0  0  0  0
  -25.9240  -38.3060   23.9360 H   0  0  0  0  0  0  0  0  0  0  0  0
  -26.3240  -31.7150   25.0450 C   0  0  1  0  0  0  0  0  0  0  0  0
  -25.2350  -31.4590   26.1130 C   0  0  0  0  0  1  0  0  0  0  0  0
  -26.9150  -30.3460   24.6350 C   0  0  0  0  0  1  0  0  0  0  0  0
  -27.4660  -32.5130   25.7180 C   0  0  0  0  0  1  0  0  0  0  0  0
  -28.6550  -21.0990   19.8870 C   0  0  0  0  0  2  0  0  0  0  0  0
  -30.1810  -19.9620   21.6440 C   0  0  0  0  0  3  0  0  0  0  0  0
  -29.3900  -18.4560   19.9230 C   0  0  0  0  0  3  0  0  0  0  0  0
  -29.4540  -19.8190   20.4470 C   0  0  0  0  0  0  0  0  0  0  0  0
  -30.7820  -18.8660   22.3010 C   0  0  0  0  0  0  0  0  0  0  0  0
  -30.7000  -17.5430   21.7800 C   0  0  0  0  0  0  0  0  0  0  0  0
  -30.0120  -17.2960   20.5560 C   0  0  0  0  0  0  0  0  0  0  0  0
  -31.4500  -19.1440   23.6410 C   0  0  0  0  0  1  0  0  0  0  0  0
  -31.2870  -16.3740   22.5790 C   0  0  0  0  0  1  0  0  0  0  0  0
  -30.5920  -14.7790   19.9510 C   0  0  0  0  0  0  0  0  0  0  0  0
  -30.3330  -12.5050   18.9300 C   0  0  0  0  0  2  0  0  0  0  0  0
  -29.3110  -12.5840   17.7750 C   0  0  0  0  0  2  0  0  0  0  0  0
  -27.8700  -12.4210   18.3030 C   0  0  0  0  0  2  0  0  0  0  0  0
  -27.5860  -13.3060   19.5460 C   0  0  0  0  0  3  0  0  0  0  0  0
  -28.7170  -13.2030   20.5920 C   0  0  0  0  0  2  0  0  0  0  0  0
  -29.9660  -13.5530   19.9070 N   0  0  0  0  0  0  0  0  0  0  0  0
  -31.7690  -14.8850   19.5970 O   0  0  0  0  0  0  0  0  0  0  0  0
  -29.7720  -15.8910   20.1210 N   0  0  0  0  0  0  0  0  0  0  0  0
  -28.7960  -15.6460   20.0850 H   0  0  0  0  0  0  0  0  0  0  0  0
  -25.2650  -13.9300   20.4400 C   0  0  0  0  0  0  0  0  0  0  0  0
  -24.2080  -13.1710   20.8620 C   0  0  0  0  0  0  0  0  0  0  0  0
  -24.6390  -11.8100   20.7680 C   0  0  0  0  0  0  0  0  0  0  0  0
  -26.2720  -13.0340   20.1190 N   0  0  0  0  0  0  0  0  0  0  0  0
  -25.9050  -11.7520   20.3760 N   0  0  0  0  0  0  0  0  0  0  0  0
  -23.8960  -10.5600   20.9730 C   0  0  0  0  0  0  0  0  0  0  0  0
  -24.3430   -9.5770   21.8840 C   0  0  0  0  0  3  0  0  0  0  0  0
  -23.6010   -8.3910   22.0760 C   0  0  0  0  0  3  0  0  0  0  0  0
  -22.4000   -8.1820   21.3590 C   0  0  0  0  0  0  0  0  0  0  0  0
  -21.9710   -9.1530   20.4370 C   0  0  0  0  0  3  0  0  0  0  0  0
  -22.7120  -10.3300   20.2420 C   0  0  0  0  0  3  0  0  0  0  0  0
  -21.6270   -7.0500   21.4630 O   0  0  0  0  0  0  0  0  0  0  0  0
  -21.5800   -6.3140   22.6190 C   0  0  0  0  0  0  0  0  0  0  0  0
  -21.1790   -6.8830   23.8480 C   0  0  0  0  0  3  0  0  0  0  0  0
  -21.0790   -6.0760   24.9980 C   0  0  0  0  0  3  0  0  0  0  0  0
  -21.3690   -4.7000   24.9220 C   0  0  0  0  0  0  0  0  0  0  0  0
  -21.7630   -4.1310   23.6970 C   0  0  0  0  0  3  0  0  0  0  0  0
  -21.8660   -4.9360   22.5490 C   0  0  0  0  0  0  0  0  0  0  0  0
  -22.2260   -4.3780   21.3680 F   0  0  0  0  0  0  0  0  0  0  0  0
  -21.2660   -3.9220   26.0240 F   0  0  0  0  0  0  0  0  0  0  0  0
  -22.8430  -13.6720   21.2340 C   0  0  0  0  0  0  0  0  0  0  0  0
  -22.1570  -12.9700   22.1270 N   0  0  0  0  0  0  0  0  0  0  0  0
  -22.3980  -14.7200   20.7680 O   0  0  0  0  0  0  0  0  0  0  0  0
  -22.5310  -12.1200   22.5230 H   0  0  0  0  0  0  0  0  0  0  0  0
  -21.2450  -13.2860   22.4230 H   0  0  0  0  0  0  0  0  0  0  0  0
  -25.4410  -15.3010   20.2810 N   0  0  0  0  0  0  0  0  0  0  0  0
  -24.6750  -15.9510   20.4300 H   0  0  0  0  0  0  0  0  0  0  0  0
  -26.2480  -15.7350   19.8520 H   0  0  0  0  0  0  0  0  0  0  0  0
  1  6  1  0
  2  1  2  0
  3  1  1  0
  3  5  1  0
  5  8  1  0
  5  4  1  0
  6  4  1  0
  6  7  1  1
  9 20  2  0
 10  8  1  0
 10 15  1  0
 11 19  1  0
 11 21  1  0
 12 18  1  0
 12 14  1  0
 13 19  1  0
 14 13  1  0
 15 14  2  0
 16 10  2  0
 17 16  1  0
 17 12  2  0
 18 11  1  0
 19  9  1  0
 21 23  2  0
 22 21  1  0
 24 22  1  0
 25 34  2  0
 25 30  1  0
 26 22  1  0
 26 30  1  0
 27 26  1  0
 28 29  1  0
 28 27  1  0
 29 25  1  0
 30 31  2  0
 31 32  1  0
 33 32  2  0
 34 33  1  0
 35  9  1  0
 35 36  1  0
 35 45  1  0
 36 39  1  0
 37 41  1  0
 37 36  1  0
 38 37  2  0
 41 40  1  0
 43 41  1  0
 43 44  1  0
 43 42  1  0
 45 48  1  1
 45 46  1  0
 47 45  1  0
 49  6  1  0
 49 52  1  0
 50 53  1  0
 51 52  1  0
 51 55  2  0
 52 50  2  0
 53 56  1  0
 54 53  2  0
 54 57  1  0
 55 54  1  0
 58 66  1  0
 59 64  1  0
 60 61  1  0
 60 59  1  0
 62 61  1  0
 62 71  1  0
 62 63  1  0
 64 58  1  0
 64 63  1  0
 65 58  2  0
 66 55  1  0
 67 66  1  0
 68 69  2  0
 69 88  1  0
 70 69  1  0
 70 73  1  0
 71 72  1  0
 71 68  1  0
 72 70  2  0
 73 74  1  0
 74 75  2  0
 76 79  1  0
 76 75  1  0
 77 76  2  0
 78 77  1  0
 78 73  2  0
 79 80  1  0
 80 81  1  0
 81 82  2  0
 83 82  1  0
 83 87  1  0
 84 83  2  0
 85 80  2  0
 85 84  1  0
 86 85  1  0
 88 89  1  0
 89 92  1  0
 89 91  1  0
 90 88  2  0
 93 94  1  0
 93 68  1  0
 95 93  1  0
M  ISO  4   5 101   8 101  58 100  66 100
M  END
>  <TORSDO>  (26) 
F 18

>  <SCORE>  (26) 
-13.719

>  <name>  (26) 
25

>  <ligand_id>  (26) 
25

>  <original_smiles>  (26) 
[H]C([H])=C1C([H])([H])C([H])(Oc2c([H])c([H])c3c(c2[H])C([H])([H])N(C(=O)C([H])(N([H])C(=O)C([H])(N([H])C([H])([H])[H])C([H])([H])[H])C(C([H])([H])[H])(C([H])([H])[H])C([H])([H])[H])C([H])(C(=O)N([H])C2([H])c4c([H])c([H])c([H])c([H])c4C([H])([H])C([H])([H])C2([H])[H])C3([H])[H])C([H])([H])[N+]1([H])C([H])([H])c1c([H])c(N([H])C(=O)N2C([H])([H])C([H])([H])C([H])([H])C([H])(n3nc(-c4c([H])c([H])c(Oc5c([H])c([H])c(F)c([H])c5F)c([H])c4[H])c(C(=O)N([H])[H])c3N([H])[H])C2([H])[H])c(C([H])([H])[H])c(C([H])([H])[H])c1[H]

>  <smiles>  (26) 
[H]C([H])=C1C([H])([H])C([H])(Oc2c([H])c([H])c3c(c2[H])C([H])([H])N(C(=O)C([H])(N([H])C(=O)C([H])(N([H])C([H])([H])[H])C([H])([H])[H])C(C([H])([H])[H])(C([H])([H])[H])C([H])([H])[H])C([H])(C(=O)N([H])C2([H])c4c([H])c([H])c([H])c([H])c4C([H])([H])C([H])([H])C2([H])[H])C3([H])[H])C([H])([H])[N+]1([H])C([H])([H])c1c([H])c(N([H])C(=O)N2C([H])([H])C([H])([H])C([H])([H])C([H])(n3nc(-c4c([H])c([H])c(Oc5c([H])c([H])c(F)c([H])c5F)c([H])c4[H])c(C(=O)N([H])[H])c3N([H])[H])C2([H])[H])c(C([H])([H])[H])c(C([H])([H])[H])c1[H]

$$$$
26:0:0
     RDKit          3D

 97106  0  0  1  0  0  0  0  0999 V2000
  -28.9830  -24.2630   20.2050 C   0  0  0  0  0  0  0  0  0  0  0  0
  -29.9790  -24.3670   19.3060 C   0  0  0  0  0  2  0  0  0  0  0  0
  -28.8470  -24.1450   22.9590 C   0  0  0  0  0  2  0  0  0  0  0  0
  -28.4080  -25.4910   22.3420 C   0  0  0  0  0  2  0  0  0  0  0  0
  -28.2560  -22.9030   22.2420 C   0  0  0  0  0  2  0  0  0  0  0  0
  -28.1750  -25.4060   20.8200 C   0  0  0  0  0  3  0  0  0  0  0  0
  -28.4440  -22.9610   20.7630 N   0  0  2  0  0  4  0  0  0  0  0  0
  -27.4670  -23.0370   20.5220 H   0  0  0  0  0  0  0  0  0  0  0  0
  -28.3720  -26.6950   20.1980 O   0  0  0  0  0  0  0  0  0  0  0  0
  -24.5720  -31.8850   23.2440 C   0  0  0  0  0  0  0  0  0  0  0  0
  -27.2290  -27.4690   20.1560 C   0  0  0  0  0  0  0  0  0  0  0  0
  -23.3700  -30.4900   21.5930 C   0  0  0  0  0  3  0  0  0  0  0  0
  -24.8280  -28.9650   20.1640 C   0  0  0  0  0  0  0  0  0  0  0  0
  -25.8960  -30.8550   21.4060 C   0  0  0  0  0  2  0  0  0  0  0  0
  -25.9830  -29.4890   20.7610 C   0  0  0  0  0  0  0  0  0  0  0  0
  -27.1860  -28.7480   20.7560 C   0  0  0  0  0  3  0  0  0  0  0  0
  -26.0650  -26.9720   19.5280 C   0  0  0  0  0  3  0  0  0  0  0  0
  -24.8650  -27.7080   19.5430 C   0  0  0  0  0  3  0  0  0  0  0  0
  -23.5790  -29.8150   20.2100 C   0  0  0  0  0  2  0  0  0  0  0  0
  -24.6300  -31.0910   22.1390 N   0  0  0  0  0  0  0  0  0  0  0  0
  -23.4880  -32.1540   23.7840 O   0  0  0  0  0  0  0  0  0  0  0  0
  -22.7200  -29.4630   22.5470 C   0  0  0  0  0  0  0  0  0  0  0  0
  -21.3950  -29.2770   22.4140 N   0  0  0  0  0  0  0  0  0  0  0  0
  -23.4050  -28.8350   23.3590 O   0  0  0  0  0  0  0  0  0  0  0  0
  -20.9020  -29.8380   21.7320 H   0  0  0  0  0  0  0  0  0  0  0  0
  -18.0260  -28.0700   22.9010 C   0  0  0  0  0  0  0  0  0  0  0  0
  -20.5830  -28.3320   23.1800 C   0  0  0  0  0  3  0  0  0  0  0  0
  -20.6880  -26.9040   22.5970 C   0  0  0  0  0  2  0  0  0  0  0  0
  -19.5890  -26.5840   21.5790 C   0  0  0  0  0  2  0  0  0  0  0  0
  -18.2060  -26.7240   22.2210 C   0  0  0  0  0  2  0  0  0  0  0  0
  -19.1430  -28.8330   23.3380 C   0  0  0  0  0  0  0  0  0  0  0  0
  -18.9210  -30.0950   23.9310 C   0  0  0  0  0  3  0  0  0  0  0  0
  -17.6150  -30.5930   24.0950 C   0  0  0  0  0  3  0  0  0  0  0  0
  -16.5130  -29.8270   23.6750 C   0  0  0  0  0  3  0  0  0  0  0  0
  -16.7190  -28.5690   23.0830 C   0  0  0  0  0  3  0  0  0  0  0  0
  -25.8580  -32.5170   23.8640 C   0  0  0  0  0  3  0  0  0  0  0  0
  -26.3800  -31.7450   25.1370 C   0  0  1  0  0  0  0  0  0  0  0  0
  -25.2940  -31.4910   26.2050 C   0  0  0  0  0  1  0  0  0  0  0  0
  -26.9870  -30.3790   24.7430 C   0  0  0  0  0  1  0  0  0  0  0  0
  -27.5190  -32.5480   25.8080 C   0  0  0  0  0  1  0  0  0  0  0  0
  -25.5430  -33.9110   24.2020 N   0  0  0  0  0  0  0  0  0  0  0  0
  -25.8530  -34.9690   23.4430 C   0  0  0  0  0  0  0  0  0  0  0  0
  -26.5120  -34.8760   22.4040 O   0  0  0  0  0  0  0  0  0  0  0  0
  -24.9420  -34.0510   25.0020 H   0  0  0  0  0  0  0  0  0  0  0  0
  -24.0990  -36.7500   23.1230 C   0  0  0  0  0  1  0  0  0  0  0  0
  -25.3580  -36.3520   23.9120 C   0  0  0  0  0  3  0  0  0  0  0  0
  -27.5000  -37.2590   24.7030 C   0  0  0  0  0  1  0  0  0  0  0  0
  -26.3770  -37.4170   23.7840 N   0  0  0  0  0  0  0  0  0  0  0  0
  -25.9620  -38.3330   23.9340 H   0  0  0  0  0  0  0  0  0  0  0  0
  -28.6830  -21.6760   20.0290 C   0  0  0  0  0  2  0  0  0  0  0  0
  -29.2730  -19.2330   20.0830 C   0  0  0  0  0  3  0  0  0  0  0  0
  -31.4620  -19.4900   21.7670 C   0  0  0  0  0  3  0  0  0  0  0  0
  -29.6020  -20.5330   20.5500 C   0  0  0  0  0  0  0  0  0  0  0  0
  -30.0090  -18.0710   20.4290 C   0  0  0  0  0  0  0  0  0  0  0  0
  -30.7690  -20.6520   21.3640 C   0  0  0  0  0  0  0  0  0  0  0  0
  -31.1000  -18.2080   21.3170 C   0  0  0  0  0  0  0  0  0  0  0  0
  -31.3710  -21.9620   21.8310 C   0  0  0  0  0  1  0  0  0  0  0  0
  -32.0650  -16.8790   21.8570 Cl  0  0  0  0  0  0  0  0  0  0  0  0
  -29.6480  -16.7610   19.7100 C   0  0  0  0  0  2  0  0  0  0  0  0
  -30.4630  -14.4560   20.0380 C   0  0  0  0  0  0  0  0  0  0  0  0
  -30.1120  -12.3120   18.9130 C   0  0  0  0  0  2  0  0  0  0  0  0
  -29.1020  -12.5650   17.7750 C   0  0  0  0  0  2  0  0  0  0  0  0
  -27.6520  -12.4350   18.2820 C   0  0  0  0  0  2  0  0  0  0  0  0
  -27.4020  -13.2180   19.5990 C   0  0  0  0  0  3  0  0  0  0  0  0
  -28.5250  -12.9590   20.6310 C   0  0  0  0  0  2  0  0  0  0  0  0
  -29.8130  -13.2650   19.9900 N   0  0  0  0  0  0  0  0  0  0  0  0
  -31.5550  -14.6460   19.5000 O   0  0  0  0  0  0  0  0  0  0  0  0
  -29.7020  -15.4870   20.4430 N   0  0  0  0  0  0  0  0  0  0  0  0
  -28.8700  -15.2410   20.9560 H   0  0  0  0  0  0  0  0  0  0  0  0
  -25.0450  -13.8010   20.4590 C   0  0  0  0  0  0  0  0  0  0  0  0
  -24.0110  -13.0150   20.8900 C   0  0  0  0  0  0  0  0  0  0  0  0
  -24.4780  -11.6680   20.8110 C   0  0  0  0  0  0  0  0  0  0  0  0
  -26.0810  -12.9290   20.1530 N   0  0  0  0  0  0  0  0  0  0  0  0
  -25.7450  -11.6420   20.4170 N   0  0  0  0  0  0  0  0  0  0  0  0
  -23.7710  -10.3990   21.0270 C   0  0  0  0  0  0  0  0  0  0  0  0
  -24.2580   -9.4300   21.9310 C   0  0  0  0  0  3  0  0  0  0  0  0
  -23.5550   -8.2240   22.1370 C   0  0  0  0  0  3  0  0  0  0  0  0
  -22.3480   -7.9790   21.4380 C   0  0  0  0  0  0  0  0  0  0  0  0
  -21.8780   -8.9360   20.5210 C   0  0  0  0  0  3  0  0  0  0  0  0
  -22.5830  -10.1350   20.3140 C   0  0  0  0  0  3  0  0  0  0  0  0
  -21.6110   -6.8270   21.5540 O   0  0  0  0  0  0  0  0  0  0  0  0
  -21.6150   -6.0800   22.7050 C   0  0  0  0  0  0  0  0  0  0  0  0
  -21.2450   -6.6290   23.9530 C   0  0  0  0  0  3  0  0  0  0  0  0
  -21.2000   -5.8090   25.0980 C   0  0  0  0  0  3  0  0  0  0  0  0
  -21.5140   -4.4400   24.9960 C   0  0  0  0  0  0  0  0  0  0  0  0
  -21.8780   -3.8920   23.7540 C   0  0  0  0  0  3  0  0  0  0  0  0
  -21.9250   -4.7100   22.6120 C   0  0  0  0  0  0  0  0  0  0  0  0
  -22.2550   -4.1720   21.4140 F   0  0  0  0  0  0  0  0  0  0  0  0
  -21.4660   -3.6490   26.0930 F   0  0  0  0  0  0  0  0  0  0  0  0
  -22.6280  -13.4810   21.2560 C   0  0  0  0  0  0  0  0  0  0  0  0
  -21.9600  -12.7710   22.1600 N   0  0  0  0  0  0  0  0  0  0  0  0
  -22.1510  -14.5060   20.7760 O   0  0  0  0  0  0  0  0  0  0  0  0
  -22.3590  -11.9430   22.5750 H   0  0  0  0  0  0  0  0  0  0  0  0
  -21.0350  -13.0660   22.4380 H   0  0  0  0  0  0  0  0  0  0  0  0
  -25.1890  -15.1740   20.2890 N   0  0  0  0  0  0  0  0  0  0  0  0
  -24.4210  -15.8180   20.4490 H   0  0  0  0  0  0  0  0  0  0  0  0
  -26.0040  -15.6260   19.8930 H   0  0  0  0  0  0  0  0  0  0  0  0
  1  7  1  0
  1  6  1  0
  2  1  2  0
  4  3  1  0
  5  3  1  0
  6  9  1  0
  6  4  1  0
  7  5  1  0
  7  8  1  6
 10 21  2  0
 11  9  1  0
 11 16  1  0
 12 20  1  0
 12 22  1  0
 13 19  1  0
 13 15  1  0
 14 20  1  0
 15 14  1  0
 16 15  2  0
 17 18  1  0
 17 11  2  0
 18 13  2  0
 19 12  1  0
 20 10  1  0
 22 24  2  0
 23 22  1  0
 25 23  1  0
 26 35  2  0
 26 31  1  0
 27 23  1  0
 27 31  1  0
 28 27  1  0
 29 30  1  0
 29 28  1  0
 30 26  1  0
 31 32  2  0
 32 33  1  0
 34 33  2  0
 35 34  1  0
 36 10  1  0
 36 41  1  0
 36 37  1  0
 37 40  1  1
 37 38  1  0
 39 37  1  0
 41 44  1  0
 42 46  1  0
 42 41  1  0
 43 42  2  0
 46 45  1  0
 48 46  1  0
 48 49  1  0
 48 47  1  0
 50 53  1  0
 50  7  1  0
 51 54  2  0
 51 53  1  0
 53 55  2  0
 54 56  1  0
 55 52  1  0
 55 57  1  0
 56 52  2  0
 56 58  1  0
 59 54  1  0
 59 68  1  0
 60 68  1  0
 61 66  1  0
 62 63  1  0
 62 61  1  0
 64 63  1  0
 64 73  1  0
 64 65  1  0
 66 60  1  0
 66 65  1  0
 67 60  2  0
 68 69  1  0
 70 71  2  0
 71 90  1  0
 72 71  1  0
 72 75  1  0
 73 74  1  0
 73 70  1  0
 74 72  2  0
 75 76  1  0
 76 77  2  0
 78 81  1  0
 78 77  1  0
 79 78  2  0
 80 79  1  0
 80 75  2  0
 81 82  1  0
 82 83  1  0
 83 84  2  0
 85 84  1  0
 85 89  1  0
 86 85  2  0
 87 82  2  0
 87 86  1  0
 88 87  1  0
 90 91  1  0
 91 94  1  0
 91 93  1  0
 92 90  2  0
 95 96  1  0
 95 70  1  0
 97 95  1  0
M  ISO  4   6 101   9 101  60 100  68 100
M  END
>  <TORSDO>  (27) 
F 19

>  <SCORE>  (27) 
-13.321

>  <name>  (27) 
26

>  <ligand_id>  (27) 
26

>  <original_smiles>  (27) 
[H]C([H])=C1C([H])(Oc2c([H])c([H])c3c(c2[H])C([H])([H])N(C(=O)C([H])(N([H])C(=O)C([H])(N([H])C([H])([H])[H])C([H])([H])[H])C(C([H])([H])[H])(C([H])([H])[H])C([H])([H])[H])C([H])(C(=O)N([H])C2([H])c4c([H])c([H])c([H])c([H])c4C([H])([H])C([H])([H])C2([H])[H])C3([H])[H])C([H])([H])C([H])([H])C([H])([H])[N+]1([H])C([H])([H])c1c([H])c(C([H])([H])N([H])C(=O)N2C([H])([H])C([H])([H])C([H])([H])C([H])(n3nc(-c4c([H])c([H])c(Oc5c([H])c([H])c(F)c([H])c5F)c([H])c4[H])c(C(=O)N([H])[H])c3N([H])[H])C2([H])[H])c(Cl)c([H])c1C([H])([H])[H]

>  <smiles>  (27) 
[H]C([H])=C1C([H])(Oc2c([H])c([H])c3c(c2[H])C([H])([H])N(C(=O)C([H])(N([H])C(=O)C([H])(N([H])C([H])([H])[H])C([H])([H])[H])C(C([H])([H])[H])(C([H])([H])[H])C([H])([H])[H])C([H])(C(=O)N([H])C2([H])c4c([H])c([H])c([H])c([H])c4C([H])([H])C([H])([H])C2([H])[H])C3([H])[H])C([H])([H])C([H])([H])C([H])([H])[N+]1([H])C([H])([H])c1c([H])c(C([H])([H])N([H])C(=O)N2C([H])([H])C([H])([H])C([H])([H])C([H])(n3nc(-c4c([H])c([H])c(Oc5c([H])c([H])c(F)c([H])c5F)c([H])c4[H])c(C(=O)N([H])[H])c3N([H])[H])C2([H])[H])c(Cl)c([H])c1C([H])([H])[H]

$$$$
27:0:0
     RDKit          3D

 95104  0  0  1  0  0  0  0  0999 V2000
  -30.0550  -22.0510   19.9630 C   0  0  0  0  0  2  0  0  0  0  0  0
  -29.0660  -17.7940   19.4540 C   0  0  0  0  0  3  0  0  0  0  0  0
  -28.8600  -20.1330   18.8130 C   0  0  0  0  0  3  0  0  0  0  0  0
  -29.8780  -18.1420   20.5550 C   0  0  0  0  0  0  0  0  0  0  0  0
  -29.6590  -20.5440   19.9050 C   0  0  0  0  0  0  0  0  0  0  0  0
  -30.1600  -19.5320   20.7920 C   0  0  0  0  0  0  0  0  0  0  0  0
  -28.5560  -18.7800   18.5950 C   0  0  0  0  0  0  0  0  0  0  0  0
  -31.0400  -19.9290   21.9700 C   0  0  0  0  0  1  0  0  0  0  0  0
  -27.5790  -18.3220   17.2500 Cl  0  0  0  0  0  0  0  0  0  0  0  0
  -30.4640  -17.0120   21.4430 C   0  0  0  0  0  2  0  0  0  0  0  0
  -30.7150  -14.6170   20.6140 C   0  0  0  0  0  0  0  0  0  0  0  0
  -30.4530  -12.4550   19.4390 C   0  0  0  0  0  2  0  0  0  0  0  0
  -29.5270  -12.6390   18.2190 C   0  0  0  0  0  2  0  0  0  0  0  0
  -28.0480  -12.4830   18.6260 C   0  0  0  0  0  2  0  0  0  0  0  0
  -27.6820  -13.3210   19.8810 C   0  0  0  0  0  3  0  0  0  0  0  0
  -28.7210  -13.1140   21.0060 C   0  0  0  0  0  2  0  0  0  0  0  0
  -30.0490  -13.4370   20.4590 N   0  0  0  0  0  0  0  0  0  0  0  0
  -31.8480  -14.8030   20.1610 O   0  0  0  0  0  0  0  0  0  0  0  0
  -30.0140  -15.6230   21.1820 N   0  0  0  0  0  0  0  0  0  0  0  0
  -29.0880  -15.3870   21.5050 H   0  0  0  0  0  0  0  0  0  0  0  0
  -25.2690  -13.9140   20.5460 C   0  0  0  0  0  0  0  0  0  0  0  0
  -24.1980  -13.1360   20.8960 C   0  0  0  0  0  0  0  0  0  0  0  0
  -24.6670  -11.7860   20.8740 C   0  0  0  0  0  0  0  0  0  0  0  0
  -26.3230  -13.0370   20.3350 N   0  0  0  0  0  0  0  0  0  0  0  0
  -25.9630  -11.7530   20.5910 N   0  0  0  0  0  0  0  0  0  0  0  0
  -23.9440  -10.5200   21.0500 C   0  0  0  0  0  0  0  0  0  0  0  0
  -24.3560   -9.5610   22.0020 C   0  0  0  0  0  3  0  0  0  0  0  0
  -23.6330   -8.3590   22.1660 C   0  0  0  0  0  3  0  0  0  0  0  0
  -22.4850   -8.1090   21.3780 C   0  0  0  0  0  0  0  0  0  0  0  0
  -22.0930   -9.0570   20.4170 C   0  0  0  0  0  3  0  0  0  0  0  0
  -22.8160  -10.2490   20.2500 C   0  0  0  0  0  3  0  0  0  0  0  0
  -21.7360   -6.9590   21.4510 O   0  0  0  0  0  0  0  0  0  0  0  0
  -21.6420   -6.2330   22.6110 C   0  0  0  0  0  0  0  0  0  0  0  0
  -21.1280   -6.7940   23.8010 C   0  0  0  0  0  3  0  0  0  0  0  0
  -20.9840   -5.9930   24.9520 C   0  0  0  0  0  3  0  0  0  0  0  0
  -21.3420   -4.6320   24.9130 C   0  0  0  0  0  0  0  0  0  0  0  0
  -21.8490   -4.0710   23.7270 C   0  0  0  0  0  3  0  0  0  0  0  0
  -21.9950   -4.8690   22.5780 C   0  0  0  0  0  0  0  0  0  0  0  0
  -22.4630   -4.3190   21.4330 F   0  0  0  0  0  0  0  0  0  0  0  0
  -21.1970   -3.8600   26.0150 F   0  0  0  0  0  0  0  0  0  0  0  0
  -22.7930  -13.6060   21.1420 C   0  0  0  0  0  0  0  0  0  0  0  0
  -22.0500  -12.9000   21.9880 N   0  0  0  0  0  0  0  0  0  0  0  0
  -22.3630  -14.6330   20.6210 O   0  0  0  0  0  0  0  0  0  0  0  0
  -22.4120  -12.0690   22.4320 H   0  0  0  0  0  0  0  0  0  0  0  0
  -21.1070  -13.1960   22.1950 H   0  0  0  0  0  0  0  0  0  0  0  0
  -25.4290  -15.2850   20.3710 N   0  0  0  0  0  0  0  0  0  0  0  0
  -24.6530  -15.9310   20.4590 H   0  0  0  0  0  0  0  0  0  0  0  0
  -26.2760  -15.7280   20.0430 H   0  0  0  0  0  0  0  0  0  0  0  0
  -27.2870  -24.2950   20.1220 C   0  0  0  0  0  2  0  0  0  0  0  0
  -27.7500  -22.9120   20.5880 C   0  0  0  0  0  2  0  0  0  0  0  0
  -29.5750  -24.4500   20.6460 C   0  0  0  0  0  2  0  0  0  0  0  0
  -28.2700  -25.2880   20.7560 C   0  0  0  0  0  3  0  0  0  0  0  0
  -29.2150  -22.9930   20.7800 N   0  0  2  0  0  4  0  0  0  0  0  0
  -29.3670  -22.7350   21.7450 H   0  0  0  0  0  0  0  0  0  0  0  0
  -28.3630  -26.6370   20.1870 O   0  0  0  0  0  0  0  0  0  0  0  0
  -24.5530  -31.9060   23.2480 C   0  0  0  0  0  0  0  0  0  0  0  0
  -27.2180  -27.4280   20.1880 C   0  0  0  0  0  0  0  0  0  0  0  0
  -23.3670  -30.5080   21.5950 C   0  0  0  0  0  3  0  0  0  0  0  0
  -24.8360  -28.9820   20.1750 C   0  0  0  0  0  0  0  0  0  0  0  0
  -25.9010  -30.8560   21.4280 C   0  0  0  0  0  2  0  0  0  0  0  0
  -25.9930  -29.4840   20.7860 C   0  0  0  0  0  0  0  0  0  0  0  0
  -27.1880  -28.7140   20.7930 C   0  0  0  0  0  3  0  0  0  0  0  0
  -26.0510  -26.9880   19.5240 C   0  0  0  0  0  3  0  0  0  0  0  0
  -24.8630  -27.7340   19.5400 C   0  0  0  0  0  3  0  0  0  0  0  0
  -23.5920  -29.8410   20.2140 C   0  0  0  0  0  2  0  0  0  0  0  0
  -24.6250  -31.1060   22.1470 N   0  0  0  0  0  0  0  0  0  0  0  0
  -23.4660  -32.1740   23.7780 O   0  0  0  0  0  0  0  0  0  0  0  0
  -22.7100  -29.4770   22.5440 C   0  0  0  0  0  0  0  0  0  0  0  0
  -21.3880  -29.2900   22.4060 N   0  0  0  0  0  0  0  0  0  0  0  0
  -23.3890  -28.8510   23.3620 O   0  0  0  0  0  0  0  0  0  0  0  0
  -20.9000  -29.8490   21.7190 H   0  0  0  0  0  0  0  0  0  0  0  0
  -18.0120  -28.0890   22.8830 C   0  0  0  0  0  0  0  0  0  0  0  0
  -20.5680  -28.3470   23.1670 C   0  0  0  0  0  3  0  0  0  0  0  0
  -20.6740  -26.9200   22.5820 C   0  0  0  0  0  2  0  0  0  0  0  0
  -19.5760  -26.6030   21.5620 C   0  0  0  0  0  2  0  0  0  0  0  0
  -18.1910  -26.7430   22.2010 C   0  0  0  0  0  2  0  0  0  0  0  0
  -19.1280  -28.8490   23.3220 C   0  0  0  0  0  0  0  0  0  0  0  0
  -18.9070  -30.1090   23.9190 C   0  0  0  0  0  3  0  0  0  0  0  0
  -17.6010  -30.6090   24.0830 C   0  0  0  0  0  3  0  0  0  0  0  0
  -16.4990  -29.8460   23.6600 C   0  0  0  0  0  3  0  0  0  0  0  0
  -16.7050  -28.5880   23.0660 C   0  0  0  0  0  3  0  0  0  0  0  0
  -25.8310  -32.5420   23.8780 C   0  0  0  0  0  3  0  0  0  0  0  0
  -26.3270  -31.7840   25.1700 C   0  0  1  0  0  0  0  0  0  0  0  0
  -25.2180  -31.5550   26.2220 C   0  0  0  0  0  1  0  0  0  0  0  0
  -26.9200  -30.4030   24.8000 C   0  0  0  0  0  1  0  0  0  0  0  0
  -27.4670  -32.5870   25.8420 C   0  0  0  0  0  1  0  0  0  0  0  0
  -25.5200  -33.9440   24.1860 N   0  0  0  0  0  0  0  0  0  0  0  0
  -25.8630  -34.9860   23.4170 C   0  0  0  0  0  0  0  0  0  0  0  0
  -26.5480  -34.8670   22.3970 O   0  0  0  0  0  0  0  0  0  0  0  0
  -24.9130  -34.1100   24.9760 H   0  0  0  0  0  0  0  0  0  0  0  0
  -24.1520  -36.7820   23.0060 C   0  0  0  0  0  1  0  0  0  0  0  0
  -25.3720  -36.3800   23.8500 C   0  0  0  0  0  3  0  0  0  0  0  0
  -27.4860  -37.2690   24.7250 C   0  0  0  0  0  1  0  0  0  0  0  0
  -26.4110  -37.4280   23.7500 N   0  0  0  0  0  0  0  0  0  0  0  0
  -26.0050  -38.3520   23.8720 H   0  0  0  0  0  0  0  0  0  0  0  0
  1 53  1  0
  2  4  1  0
  3  5  2  0
  4  6  2  0
  4 10  1  0
  5  1  1  0
  5  6  1  0
  6  8  1  0
  7  3  1  0
  7  2  2  0
  9  7  1  0
 11 19  1  0
 12 17  1  0
 13 14  1  0
 13 12  1  0
 15 14  1  0
 15 24  1  0
 15 16  1  0
 17 11  1  0
 17 16  1  0
 18 11  2  0
 19 10  1  0
 19 20  1  0
 21 22  2  0
 22 41  1  0
 23 22  1  0
 23 26  1  0
 24 21  1  0
 24 25  1  0
 25 23  2  0
 26 27  1  0
 27 28  2  0
 29 32  1  0
 29 28  1  0
 30 29  2  0
 31 30  1  0
 31 26  2  0
 32 33  1  0
 33 34  1  0
 34 35  2  0
 36 35  1  0
 36 40  1  0
 37 36  2  0
 38 33  2  0
 38 37  1  0
 39 38  1  0
 41 42  1  0
 42 45  1  0
 42 44  1  0
 43 41  2  0
 46 47  1  0
 46 21  1  0
 48 46  1  0
 49 50  1  0
 49 52  1  0
 50 53  1  0
 51 52  1  0
 51 53  1  0
 52 55  1  0
 53 54  1  1
 55 57  1  0
 56 67  2  0
 57 62  1  0
 58 66  1  0
 58 68  1  0
 59 65  1  0
 59 61  1  0
 60 66  1  0
 61 62  2  0
 61 60  1  0
 63 64  1  0
 63 57  2  0
 64 59  2  0
 65 58  1  0
 66 56  1  0
 68 70  2  0
 69 68  1  0
 71 69  1  0
 72 81  2  0
 72 77  1  0
 73 69  1  0
 73 77  1  0
 74 73  1  0
 75 76  1  0
 75 74  1  0
 76 72  1  0
 77 78  2  0
 78 79  1  0
 80 79  2  0
 81 80  1  0
 82 56  1  0
 82 87  1  0
 82 83  1  0
 83 86  1  1
 83 84  1  0
 85 83  1  0
 87 90  1  0
 88 92  1  0
 88 87  1  0
 89 88  2  0
 92 91  1  0
 94 92  1  0
 94 95  1  0
 94 93  1  0
M  ISO  4  11 100  19 100  52 101  55 101
M  END
>  <TORSDO>  (28) 
F 19

>  <SCORE>  (28) 
-14.584

>  <name>  (28) 
27

>  <ligand_id>  (28) 
27

>  <original_smiles>  (28) 
[H]c1c([H])c([H])c2c(c1[H])C([H])([H])C([H])([H])C([H])([H])C2([H])N([H])C(=O)C1([H])N(C(=O)C([H])(N([H])C(=O)C([H])(N([H])C([H])([H])[H])C([H])([H])[H])C(C([H])([H])[H])(C([H])([H])[H])C([H])([H])[H])C([H])([H])c2c([H])c(OC3([H])C([H])([H])C([H])([H])[N+]([H])(C([H])([H])c4c([H])c(Cl)c([H])c(C([H])([H])N([H])C(=O)N5C([H])([H])C([H])([H])C([H])([H])C([H])(n6nc(-c7c([H])c([H])c(Oc8c([H])c([H])c(F)c([H])c8F)c([H])c7[H])c(C(=O)N([H])[H])c6N([H])[H])C5([H])[H])c4C([H])([H])[H])C3([H])[H])c([H])c([H])c2C1([H])[H]

>  <smiles>  (28) 
[H]c1c([H])c([H])c2c(c1[H])C([H])([H])C([H])([H])C([H])([H])C2([H])N([H])C(=O)C1([H])N(C(=O)C([H])(N([H])C(=O)C([H])(N([H])C([H])([H])[H])C([H])([H])[H])C(C([H])([H])[H])(C([H])([H])[H])C([H])([H])[H])C([H])([H])c2c([H])c(OC3([H])C([H])([H])C([H])([H])[N+]([H])(C([H])([H])c4c([H])c(Cl)c([H])c(C([H])([H])N([H])C(=O)N5C([H])([H])C([H])([H])C([H])([H])C([H])(n6nc(-c7c([H])c([H])c(Oc8c([H])c([H])c(F)c([H])c8F)c([H])c7[H])c(C(=O)N([H])[H])c6N([H])[H])C5([H])[H])c4C([H])([H])[H])C3([H])[H])c([H])c([H])c2C1([H])[H]

$$$$
28:0:0
     RDKit          3D

 97106  0  0  1  0  0  0  0  0999 V2000
  -30.1220  -25.3470   19.5270 C   0  0  0  0  0  2  0  0  0  0  0  0
  -28.1840  -24.2140   20.4250 C   0  0  0  0  0  2  0  0  0  0  0  0
  -28.5920  -25.4540   19.5730 C   0  0  0  0  0  3  0  0  0  0  0  0
  -30.5270  -24.3730   20.6460 C   0  0  2  0  0  0  0  0  0  0  0  0
  -30.6210  -25.0940   22.0270 C   0  0  0  0  0  1  0  0  0  0  0  0
  -31.9480  -23.8240   20.4110 C   0  0  0  0  0  1  0  0  0  0  0  0
  -29.4080  -23.3680   20.6040 N   0  0  2  0  0  4  0  0  0  0  0  0
  -29.3360  -22.8960   21.4930 H   0  0  0  0  0  0  0  0  0  0  0  0
  -28.3600  -26.7500   20.1500 O   0  0  0  0  0  0  0  0  0  0  0  0
  -24.5470  -31.8570   23.1890 C   0  0  0  0  0  0  0  0  0  0  0  0
  -27.1620  -27.4310   20.0660 C   0  0  0  0  0  0  0  0  0  0  0  0
  -23.3290  -30.4790   21.5310 C   0  0  0  0  0  3  0  0  0  0  0  0
  -24.7710  -28.9530   20.0770 C   0  0  0  0  0  0  0  0  0  0  0  0
  -25.8500  -30.8390   21.3130 C   0  0  0  0  0  2  0  0  0  0  0  0
  -25.9300  -29.4720   20.6610 C   0  0  0  0  0  0  0  0  0  0  0  0
  -27.1250  -28.7210   20.6400 C   0  0  0  0  0  3  0  0  0  0  0  0
  -25.9830  -26.9210   19.4700 C   0  0  0  0  0  3  0  0  0  0  0  0
  -24.7980  -27.6830   19.4750 C   0  0  0  0  0  3  0  0  0  0  0  0
  -23.5290  -29.8130   20.1430 C   0  0  0  0  0  2  0  0  0  0  0  0
  -24.5930  -31.0750   22.0690 N   0  0  0  0  0  0  0  0  0  0  0  0
  -23.4690  -32.1210   23.7390 O   0  0  0  0  0  0  0  0  0  0  0  0
  -22.6780  -29.4490   22.4860 C   0  0  0  0  0  0  0  0  0  0  0  0
  -21.3500  -29.2800   22.3660 N   0  0  0  0  0  0  0  0  0  0  0  0
  -23.3650  -28.8110   23.2850 O   0  0  0  0  0  0  0  0  0  0  0  0
  -20.8580  -29.8500   21.6940 H   0  0  0  0  0  0  0  0  0  0  0  0
  -17.9750  -28.0920   22.8560 C   0  0  0  0  0  0  0  0  0  0  0  0
  -20.5330  -28.3350   23.1270 C   0  0  0  0  0  3  0  0  0  0  0  0
  -20.6270  -26.9110   22.5290 C   0  0  0  0  0  2  0  0  0  0  0  0
  -19.5200  -26.6070   21.5150 C   0  0  0  0  0  2  0  0  0  0  0  0
  -18.1410  -26.7520   22.1640 C   0  0  0  0  0  2  0  0  0  0  0  0
  -19.0980  -28.8430   23.2950 C   0  0  0  0  0  0  0  0  0  0  0  0
  -18.8830  -30.1020   23.9010 C   0  0  0  0  0  3  0  0  0  0  0  0
  -17.5800  -30.6040   24.0730 C   0  0  0  0  0  3  0  0  0  0  0  0
  -16.4730  -29.8480   23.6520 C   0  0  0  0  0  3  0  0  0  0  0  0
  -16.6710  -28.5940   23.0470 C   0  0  0  0  0  3  0  0  0  0  0  0
  -25.8360  -32.4750   23.8090 C   0  0  0  0  0  3  0  0  0  0  0  0
  -26.3550  -31.6860   25.0720 C   0  0  1  0  0  0  0  0  0  0  0  0
  -25.2680  -31.4420   26.1440 C   0  0  0  0  0  1  0  0  0  0  0  0
  -26.9210  -30.3070   24.6560 C   0  0  0  0  0  1  0  0  0  0  0  0
  -27.5130  -32.4640   25.7400 C   0  0  0  0  0  1  0  0  0  0  0  0
  -25.5340  -33.8720   24.1570 N   0  0  0  0  0  0  0  0  0  0  0  0
  -25.8710  -34.9320   23.4090 C   0  0  0  0  0  0  0  0  0  0  0  0
  -26.5420  -34.8350   22.3760 O   0  0  0  0  0  0  0  0  0  0  0  0
  -24.9270  -34.0170   24.9520 H   0  0  0  0  0  0  0  0  0  0  0  0
  -24.1470  -36.7370   23.0810 C   0  0  0  0  0  1  0  0  0  0  0  0
  -25.3900  -36.3190   23.8830 C   0  0  0  0  0  3  0  0  0  0  0  0
  -27.5340  -37.1850   24.7060 C   0  0  0  0  0  1  0  0  0  0  0  0
  -26.4250  -37.3680   23.7750 N   0  0  0  0  0  0  0  0  0  0  0  0
  -26.0240  -38.2870   23.9360 H   0  0  0  0  0  0  0  0  0  0  0  0
  -29.5250  -22.2550   19.5820 C   0  0  0  0  0  2  0  0  0  0  0  0
  -30.5840  -20.6320   21.2770 C   0  0  0  0  0  3  0  0  0  0  0  0
  -29.1720  -19.6890   19.5780 C   0  0  0  0  0  3  0  0  0  0  0  0
  -29.7620  -20.8350   20.1590 C   0  0  0  0  0  0  0  0  0  0  0  0
  -30.8640  -19.3340   21.7750 C   0  0  0  0  0  0  0  0  0  0  0  0
  -29.3680  -18.3800   20.1070 C   0  0  0  0  0  0  0  0  0  0  0  0
  -30.3010  -18.1500   21.1710 C   0  0  0  0  0  0  0  0  0  0  0  0
  -31.7810  -19.3150   22.9960 C   0  0  0  0  0  1  0  0  0  0  0  0
  -28.4580  -17.3040   19.5310 C   0  0  0  0  0  1  0  0  0  0  0  0
  -30.6860  -16.7180   21.7200 C   0  0  0  0  0  2  0  0  0  0  0  0
  -30.6620  -14.5480   20.2590 C   0  0  0  0  0  0  0  0  0  0  0  0
  -30.2820  -12.4110   19.0080 C   0  0  0  0  0  2  0  0  0  0  0  0
  -29.3090  -12.6340   17.8340 C   0  0  0  0  0  2  0  0  0  0  0  0
  -27.8480  -12.4570   18.2990 C   0  0  0  0  0  2  0  0  0  0  0  0
  -27.5460  -13.2690   19.5920 C   0  0  0  0  0  3  0  0  0  0  0  0
  -28.6430  -13.0530   20.6630 C   0  0  0  0  0  2  0  0  0  0  0  0
  -29.9520  -13.3840   20.0720 N   0  0  0  0  0  0  0  0  0  0  0  0
  -31.7090  -14.7720   19.6410 O   0  0  0  0  0  0  0  0  0  0  0  0
  -30.1460  -15.4430   21.1400 N   0  0  0  0  0  0  0  0  0  0  0  0
  -29.3020  -15.1200   21.5790 H   0  0  0  0  0  0  0  0  0  0  0  0
  -25.1720  -13.8660   20.4070 C   0  0  0  0  0  0  0  0  0  0  0  0
  -24.1200  -13.0980   20.8170 C   0  0  0  0  0  0  0  0  0  0  0  0
  -24.5800  -11.7430   20.7630 C   0  0  0  0  0  0  0  0  0  0  0  0
  -26.2080  -12.9880   20.1200 N   0  0  0  0  0  0  0  0  0  0  0  0
  -25.8590  -11.7050   20.3990 N   0  0  0  0  0  0  0  0  0  0  0  0
  -23.8620  -10.4830   20.9840 C   0  0  0  0  0  0  0  0  0  0  0  0
  -24.3320   -9.5100   21.8910 C   0  0  0  0  0  3  0  0  0  0  0  0
  -23.6130   -8.3150   22.0990 C   0  0  0  0  0  3  0  0  0  0  0  0
  -22.4090   -8.0780   21.3950 C   0  0  0  0  0  0  0  0  0  0  0  0
  -21.9540   -9.0410   20.4750 C   0  0  0  0  0  3  0  0  0  0  0  0
  -22.6750  -10.2290   20.2670 C   0  0  0  0  0  3  0  0  0  0  0  0
  -21.6570   -6.9340   21.5130 O   0  0  0  0  0  0  0  0  0  0  0  0
  -21.6620   -6.1830   22.6600 C   0  0  0  0  0  0  0  0  0  0  0  0
  -21.3040   -6.7310   23.9140 C   0  0  0  0  0  3  0  0  0  0  0  0
  -21.2550   -5.9050   25.0540 C   0  0  0  0  0  3  0  0  0  0  0  0
  -21.5560   -4.5350   24.9440 C   0  0  0  0  0  0  0  0  0  0  0  0
  -21.9050   -3.9870   23.6980 C   0  0  0  0  0  3  0  0  0  0  0  0
  -21.9570   -4.8080   22.5580 C   0  0  0  0  0  0  0  0  0  0  0  0
  -22.2720   -4.2720   21.3540 F   0  0  0  0  0  0  0  0  0  0  0  0
  -21.5010   -3.7360   26.0370 F   0  0  0  0  0  0  0  0  0  0  0  0
  -22.7340  -13.5790   21.1460 C   0  0  0  0  0  0  0  0  0  0  0  0
  -22.0310  -12.8980   22.0380 N   0  0  0  0  0  0  0  0  0  0  0  0
  -22.2820  -14.6060   20.6380 O   0  0  0  0  0  0  0  0  0  0  0  0
  -22.4070  -12.0780   22.4890 H   0  0  0  0  0  0  0  0  0  0  0  0
  -21.1010  -13.2120   22.2800 H   0  0  0  0  0  0  0  0  0  0  0  0
  -25.3300  -15.2390   20.2300 N   0  0  0  0  0  0  0  0  0  0  0  0
  -24.5610  -15.8850   20.3750 H   0  0  0  0  0  0  0  0  0  0  0  0
  -26.1690  -15.6840   19.8860 H   0  0  0  0  0  0  0  0  0  0  0  0
  1  3  1  0
  1  4  1  0
  2  7  1  0
  3  9  1  0
  3  2  1  0
  4  5  1  1
  6  4  1  0
  7  4  1  0
  7  8  1  1
 10 21  2  0
 11  9  1  0
 11 16  1  0
 12 20  1  0
 12 22  1  0
 13 19  1  0
 13 15  1  0
 14 20  1  0
 15 14  1  0
 16 15  2  0
 17 18  1  0
 17 11  2  0
 18 13  2  0
 19 12  1  0
 20 10  1  0
 22 24  2  0
 23 22  1  0
 25 23  1  0
 26 35  2  0
 26 31  1  0
 27 23  1  0
 27 31  1  0
 28 27  1  0
 29 30  1  0
 29 28  1  0
 30 26  1  0
 31 32  2  0
 32 33  1  0
 34 33  2  0
 35 34  1  0
 36 10  1  0
 36 41  1  0
 36 37  1  0
 37 40  1  1
 37 38  1  0
 39 37  1  0
 41 44  1  0
 42 46  1  0
 42 41  1  0
 43 42  2  0
 46 45  1  0
 48 46  1  0
 48 49  1  0
 48 47  1  0
 50 53  1  0
 50  7  1  0
 51 54  1  0
 52 55  2  0
 52 53  1  0
 53 51  2  0
 54 57  1  0
 55 56  1  0
 56 59  1  0
 56 54  2  0
 58 55  1  0
 60 68  1  0
 61 66  1  0
 62 63  1  0
 62 61  1  0
 64 63  1  0
 64 73  1  0
 64 65  1  0
 66 60  1  0
 66 65  1  0
 67 60  2  0
 68 69  1  0
 68 59  1  0
 70 71  2  0
 71 90  1  0
 72 71  1  0
 72 75  1  0
 73 74  1  0
 73 70  1  0
 74 72  2  0
 75 76  1  0
 76 77  2  0
 78 81  1  0
 78 77  1  0
 79 78  2  0
 80 79  1  0
 80 75  2  0
 81 82  1  0
 82 83  1  0
 83 84  2  0
 85 84  1  0
 85 89  1  0
 86 85  2  0
 87 82  2  0
 87 86  1  0
 88 87  1  0
 90 91  1  0
 91 94  1  0
 91 93  1  0
 92 90  2  0
 95 96  1  0
 95 70  1  0
 97 95  1  0
M  ISO  4   3 101   9 101  60 100  68 100
M  END
>  <TORSDO>  (29) 
F 19

>  <SCORE>  (29) 
-14.280

>  <name>  (29) 
28

>  <ligand_id>  (29) 
28

>  <original_smiles>  (29) 
[H]c1c([H])c([H])c2c(c1[H])C([H])([H])C([H])([H])C([H])([H])C2([H])N([H])C(=O)C1([H])N(C(=O)C([H])(N([H])C(=O)C([H])(N([H])C([H])([H])[H])C([H])([H])[H])C(C([H])([H])[H])(C([H])([H])[H])C([H])([H])[H])C([H])([H])c2c([H])c(OC3([H])C([H])([H])C(C([H])([H])[H])(C([H])([H])[H])[N+]([H])(C([H])([H])c4c([H])c(C([H])([H])[H])c(C([H])([H])N([H])C(=O)N5C([H])([H])C([H])([H])C([H])([H])C([H])(n6nc(-c7c([H])c([H])c(Oc8c([H])c([H])c(F)c([H])c8F)c([H])c7[H])c(C(=O)N([H])[H])c6N([H])[H])C5([H])[H])c(C([H])([H])[H])c4[H])C3([H])[H])c([H])c([H])c2C1([H])[H]

>  <smiles>  (29) 
[H]c1c([H])c([H])c2c(c1[H])C([H])([H])C([H])([H])C([H])([H])C2([H])N([H])C(=O)C1([H])N(C(=O)C([H])(N([H])C(=O)C([H])(N([H])C([H])([H])[H])C([H])([H])[H])C(C([H])([H])[H])(C([H])([H])[H])C([H])([H])[H])C([H])([H])c2c([H])c(OC3([H])C([H])([H])C(C([H])([H])[H])(C([H])([H])[H])[N+]([H])(C([H])([H])c4c([H])c(C([H])([H])[H])c(C([H])([H])N([H])C(=O)N5C([H])([H])C([H])([H])C([H])([H])C([H])(n6nc(-c7c([H])c([H])c(Oc8c([H])c([H])c(F)c([H])c8F)c([H])c7[H])c(C(=O)N([H])[H])c6N([H])[H])C5([H])[H])c(C([H])([H])[H])c4[H])C3([H])[H])c([H])c([H])c2C1([H])[H]

$$$$
29:0:0
     RDKit          3D

 96105  0  0  1  0  0  0  0  0999 V2000
  -29.4280  -25.1740   21.6880 C   0  0  0  0  0  2  0  0  0  0  0  0
  -30.6490  -24.6290   20.9460 C   0  0  0  0  0  2  0  0  0  0  0  0
  -28.2570  -24.1170   19.6620 C   0  0  0  0  0  2  0  0  0  0  0  0
  -28.2360  -25.2720   20.7300 C   0  0  0  0  0  3  0  0  0  0  0  0
  -30.4270  -23.1450   20.5760 C   0  0  0  0  0  3  0  0  0  0  0  0
  -31.5430  -22.6360   19.6500 C   0  0  0  0  0  1  0  0  0  0  0  0
  -29.0830  -22.8820   19.9710 N   0  0  1  0  0  4  0  0  0  0  0  0
  -29.3000  -22.5350   19.0480 H   0  0  0  0  0  0  0  0  0  0  0  0
  -28.3300  -26.6040   20.1440 O   0  0  0  0  0  0  0  0  0  0  0  0
  -24.6190  -31.8960   23.2250 C   0  0  0  0  0  0  0  0  0  0  0  0
  -27.1870  -27.3840   20.1550 C   0  0  0  0  0  0  0  0  0  0  0  0
  -23.3920  -30.4980   21.5950 C   0  0  0  0  0  3  0  0  0  0  0  0
  -24.8220  -28.9470   20.1600 C   0  0  0  0  0  0  0  0  0  0  0  0
  -25.9220  -30.8290   21.3830 C   0  0  0  0  0  2  0  0  0  0  0  0
  -25.9910  -29.4540   20.7420 C   0  0  0  0  0  0  0  0  0  0  0  0
  -27.1810  -28.6810   20.7320 C   0  0  0  0  0  3  0  0  0  0  0  0
  -26.0030  -26.9020   19.5600 C   0  0  0  0  0  3  0  0  0  0  0  0
  -24.8270  -27.6740   19.5630 C   0  0  0  0  0  3  0  0  0  0  0  0
  -23.5860  -29.8180   20.2150 C   0  0  0  0  0  2  0  0  0  0  0  0
  -24.6620  -31.0910   22.1240 N   0  0  0  0  0  0  0  0  0  0  0  0
  -23.5440  -32.1750   23.7740 O   0  0  0  0  0  0  0  0  0  0  0  0
  -22.7440  -29.4830   22.5630 C   0  0  0  0  0  0  0  0  0  0  0  0
  -21.4180  -29.3050   22.4480 N   0  0  0  0  0  0  0  0  0  0  0  0
  -23.4320  -28.8580   23.3740 O   0  0  0  0  0  0  0  0  0  0  0  0
  -20.9240  -29.8540   21.7580 H   0  0  0  0  0  0  0  0  0  0  0  0
  -18.0460  -28.1160   22.9720 C   0  0  0  0  0  0  0  0  0  0  0  0
  -20.6050  -28.3710   23.2280 C   0  0  0  0  0  3  0  0  0  0  0  0
  -20.7040  -26.9380   22.6590 C   0  0  0  0  0  2  0  0  0  0  0  0
  -19.5970  -26.6120   21.6520 C   0  0  0  0  0  2  0  0  0  0  0  0
  -18.2170  -26.7620   22.3010 C   0  0  0  0  0  2  0  0  0  0  0  0
  -19.1670  -28.8780   23.3930 C   0  0  0  0  0  0  0  0  0  0  0  0
  -18.9540  -30.1440   23.9770 C   0  0  0  0  0  3  0  0  0  0  0  0
  -17.6500  -30.6510   24.1430 C   0  0  0  0  0  3  0  0  0  0  0  0
  -16.5430  -29.8830   23.7450 C   0  0  0  0  0  3  0  0  0  0  0  0
  -16.7420  -28.6180   23.1640 C   0  0  0  0  0  3  0  0  0  0  0  0
  -25.9130  -32.5230   23.8320 C   0  0  0  0  0  3  0  0  0  0  0  0
  -26.4520  -31.7410   25.0920 C   0  0  1  0  0  0  0  0  0  0  0  0
  -25.3780  -31.4920   26.1760 C   0  0  0  0  0  1  0  0  0  0  0  0
  -27.0310  -30.3690   24.6760 C   0  0  0  0  0  1  0  0  0  0  0  0
  -27.6160  -32.5280   25.7380 C   0  0  0  0  0  1  0  0  0  0  0  0
  -25.6100  -33.9180   24.1800 N   0  0  0  0  0  0  0  0  0  0  0  0
  -25.9260  -34.9770   23.4230 C   0  0  0  0  0  0  0  0  0  0  0  0
  -26.5760  -34.8830   22.3780 O   0  0  0  0  0  0  0  0  0  0  0  0
  -25.0350  -34.0640   24.9970 H   0  0  0  0  0  0  0  0  0  0  0  0
  -24.1850  -36.7620   23.1200 C   0  0  0  0  0  1  0  0  0  0  0  0
  -25.4440  -36.3590   23.9030 C   0  0  0  0  0  3  0  0  0  0  0  0
  -27.5950  -37.2410   24.6900 C   0  0  0  0  0  1  0  0  0  0  0  0
  -26.4700  -37.4170   23.7750 N   0  0  0  0  0  0  0  0  0  0  0  0
  -26.0650  -38.3330   23.9440 H   0  0  0  0  0  0  0  0  0  0  0  0
  -28.3590  -21.7000   20.5650 C   0  0  0  0  0  2  0  0  0  0  0  0
  -29.4920  -17.7260   18.9980 C   0  0  0  0  0  3  0  0  0  0  0  0
  -28.9180  -18.6960   18.1580 C   0  0  0  0  0  3  0  0  0  0  0  0
  -29.3730  -19.3060   20.8490 C   0  0  0  0  0  3  0  0  0  0  0  0
  -29.7230  -18.0100   20.3570 C   0  0  0  0  0  0  0  0  0  0  0  0
  -28.5580  -19.9720   18.6480 C   0  0  0  0  0  0  0  0  0  0  0  0
  -28.7930  -20.3100   20.0060 C   0  0  0  0  0  0  0  0  0  0  0  0
  -27.9150  -20.9470   17.6720 C   0  0  0  0  0  1  0  0  0  0  0  0
  -30.4010  -16.9330   21.2420 C   0  0  0  0  0  2  0  0  0  0  0  0
  -30.6690  -14.5060   20.4920 C   0  0  0  0  0  0  0  0  0  0  0  0
  -30.3770  -12.3330   19.3370 C   0  0  0  0  0  2  0  0  0  0  0  0
  -29.4300  -12.5260   18.1350 C   0  0  0  0  0  2  0  0  0  0  0  0
  -27.9550  -12.3990   18.5640 C   0  0  0  0  0  2  0  0  0  0  0  0
  -27.6240  -13.2280   19.8330 C   0  0  0  0  0  3  0  0  0  0  0  0
  -28.6830  -13.0070   20.9350 C   0  0  0  0  0  2  0  0  0  0  0  0
  -30.0010  -13.3240   20.3600 N   0  0  0  0  0  0  0  0  0  0  0  0
  -31.8010  -14.6770   20.0310 O   0  0  0  0  0  0  0  0  0  0  0  0
  -29.9660  -15.5270   21.0310 N   0  0  0  0  0  0  0  0  0  0  0  0
  -29.0370  -15.3020   21.3500 H   0  0  0  0  0  0  0  0  0  0  0  0
  -25.2260  -13.8460   20.5250 C   0  0  0  0  0  0  0  0  0  0  0  0
  -24.1520  -13.0800   20.8940 C   0  0  0  0  0  0  0  0  0  0  0  0
  -24.6090  -11.7250   20.8720 C   0  0  0  0  0  0  0  0  0  0  0  0
  -26.2680  -12.9600   20.3100 N   0  0  0  0  0  0  0  0  0  0  0  0
  -25.9000  -11.6800   20.5730 N   0  0  0  0  0  0  0  0  0  0  0  0
  -23.8760  -10.4660   21.0660 C   0  0  0  0  0  0  0  0  0  0  0  0
  -24.3180   -9.4930   21.9900 C   0  0  0  0  0  3  0  0  0  0  0  0
  -23.5900   -8.2990   22.1730 C   0  0  0  0  0  3  0  0  0  0  0  0
  -22.4040   -8.0670   21.4340 C   0  0  0  0  0  0  0  0  0  0  0  0
  -21.9790   -9.0310   20.5010 C   0  0  0  0  0  3  0  0  0  0  0  0
  -22.7090  -10.2170   20.3170 C   0  0  0  0  0  3  0  0  0  0  0  0
  -21.6490   -6.9240   21.5280 O   0  0  0  0  0  0  0  0  0  0  0  0
  -21.6280   -6.1620   22.6680 C   0  0  0  0  0  0  0  0  0  0  0  0
  -21.2570   -6.7030   23.9180 C   0  0  0  0  0  3  0  0  0  0  0  0
  -21.1860   -5.8700   25.0530 C   0  0  0  0  0  3  0  0  0  0  0  0
  -21.4730   -4.4980   24.9390 C   0  0  0  0  0  0  0  0  0  0  0  0
  -21.8320   -3.9550   23.6930 C   0  0  0  0  0  3  0  0  0  0  0  0
  -21.9080   -4.7850   22.5600 C   0  0  0  0  0  0  0  0  0  0  0  0
  -22.2390   -4.2540   21.3590 F   0  0  0  0  0  0  0  0  0  0  0  0
  -21.3940   -3.6930   26.0260 F   0  0  0  0  0  0  0  0  0  0  0  0
  -22.7550  -13.5650   21.1550 C   0  0  0  0  0  0  0  0  0  0  0  0
  -22.0200  -12.8790   22.0240 N   0  0  0  0  0  0  0  0  0  0  0  0
  -22.3210  -14.5840   20.6190 O   0  0  0  0  0  0  0  0  0  0  0  0
  -22.3750  -12.0540   22.4810 H   0  0  0  0  0  0  0  0  0  0  0  0
  -21.0810  -13.1900   22.2350 H   0  0  0  0  0  0  0  0  0  0  0  0
  -25.3980  -15.2130   20.3330 N   0  0  0  0  0  0  0  0  0  0  0  0
  -24.6310  -15.8720   20.4090 H   0  0  0  0  0  0  0  0  0  0  0  0
  -26.2470  -15.6390   19.9780 H   0  0  0  0  0  0  0  0  0  0  0  0
  2  1  1  0
  3  7  1  0
  3  4  1  0
  4  9  1  0
  4  1  1  0
  5  6  1  0
  5  2  1  0
  7 50  1  0
  7  5  1  0
  7  8  1  6
  9 11  1  0
 10 21  2  0
 11 16  1  0
 12 20  1  0
 12 22  1  0
 13 19  1  0
 13 15  1  0
 14 20  1  0
 15 14  1  0
 16 15  2  0
 17 18  1  0
 17 11  2  0
 18 13  2  0
 19 12  1  0
 20 10  1  0
 22 24  2  0
 23 22  1  0
 25 23  1  0
 26 35  2  0
 26 31  1  0
 27 23  1  0
 27 31  1  0
 28 27  1  0
 29 30  1  0
 29 28  1  0
 30 26  1  0
 31 32  2  0
 32 33  1  0
 34 33  2  0
 35 34  1  0
 36 10  1  0
 36 41  1  0
 36 37  1  0
 37 40  1  1
 37 38  1  0
 39 37  1  0
 41 44  1  0
 42 46  1  0
 42 41  1  0
 43 42  2  0
 46 45  1  0
 48 46  1  0
 48 49  1  0
 48 47  1  0
 51 54  1  0
 52 55  1  0
 52 51  2  0
 54 53  2  0
 54 58  1  0
 55 56  2  0
 56 50  1  0
 56 53  1  0
 57 55  1  0
 59 67  1  0
 60 65  1  0
 61 62  1  0
 61 60  1  0
 63 62  1  0
 63 72  1  0
 63 64  1  0
 65 59  1  0
 65 64  1  0
 66 59  2  0
 67 58  1  0
 67 68  1  0
 69 70  2  0
 70 89  1  0
 71 70  1  0
 71 74  1  0
 72 69  1  0
 72 73  1  0
 73 71  2  0
 74 75  1  0
 75 76  2  0
 77 80  1  0
 77 76  1  0
 78 77  2  0
 79 78  1  0
 79 74  2  0
 80 81  1  0
 81 82  1  0
 82 83  2  0
 84 83  1  0
 84 88  1  0
 85 84  2  0
 86 81  2  0
 86 85  1  0
 87 86  1  0
 89 90  1  0
 90 93  1  0
 90 92  1  0
 91 89  2  0
 94 95  1  0
 94 69  1  0
 96 94  1  0
M  ISO  4   4 101   9 101  59 100  67 100
M  END
>  <TORSDO>  (30) 
F 19

>  <SCORE>  (30) 
-14.696

>  <name>  (30) 
29

>  <ligand_id>  (30) 
29

>  <original_smiles>  (30) 
[H]c1c([H])c([H])c2c(c1[H])C([H])([H])C([H])([H])C([H])([H])C2([H])N([H])C(=O)C1([H])N(C(=O)C([H])(N([H])C(=O)C([H])(N([H])C([H])([H])[H])C([H])([H])[H])C(C([H])([H])[H])(C([H])([H])[H])C([H])([H])[H])C([H])([H])c2c([H])c(OC3([H])C([H])([H])C([H])([H])C([H])(C([H])([H])[H])[N+]([H])(C([H])([H])c4c([H])c(C([H])([H])N([H])C(=O)N5C([H])([H])C([H])([H])C([H])([H])C([H])(n6nc(-c7c([H])c([H])c(Oc8c([H])c([H])c(F)c([H])c8F)c([H])c7[H])c(C(=O)N([H])[H])c6N([H])[H])C5([H])[H])c([H])c([H])c4C([H])([H])[H])C3([H])[H])c([H])c([H])c2C1([H])[H]

>  <smiles>  (30) 
[H]c1c([H])c([H])c2c(c1[H])C([H])([H])C([H])([H])C([H])([H])C2([H])N([H])C(=O)C1([H])N(C(=O)C([H])(N([H])C(=O)C([H])(N([H])C([H])([H])[H])C([H])([H])[H])C(C([H])([H])[H])(C([H])([H])[H])C([H])([H])[H])C([H])([H])c2c([H])c(OC3([H])C([H])([H])C([H])([H])C([H])(C([H])([H])[H])[N+]([H])(C([H])([H])c4c([H])c(C([H])([H])N([H])C(=O)N5C([H])([H])C([H])([H])C([H])([H])C([H])(n6nc(-c7c([H])c([H])c(Oc8c([H])c([H])c(F)c([H])c8F)c([H])c7[H])c(C(=O)N([H])[H])c6N([H])[H])C5([H])[H])c([H])c([H])c4C([H])([H])[H])C3([H])[H])c([H])c([H])c2C1([H])[H]

$$$$
30:0:0
     RDKit          3D

 97106  0  0  1  0  0  0  0  0999 V2000
  -30.2220  -22.7060   20.7420 C   0  0  0  0  0  2  0  0  0  0  0  0
  -30.6270  -20.4870   21.8550 C   0  0  0  0  0  3  0  0  0  0  0  0
  -30.7960  -19.0920   21.8350 C   0  0  0  0  0  0  0  0  0  0  0  0
  -30.1150  -21.1760   20.7370 C   0  0  0  0  0  0  0  0  0  0  0  0
  -29.6040  -20.4320   19.6390 C   0  0  0  0  0  0  0  0  0  0  0  0
  -29.7210  -19.0130   19.6370 C   0  0  0  0  0  0  0  0  0  0  0  0
  -30.4170  -18.3560   20.6870 C   0  0  0  0  0  0  0  0  0  0  0  0
  -31.4880  -18.4340   23.0190 C   0  0  0  0  0  1  0  0  0  0  0  0
  -28.9930  -21.1340   18.4260 C   0  0  0  0  0  1  0  0  0  0  0  0
  -29.1860  -18.2050   18.4590 C   0  0  0  0  0  1  0  0  0  0  0  0
  -31.0470  -16.9820   20.4500 C   0  0  0  0  0  2  0  0  0  0  0  0
  -30.8430  -14.6080   20.1680 C   0  0  0  0  0  0  0  0  0  0  0  0
  -30.3920  -12.4820   19.0430 C   0  0  0  0  0  2  0  0  0  0  0  0
  -29.4350  -12.7190   17.8610 C   0  0  0  0  0  2  0  0  0  0  0  0
  -27.9760  -12.6050   18.3360 C   0  0  0  0  0  2  0  0  0  0  0  0
  -27.6830  -13.4350   19.6170 C   0  0  0  0  0  3  0  0  0  0  0  0
  -28.7760  -13.2410   20.6940 C   0  0  0  0  0  2  0  0  0  0  0  0
  -30.0800  -13.4900   20.0690 N   0  0  0  0  0  0  0  0  0  0  0  0
  -31.9730  -14.6640   19.6810 O   0  0  0  0  0  0  0  0  0  0  0  0
  -30.2830  -15.7380   20.6380 N   0  0  0  0  0  0  0  0  0  0  0  0
  -29.3310  -15.7530   20.9690 H   0  0  0  0  0  0  0  0  0  0  0  0
  -25.3060  -14.0160   20.4050 C   0  0  0  0  0  0  0  0  0  0  0  0
  -24.2550  -13.2330   20.8020 C   0  0  0  0  0  0  0  0  0  0  0  0
  -24.7240  -11.8840   20.7540 C   0  0  0  0  0  0  0  0  0  0  0  0
  -26.3500  -13.1430   20.1400 N   0  0  0  0  0  0  0  0  0  0  0  0
  -26.0060  -11.8570   20.4080 N   0  0  0  0  0  0  0  0  0  0  0  0
  -24.0130  -10.6160   20.9600 C   0  0  0  0  0  0  0  0  0  0  0  0
  -24.4610   -9.6600   21.8980 C   0  0  0  0  0  3  0  0  0  0  0  0
  -23.7450   -8.4570   22.0910 C   0  0  0  0  0  3  0  0  0  0  0  0
  -22.5700   -8.2030   21.3450 C   0  0  0  0  0  0  0  0  0  0  0  0
  -22.1420   -9.1470   20.3970 C   0  0  0  0  0  3  0  0  0  0  0  0
  -22.8560  -10.3400   20.2010 C   0  0  0  0  0  3  0  0  0  0  0  0
  -21.8290   -7.0490   21.4470 O   0  0  0  0  0  0  0  0  0  0  0  0
  -21.7880   -6.3180   22.6060 C   0  0  0  0  0  0  0  0  0  0  0  0
  -21.3320   -6.8750   23.8210 C   0  0  0  0  0  3  0  0  0  0  0  0
  -21.2410   -6.0700   24.9750 C   0  0  0  0  0  3  0  0  0  0  0  0
  -21.5960   -4.7100   24.9140 C   0  0  0  0  0  0  0  0  0  0  0  0
  -22.0440   -4.1520   23.7040 C   0  0  0  0  0  3  0  0  0  0  0  0
  -22.1370   -4.9540   22.5530 C   0  0  0  0  0  0  0  0  0  0  0  0
  -22.5500   -4.4070   21.3840 F   0  0  0  0  0  0  0  0  0  0  0  0
  -21.5010   -3.9340   26.0190 F   0  0  0  0  0  0  0  0  0  0  0  0
  -22.8630  -13.7000   21.1160 C   0  0  0  0  0  0  0  0  0  0  0  0
  -22.1670  -12.9960   22.0020 N   0  0  0  0  0  0  0  0  0  0  0  0
  -22.4040  -14.7230   20.6130 O   0  0  0  0  0  0  0  0  0  0  0  0
  -22.5540  -12.1680   22.4300 H   0  0  0  0  0  0  0  0  0  0  0  0
  -21.2350  -13.2920   22.2550 H   0  0  0  0  0  0  0  0  0  0  0  0
  -25.4560  -15.3870   20.2290 N   0  0  0  0  0  0  0  0  0  0  0  0
  -24.6910  -16.0370   20.3720 H   0  0  0  0  0  0  0  0  0  0  0  0
  -26.2930  -15.8330   19.8750 H   0  0  0  0  0  0  0  0  0  0  0  0
  -27.3350  -24.1680   22.5870 C   0  0  0  0  0  2  0  0  0  0  0  0
  -28.1500  -25.3860   22.1570 C   0  0  0  0  0  2  0  0  0  0  0  0
  -28.2650  -23.0060   22.2580 C   0  0  0  0  0  2  0  0  0  0  0  0
  -29.0130  -24.8990   20.9720 C   0  0  0  0  0  3  0  0  0  0  0  0
  -28.9390  -23.4030   21.0010 N   0  0  1  0  0  4  0  0  0  0  0  0
  -28.3100  -23.1160   20.2660 H   0  0  0  0  0  0  0  0  0  0  0  0
  -28.5560  -25.4720   19.6130 C   0  0  0  0  0  2  0  0  0  0  0  0
  -28.5690  -26.9130   19.6350 O   0  0  0  0  0  0  0  0  0  0  0  0
  -24.6080  -31.7260   23.0590 C   0  0  0  0  0  0  0  0  0  0  0  0
  -27.3630  -27.5840   19.6740 C   0  0  0  0  0  0  0  0  0  0  0  0
  -23.4320  -30.3890   21.3420 C   0  0  0  0  0  3  0  0  0  0  0  0
  -24.9200  -29.0080   19.8040 C   0  0  0  0  0  0  0  0  0  0  0  0
  -25.9400  -30.8540   21.1420 C   0  0  0  0  0  2  0  0  0  0  0  0
  -26.0660  -29.5300   20.4190 C   0  0  0  0  0  0  0  0  0  0  0  0
  -27.2880  -28.8250   20.3520 C   0  0  0  0  0  3  0  0  0  0  0  0
  -26.1990  -27.0920   19.0340 C   0  0  0  0  0  3  0  0  0  0  0  0
  -24.9810  -27.7890   19.1110 C   0  0  0  0  0  3  0  0  0  0  0  0
  -23.6470  -29.8130   19.9180 C   0  0  0  0  0  2  0  0  0  0  0  0
  -24.6790  -31.0010   21.9080 N   0  0  0  0  0  0  0  0  0  0  0  0
  -23.5240  -31.9260   23.6230 O   0  0  0  0  0  0  0  0  0  0  0  0
  -22.8300  -29.2850   22.2390 C   0  0  0  0  0  0  0  0  0  0  0  0
  -21.5100  -29.0720   22.1220 N   0  0  0  0  0  0  0  0  0  0  0  0
  -23.5480  -28.6230   22.9940 O   0  0  0  0  0  0  0  0  0  0  0  0
  -20.9920  -29.6580   21.4800 H   0  0  0  0  0  0  0  0  0  0  0  0
  -18.1710  -27.7820   22.6220 C   0  0  0  0  0  0  0  0  0  0  0  0
  -20.7310  -28.0610   22.8360 C   0  0  0  0  0  3  0  0  0  0  0  0
  -20.8380  -26.6820   22.1420 C   0  0  0  0  0  2  0  0  0  0  0  0
  -19.7090  -26.4250   21.1370 C   0  0  0  0  0  2  0  0  0  0  0  0
  -18.3470  -26.4940   21.8330 C   0  0  0  0  0  2  0  0  0  0  0  0
  -19.2910  -28.5270   23.0770 C   0  0  0  0  0  0  0  0  0  0  0  0
  -19.0730  -29.7370   23.7720 C   0  0  0  0  0  3  0  0  0  0  0  0
  -17.7680  -30.2010   24.0160 C   0  0  0  0  0  3  0  0  0  0  0  0
  -16.6630  -29.4500   23.5770 C   0  0  0  0  0  3  0  0  0  0  0  0
  -16.8640  -28.2430   22.8840 C   0  0  0  0  0  3  0  0  0  0  0  0
  -25.8780  -32.3610   23.7050 C   0  0  0  0  0  3  0  0  0  0  0  0
  -26.4140  -31.5490   24.9470 C   0  0  1  0  0  0  0  0  0  0  0  0
  -25.3270  -31.2410   26.0010 C   0  0  0  0  0  1  0  0  0  0  0  0
  -27.0250  -30.2030   24.4920 C   0  0  0  0  0  1  0  0  0  0  0  0
  -27.5450  -32.3440   25.6440 C   0  0  0  0  0  1  0  0  0  0  0  0
  -25.5340  -33.7360   24.0890 N   0  0  0  0  0  0  0  0  0  0  0  0
  -25.8670  -34.8270   23.3850 C   0  0  0  0  0  0  0  0  0  0  0  0
  -26.5630  -34.7820   22.3680 O   0  0  0  0  0  0  0  0  0  0  0  0
  -24.9110  -33.8450   24.8750 H   0  0  0  0  0  0  0  0  0  0  0  0
  -24.1220  -36.6090   23.0600 C   0  0  0  0  0  1  0  0  0  0  0  0
  -25.3410  -36.1820   23.8930 C   0  0  0  0  0  3  0  0  0  0  0  0
  -27.4270  -37.0590   24.8460 C   0  0  0  0  0  1  0  0  0  0  0  0
  -26.3580  -37.2540   23.8690 N   0  0  0  0  0  0  0  0  0  0  0  0
  -25.9300  -38.1590   24.0440 H   0  0  0  0  0  0  0  0  0  0  0  0
  1 54  1  0
  3  2  1  0
  3  8  1  0
  4  1  1  0
  4  2  2  0
  5  4  1  0
  6  5  2  0
  6  7  1  0
  7  3  2  0
  9  5  1  0
 10  6  1  0
 11 20  1  0
 11  7  1  0
 12 20  1  0
 13 18  1  0
 14 15  1  0
 14 13  1  0
 16 15  1  0
 16 25  1  0
 16 17  1  0
 18 12  1  0
 18 17  1  0
 19 12  2  0
 20 21  1  0
 22 23  2  0
 23 42  1  0
 24 23  1  0
 24 27  1  0
 25 22  1  0
 25 26  1  0
 26 24  2  0
 27 28  1  0
 28 29  2  0
 30 33  1  0
 30 29  1  0
 31 30  2  0
 32 31  1  0
 32 27  2  0
 33 34  1  0
 34 35  1  0
 35 36  2  0
 37 36  1  0
 37 41  1  0
 38 37  2  0
 39 34  2  0
 39 38  1  0
 40 39  1  0
 42 43  1  0
 43 46  1  0
 43 45  1  0
 44 42  2  0
 47 48  1  0
 47 22  1  0
 49 47  1  0
 51 50  1  0
 52 50  1  0
 53 56  1  0
 53 54  1  0
 53 51  1  0
 54 52  1  0
 54 55  1  6
 56 57  1  0
 57 59  1  0
 58 69  2  0
 59 64  1  0
 60 68  1  0
 60 70  1  0
 61 67  1  0
 61 63  1  0
 62 68  1  0
 63 62  1  0
 64 63  2  0
 65 66  1  0
 65 59  2  0
 66 61  2  0
 67 60  1  0
 68 58  1  0
 70 72  2  0
 71 70  1  0
 73 71  1  0
 74 83  2  0
 74 79  1  0
 75 71  1  0
 75 79  1  0
 76 75  1  0
 77 78  1  0
 77 76  1  0
 78 74  1  0
 79 80  2  0
 80 81  1  0
 82 81  2  0
 83 82  1  0
 84 58  1  0
 84 89  1  0
 84 85  1  0
 85 88  1  1
 85 86  1  0
 87 85  1  0
 89 92  1  0
 90 94  1  0
 90 89  1  0
 91 90  2  0
 94 93  1  0
 96 94  1  0
 96 97  1  0
 96 95  1  0
M  ISO  4  12 100  20 100  56 101  57 101
M  END
>  <TORSDO>  (31) 
F 20

>  <SCORE>  (31) 
-12.774

>  <name>  (31) 
30

>  <ligand_id>  (31) 
30

>  <original_smiles>  (31) 
[H]c1c([H])c([H])c2c(c1[H])C([H])([H])C([H])([H])C([H])([H])C2([H])N([H])C(=O)C1([H])N(C(=O)C([H])(N([H])C(=O)C([H])(N([H])C([H])([H])[H])C([H])([H])[H])C(C([H])([H])[H])(C([H])([H])[H])C([H])([H])[H])C([H])([H])c2c([H])c(OC([H])([H])C3([H])C([H])([H])C([H])([H])C([H])([H])[N+]3([H])C([H])([H])c3c([H])c(C([H])([H])[H])c(C([H])([H])N([H])C(=O)N4C([H])([H])C([H])([H])C([H])([H])C([H])(n5nc(-c6c([H])c([H])c(Oc7c([H])c([H])c(F)c([H])c7F)c([H])c6[H])c(C(=O)N([H])[H])c5N([H])[H])C4([H])[H])c(C([H])([H])[H])c3C([H])([H])[H])c([H])c([H])c2C1([H])[H]

>  <smiles>  (31) 
[H]c1c([H])c([H])c2c(c1[H])C([H])([H])C([H])([H])C([H])([H])C2([H])N([H])C(=O)C1([H])N(C(=O)C([H])(N([H])C(=O)C([H])(N([H])C([H])([H])[H])C([H])([H])[H])C(C([H])([H])[H])(C([H])([H])[H])C([H])([H])[H])C([H])([H])c2c([H])c(OC([H])([H])C3([H])C([H])([H])C([H])([H])C([H])([H])[N+]3([H])C([H])([H])c3c([H])c(C([H])([H])[H])c(C([H])([H])N([H])C(=O)N4C([H])([H])C([H])([H])C([H])([H])C([H])(n5nc(-c6c([H])c([H])c(Oc7c([H])c([H])c(F)c([H])c7F)c([H])c6[H])c(C(=O)N([H])[H])c5N([H])[H])C4([H])[H])c(C([H])([H])[H])c3C([H])([H])[H])c([H])c([H])c2C1([H])[H]

$$$$
31:0:0
     RDKit          3D

 94103  0  0  1  0  0  0  0  0999 V2000
  -29.3290  -19.4600   21.1000 C   0  0  0  0  0  3  0  0  0  0  0  0
  -30.6840  -20.8240   19.0880 C   0  0  0  0  0  3  0  0  0  0  0  0
  -28.9890  -20.8210   20.7940 C   0  0  0  0  0  0  0  0  0  0  0  0
  -30.3550  -18.7510   20.4170 C   0  0  0  0  0  0  0  0  0  0  0  0
  -29.6710  -21.5510   19.7710 C   0  0  0  0  0  0  0  0  0  0  0  0
  -31.0180  -19.4750   19.3930 C   0  0  0  0  0  0  0  0  0  0  0  0
  -27.8460  -21.4590   21.5650 C   0  0  0  0  0  1  0  0  0  0  0  0
  -32.0290  -18.8870   18.7090 F   0  0  0  0  0  0  0  0  0  0  0  0
  -29.3150  -23.3730   18.0560 C   0  0  0  0  0  0  0  0  0  0  0  0
  -29.3760  -22.6360   16.9340 C   0  0  0  0  0  2  0  0  0  0  0  0
  -29.1060  -24.8810   18.0470 C   0  0  0  0  0  2  0  0  0  0  0  0
  -29.2240  -24.0700   20.2820 C   0  0  0  0  0  2  0  0  0  0  0  0
  -28.5610  -25.2280   19.4390 C   0  0  0  0  0  3  0  0  0  0  0  0
  -29.3430  -22.9000   19.3650 N   0  0  0  0  0  0  0  0  0  0  0  0
  -28.6820  -26.6780   19.7630 O   0  0  0  0  0  0  0  0  0  0  0  0
  -24.6230  -31.6550   23.0680 C   0  0  0  0  0  0  0  0  0  0  0  0
  -27.5230  -27.4790   19.7330 C   0  0  0  0  0  0  0  0  0  0  0  0
  -23.5200  -30.3100   21.3190 C   0  0  0  0  0  3  0  0  0  0  0  0
  -25.0720  -28.9590   19.8050 C   0  0  0  0  0  0  0  0  0  0  0  0
  -26.0400  -30.7840   21.1970 C   0  0  0  0  0  2  0  0  0  0  0  0
  -26.2050  -29.4640   20.4540 C   0  0  0  0  0  0  0  0  0  0  0  0
  -27.4330  -28.7350   20.4120 C   0  0  0  0  0  3  0  0  0  0  0  0
  -26.3610  -27.0440   19.0510 C   0  0  0  0  0  3  0  0  0  0  0  0
  -25.1520  -27.7560   19.0950 C   0  0  0  0  0  3  0  0  0  0  0  0
  -23.7860  -29.7540   19.8970 C   0  0  0  0  0  2  0  0  0  0  0  0
  -24.7440  -30.9300   21.9190 N   0  0  0  0  0  0  0  0  0  0  0  0
  -23.5190  -31.8310   23.6050 O   0  0  0  0  0  0  0  0  0  0  0  0
  -22.9100  -29.1870   22.1930 C   0  0  0  0  0  0  0  0  0  0  0  0
  -21.5910  -28.9630   22.0560 N   0  0  0  0  0  0  0  0  0  0  0  0
  -23.6200  -28.5270   22.9550 O   0  0  0  0  0  0  0  0  0  0  0  0
  -21.0750  -29.5530   21.4190 H   0  0  0  0  0  0  0  0  0  0  0  0
  -18.2580  -27.6410   22.5340 C   0  0  0  0  0  0  0  0  0  0  0  0
  -20.8180  -27.9330   22.7530 C   0  0  0  0  0  3  0  0  0  0  0  0
  -20.9320  -26.5700   22.0330 C   0  0  0  0  0  2  0  0  0  0  0  0
  -19.8040  -26.3240   21.0240 C   0  0  0  0  0  2  0  0  0  0  0  0
  -18.4410  -26.3710   21.7210 C   0  0  0  0  0  2  0  0  0  0  0  0
  -19.3740  -28.3830   23.0050 C   0  0  0  0  0  0  0  0  0  0  0  0
  -19.1470  -29.5750   23.7280 C   0  0  0  0  0  3  0  0  0  0  0  0
  -17.8380  -30.0250   23.9820 C   0  0  0  0  0  3  0  0  0  0  0  0
  -16.7370  -29.2790   23.5260 C   0  0  0  0  0  3  0  0  0  0  0  0
  -16.9480  -28.0890   22.8070 C   0  0  0  0  0  3  0  0  0  0  0  0
  -25.8590  -32.3140   23.7520 C   0  0  0  0  0  3  0  0  0  0  0  0
  -25.4840  -33.6870   24.1170 N   0  0  0  0  0  0  0  0  0  0  0  0
  -25.7670  -34.7750   23.3880 C   0  0  0  0  0  0  0  0  0  0  0  0
  -26.4420  -34.7310   22.3560 O   0  0  0  0  0  0  0  0  0  0  0  0
  -24.8830  -33.7920   24.9210 H   0  0  0  0  0  0  0  0  0  0  0  0
  -23.9480  -36.4860   23.0890 C   0  0  0  0  0  1  0  0  0  0  0  0
  -25.2150  -36.1270   23.8810 C   0  0  0  0  0  3  0  0  0  0  0  0
  -27.3000  -37.1080   24.7290 C   0  0  0  0  0  1  0  0  0  0  0  0
  -26.1920  -37.2320   23.7850 N   0  0  0  0  0  0  0  0  0  0  0  0
  -25.7400  -38.1290   23.9440 H   0  0  0  0  0  0  0  0  0  0  0  0
  -26.3660  -31.5210   25.0180 C   0  0  1  0  0  0  0  0  0  0  0  0
  -25.2520  -31.2080   26.0430 C   0  0  0  0  0  1  0  0  0  0  0  0
  -27.0130  -30.1790   24.6020 C   0  0  0  0  0  1  0  0  0  0  0  0
  -27.4660  -32.3350   25.7400 C   0  0  0  0  0  1  0  0  0  0  0  0
  -30.9060  -17.3620   20.9180 C   0  0  0  0  0  2  0  0  0  0  0  0
  -30.9460  -14.8900   20.2650 C   0  0  0  0  0  0  0  0  0  0  0  0
  -30.6410  -12.6620   19.2040 C   0  0  0  0  0  2  0  0  0  0  0  0
  -29.7000  -12.7850   17.9890 C   0  0  0  0  0  2  0  0  0  0  0  0
  -28.2300  -12.6440   18.4280 C   0  0  0  0  0  2  0  0  0  0  0  0
  -27.8850  -13.5290   19.6580 C   0  0  0  0  0  3  0  0  0  0  0  0
  -28.9490  -13.4040   20.7700 C   0  0  0  0  0  2  0  0  0  0  0  0
  -30.2530  -13.7110   20.1690 N   0  0  0  0  0  0  0  0  0  0  0  0
  -32.1200  -14.9560   19.8970 O   0  0  0  0  0  0  0  0  0  0  0  0
  -30.2680  -16.0290   20.6190 N   0  0  0  0  0  0  0  0  0  0  0  0
  -29.2880  -15.9300   20.8360 H   0  0  0  0  0  0  0  0  0  0  0  0
  -25.5070  -14.1500   20.4010 C   0  0  0  0  0  0  0  0  0  0  0  0
  -24.4340  -13.3870   20.7740 C   0  0  0  0  0  0  0  0  0  0  0  0
  -24.8800  -12.0300   20.7340 C   0  0  0  0  0  0  0  0  0  0  0  0
  -26.5390  -13.2580   20.1550 N   0  0  0  0  0  0  0  0  0  0  0  0
  -26.1680  -11.9780   20.4170 N   0  0  0  0  0  0  0  0  0  0  0  0
  -24.1390  -10.7760   20.9210 C   0  0  0  0  0  0  0  0  0  0  0  0
  -24.5370   -9.8180   21.8800 C   0  0  0  0  0  3  0  0  0  0  0  0
  -23.7970   -8.6300   22.0540 C   0  0  0  0  0  3  0  0  0  0  0  0
  -22.6430   -8.3890   21.2700 C   0  0  0  0  0  0  0  0  0  0  0  0
  -22.2640   -9.3360   20.3020 C   0  0  0  0  0  3  0  0  0  0  0  0
  -23.0050  -10.5160   20.1260 C   0  0  0  0  0  3  0  0  0  0  0  0
  -21.8770   -7.2520   21.3530 O   0  0  0  0  0  0  0  0  0  0  0  0
  -21.7610   -6.5460   22.5240 C   0  0  0  0  0  0  0  0  0  0  0  0
  -21.2250   -7.1250   23.6940 C   0  0  0  0  0  3  0  0  0  0  0  0
  -21.0610   -6.3430   24.8560 C   0  0  0  0  0  3  0  0  0  0  0  0
  -21.4210   -4.9830   24.8460 C   0  0  0  0  0  0  0  0  0  0  0  0
  -21.9500   -4.4030   23.6800 C   0  0  0  0  0  3  0  0  0  0  0  0
  -22.1170   -5.1820   22.5210 C   0  0  0  0  0  0  0  0  0  0  0  0
  -22.6070   -4.6120   21.3930 F   0  0  0  0  0  0  0  0  0  0  0  0
  -21.2560   -4.2290   25.9580 F   0  0  0  0  0  0  0  0  0  0  0  0
  -23.0440  -13.8800   21.0540 C   0  0  0  0  0  0  0  0  0  0  0  0
  -22.3120  -13.1910   21.9220 N   0  0  0  0  0  0  0  0  0  0  0  0
  -22.6160  -14.9120   20.5370 O   0  0  0  0  0  0  0  0  0  0  0  0
  -22.6720  -12.3570   22.3620 H   0  0  0  0  0  0  0  0  0  0  0  0
  -21.3800  -13.5030   22.1520 H   0  0  0  0  0  0  0  0  0  0  0  0
  -25.6860  -15.5190   20.2270 N   0  0  0  0  0  0  0  0  0  0  0  0
  -24.9230  -16.1770   20.3400 H   0  0  0  0  0  0  0  0  0  0  0  0
  -26.5300  -15.9500   19.8730 H   0  0  0  0  0  0  0  0  0  0  0  0
  2  6  2  0
  2  5  1  0
  3  1  1  0
  3  7  1  0
  4 56  1  0
  4  1  2  0
  5  3  2  0
  6  4  1  0
  8  6  1  0
  9 14  1  0
 10  9  2  0
 11  9  1  0
 11 13  1  0
 13 15  1  0
 13 12  1  0
 14  5  1  0
 14 12  1  0
 16 27  2  0
 17 15  1  0
 17 22  1  0
 18 26  1  0
 18 28  1  0
 19 25  1  0
 19 21  1  0
 20 26  1  0
 21 20  1  0
 22 21  2  0
 23 24  1  0
 23 17  2  0
 24 19  2  0
 25 18  1  0
 26 16  1  0
 28 30  2  0
 29 28  1  0
 31 29  1  0
 32 41  2  0
 32 37  1  0
 33 29  1  0
 33 37  1  0
 34 33  1  0
 35 36  1  0
 35 34  1  0
 36 32  1  0
 37 38  2  0
 38 39  1  0
 40 39  2  0
 41 40  1  0
 42 16  1  0
 42 43  1  0
 42 52  1  0
 43 46  1  0
 44 48  1  0
 44 43  1  0
 45 44  2  0
 48 47  1  0
 50 48  1  0
 50 51  1  0
 50 49  1  0
 52 55  1  1
 52 53  1  0
 54 52  1  0
 57 65  1  0
 58 63  1  0
 59 60  1  0
 59 58  1  0
 61 60  1  0
 61 70  1  0
 61 62  1  0
 63 57  1  0
 63 62  1  0
 64 57  2  0
 65 66  1  0
 65 56  1  0
 67 68  2  0
 68 87  1  0
 69 68  1  0
 69 72  1  0
 70 67  1  0
 70 71  1  0
 71 69  2  0
 72 73  1  0
 73 74  2  0
 75 78  1  0
 75 74  1  0
 76 75  2  0
 77 76  1  0
 77 72  2  0
 78 79  1  0
 79 80  1  0
 80 81  2  0
 82 81  1  0
 82 86  1  0
 83 82  2  0
 84 79  2  0
 84 83  1  0
 85 84  1  0
 87 88  1  0
 88 91  1  0
 88 90  1  0
 89 87  2  0
 92 93  1  0
 92 67  1  0
 94 92  1  0
M  ISO  4  13 101  15 101  57 100  65 100
M  END
>  <TORSDO>  (32) 
F 18

>  <SCORE>  (32) 
-13.518

>  <name>  (32) 
31

>  <ligand_id>  (32) 
31

>  <original_smiles>  (32) 
[H]C([H])=C1N(c2c([H])c(F)c(C([H])([H])N([H])C(=O)N3C([H])([H])C([H])([H])C([H])([H])C([H])(n4nc(-c5c([H])c([H])c(Oc6c([H])c([H])c(F)c([H])c6F)c([H])c5[H])c(C(=O)N([H])[H])c4N([H])[H])C3([H])[H])c([H])c2C([H])([H])[H])C([H])([H])C([H])(Oc2c([H])c([H])c3c(c2[H])C([H])([H])N(C(=O)C([H])(N([H])C(=O)C([H])(N([H])C([H])([H])[H])C([H])([H])[H])C(C([H])([H])[H])(C([H])([H])[H])C([H])([H])[H])C([H])(C(=O)N([H])C2([H])c4c([H])c([H])c([H])c([H])c4C([H])([H])C([H])([H])C2([H])[H])C3([H])[H])C1([H])[H]

>  <smiles>  (32) 
[H]C([H])=C1N(c2c([H])c(F)c(C([H])([H])N([H])C(=O)N3C([H])([H])C([H])([H])C([H])([H])C([H])(n4nc(-c5c([H])c([H])c(Oc6c([H])c([H])c(F)c([H])c6F)c([H])c5[H])c(C(=O)N([H])[H])c4N([H])[H])C3([H])[H])c([H])c2C([H])([H])[H])C([H])([H])C([H])(Oc2c([H])c([H])c3c(c2[H])C([H])([H])N(C(=O)C([H])(N([H])C(=O)C([H])(N([H])C([H])([H])[H])C([H])([H])[H])C(C([H])([H])[H])(C([H])([H])[H])C([H])([H])[H])C([H])(C(=O)N([H])C2([H])c4c([H])c([H])c([H])c([H])c4C([H])([H])C([H])([H])C2([H])[H])C3([H])[H])C1([H])[H]

$$$$
32:0:0
     RDKit          3D

 95104  0  0  1  0  0  0  0  0999 V2000
  -28.7790  -23.7400   22.7720 C   0  0  0  0  0  2  0  0  0  0  0  0
  -28.8310  -25.0840   21.9970 C   0  0  0  0  0  2  0  0  0  0  0  0
  -28.2870  -22.5260   21.9460 C   0  0  0  0  0  2  0  0  0  0  0  0
  -28.5300  -23.7770   19.8180 C   0  0  0  0  0  2  0  0  0  0  0  0
  -28.0600  -25.0720   20.6660 C   0  0  0  0  0  3  0  0  0  0  0  0
  -28.9330  -22.5170   20.6140 N   0  0  2  0  0  4  0  0  0  0  0  0
  -29.9100  -22.6600   20.8170 H   0  0  0  0  0  0  0  0  0  0  0  0
  -28.1840  -26.4530   20.0980 O   0  0  0  0  0  0  0  0  0  0  0  0
  -24.5180  -31.8860   23.2120 C   0  0  0  0  0  0  0  0  0  0  0  0
  -27.0710  -27.3140   20.1180 C   0  0  0  0  0  0  0  0  0  0  0  0
  -23.2870  -30.5010   21.5790 C   0  0  0  0  0  3  0  0  0  0  0  0
  -24.7140  -28.9450   20.1280 C   0  0  0  0  0  0  0  0  0  0  0  0
  -25.8250  -30.8080   21.3620 C   0  0  0  0  0  2  0  0  0  0  0  0
  -25.8920  -29.4280   20.7150 C   0  0  0  0  0  0  0  0  0  0  0  0
  -27.0740  -28.6280   20.6930 C   0  0  0  0  0  3  0  0  0  0  0  0
  -25.8720  -26.8880   19.5110 C   0  0  0  0  0  3  0  0  0  0  0  0
  -24.7060  -27.6810   19.5160 C   0  0  0  0  0  3  0  0  0  0  0  0
  -23.4810  -29.8270   20.1950 C   0  0  0  0  0  2  0  0  0  0  0  0
  -24.5640  -31.0830   22.1080 N   0  0  0  0  0  0  0  0  0  0  0  0
  -23.4430  -32.1640   23.7640 O   0  0  0  0  0  0  0  0  0  0  0  0
  -22.6310  -29.4850   22.5460 C   0  0  0  0  0  0  0  0  0  0  0  0
  -21.3100  -29.2780   22.4050 N   0  0  0  0  0  0  0  0  0  0  0  0
  -23.3110  -28.8830   23.3810 O   0  0  0  0  0  0  0  0  0  0  0  0
  -20.8180  -29.8150   21.7060 H   0  0  0  0  0  0  0  0  0  0  0  0
  -17.9600  -27.9860   22.8480 C   0  0  0  0  0  0  0  0  0  0  0  0
  -20.5010  -28.3330   23.1760 C   0  0  0  0  0  3  0  0  0  0  0  0
  -20.6620  -26.8920   22.6380 C   0  0  0  0  0  2  0  0  0  0  0  0
  -19.5980  -26.5120   21.6030 C   0  0  0  0  0  2  0  0  0  0  0  0
  -18.1950  -26.6300   22.2050 C   0  0  0  0  0  2  0  0  0  0  0  0
  -19.0420  -28.7940   23.2870 C   0  0  0  0  0  0  0  0  0  0  0  0
  -18.7680  -30.0630   23.8420 C   0  0  0  0  0  3  0  0  0  0  0  0
  -17.4420  -30.5230   23.9650 C   0  0  0  0  0  3  0  0  0  0  0  0
  -16.3750  -29.7130   23.5390 C   0  0  0  0  0  3  0  0  0  0  0  0
  -16.6330  -28.4470   22.9860 C   0  0  0  0  0  3  0  0  0  0  0  0
  -25.8120  -32.5090   23.8230 C   0  0  0  0  0  3  0  0  0  0  0  0
  -25.5140  -33.9060   24.1710 N   0  0  0  0  0  0  0  0  0  0  0  0
  -25.8430  -34.9660   23.4210 C   0  0  0  0  0  0  0  0  0  0  0  0
  -26.4980  -34.8700   22.3780 O   0  0  0  0  0  0  0  0  0  0  0  0
  -24.9360  -34.0560   24.9850 H   0  0  0  0  0  0  0  0  0  0  0  0
  -24.1230  -36.7740   23.1010 C   0  0  0  0  0  1  0  0  0  0  0  0
  -25.3680  -36.3510   23.8990 C   0  0  0  0  0  3  0  0  0  0  0  0
  -27.5120  -37.2100   24.7280 C   0  0  0  0  0  1  0  0  0  0  0  0
  -26.4040  -37.4010   23.7950 N   0  0  0  0  0  0  0  0  0  0  0  0
  -26.0020  -38.3200   23.9610 H   0  0  0  0  0  0  0  0  0  0  0  0
  -26.3400  -31.7250   25.0880 C   0  0  1  0  0  0  0  0  0  0  0  0
  -25.2580  -31.4850   26.1670 C   0  0  0  0  0  1  0  0  0  0  0  0
  -26.9130  -30.3490   24.6780 C   0  0  0  0  0  1  0  0  0  0  0  0
  -27.5020  -32.5100   25.7430 C   0  0  0  0  0  1  0  0  0  0  0  0
  -28.9320  -21.1410   19.9130 C   0  0  0  0  0  2  0  0  0  0  0  0
  -29.2720  -18.4770   20.2450 C   0  0  0  0  0  3  0  0  0  0  0  0
  -31.4300  -18.8570   21.9280 C   0  0  0  0  0  3  0  0  0  0  0  0
  -29.6610  -19.8550   20.5430 C   0  0  0  0  0  0  0  0  0  0  0  0
  -30.8170  -19.9960   21.3600 C   0  0  0  0  0  0  0  0  0  0  0  0
  -29.9510  -17.2840   20.7490 C   0  0  0  0  0  0  0  0  0  0  0  0
  -31.0050  -17.5390   21.6670 C   0  0  0  0  0  0  0  0  0  0  0  0
  -31.4660  -21.3390   21.6660 C   0  0  0  0  0  1  0  0  0  0  0  0
  -31.7820  -16.2860   22.5740 Cl  0  0  0  0  0  0  0  0  0  0  0  0
  -30.2710  -14.7700   20.0520 C   0  0  0  0  0  0  0  0  0  0  0  0
  -29.9980  -12.5630   18.9010 C   0  0  0  0  0  2  0  0  0  0  0  0
  -28.9680  -12.7010   17.7600 C   0  0  0  0  0  2  0  0  0  0  0  0
  -27.5410  -12.4650   18.2920 C   0  0  0  0  0  2  0  0  0  0  0  0
  -27.2500  -13.2670   19.5890 C   0  0  0  0  0  3  0  0  0  0  0  0
  -28.3960  -13.1390   20.6170 C   0  0  0  0  0  2  0  0  0  0  0  0
  -29.6370  -13.5520   19.9440 N   0  0  0  0  0  0  0  0  0  0  0  0
  -31.4100  -14.9000   19.5940 O   0  0  0  0  0  0  0  0  0  0  0  0
  -29.5350  -15.8820   20.4490 N   0  0  0  0  0  0  0  0  0  0  0  0
  -28.5490  -15.7010   20.5670 H   0  0  0  0  0  0  0  0  0  0  0  0
  -24.8980  -13.7540   20.4860 C   0  0  0  0  0  0  0  0  0  0  0  0
  -23.8890  -12.9350   20.9140 C   0  0  0  0  0  0  0  0  0  0  0  0
  -24.4010  -11.6030   20.8380 C   0  0  0  0  0  0  0  0  0  0  0  0
  -25.9550  -12.9180   20.1650 N   0  0  0  0  0  0  0  0  0  0  0  0
  -25.6680  -11.6190   20.4410 N   0  0  0  0  0  0  0  0  0  0  0  0
  -23.7380  -10.3140   21.0640 C   0  0  0  0  0  0  0  0  0  0  0  0
  -24.2320   -9.3870   22.0070 C   0  0  0  0  0  3  0  0  0  0  0  0
  -23.5680   -8.1610   22.2210 C   0  0  0  0  0  3  0  0  0  0  0  0
  -22.3930   -7.8520   21.4930 C   0  0  0  0  0  0  0  0  0  0  0  0
  -21.9190   -8.7700   20.5370 C   0  0  0  0  0  3  0  0  0  0  0  0
  -22.5860   -9.9870   20.3220 C   0  0  0  0  0  3  0  0  0  0  0  0
  -21.6940   -6.6760   21.6170 O   0  0  0  0  0  0  0  0  0  0  0  0
  -21.6690   -5.9730   22.7940 C   0  0  0  0  0  0  0  0  0  0  0  0
  -21.1960   -6.5470   23.9950 C   0  0  0  0  0  3  0  0  0  0  0  0
  -21.1230   -5.7670   25.1670 C   0  0  0  0  0  3  0  0  0  0  0  0
  -21.5120   -4.4140   25.1380 C   0  0  0  0  0  0  0  0  0  0  0  0
  -21.9790   -3.8410   23.9440 C   0  0  0  0  0  3  0  0  0  0  0  0
  -22.0550   -4.6180   22.7740 C   0  0  0  0  0  0  0  0  0  0  0  0
  -22.4840   -4.0540   21.6210 F   0  0  0  0  0  0  0  0  0  0  0  0
  -21.4340   -3.6630   26.2630 F   0  0  0  0  0  0  0  0  0  0  0  0
  -22.4950  -13.3550   21.2830 C   0  0  0  0  0  0  0  0  0  0  0  0
  -21.8640  -12.6390   22.2060 N   0  0  0  0  0  0  0  0  0  0  0  0
  -21.9780  -14.3560   20.7900 O   0  0  0  0  0  0  0  0  0  0  0  0
  -22.2960  -11.8310   22.6260 H   0  0  0  0  0  0  0  0  0  0  0  0
  -20.9310  -12.9010   22.4950 H   0  0  0  0  0  0  0  0  0  0  0  0
  -25.0000  -15.1340   20.3240 N   0  0  0  0  0  0  0  0  0  0  0  0
  -24.2310  -15.7610   20.5330 H   0  0  0  0  0  0  0  0  0  0  0  0
  -25.8310  -15.6180   20.0060 H   0  0  0  0  0  0  0  0  0  0  0  0
  2  1  1  0
  3  1  1  0
  4  6  1  0
  4  5  1  0
  5  8  1  0
  5  2  1  0
  6  7  1  1
  6  3  1  0
  8 10  1  0
  9 20  2  0
 10 15  1  0
 11 19  1  0
 11 21  1  0
 12 18  1  0
 12 14  1  0
 13 19  1  0
 14 13  1  0
 15 14  2  0
 16 17  1  0
 16 10  2  0
 17 12  2  0
 18 11  1  0
 19  9  1  0
 21 23  2  0
 22 21  1  0
 24 22  1  0
 25 34  2  0
 25 30  1  0
 26 22  1  0
 26 30  1  0
 27 26  1  0
 28 29  1  0
 28 27  1  0
 29 25  1  0
 30 31  2  0
 31 32  1  0
 33 32  2  0
 34 33  1  0
 35  9  1  0
 35 36  1  0
 35 45  1  0
 36 39  1  0
 37 41  1  0
 37 36  1  0
 38 37  2  0
 41 40  1  0
 43 41  1  0
 43 44  1  0
 43 42  1  0
 45 48  1  1
 45 46  1  0
 47 45  1  0
 49 52  1  0
 49  6  1  0
 50 52  2  0
 50 54  1  0
 52 53  1  0
 53 56  1  0
 53 51  2  0
 54 55  2  0
 55 51  1  0
 55 57  1  0
 58 66  1  0
 59 64  1  0
 60 61  1  0
 60 59  1  0
 62 61  1  0
 62 71  1  0
 62 63  1  0
 64 58  1  0
 64 63  1  0
 65 58  2  0
 66 67  1  0
 66 54  1  0
 68 69  2  0
 69 88  1  0
 70 69  1  0
 70 73  1  0
 71 72  1  0
 71 68  1  0
 72 70  2  0
 73 74  1  0
 74 75  2  0
 76 79  1  0
 76 75  1  0
 77 76  2  0
 78 77  1  0
 78 73  2  0
 79 80  1  0
 80 81  1  0
 81 82  2  0
 83 82  1  0
 83 87  1  0
 84 83  2  0
 85 80  2  0
 85 84  1  0
 86 85  1  0
 88 89  1  0
 89 92  1  0
 89 91  1  0
 90 88  2  0
 93 68  1  0
 93 94  1  0
 95 93  1  0
M  ISO  4   5 101   8 101  58 100  66 100
M  END
>  <TORSDO>  (33) 
F 18

>  <SCORE>  (33) 
-13.217

>  <name>  (33) 
32

>  <ligand_id>  (33) 
32

>  <original_smiles>  (33) 
[H]c1c([H])c([H])c2c(c1[H])C([H])([H])C([H])([H])C([H])([H])C2([H])N([H])C(=O)C1([H])N(C(=O)C([H])(N([H])C(=O)C([H])(N([H])C([H])([H])[H])C([H])([H])[H])C(C([H])([H])[H])(C([H])([H])[H])C([H])([H])[H])C([H])([H])c2c([H])c(OC3([H])C([H])([H])C([H])([H])C([H])([H])[N+]([H])(C([H])([H])c4c([H])c(N([H])C(=O)N5C([H])([H])C([H])([H])C([H])([H])C([H])(n6nc(-c7c([H])c([H])c(Oc8c([H])c([H])c(F)c([H])c8F)c([H])c7[H])c(C(=O)N([H])[H])c6N([H])[H])C5([H])[H])c(Cl)c([H])c4C([H])([H])[H])C3([H])[H])c([H])c([H])c2C1([H])[H]

>  <smiles>  (33) 
[H]c1c([H])c([H])c2c(c1[H])C([H])([H])C([H])([H])C([H])([H])C2([H])N([H])C(=O)C1([H])N(C(=O)C([H])(N([H])C(=O)C([H])(N([H])C([H])([H])[H])C([H])([H])[H])C(C([H])([H])[H])(C([H])([H])[H])C([H])([H])[H])C([H])([H])c2c([H])c(OC3([H])C([H])([H])C([H])([H])C([H])([H])[N+]([H])(C([H])([H])c4c([H])c(N([H])C(=O)N5C([H])([H])C([H])([H])C([H])([H])C([H])(n6nc(-c7c([H])c([H])c(Oc8c([H])c([H])c(F)c([H])c8F)c([H])c7[H])c(C(=O)N([H])[H])c6N([H])[H])C5([H])[H])c(Cl)c([H])c4C([H])([H])[H])C3([H])[H])c([H])c([H])c2C1([H])[H]

$$$$
33:0:0
     RDKit          3D

 94103  0  0  1  0  0  0  0  0999 V2000
  -30.8960  -19.4010   19.1400 C   0  0  0  0  0  3  0  0  0  0  0  0
  -30.4460  -20.7310   18.9300 C   0  0  0  0  0  3  0  0  0  0  0  0
  -30.8490  -18.7720   20.4090 C   0  0  0  0  0  0  0  0  0  0  0  0
  -30.3110  -19.5530   21.4790 C   0  0  0  0  0  0  0  0  0  0  0  0
  -29.8410  -20.9000   21.2620 C   0  0  0  0  0  0  0  0  0  0  0  0
  -29.9080  -21.5200   19.9740 C   0  0  0  0  0  0  0  0  0  0  0  0
  -30.2430  -18.9630   22.8850 C   0  0  0  0  0  1  0  0  0  0  0  0
  -29.2370  -21.6810   22.4260 C   0  0  0  0  0  1  0  0  0  0  0  0
  -28.2080  -22.9410   18.8520 C   0  0  0  0  0  0  0  0  0  0  0  0
  -27.5810  -21.9700   18.1660 C   0  0  0  0  0  2  0  0  0  0  0  0
  -27.7820  -24.3910   18.8450 C   0  0  0  0  0  2  0  0  0  0  0  0
  -29.7300  -24.1260   20.1870 C   0  0  0  0  0  2  0  0  0  0  0  0
  -28.9840  -25.2350   19.3240 C   0  0  0  0  0  3  0  0  0  0  0  0
  -29.3190  -22.7920   19.6590 N   0  0  0  0  0  0  0  0  0  0  0  0
  -28.8710  -26.6590   19.8090 O   0  0  0  0  0  0  0  0  0  0  0  0
  -24.9830  -31.6970   23.2500 C   0  0  0  0  0  0  0  0  0  0  0  0
  -27.7220  -27.4830   19.7900 C   0  0  0  0  0  0  0  0  0  0  0  0
  -23.8250  -30.4180   21.4920 C   0  0  0  0  0  3  0  0  0  0  0  0
  -25.3190  -29.0590   19.9370 C   0  0  0  0  0  0  0  0  0  0  0  0
  -26.3600  -30.8100   21.3570 C   0  0  0  0  0  2  0  0  0  0  0  0
  -26.4740  -29.4990   20.5880 C   0  0  0  0  0  0  0  0  0  0  0  0
  -27.6700  -28.7170   20.5220 C   0  0  0  0  0  3  0  0  0  0  0  0
  -26.5440  -27.1520   19.0800 C   0  0  0  0  0  3  0  0  0  0  0  0
  -25.3570  -27.8890   19.1760 C   0  0  0  0  0  3  0  0  0  0  0  0
  -24.0590  -29.8860   20.0570 C   0  0  0  0  0  2  0  0  0  0  0  0
  -25.0750  -30.9870   22.0890 N   0  0  0  0  0  0  0  0  0  0  0  0
  -23.8910  -31.8980   23.8000 O   0  0  0  0  0  0  0  0  0  0  0  0
  -23.1930  -29.2950   22.3500 C   0  0  0  0  0  0  0  0  0  0  0  0
  -21.8780  -29.0740   22.1840 N   0  0  0  0  0  0  0  0  0  0  0  0
  -23.8850  -28.6300   23.1250 O   0  0  0  0  0  0  0  0  0  0  0  0
  -21.3760  -29.6660   21.5390 H   0  0  0  0  0  0  0  0  0  0  0  0
  -18.5480  -27.6990   22.5200 C   0  0  0  0  0  0  0  0  0  0  0  0
  -21.0870  -28.0450   22.8630 C   0  0  0  0  0  3  0  0  0  0  0  0
  -21.2630  -26.6670   22.1830 C   0  0  0  0  0  2  0  0  0  0  0  0
  -20.1940  -26.3770   21.1240 C   0  0  0  0  0  2  0  0  0  0  0  0
  -18.7960  -26.4140   21.7480 C   0  0  0  0  0  2  0  0  0  0  0  0
  -19.6240  -28.4730   23.0300 C   0  0  0  0  0  0  0  0  0  0  0  0
  -19.3390  -29.6780   23.7100 C   0  0  0  0  0  3  0  0  0  0  0  0
  -18.0110  -30.1090   23.8840 C   0  0  0  0  0  3  0  0  0  0  0  0
  -16.9490  -29.3320   23.3910 C   0  0  0  0  0  3  0  0  0  0  0  0
  -17.2180  -28.1270   22.7150 C   0  0  0  0  0  3  0  0  0  0  0  0
  -26.2460  -32.3120   23.9280 C   0  0  0  0  0  3  0  0  0  0  0  0
  -25.9100  -33.6870   24.3240 N   0  0  0  0  0  0  0  0  0  0  0  0
  -26.2170  -34.7810   23.6140 C   0  0  0  0  0  0  0  0  0  0  0  0
  -26.8870  -34.7400   22.5790 O   0  0  0  0  0  0  0  0  0  0  0  0
  -25.3150  -33.7910   25.1330 H   0  0  0  0  0  0  0  0  0  0  0  0
  -24.4450  -36.5470   23.3590 C   0  0  0  0  0  1  0  0  0  0  0  0
  -25.7050  -36.1360   24.1380 C   0  0  0  0  0  3  0  0  0  0  0  0
  -27.8240  -37.0370   24.9900 C   0  0  0  0  0  1  0  0  0  0  0  0
  -26.7110  -37.2180   24.0610 N   0  0  0  0  0  0  0  0  0  0  0  0
  -26.2850  -38.1210   24.2500 H   0  0  0  0  0  0  0  0  0  0  0  0
  -26.7460  -31.4830   25.1750 C   0  0  1  0  0  0  0  0  0  0  0  0
  -25.6350  -31.1800   26.2070 C   0  0  0  0  0  1  0  0  0  0  0  0
  -27.3520  -30.1320   24.7290 C   0  0  0  0  0  1  0  0  0  0  0  0
  -27.8760  -32.2550   25.8970 C   0  0  0  0  0  1  0  0  0  0  0  0
  -31.5740  -17.3840   20.5870 C   0  0  0  0  0  2  0  0  0  0  0  0
  -31.5280  -14.8850   20.1620 C   0  0  0  0  0  0  0  0  0  0  0  0
  -31.2040  -12.6020   19.2360 C   0  0  0  0  0  2  0  0  0  0  0  0
  -30.2570  -12.6480   18.0210 C   0  0  0  0  0  2  0  0  0  0  0  0
  -28.7920  -12.5270   18.4800 C   0  0  0  0  0  2  0  0  0  0  0  0
  -28.4500  -13.4890   19.6490 C   0  0  0  0  0  3  0  0  0  0  0  0
  -29.5210  -13.4450   20.7640 C   0  0  0  0  0  2  0  0  0  0  0  0
  -30.8220  -13.7100   20.1380 N   0  0  0  0  0  0  0  0  0  0  0  0
  -32.6940  -14.9200   19.7660 O   0  0  0  0  0  0  0  0  0  0  0  0
  -30.8820  -16.0530   20.4690 N   0  0  0  0  0  0  0  0  0  0  0  0
  -29.9040  -16.0060   20.7100 H   0  0  0  0  0  0  0  0  0  0  0  0
  -26.1200  -14.1540   20.4940 C   0  0  0  0  0  0  0  0  0  0  0  0
  -25.0270  -13.4140   20.8540 C   0  0  0  0  0  0  0  0  0  0  0  0
  -25.4180  -12.0460   20.7280 C   0  0  0  0  0  0  0  0  0  0  0  0
  -27.1090  -13.2410   20.1710 N   0  0  0  0  0  0  0  0  0  0  0  0
  -26.6950  -11.9640   20.3740 N   0  0  0  0  0  0  0  0  0  0  0  0
  -24.6340  -10.8110   20.8680 C   0  0  0  0  0  0  0  0  0  0  0  0
  -25.0220   -9.7860   21.7590 C   0  0  0  0  0  3  0  0  0  0  0  0
  -24.2410   -8.6180   21.8910 C   0  0  0  0  0  3  0  0  0  0  0  0
  -23.0560   -8.4670   21.1310 C   0  0  0  0  0  0  0  0  0  0  0  0
  -22.6870   -9.4800   20.2300 C   0  0  0  0  0  3  0  0  0  0  0  0
  -23.4690  -10.6400   20.0950 C   0  0  0  0  0  3  0  0  0  0  0  0
  -22.2480   -7.3560   21.1760 O   0  0  0  0  0  0  0  0  0  0  0  0
  -22.1150   -6.6080   22.3180 C   0  0  0  0  0  0  0  0  0  0  0  0
  -21.6380   -7.1660   23.5230 C   0  0  0  0  0  3  0  0  0  0  0  0
  -21.4500   -6.3470   24.6540 C   0  0  0  0  0  3  0  0  0  0  0  0
  -21.7290   -4.9690   24.5790 C   0  0  0  0  0  0  0  0  0  0  0  0
  -22.2000   -4.4100   23.3780 C   0  0  0  0  0  3  0  0  0  0  0  0
  -22.3890   -5.2270   22.2490 C   0  0  0  0  0  0  0  0  0  0  0  0
  -22.8220   -4.6790   21.0880 F   0  0  0  0  0  0  0  0  0  0  0  0
  -21.5410   -4.1780   25.6600 F   0  0  0  0  0  0  0  0  0  0  0  0
  -23.6660  -13.9420   21.2020 C   0  0  0  0  0  0  0  0  0  0  0  0
  -22.9330  -13.2350   22.0550 N   0  0  0  0  0  0  0  0  0  0  0  0
  -23.2640  -15.0150   20.7540 O   0  0  0  0  0  0  0  0  0  0  0  0
  -23.2730  -12.3640   22.4370 H   0  0  0  0  0  0  0  0  0  0  0  0
  -22.0200  -13.5690   22.3290 H   0  0  0  0  0  0  0  0  0  0  0  0
  -26.3480  -15.5240   20.3930 N   0  0  0  0  0  0  0  0  0  0  0  0
  -25.6220  -16.2070   20.5750 H   0  0  0  0  0  0  0  0  0  0  0  0
  -27.2090  -15.9400   20.0580 H   0  0  0  0  0  0  0  0  0  0  0  0
  1  3  1  0
  2  1  2  0
  2  6  1  0
  3 56  1  0
  3  4  2  0
  4  7  1  0
  5  4  1  0
  5  8  1  0
  6  5  2  0
  9 14  1  0
 10  9  2  0
 11  9  1  0
 11 13  1  0
 13 15  1  0
 13 12  1  0
 14  6  1  0
 14 12  1  0
 16 27  2  0
 17 15  1  0
 17 22  1  0
 18 26  1  0
 18 28  1  0
 19 25  1  0
 19 21  1  0
 20 26  1  0
 21 20  1  0
 22 21  2  0
 23 24  1  0
 23 17  2  0
 24 19  2  0
 25 18  1  0
 26 16  1  0
 28 30  2  0
 29 28  1  0
 31 29  1  0
 32 41  2  0
 32 37  1  0
 33 29  1  0
 33 37  1  0
 34 33  1  0
 35 36  1  0
 35 34  1  0
 36 32  1  0
 37 38  2  0
 38 39  1  0
 40 39  2  0
 41 40  1  0
 42 16  1  0
 42 43  1  0
 42 52  1  0
 43 46  1  0
 44 48  1  0
 44 43  1  0
 45 44  2  0
 48 47  1  0
 50 48  1  0
 50 51  1  0
 50 49  1  0
 52 55  1  1
 52 53  1  0
 54 52  1  0
 57 65  1  0
 58 63  1  0
 59 60  1  0
 59 58  1  0
 61 60  1  0
 61 70  1  0
 61 62  1  0
 63 57  1  0
 63 62  1  0
 64 57  2  0
 65 56  1  0
 65 66  1  0
 67 68  2  0
 68 87  1  0
 69 68  1  0
 69 72  1  0
 70 71  1  0
 70 67  1  0
 71 69  2  0
 72 73  1  0
 73 74  2  0
 75 78  1  0
 75 74  1  0
 76 75  2  0
 77 76  1  0
 77 72  2  0
 78 79  1  0
 79 80  1  0
 80 81  2  0
 82 81  1  0
 82 86  1  0
 83 82  2  0
 84 79  2  0
 84 83  1  0
 85 84  1  0
 87 88  1  0
 88 91  1  0
 88 90  1  0
 89 87  2  0
 92 67  1  0
 92 93  1  0
 94 92  1  0
M  ISO  4  13 101  15 101  57 100  65 100
M  END
>  <TORSDO>  (34) 
F 18

>  <SCORE>  (34) 
-11.963

>  <name>  (34) 
33

>  <ligand_id>  (34) 
33

>  <original_smiles>  (34) 
[H]C([H])=C1N(c2c([H])c([H])c(C([H])([H])N([H])C(=O)N3C([H])([H])C([H])([H])C([H])([H])C([H])(n4nc(-c5c([H])c([H])c(Oc6c([H])c([H])c(F)c([H])c6F)c([H])c5[H])c(C(=O)N([H])[H])c4N([H])[H])C3([H])[H])c(C([H])([H])[H])c2C([H])([H])[H])C([H])([H])C([H])(Oc2c([H])c([H])c3c(c2[H])C([H])([H])N(C(=O)C([H])(N([H])C(=O)C([H])(N([H])C([H])([H])[H])C([H])([H])[H])C(C([H])([H])[H])(C([H])([H])[H])C([H])([H])[H])C([H])(C(=O)N([H])C2([H])c4c([H])c([H])c([H])c([H])c4C([H])([H])C([H])([H])C2([H])[H])C3([H])[H])C1([H])[H]

>  <smiles>  (34) 
[H]C([H])=C1N(c2c([H])c([H])c(C([H])([H])N([H])C(=O)N3C([H])([H])C([H])([H])C([H])([H])C([H])(n4nc(-c5c([H])c([H])c(Oc6c([H])c([H])c(F)c([H])c6F)c([H])c5[H])c(C(=O)N([H])[H])c4N([H])[H])C3([H])[H])c(C([H])([H])[H])c2C([H])([H])[H])C([H])([H])C([H])(Oc2c([H])c([H])c3c(c2[H])C([H])([H])N(C(=O)C([H])(N([H])C(=O)C([H])(N([H])C([H])([H])[H])C([H])([H])[H])C(C([H])([H])[H])(C([H])([H])[H])C([H])([H])[H])C([H])(C(=O)N([H])C2([H])c4c([H])c([H])c([H])c([H])c4C([H])([H])C([H])([H])C2([H])[H])C3([H])[H])C1([H])[H]

$$$$
34:0:0
     RDKit          3D

 96105  0  0  1  0  0  0  0  0999 V2000
  -27.3290  -22.6160   18.8430 C   0  0  0  0  0  0  0  0  0  0  0  0
  -26.5010  -21.7500   18.2050 C   0  0  0  0  0  3  0  0  0  0  0  0
  -27.0370  -24.1110   18.9500 C   0  0  0  0  0  2  0  0  0  0  0  0
  -29.1180  -23.7260   20.0200 C   0  0  0  0  0  2  0  0  0  0  0  0
  -28.2830  -24.9190   19.3590 C   0  0  0  0  0  3  0  0  0  0  0  0
  -26.5040  -20.2300   18.1410 C   0  0  0  0  0  1  0  0  0  0  0  0
  -28.5660  -22.3360   19.6510 N   0  0  2  0  0  4  0  0  0  0  0  0
  -28.2450  -21.9380   20.5180 H   0  0  0  0  0  0  0  0  0  0  0  0
  -28.2230  -26.3180   20.0080 O   0  0  0  0  0  0  0  0  0  0  0  0
  -24.5980  -31.8380   23.2180 C   0  0  0  0  0  0  0  0  0  0  0  0
  -27.1370  -27.2460   19.9920 C   0  0  0  0  0  0  0  0  0  0  0  0
  -23.3760  -30.4700   21.5780 C   0  0  0  0  0  3  0  0  0  0  0  0
  -24.8020  -28.9540   20.0980 C   0  0  0  0  0  0  0  0  0  0  0  0
  -25.9250  -30.7560   21.3800 C   0  0  0  0  0  2  0  0  0  0  0  0
  -25.9910  -29.3810   20.7010 C   0  0  0  0  0  0  0  0  0  0  0  0
  -27.1530  -28.5310   20.6570 C   0  0  0  0  0  3  0  0  0  0  0  0
  -25.9230  -26.9440   19.3370 C   0  0  0  0  0  3  0  0  0  0  0  0
  -24.7770  -27.7420   19.4130 C   0  0  0  0  0  3  0  0  0  0  0  0
  -23.5740  -29.8370   20.1770 C   0  0  0  0  0  2  0  0  0  0  0  0
  -24.6540  -31.0370   22.1150 N   0  0  0  0  0  0  0  0  0  0  0  0
  -23.5190  -32.1160   23.7620 O   0  0  0  0  0  0  0  0  0  0  0  0
  -22.7230  -29.4260   22.5220 C   0  0  0  0  0  0  0  0  0  0  0  0
  -21.3990  -29.2310   22.3920 N   0  0  0  0  0  0  0  0  0  0  0  0
  -23.4080  -28.7980   23.3340 O   0  0  0  0  0  0  0  0  0  0  0  0
  -20.9000  -29.8040   21.7260 H   0  0  0  0  0  0  0  0  0  0  0  0
  -18.0410  -27.9470   22.8460 C   0  0  0  0  0  0  0  0  0  0  0  0
  -20.5910  -28.2720   23.1520 C   0  0  0  0  0  3  0  0  0  0  0  0
  -20.7350  -26.8400   22.5850 C   0  0  0  0  0  2  0  0  0  0  0  0
  -19.6580  -26.4870   21.5540 C   0  0  0  0  0  2  0  0  0  0  0  0
  -18.2630  -26.5970   22.1760 C   0  0  0  0  0  2  0  0  0  0  0  0
  -19.1360  -28.7390   23.2860 C   0  0  0  0  0  0  0  0  0  0  0  0
  -18.8750  -29.9970   23.8690 C   0  0  0  0  0  3  0  0  0  0  0  0
  -17.5570  -30.4720   24.0060 C   0  0  0  0  0  3  0  0  0  0  0  0
  -16.4790  -29.6760   23.5840 C   0  0  0  0  0  3  0  0  0  0  0  0
  -16.7220  -28.4150   23.0120 C   0  0  0  0  0  3  0  0  0  0  0  0
  -25.8870  -32.4680   23.8280 C   0  0  0  0  0  3  0  0  0  0  0  0
  -25.5790  -33.8640   24.1770 N   0  0  0  0  0  0  0  0  0  0  0  0
  -25.8870  -34.9230   23.4170 C   0  0  0  0  0  0  0  0  0  0  0  0
  -26.5320  -34.8290   22.3720 O   0  0  0  0  0  0  0  0  0  0  0  0
  -25.0110  -34.0100   24.9980 H   0  0  0  0  0  0  0  0  0  0  0  0
  -24.1480  -36.7130   23.1220 C   0  0  0  0  0  1  0  0  0  0  0  0
  -25.4080  -36.3060   23.8990 C   0  0  0  0  0  3  0  0  0  0  0  0
  -27.5570  -37.1890   24.6910 C   0  0  0  0  0  1  0  0  0  0  0  0
  -26.4350  -37.3620   23.7740 N   0  0  0  0  0  0  0  0  0  0  0  0
  -26.0290  -38.2770   23.9450 H   0  0  0  0  0  0  0  0  0  0  0  0
  -26.4120  -31.6850   25.0930 C   0  0  1  0  0  0  0  0  0  0  0  0
  -25.3260  -31.4390   26.1670 C   0  0  0  0  0  1  0  0  0  0  0  0
  -26.9880  -30.3090   24.6840 C   0  0  0  0  0  1  0  0  0  0  0  0
  -27.5700  -32.4700   25.7500 C   0  0  0  0  0  1  0  0  0  0  0  0
  -29.5410  -21.2470   19.1360 C   0  0  0  0  0  2  0  0  0  0  0  0
  -30.8100  -18.8740   22.0010 C   0  0  0  0  0  3  0  0  0  0  0  0
  -29.7190  -18.5490   19.4770 C   0  0  0  0  0  3  0  0  0  0  0  0
  -30.4560  -20.0240   21.2670 C   0  0  0  0  0  0  0  0  0  0  0  0
  -30.6380  -17.5680   21.5130 C   0  0  0  0  0  0  0  0  0  0  0  0
  -29.8590  -19.9160   19.9810 C   0  0  0  0  0  0  0  0  0  0  0  0
  -30.1400  -17.3520   20.2030 C   0  0  0  0  0  0  0  0  0  0  0  0
  -30.7540  -21.3590   21.9260 C   0  0  0  0  0  1  0  0  0  0  0  0
  -30.9680  -16.4240   22.4620 C   0  0  0  0  0  1  0  0  0  0  0  0
  -30.7710  -14.8320   19.8580 C   0  0  0  0  0  0  0  0  0  0  0  0
  -30.5140  -12.5400   18.9260 C   0  0  0  0  0  2  0  0  0  0  0  0
  -29.4950  -12.5980   17.7690 C   0  0  0  0  0  2  0  0  0  0  0  0
  -28.0460  -12.4720   18.2920 C   0  0  0  0  0  2  0  0  0  0  0  0
  -27.7590  -13.3760   19.5200 C   0  0  0  0  0  3  0  0  0  0  0  0
  -28.8910  -13.2970   20.5610 C   0  0  0  0  0  2  0  0  0  0  0  0
  -30.1410  -13.6140   19.8600 N   0  0  0  0  0  0  0  0  0  0  0  0
  -31.9850  -14.9020   19.6500 O   0  0  0  0  0  0  0  0  0  0  0  0
  -29.9670  -15.9580   19.7260 N   0  0  0  0  0  0  0  0  0  0  0  0
  -29.0680  -15.7650   19.3110 H   0  0  0  0  0  0  0  0  0  0  0  0
  -25.4500  -14.0130   20.4400 C   0  0  0  0  0  0  0  0  0  0  0  0
  -24.3900  -13.2540   20.8610 C   0  0  0  0  0  0  0  0  0  0  0  0
  -24.8160  -11.8950   20.7690 C   0  0  0  0  0  0  0  0  0  0  0  0
  -26.4490  -13.1110   20.1080 N   0  0  0  0  0  0  0  0  0  0  0  0
  -26.0820  -11.8320   20.3750 N   0  0  0  0  0  0  0  0  0  0  0  0
  -24.0680  -10.6470   20.9770 C   0  0  0  0  0  0  0  0  0  0  0  0
  -24.5120   -9.6630   21.8870 C   0  0  0  0  0  3  0  0  0  0  0  0
  -23.7680   -8.4800   22.0820 C   0  0  0  0  0  3  0  0  0  0  0  0
  -22.5630   -8.2740   21.3670 C   0  0  0  0  0  0  0  0  0  0  0  0
  -22.1400   -9.2450   20.4430 C   0  0  0  0  0  3  0  0  0  0  0  0
  -22.8850  -10.4200   20.2470 C   0  0  0  0  0  3  0  0  0  0  0  0
  -21.7880   -7.1460   21.4740 O   0  0  0  0  0  0  0  0  0  0  0  0
  -21.7250   -6.4200   22.6350 C   0  0  0  0  0  0  0  0  0  0  0  0
  -21.3190   -7.0000   23.8550 C   0  0  0  0  0  3  0  0  0  0  0  0
  -21.2070   -6.2010   25.0110 C   0  0  0  0  0  3  0  0  0  0  0  0
  -21.4900   -4.8240   24.9470 C   0  0  0  0  0  0  0  0  0  0  0  0
  -21.8910   -4.2450   23.7310 C   0  0  0  0  0  3  0  0  0  0  0  0
  -22.0060   -5.0400   22.5770 C   0  0  0  0  0  0  0  0  0  0  0  0
  -22.3730   -4.4720   21.4030 F   0  0  0  0  0  0  0  0  0  0  0  0
  -21.3730   -4.0550   26.0540 F   0  0  0  0  0  0  0  0  0  0  0  0
  -23.0260  -13.7630   21.2270 C   0  0  0  0  0  0  0  0  0  0  0  0
  -22.3330  -13.0660   22.1240 N   0  0  0  0  0  0  0  0  0  0  0  0
  -22.5830  -14.8060   20.7510 O   0  0  0  0  0  0  0  0  0  0  0  0
  -22.7030  -12.2200   22.5310 H   0  0  0  0  0  0  0  0  0  0  0  0
  -21.4200  -13.3890   22.4100 H   0  0  0  0  0  0  0  0  0  0  0  0
  -25.6390  -15.3810   20.2880 N   0  0  0  0  0  0  0  0  0  0  0  0
  -24.9050  -16.0530   20.4820 H   0  0  0  0  0  0  0  0  0  0  0  0
  -26.4800  -15.8120   19.9240 H   0  0  0  0  0  0  0  0  0  0  0  0
  1  3  1  0
  1  7  1  0
  2  1  2  0
  3  5  1  0
  5  9  1  0
  5  4  1  0
  6  2  1  0
  7  4  1  0
  7  8  1  1
 10 21  2  0
 11  9  1  0
 11 16  1  0
 12 20  1  0
 12 22  1  0
 13 19  1  0
 13 15  1  0
 14 20  1  0
 15 14  1  0
 16 15  2  0
 17 18  1  0
 17 11  2  0
 18 13  2  0
 19 12  1  0
 20 10  1  0
 22 24  2  0
 23 22  1  0
 25 23  1  0
 26 35  2  0
 26 31  1  0
 27 23  1  0
 27 31  1  0
 28 27  1  0
 29 30  1  0
 29 28  1  0
 30 26  1  0
 31 32  2  0
 32 33  1  0
 34 33  2  0
 35 34  1  0
 36 10  1  0
 36 37  1  0
 36 46  1  0
 37 40  1  0
 38 42  1  0
 38 37  1  0
 39 38  2  0
 42 41  1  0
 44 42  1  0
 44 45  1  0
 44 43  1  0
 46 49  1  1
 46 47  1  0
 48 46  1  0
 50  7  1  0
 50 55  1  0
 52 55  2  0
 52 56  1  0
 53 57  1  0
 53 51  2  0
 54 51  1  0
 54 58  1  0
 55 53  1  0
 56 54  2  0
 59 65  1  0
 60 65  1  0
 61 62  1  0
 61 60  1  0
 63 62  1  0
 63 72  1  0
 63 64  1  0
 65 64  1  0
 66 59  2  0
 67 59  1  0
 67 56  1  0
 68 67  1  0
 69 70  2  0
 70 89  1  0
 71 70  1  0
 71 74  1  0
 72 73  1  0
 72 69  1  0
 73 71  2  0
 74 75  1  0
 75 76  2  0
 77 80  1  0
 77 76  1  0
 78 77  2  0
 79 78  1  0
 79 74  2  0
 80 81  1  0
 81 82  1  0
 82 83  2  0
 84 83  1  0
 84 88  1  0
 85 84  2  0
 86 81  2  0
 86 85  1  0
 87 86  1  0
 89 90  1  0
 90 93  1  0
 90 92  1  0
 91 89  2  0
 94 69  1  0
 94 95  1  0
 96 94  1  0
M  ISO  4   5 101   9 101  59 100  67 100
M  END
>  <TORSDO>  (35) 
F 18

>  <SCORE>  (35) 
-14.734

>  <name>  (35) 
34

>  <ligand_id>  (35) 
34

>  <original_smiles>  (35) 
[H]C(=C1C([H])([H])C([H])(Oc2c([H])c([H])c3c(c2[H])C([H])([H])N(C(=O)C([H])(N([H])C(=O)C([H])(N([H])C([H])([H])[H])C([H])([H])[H])C(C([H])([H])[H])(C([H])([H])[H])C([H])([H])[H])C([H])(C(=O)N([H])C2([H])c4c([H])c([H])c([H])c([H])c4C([H])([H])C([H])([H])C2([H])[H])C3([H])[H])C([H])([H])[N+]1([H])C([H])([H])c1c([H])c(N([H])C(=O)N2C([H])([H])C([H])([H])C([H])([H])C([H])(n3nc(-c4c([H])c([H])c(Oc5c([H])c([H])c(F)c([H])c5F)c([H])c4[H])c(C(=O)N([H])[H])c3N([H])[H])C2([H])[H])c(C([H])([H])[H])c([H])c1C([H])([H])[H])C([H])([H])[H]

>  <smiles>  (35) 
[H]C(=C1C([H])([H])C([H])(Oc2c([H])c([H])c3c(c2[H])C([H])([H])N(C(=O)C([H])(N([H])C(=O)C([H])(N([H])C([H])([H])[H])C([H])([H])[H])C(C([H])([H])[H])(C([H])([H])[H])C([H])([H])[H])C([H])(C(=O)N([H])C2([H])c4c([H])c([H])c([H])c([H])c4C([H])([H])C([H])([H])C2([H])[H])C3([H])[H])C([H])([H])[N+]1([H])C([H])([H])c1c([H])c(N([H])C(=O)N2C([H])([H])C([H])([H])C([H])([H])C([H])(n3nc(-c4c([H])c([H])c(Oc5c([H])c([H])c(F)c([H])c5F)c([H])c4[H])c(C(=O)N([H])[H])c3N([H])[H])C2([H])[H])c(C([H])([H])[H])c([H])c1C([H])([H])[H])C([H])([H])[H]

$$$$
35:0:0
     RDKit          3D

 96105  0  0  1  0  0  0  0  0999 V2000
  -28.4710  -21.5730   19.8480 C   0  0  0  0  0  2  0  0  0  0  0  0
  -29.1100  -19.1970   18.9670 C   0  0  0  0  0  3  0  0  0  0  0  0
  -29.1800  -20.1570   20.0180 C   0  0  0  0  0  0  0  0  0  0  0  0
  -29.7240  -19.6700   21.2470 C   0  0  0  0  0  0  0  0  0  0  0  0
  -30.1310  -18.2940   21.4000 C   0  0  0  0  0  0  0  0  0  0  0  0
  -29.9760  -17.3220   20.3570 C   0  0  0  0  0  0  0  0  0  0  0  0
  -29.4670  -17.8230   19.1230 C   0  0  0  0  0  0  0  0  0  0  0  0
  -29.8270  -20.6050   22.4520 C   0  0  0  0  0  1  0  0  0  0  0  0
  -30.7010  -17.8300   22.7390 C   0  0  0  0  0  1  0  0  0  0  0  0
  -29.1420  -16.7620   17.7980 Cl  0  0  0  0  0  0  0  0  0  0  0  0
  -30.9530  -14.8830   20.2440 C   0  0  0  0  0  0  0  0  0  0  0  0
  -30.8830  -12.5600   19.3460 C   0  0  0  0  0  2  0  0  0  0  0  0
  -29.9210  -12.5430   18.1360 C   0  0  0  0  0  2  0  0  0  0  0  0
  -28.4620  -12.3380   18.5910 C   0  0  0  0  0  2  0  0  0  0  0  0
  -28.0700  -13.2740   19.7630 C   0  0  0  0  0  3  0  0  0  0  0  0
  -29.1380  -13.2400   20.8780 C   0  0  0  0  0  2  0  0  0  0  0  0
  -30.4260  -13.6160   20.2720 N   0  0  0  0  0  0  0  0  0  0  0  0
  -32.0830  -15.0940   19.7920 O   0  0  0  0  0  0  0  0  0  0  0  0
  -30.1160  -15.8880   20.6700 N   0  0  0  0  0  0  0  0  0  0  0  0
  -29.3470  -15.5250   21.2100 H   0  0  0  0  0  0  0  0  0  0  0  0
  -25.6980  -13.8430   20.5730 C   0  0  0  0  0  0  0  0  0  0  0  0
  -24.6460  -13.0560   20.9510 C   0  0  0  0  0  0  0  0  0  0  0  0
  -25.1100  -11.7080   20.8630 C   0  0  0  0  0  0  0  0  0  0  0  0
  -26.7360  -12.9740   20.2760 N   0  0  0  0  0  0  0  0  0  0  0  0
  -26.3890  -11.6830   20.5110 N   0  0  0  0  0  0  0  0  0  0  0  0
  -24.3940  -10.4360   21.0350 C   0  0  0  0  0  0  0  0  0  0  0  0
  -24.7850   -9.4950   22.0130 C   0  0  0  0  0  3  0  0  0  0  0  0
  -24.0700   -8.2900   22.1730 C   0  0  0  0  0  3  0  0  0  0  0  0
  -22.9500   -8.0150   21.3530 C   0  0  0  0  0  0  0  0  0  0  0  0
  -22.5780   -8.9440   20.3670 C   0  0  0  0  0  3  0  0  0  0  0  0
  -23.2950  -10.1420   20.2050 C   0  0  0  0  0  3  0  0  0  0  0  0
  -22.2100   -6.8580   21.4180 O   0  0  0  0  0  0  0  0  0  0  0  0
  -21.9780   -6.2180   22.6100 C   0  0  0  0  0  0  0  0  0  0  0  0
  -21.3420   -6.8660   23.6910 C   0  0  0  0  0  3  0  0  0  0  0  0
  -21.0600   -6.1500   24.8720 C   0  0  0  0  0  3  0  0  0  0  0  0
  -21.4040   -4.7890   24.9700 C   0  0  0  0  0  0  0  0  0  0  0  0
  -22.0340   -4.1430   23.8930 C   0  0  0  0  0  3  0  0  0  0  0  0
  -22.3170   -4.8540   22.7150 C   0  0  0  0  0  0  0  0  0  0  0  0
  -22.9040   -4.2210   21.6710 F   0  0  0  0  0  0  0  0  0  0  0  0
  -21.1270   -4.0990   26.1010 F   0  0  0  0  0  0  0  0  0  0  0  0
  -23.2560  -13.5180   21.2830 C   0  0  0  0  0  0  0  0  0  0  0  0
  -22.5680  -12.8080   22.1690 N   0  0  0  0  0  0  0  0  0  0  0  0
  -22.7890  -14.5450   20.7900 O   0  0  0  0  0  0  0  0  0  0  0  0
  -22.9580  -11.9790   22.5910 H   0  0  0  0  0  0  0  0  0  0  0  0
  -21.6380  -13.1020   22.4340 H   0  0  0  0  0  0  0  0  0  0  0  0
  -25.8580  -15.2200   20.4360 N   0  0  0  0  0  0  0  0  0  0  0  0
  -25.0980  -15.8730   20.5960 H   0  0  0  0  0  0  0  0  0  0  0  0
  -26.6930  -15.6660   20.0810 H   0  0  0  0  0  0  0  0  0  0  0  0
  -30.1850  -23.4100   19.2820 C   0  0  0  0  0  0  0  0  0  0  0  0
  -31.1600  -22.6610   18.7390 C   0  0  0  0  0  2  0  0  0  0  0  0
  -29.9550  -24.9090   19.0890 C   0  0  0  0  0  2  0  0  0  0  0  0
  -28.2510  -24.0670   20.5430 C   0  0  0  0  0  2  0  0  0  0  0  0
  -28.5430  -25.2680   19.5710 C   0  0  0  0  0  3  0  0  0  0  0  0
  -29.1530  -22.8860   20.2230 N   0  0  1  0  0  4  0  0  0  0  0  0
  -29.6150  -22.6780   21.0960 H   0  0  0  0  0  0  0  0  0  0  0  0
  -28.5290  -26.6750   20.0580 O   0  0  0  0  0  0  0  0  0  0  0  0
  -24.8750  -31.9050   23.4160 C   0  0  0  0  0  0  0  0  0  0  0  0
  -27.3860  -27.4910   20.0670 C   0  0  0  0  0  0  0  0  0  0  0  0
  -23.6320  -30.6230   21.7090 C   0  0  0  0  0  3  0  0  0  0  0  0
  -25.0420  -29.1330   20.1810 C   0  0  0  0  0  0  0  0  0  0  0  0
  -26.1730  -30.9130   21.5160 C   0  0  0  0  0  2  0  0  0  0  0  0
  -26.2220  -29.5720   20.7900 C   0  0  0  0  0  0  0  0  0  0  0  0
  -27.3950  -28.7640   20.7220 C   0  0  0  0  0  3  0  0  0  0  0  0
  -26.1770  -27.0960   19.4520 C   0  0  0  0  0  3  0  0  0  0  0  0
  -25.0210  -27.9010   19.5060 C   0  0  0  0  0  3  0  0  0  0  0  0
  -23.8210  -30.0230   20.2910 C   0  0  0  0  0  2  0  0  0  0  0  0
  -24.9130  -31.1610   22.2710 N   0  0  0  0  0  0  0  0  0  0  0  0
  -23.8020  -32.1670   23.9770 O   0  0  0  0  0  0  0  0  0  0  0  0
  -22.9630  -29.5630   22.6160 C   0  0  0  0  0  0  0  0  0  0  0  0
  -21.6420  -29.3790   22.4580 N   0  0  0  0  0  0  0  0  0  0  0  0
  -23.6340  -28.9100   23.4200 O   0  0  0  0  0  0  0  0  0  0  0  0
  -21.1620  -29.9580   21.7830 H   0  0  0  0  0  0  0  0  0  0  0  0
  -18.2770  -28.1020   22.8060 C   0  0  0  0  0  0  0  0  0  0  0  0
  -20.8170  -28.4060   23.1750 C   0  0  0  0  0  3  0  0  0  0  0  0
  -20.9700  -26.9930   22.5680 C   0  0  0  0  0  2  0  0  0  0  0  0
  -19.9120  -26.6750   21.5060 C   0  0  0  0  0  2  0  0  0  0  0  0
  -18.5050  -26.7760   22.1010 C   0  0  0  0  0  2  0  0  0  0  0  0
  -19.3630  -28.8760   23.2950 C   0  0  0  0  0  0  0  0  0  0  0  0
  -19.0960  -30.1180   23.9110 C   0  0  0  0  0  3  0  0  0  0  0  0
  -17.7750  -30.5870   24.0440 C   0  0  0  0  0  3  0  0  0  0  0  0
  -16.7030  -29.8110   23.5710 C   0  0  0  0  0  3  0  0  0  0  0  0
  -16.9540  -28.5700   22.9570 C   0  0  0  0  0  3  0  0  0  0  0  0
  -26.1730  -32.4790   24.0610 C   0  0  0  0  0  3  0  0  0  0  0  0
  -25.8980  -33.8720   24.4470 N   0  0  0  0  0  0  0  0  0  0  0  0
  -26.2200  -34.9440   23.7110 C   0  0  0  0  0  0  0  0  0  0  0  0
  -26.8480  -34.8650   22.6510 O   0  0  0  0  0  0  0  0  0  0  0  0
  -25.3370  -34.0090   25.2750 H   0  0  0  0  0  0  0  0  0  0  0  0
  -24.4930  -36.7630   23.5020 C   0  0  0  0  0  1  0  0  0  0  0  0
  -25.7730  -36.3240   24.2320 C   0  0  0  0  0  3  0  0  0  0  0  0
  -27.9580  -37.1690   24.9680 C   0  0  0  0  0  1  0  0  0  0  0  0
  -26.8090  -37.3700   24.0890 N   0  0  0  0  0  0  0  0  0  0  0  0
  -26.4210  -38.2900   24.2810 H   0  0  0  0  0  0  0  0  0  0  0  0
  -26.6700  -31.6470   25.3070 C   0  0  1  0  0  0  0  0  0  0  0  0
  -25.5740  -31.4010   26.3690 C   0  0  0  0  0  1  0  0  0  0  0  0
  -27.2120  -30.2680   24.8610 C   0  0  0  0  0  1  0  0  0  0  0  0
  -27.8440  -32.3840   25.9930 C   0  0  0  0  0  1  0  0  0  0  0  0
  1  3  1  0
  1 54  1  0
  2  7  2  0
  2  3  1  0
  3  4  2  0
  4  5  1  0
  4  8  1  0
  5  9  1  0
  6 19  1  0
  6  5  2  0
  7  6  1  0
 10  7  1  0
 11 17  1  0
 11 19  1  0
 12 17  1  0
 13 14  1  0
 13 12  1  0
 15 14  1  0
 15 24  1  0
 15 16  1  0
 17 16  1  0
 18 11  2  0
 19 20  1  0
 21 22  2  0
 22 41  1  0
 23 22  1  0
 23 26  1  0
 24 25  1  0
 24 21  1  0
 25 23  2  0
 26 27  1  0
 27 28  2  0
 29 32  1  0
 29 28  1  0
 30 29  2  0
 31 30  1  0
 31 26  2  0
 32 33  1  0
 33 38  2  0
 33 34  1  0
 34 35  2  0
 35 36  1  0
 36 40  1  0
 37 36  2  0
 38 37  1  0
 39 38  1  0
 41 42  1  0
 42 45  1  0
 42 44  1  0
 43 41  2  0
 46 21  1  0
 46 47  1  0
 48 46  1  0
 49 54  1  0
 50 49  2  0
 51 49  1  0
 51 53  1  0
 53 56  1  0
 53 52  1  0
 54 52  1  0
 54 55  1  1
 56 58  1  0
 57 68  2  0
 58 63  1  0
 59 67  1  0
 59 69  1  0
 60 66  1  0
 60 62  1  0
 61 67  1  0
 62 61  1  0
 63 62  2  0
 64 65  1  0
 64 58  2  0
 65 60  2  0
 66 59  1  0
 67 57  1  0
 69 71  2  0
 70 69  1  0
 72 70  1  0
 73 82  2  0
 73 78  1  0
 74 70  1  0
 74 78  1  0
 75 74  1  0
 76 77  1  0
 76 75  1  0
 77 73  1  0
 78 79  2  0
 79 80  1  0
 81 80  2  0
 82 81  1  0
 83 57  1  0
 83 84  1  0
 83 93  1  0
 84 87  1  0
 85 89  1  0
 85 84  1  0
 86 85  2  0
 89 88  1  0
 91 89  1  0
 91 92  1  0
 91 90  1  0
 93 96  1  1
 93 94  1  0
 95 93  1  0
M  ISO  4  11 100  19 100  53 101  56 101
M  END
>  <TORSDO>  (36) 
F 18

>  <SCORE>  (36) 
-12.375

>  <name>  (36) 
35

>  <ligand_id>  (36) 
35

>  <original_smiles>  (36) 
[H]C([H])=C1C([H])([H])C([H])(Oc2c([H])c([H])c3c(c2[H])C([H])([H])N(C(=O)C([H])(N([H])C(=O)C([H])(N([H])C([H])([H])[H])C([H])([H])[H])C(C([H])([H])[H])(C([H])([H])[H])C([H])([H])[H])C([H])(C(=O)N([H])C2([H])c4c([H])c([H])c([H])c([H])c4C([H])([H])C([H])([H])C2([H])[H])C3([H])[H])C([H])([H])[N+]1([H])C([H])([H])c1c([H])c(Cl)c(N([H])C(=O)N2C([H])([H])C([H])([H])C([H])([H])C([H])(n3nc(-c4c([H])c([H])c(Oc5c([H])c([H])c(F)c([H])c5F)c([H])c4[H])c(C(=O)N([H])[H])c3N([H])[H])C2([H])[H])c(C([H])([H])[H])c1C([H])([H])[H]

>  <smiles>  (36) 
[H]C([H])=C1C([H])([H])C([H])(Oc2c([H])c([H])c3c(c2[H])C([H])([H])N(C(=O)C([H])(N([H])C(=O)C([H])(N([H])C([H])([H])[H])C([H])([H])[H])C(C([H])([H])[H])(C([H])([H])[H])C([H])([H])[H])C([H])(C(=O)N([H])C2([H])c4c([H])c([H])c([H])c([H])c4C([H])([H])C([H])([H])C2([H])[H])C3([H])[H])C([H])([H])[N+]1([H])C([H])([H])c1c([H])c(Cl)c(N([H])C(=O)N2C([H])([H])C([H])([H])C([H])([H])C([H])(n3nc(-c4c([H])c([H])c(Oc5c([H])c([H])c(F)c([H])c5F)c([H])c4[H])c(C(=O)N([H])[H])c3N([H])[H])C2([H])[H])c(C([H])([H])[H])c1C([H])([H])[H]

$$$$
36:0:0
     RDKit          3D

 99108  0  0  1  0  0  0  0  0999 V2000
  -28.9190  -23.9980   19.5930 C   0  0  0  0  0  0  0  0  0  0  0  0
  -29.3380  -24.3610   18.3600 C   0  0  0  0  0  3  0  0  0  0  0  0
  -26.7850  -23.1320   21.1800 C   0  0  0  0  0  2  0  0  0  0  0  0
  -27.0850  -24.6270   21.3710 C   0  0  0  0  0  2  0  0  0  0  0  0
  -28.0540  -22.2640   21.3040 C   0  0  0  0  0  2  0  0  0  0  0  0
  -28.3290  -25.1030   20.5690 C   0  0  0  0  0  3  0  0  0  0  0  0
  -29.0480  -22.5370   20.2300 N   0  0  1  0  0  4  0  0  0  0  0  0
  -30.1590  -23.4120   17.1730 Cl  0  0  0  0  0  0  0  0  0  0  0  0
  -29.8800  -22.6080   20.7980 H   0  0  0  0  0  0  0  0  0  0  0  0
  -28.4060  -26.5560   20.1610 O   0  0  0  0  0  0  0  0  0  0  0  0
  -24.5980  -31.8740   23.2770 C   0  0  0  0  0  0  0  0  0  0  0  0
  -27.2840  -27.4070   20.1330 C   0  0  0  0  0  0  0  0  0  0  0  0
  -23.4320  -30.5100   21.5830 C   0  0  0  0  0  3  0  0  0  0  0  0
  -24.9130  -29.0120   20.1290 C   0  0  0  0  0  0  0  0  0  0  0  0
  -25.9720  -30.8490   21.4460 C   0  0  0  0  0  2  0  0  0  0  0  0
  -26.0690  -29.4900   20.7620 C   0  0  0  0  0  0  0  0  0  0  0  0
  -27.2560  -28.6960   20.7570 C   0  0  0  0  0  3  0  0  0  0  0  0
  -26.1220  -27.0070   19.4440 C   0  0  0  0  0  3  0  0  0  0  0  0
  -24.9420  -27.7750   19.4660 C   0  0  0  0  0  3  0  0  0  0  0  0
  -23.6670  -29.8720   20.1890 C   0  0  0  0  0  2  0  0  0  0  0  0
  -24.6850  -31.0950   22.1580 N   0  0  0  0  0  0  0  0  0  0  0  0
  -23.5030  -32.1270   23.8030 O   0  0  0  0  0  0  0  0  0  0  0  0
  -22.7660  -29.4620   22.5070 C   0  0  0  0  0  0  0  0  0  0  0  0
  -21.4390  -29.2980   22.3810 N   0  0  0  0  0  0  0  0  0  0  0  0
  -23.4440  -28.8010   23.2960 O   0  0  0  0  0  0  0  0  0  0  0  0
  -20.9490  -29.8810   21.7160 H   0  0  0  0  0  0  0  0  0  0  0  0
  -18.0560  -28.1080   22.8490 C   0  0  0  0  0  0  0  0  0  0  0  0
  -20.6180  -28.3340   23.1170 C   0  0  0  0  0  3  0  0  0  0  0  0
  -20.7060  -26.9250   22.4860 C   0  0  0  0  0  2  0  0  0  0  0  0
  -19.5960  -26.6500   21.4670 C   0  0  0  0  0  2  0  0  0  0  0  0
  -18.2200  -26.7870   22.1200 C   0  0  0  0  0  2  0  0  0  0  0  0
  -19.1820  -28.8430   23.3050 C   0  0  0  0  0  0  0  0  0  0  0  0
  -18.9760  -30.0840   23.9430 C   0  0  0  0  0  3  0  0  0  0  0  0
  -17.6740  -30.5870   24.1370 C   0  0  0  0  0  3  0  0  0  0  0  0
  -16.5630  -29.8440   23.7020 C   0  0  0  0  0  3  0  0  0  0  0  0
  -16.7550  -28.6080   23.0620 C   0  0  0  0  0  3  0  0  0  0  0  0
  -25.8650  -32.5030   23.9330 C   0  0  0  0  0  3  0  0  0  0  0  0
  -26.3300  -31.7480   25.2380 C   0  0  1  0  0  0  0  0  0  0  0  0
  -25.1970  -31.5390   26.2690 C   0  0  0  0  0  1  0  0  0  0  0  0
  -26.9130  -30.3590   24.8910 C   0  0  0  0  0  1  0  0  0  0  0  0
  -27.4650  -32.5420   25.9270 C   0  0  0  0  0  1  0  0  0  0  0  0
  -25.5620  -33.9110   24.2320 N   0  0  0  0  0  0  0  0  0  0  0  0
  -25.9520  -34.9520   23.4850 C   0  0  0  0  0  0  0  0  0  0  0  0
  -26.6770  -34.8290   22.4940 O   0  0  0  0  0  0  0  0  0  0  0  0
  -24.9310  -34.0850   25.0020 H   0  0  0  0  0  0  0  0  0  0  0  0
  -24.2950  -36.7810   23.0090 C   0  0  0  0  0  1  0  0  0  0  0  0
  -25.4630  -36.3510   23.9090 C   0  0  0  0  0  3  0  0  0  0  0  0
  -27.5480  -37.1930   24.8950 C   0  0  0  0  0  1  0  0  0  0  0  0
  -26.5230  -37.3810   23.8730 N   0  0  0  0  0  0  0  0  0  0  0  0
  -26.1260  -38.3100   23.9890 H   0  0  0  0  0  0  0  0  0  0  0  0
  -29.4730  -21.3010   19.3970 C   0  0  0  0  0  2  0  0  0  0  0  0
  -27.4140  -18.0370   18.9340 C   0  0  0  0  0  3  0  0  0  0  0  0
  -28.3130  -17.0170   19.2550 C   0  0  0  0  0  3  0  0  0  0  0  0
  -27.7500  -19.3890   19.0720 C   0  0  0  0  0  0  0  0  0  0  0  0
  -29.0160  -19.7700   19.6120 C   0  0  0  0  0  0  0  0  0  0  0  0
  -29.8950  -18.6660   20.0330 C   0  0  0  0  0  0  0  0  0  0  0  0
  -29.5590  -17.2470   19.8570 C   0  0  0  0  0  0  0  0  0  0  0  0
  -26.7350  -20.3580   18.4790 C   0  0  0  0  0  1  0  0  0  0  0  0
  -31.2760  -19.0040   20.5620 C   0  0  0  0  0  1  0  0  0  0  0  0
  -30.8430  -15.1120   20.8130 C   0  0  0  0  0  0  0  0  0  0  0  0
  -30.7810  -12.7140   20.1630 C   0  0  0  0  0  2  0  0  0  0  0  0
  -29.9780  -12.5010   18.8660 C   0  0  0  0  0  2  0  0  0  0  0  0
  -28.4900  -12.2720   19.1920 C   0  0  0  0  0  2  0  0  0  0  0  0
  -27.9360  -13.3130   20.1930 C   0  0  0  0  0  3  0  0  0  0  0  0
  -28.8770  -13.5700   21.3860 C   0  0  0  0  0  2  0  0  0  0  0  0
  -30.1900  -13.8970   20.8170 N   0  0  0  0  0  0  0  0  0  0  0  0
  -32.0360  -15.1110   21.1350 O   0  0  0  0  0  0  0  0  0  0  0  0
  -30.4890  -16.0660   19.8370 N   0  0  0  0  0  0  0  0  0  0  0  0
  -25.4970  -13.9500   20.6800 C   0  0  0  0  0  0  0  0  0  0  0  0
  -24.3960  -13.1880   20.9500 C   0  0  0  0  0  0  0  0  0  0  0  0
  -24.8640  -11.8410   21.0180 C   0  0  0  0  0  0  0  0  0  0  0  0
  -26.5580  -13.0620   20.5820 N   0  0  0  0  0  0  0  0  0  0  0  0
  -26.1780  -11.7920   20.8550 N   0  0  0  0  0  0  0  0  0  0  0  0
  -24.1300  -10.5810   21.1660 C   0  0  0  0  0  0  0  0  0  0  0  0
  -24.5070   -9.6240   22.1320 C   0  0  0  0  0  3  0  0  0  0  0  0
  -23.7780   -8.4240   22.2680 C   0  0  0  0  0  3  0  0  0  0  0  0
  -22.6590   -8.1780   21.4370 C   0  0  0  0  0  0  0  0  0  0  0  0
  -22.3040   -9.1230   20.4600 C   0  0  0  0  0  3  0  0  0  0  0  0
  -23.0340  -10.3150   20.3220 C   0  0  0  0  0  3  0  0  0  0  0  0
  -21.9030   -7.0320   21.4850 O   0  0  0  0  0  0  0  0  0  0  0  0
  -21.7980   -6.2890   22.6330 C   0  0  0  0  0  0  0  0  0  0  0  0
  -21.2700   -6.8280   23.8260 C   0  0  0  0  0  3  0  0  0  0  0  0
  -21.1170   -6.0070   24.9610 C   0  0  0  0  0  3  0  0  0  0  0  0
  -21.4800   -4.6480   24.9020 C   0  0  0  0  0  0  0  0  0  0  0  0
  -22.0020   -4.1090   23.7120 C   0  0  0  0  0  3  0  0  0  0  0  0
  -22.1570   -4.9280   22.5810 C   0  0  0  0  0  0  0  0  0  0  0  0
  -22.6410   -4.3990   21.4320 F   0  0  0  0  0  0  0  0  0  0  0  0
  -21.3240   -3.8580   25.9890 F   0  0  0  0  0  0  0  0  0  0  0  0
  -22.9760  -13.6640   21.0500 C   0  0  0  0  0  0  0  0  0  0  0  0
  -22.1680  -13.0080   21.8770 N   0  0  0  0  0  0  0  0  0  0  0  0
  -22.5890  -14.6560   20.4320 O   0  0  0  0  0  0  0  0  0  0  0  0
  -22.4930  -12.2090   22.4010 H   0  0  0  0  0  0  0  0  0  0  0  0
  -21.2100  -13.3090   21.9890 H   0  0  0  0  0  0  0  0  0  0  0  0
  -25.6740  -15.3130   20.4870 N   0  0  0  0  0  0  0  0  0  0  0  0
  -24.8970  -15.9630   20.5370 H   0  0  0  0  0  0  0  0  0  0  0  0
  -26.5670  -15.7720   20.3650 H   0  0  0  0  0  0  0  0  0  0  0  0
  -31.3400  -16.8730   17.6430 C   0  0  0  0  0  3  0  0  0  0  0  0
  -31.3410  -16.0330   18.6990 C   0  0  0  0  0  3  0  0  0  0  0  0
  -32.2900  -16.7590   16.4710 C   0  0  0  0  0  1  0  0  0  0  0  0
  1  7  1  0
  1  6  1  0
  2  1  2  0
  3  5  1  0
  3  4  1  0
  6 10  1  0
  6  4  1  0
  7  9  1  1
  7  5  1  0
  8  2  1  0
 11 22  2  0
 12 10  1  0
 12 17  1  0
 13 21  1  0
 13 23  1  0
 14 20  1  0
 14 16  1  0
 15 21  1  0
 16 15  1  0
 17 16  2  0
 18 19  1  0
 18 12  2  0
 19 14  2  0
 20 13  1  0
 21 11  1  0
 23 25  2  0
 24 23  1  0
 26 24  1  0
 27 36  2  0
 27 32  1  0
 28 24  1  0
 28 32  1  0
 29 28  1  0
 30 31  1  0
 30 29  1  0
 31 27  1  0
 32 33  2  0
 33 34  1  0
 35 34  2  0
 36 35  1  0
 37 11  1  0
 37 42  1  0
 37 38  1  0
 38 41  1  1
 38 39  1  0
 40 38  1  0
 42 45  1  0
 43 47  1  0
 43 42  1  0
 44 43  2  0
 47 46  1  0
 49 47  1  0
 49 50  1  0
 49 48  1  0
 51 55  1  0
 51  7  1  0
 52 54  2  0
 52 53  1  0
 53 57  2  0
 54 55  1  0
 55 56  2  0
 56 59  1  0
 57 56  1  0
 58 54  1  0
 60 66  1  0
 60 67  2  0
 61 66  1  0
 62 63  1  0
 62 61  1  0
 64 63  1  0
 64 72  1  0
 64 65  1  0
 66 65  1  0
 68 57  1  0
 68 60  1  0
 69 70  2  0
 70 71  1  0
 70 89  1  0
 71 74  1  0
 72 69  1  0
 72 73  1  0
 73 71  2  0
 74 75  1  0
 75 76  2  0
 77 80  1  0
 77 76  1  0
 78 77  2  0
 79 78  1  0
 79 74  2  0
 80 81  1  0
 81 82  1  0
 82 83  2  0
 84 83  1  0
 84 88  1  0
 85 84  2  0
 86 81  2  0
 86 85  1  0
 87 86  1  0
 89 90  1  0
 90 93  1  0
 90 92  1  0
 91 89  2  0
 94 95  1  0
 94 69  1  0
 96 94  1  0
 97 98  2  0
 98 68  1  0
 99 97  1  0
M  ISO  4   6 101  10 101  60 100  68 100
M  END
>  <TORSDO>  (37) 
F 19

>  <SCORE>  (37) 
-14.620

>  <name>  (37) 
36

>  <ligand_id>  (37) 
36

>  <original_smiles>  (37) 
[H]C(Cl)=C1C([H])(Oc2c([H])c([H])c3c(c2[H])C([H])([H])N(C(=O)C([H])(N([H])C(=O)C([H])(N([H])C([H])([H])[H])C([H])([H])[H])C(C([H])([H])[H])(C([H])([H])[H])C([H])([H])[H])C([H])(C(=O)N([H])C2([H])c4c([H])c([H])c([H])c([H])c4C([H])([H])C([H])([H])C2([H])[H])C3([H])[H])C([H])([H])C([H])([H])C([H])([H])[N+]1([H])C([H])([H])c1c(C([H])([H])[H])c([H])c([H])c(N(C(=O)N2C([H])([H])C([H])([H])C([H])([H])C([H])(n3nc(-c4c([H])c([H])c(Oc5c([H])c([H])c(F)c([H])c5F)c([H])c4[H])c(C(=O)N([H])[H])c3N([H])[H])C2([H])[H])C([H])=C([H])C([H])([H])[H])c1C([H])([H])[H]

>  <smiles>  (37) 
[H]C(Cl)=C1C([H])(Oc2c([H])c([H])c3c(c2[H])C([H])([H])N(C(=O)C([H])(N([H])C(=O)C([H])(N([H])C([H])([H])[H])C([H])([H])[H])C(C([H])([H])[H])(C([H])([H])[H])C([H])([H])[H])C([H])(C(=O)N([H])C2([H])c4c([H])c([H])c([H])c([H])c4C([H])([H])C([H])([H])C2([H])[H])C3([H])[H])C([H])([H])C([H])([H])C([H])([H])[N+]1([H])C([H])([H])c1c(C([H])([H])[H])c([H])c([H])c(N(C(=O)N2C([H])([H])C([H])([H])C([H])([H])C([H])(n3nc(-c4c([H])c([H])c(Oc5c([H])c([H])c(F)c([H])c5F)c([H])c4[H])c(C(=O)N([H])[H])c3N([H])[H])C2([H])[H])C([H])=C([H])C([H])([H])[H])c1C([H])([H])[H]

$$$$
37:0:0
     RDKit          3D

 90 98  0  0  1  0  0  0  0  0999 V2000
  -28.7310  -20.4070   20.2430 C   0  0  0  0  0  3  0  0  0  0  0  0
  -30.8750  -19.6180   21.0030 C   0  0  0  0  0  3  0  0  0  0  0  0
  -29.0180  -21.8700   20.4710 C   0  0  0  0  0  0  0  0  0  0  0  0
  -29.6310  -19.2270   20.4710 C   0  0  0  0  0  0  0  0  0  0  0  0
  -30.3550  -22.0770   20.8890 C   0  0  0  0  0  0  0  0  0  0  0  0
  -31.2290  -20.9840   21.1800 C   0  0  0  0  0  0  0  0  0  0  0  0
  -30.8790  -23.4920   21.0460 C   0  0  0  0  0  1  0  0  0  0  0  0
  -32.4740  -21.2520   21.6390 F   0  0  0  0  0  0  0  0  0  0  0  0
  -27.9690  -23.1100   20.3250 C   0  0  0  0  0  3  0  0  0  0  0  0
  -27.6240  -24.5230   20.2960 C   0  0  0  0  0  3  0  0  0  0  0  0
  -28.1050  -25.9420   20.3320 O   0  0  0  0  0  0  0  0  0  0  0  0
  -24.6130  -31.8920   23.2340 C   0  0  0  0  0  0  0  0  0  0  0  0
  -27.1490  -27.0580   20.2420 C   0  0  0  0  0  0  0  0  0  0  0  0
  -23.4160  -30.4930   21.5990 C   0  0  0  0  0  3  0  0  0  0  0  0
  -24.8610  -28.8990   20.1860 C   0  0  0  0  0  0  0  0  0  0  0  0
  -25.9800  -30.7090   21.4620 C   0  0  0  0  0  2  0  0  0  0  0  0
  -26.0430  -29.3030   20.8230 C   0  0  0  0  0  0  0  0  0  0  0  0
  -27.1800  -28.3900   20.8560 C   0  0  0  0  0  3  0  0  0  0  0  0
  -25.9690  -26.8300   19.4950 C   0  0  0  0  0  3  0  0  0  0  0  0
  -24.8400  -27.6730   19.5120 C   0  0  0  0  0  3  0  0  0  0  0  0
  -23.6470  -29.8140   20.2230 C   0  0  0  0  0  2  0  0  0  0  0  0
  -24.6900  -31.0560   22.1520 N   0  0  0  0  0  0  0  0  0  0  0  0
  -23.5260  -32.1880   23.7520 O   0  0  0  0  0  0  0  0  0  0  0  0
  -22.7230  -29.4970   22.5630 C   0  0  0  0  0  0  0  0  0  0  0  0
  -21.3930  -29.3310   22.4370 N   0  0  0  0  0  0  0  0  0  0  0  0
  -23.3870  -28.8750   23.3970 O   0  0  0  0  0  0  0  0  0  0  0  0
  -20.9110  -29.8890   21.7450 H   0  0  0  0  0  0  0  0  0  0  0  0
  -18.0100  -28.1230   22.9280 C   0  0  0  0  0  0  0  0  0  0  0  0
  -20.5670  -28.4010   23.2130 C   0  0  0  0  0  3  0  0  0  0  0  0
  -20.6790  -26.9600   22.6610 C   0  0  0  0  0  2  0  0  0  0  0  0
  -19.5880  -26.6170   21.6410 C   0  0  0  0  0  2  0  0  0  0  0  0
  -18.2000  -26.7650   22.2720 C   0  0  0  0  0  2  0  0  0  0  0  0
  -19.1220  -28.8970   23.3560 C   0  0  0  0  0  0  0  0  0  0  0  0
  -18.8900  -30.1640   23.9350 C   0  0  0  0  0  3  0  0  0  0  0  0
  -17.5820  -30.6580   24.0880 C   0  0  0  0  0  3  0  0  0  0  0  0
  -16.4850  -29.8830   23.6740 C   0  0  0  0  0  3  0  0  0  0  0  0
  -16.7010  -28.6170   23.1010 C   0  0  0  0  0  3  0  0  0  0  0  0
  -25.8900  -32.5320   23.8580 C   0  0  0  0  0  3  0  0  0  0  0  0
  -25.5800  -33.9340   24.1820 N   0  0  0  0  0  0  0  0  0  0  0  0
  -25.9070  -34.9880   23.4220 C   0  0  0  0  0  0  0  0  0  0  0  0
  -26.5670  -34.8810   22.3850 O   0  0  0  0  0  0  0  0  0  0  0  0
  -24.9960  -34.0890   24.9900 H   0  0  0  0  0  0  0  0  0  0  0  0
  -24.1820  -36.7900   23.0830 C   0  0  0  0  0  1  0  0  0  0  0  0
  -25.4280  -36.3790   23.8830 C   0  0  0  0  0  3  0  0  0  0  0  0
  -27.5710  -37.2650   24.6950 C   0  0  0  0  0  1  0  0  0  0  0  0
  -26.4610  -37.4290   23.7590 N   0  0  0  0  0  0  0  0  0  0  0  0
  -26.0580  -38.3500   23.9080 H   0  0  0  0  0  0  0  0  0  0  0  0
  -26.3930  -31.7730   25.1480 C   0  0  1  0  0  0  0  0  0  0  0  0
  -25.2930  -31.5540   26.2120 C   0  0  0  0  0  1  0  0  0  0  0  0
  -26.9700  -30.3860   24.7820 C   0  0  0  0  0  1  0  0  0  0  0  0
  -27.5440  -32.5690   25.8070 C   0  0  0  0  0  1  0  0  0  0  0  0
  -29.4320  -17.6280   19.9940 C   0  0  0  0  0  2  0  0  0  0  0  0
  -30.4840  -15.0280   20.3270 C   0  0  0  0  0  0  0  0  0  0  0  0
  -30.3830  -12.6610   19.3830 C   0  0  0  0  0  2  0  0  0  0  0  0
  -29.4480  -12.6180   18.1480 C   0  0  0  0  0  2  0  0  0  0  0  0
  -27.9840  -12.4090   18.5720 C   0  0  0  0  0  2  0  0  0  0  0  0
  -27.5840  -13.3220   19.7590 C   0  0  0  0  0  3  0  0  0  0  0  0
  -28.6360  -13.3150   20.8910 C   0  0  0  0  0  2  0  0  0  0  0  0
  -29.9130  -13.7470   20.3050 N   0  0  0  0  0  0  0  0  0  0  0  0
  -31.6450  -15.1130   19.9130 O   0  0  0  0  0  0  0  0  0  0  0  0
  -29.7170  -16.1940   20.6600 N   0  0  0  0  0  0  0  0  0  0  0  0
  -28.9130  -15.9000   21.1930 H   0  0  0  0  0  0  0  0  0  0  0  0
  -25.2030  -13.9010   20.4850 C   0  0  0  0  0  0  0  0  0  0  0  0
  -24.1380  -13.1320   20.8570 C   0  0  0  0  0  0  0  0  0  0  0  0
  -24.6000  -11.7780   20.8330 C   0  0  0  0  0  0  0  0  0  0  0  0
  -26.2450  -13.0230   20.2490 N   0  0  0  0  0  0  0  0  0  0  0  0
  -25.8920  -11.7400   20.5230 N   0  0  0  0  0  0  0  0  0  0  0  0
  -23.8720  -10.5190   21.0280 C   0  0  0  0  0  0  0  0  0  0  0  0
  -24.3040   -9.5480   21.9580 C   0  0  0  0  0  3  0  0  0  0  0  0
  -23.5720   -8.3550   22.1400 C   0  0  0  0  0  3  0  0  0  0  0  0
  -22.3940   -8.1230   21.3910 C   0  0  0  0  0  0  0  0  0  0  0  0
  -21.9790   -9.0830   20.4500 C   0  0  0  0  0  3  0  0  0  0  0  0
  -22.7130  -10.2670   20.2670 C   0  0  0  0  0  3  0  0  0  0  0  0
  -21.6340   -6.9830   21.4830 O   0  0  0  0  0  0  0  0  0  0  0  0
  -21.5910   -6.2370   22.6340 C   0  0  0  0  0  0  0  0  0  0  0  0
  -21.1730   -6.7890   23.8650 C   0  0  0  0  0  3  0  0  0  0  0  0
  -21.0740   -5.9700   25.0070 C   0  0  0  0  0  3  0  0  0  0  0  0
  -21.3860   -4.6010   24.9210 C   0  0  0  0  0  0  0  0  0  0  0  0
  -21.8000   -4.0490   23.6960 C   0  0  0  0  0  3  0  0  0  0  0  0
  -21.8980   -4.8640   22.5550 C   0  0  0  0  0  0  0  0  0  0  0  0
  -22.2750   -4.3210   21.3720 F   0  0  0  0  0  0  0  0  0  0  0  0
  -21.2850   -3.8120   26.0160 F   0  0  0  0  0  0  0  0  0  0  0  0
  -22.7430  -13.6120   21.1230 C   0  0  0  0  0  0  0  0  0  0  0  0
  -22.0120  -12.9250   21.9920 N   0  0  0  0  0  0  0  0  0  0  0  0
  -22.3080  -14.6360   20.5950 O   0  0  0  0  0  0  0  0  0  0  0  0
  -22.3810  -12.1000   22.4440 H   0  0  0  0  0  0  0  0  0  0  0  0
  -21.0740  -13.2280   22.2110 H   0  0  0  0  0  0  0  0  0  0  0  0
  -25.3710  -15.2720   20.2990 N   0  0  0  0  0  0  0  0  0  0  0  0
  -24.5990  -15.9230   20.3940 H   0  0  0  0  0  0  0  0  0  0  0  0
  -26.2040  -15.6960   19.9120 H   0  0  0  0  0  0  0  0  0  0  0  0
  1  4  2  0
  1  3  1  0
  2  6  2  0
  3  5  2  0
  4  2  1  0
  5  7  1  0
  5  6  1  0
  6  8  1  0
  9  3  1  0
 10  9  2  0
 10 11  1  0
 12 23  2  0
 13 11  1  0
 13 18  1  0
 14 22  1  0
 14 24  1  0
 15 21  1  0
 15 17  1  0
 16 22  1  0
 17 18  2  0
 17 16  1  0
 19 20  1  0
 19 13  2  0
 20 15  2  0
 21 14  1  0
 22 12  1  0
 24 26  2  0
 25 24  1  0
 27 25  1  0
 28 37  2  0
 28 33  1  0
 29 25  1  0
 29 33  1  0
 30 29  1  0
 31 32  1  0
 31 30  1  0
 32 28  1  0
 33 34  2  0
 34 35  1  0
 36 35  2  0
 37 36  1  0
 38 12  1  0
 38 39  1  0
 38 48  1  0
 39 42  1  0
 40 44  1  0
 40 39  1  0
 41 40  2  0
 44 43  1  0
 46 44  1  0
 46 47  1  0
 46 45  1  0
 48 51  1  1
 48 49  1  0
 50 48  1  0
 52  4  1  0
 52 61  1  0
 53 61  1  0
 54 59  1  0
 55 56  1  0
 55 54  1  0
 57 56  1  0
 57 66  1  0
 57 58  1  0
 59 53  1  0
 59 58  1  0
 60 53  2  0
 61 62  1  0
 63 64  2  0
 64 83  1  0
 65 64  1  0
 65 68  1  0
 66 63  1  0
 66 67  1  0
 67 65  2  0
 68 69  1  0
 69 70  2  0
 71 74  1  0
 71 70  1  0
 72 71  2  0
 73 72  1  0
 73 68  2  0
 74 75  1  0
 75 76  1  0
 76 77  2  0
 78 77  1  0
 78 82  1  0
 79 78  2  0
 80 75  2  0
 80 79  1  0
 81 80  1  0
 83 84  1  0
 84 87  1  0
 84 86  1  0
 85 83  2  0
 88 89  1  0
 88 63  1  0
 90 88  1  0
M  ISO  4  10 101  11 101  53 100  61 100
M  END
>  <TORSDO>  (38) 
F 18

>  <SCORE>  (38) 
-14.838

>  <name>  (38) 
37

>  <ligand_id>  (38) 
37

>  <original_smiles>  (38) 
[H]C(Oc1c([H])c([H])c2c(c1[H])C([H])([H])N(C(=O)C([H])(N([H])C(=O)C([H])(N([H])C([H])([H])[H])C([H])([H])[H])C(C([H])([H])[H])(C([H])([H])[H])C([H])([H])[H])C([H])(C(=O)N([H])C1([H])c3c([H])c([H])c([H])c([H])c3C([H])([H])C([H])([H])C1([H])[H])C2([H])[H])=C([H])c1c([H])c(C([H])([H])N([H])C(=O)N2C([H])([H])C([H])([H])C([H])([H])C([H])(n3nc(-c4c([H])c([H])c(Oc5c([H])c([H])c(F)c([H])c5F)c([H])c4[H])c(C(=O)N([H])[H])c3N([H])[H])C2([H])[H])c([H])c(F)c1C([H])([H])[H]

>  <smiles>  (38) 
[H]C(Oc1c([H])c([H])c2c(c1[H])C([H])([H])N(C(=O)C([H])(N([H])C(=O)C([H])(N([H])C([H])([H])[H])C([H])([H])[H])C(C([H])([H])[H])(C([H])([H])[H])C([H])([H])[H])C([H])(C(=O)N([H])C1([H])c3c([H])c([H])c([H])c([H])c3C([H])([H])C([H])([H])C1([H])[H])C2([H])[H])=C([H])c1c([H])c(C([H])([H])N([H])C(=O)N2C([H])([H])C([H])([H])C([H])([H])C([H])(n3nc(-c4c([H])c([H])c(Oc5c([H])c([H])c(F)c([H])c5F)c([H])c4[H])c(C(=O)N([H])[H])c3N([H])[H])C2([H])[H])c([H])c(F)c1C([H])([H])[H]

$$$$
38:0:0
     RDKit          3D

 93102  0  0  1  0  0  0  0  0999 V2000
  -29.8540  -23.4600   18.3650 C   0  0  0  0  0  0  0  0  0  0  0  0
  -29.4690  -24.9390   18.4810 C   0  0  0  0  0  2  0  0  0  0  0  0
  -28.8860  -23.6840   20.4270 C   0  0  0  0  0  2  0  0  0  0  0  0
  -28.4670  -24.9810   19.6250 C   0  0  0  0  0  3  0  0  0  0  0  0
  -29.5070  -22.7270   19.4550 N   0  0  0  0  0  0  0  0  0  0  0  0
  -30.4270  -23.0540   17.3500 O   0  0  0  0  0  0  0  0  0  0  0  0
  -30.2750  -18.9510   18.9000 C   0  0  0  0  0  3  0  0  0  0  0  0
  -29.8710  -20.3000   18.6600 C   0  0  0  0  0  3  0  0  0  0  0  0
  -30.0700  -20.7860   21.0040 C   0  0  0  0  0  3  0  0  0  0  0  0
  -30.6260  -18.4860   20.1940 C   0  0  0  0  0  0  0  0  0  0  0  0
  -29.8060  -21.2880   19.6970 C   0  0  0  0  0  0  0  0  0  0  0  0
  -30.4680  -19.4350   21.2530 C   0  0  0  0  0  0  0  0  0  0  0  0
  -30.8090  -18.9980   22.8940 Cl  0  0  0  0  0  0  0  0  0  0  0  0
  -31.3810  -17.1110   20.3880 C   0  0  0  0  0  2  0  0  0  0  0  0
  -31.4340  -14.5870   19.9170 C   0  0  0  0  0  0  0  0  0  0  0  0
  -31.0680  -12.2670   19.0960 C   0  0  0  0  0  2  0  0  0  0  0  0
  -30.0950  -12.2890   17.8970 C   0  0  0  0  0  2  0  0  0  0  0  0
  -28.6320  -12.2400   18.3810 C   0  0  0  0  0  2  0  0  0  0  0  0
  -28.3450  -13.2530   19.5220 C   0  0  0  0  0  3  0  0  0  0  0  0
  -29.4320  -13.2020   20.6180 C   0  0  0  0  0  2  0  0  0  0  0  0
  -30.7260  -13.4150   19.9590 N   0  0  0  0  0  0  0  0  0  0  0  0
  -32.6070  -14.6020   19.5330 O   0  0  0  0  0  0  0  0  0  0  0  0
  -30.7620  -15.7590   20.1530 N   0  0  0  0  0  0  0  0  0  0  0  0
  -29.7790  -15.6740   20.3640 H   0  0  0  0  0  0  0  0  0  0  0  0
  -26.0630  -14.0400   20.3950 C   0  0  0  0  0  0  0  0  0  0  0  0
  -24.9460  -13.3530   20.7910 C   0  0  0  0  0  0  0  0  0  0  0  0
  -25.2750  -11.9670   20.6870 C   0  0  0  0  0  0  0  0  0  0  0  0
  -27.0050  -13.0750   20.0740 N   0  0  0  0  0  0  0  0  0  0  0  0
  -26.5400  -11.8200   20.3080 N   0  0  0  0  0  0  0  0  0  0  0  0
  -24.4410  -10.7710   20.8670 C   0  0  0  0  0  0  0  0  0  0  0  0
  -24.7910   -9.7580   21.7840 C   0  0  0  0  0  3  0  0  0  0  0  0
  -23.9650   -8.6270   21.9530 C   0  0  0  0  0  3  0  0  0  0  0  0
  -22.7710   -8.5030   21.2030 C   0  0  0  0  0  0  0  0  0  0  0  0
  -22.4380   -9.5040   20.2710 C   0  0  0  0  0  3  0  0  0  0  0  0
  -23.2670  -10.6260   20.1020 C   0  0  0  0  0  3  0  0  0  0  0  0
  -21.9170   -7.4300   21.2830 O   0  0  0  0  0  0  0  0  0  0  0  0
  -21.7490   -6.7320   22.4510 C   0  0  0  0  0  0  0  0  0  0  0  0
  -21.3000   -7.3550   23.6360 C   0  0  0  0  0  3  0  0  0  0  0  0
  -21.0740   -6.5870   24.7950 C   0  0  0  0  0  3  0  0  0  0  0  0
  -21.2830   -5.1950   24.7690 C   0  0  0  0  0  0  0  0  0  0  0  0
  -21.7230   -4.5700   23.5890 C   0  0  0  0  0  3  0  0  0  0  0  0
  -21.9530   -5.3370   22.4340 C   0  0  0  0  0  0  0  0  0  0  0  0
  -22.3560   -4.7270   21.2940 F   0  0  0  0  0  0  0  0  0  0  0  0
  -21.0600   -4.4550   25.8800 F   0  0  0  0  0  0  0  0  0  0  0  0
  -23.6170  -13.9490   21.1520 C   0  0  0  0  0  0  0  0  0  0  0  0
  -22.8800  -13.2960   22.0470 N   0  0  0  0  0  0  0  0  0  0  0  0
  -23.2440  -15.0210   20.6820 O   0  0  0  0  0  0  0  0  0  0  0  0
  -23.1950  -12.4260   22.4480 H   0  0  0  0  0  0  0  0  0  0  0  0
  -21.9880  -13.6730   22.3350 H   0  0  0  0  0  0  0  0  0  0  0  0
  -26.3430  -15.3950   20.2570 N   0  0  0  0  0  0  0  0  0  0  0  0
  -25.6390  -16.1070   20.4200 H   0  0  0  0  0  0  0  0  0  0  0  0
  -27.2050  -15.7720   19.8810 H   0  0  0  0  0  0  0  0  0  0  0  0
  -28.4180  -26.3400   20.2470 O   0  0  0  0  0  0  0  0  0  0  0  0
  -24.6220  -31.7100   23.2740 C   0  0  0  0  0  0  0  0  0  0  0  0
  -27.2810  -27.1720   20.1910 C   0  0  0  0  0  0  0  0  0  0  0  0
  -23.4520  -30.3380   21.5940 C   0  0  0  0  0  3  0  0  0  0  0  0
  -24.9240  -28.8100   20.1780 C   0  0  0  0  0  0  0  0  0  0  0  0
  -25.9970  -30.6470   21.4670 C   0  0  0  0  0  2  0  0  0  0  0  0
  -26.0860  -29.2770   20.8020 C   0  0  0  0  0  0  0  0  0  0  0  0
  -27.2670  -28.4710   20.8000 C   0  0  0  0  0  3  0  0  0  0  0  0
  -26.0780  -26.7640   19.5610 C   0  0  0  0  0  3  0  0  0  0  0  0
  -24.9230  -27.5590   19.5560 C   0  0  0  0  0  3  0  0  0  0  0  0
  -23.6940  -29.6920   20.2080 C   0  0  0  0  0  2  0  0  0  0  0  0
  -24.7100  -30.9150   22.1690 N   0  0  0  0  0  0  0  0  0  0  0  0
  -23.5280  -31.9810   23.7880 O   0  0  0  0  0  0  0  0  0  0  0  0
  -22.7700  -29.3040   22.5220 C   0  0  0  0  0  0  0  0  0  0  0  0
  -21.4520  -29.1110   22.3520 N   0  0  0  0  0  0  0  0  0  0  0  0
  -23.4290  -28.6800   23.3570 O   0  0  0  0  0  0  0  0  0  0  0  0
  -20.9780  -29.6690   21.6560 H   0  0  0  0  0  0  0  0  0  0  0  0
  -18.0780  -27.8530   22.7200 C   0  0  0  0  0  0  0  0  0  0  0  0
  -20.6190  -28.1580   23.0920 C   0  0  0  0  0  3  0  0  0  0  0  0
  -20.7700  -26.7250   22.5300 C   0  0  0  0  0  2  0  0  0  0  0  0
  -19.7160  -26.3800   21.4730 C   0  0  0  0  0  2  0  0  0  0  0  0
  -18.3070  -26.5020   22.0580 C   0  0  0  0  0  2  0  0  0  0  0  0
  -19.1670  -28.6360   23.1910 C   0  0  0  0  0  0  0  0  0  0  0  0
  -18.9030  -29.8990   23.7660 C   0  0  0  0  0  3  0  0  0  0  0  0
  -17.5840  -30.3780   23.8800 C   0  0  0  0  0  3  0  0  0  0  0  0
  -16.5100  -29.5920   23.4240 C   0  0  0  0  0  3  0  0  0  0  0  0
  -16.7570  -28.3320   22.8480 C   0  0  0  0  0  3  0  0  0  0  0  0
  -25.8930  -32.3360   23.9280 C   0  0  0  0  0  3  0  0  0  0  0  0
  -25.5820  -33.7350   24.2550 N   0  0  0  0  0  0  0  0  0  0  0  0
  -25.9070  -34.7860   23.4920 C   0  0  0  0  0  0  0  0  0  0  0  0
  -26.5740  -34.6820   22.4590 O   0  0  0  0  0  0  0  0  0  0  0  0
  -25.0010  -33.8930   25.0660 H   0  0  0  0  0  0  0  0  0  0  0  0
  -24.1600  -36.5620   23.1580 C   0  0  0  0  0  1  0  0  0  0  0  0
  -25.4170  -36.1730   23.9490 C   0  0  0  0  0  3  0  0  0  0  0  0
  -27.5530  -37.0820   24.7460 C   0  0  0  0  0  1  0  0  0  0  0  0
  -26.4400  -37.2330   23.8140 N   0  0  0  0  0  0  0  0  0  0  0  0
  -26.0280  -38.1500   23.9640 H   0  0  0  0  0  0  0  0  0  0  0  0
  -26.3740  -31.5600   25.2160 C   0  0  1  0  0  0  0  0  0  0  0  0
  -25.2540  -31.3230   26.2560 C   0  0  0  0  0  1  0  0  0  0  0  0
  -26.9640  -30.1820   24.8360 C   0  0  0  0  0  1  0  0  0  0  0  0
  -27.5080  -32.3500   25.9100 C   0  0  0  0  0  1  0  0  0  0  0  0
  1  2  1  0
  1  5  1  0
  2  4  1  0
  4 53  1  0
  4  3  1  0
  5 11  1  0
  5  3  1  0
  6  1  2  0
  7 10  1  0
  8  7  2  0
  8 11  1  0
  9 12  1  0
 10 14  1  0
 10 12  2  0
 11  9  2  0
 12 13  1  0
 15 21  1  0
 15 23  1  0
 16 21  1  0
 17 18  1  0
 17 16  1  0
 19 18  1  0
 19 28  1  0
 19 20  1  0
 21 20  1  0
 22 15  2  0
 23 24  1  0
 23 14  1  0
 25 26  2  0
 26 45  1  0
 27 26  1  0
 27 30  1  0
 28 29  1  0
 28 25  1  0
 29 27  2  0
 30 31  1  0
 31 32  2  0
 33 36  1  0
 33 32  1  0
 34 33  2  0
 35 34  1  0
 35 30  2  0
 36 37  1  0
 37 38  1  0
 38 39  2  0
 40 39  1  0
 40 44  1  0
 41 40  2  0
 42 37  2  0
 42 41  1  0
 43 42  1  0
 45 46  1  0
 46 49  1  0
 46 48  1  0
 47 45  2  0
 50 25  1  0
 50 51  1  0
 52 50  1  0
 54 65  2  0
 55 53  1  0
 55 60  1  0
 56 64  1  0
 56 66  1  0
 57 63  1  0
 57 59  1  0
 58 64  1  0
 59 58  1  0
 60 59  2  0
 61 55  2  0
 62 61  1  0
 62 57  2  0
 63 56  1  0
 64 54  1  0
 66 68  2  0
 67 66  1  0
 69 67  1  0
 70 79  2  0
 70 75  1  0
 71 67  1  0
 71 75  1  0
 72 71  1  0
 73 74  1  0
 73 72  1  0
 74 70  1  0
 75 76  2  0
 76 77  1  0
 78 77  2  0
 79 78  1  0
 80 54  1  0
 80 81  1  0
 80 90  1  0
 81 84  1  0
 82 86  1  0
 82 81  1  0
 83 82  2  0
 86 85  1  0
 88 86  1  0
 88 89  1  0
 88 87  1  0
 90 93  1  1
 90 91  1  0
 92 90  1  0
M  ISO  4   4 101  15 100  23 100  53 101
M  END
>  <TORSDO>  (39) 
F 18

>  <SCORE>  (39) 
-13.708

>  <name>  (39) 
38

>  <ligand_id>  (39) 
38

>  <original_smiles>  (39) 
[H]c1c([H])c([H])c2c(c1[H])C([H])([H])C([H])([H])C([H])([H])C2([H])N([H])C(=O)C1([H])N(C(=O)C([H])(N([H])C(=O)C([H])(N([H])C([H])([H])[H])C([H])([H])[H])C(C([H])([H])[H])(C([H])([H])[H])C([H])([H])[H])C([H])([H])c2c([H])c(OC3([H])C([H])([H])C(=O)N(c4c([H])c([H])c(C([H])([H])N([H])C(=O)N5C([H])([H])C([H])([H])C([H])([H])C([H])(n6nc(-c7c([H])c([H])c(Oc8c([H])c([H])c(F)c([H])c8F)c([H])c7[H])c(C(=O)N([H])[H])c6N([H])[H])C5([H])[H])c(Cl)c4[H])C3([H])[H])c([H])c([H])c2C1([H])[H]

>  <smiles>  (39) 
[H]c1c([H])c([H])c2c(c1[H])C([H])([H])C([H])([H])C([H])([H])C2([H])N([H])C(=O)C1([H])N(C(=O)C([H])(N([H])C(=O)C([H])(N([H])C([H])([H])[H])C([H])([H])[H])C(C([H])([H])[H])(C([H])([H])[H])C([H])([H])[H])C([H])([H])c2c([H])c(OC3([H])C([H])([H])C(=O)N(c4c([H])c([H])c(C([H])([H])N([H])C(=O)N5C([H])([H])C([H])([H])C([H])([H])C([H])(n6nc(-c7c([H])c([H])c(Oc8c([H])c([H])c(F)c([H])c8F)c([H])c7[H])c(C(=O)N([H])[H])c6N([H])[H])C5([H])[H])c(Cl)c4[H])C3([H])[H])c([H])c([H])c2C1([H])[H]

$$$$
39:0:0
     RDKit          3D

 90 98  0  0  1  0  0  0  0  0999 V2000
  -29.1720  -21.5020   18.0100 C   0  0  0  0  0  3  0  0  0  0  0  0
  -28.9040  -22.7310   18.6820 C   0  0  0  0  0  3  0  0  0  0  0  0
  -29.4390  -20.2490   18.6390 C   0  0  0  0  0  3  0  0  0  0  0  0
  -28.8420  -22.8600   20.0870 C   0  0  0  0  0  0  0  0  0  0  0  0
  -29.4850  -20.0760   20.0380 C   0  0  0  0  0  0  0  0  0  0  0  0
  -29.1630  -21.4520   20.7130 C   0  0  0  0  0  0  0  0  0  0  0  0
  -29.1640  -21.3900   22.2290 C   0  0  0  0  0  1  0  0  0  0  0  0
  -28.2930  -24.4150   20.6950 C   0  0  0  0  0  0  0  0  0  0  0  0
  -27.6720  -24.3490   21.7930 N   0  0  0  0  0  0  0  0  0  0  0  0
  -27.6090  -23.3880   22.1090 H   0  0  0  0  0  0  0  0  0  0  0  0
  -28.4260  -25.8620   20.1490 O   0  0  0  0  0  0  0  0  0  0  0  0
  -24.6880  -31.8380   23.1630 C   0  0  0  0  0  0  0  0  0  0  0  0
  -27.4130  -26.9880   20.1810 C   0  0  0  0  0  0  0  0  0  0  0  0
  -23.5650  -30.4320   21.4860 C   0  0  0  0  0  3  0  0  0  0  0  0
  -25.0840  -28.8620   20.0920 C   0  0  0  0  0  0  0  0  0  0  0  0
  -26.1340  -30.6840   21.4080 C   0  0  0  0  0  2  0  0  0  0  0  0
  -26.2510  -29.2720   20.7480 C   0  0  0  0  0  0  0  0  0  0  0  0
  -27.4130  -28.3610   20.7650 C   0  0  0  0  0  3  0  0  0  0  0  0
  -26.2110  -26.7520   19.4740 C   0  0  0  0  0  3  0  0  0  0  0  0
  -25.0910  -27.6240   19.4340 C   0  0  0  0  0  3  0  0  0  0  0  0
  -23.8470  -29.7640   20.1120 C   0  0  0  0  0  2  0  0  0  0  0  0
  -24.8160  -31.0130   22.0730 N   0  0  0  0  0  0  0  0  0  0  0  0
  -23.5790  -32.1010   23.6600 O   0  0  0  0  0  0  0  0  0  0  0  0
  -22.8680  -29.4140   22.4270 C   0  0  0  0  0  0  0  0  0  0  0  0
  -21.5450  -29.2150   22.2640 N   0  0  0  0  0  0  0  0  0  0  0  0
  -23.5230  -28.8040   23.2750 O   0  0  0  0  0  0  0  0  0  0  0  0
  -21.0660  -29.7570   21.5580 H   0  0  0  0  0  0  0  0  0  0  0  0
  -18.1830  -27.9080   22.6770 C   0  0  0  0  0  0  0  0  0  0  0  0
  -20.7260  -28.2510   23.0100 C   0  0  0  0  0  3  0  0  0  0  0  0
  -20.8840  -26.8250   22.4310 C   0  0  0  0  0  2  0  0  0  0  0  0
  -19.8200  -26.4760   21.3870 C   0  0  0  0  0  2  0  0  0  0  0  0
  -18.4180  -26.5710   21.9950 C   0  0  0  0  0  2  0  0  0  0  0  0
  -19.2650  -28.7040   23.1400 C   0  0  0  0  0  0  0  0  0  0  0  0
  -18.9890  -29.9500   23.7410 C   0  0  0  0  0  3  0  0  0  0  0  0
  -17.6640  -30.4050   23.8820 C   0  0  0  0  0  3  0  0  0  0  0  0
  -16.5960  -29.6090   23.4330 C   0  0  0  0  0  3  0  0  0  0  0  0
  -16.8560  -28.3610   22.8380 C   0  0  0  0  0  3  0  0  0  0  0  0
  -25.9270  -32.5070   23.8320 C   0  0  0  0  0  3  0  0  0  0  0  0
  -25.5660  -33.8950   24.1730 N   0  0  0  0  0  0  0  0  0  0  0  0
  -25.8960  -34.9750   23.4510 C   0  0  0  0  0  0  0  0  0  0  0  0
  -26.5970  -34.9070   22.4380 O   0  0  0  0  0  0  0  0  0  0  0  0
  -24.9480  -34.0170   24.9610 H   0  0  0  0  0  0  0  0  0  0  0  0
  -24.1510  -36.7500   23.0790 C   0  0  0  0  0  1  0  0  0  0  0  0
  -25.3680  -36.3440   23.9250 C   0  0  0  0  0  3  0  0  0  0  0  0
  -27.4490  -37.2500   24.8630 C   0  0  0  0  0  1  0  0  0  0  0  0
  -26.3850  -37.4190   23.8790 N   0  0  0  0  0  0  0  0  0  0  0  0
  -25.9550  -38.3280   24.0290 H   0  0  0  0  0  0  0  0  0  0  0  0
  -26.4180  -31.7430   25.1240 C   0  0  1  0  0  0  0  0  0  0  0  0
  -25.2960  -31.4810   26.1580 C   0  0  0  0  0  1  0  0  0  0  0  0
  -27.0410  -30.3770   24.7570 C   0  0  0  0  0  1  0  0  0  0  0  0
  -27.5300  -32.5590   25.8250 C   0  0  0  0  0  1  0  0  0  0  0  0
  -30.0600  -18.4860   20.6220 C   0  0  0  0  0  2  0  0  0  0  0  0
  -30.6630  -15.5340   20.2410 C   0  0  0  0  0  0  0  0  0  0  0  0
  -30.7010  -13.0560   19.3820 C   0  0  0  0  0  2  0  0  0  0  0  0
  -29.7940  -12.7500   18.1630 C   0  0  0  0  0  2  0  0  0  0  0  0
  -28.3500  -12.4570   18.6060 C   0  0  0  0  0  2  0  0  0  0  0  0
  -27.8690  -13.4440   19.6960 C   0  0  0  0  0  3  0  0  0  0  0  0
  -28.9070  -13.6650   20.8150 C   0  0  0  0  0  2  0  0  0  0  0  0
  -30.1110  -14.2130   20.1600 N   0  0  0  0  0  0  0  0  0  0  0  0
  -31.8990  -15.5120   20.1210 O   0  0  0  0  0  0  0  0  0  0  0  0
  -29.8900  -16.8280   20.2620 N   0  0  0  0  0  0  0  0  0  0  0  0
  -28.9090  -16.6080   20.1830 H   0  0  0  0  0  0  0  0  0  0  0  0
  -25.4980  -13.9870   20.4490 C   0  0  0  0  0  0  0  0  0  0  0  0
  -24.4360  -13.2050   20.8090 C   0  0  0  0  0  0  0  0  0  0  0  0
  -24.9090  -11.8580   20.7780 C   0  0  0  0  0  0  0  0  0  0  0  0
  -26.5440  -13.1170   20.2070 N   0  0  0  0  0  0  0  0  0  0  0  0
  -26.2030  -11.8280   20.4740 N   0  0  0  0  0  0  0  0  0  0  0  0
  -24.1850  -10.5920   20.9590 C   0  0  0  0  0  0  0  0  0  0  0  0
  -24.6000   -9.6300   21.9040 C   0  0  0  0  0  3  0  0  0  0  0  0
  -23.8720   -8.4330   22.0760 C   0  0  0  0  0  3  0  0  0  0  0  0
  -22.7140   -8.1880   21.3000 C   0  0  0  0  0  0  0  0  0  0  0  0
  -22.3170   -9.1390   20.3430 C   0  0  0  0  0  3  0  0  0  0  0  0
  -23.0460  -10.3280   20.1710 C   0  0  0  0  0  3  0  0  0  0  0  0
  -21.9590   -7.0440   21.3800 O   0  0  0  0  0  0  0  0  0  0  0  0
  -21.8730   -6.3170   22.5390 C   0  0  0  0  0  0  0  0  0  0  0  0
  -21.3740   -6.8780   23.7350 C   0  0  0  0  0  3  0  0  0  0  0  0
  -21.2390   -6.0760   24.8870 C   0  0  0  0  0  3  0  0  0  0  0  0
  -21.5920   -4.7150   24.8420 C   0  0  0  0  0  0  0  0  0  0  0  0
  -22.0830   -4.1520   23.6500 C   0  0  0  0  0  3  0  0  0  0  0  0
  -22.2200   -4.9510   22.5030 C   0  0  0  0  0  0  0  0  0  0  0  0
  -22.6740   -4.4000   21.3510 F   0  0  0  0  0  0  0  0  0  0  0  0
  -21.4550   -3.9420   25.9450 F   0  0  0  0  0  0  0  0  0  0  0  0
  -23.0360  -13.6780   21.0660 C   0  0  0  0  0  0  0  0  0  0  0  0
  -22.3040  -12.9790   21.9260 N   0  0  0  0  0  0  0  0  0  0  0  0
  -22.6010  -14.7020   20.5400 O   0  0  0  0  0  0  0  0  0  0  0  0
  -22.6690  -12.1510   22.3710 H   0  0  0  0  0  0  0  0  0  0  0  0
  -21.3640  -13.2770   22.1450 H   0  0  0  0  0  0  0  0  0  0  0  0
  -25.6540  -15.3600   20.2760 N   0  0  0  0  0  0  0  0  0  0  0  0
  -24.8810  -16.0090   20.3840 H   0  0  0  0  0  0  0  0  0  0  0  0
  -26.4970  -15.8030   19.9360 H   0  0  0  0  0  0  0  0  0  0  0  0
  1  3  2  0
  1  2  1  0
  2  4  2  0
  3  5  1  0
  4  8  1  0
  4  6  1  0
  5 52  1  0
  5  6  2  0
  6  7  1  0
  8  9  2  0
  9 10  1  0
 11 13  1  0
 11  8  1  0
 12 23  2  0
 13 18  1  0
 14 22  1  0
 14 24  1  0
 15 21  1  0
 15 17  1  0
 16 22  1  0
 17 18  2  0
 17 16  1  0
 19 13  2  0
 20 19  1  0
 20 15  2  0
 21 14  1  0
 22 12  1  0
 24 26  2  0
 25 24  1  0
 27 25  1  0
 28 37  2  0
 28 33  1  0
 29 25  1  0
 29 33  1  0
 30 29  1  0
 31 32  1  0
 31 30  1  0
 32 28  1  0
 33 34  2  0
 34 35  1  0
 36 35  2  0
 37 36  1  0
 38 12  1  0
 38 39  1  0
 38 48  1  0
 39 42  1  0
 40 44  1  0
 40 39  1  0
 41 40  2  0
 44 43  1  0
 46 44  1  0
 46 47  1  0
 46 45  1  0
 48 51  1  1
 48 49  1  0
 50 48  1  0
 53 61  1  0
 54 59  1  0
 55 56  1  0
 55 54  1  0
 57 56  1  0
 57 66  1  0
 57 58  1  0
 59 53  1  0
 59 58  1  0
 60 53  2  0
 61 52  1  0
 62 61  1  0
 63 64  2  0
 64 83  1  0
 65 64  1  0
 65 68  1  0
 66 63  1  0
 66 67  1  0
 67 65  2  0
 68 69  1  0
 69 70  2  0
 71 74  1  0
 71 70  1  0
 72 71  2  0
 73 72  1  0
 73 68  2  0
 74 75  1  0
 75 76  1  0
 76 77  2  0
 78 77  1  0
 78 82  1  0
 79 78  2  0
 80 75  2  0
 80 79  1  0
 81 80  1  0
 83 84  1  0
 84 87  1  0
 84 86  1  0
 85 83  2  0
 88 89  1  0
 88 63  1  0
 90 88  1  0
M  ISO  4   8 101  11 101  53 100  61 100
M  END
>  <TORSDO>  (40) 
F 18

>  <SCORE>  (40) 
-15.739

>  <name>  (40) 
39

>  <ligand_id>  (40) 
39

>  <original_smiles>  (40) 
[H]N=C(Oc1c([H])c([H])c2c(c1[H])C([H])([H])N(C(=O)C([H])(N([H])C(=O)C([H])(N([H])C([H])([H])[H])C([H])([H])[H])C(C([H])([H])[H])(C([H])([H])[H])C([H])([H])[H])C([H])(C(=O)N([H])C1([H])c3c([H])c([H])c([H])c([H])c3C([H])([H])C([H])([H])C1([H])[H])C2([H])[H])c1c([H])c([H])c([H])c(C([H])([H])N([H])C(=O)N2C([H])([H])C([H])([H])C([H])([H])C([H])(n3nc(-c4c([H])c([H])c(Oc5c([H])c([H])c(F)c([H])c5F)c([H])c4[H])c(C(=O)N([H])[H])c3N([H])[H])C2([H])[H])c1C([H])([H])[H]

>  <smiles>  (40) 
[H]N=C(Oc1c([H])c([H])c2c(c1[H])C([H])([H])N(C(=O)C([H])(N([H])C(=O)C([H])(N([H])C([H])([H])[H])C([H])([H])[H])C(C([H])([H])[H])(C([H])([H])[H])C([H])([H])[H])C([H])(C(=O)N([H])C1([H])c3c([H])c([H])c([H])c([H])c3C([H])([H])C([H])([H])C1([H])[H])C2([H])[H])c1c([H])c([H])c([H])c(C([H])([H])N([H])C(=O)N2C([H])([H])C([H])([H])C([H])([H])C([H])(n3nc(-c4c([H])c([H])c(Oc5c([H])c([H])c(F)c([H])c5F)c([H])c4[H])c(C(=O)N([H])[H])c3N([H])[H])C2([H])[H])c1C([H])([H])[H]

$$$$
40:0:0
     RDKit          3D

 96 98  0  0  1  0  0  0  0  0999 V2000
  -27.1660  -26.8580   22.2300 C   0  0  0  0  0 15  0  0  0  0  0  0
  -29.4330  -22.7110   21.4510 C   0  0  0  0  0  3  0  0  0  0  0  0
  -26.9840  -23.6550   21.3160 C   0  0  0  0  0  3  0  0  0  0  0  0
  -29.0090  -24.1990   21.7170 C   0  0  0  0  0  0  0  0  0  0  0  0
  -28.7690  -21.4030   21.0500 C   0  0  0  0  0  3  0  0  0  0  0  0
  -27.6930  -24.9790   21.6750 C   0  0  0  0  0  3  0  0  0  0  0  0
  -27.4170  -22.1450   21.0440 C   0  0  0  0  0  0  0  0  0  0  0  0
  -30.2160  -25.0290   22.1130 C   0  0  0  0  0  1  0  0  0  0  0  0
  -26.0630  -21.1140   20.7440 Cl  0  0  0  0  0  0  0  0  0  0  0  0
  -29.6420  -19.6080   20.7970 C   0  0  0  0  0  1  0  0  0  0  0  0
  -30.5480  -16.3100   20.6810 C   0  0  0  0  0  0  0  0  0  0  0  0
  -30.9790  -13.6890   19.8460 C   0  0  0  0  0  2  0  0  0  0  0  0
  -30.2660  -13.1040   18.5750 C   0  0  0  0  0  2  0  0  0  0  0  0
  -28.8460  -12.6220   18.9000 C   0  0  0  0  0  2  0  0  0  0  0  0
  -28.1740  -13.6380   19.8470 C   0  0  0  0  0  3  0  0  0  0  0  0
  -29.0500  -14.0740   21.0480 C   0  0  0  0  0  2  0  0  0  0  0  0
  -30.1780  -14.8630   20.4980 N   0  0  0  0  0  0  0  0  0  0  0  0
  -31.8030  -16.2720   20.5890 O   0  0  0  0  0  0  0  0  0  0  0  0
  -29.6750  -17.6970   20.7970 N   0  0  0  0  0  0  0  0  0  0  0  0
  -28.7210  -17.3840   20.6470 H   0  0  0  0  0  0  0  0  0  0  0  0
  -25.7510  -14.1110   20.3800 C   0  0  0  0  0  0  0  0  0  0  0  0
  -24.6940  -13.3160   20.7070 C   0  0  0  0  0  0  0  0  0  0  0  0
  -25.2070  -11.9840   20.7850 C   0  0  0  0  0  0  0  0  0  0  0  0
  -26.8360  -13.2640   20.2600 N   0  0  0  0  0  0  0  0  0  0  0  0
  -26.5210  -11.9790   20.5740 N   0  0  0  0  0  0  0  0  0  0  0  0
  -24.5070  -10.7110   20.9850 C   0  0  0  0  0  0  0  0  0  0  0  0
  -24.6530   -9.9670   22.1760 C   0  0  0  0  0  3  0  0  0  0  0  0
  -23.9470   -8.7580   22.3550 C   0  0  0  0  0  3  0  0  0  0  0  0
  -23.0820   -8.2840   21.3390 C   0  0  0  0  0  0  0  0  0  0  0  0
  -22.9590   -9.0170   20.1470 C   0  0  0  0  0  3  0  0  0  0  0  0
  -23.6660  -10.2180   19.9680 C   0  0  0  0  0  3  0  0  0  0  0  0
  -22.3780   -7.1060   21.4130 O   0  0  0  0  0  0  0  0  0  0  0  0
  -21.7030   -6.7440   22.5500 C   0  0  0  0  0  0  0  0  0  0  0  0
  -20.6770   -7.5440   23.0970 C   0  0  0  0  0  3  0  0  0  0  0  0
  -19.9630   -7.0970   24.2280 C   0  0  0  0  0  3  0  0  0  0  0  0
  -20.2690   -5.8510   24.8080 C   0  0  0  0  0  0  0  0  0  0  0  0
  -21.2890   -5.0510   24.2620 C   0  0  0  0  0  3  0  0  0  0  0  0
  -22.0020   -5.4970   23.1350 C   0  0  0  0  0  0  0  0  0  0  0  0
  -22.9700   -4.7130   22.6000 F   0  0  0  0  0  0  0  0  0  0  0  0
  -19.5800   -5.4180   25.8890 F   0  0  0  0  0  0  0  0  0  0  0  0
  -23.2680  -13.7610   20.8260 C   0  0  0  0  0  0  0  0  0  0  0  0
  -22.4990  -13.1240   21.7000 N   0  0  0  0  0  0  0  0  0  0  0  0
  -22.8440  -14.7160   20.1760 O   0  0  0  0  0  0  0  0  0  0  0  0
  -22.8610  -12.3560   22.2460 H   0  0  0  0  0  0  0  0  0  0  0  0
  -21.5370  -13.4070   21.8260 H   0  0  0  0  0  0  0  0  0  0  0  0
  -25.8860  -15.4770   20.1490 N   0  0  0  0  0  0  0  0  0  0  0  0
  -25.0870  -16.1020   20.1600 H   0  0  0  0  0  0  0  0  0  0  0  0
  -26.7380  -15.9110   19.8230 H   0  0  0  0  0  0  0  0  0  0  0  0
  -24.6960  -30.5450   20.7960 C   0  0  0  0  0  2  0  0  0  0  0  0
  -25.1450  -31.7220   20.1830 C   0  0  0  0  0  1  0  0  0  0  0  0
  -23.8830  -30.2460   20.7300 C   0  0  0  0  0  3  0  0  0  0  0  0
  -24.9110  -27.5310   22.9980 C   0  0  0  0  0  2  0  0  0  0  0  0
  -24.7140  -27.9580   21.6180 C   0  0  0  0  0  3  0  0  0  0  0  0
  -25.7410  -28.2220   22.1460 N   0  0  0  0  0  0  0  0  0  0  0  0
  -26.2480  -28.7400   22.8520 H   0  0  0  0  0  0  0  0  0  0  0  0
  -25.5420  -26.7400   20.6190 O   0  0  0  0  0  0  0  0  0  0  0  0
  -24.3390  -31.3710   23.8360 C   0  0  0  0  0  0  0  0  0  0  0  0
  -26.7170  -26.8820   19.8940 C   0  0  0  0  0  3  0  0  0  0  0  0
  -22.9900  -29.6440   22.2590 C   0  0  0  0  0  2  0  0  0  0  0  0
  -24.9630  -28.6750   19.3570 C   0  0  0  0  0  2  0  0  0  0  0  0
  -26.6640  -29.9250   22.4710 C   0  0  0  0  0 15  0  0  0  0  0  0
  -26.5440  -28.9650   20.3560 C   0  0  0  0  0  2  0  0  0  0  0  0
  -27.4590  -28.0330   20.1420 C   0  0  0  0  0  2  0  0  0  0  0  0
  -25.9850  -26.7260   18.7290 C   0  0  0  0  0  2  0  0  0  0  0  0
  -24.9190  -27.6060   18.5190 C   0  0  0  0  0  2  0  0  0  0  0  0
  -22.9680  -28.8620   20.1540 C   0  0  0  0  0  1  0  0  0  0  0  0
  -24.6600  -30.1840   23.1960 N   0  0  0  0  0  1  0  0  0  0  0  0
  -23.1820  -31.7860   24.0470 O   0  0  0  0  0  0  0  0  0  0  0  0
  -22.0440  -29.0610   23.1670 C   0  0  0  0  0  0  0  0  0  0  0  0
  -20.8010  -28.9560   22.7580 N   0  0  0  0  0  0  0  0  0  0  0  0
  -22.4930  -28.6550   24.2240 O   0  0  0  0  0  0  0  0  0  0  0  0
  -20.5000  -29.3380   21.8720 H   0  0  0  0  0  0  0  0  0  0  0  0
  -17.4860  -27.7780   22.9310 C   0  0  0  0  0  0  0  0  0  0  0  0
  -19.9490  -28.0470   23.4550 C   0  0  0  0  0  3  0  0  0  0  0  0
  -20.1730  -26.6340   22.8780 C   0  0  0  0  0  2  0  0  0  0  0  0
  -19.2000  -26.3180   21.7520 C   0  0  0  0  0  2  0  0  0  0  0  0
  -17.7630  -26.4330   22.2730 C   0  0  0  0  0  2  0  0  0  0  0  0
  -18.5350  -28.5610   23.4550 C   0  0  0  0  0  0  0  0  0  0  0  0
  -18.2700  -29.8330   24.0050 C   0  0  0  0  0  3  0  0  0  0  0  0
  -16.9520  -30.3130   24.0650 C   0  0  0  0  0  3  0  0  0  0  0  0
  -15.8980  -29.5150   23.5810 C   0  0  0  0  0  3  0  0  0  0  0  0
  -16.1650  -28.2540   23.0160 C   0  0  0  0  0  3  0  0  0  0  0  0
  -25.4970  -32.2060   24.3900 C   0  0  0  0  0  3  0  0  0  0  0  0
  -25.7090  -31.7460   25.8750 C   0  0  1  0  0  0  0  0  0  0  0  0
  -24.3790  -31.6040   26.6570 C   0  0  0  0  0  1  0  0  0  0  0  0
  -26.4520  -30.4010   26.0510 C   0  0  0  0  0  1  0  0  0  0  0  0
  -26.6170  -32.7630   26.5820 C   0  0  0  0  0  1  0  0  0  0  0  0
  -25.2150  -33.6610   24.3160 N   0  0  0  0  0  0  0  0  0  0  0  0
  -25.7660  -34.5440   23.4650 C   0  0  0  0  0  0  0  0  0  0  0  0
  -26.5770  -34.2180   22.5960 O   0  0  0  0  0  0  0  0  0  0  0  0
  -24.5070  -34.0030   24.9510 H   0  0  0  0  0  0  0  0  0  0  0  0
  -24.3090  -36.4050   22.5660 C   0  0  0  0  0  1  0  0  0  0  0  0
  -25.3660  -36.0340   23.6140 C   0  0  0  0  0  3  0  0  0  0  0  0
  -27.4390  -36.8840   24.6300 C   0  0  0  0  0  1  0  0  0  0  0  0
  -26.5060  -36.9700   23.5100 N   0  0  0  0  0  0  0  0  0  0  0  0
  -26.1810  -37.9300   23.4430 H   0  0  0  0  0  0  0  0  0  0  0  0
  2  4  1  0
  3  6  1  0
  4  8  1  0
  5  2  2  0
  6  4  2  0
  7  5  1  0
  7  3  2  0
  9  7  1  0
 10 19  1  0
 11 19  1  0
 12 17  1  0
 13 14  1  0
 13 12  1  0
 15 14  1  0
 15 24  1  0
 15 16  1  0
 17 11  1  0
 17 16  1  0
 18 11  2  0
 20 19  1  0
 21 22  2  0
 22 23  1  0
 22 41  1  0
 23 26  1  0
 24 21  1  0
 24 25  1  0
 25 23  2  0
 26 27  1  0
 27 28  2  0
 29 32  1  0
 29 28  1  0
 30 29  2  0
 31 30  1  0
 31 26  2  0
 32 33  1  0
 33 34  2  0
 33 38  1  0
 34 35  1  0
 35 36  2  0
 36 40  1  0
 37 36  1  0
 38 37  2  0
 39 38  1  0
 41 42  1  0
 42 45  1  0
 42 44  1  0
 43 41  2  0
 46 47  1  0
 46 21  1  0
 48 46  1  0
 50 49  1  0
 51 66  1  0
 51 49  1  0
 51 59  1  0
 53 56  1  0
 53 54  1  0
 53 52  1  0
 54 55  1  0
 54 52  1  0
 57 68  2  0
 58 63  1  0
 58 56  1  0
 59 69  1  0
 60 62  1  0
 63 62  1  0
 64 58  1  0
 65 64  1  0
 65 60  1  0
 67 57  1  0
 69 71  2  0
 70 69  1  0
 72 70  1  0
 73 82  2  0
 73 78  1  0
 74 70  1  0
 74 78  1  0
 75 74  1  0
 76 77  1  0
 76 75  1  0
 77 73  1  0
 78 79  2  0
 79 80  1  0
 81 80  2  0
 82 81  1  0
 83 57  1  0
 83 84  1  0
 84 86  1  6
 84 87  1  0
 84 85  1  0
 88 83  1  0
 88 91  1  0
 89 93  1  0
 89 88  1  0
 90 89  2  0
 93 92  1  0
 95 93  1  0
 95 94  1  0
 96 95  1  0
M  ISO  4  11 100  19 100  53 101  56 101
M  END
>  <TORSDO>  (41) 
F 19

>  <SCORE>  (41) 
-8.827

>  <name>  (41) 
40

>  <ligand_id>  (41) 
40

>  <original_smiles>  (41) 
[H]C([H])=C1C([H])([H])C([H])(Oc2c([H])c([H])c3c(c2[H])C([H])([H])N(C(=O)C([H])(N([H])C(=O)C([H])(N([H])C([H])([H])[H])C([H])([H])[H])C(C([H])([H])[H])(C([H])([H])[H])C([H])([H])[H])C([H])(C(=O)N([H])C2([H])c4c([H])c([H])c([H])c([H])c4C([H])([H])C([H])([H])C2([H])[H])C3([H])[H])C([H])([H])[N+]1([H])C([H])([H])c1c([H])c(Cl)c(C([H])([H])N([H])C(=O)N2C([H])([H])C([H])([H])C([H])([H])C([H])(n3nc(-c4c([H])c([H])c(Oc5c([H])c([H])c(F)c([H])c5F)c([H])c4[H])c(C(=O)N([H])[H])c3N([H])[H])C2([H])[H])c([H])c1C([H])([H])[H]

>  <smiles>  (41) 
[H]C([H])=C1C([H])([H])C([H])(Oc2c([H])c([H])c3c(c2[H])C([H])([H])N(C(=O)C([H])(N([H])C(=O)C([H])(N([H])C([H])([H])[H])C([H])([H])[H])C(C([H])([H])[H])(C([H])([H])[H])C([H])([H])[H])C([H])(C(=O)N([H])C2([H])c4c([H])c([H])c([H])c([H])c4C([H])([H])C([H])([H])C2([H])[H])C3([H])[H])C([H])([H])[N+]1([H])C([H])([H])c1c([H])c(Cl)c(C([H])([H])N([H])C(=O)N2C([H])([H])C([H])([H])C([H])([H])C([H])(n3nc(-c4c([H])c([H])c(Oc5c([H])c([H])c(F)c([H])c5F)c([H])c4[H])c(C(=O)N([H])[H])c3N([H])[H])C2([H])[H])c([H])c1C([H])([H])[H]

$$$$
41:0:0
     RDKit          3D

 96105  0  0  1  0  0  0  0  0999 V2000
  -28.5870  -21.5800   20.1310 C   0  0  0  0  0  2  0  0  0  0  0  0
  -29.0100  -19.2540   19.0080 C   0  0  0  0  0  3  0  0  0  0  0  0
  -29.2600  -20.1310   20.1010 C   0  0  0  0  0  0  0  0  0  0  0  0
  -29.3010  -17.8530   19.0350 C   0  0  0  0  0  0  0  0  0  0  0  0
  -29.9300  -19.5310   21.2180 C   0  0  0  0  0  0  0  0  0  0  0  0
  -30.2570  -18.1250   21.2390 C   0  0  0  0  0  0  0  0  0  0  0  0
  -29.9130  -17.2430   20.1690 C   0  0  0  0  0  0  0  0  0  0  0  0
  -28.8590  -16.9990   17.8590 C   0  0  0  0  0  1  0  0  0  0  0  0
  -30.2580  -20.3620   22.4580 C   0  0  0  0  0  1  0  0  0  0  0  0
  -30.9410  -17.5340   22.4710 C   0  0  0  0  0  1  0  0  0  0  0  0
  -30.7580  -14.7690   19.9200 C   0  0  0  0  0  0  0  0  0  0  0  0
  -30.5660  -12.4890   18.9380 C   0  0  0  0  0  2  0  0  0  0  0  0
  -29.5460  -12.5520   17.7760 C   0  0  0  0  0  2  0  0  0  0  0  0
  -28.1010  -12.3850   18.2920 C   0  0  0  0  0  2  0  0  0  0  0  0
  -27.8000  -13.2780   19.5240 C   0  0  0  0  0  3  0  0  0  0  0  0
  -28.9220  -13.1600   20.5810 C   0  0  0  0  0  2  0  0  0  0  0  0
  -30.1880  -13.5210   19.9250 N   0  0  0  0  0  0  0  0  0  0  0  0
  -31.8770  -14.9600   19.4320 O   0  0  0  0  0  0  0  0  0  0  0  0
  -29.9560  -15.7870   20.3770 N   0  0  0  0  0  0  0  0  0  0  0  0
  -29.1590  -15.4330   20.8840 H   0  0  0  0  0  0  0  0  0  0  0  0
  -25.4720  -13.8800   20.4310 C   0  0  0  0  0  0  0  0  0  0  0  0
  -24.4230  -13.1060   20.8470 C   0  0  0  0  0  0  0  0  0  0  0  0
  -24.8620  -11.7520   20.7340 C   0  0  0  0  0  0  0  0  0  0  0  0
  -26.4840  -12.9950   20.0910 N   0  0  0  0  0  0  0  0  0  0  0  0
  -26.1250  -11.7090   20.3310 N   0  0  0  0  0  0  0  0  0  0  0  0
  -24.1320  -10.4920   20.9290 C   0  0  0  0  0  0  0  0  0  0  0  0
  -24.5610   -9.5280   21.8670 C   0  0  0  0  0  3  0  0  0  0  0  0
  -23.8320   -8.3330   22.0500 C   0  0  0  0  0  3  0  0  0  0  0  0
  -22.6590   -8.0940   21.2930 C   0  0  0  0  0  0  0  0  0  0  0  0
  -22.2500   -9.0480   20.3450 C   0  0  0  0  0  3  0  0  0  0  0  0
  -22.9790  -10.2330   20.1600 C   0  0  0  0  0  3  0  0  0  0  0  0
  -21.9030   -6.9510   21.3850 O   0  0  0  0  0  0  0  0  0  0  0  0
  -21.7720   -6.2670   22.5660 C   0  0  0  0  0  0  0  0  0  0  0  0
  -21.2600   -6.8790   23.7300 C   0  0  0  0  0  3  0  0  0  0  0  0
  -21.0770   -6.1200   24.9030 C   0  0  0  0  0  3  0  0  0  0  0  0
  -21.3990   -4.7500   24.9130 C   0  0  0  0  0  0  0  0  0  0  0  0
  -21.9050   -4.1370   23.7540 C   0  0  0  0  0  3  0  0  0  0  0  0
  -22.0880   -4.8920   22.5830 C   0  0  0  0  0  0  0  0  0  0  0  0
  -22.5560   -4.2920   21.4620 F   0  0  0  0  0  0  0  0  0  0  0  0
  -21.2160   -4.0190   26.0370 F   0  0  0  0  0  0  0  0  0  0  0  0
  -23.0560  -13.5900   21.2370 C   0  0  0  0  0  0  0  0  0  0  0  0
  -22.3930  -12.8840   22.1470 N   0  0  0  0  0  0  0  0  0  0  0  0
  -22.5890  -14.6270   20.7710 O   0  0  0  0  0  0  0  0  0  0  0  0
  -22.7870  -12.0430   22.5430 H   0  0  0  0  0  0  0  0  0  0  0  0
  -21.4790  -13.1880   22.4500 H   0  0  0  0  0  0  0  0  0  0  0  0
  -25.6450  -15.2530   20.2940 N   0  0  0  0  0  0  0  0  0  0  0  0
  -24.9000  -15.9130   20.4870 H   0  0  0  0  0  0  0  0  0  0  0  0
  -26.4780  -15.6960   19.9260 H   0  0  0  0  0  0  0  0  0  0  0  0
  -30.2010  -23.4450   20.9180 C   0  0  0  0  0  0  0  0  0  0  0  0
  -31.2490  -22.7980   21.4570 C   0  0  0  0  0  2  0  0  0  0  0  0
  -29.7940  -24.8980   21.1710 C   0  0  0  0  0  2  0  0  0  0  0  0
  -28.5110  -24.0450   19.3330 C   0  0  0  0  0  2  0  0  0  0  0  0
  -28.5260  -25.2250   20.3700 C   0  0  0  0  0  3  0  0  0  0  0  0
  -29.3400  -22.8770   19.8420 N   0  0  2  0  0  4  0  0  0  0  0  0
  -29.9390  -22.6320   19.0660 H   0  0  0  0  0  0  0  0  0  0  0  0
  -28.5710  -26.6440   19.9240 O   0  0  0  0  0  0  0  0  0  0  0  0
  -24.7040  -31.8590   23.1030 C   0  0  0  0  0  0  0  0  0  0  0  0
  -27.4110  -27.4280   19.9500 C   0  0  0  0  0  0  0  0  0  0  0  0
  -23.5250  -30.4650   21.4380 C   0  0  0  0  0  3  0  0  0  0  0  0
  -25.0050  -28.9690   19.9810 C   0  0  0  0  0  0  0  0  0  0  0  0
  -26.0540  -30.8480   21.2510 C   0  0  0  0  0  2  0  0  0  0  0  0
  -26.1640  -29.4830   20.5780 C   0  0  0  0  0  0  0  0  0  0  0  0
  -27.3710  -28.7270   20.5440 C   0  0  0  0  0  3  0  0  0  0  0  0
  -26.2290  -26.9540   19.3450 C   0  0  0  0  0  3  0  0  0  0  0  0
  -25.0380  -27.7100   19.3570 C   0  0  0  0  0  3  0  0  0  0  0  0
  -23.7490  -29.8170   20.0470 C   0  0  0  0  0  2  0  0  0  0  0  0
  -24.7790  -31.0740   21.9880 N   0  0  0  0  0  0  0  0  0  0  0  0
  -23.6170  -32.1020   23.6470 O   0  0  0  0  0  0  0  0  0  0  0  0
  -22.8880  -29.4180   22.3830 C   0  0  0  0  0  0  0  0  0  0  0  0
  -21.5660  -29.2160   22.2560 N   0  0  0  0  0  0  0  0  0  0  0  0
  -23.5810  -28.7900   23.1870 O   0  0  0  0  0  0  0  0  0  0  0  0
  -21.0650  -29.7760   21.5790 H   0  0  0  0  0  0  0  0  0  0  0  0
  -18.2180  -27.9250   22.7180 C   0  0  0  0  0  0  0  0  0  0  0  0
  -20.7670  -28.2470   23.0070 C   0  0  0  0  0  3  0  0  0  0  0  0
  -20.9110  -26.8280   22.4140 C   0  0  0  0  0  2  0  0  0  0  0  0
  -19.8230  -26.4900   21.3890 C   0  0  0  0  0  2  0  0  0  0  0  0
  -18.4340  -26.5900   22.0260 C   0  0  0  0  0  2  0  0  0  0  0  0
  -19.3150  -28.7100   23.1650 C   0  0  0  0  0  0  0  0  0  0  0  0
  -19.0590  -29.9590   23.7730 C   0  0  0  0  0  3  0  0  0  0  0  0
  -17.7410  -30.4230   23.9390 C   0  0  0  0  0  3  0  0  0  0  0  0
  -16.6590  -29.6350   23.5100 C   0  0  0  0  0  3  0  0  0  0  0  0
  -16.8980  -28.3880   22.9040 C   0  0  0  0  0  3  0  0  0  0  0  0
  -25.9760  -32.5040   23.7350 C   0  0  0  0  0  3  0  0  0  0  0  0
  -25.6360  -33.8870   24.1020 N   0  0  0  0  0  0  0  0  0  0  0  0
  -25.9420  -34.9660   23.3700 C   0  0  0  0  0  0  0  0  0  0  0  0
  -26.6100  -34.9050   22.3330 O   0  0  0  0  0  0  0  0  0  0  0  0
  -25.0390  -34.0070   24.9060 H   0  0  0  0  0  0  0  0  0  0  0  0
  -24.1720  -36.7310   23.0690 C   0  0  0  0  0  1  0  0  0  0  0  0
  -25.4260  -36.3320   23.8650 C   0  0  0  0  0  3  0  0  0  0  0  0
  -27.5450  -37.2440   24.7080 C   0  0  0  0  0  1  0  0  0  0  0  0
  -26.4350  -37.4100   23.7740 N   0  0  0  0  0  0  0  0  0  0  0  0
  -26.0090  -38.3170   23.9460 H   0  0  0  0  0  0  0  0  0  0  0  0
  -26.5150  -31.7140   24.9900 C   0  0  1  0  0  0  0  0  0  0  0  0
  -25.4320  -31.4290   26.0570 C   0  0  0  0  0  1  0  0  0  0  0  0
  -27.1260  -30.3600   24.5630 C   0  0  0  0  0  1  0  0  0  0  0  0
  -27.6520  -32.5180   25.6650 C   0  0  0  0  0  1  0  0  0  0  0  0
  2  4  2  0
  2  3  1  0
  3  1  1  0
  3  5  2  0
  4  7  1  0
  5  6  1  0
  5  9  1  0
  6 10  1  0
  7 19  1  0
  7  6  2  0
  8  4  1  0
 11 17  1  0
 11 19  1  0
 12 17  1  0
 13 14  1  0
 13 12  1  0
 15 14  1  0
 15 24  1  0
 15 16  1  0
 17 16  1  0
 18 11  2  0
 19 20  1  0
 21 22  2  0
 22 41  1  0
 23 22  1  0
 23 26  1  0
 24 25  1  0
 24 21  1  0
 25 23  2  0
 26 27  1  0
 27 28  2  0
 29 32  1  0
 29 28  1  0
 30 29  2  0
 31 30  1  0
 31 26  2  0
 32 33  1  0
 33 38  2  0
 33 34  1  0
 34 35  2  0
 35 36  1  0
 36 40  1  0
 37 36  2  0
 38 37  1  0
 39 38  1  0
 41 42  1  0
 42 45  1  0
 42 44  1  0
 43 41  2  0
 46 21  1  0
 46 47  1  0
 48 46  1  0
 49 51  1  0
 49 50  2  0
 52 54  1  0
 52 53  1  0
 53 56  1  0
 53 51  1  0
 54  1  1  0
 54 49  1  0
 54 55  1  6
 56 58  1  0
 57 68  2  0
 58 63  1  0
 59 67  1  0
 59 69  1  0
 60 66  1  0
 60 62  1  0
 61 67  1  0
 62 61  1  0
 63 62  2  0
 64 65  1  0
 64 58  2  0
 65 60  2  0
 66 59  1  0
 67 57  1  0
 69 71  2  0
 70 69  1  0
 72 70  1  0
 73 82  2  0
 73 78  1  0
 74 70  1  0
 74 78  1  0
 75 74  1  0
 76 77  1  0
 76 75  1  0
 77 73  1  0
 78 79  2  0
 79 80  1  0
 81 80  2  0
 82 81  1  0
 83 57  1  0
 83 84  1  0
 83 93  1  0
 84 87  1  0
 85 89  1  0
 85 84  1  0
 86 85  2  0
 89 88  1  0
 91 89  1  0
 91 92  1  0
 91 90  1  0
 93 96  1  1
 93 94  1  0
 95 93  1  0
M  ISO  4  11 100  19 100  53 101  56 101
M  END
>  <TORSDO>  (42) 
F 18

>  <SCORE>  (42) 
-13.356

>  <name>  (42) 
41

>  <ligand_id>  (42) 
41

>  <original_smiles>  (42) 
[H]C([H])=C1C([H])([H])C([H])(Oc2c([H])c([H])c3c(c2[H])C([H])([H])N(C(=O)C([H])(N([H])C(=O)C([H])(N([H])C([H])([H])[H])C([H])([H])[H])C(C([H])([H])[H])(C([H])([H])[H])C([H])([H])[H])C([H])(C(=O)N([H])C2([H])c4c([H])c([H])c([H])c([H])c4C([H])([H])C([H])([H])C2([H])[H])C3([H])[H])C([H])([H])[N+]1([H])C([H])([H])c1c([H])c(C([H])([H])[H])c(N([H])C(=O)N2C([H])([H])C([H])([H])C([H])([H])C([H])(n3nc(-c4c([H])c([H])c(Oc5c([H])c([H])c(F)c([H])c5F)c([H])c4[H])c(C(=O)N([H])[H])c3N([H])[H])C2([H])[H])c(C([H])([H])[H])c1C([H])([H])[H]

>  <smiles>  (42) 
[H]C([H])=C1C([H])([H])C([H])(Oc2c([H])c([H])c3c(c2[H])C([H])([H])N(C(=O)C([H])(N([H])C(=O)C([H])(N([H])C([H])([H])[H])C([H])([H])[H])C(C([H])([H])[H])(C([H])([H])[H])C([H])([H])[H])C([H])(C(=O)N([H])C2([H])c4c([H])c([H])c([H])c([H])c4C([H])([H])C([H])([H])C2([H])[H])C3([H])[H])C([H])([H])[N+]1([H])C([H])([H])c1c([H])c(C([H])([H])[H])c(N([H])C(=O)N2C([H])([H])C([H])([H])C([H])([H])C([H])(n3nc(-c4c([H])c([H])c(Oc5c([H])c([H])c(F)c([H])c5F)c([H])c4[H])c(C(=O)N([H])[H])c3N([H])[H])C2([H])[H])c(C([H])([H])[H])c1C([H])([H])[H]

$$$$
42:0:0
     RDKit          3D

 95104  0  0  1  0  0  0  0  0999 V2000
  -29.0170  -24.5390   20.1570 C   0  0  0  0  0  0  0  0  0  0  0  0
  -29.7530  -24.7600   21.4510 C   0  0  0  0  0  2  0  0  0  0  0  0
  -29.2150  -23.0760   19.7460 C   0  0  0  0  0  2  0  0  0  0  0  0
  -30.6330  -23.5190   21.6110 C   0  0  0  0  0  2  0  0  0  0  0  0
  -28.3350  -25.4160   19.5120 N   0  0  0  0  0  0  0  0  0  0  0  0
  -30.0200  -22.4180   20.8210 N   0  0  2  0  0  4  0  0  0  0  0  0
  -29.3610  -21.9540   21.4260 H   0  0  0  0  0  0  0  0  0  0  0  0
  -28.4530  -26.7360   20.0410 O   0  0  0  0  0  0  0  0  0  0  0  0
  -24.8840  -31.8870   23.4260 C   0  0  0  0  0  0  0  0  0  0  0  0
  -27.2920  -27.4980   20.0520 C   0  0  0  0  0  0  0  0  0  0  0  0
  -23.5820  -30.5950   21.7690 C   0  0  0  0  0  3  0  0  0  0  0  0
  -24.9400  -29.0850   20.2200 C   0  0  0  0  0  0  0  0  0  0  0  0
  -26.1120  -30.8850   21.4990 C   0  0  0  0  0  2  0  0  0  0  0  0
  -26.1330  -29.5420   20.7920 C   0  0  0  0  0  0  0  0  0  0  0  0
  -27.3070  -28.7550   20.7070 C   0  0  0  0  0  3  0  0  0  0  0  0
  -26.0760  -27.0620   19.4740 C   0  0  0  0  0  3  0  0  0  0  0  0
  -24.9080  -27.8450   19.5580 C   0  0  0  0  0  3  0  0  0  0  0  0
  -23.7240  -29.9750   20.3520 C   0  0  0  0  0  2  0  0  0  0  0  0
  -24.8800  -31.1350   22.2890 N   0  0  0  0  0  0  0  0  0  0  0  0
  -23.8310  -32.1640   24.0160 O   0  0  0  0  0  0  0  0  0  0  0  0
  -22.9360  -29.5480   22.7050 C   0  0  0  0  0  0  0  0  0  0  0  0
  -21.6160  -29.3470   22.5590 N   0  0  0  0  0  0  0  0  0  0  0  0
  -23.6190  -28.9230   23.5200 O   0  0  0  0  0  0  0  0  0  0  0  0
  -21.1250  -29.9060   21.8750 H   0  0  0  0  0  0  0  0  0  0  0  0
  -18.2740  -28.0240   22.9280 C   0  0  0  0  0  0  0  0  0  0  0  0
  -20.8060  -28.3830   23.3030 C   0  0  0  0  0  3  0  0  0  0  0  0
  -20.9880  -26.9520   22.7450 C   0  0  0  0  0  2  0  0  0  0  0  0
  -19.9430  -26.5800   21.6890 C   0  0  0  0  0  2  0  0  0  0  0  0
  -18.5300  -26.6770   22.2740 C   0  0  0  0  0  2  0  0  0  0  0  0
  -19.3420  -28.8320   23.3970 C   0  0  0  0  0  0  0  0  0  0  0  0
  -19.0520  -30.0910   23.9660 C   0  0  0  0  0  3  0  0  0  0  0  0
  -17.7230  -30.5430   24.0720 C   0  0  0  0  0  3  0  0  0  0  0  0
  -16.6670  -29.7320   23.6200 C   0  0  0  0  0  3  0  0  0  0  0  0
  -16.9440  -28.4750   23.0540 C   0  0  0  0  0  3  0  0  0  0  0  0
  -26.2080  -32.4540   24.0270 C   0  0  0  0  0  3  0  0  0  0  0  0
  -25.9530  -33.8440   24.4270 N   0  0  0  0  0  0  0  0  0  0  0  0
  -26.2600  -34.9170   23.6870 C   0  0  0  0  0  0  0  0  0  0  0  0
  -26.8600  -34.8400   22.6110 O   0  0  0  0  0  0  0  0  0  0  0  0
  -25.4140  -33.9810   25.2690 H   0  0  0  0  0  0  0  0  0  0  0  0
  -24.5370  -36.7410   23.5310 C   0  0  0  0  0  1  0  0  0  0  0  0
  -25.8340  -36.2970   24.2250 C   0  0  0  0  0  3  0  0  0  0  0  0
  -28.0400  -37.1280   24.9080 C   0  0  0  0  0  1  0  0  0  0  0  0
  -26.8700  -37.3390   24.0610 N   0  0  0  0  0  0  0  0  0  0  0  0
  -26.4900  -38.2590   24.2670 H   0  0  0  0  0  0  0  0  0  0  0  0
  -26.7490  -31.6130   25.2470 C   0  0  1  0  0  0  0  0  0  0  0  0
  -25.6880  -31.3570   26.3430 C   0  0  0  0  0  1  0  0  0  0  0  0
  -27.2790  -30.2400   24.7720 C   0  0  0  0  0  1  0  0  0  0  0  0
  -27.9430  -32.3460   25.9020 C   0  0  0  0  0  1  0  0  0  0  0  0
  -31.0270  -21.3910   20.3820 C   0  0  0  0  0  2  0  0  0  0  0  0
  -30.4330  -19.1150   19.4220 C   0  0  0  0  0  3  0  0  0  0  0  0
  -30.3280  -17.7090   19.4820 C   0  0  0  0  0  3  0  0  0  0  0  0
  -30.6940  -19.8890   20.5760 C   0  0  0  0  0  0  0  0  0  0  0  0
  -30.7920  -19.2110   21.8260 C   0  0  0  0  0  0  0  0  0  0  0  0
  -30.6050  -17.7930   21.8980 C   0  0  0  0  0  0  0  0  0  0  0  0
  -30.4350  -17.0240   20.7130 C   0  0  0  0  0  0  0  0  0  0  0  0
  -31.1400  -19.9860   23.0960 C   0  0  0  0  0  1  0  0  0  0  0  0
  -30.6220  -17.0900   23.2540 C   0  0  0  0  0  1  0  0  0  0  0  0
  -30.9930  -14.6310   20.1380 C   0  0  0  0  0  0  0  0  0  0  0  0
  -30.7090  -12.4580   18.9980 C   0  0  0  0  0  2  0  0  0  0  0  0
  -29.7030  -12.6480   17.8420 C   0  0  0  0  0  2  0  0  0  0  0  0
  -28.2530  -12.4820   18.3410 C   0  0  0  0  0  2  0  0  0  0  0  0
  -27.9650  -13.3070   19.6250 C   0  0  0  0  0  3  0  0  0  0  0  0
  -29.0740  -13.0850   20.6780 C   0  0  0  0  0  2  0  0  0  0  0  0
  -30.3660  -13.4240   20.0550 N   0  0  0  0  0  0  0  0  0  0  0  0
  -32.0770  -14.8550   19.5890 O   0  0  0  0  0  0  0  0  0  0  0  0
  -30.3010  -15.5940   20.7870 N   0  0  0  0  0  0  0  0  0  0  0  0
  -29.5280  -15.2550   21.3370 H   0  0  0  0  0  0  0  0  0  0  0  0
  -25.6080  -13.8870   20.4820 C   0  0  0  0  0  0  0  0  0  0  0  0
  -24.5600  -13.1000   20.8780 C   0  0  0  0  0  0  0  0  0  0  0  0
  -25.0160  -11.7500   20.7690 C   0  0  0  0  0  0  0  0  0  0  0  0
  -26.6380  -13.0150   20.1620 N   0  0  0  0  0  0  0  0  0  0  0  0
  -26.2880  -11.7230   20.3910 N   0  0  0  0  0  0  0  0  0  0  0  0
  -24.3000  -10.4810   20.9500 C   0  0  0  0  0  0  0  0  0  0  0  0
  -24.7290   -9.5180   21.8890 C   0  0  0  0  0  3  0  0  0  0  0  0
  -24.0130   -8.3130   22.0560 C   0  0  0  0  0  3  0  0  0  0  0  0
  -22.8530   -8.0630   21.2840 C   0  0  0  0  0  0  0  0  0  0  0  0
  -22.4440   -9.0160   20.3350 C   0  0  0  0  0  3  0  0  0  0  0  0
  -23.1600  -10.2120   20.1650 C   0  0  0  0  0  3  0  0  0  0  0  0
  -22.1100   -6.9110   21.3600 O   0  0  0  0  0  0  0  0  0  0  0  0
  -21.9680   -6.2220   22.5380 C   0  0  0  0  0  0  0  0  0  0  0  0
  -21.4490   -6.8330   23.7000 C   0  0  0  0  0  3  0  0  0  0  0  0
  -21.2550   -6.0710   24.8690 C   0  0  0  0  0  3  0  0  0  0  0  0
  -21.5690   -4.6990   24.8770 C   0  0  0  0  0  0  0  0  0  0  0  0
  -22.0810   -4.0870   23.7190 C   0  0  0  0  0  3  0  0  0  0  0  0
  -22.2770   -4.8470   22.5510 C   0  0  0  0  0  0  0  0  0  0  0  0
  -22.7500   -4.2490   21.4320 F   0  0  0  0  0  0  0  0  0  0  0  0
  -21.3760   -3.9640   25.9970 F   0  0  0  0  0  0  0  0  0  0  0  0
  -23.1800  -13.5660   21.2460 C   0  0  0  0  0  0  0  0  0  0  0  0
  -22.5150  -12.8550   22.1490 N   0  0  0  0  0  0  0  0  0  0  0  0
  -22.7040  -14.5940   20.7680 O   0  0  0  0  0  0  0  0  0  0  0  0
  -22.9130  -12.0220   22.5560 H   0  0  0  0  0  0  0  0  0  0  0  0
  -21.5920  -13.1480   22.4390 H   0  0  0  0  0  0  0  0  0  0  0  0
  -25.7660  -15.2630   20.3500 N   0  0  0  0  0  0  0  0  0  0  0  0
  -25.0090  -15.9140   20.5260 H   0  0  0  0  0  0  0  0  0  0  0  0
  -26.6030  -15.7150   20.0010 H   0  0  0  0  0  0  0  0  0  0  0  0
  1  2  1  0
  2  4  1  0
  3  1  1  0
  3  6  1  0
  5  8  1  0
  5  1  2  0
  6  7  1  1
  6  4  1  0
  8 10  1  0
  9 20  2  0
 10 15  1  0
 11 19  1  0
 11 21  1  0
 12 18  1  0
 12 14  1  0
 13 19  1  0
 14 13  1  0
 15 14  2  0
 16 17  1  0
 16 10  2  0
 17 12  2  0
 18 11  1  0
 19  9  1  0
 21 23  2  0
 22 21  1  0
 24 22  1  0
 25 34  2  0
 25 30  1  0
 26 22  1  0
 26 30  1  0
 27 26  1  0
 28 29  1  0
 28 27  1  0
 29 25  1  0
 30 31  2  0
 31 32  1  0
 33 32  2  0
 34 33  1  0
 35  9  1  0
 35 36  1  0
 35 45  1  0
 36 39  1  0
 37 41  1  0
 37 36  1  0
 38 37  2  0
 41 40  1  0
 43 41  1  0
 43 44  1  0
 43 42  1  0
 45 48  1  1
 45 46  1  0
 47 45  1  0
 49 52  1  0
 49  6  1  0
 50 51  2  0
 50 52  1  0
 51 55  1  0
 52 53  2  0
 53 54  1  0
 53 56  1  0
 54 57  1  0
 55 66  1  0
 55 54  2  0
 58 66  1  0
 59 64  1  0
 60 61  1  0
 60 59  1  0
 62 61  1  0
 62 71  1  0
 62 63  1  0
 64 58  1  0
 64 63  1  0
 65 58  2  0
 66 67  1  0
 68 69  2  0
 69 88  1  0
 70 69  1  0
 70 73  1  0
 71 72  1  0
 71 68  1  0
 72 70  2  0
 73 74  1  0
 74 75  2  0
 76 79  1  0
 76 75  1  0
 77 76  2  0
 78 77  1  0
 78 73  2  0
 79 80  1  0
 80 85  2  0
 80 81  1  0
 81 82  2  0
 82 83  1  0
 83 87  1  0
 84 83  2  0
 85 84  1  0
 86 85  1  0
 88 89  1  0
 89 92  1  0
 89 91  1  0
 90 88  2  0
 93 68  1  0
 93 94  1  0
 95 93  1  0
M  ISO  4   5 101   8 101  58 100  66 100
M  END
>  <TORSDO>  (43) 
F 18

>  <SCORE>  (43) 
-13.548

>  <name>  (43) 
42

>  <ligand_id>  (43) 
42

>  <original_smiles>  (43) 
[H]c1c([H])c([H])c2c(c1[H])C([H])([H])C([H])([H])C([H])([H])C2([H])N([H])C(=O)C1([H])N(C(=O)C([H])(N([H])C(=O)C([H])(N([H])C([H])([H])[H])C([H])([H])[H])C(C([H])([H])[H])(C([H])([H])[H])C([H])([H])[H])C([H])([H])c2c([H])c(ON=C3C([H])([H])C([H])([H])[N+]([H])(C([H])([H])c4c([H])c([H])c(N([H])C(=O)N5C([H])([H])C([H])([H])C([H])([H])C([H])(n6nc(-c7c([H])c([H])c(Oc8c([H])c([H])c(F)c([H])c8F)c([H])c7[H])c(C(=O)N([H])[H])c6N([H])[H])C5([H])[H])c(C([H])([H])[H])c4C([H])([H])[H])C3([H])[H])c([H])c([H])c2C1([H])[H]

>  <smiles>  (43) 
[H]c1c([H])c([H])c2c(c1[H])C([H])([H])C([H])([H])C([H])([H])C2([H])N([H])C(=O)C1([H])N(C(=O)C([H])(N([H])C(=O)C([H])(N([H])C([H])([H])[H])C([H])([H])[H])C(C([H])([H])[H])(C([H])([H])[H])C([H])([H])[H])C([H])([H])c2c([H])c(ON=C3C([H])([H])C([H])([H])[N+]([H])(C([H])([H])c4c([H])c([H])c(N([H])C(=O)N5C([H])([H])C([H])([H])C([H])([H])C([H])(n6nc(-c7c([H])c([H])c(Oc8c([H])c([H])c(F)c([H])c8F)c([H])c7[H])c(C(=O)N([H])[H])c6N([H])[H])C5([H])[H])c(C([H])([H])[H])c4C([H])([H])[H])C3([H])[H])c([H])c([H])c2C1([H])[H]

$$$$
43:0:0
     RDKit          3D

 97106  0  0  1  0  0  0  0  0999 V2000
  -28.6840  -22.8920   19.2000 C   0  0  0  0  0  0  0  0  0  0  0  0
  -28.0600  -22.0150   18.3800 C   0  0  0  0  0  3  0  0  0  0  0  0
  -28.4910  -24.4010   19.0760 C   0  0  0  0  0  2  0  0  0  0  0  0
  -29.6020  -24.0490   21.0900 C   0  0  0  0  0  2  0  0  0  0  0  0
  -28.5250  -25.0200   20.4800 C   0  0  0  0  0  3  0  0  0  0  0  0
  -29.4080  -22.6540   20.5090 N   0  0  2  0  0  4  0  0  0  0  0  0
  -28.7690  -22.1810   21.1270 H   0  0  0  0  0  0  0  0  0  0  0  0
  -27.9790  -19.7860   17.3290 C   0  0  0  0  0  2  0  0  0  0  0  0
  -28.0170  -20.5620   18.4220 C   0  0  0  0  0  3  0  0  0  0  0  0
  -28.6910  -26.5020   20.6010 O   0  0  0  0  0  0  0  0  0  0  0  0
  -24.6800  -31.8560   23.4180 C   0  0  0  0  0  0  0  0  0  0  0  0
  -27.5660  -27.3470   20.5210 C   0  0  0  0  0  0  0  0  0  0  0  0
  -23.6350  -30.5000   21.6420 C   0  0  0  0  0  3  0  0  0  0  0  0
  -25.2090  -28.9760   20.3300 C   0  0  0  0  0  0  0  0  0  0  0  0
  -26.1790  -30.8050   21.7100 C   0  0  0  0  0  2  0  0  0  0  0  0
  -26.3160  -29.4380   21.0510 C   0  0  0  0  0  0  0  0  0  0  0  0
  -27.4940  -28.6380   21.1360 C   0  0  0  0  0  3  0  0  0  0  0  0
  -26.4450  -26.9670   19.7460 C   0  0  0  0  0  3  0  0  0  0  0  0
  -25.2760  -27.7410   19.6750 C   0  0  0  0  0  3  0  0  0  0  0  0
  -23.9760  -29.8560   20.2770 C   0  0  0  0  0  2  0  0  0  0  0  0
  -24.8460  -31.0690   22.3140 N   0  0  0  0  0  0  0  0  0  0  0  0
  -23.5530  -32.1230   23.8570 O   0  0  0  0  0  0  0  0  0  0  0  0
  -22.8790  -29.4670   22.5070 C   0  0  0  0  0  0  0  0  0  0  0  0
  -21.5530  -29.3690   22.3090 N   0  0  0  0  0  0  0  0  0  0  0  0
  -23.4800  -28.7560   23.3170 O   0  0  0  0  0  0  0  0  0  0  0  0
  -21.1250  -29.9920   21.6380 H   0  0  0  0  0  0  0  0  0  0  0  0
  -18.0840  -28.4460   22.7450 C   0  0  0  0  0  0  0  0  0  0  0  0
  -20.6600  -28.4180   22.9790 C   0  0  0  0  0  3  0  0  0  0  0  0
  -20.6140  -27.0670   22.2310 C   0  0  0  0  0  2  0  0  0  0  0  0
  -19.4770  -26.9920   21.2080 C   0  0  0  0  0  2  0  0  0  0  0  0
  -18.1220  -27.1810   21.9030 C   0  0  0  0  0  2  0  0  0  0  0  0
  -19.2800  -29.0340   23.2360 C   0  0  0  0  0  0  0  0  0  0  0  0
  -19.2000  -30.2330   23.9770 C   0  0  0  0  0  3  0  0  0  0  0  0
  -17.9530  -30.8360   24.2360 C   0  0  0  0  0  3  0  0  0  0  0  0
  -16.7700  -30.2420   23.7580 C   0  0  0  0  0  3  0  0  0  0  0  0
  -16.8360  -29.0450   23.0200 C   0  0  0  0  0  3  0  0  0  0  0  0
  -25.9010  -32.4660   24.1750 C   0  0  0  0  0  3  0  0  0  0  0  0
  -26.2040  -31.7450   25.5430 C   0  0  1  0  0  0  0  0  0  0  0  0
  -24.9580  -31.5650   26.4420 C   0  0  0  0  0  1  0  0  0  0  0  0
  -26.8160  -30.3460   25.3060 C   0  0  0  0  0  1  0  0  0  0  0  0
  -27.2560  -32.5520   26.3380 C   0  0  0  0  0  1  0  0  0  0  0  0
  -25.6160  -33.8930   24.3900 N   0  0  0  0  0  0  0  0  0  0  0  0
  -26.0530  -34.8800   23.6000 C   0  0  0  0  0  0  0  0  0  0  0  0
  -26.8060  -34.6890   22.6390 O   0  0  0  0  0  0  0  0  0  0  0  0
  -24.9520  -34.1170   25.1180 H   0  0  0  0  0  0  0  0  0  0  0  0
  -24.4090  -36.6910   23.0190 C   0  0  0  0  0  1  0  0  0  0  0  0
  -25.5890  -36.3130   23.9300 C   0  0  0  0  0  3  0  0  0  0  0  0
  -27.6880  -37.2140   24.8260 C   0  0  0  0  0  1  0  0  0  0  0  0
  -26.6580  -37.3260   23.7960 N   0  0  0  0  0  0  0  0  0  0  0  0
  -26.2750  -38.2670   23.8330 H   0  0  0  0  0  0  0  0  0  0  0  0
  -30.6740  -21.8040   20.5450 C   0  0  0  0  0  2  0  0  0  0  0  0
  -30.6050  -19.3580   19.6990 C   0  0  0  0  0  3  0  0  0  0  0  0
  -30.9160  -18.1870   22.2040 C   0  0  0  0  0  3  0  0  0  0  0  0
  -30.6880  -20.2420   20.8080 C   0  0  0  0  0  0  0  0  0  0  0  0
  -30.7220  -17.9400   19.8150 C   0  0  0  0  0  0  0  0  0  0  0  0
  -30.8650  -19.6170   22.0800 C   0  0  0  0  0  0  0  0  0  0  0  0
  -30.8820  -17.3070   21.0840 C   0  0  0  0  0  0  0  0  0  0  0  0
  -30.6390  -17.1210   18.5430 C   0  0  0  0  0  1  0  0  0  0  0  0
  -30.9600  -20.4710   23.3330 C   0  0  0  0  0  1  0  0  0  0  0  0
  -31.6020  -14.8480   20.6990 C   0  0  0  0  0  0  0  0  0  0  0  0
  -31.3990  -12.6710   19.4950 C   0  0  0  0  0  2  0  0  0  0  0  0
  -30.4350  -12.8430   18.2990 C   0  0  0  0  0  2  0  0  0  0  0  0
  -28.9800  -12.6190   18.7460 C   0  0  0  0  0  2  0  0  0  0  0  0
  -28.6280  -13.4030   20.0340 C   0  0  0  0  0  3  0  0  0  0  0  0
  -29.7040  -13.2190   21.1270 C   0  0  0  0  0  2  0  0  0  0  0  0
  -30.9980  -13.6240   20.5540 N   0  0  0  0  0  0  0  0  0  0  0  0
  -32.7310  -15.0550   20.2420 O   0  0  0  0  0  0  0  0  0  0  0  0
  -30.8640  -15.8480   21.2760 N   0  0  0  0  0  0  0  0  0  0  0  0
  -30.0980  -15.4950   21.8340 H   0  0  0  0  0  0  0  0  0  0  0  0
  -26.2370  -13.9080   20.8180 C   0  0  0  0  0  0  0  0  0  0  0  0
  -25.1870  -13.0930   21.1430 C   0  0  0  0  0  0  0  0  0  0  0  0
  -25.6690  -11.7560   21.0100 C   0  0  0  0  0  0  0  0  0  0  0  0
  -27.2920  -13.0640   20.5130 N   0  0  0  0  0  0  0  0  0  0  0  0
  -26.9540  -11.7600   20.6820 N   0  0  0  0  0  0  0  0  0  0  0  0
  -24.9630  -10.4730   21.1190 C   0  0  0  0  0  0  0  0  0  0  0  0
  -25.1800   -9.6050   22.2130 C   0  0  0  0  0  3  0  0  0  0  0  0
  -24.4750   -8.3860   22.3110 C   0  0  0  0  0  3  0  0  0  0  0  0
  -23.5410   -8.0260   21.3100 C   0  0  0  0  0  0  0  0  0  0  0  0
  -23.3450   -8.8820   20.2120 C   0  0  0  0  0  3  0  0  0  0  0  0
  -24.0500  -10.0930   20.1150 C   0  0  0  0  0  3  0  0  0  0  0  0
  -22.8310   -6.8490   21.3040 O   0  0  0  0  0  0  0  0  0  0  0  0
  -22.1820   -6.3940   22.4260 C   0  0  0  0  0  0  0  0  0  0  0  0
  -21.1670   -7.1470   23.0520 C   0  0  0  0  0  3  0  0  0  0  0  0
  -20.4760   -6.6150   24.1590 C   0  0  0  0  0  3  0  0  0  0  0  0
  -20.7920   -5.3280   24.6340 C   0  0  0  0  0  0  0  0  0  0  0  0
  -21.7980   -4.5730   24.0060 C   0  0  0  0  0  3  0  0  0  0  0  0
  -22.4880   -5.1030   22.9020 C   0  0  0  0  0  0  0  0  0  0  0  0
  -23.4430   -4.3650   22.2860 F   0  0  0  0  0  0  0  0  0  0  0  0
  -20.1270   -4.8120   25.6930 F   0  0  0  0  0  0  0  0  0  0  0  0
  -23.7880  -13.5280   21.4740 C   0  0  0  0  0  0  0  0  0  0  0  0
  -23.1130  -12.7820   22.3410 N   0  0  0  0  0  0  0  0  0  0  0  0
  -23.3070  -14.5580   21.0030 O   0  0  0  0  0  0  0  0  0  0  0  0
  -23.5210  -11.9410   22.7250 H   0  0  0  0  0  0  0  0  0  0  0  0
  -22.1800  -13.0480   22.6200 H   0  0  0  0  0  0  0  0  0  0  0  0
  -26.3790  -15.2900   20.7400 N   0  0  0  0  0  0  0  0  0  0  0  0
  -25.6130  -15.9270   20.9300 H   0  0  0  0  0  0  0  0  0  0  0  0
  -27.2200  -15.7640   20.4340 H   0  0  0  0  0  0  0  0  0  0  0  0
  1  6  1  0
  2  9  1  0
  2  1  2  0
  3  1  1  0
  3  5  1  0
  5 10  1  0
  5  4  1  0
  6 51  1  0
  6  4  1  0
  6  7  1  1
  8  9  2  0
 11 22  2  0
 12 10  1  0
 12 17  1  0
 13 21  1  0
 13 23  1  0
 14 16  1  0
 15 21  1  0
 16 17  2  0
 16 15  1  0
 18 12  2  0
 19 18  1  0
 19 14  2  0
 20 14  1  0
 20 13  1  0
 21 11  1  0
 23 25  2  0
 24 23  1  0
 26 24  1  0
 27 36  2  0
 27 32  1  0
 28 24  1  0
 28 32  1  0
 29 28  1  0
 30 31  1  0
 30 29  1  0
 31 27  1  0
 32 33  2  0
 33 34  1  0
 35 34  2  0
 36 35  1  0
 37 11  1  0
 37 42  1  0
 37 38  1  0
 38 41  1  1
 38 39  1  0
 40 38  1  0
 42 45  1  0
 43 47  1  0
 43 42  1  0
 44 43  2  0
 47 46  1  0
 49 50  1  0
 49 47  1  0
 49 48  1  0
 51 54  1  0
 52 55  2  0
 52 54  1  0
 54 56  2  0
 55 57  1  0
 56 53  1  0
 56 59  1  0
 57 68  1  0
 57 53  2  0
 58 55  1  0
 60 68  1  0
 61 66  1  0
 62 63  1  0
 62 61  1  0
 64 63  1  0
 64 73  1  0
 64 65  1  0
 66 60  1  0
 66 65  1  0
 67 60  2  0
 68 69  1  0
 70 71  2  0
 71 90  1  0
 72 75  1  0
 72 71  1  0
 73 74  1  0
 73 70  1  0
 74 72  2  0
 75 76  1  0
 76 77  2  0
 78 77  1  0
 79 78  2  0
 80 79  1  0
 80 75  2  0
 81 78  1  0
 81 82  1  0
 82 87  2  0
 82 83  1  0
 83 84  2  0
 84 85  1  0
 85 89  1  0
 86 85  2  0
 87 86  1  0
 88 87  1  0
 90 91  1  0
 91 94  1  0
 91 93  1  0
 92 90  2  0
 95 70  1  0
 95 96  1  0
 97 95  1  0
M  ISO  4   5 101  10 101  60 100  68 100
M  END
>  <TORSDO>  (44) 
F 19

>  <SCORE>  (44) 
-12.062

>  <name>  (44) 
43

>  <ligand_id>  (44) 
43

>  <original_smiles>  (44) 
[H]C([H])=C([H])C([H])=C1C([H])([H])C([H])(Oc2c([H])c([H])c3c(c2[H])C([H])([H])N(C(=O)C([H])(N([H])C(=O)C([H])(N([H])C([H])([H])[H])C([H])([H])[H])C(C([H])([H])[H])(C([H])([H])[H])C([H])([H])[H])C([H])(C(=O)N([H])C2([H])c4c([H])c([H])c([H])c([H])c4C([H])([H])C([H])([H])C2([H])[H])C3([H])[H])C([H])([H])[N+]1([H])C([H])([H])c1c([H])c(C([H])([H])[H])c(N([H])C(=O)N2C([H])([H])C([H])([H])C([H])([H])C([H])(n3nc(-c4c([H])c([H])c(Oc5c([H])c([H])c(F)c([H])c5F)c([H])c4[H])c(C(=O)N([H])[H])c3N([H])[H])C2([H])[H])c([H])c1C([H])([H])[H]

>  <smiles>  (44) 
[H]C([H])=C([H])C([H])=C1C([H])([H])C([H])(Oc2c([H])c([H])c3c(c2[H])C([H])([H])N(C(=O)C([H])(N([H])C(=O)C([H])(N([H])C([H])([H])[H])C([H])([H])[H])C(C([H])([H])[H])(C([H])([H])[H])C([H])([H])[H])C([H])(C(=O)N([H])C2([H])c4c([H])c([H])c([H])c([H])c4C([H])([H])C([H])([H])C2([H])[H])C3([H])[H])C([H])([H])[N+]1([H])C([H])([H])c1c([H])c(C([H])([H])[H])c(N([H])C(=O)N2C([H])([H])C([H])([H])C([H])([H])C([H])(n3nc(-c4c([H])c([H])c(Oc5c([H])c([H])c(F)c([H])c5F)c([H])c4[H])c(C(=O)N([H])[H])c3N([H])[H])C2([H])[H])c([H])c1C([H])([H])[H]

$$$$
44:0:0
     RDKit          3D

 98107  0  0  1  0  0  0  0  0999 V2000
  -29.1460  -24.3460   20.6140 C   0  0  0  0  0  0  0  0  0  0  0  0
  -29.6930  -24.7390   21.7810 C   0  0  0  0  0  2  0  0  0  0  0  0
  -29.0060  -24.4670   17.2510 C   0  0  0  0  0  2  0  0  0  0  0  0
  -29.5490  -23.1030   17.6730 C   0  0  0  0  0  2  0  0  0  0  0  0
  -29.1840  -25.5490   18.3200 C   0  0  0  0  0  2  0  0  0  0  0  0
  -28.7520  -22.4830   18.8290 C   0  0  0  0  0  2  0  0  0  0  0  0
  -28.4240  -25.3180   19.6460 C   0  0  0  0  0  3  0  0  0  0  0  0
  -29.2520  -22.8760   20.1740 N   0  0  2  0  0  4  0  0  0  0  0  0
  -30.2430  -22.7060   20.0950 H   0  0  0  0  0  0  0  0  0  0  0  0
  -28.3170  -26.6580   20.2030 O   0  0  0  0  0  0  0  0  0  0  0  0
  -24.5550  -31.9030   23.2370 C   0  0  0  0  0  0  0  0  0  0  0  0
  -27.1430  -27.4030   20.1420 C   0  0  0  0  0  0  0  0  0  0  0  0
  -23.3330  -30.5070   21.6050 C   0  0  0  0  0  3  0  0  0  0  0  0
  -24.7660  -28.9650   20.1650 C   0  0  0  0  0  0  0  0  0  0  0  0
  -25.8630  -30.8380   21.3960 C   0  0  0  0  0  2  0  0  0  0  0  0
  -25.9320  -29.4650   20.7550 C   0  0  0  0  0  0  0  0  0  0  0  0
  -27.1170  -28.6900   20.7460 C   0  0  0  0  0  3  0  0  0  0  0  0
  -25.9560  -26.9450   19.5210 C   0  0  0  0  0  3  0  0  0  0  0  0
  -24.7760  -27.7090   19.5450 C   0  0  0  0  0  3  0  0  0  0  0  0
  -23.5290  -29.8350   20.2210 C   0  0  0  0  0  2  0  0  0  0  0  0
  -24.6020  -31.0990   22.1370 N   0  0  0  0  0  0  0  0  0  0  0  0
  -23.4780  -32.1790   23.7840 O   0  0  0  0  0  0  0  0  0  0  0  0
  -22.6850  -29.4860   22.5690 C   0  0  0  0  0  0  0  0  0  0  0  0
  -21.3620  -29.2920   22.4400 N   0  0  0  0  0  0  0  0  0  0  0  0
  -23.3690  -28.8730   23.3920 O   0  0  0  0  0  0  0  0  0  0  0  0
  -20.8670  -29.8390   21.7480 H   0  0  0  0  0  0  0  0  0  0  0  0
  -18.0030  -28.0420   22.9100 C   0  0  0  0  0  0  0  0  0  0  0  0
  -20.5510  -28.3550   23.2170 C   0  0  0  0  0  3  0  0  0  0  0  0
  -20.6890  -26.9140   22.6760 C   0  0  0  0  0  2  0  0  0  0  0  0
  -19.6110  -26.5490   21.6500 C   0  0  0  0  0  2  0  0  0  0  0  0
  -18.2160  -26.6810   22.2680 C   0  0  0  0  0  2  0  0  0  0  0  0
  -19.0990  -28.8340   23.3430 C   0  0  0  0  0  0  0  0  0  0  0  0
  -18.8470  -30.1040   23.9030 C   0  0  0  0  0  3  0  0  0  0  0  0
  -17.5310  -30.5840   24.0360 C   0  0  0  0  0  3  0  0  0  0  0  0
  -16.4490  -29.7910   23.6180 C   0  0  0  0  0  3  0  0  0  0  0  0
  -16.6850  -28.5220   23.0600 C   0  0  0  0  0  3  0  0  0  0  0  0
  -25.8470  -32.5320   23.8440 C   0  0  0  0  0  3  0  0  0  0  0  0
  -26.3750  -31.7630   25.1160 C   0  0  1  0  0  0  0  0  0  0  0  0
  -25.2940  -31.5310   26.1960 C   0  0  0  0  0  1  0  0  0  0  0  0
  -26.9500  -30.3820   24.7210 C   0  0  0  0  0  1  0  0  0  0  0  0
  -27.5350  -32.5560   25.7630 C   0  0  0  0  0  1  0  0  0  0  0  0
  -25.5410  -33.9320   24.1720 N   0  0  0  0  0  0  0  0  0  0  0  0
  -25.8710  -34.9820   23.4080 C   0  0  0  0  0  0  0  0  0  0  0  0
  -26.5340  -34.8750   22.3720 O   0  0  0  0  0  0  0  0  0  0  0  0
  -24.9510  -34.0880   24.9750 H   0  0  0  0  0  0  0  0  0  0  0  0
  -24.1410  -36.7750   23.0630 C   0  0  0  0  0  1  0  0  0  0  0  0
  -25.3890  -36.3720   23.8650 C   0  0  0  0  0  3  0  0  0  0  0  0
  -27.5360  -37.2530   24.6680 C   0  0  0  0  0  1  0  0  0  0  0  0
  -26.4210  -37.4240   23.7410 N   0  0  0  0  0  0  0  0  0  0  0  0
  -26.0170  -38.3440   23.8970 H   0  0  0  0  0  0  0  0  0  0  0  0
  -28.8820  -21.8180   21.1770 C   0  0  0  0  0  2  0  0  0  0  0  0
  -31.1680  -20.8060   21.4670 C   0  0  0  0  0  3  0  0  0  0  0  0
  -29.4400  -19.3190   20.6310 C   0  0  0  0  0  3  0  0  0  0  0  0
  -29.8320  -20.6070   21.0920 C   0  0  0  0  0  0  0  0  0  0  0  0
  -32.1280  -19.7930   21.2970 C   0  0  0  0  0  0  0  0  0  0  0  0
  -30.3890  -18.2650   20.4550 C   0  0  0  0  0  0  0  0  0  0  0  0
  -31.7560  -18.5400   20.7430 C   0  0  0  0  0  0  0  0  0  0  0  0
  -33.5570  -20.1190   21.7060 C   0  0  0  0  0  1  0  0  0  0  0  0
  -32.8320  -17.5230   20.3870 C   0  0  0  0  0  1  0  0  0  0  0  0
  -29.9320  -16.9360   19.7890 C   0  0  0  0  0  2  0  0  0  0  0  0
  -30.6560  -14.5540   20.1160 C   0  0  0  0  0  0  0  0  0  0  0  0
  -30.2870  -12.3580   19.0540 C   0  0  0  0  0  2  0  0  0  0  0  0
  -29.3170  -12.5700   17.8700 C   0  0  0  0  0  2  0  0  0  0  0  0
  -27.8530  -12.4550   18.3460 C   0  0  0  0  0  2  0  0  0  0  0  0
  -27.5680  -13.2920   19.6210 C   0  0  0  0  0  3  0  0  0  0  0  0
  -28.6630  -13.0950   20.6970 C   0  0  0  0  0  2  0  0  0  0  0  0
  -29.9700  -13.3740   20.0780 N   0  0  0  0  0  0  0  0  0  0  0  0
  -31.7610  -14.6790   19.5880 O   0  0  0  0  0  0  0  0  0  0  0  0
  -29.9610  -15.6430   20.5290 N   0  0  0  0  0  0  0  0  0  0  0  0
  -29.1180  -15.4260   21.0340 H   0  0  0  0  0  0  0  0  0  0  0  0
  -25.2000  -13.9080   20.4170 C   0  0  0  0  0  0  0  0  0  0  0  0
  -24.1390  -13.1410   20.8170 C   0  0  0  0  0  0  0  0  0  0  0  0
  -24.5900  -11.7860   20.7640 C   0  0  0  0  0  0  0  0  0  0  0  0
  -26.2310  -13.0200   20.1460 N   0  0  0  0  0  0  0  0  0  0  0  0
  -25.8690  -11.7380   20.4110 N   0  0  0  0  0  0  0  0  0  0  0  0
  -23.8580  -10.5270   20.9760 C   0  0  0  0  0  0  0  0  0  0  0  0
  -24.3040   -9.5560   21.8970 C   0  0  0  0  0  3  0  0  0  0  0  0
  -23.5720   -8.3660   22.0960 C   0  0  0  0  0  3  0  0  0  0  0  0
  -22.3760   -8.1390   21.3730 C   0  0  0  0  0  0  0  0  0  0  0  0
  -21.9470   -9.1010   20.4410 C   0  0  0  0  0  3  0  0  0  0  0  0
  -22.6810  -10.2820   20.2390 C   0  0  0  0  0  3  0  0  0  0  0  0
  -21.6160   -7.0010   21.4810 O   0  0  0  0  0  0  0  0  0  0  0  0
  -21.5930   -6.2590   22.6350 C   0  0  0  0  0  0  0  0  0  0  0  0
  -21.2140   -6.8210   23.8750 C   0  0  0  0  0  3  0  0  0  0  0  0
  -21.1310   -6.0070   25.0200 C   0  0  0  0  0  3  0  0  0  0  0  0
  -21.4170   -4.6310   24.9310 C   0  0  0  0  0  0  0  0  0  0  0  0
  -21.7920   -4.0680   23.6980 C   0  0  0  0  0  3  0  0  0  0  0  0
  -21.8760   -4.8800   22.5530 C   0  0  0  0  0  0  0  0  0  0  0  0
  -22.2140   -4.3290   21.3620 F   0  0  0  0  0  0  0  0  0  0  0  0
  -21.3310   -3.8480   26.0320 F   0  0  0  0  0  0  0  0  0  0  0  0
  -22.7580  -13.6290   21.1470 C   0  0  0  0  0  0  0  0  0  0  0  0
  -22.0570  -12.9340   22.0330 N   0  0  0  0  0  0  0  0  0  0  0  0
  -22.3120  -14.6650   20.6520 O   0  0  0  0  0  0  0  0  0  0  0  0
  -22.4290  -12.0970   22.4570 H   0  0  0  0  0  0  0  0  0  0  0  0
  -21.1320  -13.2470   22.3020 H   0  0  0  0  0  0  0  0  0  0  0  0
  -25.3700  -15.2790   20.2490 N   0  0  0  0  0  0  0  0  0  0  0  0
  -24.6080  -15.9320   20.3800 H   0  0  0  0  0  0  0  0  0  0  0  0
  -26.2230  -15.7240   19.9310 H   0  0  0  0  0  0  0  0  0  0  0  0
  1  2  2  0
  3  4  1  0
  3  5  1  0
  4  6  1  0
  5  7  1  0
  6  8  1  0
  7 10  1  0
  7  1  1  0
  8  1  1  0
  8 51  1  0
  8  9  1  6
 11 22  2  0
 12 10  1  0
 12 17  1  0
 13 21  1  0
 13 23  1  0
 14 20  1  0
 14 16  1  0
 15 21  1  0
 16 15  1  0
 17 16  2  0
 18 19  1  0
 18 12  2  0
 19 14  2  0
 20 13  1  0
 21 11  1  0
 23 25  2  0
 24 23  1  0
 26 24  1  0
 27 36  2  0
 27 32  1  0
 28 24  1  0
 28 32  1  0
 29 28  1  0
 30 31  1  0
 30 29  1  0
 31 27  1  0
 32 33  2  0
 33 34  1  0
 35 34  2  0
 36 35  1  0
 37 11  1  0
 37 42  1  0
 37 38  1  0
 38 41  1  1
 38 39  1  0
 40 38  1  0
 42 45  1  0
 43 47  1  0
 43 42  1  0
 44 43  2  0
 47 46  1  0
 49 47  1  0
 49 50  1  0
 49 48  1  0
 53 54  1  0
 54 51  1  0
 54 52  2  0
 55 52  1  0
 55 58  1  0
 56 53  2  0
 56 57  1  0
 57 55  2  0
 59 57  1  0
 60 56  1  0
 60 69  1  0
 61 69  1  0
 62 67  1  0
 63 64  1  0
 63 62  1  0
 65 64  1  0
 65 74  1  0
 65 66  1  0
 67 61  1  0
 67 66  1  0
 68 61  2  0
 69 70  1  0
 71 72  2  0
 72 91  1  0
 73 72  1  0
 73 76  1  0
 74 75  1  0
 74 71  1  0
 75 73  2  0
 76 77  1  0
 77 78  2  0
 79 82  1  0
 79 78  1  0
 80 79  2  0
 81 80  1  0
 81 76  2  0
 82 83  1  0
 83 84  1  0
 84 85  2  0
 86 85  1  0
 86 90  1  0
 87 86  2  0
 88 83  2  0
 88 87  1  0
 89 88  1  0
 91 92  1  0
 92 95  1  0
 92 94  1  0
 93 91  2  0
 96 97  1  0
 96 71  1  0
 98 96  1  0
M  ISO  4   7 101  10 101  61 100  69 100
M  END
>  <TORSDO>  (45) 
F 19

>  <SCORE>  (45) 
-14.701

>  <name>  (45) 
44

>  <ligand_id>  (45) 
44

>  <original_smiles>  (45) 
[H]C([H])=C1C([H])(Oc2c([H])c([H])c3c(c2[H])C([H])([H])N(C(=O)C([H])(N([H])C(=O)C([H])(N([H])C([H])([H])[H])C([H])([H])[H])C(C([H])([H])[H])(C([H])([H])[H])C([H])([H])[H])C([H])(C(=O)N([H])C2([H])c4c([H])c([H])c([H])c([H])c4C([H])([H])C([H])([H])C2([H])[H])C3([H])[H])C([H])([H])C([H])([H])C([H])([H])C([H])([H])[N+]1([H])C([H])([H])c1c([H])c(C([H])([H])[H])c(C([H])([H])[H])c(C([H])([H])N([H])C(=O)N2C([H])([H])C([H])([H])C([H])([H])C([H])(n3nc(-c4c([H])c([H])c(Oc5c([H])c([H])c(F)c([H])c5F)c([H])c4[H])c(C(=O)N([H])[H])c3N([H])[H])C2([H])[H])c1[H]

>  <smiles>  (45) 
[H]C([H])=C1C([H])(Oc2c([H])c([H])c3c(c2[H])C([H])([H])N(C(=O)C([H])(N([H])C(=O)C([H])(N([H])C([H])([H])[H])C([H])([H])[H])C(C([H])([H])[H])(C([H])([H])[H])C([H])([H])[H])C([H])(C(=O)N([H])C2([H])c4c([H])c([H])c([H])c([H])c4C([H])([H])C([H])([H])C2([H])[H])C3([H])[H])C([H])([H])C([H])([H])C([H])([H])C([H])([H])[N+]1([H])C([H])([H])c1c([H])c(C([H])([H])[H])c(C([H])([H])[H])c(C([H])([H])N([H])C(=O)N2C([H])([H])C([H])([H])C([H])([H])C([H])(n3nc(-c4c([H])c([H])c(Oc5c([H])c([H])c(F)c([H])c5F)c([H])c4[H])c(C(=O)N([H])[H])c3N([H])[H])C2([H])[H])c1[H]

$$$$
45:0:0
     RDKit          3D

 96104  0  0  1  0  0  0  0  0999 V2000
  -28.9740  -20.8230   20.5600 C   0  0  0  0  0  2  0  0  0  0  0  0
  -31.0400  -18.5780   18.1780 C   0  0  0  0  0  3  0  0  0  0  0  0
  -29.6050  -18.2710   20.5350 C   0  0  0  0  0  3  0  0  0  0  0  0
  -30.4310  -19.7140   18.7410 C   0  0  0  0  0  0  0  0  0  0  0  0
  -30.9060  -17.2880   18.7270 C   0  0  0  0  0  0  0  0  0  0  0  0
  -29.7020  -19.5790   19.9500 C   0  0  0  0  0  0  0  0  0  0  0  0
  -30.2010  -17.0970   19.9560 C   0  0  0  0  0  0  0  0  0  0  0  0
  -31.4920  -16.1680   17.8790 C   0  0  0  0  0  1  0  0  0  0  0  0
  -30.7350  -14.6550   20.5340 C   0  0  0  0  0  0  0  0  0  0  0  0
  -30.5010  -12.4120   19.5390 C   0  0  0  0  0  2  0  0  0  0  0  0
  -29.5960  -12.5080   18.2900 C   0  0  0  0  0  2  0  0  0  0  0  0
  -28.1100  -12.3880   18.6730 C   0  0  0  0  0  2  0  0  0  0  0  0
  -27.7170  -13.2840   19.8770 C   0  0  0  0  0  3  0  0  0  0  0  0
  -28.7420  -13.1700   21.0290 C   0  0  0  0  0  2  0  0  0  0  0  0
  -30.0720  -13.4620   20.4800 N   0  0  0  0  0  0  0  0  0  0  0  0
  -31.9500  -14.7210   20.3400 O   0  0  0  0  0  0  0  0  0  0  0  0
  -29.9660  -15.7850   20.5640 N   0  0  0  0  0  0  0  0  0  0  0  0
  -29.0410  -15.6440   20.9400 H   0  0  0  0  0  0  0  0  0  0  0  0
  -25.2980  -13.8880   20.5050 C   0  0  0  0  0  0  0  0  0  0  0  0
  -24.2190  -13.1170   20.8470 C   0  0  0  0  0  0  0  0  0  0  0  0
  -24.6880  -11.7680   20.8610 C   0  0  0  0  0  0  0  0  0  0  0  0
  -26.3530  -13.0090   20.3250 N   0  0  0  0  0  0  0  0  0  0  0  0
  -25.9880  -11.7300   20.6030 N   0  0  0  0  0  0  0  0  0  0  0  0
  -23.9580  -10.5040   21.0430 C   0  0  0  0  0  0  0  0  0  0  0  0
  -24.3660   -9.5490   22.0010 C   0  0  0  0  0  3  0  0  0  0  0  0
  -23.6380   -8.3530   22.1730 C   0  0  0  0  0  3  0  0  0  0  0  0
  -22.4900   -8.1020   21.3870 C   0  0  0  0  0  0  0  0  0  0  0  0
  -22.1020   -9.0430   20.4180 C   0  0  0  0  0  3  0  0  0  0  0  0
  -22.8300  -10.2310   20.2430 C   0  0  0  0  0  3  0  0  0  0  0  0
  -21.7390   -6.9530   21.4650 O   0  0  0  0  0  0  0  0  0  0  0  0
  -21.6600   -6.2230   22.6240 C   0  0  0  0  0  0  0  0  0  0  0  0
  -21.1940   -6.7870   23.8300 C   0  0  0  0  0  3  0  0  0  0  0  0
  -21.0600   -5.9810   24.9790 C   0  0  0  0  0  3  0  0  0  0  0  0
  -21.3870   -4.6140   24.9220 C   0  0  0  0  0  0  0  0  0  0  0  0
  -21.8500   -4.0490   23.7200 C   0  0  0  0  0  3  0  0  0  0  0  0
  -21.9820   -4.8520   22.5740 C   0  0  0  0  0  0  0  0  0  0  0  0
  -22.4050   -4.2980   21.4110 F   0  0  0  0  0  0  0  0  0  0  0  0
  -21.2520   -3.8380   26.0230 F   0  0  0  0  0  0  0  0  0  0  0  0
  -22.8100  -13.5930   21.0520 C   0  0  0  0  0  0  0  0  0  0  0  0
  -22.0520  -12.9110   21.9050 N   0  0  0  0  0  0  0  0  0  0  0  0
  -22.3890  -14.6030   20.4920 O   0  0  0  0  0  0  0  0  0  0  0  0
  -22.4060  -12.0960   22.3820 H   0  0  0  0  0  0  0  0  0  0  0  0
  -21.1040  -13.2120   22.0850 H   0  0  0  0  0  0  0  0  0  0  0  0
  -25.4650  -15.2560   20.3080 N   0  0  0  0  0  0  0  0  0  0  0  0
  -24.6930  -15.9080   20.3720 H   0  0  0  0  0  0  0  0  0  0  0  0
  -26.3180  -15.6860   19.9740 H   0  0  0  0  0  0  0  0  0  0  0  0
  -31.5160  -21.3540   17.1690 C   0  0  0  0  0  2  0  0  0  0  0  0
  -30.5560  -21.0100   18.0480 C   0  0  0  0  0  3  0  0  0  0  0  0
  -29.8560  -23.2610   20.9400 C   0  0  0  0  0  0  0  0  0  0  0  0
  -30.7370  -21.3440   22.1700 C   0  0  0  0  0  1  0  0  0  0  0  0
  -29.8300  -21.8940   21.1510 N   0  0  0  0  0  0  0  0  0  0  0  0
  -30.7060  -23.9480   21.5190 O   0  0  0  0  0  0  0  0  0  0  0  0
  -29.6390  -24.6120   18.7900 C   0  0  0  0  0  1  0  0  0  0  0  0
  -28.8760  -24.0600   20.0150 C   0  0  0  0  0  3  0  0  0  0  0  0
  -28.1320  -25.2520   20.7460 C   0  0  0  0  0  2  0  0  0  0  0  0
  -28.3120  -26.6120   20.2300 O   0  0  0  0  0  0  0  0  0  0  0  0
  -24.5490  -31.9220   23.2490 C   0  0  0  0  0  0  0  0  0  0  0  0
  -27.1780  -27.4150   20.2020 C   0  0  0  0  0  0  0  0  0  0  0  0
  -23.3460  -30.5170   21.6090 C   0  0  0  0  0  3  0  0  0  0  0  0
  -24.8000  -28.9700   20.1890 C   0  0  0  0  0  0  0  0  0  0  0  0
  -25.8790  -30.8580   21.4210 C   0  0  0  0  0  2  0  0  0  0  0  0
  -25.9640  -29.4800   20.7820 C   0  0  0  0  0  0  0  0  0  0  0  0
  -27.1590  -28.7140   20.7790 C   0  0  0  0  0  3  0  0  0  0  0  0
  -26.0020  -26.9430   19.5820 C   0  0  0  0  0  3  0  0  0  0  0  0
  -24.8180  -27.7030   19.5840 C   0  0  0  0  0  3  0  0  0  0  0  0
  -23.5600  -29.8350   20.2320 C   0  0  0  0  0  2  0  0  0  0  0  0
  -24.6100  -31.1140   22.1500 N   0  0  0  0  0  0  0  0  0  0  0  0
  -23.4660  -32.1990   23.7820 O   0  0  0  0  0  0  0  0  0  0  0  0
  -22.6880  -29.5000   22.5710 C   0  0  0  0  0  0  0  0  0  0  0  0
  -21.3620  -29.3260   22.4450 N   0  0  0  0  0  0  0  0  0  0  0  0
  -23.3660  -28.8740   23.3880 O   0  0  0  0  0  0  0  0  0  0  0  0
  -20.8750  -29.8830   21.7560 H   0  0  0  0  0  0  0  0  0  0  0  0
  -17.9800  -28.1560   22.9520 C   0  0  0  0  0  0  0  0  0  0  0  0
  -20.5400  -28.3930   23.2150 C   0  0  0  0  0  3  0  0  0  0  0  0
  -20.6300  -26.9620   22.6340 C   0  0  0  0  0  2  0  0  0  0  0  0
  -19.5200  -26.6510   21.6240 C   0  0  0  0  0  2  0  0  0  0  0  0
  -18.1420  -26.8070   22.2730 C   0  0  0  0  0  2  0  0  0  0  0  0
  -19.1060  -28.9070   23.3800 C   0  0  0  0  0  0  0  0  0  0  0  0
  -18.8990  -30.1720   23.9750 C   0  0  0  0  0  3  0  0  0  0  0  0
  -17.5980  -30.6830   24.1470 C   0  0  0  0  0  3  0  0  0  0  0  0
  -16.4870  -29.9280   23.7350 C   0  0  0  0  0  3  0  0  0  0  0  0
  -16.6790  -28.6660   23.1430 C   0  0  0  0  0  3  0  0  0  0  0  0
  -25.8320  -32.5540   23.8700 C   0  0  0  0  0  3  0  0  0  0  0  0
  -25.5280  -33.9560   24.1850 N   0  0  0  0  0  0  0  0  0  0  0  0
  -25.8790  -35.0000   23.4240 C   0  0  0  0  0  0  0  0  0  0  0  0
  -26.5630  -34.8830   22.4030 O   0  0  0  0  0  0  0  0  0  0  0  0
  -24.9270  -34.1210   24.9800 H   0  0  0  0  0  0  0  0  0  0  0  0
  -24.1790  -36.8070   23.0160 C   0  0  0  0  0  1  0  0  0  0  0  0
  -25.3950  -36.3950   23.8620 C   0  0  0  0  0  3  0  0  0  0  0  0
  -27.5160  -37.2620   24.7450 C   0  0  0  0  0  1  0  0  0  0  0  0
  -26.4410  -37.4360   23.7710 N   0  0  0  0  0  0  0  0  0  0  0  0
  -26.0420  -38.3610   23.9040 H   0  0  0  0  0  0  0  0  0  0  0  0
  -26.3400  -31.7910   25.1550 C   0  0  1  0  0  0  0  0  0  0  0  0
  -25.2400  -31.5680   26.2190 C   0  0  0  0  0  1  0  0  0  0  0  0
  -26.9180  -30.4080   24.7750 C   0  0  0  0  0  1  0  0  0  0  0  0
  -27.4910  -32.5870   25.8160 C   0  0  0  0  0  1  0  0  0  0  0  0
  1 51  1  0
  2  5  2  0
  2  4  1  0
  4  6  2  0
  5  7  1  0
  6  3  1  0
  6  1  1  0
  7  3  2  0
  7 17  1  0
  8  5  1  0
  9 17  1  0
 10 15  1  0
 11 12  1  0
 11 10  1  0
 13 12  1  0
 13 22  1  0
 13 14  1  0
 15  9  1  0
 15 14  1  0
 16  9  2  0
 17 18  1  0
 19 20  2  0
 20 21  1  0
 20 39  1  0
 21 24  1  0
 22 19  1  0
 22 23  1  0
 23 21  2  0
 24 25  1  0
 25 26  2  0
 27 30  1  0
 27 26  1  0
 28 27  2  0
 29 28  1  0
 29 24  2  0
 30 31  1  0
 31 32  1  0
 32 33  2  0
 34 33  1  0
 34 38  1  0
 35 34  2  0
 36 31  2  0
 36 35  1  0
 37 36  1  0
 39 40  1  0
 40 43  1  0
 40 42  1  0
 41 39  2  0
 44 45  1  0
 44 19  1  0
 46 44  1  0
 47 48  2  0
 48  4  1  0
 49 51  1  0
 49 52  2  0
 51 50  1  0
 54 53  1  0
 54 55  1  0
 54 49  1  0
 56 55  1  0
 57 68  2  0
 58 56  1  0
 58 63  1  0
 59 67  1  0
 59 69  1  0
 60 66  1  0
 60 62  1  0
 61 67  1  0
 62 61  1  0
 63 62  2  0
 64 65  1  0
 64 58  2  0
 65 60  2  0
 66 59  1  0
 67 57  1  0
 69 71  2  0
 70 69  1  0
 72 70  1  0
 73 82  2  0
 73 78  1  0
 74 70  1  0
 74 78  1  0
 75 74  1  0
 76 77  1  0
 76 75  1  0
 77 73  1  0
 78 79  2  0
 79 80  1  0
 81 80  2  0
 82 81  1  0
 83 57  1  0
 83 84  1  0
 83 93  1  0
 84 87  1  0
 85 89  1  0
 85 84  1  0
 86 85  2  0
 89 88  1  0
 91 89  1  0
 91 92  1  0
 91 90  1  0
 93 96  1  1
 93 94  1  0
 95 93  1  0
M  ISO  4   9 100  17 100  55 101  56 101
M  END
>  <TORSDO>  (46) 
F 21

>  <SCORE>  (46) 
-13.736

>  <name>  (46) 
45

>  <ligand_id>  (46) 
45

>  <original_smiles>  (46) 
[H]C([H])=C([H])c1c([H])c(C([H])([H])[H])c(N([H])C(=O)N2C([H])([H])C([H])([H])C([H])([H])C([H])(n3nc(-c4c([H])c([H])c(Oc5c([H])c([H])c(F)c([H])c5F)c([H])c4[H])c(C(=O)N([H])[H])c3N([H])[H])C2([H])[H])c([H])c1C([H])([H])N(C(=O)C([H])(C([H])([H])[H])C([H])([H])Oc1c([H])c([H])c2c(c1[H])C([H])([H])N(C(=O)C([H])(N([H])C(=O)C([H])(N([H])C([H])([H])[H])C([H])([H])[H])C(C([H])([H])[H])(C([H])([H])[H])C([H])([H])[H])C([H])(C(=O)N([H])C1([H])c3c([H])c([H])c([H])c([H])c3C([H])([H])C([H])([H])C1([H])[H])C2([H])[H])C([H])([H])[H]

>  <smiles>  (46) 
[H]C([H])=C([H])c1c([H])c(C([H])([H])[H])c(N([H])C(=O)N2C([H])([H])C([H])([H])C([H])([H])C([H])(n3nc(-c4c([H])c([H])c(Oc5c([H])c([H])c(F)c([H])c5F)c([H])c4[H])c(C(=O)N([H])[H])c3N([H])[H])C2([H])[H])c([H])c1C([H])([H])N(C(=O)C([H])(C([H])([H])[H])C([H])([H])Oc1c([H])c([H])c2c(c1[H])C([H])([H])N(C(=O)C([H])(N([H])C(=O)C([H])(N([H])C([H])([H])[H])C([H])([H])[H])C(C([H])([H])[H])(C([H])([H])[H])C([H])([H])[H])C([H])(C(=O)N([H])C1([H])c3c([H])c([H])c([H])c([H])c3C([H])([H])C([H])([H])C1([H])[H])C2([H])[H])C([H])([H])[H]

$$$$
46:0:0
     RDKit          3D

 96105  0  0  1  0  0  0  0  0999 V2000
  -28.3850  -22.9730   20.5910 C   0  0  0  0  0  0  0  0  0  0  0  0
  -30.1130  -23.2430   18.2840 C   0  0  0  0  0  2  0  0  0  0  0  0
  -29.8140  -24.5040   19.1020 C   0  0  0  0  0  2  0  0  0  0  0  0
  -30.2390  -22.0210   19.2070 C   0  0  0  0  0  2  0  0  0  0  0  0
  -28.4820  -24.3470   19.8550 C   0  0  0  0  0  3  0  0  0  0  0  0
  -29.1830  -21.9210   20.2330 N   0  0  0  0  0  0  0  0  0  0  0  0
  -27.5260  -22.8500   21.4710 O   0  0  0  0  0  0  0  0  0  0  0  0
  -28.9350  -20.5830   20.8420 C   0  0  0  0  0  2  0  0  0  0  0  0
  -31.3520  -19.7770   20.9520 C   0  0  0  0  0  3  0  0  0  0  0  0
  -31.9910  -17.4290   20.7700 C   0  0  0  0  0  3  0  0  0  0  0  0
  -32.3470  -18.7810   20.9490 C   0  0  0  0  0  0  0  0  0  0  0  0
  -29.9950  -19.4540   20.7420 C   0  0  0  0  0  0  0  0  0  0  0  0
  -29.6400  -18.0780   20.5660 C   0  0  0  0  0  0  0  0  0  0  0  0
  -30.6400  -17.0580   20.5870 C   0  0  0  0  0  0  0  0  0  0  0  0
  -33.8020  -19.1630   21.1570 C   0  0  0  0  0  1  0  0  0  0  0  0
  -28.1780  -17.7000   20.3570 C   0  0  0  0  0  1  0  0  0  0  0  0
  -30.9490  -14.6420   19.9560 C   0  0  0  0  0  0  0  0  0  0  0  0
  -30.6410  -12.3970   18.9590 C   0  0  0  0  0  2  0  0  0  0  0  0
  -29.6520  -12.4720   17.7770 C   0  0  0  0  0  2  0  0  0  0  0  0
  -28.1970  -12.3390   18.2680 C   0  0  0  0  0  2  0  0  0  0  0  0
  -27.8840  -13.2690   19.4690 C   0  0  0  0  0  3  0  0  0  0  0  0
  -28.9810  -13.1670   20.5540 C   0  0  0  0  0  2  0  0  0  0  0  0
  -30.2800  -13.4540   19.9180 N   0  0  0  0  0  0  0  0  0  0  0  0
  -32.0410  -14.8030   19.4030 O   0  0  0  0  0  0  0  0  0  0  0  0
  -30.2790  -15.6680   20.5250 N   0  0  0  0  0  0  0  0  0  0  0  0
  -29.3460  -15.4380   20.8350 H   0  0  0  0  0  0  0  0  0  0  0  0
  -25.5380  -13.9070   20.3150 C   0  0  0  0  0  0  0  0  0  0  0  0
  -24.4770  -13.1510   20.7310 C   0  0  0  0  0  0  0  0  0  0  0  0
  -24.9060  -11.7910   20.6490 C   0  0  0  0  0  0  0  0  0  0  0  0
  -26.5530  -13.0110   20.0130 N   0  0  0  0  0  0  0  0  0  0  0  0
  -26.1770  -11.7310   20.2700 N   0  0  0  0  0  0  0  0  0  0  0  0
  -24.1630  -10.5410   20.8540 C   0  0  0  0  0  0  0  0  0  0  0  0
  -24.5690   -9.5890   21.8150 C   0  0  0  0  0  3  0  0  0  0  0  0
  -23.8280   -8.4040   22.0060 C   0  0  0  0  0  3  0  0  0  0  0  0
  -22.6660   -8.1610   21.2350 C   0  0  0  0  0  0  0  0  0  0  0  0
  -22.2800   -9.1010   20.2620 C   0  0  0  0  0  3  0  0  0  0  0  0
  -23.0220  -10.2780   20.0700 C   0  0  0  0  0  3  0  0  0  0  0  0
  -21.8970   -7.0270   21.3330 O   0  0  0  0  0  0  0  0  0  0  0  0
  -21.7520   -6.3580   22.5220 C   0  0  0  0  0  0  0  0  0  0  0  0
  -21.2230   -6.9870   23.6720 C   0  0  0  0  0  3  0  0  0  0  0  0
  -21.0260   -6.2420   24.8530 C   0  0  0  0  0  3  0  0  0  0  0  0
  -21.3480   -4.8730   24.8850 C   0  0  0  0  0  0  0  0  0  0  0  0
  -21.8690   -4.2440   23.7390 C   0  0  0  0  0  3  0  0  0  0  0  0
  -22.0680   -4.9850   22.5610 C   0  0  0  0  0  0  0  0  0  0  0  0
  -22.5510   -4.3700   21.4550 F   0  0  0  0  0  0  0  0  0  0  0  0
  -21.1510   -4.1560   26.0160 F   0  0  0  0  0  0  0  0  0  0  0  0
  -23.1070  -13.6500   21.0880 C   0  0  0  0  0  0  0  0  0  0  0  0
  -22.4130  -12.9540   21.9800 N   0  0  0  0  0  0  0  0  0  0  0  0
  -22.6640  -14.6960   20.6130 O   0  0  0  0  0  0  0  0  0  0  0  0
  -22.7850  -12.1060   22.3840 H   0  0  0  0  0  0  0  0  0  0  0  0
  -21.4950  -13.2700   22.2630 H   0  0  0  0  0  0  0  0  0  0  0  0
  -25.7160  -15.2770   20.1460 N   0  0  0  0  0  0  0  0  0  0  0  0
  -24.9520  -15.9320   20.2780 H   0  0  0  0  0  0  0  0  0  0  0  0
  -26.5240  -15.6920   19.7040 H   0  0  0  0  0  0  0  0  0  0  0  0
  -28.1680  -25.5580   20.7910 C   0  0  0  0  0  2  0  0  0  0  0  0
  -28.2830  -26.8600   20.1700 O   0  0  0  0  0  0  0  0  0  0  0  0
  -24.5330  -32.0090   23.3880 C   0  0  0  0  0  0  0  0  0  0  0  0
  -27.1310  -27.6190   20.1930 C   0  0  0  0  0  0  0  0  0  0  0  0
  -23.3030  -30.6400   21.7360 C   0  0  0  0  0  3  0  0  0  0  0  0
  -24.7370  -29.1260   20.2640 C   0  0  0  0  0  0  0  0  0  0  0  0
  -25.8270  -31.0000   21.5090 C   0  0  0  0  0  2  0  0  0  0  0  0
  -25.9040  -29.6410   20.8410 C   0  0  0  0  0  0  0  0  0  0  0  0
  -27.1090  -28.8980   20.7990 C   0  0  0  0  0  3  0  0  0  0  0  0
  -25.9500  -27.1190   19.6080 C   0  0  0  0  0  3  0  0  0  0  0  0
  -24.7540  -27.8630   19.6440 C   0  0  0  0  0  3  0  0  0  0  0  0
  -23.4920  -29.9810   20.3440 C   0  0  0  0  0  2  0  0  0  0  0  0
  -24.5740  -31.2310   22.2680 N   0  0  0  0  0  0  0  0  0  0  0  0
  -23.4610  -32.2730   23.9470 O   0  0  0  0  0  0  0  0  0  0  0  0
  -22.6630  -29.6030   22.6870 C   0  0  0  0  0  0  0  0  0  0  0  0
  -21.3480  -29.3820   22.5340 N   0  0  0  0  0  0  0  0  0  0  0  0
  -23.3490  -29.0000   23.5170 O   0  0  0  0  0  0  0  0  0  0  0  0
  -20.8540  -29.9200   21.8360 H   0  0  0  0  0  0  0  0  0  0  0  0
  -18.0200  -28.0260   22.9070 C   0  0  0  0  0  0  0  0  0  0  0  0
  -20.5450  -28.4220   23.2910 C   0  0  0  0  0  3  0  0  0  0  0  0
  -20.7470  -26.9850   22.7580 C   0  0  0  0  0  2  0  0  0  0  0  0
  -19.7130  -26.5810   21.7020 C   0  0  0  0  0  2  0  0  0  0  0  0
  -18.2960  -26.6720   22.2760 C   0  0  0  0  0  2  0  0  0  0  0  0
  -19.0770  -28.8550   23.3690 C   0  0  0  0  0  0  0  0  0  0  0  0
  -18.7660  -30.1190   23.9160 C   0  0  0  0  0  3  0  0  0  0  0  0
  -17.4330  -30.5570   24.0060 C   0  0  0  0  0  3  0  0  0  0  0  0
  -16.3880  -29.7260   23.5610 C   0  0  0  0  0  3  0  0  0  0  0  0
  -16.6830  -28.4630   23.0170 C   0  0  0  0  0  3  0  0  0  0  0  0
  -25.8280  -32.6270   24.0010 C   0  0  0  0  0  3  0  0  0  0  0  0
  -26.3480  -31.8520   25.2730 C   0  0  1  0  0  0  0  0  0  0  0  0
  -25.2550  -31.6050   26.3380 C   0  0  0  0  0  1  0  0  0  0  0  0
  -26.9350  -30.4770   24.8750 C   0  0  0  0  0  1  0  0  0  0  0  0
  -27.4990  -32.6460   25.9350 C   0  0  0  0  0  1  0  0  0  0  0  0
  -25.5350  -34.0280   24.3310 N   0  0  0  0  0  0  0  0  0  0  0  0
  -25.8850  -35.0760   23.5730 C   0  0  0  0  0  0  0  0  0  0  0  0
  -26.5560  -34.9660   22.5430 O   0  0  0  0  0  0  0  0  0  0  0  0
  -24.9370  -34.1930   25.1270 H   0  0  0  0  0  0  0  0  0  0  0  0
  -24.1820  -36.8920   23.2170 C   0  0  0  0  0  1  0  0  0  0  0  0
  -25.4150  -36.4700   24.0310 C   0  0  0  0  0  3  0  0  0  0  0  0
  -27.5580  -37.3250   24.8710 C   0  0  0  0  0  1  0  0  0  0  0  0
  -26.4630  -37.5080   23.9220 N   0  0  0  0  0  0  0  0  0  0  0  0
  -26.0680  -38.4340   24.0690 H   0  0  0  0  0  0  0  0  0  0  0  0
  1  7  2  0
  2  3  1  0
  2  4  1  0
  3  5  1  0
  4  6  1  0
  5  1  1  0
  5 55  1  0
  6  1  1  0
  6  8  1  0
 10 11  2  0
 11  9  1  0
 11 15  1  0
 12  8  1  0
 12  9  2  0
 13 14  2  0
 13 12  1  0
 14 10  1  0
 16 13  1  0
 17 25  1  0
 18 23  1  0
 19 20  1  0
 19 18  1  0
 21 20  1  0
 21 30  1  0
 21 22  1  0
 23 17  1  0
 23 22  1  0
 24 17  2  0
 25 14  1  0
 25 26  1  0
 27 28  2  0
 28 47  1  0
 29 28  1  0
 29 32  1  0
 30 31  1  0
 30 27  1  0
 31 29  2  0
 32 33  1  0
 33 34  2  0
 35 38  1  0
 35 34  1  0
 36 35  2  0
 37 36  1  0
 37 32  2  0
 38 39  1  0
 39 44  2  0
 39 40  1  0
 40 41  2  0
 41 42  1  0
 42 46  1  0
 43 42  2  0
 44 43  1  0
 45 44  1  0
 47 48  1  0
 48 51  1  0
 48 50  1  0
 49 47  2  0
 52 53  1  0
 52 27  1  0
 54 52  1  0
 56 58  1  0
 56 55  1  0
 57 68  2  0
 58 63  1  0
 59 67  1  0
 59 69  1  0
 60 66  1  0
 60 62  1  0
 61 67  1  0
 62 61  1  0
 63 62  2  0
 64 65  1  0
 64 58  2  0
 65 60  2  0
 66 59  1  0
 67 57  1  0
 69 71  2  0
 70 69  1  0
 72 70  1  0
 73 82  2  0
 73 78  1  0
 74 70  1  0
 74 78  1  0
 75 74  1  0
 76 77  1  0
 76 75  1  0
 77 73  1  0
 78 79  2  0
 79 80  1  0
 81 80  2  0
 82 81  1  0
 83 57  1  0
 83 88  1  0
 83 84  1  0
 84 87  1  1
 84 85  1  0
 86 84  1  0
 88 91  1  0
 89 93  1  0
 89 88  1  0
 90 89  2  0
 93 92  1  0
 95 93  1  0
 95 96  1  0
 95 94  1  0
M  ISO  4  17 100  25 100  55 101  56 101
M  END
>  <TORSDO>  (47) 
F 19

>  <SCORE>  (47) 
-14.455

>  <name>  (47) 
46

>  <ligand_id>  (47) 
46

>  <original_smiles>  (47) 
[H]c1c([H])c([H])c2c(c1[H])C([H])([H])C([H])([H])C([H])([H])C2([H])N([H])C(=O)C1([H])N(C(=O)C([H])(N([H])C(=O)C([H])(N([H])C([H])([H])[H])C([H])([H])[H])C(C([H])([H])[H])(C([H])([H])[H])C([H])([H])[H])C([H])([H])c2c([H])c(OC([H])([H])C3([H])C(=O)N(C([H])([H])c4c([H])c(C([H])([H])[H])c([H])c(N([H])C(=O)N5C([H])([H])C([H])([H])C([H])([H])C([H])(n6nc(-c7c([H])c([H])c(Oc8c([H])c([H])c(F)c([H])c8F)c([H])c7[H])c(C(=O)N([H])[H])c6N([H])[H])C5([H])[H])c4C([H])([H])[H])C([H])([H])C([H])([H])C3([H])[H])c([H])c([H])c2C1([H])[H]

>  <smiles>  (47) 
[H]c1c([H])c([H])c2c(c1[H])C([H])([H])C([H])([H])C([H])([H])C2([H])N([H])C(=O)C1([H])N(C(=O)C([H])(N([H])C(=O)C([H])(N([H])C([H])([H])[H])C([H])([H])[H])C(C([H])([H])[H])(C([H])([H])[H])C([H])([H])[H])C([H])([H])c2c([H])c(OC([H])([H])C3([H])C(=O)N(C([H])([H])c4c([H])c(C([H])([H])[H])c([H])c(N([H])C(=O)N5C([H])([H])C([H])([H])C([H])([H])C([H])(n6nc(-c7c([H])c([H])c(Oc8c([H])c([H])c(F)c([H])c8F)c([H])c7[H])c(C(=O)N([H])[H])c6N([H])[H])C5([H])[H])c4C([H])([H])[H])C([H])([H])C([H])([H])C3([H])[H])c([H])c([H])c2C1([H])[H]

$$$$
47:0:0
     RDKit          3D

 91 99  0  0  1  0  0  0  0  0999 V2000
  -29.5200  -18.9330   21.4350 C   0  0  0  0  0  3  0  0  0  0  0  0
  -29.2230  -20.1770   22.0400 C   0  0  0  0  0  3  0  0  0  0  0  0
  -29.7730  -20.1160   19.3450 C   0  0  0  0  0  3  0  0  0  0  0  0
  -29.4650  -21.4220   19.9210 C   0  0  0  0  0  0  0  0  0  0  0  0
  -29.8190  -18.8540   20.0630 C   0  0  0  0  0  0  0  0  0  0  0  0
  -29.1970  -21.3990   21.3170 C   0  0  0  0  0  0  0  0  0  0  0  0
  -28.9040  -22.6630   22.0980 C   0  0  0  0  0  1  0  0  0  0  0  0
  -29.4690  -22.6780   19.0060 C   0  0  0  0  0  3  0  0  0  0  0  0
  -29.1700  -24.0470   18.9150 C   0  0  0  0  0  0  0  0  0  0  0  0
  -29.4490  -24.7100   17.5730 C   0  0  0  0  0  1  0  0  0  0  0  0
  -28.5760  -25.1490   19.8900 C   0  0  0  0  0  2  0  0  0  0  0  0
  -28.5980  -26.5920   19.4390 O   0  0  0  0  0  0  0  0  0  0  0  0
  -24.7220  -31.6090   22.9850 C   0  0  0  0  0  0  0  0  0  0  0  0
  -27.4400  -27.3950   19.5230 C   0  0  0  0  0  0  0  0  0  0  0  0
  -23.5300  -30.2690   21.2890 C   0  0  0  0  0  3  0  0  0  0  0  0
  -25.0040  -28.9050   19.6980 C   0  0  0  0  0  0  0  0  0  0  0  0
  -26.0420  -30.7340   21.0400 C   0  0  0  0  0  2  0  0  0  0  0  0
  -26.1680  -29.4070   20.2900 C   0  0  0  0  0  0  0  0  0  0  0  0
  -27.3910  -28.6680   20.1900 C   0  0  0  0  0  3  0  0  0  0  0  0
  -26.2490  -26.9560   18.9080 C   0  0  0  0  0  3  0  0  0  0  0  0
  -25.0470  -27.6880   18.9950 C   0  0  0  0  0  3  0  0  0  0  0  0
  -23.7260  -29.7080   19.8540 C   0  0  0  0  0  2  0  0  0  0  0  0
  -24.7850  -30.8860   21.8270 N   0  0  0  0  0  0  0  0  0  0  0  0
  -23.6490  -31.7840   23.5800 O   0  0  0  0  0  0  0  0  0  0  0  0
  -22.9590  -29.1510   22.1950 C   0  0  0  0  0  0  0  0  0  0  0  0
  -21.6450  -28.8890   22.0830 N   0  0  0  0  0  0  0  0  0  0  0  0
  -23.6970  -28.5240   22.9590 O   0  0  0  0  0  0  0  0  0  0  0  0
  -21.1020  -29.4450   21.4380 H   0  0  0  0  0  0  0  0  0  0  0  0
  -18.3720  -27.4290   22.5770 C   0  0  0  0  0  0  0  0  0  0  0  0
  -20.9130  -27.8500   22.8100 C   0  0  0  0  0  3  0  0  0  0  0  0
  -21.1010  -26.4680   22.1410 C   0  0  0  0  0  2  0  0  0  0  0  0
  -19.9990  -26.1350   21.1310 C   0  0  0  0  0  2  0  0  0  0  0  0
  -18.6250  -26.1420   21.8090 C   0  0  0  0  0  2  0  0  0  0  0  0
  -19.4450  -28.2380   23.0330 C   0  0  0  0  0  0  0  0  0  0  0  0
  -19.1550  -29.4420   23.7110 C   0  0  0  0  0  3  0  0  0  0  0  0
  -17.8230  -29.8370   23.9370 C   0  0  0  0  0  3  0  0  0  0  0  0
  -16.7640  -29.0240   23.4960 C   0  0  0  0  0  3  0  0  0  0  0  0
  -17.0390  -27.8220   22.8210 C   0  0  0  0  0  3  0  0  0  0  0  0
  -25.9930  -32.2660   23.6060 C   0  0  0  0  0  3  0  0  0  0  0  0
  -26.5930  -31.4450   24.8100 C   0  0  1  0  0  0  0  0  0  0  0  0
  -25.5540  -31.0900   25.8980 C   0  0  0  0  0  1  0  0  0  0  0  0
  -27.2230  -30.1240   24.3130 C   0  0  0  0  0  1  0  0  0  0  0  0
  -27.7310  -32.2510   25.4820 C   0  0  0  0  0  1  0  0  0  0  0  0
  -25.6270  -33.6230   24.0390 N   0  0  0  0  0  0  0  0  0  0  0  0
  -25.8910  -34.7410   23.3510 C   0  0  0  0  0  0  0  0  0  0  0  0
  -26.5370  -34.7430   22.2990 O   0  0  0  0  0  0  0  0  0  0  0  0
  -25.0500  -33.6940   24.8650 H   0  0  0  0  0  0  0  0  0  0  0  0
  -24.0780  -36.4730   23.1600 C   0  0  0  0  0  1  0  0  0  0  0  0
  -25.3530  -36.0700   23.9180 C   0  0  0  0  0  3  0  0  0  0  0  0
  -27.4570  -36.9920   24.7830 C   0  0  0  0  0  1  0  0  0  0  0  0
  -26.3350  -37.1740   23.8650 N   0  0  0  0  0  0  0  0  0  0  0  0
  -25.8900  -38.0610   24.0810 H   0  0  0  0  0  0  0  0  0  0  0  0
  -30.2420  -17.4680   19.3920 C   0  0  0  0  0  2  0  0  0  0  0  0
  -30.8420  -14.9600   19.8590 C   0  0  0  0  0  0  0  0  0  0  0  0
  -30.6510  -12.6360   18.9770 C   0  0  0  0  0  2  0  0  0  0  0  0
  -29.6800  -12.6500   17.7740 C   0  0  0  0  0  2  0  0  0  0  0  0
  -28.2220  -12.4940   18.2490 C   0  0  0  0  0  2  0  0  0  0  0  0
  -27.8780  -13.4240   19.4440 C   0  0  0  0  0  3  0  0  0  0  0  0
  -28.9670  -13.3840   20.5400 C   0  0  0  0  0  2  0  0  0  0  0  0
  -30.2410  -13.7220   19.8980 N   0  0  0  0  0  0  0  0  0  0  0  0
  -32.0030  -15.0570   19.4470 O   0  0  0  0  0  0  0  0  0  0  0  0
  -30.0550  -16.0900   20.0360 N   0  0  0  0  0  0  0  0  0  0  0  0
  -29.1330  -15.9120   20.4020 H   0  0  0  0  0  0  0  0  0  0  0  0
  -25.5290  -14.0430   20.2680 C   0  0  0  0  0  0  0  0  0  0  0  0
  -24.4690  -13.2820   20.6800 C   0  0  0  0  0  0  0  0  0  0  0  0
  -24.9100  -11.9240   20.6140 C   0  0  0  0  0  0  0  0  0  0  0  0
  -26.5500  -13.1510   19.9820 N   0  0  0  0  0  0  0  0  0  0  0  0
  -26.1870  -11.8710   20.2520 N   0  0  0  0  0  0  0  0  0  0  0  0
  -24.1720  -10.6700   20.8220 C   0  0  0  0  0  0  0  0  0  0  0  0
  -24.5980   -9.7090   21.7650 C   0  0  0  0  0  3  0  0  0  0  0  0
  -23.8610   -8.5200   21.9610 C   0  0  0  0  0  3  0  0  0  0  0  0
  -22.6830   -8.2850   21.2130 C   0  0  0  0  0  0  0  0  0  0  0  0
  -22.2750   -9.2330   20.2580 C   0  0  0  0  0  3  0  0  0  0  0  0
  -23.0130  -10.4130   20.0600 C   0  0  0  0  0  3  0  0  0  0  0  0
  -21.9180   -7.1480   21.3170 O   0  0  0  0  0  0  0  0  0  0  0  0
  -21.8430   -6.4370   22.4890 C   0  0  0  0  0  0  0  0  0  0  0  0
  -21.3690   -7.0190   23.6840 C   0  0  0  0  0  3  0  0  0  0  0  0
  -21.2420   -6.2330   24.8480 C   0  0  0  0  0  3  0  0  0  0  0  0
  -21.5770   -4.8660   24.8160 C   0  0  0  0  0  0  0  0  0  0  0  0
  -22.0440   -4.2850   23.6230 C   0  0  0  0  0  3  0  0  0  0  0  0
  -22.1730   -5.0670   22.4640 C   0  0  0  0  0  0  0  0  0  0  0  0
  -22.6030   -4.4960   21.3130 F   0  0  0  0  0  0  0  0  0  0  0  0
  -21.4490   -4.1100   25.9310 F   0  0  0  0  0  0  0  0  0  0  0  0
  -23.0900  -13.7750   21.0110 C   0  0  0  0  0  0  0  0  0  0  0  0
  -22.3870  -13.0830   21.9030 N   0  0  0  0  0  0  0  0  0  0  0  0
  -22.6460  -14.8090   20.5150 O   0  0  0  0  0  0  0  0  0  0  0  0
  -22.7620  -12.2470   22.3280 H   0  0  0  0  0  0  0  0  0  0  0  0
  -21.4600  -13.3890   22.1620 H   0  0  0  0  0  0  0  0  0  0  0  0
  -25.7060  -15.4120   20.0940 N   0  0  0  0  0  0  0  0  0  0  0  0
  -24.9580  -16.0790   20.2540 H   0  0  0  0  0  0  0  0  0  0  0  0
  -26.5350  -15.8390   19.7040 H   0  0  0  0  0  0  0  0  0  0  0  0
  1  2  1  0
  3  4  2  0
  3  5  1  0
  4  6  1  0
  5  1  2  0
  6  2  2  0
  6  7  1  0
  8  4  1  0
  9  8  2  0
  9 11  1  0
 10  9  1  0
 12 14  1  0
 12 11  1  0
 13 24  2  0
 14 19  1  0
 15 23  1  0
 15 25  1  0
 16 22  1  0
 16 18  1  0
 17 23  1  0
 18 17  1  0
 19 18  2  0
 20 21  1  0
 20 14  2  0
 21 16  2  0
 22 15  1  0
 23 13  1  0
 25 27  2  0
 26 25  1  0
 28 26  1  0
 29 38  2  0
 29 34  1  0
 30 26  1  0
 30 34  1  0
 31 30  1  0
 32 33  1  0
 32 31  1  0
 33 29  1  0
 34 35  2  0
 35 36  1  0
 37 36  2  0
 38 37  1  0
 39 13  1  0
 39 44  1  0
 39 40  1  0
 40 43  1  1
 40 41  1  0
 42 40  1  0
 44 47  1  0
 45 49  1  0
 45 44  1  0
 46 45  2  0
 49 48  1  0
 51 49  1  0
 51 52  1  0
 51 50  1  0
 53 62  1  0
 53  5  1  0
 54 60  1  0
 54 62  1  0
 55 60  1  0
 56 57  1  0
 56 55  1  0
 58 57  1  0
 58 67  1  0
 58 59  1  0
 60 59  1  0
 61 54  2  0
 62 63  1  0
 64 65  2  0
 65 84  1  0
 66 65  1  0
 66 69  1  0
 67 68  1  0
 67 64  1  0
 68 66  2  0
 69 70  1  0
 70 71  2  0
 72 75  1  0
 72 71  1  0
 73 72  2  0
 74 73  1  0
 74 69  2  0
 75 76  1  0
 76 77  1  0
 77 78  2  0
 79 78  1  0
 79 83  1  0
 80 79  2  0
 81 76  2  0
 81 80  1  0
 82 81  1  0
 84 85  1  0
 85 88  1  0
 85 87  1  0
 86 84  2  0
 89 90  1  0
 89 64  1  0
 91 89  1  0
M  ISO  4  11 101  12 101  54 100  62 100
M  END
>  <TORSDO>  (48) 
F 19

>  <SCORE>  (48) 
-11.772

>  <name>  (48) 
47

>  <ligand_id>  (48) 
47

>  <original_smiles>  (48) 
[H]C(=C(C([H])([H])[H])C([H])([H])Oc1c([H])c([H])c2c(c1[H])C([H])([H])N(C(=O)C([H])(N([H])C(=O)C([H])(N([H])C([H])([H])[H])C([H])([H])[H])C(C([H])([H])[H])(C([H])([H])[H])C([H])([H])[H])C([H])(C(=O)N([H])C1([H])c3c([H])c([H])c([H])c([H])c3C([H])([H])C([H])([H])C1([H])[H])C2([H])[H])c1c([H])c(C([H])([H])N([H])C(=O)N2C([H])([H])C([H])([H])C([H])([H])C([H])(n3nc(-c4c([H])c([H])c(Oc5c([H])c([H])c(F)c([H])c5F)c([H])c4[H])c(C(=O)N([H])[H])c3N([H])[H])C2([H])[H])c([H])c([H])c1C([H])([H])[H]

>  <smiles>  (48) 
[H]C(=C(C([H])([H])[H])C([H])([H])Oc1c([H])c([H])c2c(c1[H])C([H])([H])N(C(=O)C([H])(N([H])C(=O)C([H])(N([H])C([H])([H])[H])C([H])([H])[H])C(C([H])([H])[H])(C([H])([H])[H])C([H])([H])[H])C([H])(C(=O)N([H])C1([H])c3c([H])c([H])c([H])c([H])c3C([H])([H])C([H])([H])C1([H])[H])C2([H])[H])c1c([H])c(C([H])([H])N([H])C(=O)N2C([H])([H])C([H])([H])C([H])([H])C([H])(n3nc(-c4c([H])c([H])c(Oc5c([H])c([H])c(F)c([H])c5F)c([H])c4[H])c(C(=O)N([H])[H])c3N([H])[H])C2([H])[H])c([H])c([H])c1C([H])([H])[H]

$$$$
48:0:0
     RDKit          3D

 88 96  0  0  1  0  0  0  0  0999 V2000
  -29.5170  -20.3070   21.5970 C   0  0  0  0  0  3  0  0  0  0  0  0
  -29.2720  -21.5640   22.2210 C   0  0  0  0  0  3  0  0  0  0  0  0
  -29.1690  -21.4880   19.5270 C   0  0  0  0  0  3  0  0  0  0  0  0
  -29.5050  -20.1220   20.2000 C   0  0  0  0  0  0  0  0  0  0  0  0
  -28.8830  -22.8930   20.1400 C   0  0  0  0  0  0  0  0  0  0  0  0
  -28.9720  -22.7870   21.5510 C   0  0  0  0  0  0  0  0  0  0  0  0
  -28.6740  -24.1770   22.5330 Cl  0  0  0  0  0  0  0  0  0  0  0  0
  -29.9830  -18.5210   19.6080 C   0  0  0  0  0  2  0  0  0  0  0  0
  -30.6400  -15.6260   20.0130 C   0  0  0  0  0  0  0  0  0  0  0  0
  -30.6550  -13.1300   19.2510 C   0  0  0  0  0  2  0  0  0  0  0  0
  -29.7430  -12.8490   18.0290 C   0  0  0  0  0  2  0  0  0  0  0  0
  -28.3010  -12.5670   18.4820 C   0  0  0  0  0  2  0  0  0  0  0  0
  -27.8340  -13.5650   19.5690 C   0  0  0  0  0  3  0  0  0  0  0  0
  -28.8790  -13.7880   20.6860 C   0  0  0  0  0  2  0  0  0  0  0  0
  -30.0970  -14.3010   20.0360 N   0  0  0  0  0  0  0  0  0  0  0  0
  -31.8460  -15.6200   19.7230 O   0  0  0  0  0  0  0  0  0  0  0  0
  -29.8730  -16.9110   20.1170 N   0  0  0  0  0  0  0  0  0  0  0  0
  -28.9340  -16.7120   20.4330 H   0  0  0  0  0  0  0  0  0  0  0  0
  -25.4690  -14.1170   20.3390 C   0  0  0  0  0  0  0  0  0  0  0  0
  -24.4140  -13.3400   20.7230 C   0  0  0  0  0  0  0  0  0  0  0  0
  -24.8840  -11.9910   20.6990 C   0  0  0  0  0  0  0  0  0  0  0  0
  -26.5120  -13.2440   20.0920 N   0  0  0  0  0  0  0  0  0  0  0  0
  -26.1740  -11.9590   20.3770 N   0  0  0  0  0  0  0  0  0  0  0  0
  -24.1620  -10.7270   20.9030 C   0  0  0  0  0  0  0  0  0  0  0  0
  -24.5740   -9.7880   21.8730 C   0  0  0  0  0  3  0  0  0  0  0  0
  -23.8480   -8.5930   22.0670 C   0  0  0  0  0  3  0  0  0  0  0  0
  -22.6950   -8.3290   21.2900 C   0  0  0  0  0  0  0  0  0  0  0  0
  -22.3020   -9.2570   20.3100 C   0  0  0  0  0  3  0  0  0  0  0  0
  -23.0290  -10.4440   20.1150 C   0  0  0  0  0  3  0  0  0  0  0  0
  -21.9430   -7.1830   21.3900 O   0  0  0  0  0  0  0  0  0  0  0  0
  -21.8560   -6.4800   22.5650 C   0  0  0  0  0  0  0  0  0  0  0  0
  -21.3360   -7.0590   23.7430 C   0  0  0  0  0  3  0  0  0  0  0  0
  -21.1990   -6.2790   24.9090 C   0  0  0  0  0  3  0  0  0  0  0  0
  -21.5710   -4.9230   24.8970 C   0  0  0  0  0  0  0  0  0  0  0  0
  -22.0850   -4.3430   23.7240 C   0  0  0  0  0  3  0  0  0  0  0  0
  -22.2230   -5.1190   22.5600 C   0  0  0  0  0  0  0  0  0  0  0  0
  -22.6980   -4.5500   21.4260 F   0  0  0  0  0  0  0  0  0  0  0  0
  -21.4340   -4.1720   26.0160 F   0  0  0  0  0  0  0  0  0  0  0  0
  -23.0170  -13.8150   20.9960 C   0  0  0  0  0  0  0  0  0  0  0  0
  -22.2950  -13.1240   21.8690 N   0  0  0  0  0  0  0  0  0  0  0  0
  -22.5770  -14.8360   20.4690 O   0  0  0  0  0  0  0  0  0  0  0  0
  -22.6640  -12.2990   22.3160 H   0  0  0  0  0  0  0  0  0  0  0  0
  -21.3570  -13.4250   22.0960 H   0  0  0  0  0  0  0  0  0  0  0  0
  -25.6240  -15.4880   20.1470 N   0  0  0  0  0  0  0  0  0  0  0  0
  -24.8500  -16.1340   20.2560 H   0  0  0  0  0  0  0  0  0  0  0  0
  -26.4540  -15.9240   19.7690 H   0  0  0  0  0  0  0  0  0  0  0  0
  -28.3150  -24.4380   19.4740 C   0  0  0  0  0  2  0  0  0  0  0  0
  -28.4170  -26.0470   19.9250 O   0  0  0  0  0  0  0  0  0  0  0  0
  -24.7080  -31.8710   23.0550 C   0  0  0  0  0  0  0  0  0  0  0  0
  -27.3910  -27.1460   19.8530 C   0  0  0  0  0  0  0  0  0  0  0  0
  -23.5470  -30.4940   21.3780 C   0  0  0  0  0  3  0  0  0  0  0  0
  -25.0370  -28.9830   19.8850 C   0  0  0  0  0  0  0  0  0  0  0  0
  -26.1070  -30.7780   21.2270 C   0  0  0  0  0  2  0  0  0  0  0  0
  -26.2160  -29.3920   20.5200 C   0  0  0  0  0  0  0  0  0  0  0  0
  -27.3810  -28.4940   20.4840 C   0  0  0  0  0  3  0  0  0  0  0  0
  -26.1800  -26.9090   19.1610 C   0  0  0  0  0  3  0  0  0  0  0  0
  -25.0460  -27.7650   19.1860 C   0  0  0  0  0  3  0  0  0  0  0  0
  -23.7890  -29.8650   19.9770 C   0  0  0  0  0  2  0  0  0  0  0  0
  -24.8100  -31.0750   21.9400 N   0  0  0  0  0  0  0  0  0  0  0  0
  -23.6140  -32.1100   23.5920 O   0  0  0  0  0  0  0  0  0  0  0  0
  -22.8900  -29.4470   22.3150 C   0  0  0  0  0  0  0  0  0  0  0  0
  -21.5590  -29.2680   22.2150 N   0  0  0  0  0  0  0  0  0  0  0  0
  -23.5840  -28.7980   23.1000 O   0  0  0  0  0  0  0  0  0  0  0  0
  -21.0500  -29.8450   21.5600 H   0  0  0  0  0  0  0  0  0  0  0  0
  -18.2040  -28.0100   22.7890 C   0  0  0  0  0  0  0  0  0  0  0  0
  -20.7700  -28.2830   22.9640 C   0  0  0  0  0  3  0  0  0  0  0  0
  -20.8560  -26.8860   22.3060 C   0  0  0  0  0  2  0  0  0  0  0  0
  -19.7160  -26.6120   21.3190 C   0  0  0  0  0  2  0  0  0  0  0  0
  -18.3610  -26.7060   22.0260 C   0  0  0  0  0  2  0  0  0  0  0  0
  -19.3330  -28.7590   23.2160 C   0  0  0  0  0  0  0  0  0  0  0  0
  -19.1280  -29.9780   23.8960 C   0  0  0  0  0  3  0  0  0  0  0  0
  -17.8260  -30.4520   24.1500 C   0  0  0  0  0  3  0  0  0  0  0  0
  -16.7120  -29.7020   23.7350 C   0  0  0  0  0  3  0  0  0  0  0  0
  -16.9020  -28.4820   23.0620 C   0  0  0  0  0  3  0  0  0  0  0  0
  -25.9630  -32.5350   23.7010 C   0  0  0  0  0  3  0  0  0  0  0  0
  -25.6080  -33.9180   24.0670 N   0  0  0  0  0  0  0  0  0  0  0  0
  -25.9170  -35.0070   23.3520 C   0  0  0  0  0  0  0  0  0  0  0  0
  -26.5940  -34.9540   22.3210 O   0  0  0  0  0  0  0  0  0  0  0  0
  -25.0030  -34.0300   24.8680 H   0  0  0  0  0  0  0  0  0  0  0  0
  -24.1510  -36.7790   23.0570 C   0  0  0  0  0  1  0  0  0  0  0  0
  -25.4000  -36.3700   23.8550 C   0  0  0  0  0  3  0  0  0  0  0  0
  -27.5030  -37.2860   24.7330 C   0  0  0  0  0  1  0  0  0  0  0  0
  -26.4090  -37.4500   23.7810 N   0  0  0  0  0  0  0  0  0  0  0  0
  -25.9790  -38.3570   23.9450 H   0  0  0  0  0  0  0  0  0  0  0  0
  -26.4870  -31.7580   24.9720 C   0  0  1  0  0  0  0  0  0  0  0  0
  -25.3920  -31.4770   26.0290 C   0  0  0  0  0  1  0  0  0  0  0  0
  -27.1090  -30.3990   24.5740 C   0  0  0  0  0  1  0  0  0  0  0  0
  -27.6130  -32.5700   25.6550 C   0  0  0  0  0  1  0  0  0  0  0  0
  1  2  1  0
  3  5  2  0
  3  4  1  0
  4  1  2  0
  5  6  1  0
  6  2  2  0
  6  7  1  0
  8 17  1  0
  8  4  1  0
  9 15  1  0
  9 17  1  0
 10 15  1  0
 11 12  1  0
 11 10  1  0
 13 12  1  0
 13 22  1  0
 13 14  1  0
 15 14  1  0
 16  9  2  0
 17 18  1  0
 19 20  2  0
 20 39  1  0
 21 20  1  0
 21 24  1  0
 22 19  1  0
 22 23  1  0
 23 21  2  0
 24 25  1  0
 25 26  2  0
 27 30  1  0
 27 26  1  0
 28 27  2  0
 29 28  1  0
 29 24  2  0
 30 31  1  0
 31 32  1  0
 32 33  2  0
 34 33  1  0
 34 38  1  0
 35 34  2  0
 36 31  2  0
 36 35  1  0
 37 36  1  0
 39 40  1  0
 40 43  1  0
 40 42  1  0
 41 39  2  0
 44 45  1  0
 44 19  1  0
 46 44  1  0
 47 48  1  0
 47  5  1  0
 49 60  2  0
 50 48  1  0
 50 55  1  0
 51 59  1  0
 51 61  1  0
 52 58  1  0
 52 54  1  0
 53 59  1  0
 54 53  1  0
 55 54  2  0
 56 57  1  0
 56 50  2  0
 57 52  2  0
 58 51  1  0
 59 49  1  0
 61 63  2  0
 62 61  1  0
 64 62  1  0
 65 74  2  0
 65 70  1  0
 66 62  1  0
 66 70  1  0
 67 66  1  0
 68 69  1  0
 68 67  1  0
 69 65  1  0
 70 71  2  0
 71 72  1  0
 73 72  2  0
 74 73  1  0
 75 49  1  0
 75 76  1  0
 75 85  1  0
 76 79  1  0
 77 81  1  0
 77 76  1  0
 78 77  2  0
 81 80  1  0
 83 81  1  0
 83 84  1  0
 83 82  1  0
 85 88  1  1
 85 86  1  0
 87 85  1  0
M  ISO  4   9 100  17 100  47 101  48 101
M  END
>  <TORSDO>  (49) 
F 18

>  <SCORE>  (49) 
-16.002

>  <name>  (49) 
48

>  <ligand_id>  (49) 
48

>  <original_smiles>  (49) 
[H]c1c([H])c([H])c2c(c1[H])C([H])([H])C([H])([H])C([H])([H])C2([H])N([H])C(=O)C1([H])N(C(=O)C([H])(N([H])C(=O)C([H])(N([H])C([H])([H])[H])C([H])([H])[H])C(C([H])([H])[H])(C([H])([H])[H])C([H])([H])[H])C([H])([H])c2c([H])c(OC([H])([H])c3c([H])c(C([H])([H])N([H])C(=O)N4C([H])([H])C([H])([H])C([H])([H])C([H])(n5nc(-c6c([H])c([H])c(Oc7c([H])c([H])c(F)c([H])c7F)c([H])c6[H])c(C(=O)N([H])[H])c5N([H])[H])C4([H])[H])c([H])c([H])c3Cl)c([H])c([H])c2C1([H])[H]

>  <smiles>  (49) 
[H]c1c([H])c([H])c2c(c1[H])C([H])([H])C([H])([H])C([H])([H])C2([H])N([H])C(=O)C1([H])N(C(=O)C([H])(N([H])C(=O)C([H])(N([H])C([H])([H])[H])C([H])([H])[H])C(C([H])([H])[H])(C([H])([H])[H])C([H])([H])[H])C([H])([H])c2c([H])c(OC([H])([H])c3c([H])c(C([H])([H])N([H])C(=O)N4C([H])([H])C([H])([H])C([H])([H])C([H])(n5nc(-c6c([H])c([H])c(Oc7c([H])c([H])c(F)c([H])c7F)c([H])c6[H])c(C(=O)N([H])[H])c5N([H])[H])C4([H])[H])c([H])c([H])c3Cl)c([H])c([H])c2C1([H])[H]

$$$$
49:0:0
     RDKit          3D

 93102  0  0  1  0  0  0  0  0999 V2000
  -30.8850  -19.3300   19.2510 C   0  0  0  0  0  3  0  0  0  0  0  0
  -28.3950  -20.4060   19.8750 C   0  0  0  0  0  3  0  0  0  0  0  0
  -30.6090  -20.7090   18.9920 C   0  0  0  0  0  0  0  0  0  0  0  0
  -29.9580  -18.4490   19.8550 C   0  0  0  0  0  0  0  0  0  0  0  0
  -29.3370  -21.3020   19.2920 C   0  0  0  0  0  0  0  0  0  0  0  0
  -28.6870  -19.0280   20.1500 C   0  0  0  0  0  0  0  0  0  0  0  0
  -31.7750  -21.5300   18.4660 C   0  0  0  0  0  1  0  0  0  0  0  0
  -27.4700  -18.0670   20.9140 Cl  0  0  0  0  0  0  0  0  0  0  0  0
  -28.5350  -24.7120   17.7230 C   0  0  0  0  0  2  0  0  0  0  0  0
  -28.9670  -23.2240   17.6490 C   0  0  0  0  0  2  0  0  0  0  0  0
  -28.5240  -23.7540   19.9360 C   0  0  0  0  0  2  0  0  0  0  0  0
  -28.7800  -25.1160   19.1820 C   0  0  0  0  0  3  0  0  0  0  0  0
  -29.0290  -22.6930   19.0180 N   0  0  0  0  0  0  0  0  0  0  0  0
  -28.5060  -26.4920   19.6760 O   0  0  0  0  0  0  0  0  0  0  0  0
  -24.6090  -31.5750   22.9410 C   0  0  0  0  0  0  0  0  0  0  0  0
  -27.3050  -27.2160   19.6720 C   0  0  0  0  0  0  0  0  0  0  0  0
  -23.4210  -30.2150   21.2550 C   0  0  0  0  0  3  0  0  0  0  0  0
  -24.8900  -28.7530   19.7560 C   0  0  0  0  0  0  0  0  0  0  0  0
  -25.9470  -30.6090   21.0540 C   0  0  0  0  0  2  0  0  0  0  0  0
  -26.0500  -29.2590   20.3500 C   0  0  0  0  0  0  0  0  0  0  0  0
  -27.2550  -28.5030   20.2930 C   0  0  0  0  0  3  0  0  0  0  0  0
  -26.1090  -26.7390   19.0950 C   0  0  0  0  0  3  0  0  0  0  0  0
  -24.9200  -27.4990   19.1210 C   0  0  0  0  0  3  0  0  0  0  0  0
  -23.6340  -29.5960   19.8470 C   0  0  0  0  0  2  0  0  0  0  0  0
  -24.6790  -30.8150   21.8070 N   0  0  0  0  0  0  0  0  0  0  0  0
  -23.5260  -31.8030   23.4980 O   0  0  0  0  0  0  0  0  0  0  0  0
  -22.7940  -29.1460   22.1800 C   0  0  0  0  0  0  0  0  0  0  0  0
  -21.4650  -28.9670   22.0840 N   0  0  0  0  0  0  0  0  0  0  0  0
  -23.5000  -28.4820   22.9440 O   0  0  0  0  0  0  0  0  0  0  0  0
  -20.9550  -29.5570   21.4420 H   0  0  0  0  0  0  0  0  0  0  0  0
  -18.1040  -27.7630   22.6540 C   0  0  0  0  0  0  0  0  0  0  0  0
  -20.6750  -27.9860   22.8260 C   0  0  0  0  0  3  0  0  0  0  0  0
  -20.7370  -26.5950   22.1530 C   0  0  0  0  0  2  0  0  0  0  0  0
  -19.5890  -26.3490   21.1690 C   0  0  0  0  0  2  0  0  0  0  0  0
  -18.2380  -26.4600   21.8820 C   0  0  0  0  0  2  0  0  0  0  0  0
  -19.2480  -28.4870   23.0840 C   0  0  0  0  0  0  0  0  0  0  0  0
  -19.0670  -29.7080   23.7660 C   0  0  0  0  0  3  0  0  0  0  0  0
  -17.7750  -30.2060   24.0220 C   0  0  0  0  0  3  0  0  0  0  0  0
  -16.6460  -29.4780   23.6100 C   0  0  0  0  0  3  0  0  0  0  0  0
  -16.8120  -28.2570   22.9310 C   0  0  0  0  0  3  0  0  0  0  0  0
  -25.8840  -32.2120   23.5770 C   0  0  0  0  0  3  0  0  0  0  0  0
  -25.5370  -33.5770   23.9990 N   0  0  0  0  0  0  0  0  0  0  0  0
  -25.8380  -34.6870   23.3120 C   0  0  0  0  0  0  0  0  0  0  0  0
  -26.5090  -34.6700   22.2770 O   0  0  0  0  0  0  0  0  0  0  0  0
  -24.9420  -33.6610   24.8100 H   0  0  0  0  0  0  0  0  0  0  0  0
  -24.0610  -36.4500   23.0780 C   0  0  0  0  0  1  0  0  0  0  0  0
  -25.3140  -36.0270   23.8620 C   0  0  0  0  0  3  0  0  0  0  0  0
  -27.4180  -36.9200   24.7590 C   0  0  0  0  0  1  0  0  0  0  0  0
  -26.3170  -37.1140   23.8190 N   0  0  0  0  0  0  0  0  0  0  0  0
  -25.8840  -38.0120   24.0190 H   0  0  0  0  0  0  0  0  0  0  0  0
  -26.4510  -31.3840   24.7960 C   0  0  1  0  0  0  0  0  0  0  0  0
  -25.3890  -31.0560   25.8710 C   0  0  0  0  0  1  0  0  0  0  0  0
  -27.0580  -30.0480   24.3110 C   0  0  0  0  0  1  0  0  0  0  0  0
  -27.5950  -32.1690   25.4770 C   0  0  0  0  0  1  0  0  0  0  0  0
  -30.4540  -17.0490   20.4010 C   0  0  0  0  0  2  0  0  0  0  0  0
  -30.5550  -14.6000   19.6050 C   0  0  0  0  0  0  0  0  0  0  0  0
  -30.1740  -12.4010   18.5010 C   0  0  0  0  0  2  0  0  0  0  0  0
  -29.0970  -12.5590   17.4060 C   0  0  0  0  0  2  0  0  0  0  0  0
  -27.6860  -12.3970   18.0030 C   0  0  0  0  0  2  0  0  0  0  0  0
  -27.4800  -13.2320   19.2960 C   0  0  0  0  0  3  0  0  0  0  0  0
  -28.6600  -13.0590   20.2750 C   0  0  0  0  0  2  0  0  0  0  0  0
  -29.8860  -13.4070   19.5450 N   0  0  0  0  0  0  0  0  0  0  0  0
  -31.6940  -14.7050   19.1400 O   0  0  0  0  0  0  0  0  0  0  0  0
  -29.8670  -15.7090   20.0360 N   0  0  0  0  0  0  0  0  0  0  0  0
  -28.9070  -15.5550   20.3070 H   0  0  0  0  0  0  0  0  0  0  0  0
  -25.1890  -13.8210   20.2910 C   0  0  0  0  0  0  0  0  0  0  0  0
  -24.1700  -13.0440   20.7690 C   0  0  0  0  0  0  0  0  0  0  0  0
  -24.6250  -11.6920   20.6730 C   0  0  0  0  0  0  0  0  0  0  0  0
  -26.1990  -12.9430   19.9300 N   0  0  0  0  0  0  0  0  0  0  0  0
  -25.8730  -11.6580   20.2220 N   0  0  0  0  0  0  0  0  0  0  0  0
  -23.9230  -10.4280   20.9290 C   0  0  0  0  0  0  0  0  0  0  0  0
  -24.4060   -9.4930   21.8710 C   0  0  0  0  0  3  0  0  0  0  0  0
  -23.7030   -8.2930   22.1130 C   0  0  0  0  0  3  0  0  0  0  0  0
  -22.5030   -8.0200   21.4130 C   0  0  0  0  0  0  0  0  0  0  0  0
  -22.0410   -8.9440   20.4590 C   0  0  0  0  0  3  0  0  0  0  0  0
  -22.7440  -10.1350   20.2160 C   0  0  0  0  0  3  0  0  0  0  0  0
  -21.7680   -6.8690   21.5650 O   0  0  0  0  0  0  0  0  0  0  0  0
  -21.7280   -6.1910   22.7570 C   0  0  0  0  0  0  0  0  0  0  0  0
  -21.2550   -6.7950   23.9420 C   0  0  0  0  0  3  0  0  0  0  0  0
  -21.1670   -6.0410   25.1290 C   0  0  0  0  0  3  0  0  0  0  0  0
  -21.5420   -4.6830   25.1320 C   0  0  0  0  0  0  0  0  0  0  0  0
  -22.0080   -4.0790   23.9510 C   0  0  0  0  0  3  0  0  0  0  0  0
  -22.0980   -4.8310   22.7650 C   0  0  0  0  0  0  0  0  0  0  0  0
  -22.5280   -4.2380   21.6250 F   0  0  0  0  0  0  0  0  0  0  0  0
  -21.4500   -3.9570   26.2690 F   0  0  0  0  0  0  0  0  0  0  0  0
  -22.8130  -13.5180   21.2000 C   0  0  0  0  0  0  0  0  0  0  0  0
  -22.1900  -12.8190   22.1430 N   0  0  0  0  0  0  0  0  0  0  0  0
  -22.3160  -14.5420   20.7320 O   0  0  0  0  0  0  0  0  0  0  0  0
  -22.6080  -11.9910   22.5410 H   0  0  0  0  0  0  0  0  0  0  0  0
  -21.2840  -13.1170   22.4730 H   0  0  0  0  0  0  0  0  0  0  0  0
  -25.3330  -15.1930   20.1090 N   0  0  0  0  0  0  0  0  0  0  0  0
  -24.5860  -15.8450   20.3200 H   0  0  0  0  0  0  0  0  0  0  0  0
  -26.1360  -15.6380   19.6830 H   0  0  0  0  0  0  0  0  0  0  0  0
  1  4  1  0
  2  6  1  0
  3  1  2  0
  3  5  1  0
  4  6  2  0
  4 55  1  0
  5  2  2  0
  6  8  1  0
  7  3  1  0
  9 12  1  0
 10  9  1  0
 10 13  1  0
 12 14  1  0
 12 11  1  0
 13  5  1  0
 13 11  1  0
 15 26  2  0
 16 14  1  0
 16 21  1  0
 17 25  1  0
 17 27  1  0
 18 24  1  0
 18 20  1  0
 19 25  1  0
 20 19  1  0
 21 20  2  0
 22 23  1  0
 22 16  2  0
 23 18  2  0
 24 17  1  0
 25 15  1  0
 27 29  2  0
 28 27  1  0
 30 28  1  0
 31 40  2  0
 31 36  1  0
 32 28  1  0
 32 36  1  0
 33 32  1  0
 34 35  1  0
 34 33  1  0
 35 31  1  0
 36 37  2  0
 37 38  1  0
 39 38  2  0
 40 39  1  0
 41 15  1  0
 41 42  1  0
 41 51  1  0
 42 45  1  0
 43 47  1  0
 43 42  1  0
 44 43  2  0
 47 46  1  0
 49 47  1  0
 49 50  1  0
 49 48  1  0
 51 54  1  1
 51 52  1  0
 53 51  1  0
 56 64  1  0
 57 62  1  0
 58 59  1  0
 58 57  1  0
 60 59  1  0
 60 69  1  0
 60 61  1  0
 62 56  1  0
 62 61  1  0
 63 56  2  0
 64 65  1  0
 64 55  1  0
 66 67  2  0
 67 86  1  0
 68 67  1  0
 68 71  1  0
 69 70  1  0
 69 66  1  0
 70 68  2  0
 71 72  1  0
 72 73  2  0
 74 77  1  0
 74 73  1  0
 75 74  2  0
 76 75  1  0
 76 71  2  0
 77 78  1  0
 78 83  2  0
 78 79  1  0
 79 80  2  0
 80 81  1  0
 81 85  1  0
 82 81  2  0
 83 82  1  0
 84 83  1  0
 86 87  1  0
 87 90  1  0
 87 89  1  0
 88 86  2  0
 91 66  1  0
 91 92  1  0
 93 91  1  0
M  ISO  4  12 101  14 101  56 100  64 100
M  END
>  <TORSDO>  (50) 
F 18

>  <SCORE>  (50) 
-12.751

>  <name>  (50) 
49

>  <ligand_id>  (50) 
49

>  <original_smiles>  (50) 
[H]c1c([H])c([H])c2c(c1[H])C([H])([H])C([H])([H])C([H])([H])C2([H])N([H])C(=O)C1([H])N(C(=O)C([H])(N([H])C(=O)C([H])(N([H])C([H])([H])[H])C([H])([H])[H])C(C([H])([H])[H])(C([H])([H])[H])C([H])([H])[H])C([H])([H])c2c([H])c(OC3([H])C([H])([H])N(c4c([H])c(Cl)c(C([H])([H])N([H])C(=O)N5C([H])([H])C([H])([H])C([H])([H])C([H])(n6nc(-c7c([H])c([H])c(Oc8c([H])c([H])c(F)c([H])c8F)c([H])c7[H])c(C(=O)N([H])[H])c6N([H])[H])C5([H])[H])c([H])c4C([H])([H])[H])C([H])([H])C3([H])[H])c([H])c([H])c2C1([H])[H]

>  <smiles>  (50) 
[H]c1c([H])c([H])c2c(c1[H])C([H])([H])C([H])([H])C([H])([H])C2([H])N([H])C(=O)C1([H])N(C(=O)C([H])(N([H])C(=O)C([H])(N([H])C([H])([H])[H])C([H])([H])[H])C(C([H])([H])[H])(C([H])([H])[H])C([H])([H])[H])C([H])([H])c2c([H])c(OC3([H])C([H])([H])N(c4c([H])c(Cl)c(C([H])([H])N([H])C(=O)N5C([H])([H])C([H])([H])C([H])([H])C([H])(n6nc(-c7c([H])c([H])c(Oc8c([H])c([H])c(F)c([H])c8F)c([H])c7[H])c(C(=O)N([H])[H])c6N([H])[H])C5([H])[H])c([H])c4C([H])([H])[H])C([H])([H])C3([H])[H])c([H])c([H])c2C1([H])[H]

$$$$
50:0:0
     RDKit          3D

 96105  0  0  1  0  0  0  0  0999 V2000
  -28.7070  -22.1240   21.3580 C   0  0  0  0  0  2  0  0  0  0  0  0
  -28.5030  -18.5370   19.8870 C   0  0  0  0  0  3  0  0  0  0  0  0
  -30.1770  -20.0380   21.5410 C   0  0  0  0  0  3  0  0  0  0  0  0
  -28.1840  -19.8890   20.1550 C   0  0  0  0  0  0  0  0  0  0  0  0
  -29.6480  -17.9140   20.4390 C   0  0  0  0  0  0  0  0  0  0  0  0
  -29.0310  -20.6620   20.9890 C   0  0  0  0  0  0  0  0  0  0  0  0
  -30.4900  -18.6850   21.2670 C   0  0  0  0  0  0  0  0  0  0  0  0
  -26.9100  -20.4640   19.5500 C   0  0  0  0  0  1  0  0  0  0  0  0
  -31.6060  -18.1430   21.8070 F   0  0  0  0  0  0  0  0  0  0  0  0
  -29.9140  -16.4460   20.0630 C   0  0  0  0  0  2  0  0  0  0  0  0
  -31.5870  -14.6090   20.1520 C   0  0  0  0  0  0  0  0  0  0  0  0
  -31.1860  -12.2900   19.3750 C   0  0  0  0  0  2  0  0  0  0  0  0
  -30.2820  -12.2940   18.1220 C   0  0  0  0  0  2  0  0  0  0  0  0
  -28.7950  -12.2840   18.5210 C   0  0  0  0  0  2  0  0  0  0  0  0
  -28.4600  -13.3570   19.5900 C   0  0  0  0  0  3  0  0  0  0  0  0
  -29.4820  -13.3210   20.7530 C   0  0  0  0  0  2  0  0  0  0  0  0
  -30.8310  -13.4700   20.1860 N   0  0  0  0  0  0  0  0  0  0  0  0
  -32.7260  -14.6300   19.6880 O   0  0  0  0  0  0  0  0  0  0  0  0
  -31.0670  -15.7490   20.6520 N   0  0  0  0  0  0  0  0  0  0  0  0
  -31.7920  -16.4160   20.8750 H   0  0  0  0  0  0  0  0  0  0  0  0
  -26.1420  -14.2210   20.2940 C   0  0  0  0  0  0  0  0  0  0  0  0
  -24.9940  -13.5710   20.6530 C   0  0  0  0  0  0  0  0  0  0  0  0
  -25.3020  -12.1780   20.6110 C   0  0  0  0  0  0  0  0  0  0  0  0
  -27.0860  -13.2320   20.0650 N   0  0  0  0  0  0  0  0  0  0  0  0
  -26.5820  -11.9960   20.3090 N   0  0  0  0  0  0  0  0  0  0  0  0
  -24.4400  -11.0030   20.7820 C   0  0  0  0  0  0  0  0  0  0  0  0
  -24.7720   -9.9700   21.6860 C   0  0  0  0  0  3  0  0  0  0  0  0
  -23.9200   -8.8570   21.8470 C   0  0  0  0  0  3  0  0  0  0  0  0
  -22.7200   -8.7680   21.1000 C   0  0  0  0  0  0  0  0  0  0  0  0
  -22.4050   -9.7880   20.1840 C   0  0  0  0  0  3  0  0  0  0  0  0
  -23.2580  -10.8920   20.0220 C   0  0  0  0  0  3  0  0  0  0  0  0
  -21.8420   -7.7140   21.1750 O   0  0  0  0  0  0  0  0  0  0  0  0
  -21.7220   -6.9580   22.3130 C   0  0  0  0  0  0  0  0  0  0  0  0
  -21.3840   -7.5320   23.5580 C   0  0  0  0  0  3  0  0  0  0  0  0
  -21.2010   -6.7070   24.6870 C   0  0  0  0  0  3  0  0  0  0  0  0
  -21.3480   -5.3110   24.5700 C   0  0  0  0  0  0  0  0  0  0  0  0
  -21.6820   -4.7380   23.3300 C   0  0  0  0  0  3  0  0  0  0  0  0
  -21.8660   -5.5600   22.2050 C   0  0  0  0  0  0  0  0  0  0  0  0
  -22.1650   -5.0020   21.0070 F   0  0  0  0  0  0  0  0  0  0  0  0
  -21.1680   -4.5170   25.6520 F   0  0  0  0  0  0  0  0  0  0  0  0
  -23.6560  -14.2000   20.9170 C   0  0  0  0  0  0  0  0  0  0  0  0
  -22.8570  -13.5950   21.7880 N   0  0  0  0  0  0  0  0  0  0  0  0
  -23.3300  -15.2600   20.3830 O   0  0  0  0  0  0  0  0  0  0  0  0
  -23.1330  -12.7340   22.2370 H   0  0  0  0  0  0  0  0  0  0  0  0
  -21.9520  -13.9920   22.0040 H   0  0  0  0  0  0  0  0  0  0  0  0
  -26.4510  -15.5650   20.1150 N   0  0  0  0  0  0  0  0  0  0  0  0
  -25.7250  -16.2710   20.1750 H   0  0  0  0  0  0  0  0  0  0  0  0
  -27.2900  -15.8920   19.6590 H   0  0  0  0  0  0  0  0  0  0  0  0
  -30.0590  -23.4410   19.6650 C   0  0  0  0  0  0  0  0  0  0  0  0
  -30.8770  -22.5650   19.0570 C   0  0  0  0  0  2  0  0  0  0  0  0
  -30.2060  -24.9510   19.7350 C   0  0  0  0  0  2  0  0  0  0  0  0
  -28.0400  -24.3880   20.5400 C   0  0  0  0  0  2  0  0  0  0  0  0
  -28.7780  -25.4860   19.7460 C   0  0  0  0  0  3  0  0  0  0  0  0
  -28.7190  -23.0970   20.2240 N   0  0  2  0  0  4  0  0  0  0  0  0
  -28.1800  -22.6590   19.4890 H   0  0  0  0  0  0  0  0  0  0  0  0
  -28.7130  -26.8220   20.2990 O   0  0  0  0  0  0  0  0  0  0  0  0
  -24.6460  -31.8910   23.2670 C   0  0  0  0  0  0  0  0  0  0  0  0
  -27.5140  -27.5210   20.2470 C   0  0  0  0  0  0  0  0  0  0  0  0
  -23.5440  -30.4650   21.5810 C   0  0  0  0  0  3  0  0  0  0  0  0
  -25.0860  -28.9830   20.1960 C   0  0  0  0  0  0  0  0  0  0  0  0
  -26.0680  -30.8950   21.4710 C   0  0  0  0  0  2  0  0  0  0  0  0
  -26.2110  -29.5270   20.8280 C   0  0  0  0  0  0  0  0  0  0  0  0
  -27.4290  -28.8040   20.8470 C   0  0  0  0  0  3  0  0  0  0  0  0
  -26.3620  -27.0040   19.6080 C   0  0  0  0  0  3  0  0  0  0  0  0
  -25.1610  -27.7280   19.5780 C   0  0  0  0  0  3  0  0  0  0  0  0
  -23.8160  -29.7980   20.2080 C   0  0  0  0  0  2  0  0  0  0  0  0
  -24.7700  -31.0980   22.1650 N   0  0  0  0  0  0  0  0  0  0  0  0
  -23.5380  -32.1270   23.7710 O   0  0  0  0  0  0  0  0  0  0  0  0
  -22.8930  -29.4160   22.5130 C   0  0  0  0  0  0  0  0  0  0  0  0
  -21.5760  -29.2120   22.3550 N   0  0  0  0  0  0  0  0  0  0  0  0
  -23.5710  -28.7930   23.3370 O   0  0  0  0  0  0  0  0  0  0  0  0
  -21.0930  -29.7600   21.6570 H   0  0  0  0  0  0  0  0  0  0  0  0
  -18.2120  -27.9890   22.8220 C   0  0  0  0  0  0  0  0  0  0  0  0
  -20.7670  -28.2490   23.1020 C   0  0  0  0  0  3  0  0  0  0  0  0
  -20.8800  -26.8330   22.4920 C   0  0  0  0  0  2  0  0  0  0  0  0
  -19.7820  -26.5370   21.4660 C   0  0  0  0  0  2  0  0  0  0  0  0
  -18.3990  -26.6570   22.1140 C   0  0  0  0  0  2  0  0  0  0  0  0
  -19.3270  -28.7440   23.2740 C   0  0  0  0  0  0  0  0  0  0  0  0
  -19.1100  -29.9920   23.8950 C   0  0  0  0  0  3  0  0  0  0  0  0
  -17.8040  -30.4790   24.0860 C   0  0  0  0  0  3  0  0  0  0  0  0
  -16.6990  -29.7200   23.6590 C   0  0  0  0  0  3  0  0  0  0  0  0
  -16.9040  -28.4780   23.0270 C   0  0  0  0  0  3  0  0  0  0  0  0
  -25.8870  -32.5590   23.9350 C   0  0  0  0  0  3  0  0  0  0  0  0
  -26.3640  -31.8190   25.2450 C   0  0  1  0  0  0  0  0  0  0  0  0
  -25.2280  -31.5640   26.2650 C   0  0  0  0  0  1  0  0  0  0  0  0
  -27.0040  -30.4550   24.8970 C   0  0  0  0  0  1  0  0  0  0  0  0
  -27.4560  -32.6580   25.9510 C   0  0  0  0  0  1  0  0  0  0  0  0
  -25.5350  -33.9550   24.2250 N   0  0  0  0  0  0  0  0  0  0  0  0
  -25.8730  -35.0000   23.4570 C   0  0  0  0  0  0  0  0  0  0  0  0
  -26.5880  -34.8930   22.4570 O   0  0  0  0  0  0  0  0  0  0  0  0
  -24.8970  -34.1140   24.9910 H   0  0  0  0  0  0  0  0  0  0  0  0
  -24.1160  -36.7400   22.9960 C   0  0  0  0  0  1  0  0  0  0  0  0
  -25.3330  -36.3830   23.8640 C   0  0  0  0  0  3  0  0  0  0  0  0
  -27.4120  -37.3350   24.7600 C   0  0  0  0  0  1  0  0  0  0  0  0
  -26.3440  -37.4600   23.7700 N   0  0  0  0  0  0  0  0  0  0  0  0
  -25.9100  -38.3710   23.8830 H   0  0  0  0  0  0  0  0  0  0  0  0
  2  4  2  0
  2  5  1  0
  4  6  1  0
  5  7  2  0
  6  1  1  0
  6  3  2  0
  7  3  1  0
  7  9  1  0
  8  4  1  0
 10  5  1  0
 10 19  1  0
 11 17  1  0
 11 19  1  0
 12 17  1  0
 13 14  1  0
 13 12  1  0
 15 14  1  0
 15 24  1  0
 15 16  1  0
 17 16  1  0
 18 11  2  0
 19 20  1  0
 21 22  2  0
 22 41  1  0
 23 22  1  0
 23 26  1  0
 24 21  1  0
 24 25  1  0
 25 23  2  0
 26 27  1  0
 27 28  2  0
 29 32  1  0
 29 28  1  0
 30 29  2  0
 31 30  1  0
 31 26  2  0
 32 33  1  0
 33 34  1  0
 34 35  2  0
 36 35  1  0
 36 40  1  0
 37 36  2  0
 38 33  2  0
 38 37  1  0
 39 38  1  0
 41 42  1  0
 42 45  1  0
 42 44  1  0
 43 41  2  0
 46 47  1  0
 46 21  1  0
 48 46  1  0
 49 51  1  0
 49 54  1  0
 50 49  2  0
 51 53  1  0
 53 56  1  0
 53 52  1  0
 54 52  1  0
 54  1  1  0
 54 55  1  6
 57 68  2  0
 58 56  1  0
 58 63  1  0
 59 67  1  0
 59 69  1  0
 60 66  1  0
 60 62  1  0
 61 67  1  0
 62 63  2  0
 62 61  1  0
 64 58  2  0
 65 64  1  0
 65 60  2  0
 66 59  1  0
 67 57  1  0
 69 71  2  0
 70 69  1  0
 72 70  1  0
 73 82  2  0
 73 78  1  0
 74 70  1  0
 74 78  1  0
 75 74  1  0
 76 77  1  0
 76 75  1  0
 77 73  1  0
 78 79  2  0
 79 80  1  0
 81 80  2  0
 82 81  1  0
 83 57  1  0
 83 88  1  0
 83 84  1  0
 84 87  1  1
 84 85  1  0
 86 84  1  0
 88 91  1  0
 89 93  1  0
 89 88  1  0
 90 89  2  0
 93 92  1  0
 95 93  1  0
 95 96  1  0
 95 94  1  0
M  ISO  4  11 100  19 100  53 101  56 101
M  END
>  <TORSDO>  (51) 
F 19

>  <SCORE>  (51) 
-13.516

>  <name>  (51) 
50

>  <ligand_id>  (51) 
50

>  <original_smiles>  (51) 
[H]C([H])=C1C([H])([H])C([H])(Oc2c([H])c([H])c3c(c2[H])C([H])([H])N(C(=O)C([H])(N([H])C(=O)C([H])(N([H])C([H])([H])[H])C([H])([H])[H])C(C([H])([H])[H])(C([H])([H])[H])C([H])([H])[H])C([H])(C(=O)N([H])C2([H])c4c([H])c([H])c([H])c([H])c4C([H])([H])C([H])([H])C2([H])[H])C3([H])[H])C([H])([H])[N+]1([H])C([H])([H])c1c([H])c(F)c(C([H])([H])N([H])C(=O)N2C([H])([H])C([H])([H])C([H])([H])C([H])(n3nc(-c4c([H])c([H])c(Oc5c([H])c([H])c(F)c([H])c5F)c([H])c4[H])c(C(=O)N([H])[H])c3N([H])[H])C2([H])[H])c([H])c1C([H])([H])[H]

>  <smiles>  (51) 
[H]C([H])=C1C([H])([H])C([H])(Oc2c([H])c([H])c3c(c2[H])C([H])([H])N(C(=O)C([H])(N([H])C(=O)C([H])(N([H])C([H])([H])[H])C([H])([H])[H])C(C([H])([H])[H])(C([H])([H])[H])C([H])([H])[H])C([H])(C(=O)N([H])C2([H])c4c([H])c([H])c([H])c([H])c4C([H])([H])C([H])([H])C2([H])[H])C3([H])[H])C([H])([H])[N+]1([H])C([H])([H])c1c([H])c(F)c(C([H])([H])N([H])C(=O)N2C([H])([H])C([H])([H])C([H])([H])C([H])(n3nc(-c4c([H])c([H])c(Oc5c([H])c([H])c(F)c([H])c5F)c([H])c4[H])c(C(=O)N([H])[H])c3N([H])[H])C2([H])[H])c([H])c1C([H])([H])[H]

$$$$
51:0:0
     RDKit          3D

 94103  0  0  1  0  0  0  0  0999 V2000
  -29.0700  -21.7370   21.5650 C   0  0  0  0  0  3  0  0  0  0  0  0
  -29.2260  -21.3510   20.2790 C   0  0  0  0  0  0  0  0  0  0  0  0
  -28.2660  -22.9540   22.0750 C   0  0  0  0  0  2  0  0  0  0  0  0
  -28.5750  -22.3140   19.2230 C   0  0  0  0  0  2  0  0  0  0  0  0
  -28.6890  -24.4030   21.6500 C   0  0  0  0  0  2  0  0  0  0  0  0
  -28.8970  -23.8950   19.2230 C   0  0  0  0  0  2  0  0  0  0  0  0
  -28.1960  -24.8750   20.2550 C   0  0  0  0  0  3  0  0  0  0  0  0
  -31.5190  -17.7200   19.1100 C   0  0  0  0  0  3  0  0  0  0  0  0
  -31.8640  -19.0260   18.7280 C   0  0  0  0  0  3  0  0  0  0  0  0
  -29.9490  -20.0050   19.9210 C   0  0  0  0  0  0  0  0  0  0  0  0
  -29.6110  -18.6240   20.3230 C   0  0  0  0  0  0  0  0  0  0  0  0
  -30.4070  -17.4460   19.9400 C   0  0  0  0  0  0  0  0  0  0  0  0
  -31.1170  -20.1460   19.1290 C   0  0  0  0  0  0  0  0  0  0  0  0
  -28.3750  -18.3900   21.1750 C   0  0  0  0  0  1  0  0  0  0  0  0
  -31.7210  -21.6940   18.6420 Cl  0  0  0  0  0  0  0  0  0  0  0  0
  -30.8400  -14.8350   20.0200 C   0  0  0  0  0  0  0  0  0  0  0  0
  -30.5580  -12.5920   18.9520 C   0  0  0  0  0  2  0  0  0  0  0  0
  -29.5790  -12.7210   17.7650 C   0  0  0  0  0  2  0  0  0  0  0  0
  -28.1270  -12.5450   18.2440 C   0  0  0  0  0  2  0  0  0  0  0  0
  -27.8090  -13.3890   19.5080 C   0  0  0  0  0  3  0  0  0  0  0  0
  -28.9090  -13.2620   20.5850 C   0  0  0  0  0  2  0  0  0  0  0  0
  -30.1810  -13.6240   19.9510 N   0  0  0  0  0  0  0  0  0  0  0  0
  -32.0270  -14.8690   19.6860 O   0  0  0  0  0  0  0  0  0  0  0  0
  -30.1200  -16.0080   20.2850 N   0  0  0  0  0  0  0  0  0  0  0  0
  -29.2050  -15.8380   20.6750 H   0  0  0  0  0  0  0  0  0  0  0  0
  -25.4440  -13.9600   20.3110 C   0  0  0  0  0  0  0  0  0  0  0  0
  -24.3950  -13.1790   20.7130 C   0  0  0  0  0  0  0  0  0  0  0  0
  -24.8650  -11.8310   20.6680 C   0  0  0  0  0  0  0  0  0  0  0  0
  -26.4840  -13.0880   20.0420 N   0  0  0  0  0  0  0  0  0  0  0  0
  -26.1470  -11.8020   20.3220 N   0  0  0  0  0  0  0  0  0  0  0  0
  -24.1530  -10.5640   20.8780 C   0  0  0  0  0  0  0  0  0  0  0  0
  -24.5680   -9.6350   21.8580 C   0  0  0  0  0  3  0  0  0  0  0  0
  -23.8530   -8.4340   22.0550 C   0  0  0  0  0  3  0  0  0  0  0  0
  -22.7080   -8.1520   21.2710 C   0  0  0  0  0  0  0  0  0  0  0  0
  -22.3130   -9.0700   20.2810 C   0  0  0  0  0  3  0  0  0  0  0  0
  -23.0290  -10.2630   20.0840 C   0  0  0  0  0  3  0  0  0  0  0  0
  -21.9670   -7.0000   21.3740 O   0  0  0  0  0  0  0  0  0  0  0  0
  -21.8240   -6.3420   22.5690 C   0  0  0  0  0  0  0  0  0  0  0  0
  -21.2520   -6.9650   23.6990 C   0  0  0  0  0  3  0  0  0  0  0  0
  -21.0600   -6.2300   24.8860 C   0  0  0  0  0  3  0  0  0  0  0  0
  -21.4270   -4.8730   24.9430 C   0  0  0  0  0  0  0  0  0  0  0  0
  -21.9910   -4.2490   23.8160 C   0  0  0  0  0  3  0  0  0  0  0  0
  -22.1850   -4.9800   22.6310 C   0  0  0  0  0  0  0  0  0  0  0  0
  -22.7090   -4.3690   21.5420 F   0  0  0  0  0  0  0  0  0  0  0  0
  -21.2350   -4.1640   26.0800 F   0  0  0  0  0  0  0  0  0  0  0  0
  -23.0030  -13.6480   21.0240 C   0  0  0  0  0  0  0  0  0  0  0  0
  -22.3060  -12.9510   21.9140 N   0  0  0  0  0  0  0  0  0  0  0  0
  -22.5440  -14.6690   20.5120 O   0  0  0  0  0  0  0  0  0  0  0  0
  -22.6920  -12.1250   22.3480 H   0  0  0  0  0  0  0  0  0  0  0  0
  -21.3740  -13.2470   22.1650 H   0  0  0  0  0  0  0  0  0  0  0  0
  -25.5930  -15.3320   20.1250 N   0  0  0  0  0  0  0  0  0  0  0  0
  -24.8170  -15.9740   20.2420 H   0  0  0  0  0  0  0  0  0  0  0  0
  -26.4090  -15.7680   19.7170 H   0  0  0  0  0  0  0  0  0  0  0  0
  -28.3950  -26.3720   20.0770 O   0  0  0  0  0  0  0  0  0  0  0  0
  -24.6290  -31.7960   23.1420 C   0  0  0  0  0  0  0  0  0  0  0  0
  -27.2910  -27.2600   20.0400 C   0  0  0  0  0  0  0  0  0  0  0  0
  -23.4530  -30.4210   21.4640 C   0  0  0  0  0  3  0  0  0  0  0  0
  -24.9290  -28.9040   20.0200 C   0  0  0  0  0  0  0  0  0  0  0  0
  -25.9960  -30.7470   21.3140 C   0  0  0  0  0  2  0  0  0  0  0  0
  -26.0920  -29.3760   20.6430 C   0  0  0  0  0  0  0  0  0  0  0  0
  -27.2770  -28.5690   20.6380 C   0  0  0  0  0  3  0  0  0  0  0  0
  -26.1100  -26.8660   19.3760 C   0  0  0  0  0  3  0  0  0  0  0  0
  -24.9460  -27.6580   19.3720 C   0  0  0  0  0  3  0  0  0  0  0  0
  -23.6870  -29.7730   20.0730 C   0  0  0  0  0  2  0  0  0  0  0  0
  -24.7110  -31.0060   22.0300 N   0  0  0  0  0  0  0  0  0  0  0  0
  -23.5370  -32.0530   23.6710 O   0  0  0  0  0  0  0  0  0  0  0  0
  -22.7880  -29.3810   22.3990 C   0  0  0  0  0  0  0  0  0  0  0  0
  -21.4630  -29.1960   22.2560 N   0  0  0  0  0  0  0  0  0  0  0  0
  -23.4620  -28.7460   23.2140 O   0  0  0  0  0  0  0  0  0  0  0  0
  -20.9770  -29.7600   21.5740 H   0  0  0  0  0  0  0  0  0  0  0  0
  -18.0900  -27.9710   22.7170 C   0  0  0  0  0  0  0  0  0  0  0  0
  -20.6460  -28.2350   23.0020 C   0  0  0  0  0  3  0  0  0  0  0  0
  -20.7560  -26.8190   22.3910 C   0  0  0  0  0  2  0  0  0  0  0  0
  -19.6590  -26.5170   21.3660 C   0  0  0  0  0  2  0  0  0  0  0  0
  -18.2750  -26.6400   22.0090 C   0  0  0  0  0  2  0  0  0  0  0  0
  -19.2030  -28.7280   23.1700 C   0  0  0  0  0  0  0  0  0  0  0  0
  -18.9760  -29.9740   23.7920 C   0  0  0  0  0  3  0  0  0  0  0  0
  -17.6680  -30.4640   23.9670 C   0  0  0  0  0  3  0  0  0  0  0  0
  -16.5690  -29.7050   23.5310 C   0  0  0  0  0  3  0  0  0  0  0  0
  -16.7800  -28.4590   22.9120 C   0  0  0  0  0  3  0  0  0  0  0  0
  -25.8990  -32.4290   23.7910 C   0  0  0  0  0  3  0  0  0  0  0  0
  -25.5700  -33.8150   24.1530 N   0  0  0  0  0  0  0  0  0  0  0  0
  -25.9010  -34.8920   23.4270 C   0  0  0  0  0  0  0  0  0  0  0  0
  -26.5830  -34.8230   22.4020 O   0  0  0  0  0  0  0  0  0  0  0  0
  -24.9660  -33.9420   24.9500 H   0  0  0  0  0  0  0  0  0  0  0  0
  -24.1710  -36.6880   23.0890 C   0  0  0  0  0  1  0  0  0  0  0  0
  -25.3950  -36.2630   23.9170 C   0  0  0  0  0  3  0  0  0  0  0  0
  -27.5010  -37.1320   24.8320 C   0  0  0  0  0  1  0  0  0  0  0  0
  -26.4230  -37.3250   23.8660 N   0  0  0  0  0  0  0  0  0  0  0  0
  -26.0060  -38.2360   24.0360 H   0  0  0  0  0  0  0  0  0  0  0  0
  -26.4110  -31.6350   25.0540 C   0  0  1  0  0  0  0  0  0  0  0  0
  -25.3100  -31.3570   26.1040 C   0  0  0  0  0  1  0  0  0  0  0  0
  -27.0170  -30.2740   24.6370 C   0  0  0  0  0  1  0  0  0  0  0  0
  -27.5450  -32.4270   25.7470 C   0  0  0  0  0  1  0  0  0  0  0  0
  1  3  1  0
  2  1  2  0
  4  6  1  0
  4  2  1  0
  5  3  1  0
  6  7  1  0
  7 54  1  0
  7  5  1  0
  8 12  1  0
  9  8  2  0
  9 13  1  0
 10  2  1  0
 10 11  1  0
 11 14  1  0
 12 24  1  0
 12 11  2  0
 13 10  2  0
 15 13  1  0
 16 24  1  0
 17 22  1  0
 18 19  1  0
 18 17  1  0
 20 19  1  0
 20 29  1  0
 20 21  1  0
 22 16  1  0
 22 21  1  0
 23 16  2  0
 24 25  1  0
 26 27  2  0
 27 46  1  0
 28 27  1  0
 28 31  1  0
 29 26  1  0
 29 30  1  0
 30 28  2  0
 31 32  1  0
 32 33  2  0
 34 37  1  0
 34 33  1  0
 35 34  2  0
 36 35  1  0
 36 31  2  0
 37 38  1  0
 38 43  2  0
 38 39  1  0
 39 40  2  0
 40 41  1  0
 41 45  1  0
 42 41  2  0
 43 42  1  0
 44 43  1  0
 46 47  1  0
 47 50  1  0
 47 49  1  0
 48 46  2  0
 51 52  1  0
 51 26  1  0
 53 51  1  0
 55 66  2  0
 56 54  1  0
 56 61  1  0
 57 65  1  0
 57 67  1  0
 58 64  1  0
 58 60  1  0
 59 65  1  0
 60 59  1  0
 61 60  2  0
 62 56  2  0
 63 62  1  0
 63 58  2  0
 64 57  1  0
 65 55  1  0
 67 69  2  0
 68 67  1  0
 70 68  1  0
 71 80  2  0
 71 76  1  0
 72 68  1  0
 72 76  1  0
 73 72  1  0
 74 75  1  0
 74 73  1  0
 75 71  1  0
 76 77  2  0
 77 78  1  0
 79 78  2  0
 80 79  1  0
 81 55  1  0
 81 82  1  0
 81 91  1  0
 82 85  1  0
 83 87  1  0
 83 82  1  0
 84 83  2  0
 87 86  1  0
 89 87  1  0
 89 90  1  0
 89 88  1  0
 91 94  1  1
 91 92  1  0
 93 91  1  0
M  ISO  4   7 101  16 100  24 100  54 101
M  END
>  <TORSDO>  (52) 
F 17

>  <SCORE>  (52) 
-14.131

>  <name>  (52) 
51

>  <ligand_id>  (52) 
51

>  <original_smiles>  (52) 
[H]C1=C(c2c(Cl)c([H])c([H])c(N([H])C(=O)N3C([H])([H])C([H])([H])C([H])([H])C([H])(n4nc(-c5c([H])c([H])c(Oc6c([H])c([H])c(F)c([H])c6F)c([H])c5[H])c(C(=O)N([H])[H])c4N([H])[H])C3([H])[H])c2C([H])([H])[H])C([H])([H])C([H])([H])C([H])(Oc2c([H])c([H])c3c(c2[H])C([H])([H])N(C(=O)C([H])(N([H])C(=O)C([H])(N([H])C([H])([H])[H])C([H])([H])[H])C(C([H])([H])[H])(C([H])([H])[H])C([H])([H])[H])C([H])(C(=O)N([H])C2([H])c4c([H])c([H])c([H])c([H])c4C([H])([H])C([H])([H])C2([H])[H])C3([H])[H])C([H])([H])C1([H])[H]

>  <smiles>  (52) 
[H]C1=C(c2c(Cl)c([H])c([H])c(N([H])C(=O)N3C([H])([H])C([H])([H])C([H])([H])C([H])(n4nc(-c5c([H])c([H])c(Oc6c([H])c([H])c(F)c([H])c6F)c([H])c5[H])c(C(=O)N([H])[H])c4N([H])[H])C3([H])[H])c2C([H])([H])[H])C([H])([H])C([H])([H])C([H])(Oc2c([H])c([H])c3c(c2[H])C([H])([H])N(C(=O)C([H])(N([H])C(=O)C([H])(N([H])C([H])([H])[H])C([H])([H])[H])C(C([H])([H])[H])(C([H])([H])[H])C([H])([H])[H])C([H])(C(=O)N([H])C2([H])c4c([H])c([H])c([H])c([H])c4C([H])([H])C([H])([H])C2([H])[H])C3([H])[H])C([H])([H])C1([H])[H]

$$$$
52:0:0
     RDKit          3D

 97106  0  0  1  0  0  0  0  0999 V2000
  -27.0470  -23.4660   20.7880 C   0  0  0  0  0  0  0  0  0  0  0  0
  -27.2400  -24.7770   21.0720 C   0  0  0  0  0  3  0  0  0  0  0  0
  -25.6660  -22.8530   20.6460 C   0  0  0  0  0  2  0  0  0  0  0  0
  -25.7890  -21.7050   19.6330 C   0  0  0  0  0  2  0  0  0  0  0  0
  -27.2770  -21.6330   19.2850 C   0  0  0  0  0  2  0  0  0  0  0  0
  -27.9480  -22.3310   20.3950 N   0  0  1  0  0  4  0  0  0  0  0  0
  -27.8590  -21.6680   21.1490 H   0  0  0  0  0  0  0  0  0  0  0  0
  -29.4230  -22.4200   20.2960 C   0  0  0  0  0  2  0  0  0  0  0  0
  -30.9630  -18.9580   19.3800 C   0  0  0  0  0  3  0  0  0  0  0  0
  -30.2220  -20.4160   21.6480 C   0  0  0  0  0  3  0  0  0  0  0  0
  -30.4120  -20.2550   19.2280 C   0  0  0  0  0  0  0  0  0  0  0  0
  -30.7510  -19.1140   21.7950 C   0  0  0  0  0  0  0  0  0  0  0  0
  -31.1530  -18.3780   20.6530 C   0  0  0  0  0  0  0  0  0  0  0  0
  -30.0440  -21.0080   20.3760 C   0  0  0  0  0  0  0  0  0  0  0  0
  -30.2500  -20.8190   17.8250 C   0  0  0  0  0  1  0  0  0  0  0  0
  -30.8950  -18.5380   23.1950 C   0  0  0  0  0  1  0  0  0  0  0  0
  -31.8860  -17.0320   20.7700 C   0  0  0  0  0  2  0  0  0  0  0  0
  -31.5780  -14.7550   19.8030 C   0  0  0  0  0  0  0  0  0  0  0  0
  -31.1410  -12.4700   18.9700 C   0  0  0  0  0  2  0  0  0  0  0  0
  -30.1810  -12.5030   17.7670 C   0  0  0  0  0  2  0  0  0  0  0  0
  -28.7180  -12.4680   18.2440 C   0  0  0  0  0  2  0  0  0  0  0  0
  -28.4290  -13.5090   19.3580 C   0  0  0  0  0  3  0  0  0  0  0  0
  -29.5040  -13.4590   20.4670 C   0  0  0  0  0  2  0  0  0  0  0  0
  -30.8240  -13.6200   19.8350 N   0  0  0  0  0  0  0  0  0  0  0  0
  -32.6430  -14.8220   19.1850 O   0  0  0  0  0  0  0  0  0  0  0  0
  -31.1060  -15.8200   20.4740 N   0  0  0  0  0  0  0  0  0  0  0  0
  -30.2130  -15.7200   20.9310 H   0  0  0  0  0  0  0  0  0  0  0  0
  -26.1270  -14.3120   20.1830 C   0  0  0  0  0  0  0  0  0  0  0  0
  -25.0140  -13.6310   20.5970 C   0  0  0  0  0  0  0  0  0  0  0  0
  -25.3560  -12.2440   20.5390 C   0  0  0  0  0  0  0  0  0  0  0  0
  -27.0810  -13.3470   19.9000 N   0  0  0  0  0  0  0  0  0  0  0  0
  -26.6220  -12.0980   20.1710 N   0  0  0  0  0  0  0  0  0  0  0  0
  -24.5330  -11.0480   20.7560 C   0  0  0  0  0  0  0  0  0  0  0  0
  -24.8840  -10.0740   21.7180 C   0  0  0  0  0  3  0  0  0  0  0  0
  -24.0670   -8.9420   21.9220 C   0  0  0  0  0  3  0  0  0  0  0  0
  -22.8830   -8.7760   21.1650 C   0  0  0  0  0  0  0  0  0  0  0  0
  -22.5490   -9.7360   20.1940 C   0  0  0  0  0  3  0  0  0  0  0  0
  -23.3670  -10.8590   19.9870 C   0  0  0  0  0  3  0  0  0  0  0  0
  -22.0400   -7.6950   21.2770 O   0  0  0  0  0  0  0  0  0  0  0  0
  -21.8730   -7.0340   22.4670 C   0  0  0  0  0  0  0  0  0  0  0  0
  -21.4300   -7.6970   23.6330 C   0  0  0  0  0  3  0  0  0  0  0  0
  -21.2060   -6.9650   24.8170 C   0  0  0  0  0  3  0  0  0  0  0  0
  -21.4120   -5.5720   24.8340 C   0  0  0  0  0  0  0  0  0  0  0  0
  -21.8470   -4.9110   23.6730 C   0  0  0  0  0  3  0  0  0  0  0  0
  -22.0740   -5.6390   22.4920 C   0  0  0  0  0  0  0  0  0  0  0  0
  -22.4720   -4.9930   21.3700 F   0  0  0  0  0  0  0  0  0  0  0  0
  -21.1880   -4.8690   25.9680 F   0  0  0  0  0  0  0  0  0  0  0  0
  -23.6780  -14.2240   20.9390 C   0  0  0  0  0  0  0  0  0  0  0  0
  -22.9420  -13.5940   21.8480 N   0  0  0  0  0  0  0  0  0  0  0  0
  -23.2990  -15.2800   20.4350 O   0  0  0  0  0  0  0  0  0  0  0  0
  -23.2620  -12.7380   22.2770 H   0  0  0  0  0  0  0  0  0  0  0  0
  -22.0450  -13.9720   22.1180 H   0  0  0  0  0  0  0  0  0  0  0  0
  -26.4020  -15.6650   20.0040 N   0  0  0  0  0  0  0  0  0  0  0  0
  -25.7030  -16.3850   20.1570 H   0  0  0  0  0  0  0  0  0  0  0  0
  -27.2790  -16.0310   19.6570 H   0  0  0  0  0  0  0  0  0  0  0  0
  -28.4500  -25.7210   21.0720 C   0  0  0  0  0  2  0  0  0  0  0  0
  -28.3890  -26.7960   20.0910 O   0  0  0  0  0  0  0  0  0  0  0  0
  -24.6300  -31.9860   23.2490 C   0  0  0  0  0  0  0  0  0  0  0  0
  -27.2580  -27.5880   20.0930 C   0  0  0  0  0  0  0  0  0  0  0  0
  -23.4110  -30.5840   21.6160 C   0  0  0  0  0  3  0  0  0  0  0  0
  -24.8590  -29.0860   20.1420 C   0  0  0  0  0  0  0  0  0  0  0  0
  -25.9310  -30.9680   21.3850 C   0  0  0  0  0  2  0  0  0  0  0  0
  -26.0210  -29.6050   20.7300 C   0  0  0  0  0  0  0  0  0  0  0  0
  -27.2240  -28.8590   20.7140 C   0  0  0  0  0  3  0  0  0  0  0  0
  -26.0980  -27.1210   19.4410 C   0  0  0  0  0  3  0  0  0  0  0  0
  -24.8930  -27.8420   19.4930 C   0  0  0  0  0  3  0  0  0  0  0  0
  -23.6050  -29.9240   20.2250 C   0  0  0  0  0  2  0  0  0  0  0  0
  -24.6760  -31.1940   22.1400 N   0  0  0  0  0  0  0  0  0  0  0  0
  -23.5550  -32.2430   23.8100 O   0  0  0  0  0  0  0  0  0  0  0  0
  -22.7920  -29.5440   22.5780 C   0  0  0  0  0  0  0  0  0  0  0  0
  -21.4710  -29.3320   22.4620 N   0  0  0  0  0  0  0  0  0  0  0  0
  -23.4950  -28.9320   23.3860 O   0  0  0  0  0  0  0  0  0  0  0  0
  -20.9650  -29.8800   21.7800 H   0  0  0  0  0  0  0  0  0  0  0  0
  -18.1350  -28.0290   22.9420 C   0  0  0  0  0  0  0  0  0  0  0  0
  -20.6800  -28.3760   23.2350 C   0  0  0  0  0  3  0  0  0  0  0  0
  -20.8370  -26.9430   22.6740 C   0  0  0  0  0  2  0  0  0  0  0  0
  -19.7560  -26.5730   21.6540 C   0  0  0  0  0  2  0  0  0  0  0  0
  -18.3630  -26.6790   22.2830 C   0  0  0  0  0  2  0  0  0  0  0  0
  -19.2230  -28.8330   23.3750 C   0  0  0  0  0  0  0  0  0  0  0  0
  -18.9580  -30.0940   23.9490 C   0  0  0  0  0  3  0  0  0  0  0  0
  -17.6360  -30.5550   24.0970 C   0  0  0  0  0  3  0  0  0  0  0  0
  -16.5620  -29.7480   23.6840 C   0  0  0  0  0  3  0  0  0  0  0  0
  -16.8130  -28.4880   23.1110 C   0  0  0  0  0  3  0  0  0  0  0  0
  -25.9200  -32.6260   23.8480 C   0  0  0  0  0  3  0  0  0  0  0  0
  -26.4700  -31.8520   25.1100 C   0  0  1  0  0  0  0  0  0  0  0  0
  -25.3990  -31.6010   26.1970 C   0  0  0  0  0  1  0  0  0  0  0  0
  -27.0560  -30.4810   24.6980 C   0  0  0  0  0  1  0  0  0  0  0  0
  -27.6260  -32.6550   25.7530 C   0  0  0  0  0  1  0  0  0  0  0  0
  -25.6070  -34.0190   24.1880 N   0  0  0  0  0  0  0  0  0  0  0  0
  -25.9350  -35.0780   23.4360 C   0  0  0  0  0  0  0  0  0  0  0  0
  -26.6060  -34.9850   22.4040 O   0  0  0  0  0  0  0  0  0  0  0  0
  -25.0140  -34.1670   24.9910 H   0  0  0  0  0  0  0  0  0  0  0  0
  -24.1980  -36.8630   23.0880 C   0  0  0  0  0  1  0  0  0  0  0  0
  -25.4370  -36.4590   23.9020 C   0  0  0  0  0  3  0  0  0  0  0  0
  -27.5690  -37.3440   24.7420 C   0  0  0  0  0  1  0  0  0  0  0  0
  -26.4630  -37.5190   23.8020 N   0  0  0  0  0  0  0  0  0  0  0  0
  -26.0520  -38.4350   23.9630 H   0  0  0  0  0  0  0  0  0  0  0  0
  1  2  2  0
  2 56  1  0
  3  1  1  0
  4  3  1  0
  5  4  1  0
  5  6  1  0
  6  1  1  0
  6  7  1  1
  8 14  1  0
  8  6  1  0
  9 13  1  0
 10 12  1  0
 11  9  2  0
 11 14  1  0
 12 16  1  0
 13 17  1  0
 13 12  2  0
 14 10  2  0
 15 11  1  0
 18 24  1  0
 18 26  1  0
 19 24  1  0
 20 21  1  0
 20 19  1  0
 22 21  1  0
 22 31  1  0
 22 23  1  0
 24 23  1  0
 25 18  2  0
 26 17  1  0
 26 27  1  0
 28 29  2  0
 29 48  1  0
 30 29  1  0
 30 33  1  0
 31 32  1  0
 31 28  1  0
 32 30  2  0
 33 34  1  0
 34 35  2  0
 36 39  1  0
 36 35  1  0
 37 36  2  0
 38 37  1  0
 38 33  2  0
 39 40  1  0
 40 45  2  0
 40 41  1  0
 41 42  2  0
 42 43  1  0
 43 47  1  0
 44 43  2  0
 45 44  1  0
 46 45  1  0
 48 49  1  0
 49 52  1  0
 49 51  1  0
 50 48  2  0
 53 54  1  0
 53 28  1  0
 55 53  1  0
 57 59  1  0
 57 56  1  0
 58 69  2  0
 59 64  1  0
 60 68  1  0
 60 70  1  0
 61 67  1  0
 61 63  1  0
 62 68  1  0
 63 62  1  0
 64 63  2  0
 65 66  1  0
 65 59  2  0
 66 61  2  0
 67 60  1  0
 68 58  1  0
 70 72  2  0
 71 70  1  0
 73 71  1  0
 74 83  2  0
 74 79  1  0
 75 71  1  0
 75 79  1  0
 76 75  1  0
 77 78  1  0
 77 76  1  0
 78 74  1  0
 79 80  2  0
 80 81  1  0
 82 81  2  0
 83 82  1  0
 84 58  1  0
 84 89  1  0
 84 85  1  0
 85 88  1  1
 85 86  1  0
 87 85  1  0
 89 92  1  0
 90 94  1  0
 90 89  1  0
 91 90  2  0
 94 93  1  0
 96 94  1  0
 96 97  1  0
 96 95  1  0
M  ISO  4  18 100  26 100  56 101  57 101
M  END
>  <TORSDO>  (53) 
F 20

>  <SCORE>  (53) 
-11.923

>  <name>  (53) 
52

>  <ligand_id>  (53) 
52

>  <original_smiles>  (53) 
[H]C(=C1C([H])([H])C([H])([H])C([H])([H])[N+]1([H])C([H])([H])c1c([H])c(C([H])([H])[H])c(C([H])([H])N([H])C(=O)N2C([H])([H])C([H])([H])C([H])([H])C([H])(n3nc(-c4c([H])c([H])c(Oc5c([H])c([H])c(F)c([H])c5F)c([H])c4[H])c(C(=O)N([H])[H])c3N([H])[H])C2([H])[H])c([H])c1C([H])([H])[H])C([H])([H])Oc1c([H])c([H])c2c(c1[H])C([H])([H])N(C(=O)C([H])(N([H])C(=O)C([H])(N([H])C([H])([H])[H])C([H])([H])[H])C(C([H])([H])[H])(C([H])([H])[H])C([H])([H])[H])C([H])(C(=O)N([H])C1([H])c3c([H])c([H])c([H])c([H])c3C([H])([H])C([H])([H])C1([H])[H])C2([H])[H]

>  <smiles>  (53) 
[H]C(=C1C([H])([H])C([H])([H])C([H])([H])[N+]1([H])C([H])([H])c1c([H])c(C([H])([H])[H])c(C([H])([H])N([H])C(=O)N2C([H])([H])C([H])([H])C([H])([H])C([H])(n3nc(-c4c([H])c([H])c(Oc5c([H])c([H])c(F)c([H])c5F)c([H])c4[H])c(C(=O)N([H])[H])c3N([H])[H])C2([H])[H])c([H])c1C([H])([H])[H])C([H])([H])Oc1c([H])c([H])c2c(c1[H])C([H])([H])N(C(=O)C([H])(N([H])C(=O)C([H])(N([H])C([H])([H])[H])C([H])([H])[H])C(C([H])([H])[H])(C([H])([H])[H])C([H])([H])[H])C([H])(C(=O)N([H])C1([H])c3c([H])c([H])c([H])c([H])c3C([H])([H])C([H])([H])C1([H])[H])C2([H])[H]

$$$$
53:0:0
     RDKit          3D

100109  0  0  1  0  0  0  0  0999 V2000
  -30.2640  -17.3390   18.3910 C   0  0  0  0  0  3  0  0  0  0  0  0
  -29.5290  -19.9270   19.4490 C   0  0  0  0  0  0  0  0  0  0  0  0
  -29.7000  -19.7180   18.0380 C   0  0  0  0  0  0  0  0  0  0  0  0
  -29.7020  -18.7370   20.3030 C   0  0  0  0  0  0  0  0  0  0  0  0
  -30.0390  -17.4120   19.7770 C   0  0  0  0  0  0  0  0  0  0  0  0
  -30.0930  -18.4450   17.5470 C   0  0  0  0  0  0  0  0  0  0  0  0
  -30.2440  -18.2350   16.2160 F   0  0  0  0  0  0  0  0  0  0  0  0
  -30.8590  -15.0000   20.3360 C   0  0  0  0  0  0  0  0  0  0  0  0
  -30.7500  -12.6520   19.5250 C   0  0  0  0  0  2  0  0  0  0  0  0
  -29.8560  -12.6280   18.2660 C   0  0  0  0  0  2  0  0  0  0  0  0
  -28.3800  -12.4360   18.6600 C   0  0  0  0  0  2  0  0  0  0  0  0
  -27.9400  -13.3900   19.8040 C   0  0  0  0  0  3  0  0  0  0  0  0
  -28.9620  -13.4320   20.9610 C   0  0  0  0  0  2  0  0  0  0  0  0
  -30.2740  -13.7550   20.3900 N   0  0  0  0  0  0  0  0  0  0  0  0
  -32.0370  -15.1130   19.9840 O   0  0  0  0  0  0  0  0  0  0  0  0
  -30.0620  -16.1230   20.5310 N   0  0  0  0  0  0  0  0  0  0  0  0
  -29.2100  -15.9120   21.0280 H   0  0  0  0  0  0  0  0  0  0  0  0
  -25.5640  -13.9740   20.5680 C   0  0  0  0  0  0  0  0  0  0  0  0
  -24.4900  -13.1980   20.9070 C   0  0  0  0  0  0  0  0  0  0  0  0
  -24.9350  -11.8450   20.8110 C   0  0  0  0  0  0  0  0  0  0  0  0
  -26.5940  -13.0930   20.2830 N   0  0  0  0  0  0  0  0  0  0  0  0
  -26.2240  -11.8050   20.4920 N   0  0  0  0  0  0  0  0  0  0  0  0
  -24.1930  -10.5850   20.9430 C   0  0  0  0  0  0  0  0  0  0  0  0
  -24.5840   -9.5910   21.8670 C   0  0  0  0  0  3  0  0  0  0  0  0
  -23.8430   -8.3960   21.9910 C   0  0  0  0  0  3  0  0  0  0  0  0
  -22.6960   -8.1860   21.1880 C   0  0  0  0  0  0  0  0  0  0  0  0
  -22.3250   -9.1670   20.2520 C   0  0  0  0  0  3  0  0  0  0  0  0
  -23.0660  -10.3540   20.1270 C   0  0  0  0  0  3  0  0  0  0  0  0
  -21.9290   -7.0450   21.2210 O   0  0  0  0  0  0  0  0  0  0  0  0
  -21.7720   -6.3160   22.3720 C   0  0  0  0  0  0  0  0  0  0  0  0
  -21.2370   -6.8840   23.5490 C   0  0  0  0  0  3  0  0  0  0  0  0
  -21.0300   -6.0810   24.6880 C   0  0  0  0  0  3  0  0  0  0  0  0
  -21.3440   -4.7080   24.6490 C   0  0  0  0  0  0  0  0  0  0  0  0
  -21.8730   -4.1400   23.4760 C   0  0  0  0  0  3  0  0  0  0  0  0
  -22.0830   -4.9420   22.3400 C   0  0  0  0  0  0  0  0  0  0  0  0
  -22.5700   -4.3850   21.2060 F   0  0  0  0  0  0  0  0  0  0  0  0
  -21.1400   -3.9330   25.7380 F   0  0  0  0  0  0  0  0  0  0  0  0
  -23.1010  -13.6810   21.2040 C   0  0  0  0  0  0  0  0  0  0  0  0
  -22.3660  -12.9560   22.0410 N   0  0  0  0  0  0  0  0  0  0  0  0
  -22.6760  -14.7330   20.7300 O   0  0  0  0  0  0  0  0  0  0  0  0
  -22.7230  -12.1050   22.4470 H   0  0  0  0  0  0  0  0  0  0  0  0
  -21.4290  -13.2540   22.2720 H   0  0  0  0  0  0  0  0  0  0  0  0
  -25.7480  -15.3500   20.4550 N   0  0  0  0  0  0  0  0  0  0  0  0
  -24.9800  -16.0030   20.5610 H   0  0  0  0  0  0  0  0  0  0  0  0
  -26.5910  -15.7870   20.1100 H   0  0  0  0  0  0  0  0  0  0  0  0
  -29.4090  -20.7540   17.0050 C   0  0  0  0  0  0  0  0  0  0  0  0
  -27.9470  -21.0740   16.7880 C   0  0  0  0  0  1  0  0  0  0  0  0
  -30.6030  -21.5070   16.1020 S   0  0  0  0  0  0  0  0  0  0  0  0
  -29.1370  -21.3440   19.9810 C   0  0  0  0  0  3  0  0  0  0  0  0
  -29.4460  -22.6220   19.5320 C   0  0  0  0  0  3  0  0  0  0  0  0
  -28.9810  -24.0470   20.0600 C   0  0  0  0  0  3  0  0  0  0  0  0
  -28.7920  -25.2590   19.0130 C   0  0  0  0  0  3  0  0  0  0  0  0
  -28.6680  -26.6790   19.4770 O   0  0  0  0  0  0  0  0  0  0  0  0
  -24.6410  -31.5750   22.9630 C   0  0  0  0  0  0  0  0  0  0  0  0
  -27.4660  -27.4160   19.5100 C   0  0  0  0  0  0  0  0  0  0  0  0
  -23.4810  -30.1880   21.2850 C   0  0  0  0  0  3  0  0  0  0  0  0
  -24.9800  -28.8460   19.7040 C   0  0  0  0  0  0  0  0  0  0  0  0
  -25.9810  -30.7100   21.0280 C   0  0  0  0  0  2  0  0  0  0  0  0
  -26.1350  -29.3860   20.2830 C   0  0  0  0  0  0  0  0  0  0  0  0
  -27.3750  -28.6810   20.1780 C   0  0  0  0  0  3  0  0  0  0  0  0
  -26.2740  -26.9260   18.9250 C   0  0  0  0  0  3  0  0  0  0  0  0
  -25.0530  -27.6240   19.0180 C   0  0  0  0  0  3  0  0  0  0  0  0
  -23.6840  -29.6200   19.8560 C   0  0  0  0  0  2  0  0  0  0  0  0
  -24.7230  -30.8390   21.8160 N   0  0  0  0  0  0  0  0  0  0  0  0
  -23.5630  -31.7300   23.5560 O   0  0  0  0  0  0  0  0  0  0  0  0
  -22.9380  -29.0660   22.2020 C   0  0  0  0  0  0  0  0  0  0  0  0
  -21.6260  -28.7870   22.1070 N   0  0  0  0  0  0  0  0  0  0  0  0
  -23.6940  -28.4500   22.9570 O   0  0  0  0  0  0  0  0  0  0  0  0
  -21.0660  -29.3350   21.4690 H   0  0  0  0  0  0  0  0  0  0  0  0
  -18.3850  -27.2700   22.6300 C   0  0  0  0  0  0  0  0  0  0  0  0
  -20.9170  -27.7410   22.8470 C   0  0  0  0  0  3  0  0  0  0  0  0
  -21.1300  -26.3570   22.1910 C   0  0  0  0  0  2  0  0  0  0  0  0
  -20.0300  -25.9910   21.1910 C   0  0  0  0  0  2  0  0  0  0  0  0
  -18.6600  -25.9810   21.8750 C   0  0  0  0  0  2  0  0  0  0  0  0
  -19.4450  -28.1040   23.0720 C   0  0  0  0  0  0  0  0  0  0  0  0
  -19.1360  -29.3090   23.7380 C   0  0  0  0  0  3  0  0  0  0  0  0
  -17.7970  -29.6820   23.9690 C   0  0  0  0  0  3  0  0  0  0  0  0
  -16.7510  -28.8450   23.5420 C   0  0  0  0  0  3  0  0  0  0  0  0
  -17.0460  -27.6410   22.8770 C   0  0  0  0  0  3  0  0  0  0  0  0
  -25.8950  -32.2710   23.5740 C   0  0  0  0  0  3  0  0  0  0  0  0
  -25.4870  -33.6120   24.0210 N   0  0  0  0  0  0  0  0  0  0  0  0
  -25.7170  -34.7450   23.3440 C   0  0  0  0  0  0  0  0  0  0  0  0
  -26.3650  -34.7740   22.2940 O   0  0  0  0  0  0  0  0  0  0  0  0
  -24.9090  -33.6580   24.8470 H   0  0  0  0  0  0  0  0  0  0  0  0
  -23.8570  -36.4260   23.1580 C   0  0  0  0  0  1  0  0  0  0  0  0
  -25.1370  -36.0530   23.9210 C   0  0  0  0  0  3  0  0  0  0  0  0
  -27.2120  -37.0210   24.8010 C   0  0  0  0  0  1  0  0  0  0  0  0
  -26.0870  -37.1850   23.8860 N   0  0  0  0  0  0  0  0  0  0  0  0
  -25.6160  -38.0570   24.1150 H   0  0  0  0  0  0  0  0  0  0  0  0
  -26.5300  -31.4630   24.7700 C   0  0  1  0  0  0  0  0  0  0  0  0
  -25.5100  -31.0690   25.8640 C   0  0  0  0  0  1  0  0  0  0  0  0
  -27.1990  -30.1650   24.2590 C   0  0  0  0  0  1  0  0  0  0  0  0
  -27.6470  -32.3020   25.4330 C   0  0  0  0  0  1  0  0  0  0  0  0
  -29.5130  -18.8620   21.8170 C   0  0  0  0  0  2  0  0  0  0  0  0
  -31.2020  -20.2950   24.7300 C   0  0  0  0  0  2  0  0  0  0  0  0
  -31.4320  -21.4340   23.7370 C   0  0  0  0  0  2  0  0  0  0  0  0
  -30.9590  -19.0560   23.8550 C   0  0  0  0  0  2  0  0  0  0  0  0
  -30.6000  -21.0140   22.5220 C   0  0  0  0  0  2  0  0  0  0  0  0
  -30.6640  -19.5330   22.4800 N   0  0  2  0  0  4  0  0  0  0  0  0
  -31.4820  -19.2930   21.9400 H   0  0  0  0  0  0  0  0  0  0  0  0
  1  5  1  0
  2 49  1  0
  2  4  1  0
  3  2  2  0
  4 94  1  0
  5  4  2  0
  5 16  1  0
  6  3  1  0
  6  1  2  0
  7  6  1  0
  8 14  1  0
  8 16  1  0
  9 14  1  0
 10 11  1  0
 10  9  1  0
 12 11  1  0
 12 21  1  0
 12 13  1  0
 14 13  1  0
 15  8  2  0
 16 17  1  0
 18 19  2  0
 19 38  1  0
 20 19  1  0
 20 23  1  0
 21 22  1  0
 21 18  1  0
 22 20  2  0
 23 24  1  0
 24 25  2  0
 26 29  1  0
 26 25  1  0
 27 26  2  0
 28 27  1  0
 28 23  2  0
 29 30  1  0
 30 31  1  0
 31 32  2  0
 33 32  1  0
 33 37  1  0
 34 33  2  0
 35 30  2  0
 35 34  1  0
 36 35  1  0
 38 39  1  0
 39 42  1  0
 39 41  1  0
 40 38  2  0
 43 44  1  0
 43 18  1  0
 45 43  1  0
 46  3  1  0
 47 46  1  0
 48 46  2  0
 50 49  2  0
 50 51  1  0
 52 53  1  0
 52 51  2  0
 53 55  1  0
 54 65  2  0
 55 60  1  0
 56 64  1  0
 56 66  1  0
 57 63  1  0
 57 59  1  0
 58 64  1  0
 59 58  1  0
 60 59  2  0
 61 62  1  0
 61 55  2  0
 62 57  2  0
 63 56  1  0
 64 54  1  0
 66 68  2  0
 67 66  1  0
 69 67  1  0
 70 79  2  0
 70 75  1  0
 71 67  1  0
 71 75  1  0
 72 71  1  0
 73 74  1  0
 73 72  1  0
 74 70  1  0
 75 76  2  0
 76 77  1  0
 78 77  2  0
 79 78  1  0
 80 54  1  0
 80 81  1  0
 80 90  1  0
 81 84  1  0
 82 86  1  0
 82 81  1  0
 83 82  2  0
 86 85  1  0
 88 86  1  0
 88 89  1  0
 88 87  1  0
 90 93  1  1
 90 91  1  0
 92 90  1  0
 94 99  1  0
 96 95  1  0
 97 95  1  0
 98 96  1  0
 99 98  1  0
 99 97  1  0
 99100  1  6
M  ISO  4   8 100  16 100  52 101  53 101
M  END
>  <TORSDO>  (54) 
F 22

>  <SCORE>  (54) 
-10.510

>  <name>  (54) 
53

>  <ligand_id>  (54) 
53

>  <original_smiles>  (54) 
[H]C(=C([H])C([H])([H])C([H])([H])Oc1c([H])c([H])c2c(c1[H])C([H])([H])N(C(=O)C([H])(N([H])C(=O)C([H])(N([H])C([H])([H])[H])C([H])([H])[H])C(C([H])([H])[H])(C([H])([H])[H])C([H])([H])[H])C([H])(C(=O)N([H])C1([H])c3c([H])c([H])c([H])c([H])c3C([H])([H])C([H])([H])C1([H])[H])C2([H])[H])c1c(C(=S)C([H])([H])[H])c(F)c([H])c(N([H])C(=O)N2C([H])([H])C([H])([H])C([H])([H])C([H])(n3nc(-c4c([H])c([H])c(Oc5c([H])c([H])c(F)c([H])c5F)c([H])c4[H])c(C(=O)N([H])[H])c3N([H])[H])C2([H])[H])c1C([H])([H])[N+]1([H])C([H])([H])C([H])([H])C([H])([H])C1([H])[H]

>  <smiles>  (54) 
[H]C(=C([H])C([H])([H])C([H])([H])Oc1c([H])c([H])c2c(c1[H])C([H])([H])N(C(=O)C([H])(N([H])C(=O)C([H])(N([H])C([H])([H])[H])C([H])([H])[H])C(C([H])([H])[H])(C([H])([H])[H])C([H])([H])[H])C([H])(C(=O)N([H])C1([H])c3c([H])c([H])c([H])c([H])c3C([H])([H])C([H])([H])C1([H])[H])C2([H])[H])c1c(C(=S)C([H])([H])[H])c(F)c([H])c(N([H])C(=O)N2C([H])([H])C([H])([H])C([H])([H])C([H])(n3nc(-c4c([H])c([H])c(Oc5c([H])c([H])c(F)c([H])c5F)c([H])c4[H])c(C(=O)N([H])[H])c3N([H])[H])C2([H])[H])c1C([H])([H])[N+]1([H])C([H])([H])C([H])([H])C([H])([H])C1([H])[H]

$$$$
54:0:0
     RDKit          3D

 96105  0  0  1  0  0  0  0  0999 V2000
  -29.8710  -22.7000   18.9820 C   0  0  0  0  0  0  0  0  0  0  0  0
  -31.0350  -22.2790   18.4560 C   0  0  0  0  0  3  0  0  0  0  0  0
  -28.6980  -23.3000   18.2260 C   0  0  0  0  0  2  0  0  0  0  0  0
  -28.5760  -24.8040   18.5320 C   0  0  0  0  0  2  0  0  0  0  0  0
  -29.2920  -24.2010   20.9100 C   0  0  0  0  0  2  0  0  0  0  0  0
  -28.2890  -25.0610   20.0230 C   0  0  0  0  0  3  0  0  0  0  0  0
  -32.2500  -21.8090   19.2360 C   0  0  0  0  0  1  0  0  0  0  0  0
  -29.6580  -22.7850   20.4460 N   0  0  1  0  0  4  0  0  0  0  0  0
  -30.5790  -22.6710   20.8430 H   0  0  0  0  0  0  0  0  0  0  0  0
  -28.3360  -26.5270   20.2550 O   0  0  0  0  0  0  0  0  0  0  0  0
  -24.5880  -31.9010   23.2080 C   0  0  0  0  0  0  0  0  0  0  0  0
  -27.1880  -27.3360   20.1720 C   0  0  0  0  0  0  0  0  0  0  0  0
  -23.3740  -30.5030   21.5710 C   0  0  0  0  0  3  0  0  0  0  0  0
  -24.8170  -28.9420   20.1500 C   0  0  0  0  0  0  0  0  0  0  0  0
  -25.9110  -30.8210   21.3760 C   0  0  0  0  0  2  0  0  0  0  0  0
  -25.9860  -29.4390   20.7370 C   0  0  0  0  0  0  0  0  0  0  0  0
  -27.1720  -28.6500   20.7340 C   0  0  0  0  0  3  0  0  0  0  0  0
  -25.9920  -26.8840   19.5680 C   0  0  0  0  0  3  0  0  0  0  0  0
  -24.8210  -27.6690   19.5580 C   0  0  0  0  0  3  0  0  0  0  0  0
  -23.5810  -29.8180   20.1950 C   0  0  0  0  0  2  0  0  0  0  0  0
  -24.6440  -31.0930   22.1090 N   0  0  0  0  0  0  0  0  0  0  0  0
  -23.5080  -32.1840   23.7450 O   0  0  0  0  0  0  0  0  0  0  0  0
  -22.7090  -29.4940   22.5360 C   0  0  0  0  0  0  0  0  0  0  0  0
  -21.3790  -29.3320   22.4210 N   0  0  0  0  0  0  0  0  0  0  0  0
  -23.3880  -28.8580   23.3470 O   0  0  0  0  0  0  0  0  0  0  0  0
  -20.8920  -29.8940   21.7370 H   0  0  0  0  0  0  0  0  0  0  0  0
  -17.9940  -28.1800   22.9500 C   0  0  0  0  0  0  0  0  0  0  0  0
  -20.5580  -28.4040   23.1980 C   0  0  0  0  0  3  0  0  0  0  0  0
  -20.6350  -26.9740   22.6190 C   0  0  0  0  0  2  0  0  0  0  0  0
  -19.5200  -26.6680   21.6140 C   0  0  0  0  0  2  0  0  0  0  0  0
  -18.1460  -26.8310   22.2700 C   0  0  0  0  0  2  0  0  0  0  0  0
  -19.1250  -28.9260   23.3720 C   0  0  0  0  0  0  0  0  0  0  0  0
  -18.9280  -30.1910   23.9690 C   0  0  0  0  0  3  0  0  0  0  0  0
  -17.6320  -30.7100   24.1460 C   0  0  0  0  0  3  0  0  0  0  0  0
  -16.5150  -29.9620   23.7410 C   0  0  0  0  0  3  0  0  0  0  0  0
  -16.6960  -28.6980   23.1500 C   0  0  0  0  0  3  0  0  0  0  0  0
  -25.8750  -32.5270   23.8270 C   0  0  0  0  0  3  0  0  0  0  0  0
  -25.5720  -33.9250   24.1630 N   0  0  0  0  0  0  0  0  0  0  0  0
  -25.9110  -34.9800   23.4100 C   0  0  0  0  0  0  0  0  0  0  0  0
  -26.5800  -34.8790   22.3780 O   0  0  0  0  0  0  0  0  0  0  0  0
  -24.9720  -34.0770   24.9600 H   0  0  0  0  0  0  0  0  0  0  0  0
  -24.1930  -36.7850   23.0650 C   0  0  0  0  0  1  0  0  0  0  0  0
  -25.4300  -36.3680   23.8760 C   0  0  0  0  0  3  0  0  0  0  0  0
  -27.5680  -37.2350   24.7140 C   0  0  0  0  0  1  0  0  0  0  0  0
  -26.4690  -37.4160   23.7710 N   0  0  0  0  0  0  0  0  0  0  0  0
  -26.0670  -38.3380   23.9250 H   0  0  0  0  0  0  0  0  0  0  0  0
  -26.3980  -31.7470   25.0960 C   0  0  1  0  0  0  0  0  0  0  0  0
  -25.3110  -31.5090   26.1700 C   0  0  0  0  0  1  0  0  0  0  0  0
  -26.9720  -30.3680   24.6950 C   0  0  0  0  0  1  0  0  0  0  0  0
  -27.5570  -32.5350   25.7550 C   0  0  0  0  0  1  0  0  0  0  0  0
  -28.9470  -21.6070   21.0870 C   0  0  0  0  0  2  0  0  0  0  0  0
  -28.3350  -19.2310   20.1880 C   0  0  0  0  0  3  0  0  0  0  0  0
  -28.5280  -17.8200   20.1000 C   0  0  0  0  0  3  0  0  0  0  0  0
  -30.5300  -19.4670   21.1140 C   0  0  0  0  0  3  0  0  0  0  0  0
  -29.3130  -20.1020   20.7320 C   0  0  0  0  0  0  0  0  0  0  0  0
  -30.7410  -18.0490   21.0090 C   0  0  0  0  0  0  0  0  0  0  0  0
  -29.7210  -17.1730   20.5200 C   0  0  0  0  0  0  0  0  0  0  0  0
  -32.0570  -17.4820   21.5090 C   0  0  0  0  0  1  0  0  0  0  0  0
  -30.4840  -14.6950   20.0770 C   0  0  0  0  0  0  0  0  0  0  0  0
  -30.2380  -12.4840   18.9440 C   0  0  0  0  0  2  0  0  0  0  0  0
  -29.2240  -12.6230   17.7850 C   0  0  0  0  0  2  0  0  0  0  0  0
  -27.7790  -12.4370   18.2900 C   0  0  0  0  0  2  0  0  0  0  0  0
  -27.4830  -13.2620   19.5710 C   0  0  0  0  0  3  0  0  0  0  0  0
  -28.6020  -13.0820   20.6200 C   0  0  0  0  0  2  0  0  0  0  0  0
  -29.8740  -13.4670   19.9860 N   0  0  0  0  0  0  0  0  0  0  0  0
  -31.6010  -14.8870   19.5880 O   0  0  0  0  0  0  0  0  0  0  0  0
  -29.7160  -15.7030   20.6150 N   0  0  0  0  0  0  0  0  0  0  0  0
  -28.8410  -15.3300   20.9480 H   0  0  0  0  0  0  0  0  0  0  0  0
  -25.1290  -13.8340   20.4250 C   0  0  0  0  0  0  0  0  0  0  0  0
  -24.0890  -13.0500   20.8430 C   0  0  0  0  0  0  0  0  0  0  0  0
  -24.5560  -11.7030   20.7720 C   0  0  0  0  0  0  0  0  0  0  0  0
  -26.1640  -12.9630   20.1220 N   0  0  0  0  0  0  0  0  0  0  0  0
  -25.8270  -11.6750   20.3910 N   0  0  0  0  0  0  0  0  0  0  0  0
  -23.8450  -10.4350   20.9850 C   0  0  0  0  0  0  0  0  0  0  0  0
  -24.3200   -9.4720   21.9010 C   0  0  0  0  0  3  0  0  0  0  0  0
  -23.6130   -8.2670   22.1050 C   0  0  0  0  0  3  0  0  0  0  0  0
  -22.4170   -8.0180   21.3930 C   0  0  0  0  0  0  0  0  0  0  0  0
  -21.9600   -8.9710   20.4660 C   0  0  0  0  0  3  0  0  0  0  0  0
  -22.6670  -10.1660   20.2610 C   0  0  0  0  0  3  0  0  0  0  0  0
  -21.6780   -6.8640   21.5080 O   0  0  0  0  0  0  0  0  0  0  0  0
  -21.6680   -6.1260   22.6630 C   0  0  0  0  0  0  0  0  0  0  0  0
  -21.2650   -6.6830   23.8980 C   0  0  0  0  0  3  0  0  0  0  0  0
  -21.2030   -5.8690   25.0470 C   0  0  0  0  0  3  0  0  0  0  0  0
  -21.5320   -4.5020   24.9630 C   0  0  0  0  0  0  0  0  0  0  0  0
  -21.9280   -3.9480   23.7340 C   0  0  0  0  0  3  0  0  0  0  0  0
  -21.9920   -4.7570   22.5860 C   0  0  0  0  0  0  0  0  0  0  0  0
  -22.3520   -4.2120   21.4000 F   0  0  0  0  0  0  0  0  0  0  0  0
  -21.4640   -3.7210   26.0650 F   0  0  0  0  0  0  0  0  0  0  0  0
  -22.7060  -13.5160   21.1980 C   0  0  0  0  0  0  0  0  0  0  0  0
  -22.0280  -12.8060   22.0920 N   0  0  0  0  0  0  0  0  0  0  0  0
  -22.2380  -14.5470   20.7170 O   0  0  0  0  0  0  0  0  0  0  0  0
  -22.4190  -11.9740   22.5070 H   0  0  0  0  0  0  0  0  0  0  0  0
  -21.1010  -13.1000   22.3640 H   0  0  0  0  0  0  0  0  0  0  0  0
  -25.2770  -15.2070   20.2530 N   0  0  0  0  0  0  0  0  0  0  0  0
  -24.5120  -15.8550   20.4080 H   0  0  0  0  0  0  0  0  0  0  0  0
  -26.0920  -15.6470   19.8500 H   0  0  0  0  0  0  0  0  0  0  0  0
  1  8  1  0
  2  1  2  0
  2  7  1  0
  3  4  1  0
  3  1  1  0
  4  6  1  0
  6 10  1  0
  6  5  1  0
  8  9  1  1
  8  5  1  0
  8 51  1  0
 11 22  2  0
 12 10  1  0
 12 17  1  0
 13 21  1  0
 13 23  1  0
 14 20  1  0
 14 16  1  0
 15 21  1  0
 16 15  1  0
 17 16  2  0
 18 12  2  0
 19 18  1  0
 19 14  2  0
 20 13  1  0
 21 11  1  0
 23 25  2  0
 24 23  1  0
 26 24  1  0
 27 36  2  0
 27 32  1  0
 28 24  1  0
 28 32  1  0
 29 28  1  0
 30 31  1  0
 30 29  1  0
 31 27  1  0
 32 33  2  0
 33 34  1  0
 35 34  2  0
 36 35  1  0
 37 11  1  0
 37 38  1  0
 37 47  1  0
 38 41  1  0
 39 43  1  0
 39 38  1  0
 40 39  2  0
 43 42  1  0
 45 43  1  0
 45 46  1  0
 45 44  1  0
 47 50  1  1
 47 48  1  0
 49 47  1  0
 52 55  1  0
 53 52  2  0
 53 57  1  0
 55 51  1  0
 55 54  2  0
 56 54  1  0
 56 58  1  0
 57 67  1  0
 57 56  2  0
 59 67  1  0
 60 65  1  0
 61 62  1  0
 61 60  1  0
 63 62  1  0
 63 72  1  0
 63 64  1  0
 65 59  1  0
 65 64  1  0
 66 59  2  0
 67 68  1  0
 69 70  2  0
 70 89  1  0
 71 70  1  0
 71 74  1  0
 72 73  1  0
 72 69  1  0
 73 71  2  0
 74 75  1  0
 75 76  2  0
 77 80  1  0
 77 76  1  0
 78 77  2  0
 79 78  1  0
 79 74  2  0
 80 81  1  0
 81 82  1  0
 82 83  2  0
 84 83  1  0
 84 88  1  0
 85 84  2  0
 86 81  2  0
 86 85  1  0
 87 86  1  0
 89 90  1  0
 90 93  1  0
 90 92  1  0
 91 89  2  0
 94 95  1  0
 94 69  1  0
 96 94  1  0
M  ISO  4   6 101  10 101  59 100  67 100
M  END
>  <TORSDO>  (55) 
F 18

>  <SCORE>  (55) 
-14.576

>  <name>  (55) 
54

>  <ligand_id>  (55) 
54

>  <original_smiles>  (55) 
[H]C(=C1C([H])([H])C([H])([H])C([H])(Oc2c([H])c([H])c3c(c2[H])C([H])([H])N(C(=O)C([H])(N([H])C(=O)C([H])(N([H])C([H])([H])[H])C([H])([H])[H])C(C([H])([H])[H])(C([H])([H])[H])C([H])([H])[H])C([H])(C(=O)N([H])C2([H])c4c([H])c([H])c([H])c([H])c4C([H])([H])C([H])([H])C2([H])[H])C3([H])[H])C([H])([H])[N+]1([H])C([H])([H])c1c([H])c([H])c(N([H])C(=O)N2C([H])([H])C([H])([H])C([H])([H])C([H])(n3nc(-c4c([H])c([H])c(Oc5c([H])c([H])c(F)c([H])c5F)c([H])c4[H])c(C(=O)N([H])[H])c3N([H])[H])C2([H])[H])c(C([H])([H])[H])c1[H])C([H])([H])[H]

>  <smiles>  (55) 
[H]C(=C1C([H])([H])C([H])([H])C([H])(Oc2c([H])c([H])c3c(c2[H])C([H])([H])N(C(=O)C([H])(N([H])C(=O)C([H])(N([H])C([H])([H])[H])C([H])([H])[H])C(C([H])([H])[H])(C([H])([H])[H])C([H])([H])[H])C([H])(C(=O)N([H])C2([H])c4c([H])c([H])c([H])c([H])c4C([H])([H])C([H])([H])C2([H])[H])C3([H])[H])C([H])([H])[N+]1([H])C([H])([H])c1c([H])c([H])c(N([H])C(=O)N2C([H])([H])C([H])([H])C([H])([H])C([H])(n3nc(-c4c([H])c([H])c(Oc5c([H])c([H])c(F)c([H])c5F)c([H])c4[H])c(C(=O)N([H])[H])c3N([H])[H])C2([H])[H])c(C([H])([H])[H])c1[H])C([H])([H])[H]

$$$$
55:0:0
     RDKit          3D

 98107  0  0  1  0  0  0  0  0999 V2000
  -28.1500  -22.5490   21.0580 C   0  0  0  0  0  0  0  0  0  0  0  0
  -27.1900  -21.6830   20.6780 C   0  0  0  0  0  3  0  0  0  0  0  0
  -28.0640  -23.4940   22.2550 C   0  0  0  0  0  2  0  0  0  0  0  0
  -27.9270  -24.9770   21.8290 C   0  0  0  0  0  2  0  0  0  0  0  0
  -29.8610  -24.2470   20.3410 C   0  0  0  0  0  2  0  0  0  0  0  0
  -28.6590  -25.3040   20.5050 C   0  0  0  0  0  3  0  0  0  0  0  0
  -27.1890  -20.7690   19.4710 C   0  0  0  0  0  1  0  0  0  0  0  0
  -29.4360  -22.7600   20.3100 N   0  0  1  0  0  4  0  0  0  0  0  0
  -29.2480  -22.5890   19.3300 H   0  0  0  0  0  0  0  0  0  0  0  0
  -28.8930  -26.7920   20.4470 O   0  0  0  0  0  0  0  0  0  0  0  0
  -24.8620  -32.0210   23.4470 C   0  0  0  0  0  0  0  0  0  0  0  0
  -27.7680  -27.6440   20.3690 C   0  0  0  0  0  0  0  0  0  0  0  0
  -23.7910  -30.6320   21.7120 C   0  0  0  0  0  3  0  0  0  0  0  0
  -25.3590  -29.2000   20.2920 C   0  0  0  0  0  0  0  0  0  0  0  0
  -26.3220  -31.0490   21.6540 C   0  0  0  0  0  2  0  0  0  0  0  0
  -26.4820  -29.6990   20.9600 C   0  0  0  0  0  0  0  0  0  0  0  0
  -27.6910  -28.9310   20.9930 C   0  0  0  0  0  3  0  0  0  0  0  0
  -26.6280  -27.2240   19.6460 C   0  0  0  0  0  3  0  0  0  0  0  0
  -25.4350  -27.9680   19.6220 C   0  0  0  0  0  3  0  0  0  0  0  0
  -24.0880  -30.0260   20.3190 C   0  0  0  0  0  2  0  0  0  0  0  0
  -25.0080  -31.2520   22.3270 N   0  0  0  0  0  0  0  0  0  0  0  0
  -23.7460  -32.2360   23.9440 O   0  0  0  0  0  0  0  0  0  0  0  0
  -23.1260  -29.5580   22.6050 C   0  0  0  0  0  0  0  0  0  0  0  0
  -21.8130  -29.3440   22.4240 N   0  0  0  0  0  0  0  0  0  0  0  0
  -23.7960  -28.9220   23.4230 O   0  0  0  0  0  0  0  0  0  0  0  0
  -21.3320  -29.9170   21.7450 H   0  0  0  0  0  0  0  0  0  0  0  0
  -18.4510  -28.0620   22.8000 C   0  0  0  0  0  0  0  0  0  0  0  0
  -20.9980  -28.3520   23.1300 C   0  0  0  0  0  3  0  0  0  0  0  0
  -21.1370  -26.9550   22.4830 C   0  0  0  0  0  2  0  0  0  0  0  0
  -20.0580  -26.6680   21.4340 C   0  0  0  0  0  2  0  0  0  0  0  0
  -18.6630  -26.7530   22.0600 C   0  0  0  0  0  2  0  0  0  0  0  0
  -19.5470  -28.8200   23.2890 C   0  0  0  0  0  0  0  0  0  0  0  0
  -19.2950  -30.0450   23.9430 C   0  0  0  0  0  3  0  0  0  0  0  0
  -17.9770  -30.5120   24.1130 C   0  0  0  0  0  3  0  0  0  0  0  0
  -16.8940  -29.7500   23.6410 C   0  0  0  0  0  3  0  0  0  0  0  0
  -17.1320  -28.5270   22.9890 C   0  0  0  0  0  3  0  0  0  0  0  0
  -26.0900  -32.6830   24.1430 C   0  0  0  0  0  3  0  0  0  0  0  0
  -25.7400  -34.0810   24.4280 N   0  0  0  0  0  0  0  0  0  0  0  0
  -26.0890  -35.1250   23.6620 C   0  0  0  0  0  0  0  0  0  0  0  0
  -26.8050  -35.0130   22.6640 O   0  0  0  0  0  0  0  0  0  0  0  0
  -25.1000  -34.2410   25.1910 H   0  0  0  0  0  0  0  0  0  0  0  0
  -24.3330  -36.8740   23.2100 C   0  0  0  0  0  1  0  0  0  0  0  0
  -25.5550  -36.5120   24.0680 C   0  0  0  0  0  3  0  0  0  0  0  0
  -27.6380  -37.4720   24.9480 C   0  0  0  0  0  1  0  0  0  0  0  0
  -26.5660  -37.5880   23.9630 N   0  0  0  0  0  0  0  0  0  0  0  0
  -26.1340  -38.5010   24.0730 H   0  0  0  0  0  0  0  0  0  0  0  0
  -26.5280  -31.9410   25.4670 C   0  0  1  0  0  0  0  0  0  0  0  0
  -25.3570  -31.6560   26.4360 C   0  0  0  0  0  1  0  0  0  0  0  0
  -27.2060  -30.5910   25.1410 C   0  0  0  0  0  1  0  0  0  0  0  0
  -27.5740  -32.7920   26.2240 C   0  0  0  0  0  1  0  0  0  0  0  0
  -30.5080  -21.7120   20.6680 C   0  0  0  0  0  2  0  0  0  0  0  0
  -30.8260  -18.9710   17.9480 C   0  0  0  0  0  3  0  0  0  0  0  0
  -30.9990  -17.7550   18.6360 C   0  0  0  0  0  0  0  0  0  0  0  0
  -30.6860  -18.9730   20.7350 C   0  0  0  0  0  0  0  0  0  0  0  0
  -30.5490  -20.2490   20.0210 C   0  0  0  0  0  0  0  0  0  0  0  0
  -30.9140  -17.6950   20.0580 C   0  0  0  0  0  0  0  0  0  0  0  0
  -30.6050  -20.1860   18.6110 C   0  0  0  0  0  0  0  0  0  0  0  0
  -31.2500  -16.5290   17.7760 C   0  0  0  0  0  1  0  0  0  0  0  0
  -30.6180  -18.9690   22.2550 C   0  0  0  0  0  1  0  0  0  0  0  0
  -30.4220  -21.6020   17.6360 Cl  0  0  0  0  0  0  0  0  0  0  0  0
  -31.6480  -15.2200   20.5660 C   0  0  0  0  0  0  0  0  0  0  0  0
  -31.4710  -12.9070   19.6470 C   0  0  0  0  0  2  0  0  0  0  0  0
  -30.6450  -12.9620   18.3420 C   0  0  0  0  0  2  0  0  0  0  0  0
  -29.1290  -12.9220   18.6310 C   0  0  0  0  0  2  0  0  0  0  0  0
  -28.6930  -13.8340   19.8130 C   0  0  0  0  0  3  0  0  0  0  0  0
  -29.6520  -13.7010   21.0160 C   0  0  0  0  0  2  0  0  0  0  0  0
  -31.0060  -14.0000   20.5310 N   0  0  0  0  0  0  0  0  0  0  0  0
  -32.8560  -15.2850   20.3190 O   0  0  0  0  0  0  0  0  0  0  0  0
  -30.8770  -16.3640   20.7280 N   0  0  0  0  0  0  0  0  0  0  0  0
  -29.9890  -16.1660   21.1620 H   0  0  0  0  0  0  0  0  0  0  0  0
  -26.2660  -14.5250   20.2630 C   0  0  0  0  0  0  0  0  0  0  0  0
  -25.1470  -13.7960   20.5690 C   0  0  0  0  0  0  0  0  0  0  0  0
  -25.5730  -12.4360   20.6620 C   0  0  0  0  0  0  0  0  0  0  0  0
  -27.3020  -13.6080   20.1850 N   0  0  0  0  0  0  0  0  0  0  0  0
  -26.8870  -12.3520   20.4890 N   0  0  0  0  0  0  0  0  0  0  0  0
  -24.8000  -11.2030   20.8470 C   0  0  0  0  0  0  0  0  0  0  0  0
  -25.1150  -10.2790   21.8690 C   0  0  0  0  0  3  0  0  0  0  0  0
  -24.3430   -9.1100   22.0420 C   0  0  0  0  0  3  0  0  0  0  0  0
  -23.2420   -8.8570   21.1900 C   0  0  0  0  0  0  0  0  0  0  0  0
  -22.9490   -9.7650   20.1580 C   0  0  0  0  0  3  0  0  0  0  0  0
  -23.7210  -10.9250   19.9840 C   0  0  0  0  0  3  0  0  0  0  0  0
  -22.4500   -7.7370   21.2650 O   0  0  0  0  0  0  0  0  0  0  0  0
  -22.1910   -7.1190   22.4630 C   0  0  0  0  0  0  0  0  0  0  0  0
  -21.5850   -7.8040   23.5400 C   0  0  0  0  0  3  0  0  0  0  0  0
  -21.2720   -7.1130   24.7270 C   0  0  0  0  0  3  0  0  0  0  0  0
  -21.5560   -5.7390   24.8390 C   0  0  0  0  0  0  0  0  0  0  0  0
  -22.1530   -5.0540   23.7660 C   0  0  0  0  0  3  0  0  0  0  0  0
  -22.4670   -5.7420   22.5800 C   0  0  0  0  0  0  0  0  0  0  0  0
  -23.0230   -5.0730   21.5430 F   0  0  0  0  0  0  0  0  0  0  0  0
  -21.2480   -5.0730   25.9760 F   0  0  0  0  0  0  0  0  0  0  0  0
  -23.7420  -14.3150   20.6720 C   0  0  0  0  0  0  0  0  0  0  0  0
  -22.9270  -13.7090   21.5280 N   0  0  0  0  0  0  0  0  0  0  0  0
  -23.3740  -15.2960   20.0270 O   0  0  0  0  0  0  0  0  0  0  0  0
  -23.2370  -12.9140   22.0660 H   0  0  0  0  0  0  0  0  0  0  0  0
  -21.9810  -14.0390   21.6460 H   0  0  0  0  0  0  0  0  0  0  0  0
  -26.4830  -15.8800   20.0230 N   0  0  0  0  0  0  0  0  0  0  0  0
  -25.7300  -16.5600   20.0300 H   0  0  0  0  0  0  0  0  0  0  0  0
  -27.3680  -16.2750   19.7370 H   0  0  0  0  0  0  0  0  0  0  0  0
  1  3  1  0
  2  1  2  0
  4  3  1  0
  5  6  1  0
  6 10  1  0
  6  4  1  0
  7  2  1  0
  8  5  1  0
  8 51  1  0
  8  1  1  0
  8  9  1  6
 11 22  2  0
 12 10  1  0
 12 17  1  0
 13 21  1  0
 13 23  1  0
 14 20  1  0
 14 16  1  0
 15 21  1  0
 16 17  2  0
 16 15  1  0
 18 12  2  0
 19 18  1  0
 19 14  2  0
 20 13  1  0
 21 11  1  0
 23 25  2  0
 24 23  1  0
 26 24  1  0
 27 36  2  0
 27 32  1  0
 28 24  1  0
 28 32  1  0
 29 28  1  0
 30 31  1  0
 30 29  1  0
 31 27  1  0
 32 33  2  0
 33 34  1  0
 35 34  2  0
 36 35  1  0
 37 11  1  0
 37 38  1  0
 37 47  1  0
 38 41  1  0
 39 43  1  0
 39 38  1  0
 40 39  2  0
 43 42  1  0
 45 43  1  0
 45 46  1  0
 45 44  1  0
 47 50  1  1
 47 48  1  0
 49 47  1  0
 52 57  2  0
 52 53  1  0
 53 56  2  0
 54 59  1  0
 55 51  1  0
 55 54  2  0
 56 69  1  0
 56 54  1  0
 57 55  1  0
 58 53  1  0
 60 57  1  0
 61 69  1  0
 62 67  1  0
 63 64  1  0
 63 62  1  0
 65 64  1  0
 65 74  1  0
 65 66  1  0
 67 61  1  0
 67 66  1  0
 68 61  2  0
 69 70  1  0
 71 72  2  0
 72 73  1  0
 72 91  1  0
 73 76  1  0
 74 71  1  0
 74 75  1  0
 75 73  2  0
 76 77  1  0
 77 78  2  0
 79 82  1  0
 79 78  1  0
 80 79  2  0
 81 80  1  0
 81 76  2  0
 82 83  1  0
 83 88  2  0
 83 84  1  0
 84 85  2  0
 85 86  1  0
 86 90  1  0
 87 86  2  0
 88 87  1  0
 89 88  1  0
 91 92  1  0
 92 95  1  0
 92 94  1  0
 93 91  2  0
 96 97  1  0
 96 71  1  0
 98 96  1  0
M  ISO  4   6 101  10 101  61 100  69 100
M  END
>  <TORSDO>  (56) 
F 18

>  <SCORE>  (56) 
-11.995

>  <name>  (56) 
55

>  <ligand_id>  (56) 
55

>  <original_smiles>  (56) 
[H]C(=C1C([H])([H])C([H])([H])C([H])(Oc2c([H])c([H])c3c(c2[H])C([H])([H])N(C(=O)C([H])(N([H])C(=O)C([H])(N([H])C([H])([H])[H])C([H])([H])[H])C(C([H])([H])[H])(C([H])([H])[H])C([H])([H])[H])C([H])(C(=O)N([H])C2([H])c4c([H])c([H])c([H])c([H])c4C([H])([H])C([H])([H])C2([H])[H])C3([H])[H])C([H])([H])[N+]1([H])C([H])([H])c1c(Cl)c([H])c(C([H])([H])[H])c(N([H])C(=O)N2C([H])([H])C([H])([H])C([H])([H])C([H])(n3nc(-c4c([H])c([H])c(Oc5c([H])c([H])c(F)c([H])c5F)c([H])c4[H])c(C(=O)N([H])[H])c3N([H])[H])C2([H])[H])c1C([H])([H])[H])C([H])([H])[H]

>  <smiles>  (56) 
[H]C(=C1C([H])([H])C([H])([H])C([H])(Oc2c([H])c([H])c3c(c2[H])C([H])([H])N(C(=O)C([H])(N([H])C(=O)C([H])(N([H])C([H])([H])[H])C([H])([H])[H])C(C([H])([H])[H])(C([H])([H])[H])C([H])([H])[H])C([H])(C(=O)N([H])C2([H])c4c([H])c([H])c([H])c([H])c4C([H])([H])C([H])([H])C2([H])[H])C3([H])[H])C([H])([H])[N+]1([H])C([H])([H])c1c(Cl)c([H])c(C([H])([H])[H])c(N([H])C(=O)N2C([H])([H])C([H])([H])C([H])([H])C([H])(n3nc(-c4c([H])c([H])c(Oc5c([H])c([H])c(F)c([H])c5F)c([H])c4[H])c(C(=O)N([H])[H])c3N([H])[H])C2([H])[H])c1C([H])([H])[H])C([H])([H])[H]

$$$$
56:0:0
     RDKit          3D

 95104  0  0  1  0  0  0  0  0999 V2000
  -30.1900  -23.3950   19.6910 C   0  0  0  0  0  0  0  0  0  0  0  0
  -31.2700  -22.6070   19.5680 C   0  0  0  0  0  2  0  0  0  0  0  0
  -30.1230  -24.8990   19.4340 C   0  0  0  0  0  2  0  0  0  0  0  0
  -27.9520  -24.1490   20.1570 C   0  0  0  0  0  2  0  0  0  0  0  0
  -28.6590  -25.3500   19.4290 C   0  0  0  0  0  3  0  0  0  0  0  0
  -28.8640  -22.9310   20.1950 N   0  0  1  0  0  4  0  0  0  0  0  0
  -28.9640  -22.7450   21.1810 H   0  0  0  0  0  0  0  0  0  0  0  0
  -28.5920  -26.7380   19.9510 O   0  0  0  0  0  0  0  0  0  0  0  0
  -24.6900  -31.8200   23.2200 C   0  0  0  0  0  0  0  0  0  0  0  0
  -27.4270  -27.5170   19.9220 C   0  0  0  0  0  0  0  0  0  0  0  0
  -23.5280  -30.4780   21.5060 C   0  0  0  0  0  3  0  0  0  0  0  0
  -25.0200  -29.0550   19.9940 C   0  0  0  0  0  0  0  0  0  0  0  0
  -26.0530  -30.8810   21.3420 C   0  0  0  0  0  2  0  0  0  0  0  0
  -26.1720  -29.5450   20.6210 C   0  0  0  0  0  0  0  0  0  0  0  0
  -27.3770  -28.7860   20.5780 C   0  0  0  0  0  3  0  0  0  0  0  0
  -26.2530  -27.0750   19.2730 C   0  0  0  0  0  3  0  0  0  0  0  0
  -25.0630  -27.8300   19.3120 C   0  0  0  0  0  3  0  0  0  0  0  0
  -23.7610  -29.8930   20.0890 C   0  0  0  0  0  2  0  0  0  0  0  0
  -24.7750  -31.0720   22.0820 N   0  0  0  0  0  0  0  0  0  0  0  0
  -23.6000  -32.0380   23.7660 O   0  0  0  0  0  0  0  0  0  0  0  0
  -22.9020  -29.3850   22.4050 C   0  0  0  0  0  0  0  0  0  0  0  0
  -21.5870  -29.1570   22.2510 N   0  0  0  0  0  0  0  0  0  0  0  0
  -23.5950  -28.7500   23.2050 O   0  0  0  0  0  0  0  0  0  0  0  0
  -21.0840  -29.7190   21.5800 H   0  0  0  0  0  0  0  0  0  0  0  0
  -18.2530  -27.8160   22.6620 C   0  0  0  0  0  0  0  0  0  0  0  0
  -20.7980  -28.1530   22.9660 C   0  0  0  0  0  3  0  0  0  0  0  0
  -20.9580  -26.7580   22.3210 C   0  0  0  0  0  2  0  0  0  0  0  0
  -19.8760  -26.4480   21.2810 C   0  0  0  0  0  2  0  0  0  0  0  0
  -18.4830  -26.5100   21.9180 C   0  0  0  0  0  2  0  0  0  0  0  0
  -19.3410  -28.5950   23.1390 C   0  0  0  0  0  0  0  0  0  0  0  0
  -19.0710  -29.8170   23.7930 C   0  0  0  0  0  3  0  0  0  0  0  0
  -17.7480  -30.2620   23.9730 C   0  0  0  0  0  3  0  0  0  0  0  0
  -16.6750  -29.4790   23.5120 C   0  0  0  0  0  3  0  0  0  0  0  0
  -16.9280  -28.2570   22.8640 C   0  0  0  0  0  3  0  0  0  0  0  0
  -25.9550  -32.4560   23.8740 C   0  0  0  0  0  3  0  0  0  0  0  0
  -25.6310  -33.8490   24.2140 N   0  0  0  0  0  0  0  0  0  0  0  0
  -25.9450  -34.9070   23.4550 C   0  0  0  0  0  0  0  0  0  0  0  0
  -26.6110  -34.8140   22.4200 O   0  0  0  0  0  0  0  0  0  0  0  0
  -25.0430  -33.9970   25.0210 H   0  0  0  0  0  0  0  0  0  0  0  0
  -24.1930  -36.6760   23.1020 C   0  0  0  0  0  1  0  0  0  0  0  0
  -25.4410  -36.2880   23.9140 C   0  0  0  0  0  3  0  0  0  0  0  0
  -27.5630  -37.2000   24.7520 C   0  0  0  0  0  1  0  0  0  0  0  0
  -26.4600  -37.3550   23.8060 N   0  0  0  0  0  0  0  0  0  0  0  0
  -26.0400  -38.2690   23.9540 H   0  0  0  0  0  0  0  0  0  0  0  0
  -26.4530  -31.6760   25.1530 C   0  0  1  0  0  0  0  0  0  0  0  0
  -25.3380  -31.4120   26.1920 C   0  0  0  0  0  1  0  0  0  0  0  0
  -27.0610  -30.3090   24.7590 C   0  0  0  0  0  1  0  0  0  0  0  0
  -27.5750  -32.4790   25.8510 C   0  0  0  0  0  1  0  0  0  0  0  0
  -28.3000  -21.6220   19.6340 C   0  0  0  0  0  2  0  0  0  0  0  0
  -28.8600  -19.2180   18.7740 C   0  0  0  0  0  3  0  0  0  0  0  0
  -30.0650  -18.3670   21.1150 C   0  0  0  0  0  3  0  0  0  0  0  0
  -29.0180  -20.2040   19.7940 C   0  0  0  0  0  0  0  0  0  0  0  0
  -29.2330  -17.8410   18.9240 C   0  0  0  0  0  0  0  0  0  0  0  0
  -29.6490  -19.7350   20.9880 C   0  0  0  0  0  0  0  0  0  0  0  0
  -29.8720  -17.3680   20.1100 C   0  0  0  0  0  0  0  0  0  0  0  0
  -28.8120  -16.8650   17.8360 C   0  0  0  0  0  1  0  0  0  0  0  0
  -29.8420  -20.6410   22.2040 C   0  0  0  0  0  1  0  0  0  0  0  0
  -30.9220  -14.9450   19.9030 C   0  0  0  0  0  0  0  0  0  0  0  0
  -30.8230  -12.6020   19.0310 C   0  0  0  0  0  2  0  0  0  0  0  0
  -29.8220  -12.5770   17.8510 C   0  0  0  0  0  2  0  0  0  0  0  0
  -28.3780  -12.3830   18.3570 C   0  0  0  0  0  2  0  0  0  0  0  0
  -28.0370  -13.3380   19.5300 C   0  0  0  0  0  3  0  0  0  0  0  0
  -29.1390  -13.3060   20.6140 C   0  0  0  0  0  2  0  0  0  0  0  0
  -30.4050  -13.6730   19.9650 N   0  0  0  0  0  0  0  0  0  0  0  0
  -32.0120  -15.1480   19.3570 O   0  0  0  0  0  0  0  0  0  0  0  0
  -30.1380  -15.9500   20.4400 N   0  0  0  0  0  0  0  0  0  0  0  0
  -29.4970  -15.5850   21.1270 H   0  0  0  0  0  0  0  0  0  0  0  0
  -25.7140  -13.9550   20.4360 C   0  0  0  0  0  0  0  0  0  0  0  0
  -24.6590  -13.1880   20.8430 C   0  0  0  0  0  0  0  0  0  0  0  0
  -25.0830  -11.8290   20.7180 C   0  0  0  0  0  0  0  0  0  0  0  0
  -26.7170  -13.0640   20.0890 N   0  0  0  0  0  0  0  0  0  0  0  0
  -26.3470  -11.7780   20.3180 N   0  0  0  0  0  0  0  0  0  0  0  0
  -24.3420  -10.5740   20.9040 C   0  0  0  0  0  0  0  0  0  0  0  0
  -24.7140   -9.6370   21.8930 C   0  0  0  0  0  3  0  0  0  0  0  0
  -23.9700   -8.4500   22.0650 C   0  0  0  0  0  3  0  0  0  0  0  0
  -22.8480   -8.1890   21.2450 C   0  0  0  0  0  0  0  0  0  0  0  0
  -22.4990   -9.1150   20.2460 C   0  0  0  0  0  3  0  0  0  0  0  0
  -23.2400  -10.2940   20.0710 C   0  0  0  0  0  3  0  0  0  0  0  0
  -22.0860   -7.0500   21.3190 O   0  0  0  0  0  0  0  0  0  0  0  0
  -21.8030   -6.4500   22.5200 C   0  0  0  0  0  0  0  0  0  0  0  0
  -21.1340   -7.1380   23.5550 C   0  0  0  0  0  3  0  0  0  0  0  0
  -20.7960   -6.4630   24.7450 C   0  0  0  0  0  3  0  0  0  0  0  0
  -21.1250   -5.1040   24.9020 C   0  0  0  0  0  0  0  0  0  0  0  0
  -21.7900   -4.4170   23.8720 C   0  0  0  0  0  3  0  0  0  0  0  0
  -22.1240   -5.0870   22.6820 C   0  0  0  0  0  0  0  0  0  0  0  0
  -22.7430   -4.4140   21.6820 F   0  0  0  0  0  0  0  0  0  0  0  0
  -20.7980   -4.4530   26.0440 F   0  0  0  0  0  0  0  0  0  0  0  0
  -23.2980  -13.6800   21.2400 C   0  0  0  0  0  0  0  0  0  0  0  0
  -22.6380  -12.9790   22.1540 N   0  0  0  0  0  0  0  0  0  0  0  0
  -22.8310  -14.7190   20.7730 O   0  0  0  0  0  0  0  0  0  0  0  0
  -23.0280  -12.1330   22.5470 H   0  0  0  0  0  0  0  0  0  0  0  0
  -21.7280  -13.2890   22.4660 H   0  0  0  0  0  0  0  0  0  0  0  0
  -25.8960  -15.3310   20.3120 N   0  0  0  0  0  0  0  0  0  0  0  0
  -25.1490  -15.9950   20.4870 H   0  0  0  0  0  0  0  0  0  0  0  0
  -26.7450  -15.7760   19.9860 H   0  0  0  0  0  0  0  0  0  0  0  0
  1  6  1  0
  2  1  2  0
  3  1  1  0
  4  6  1  0
  5  3  1  0
  5  8  1  0
  5  4  1  0
  6  7  1  1
  9 20  2  0
 10  8  1  0
 10 15  1  0
 11 19  1  0
 11 21  1  0
 12 18  1  0
 12 14  1  0
 13 19  1  0
 14 13  1  0
 15 14  2  0
 16 17  1  0
 16 10  2  0
 17 12  2  0
 18 11  1  0
 19  9  1  0
 21 23  2  0
 22 21  1  0
 24 22  1  0
 25 34  2  0
 25 30  1  0
 26 22  1  0
 26 30  1  0
 27 26  1  0
 28 29  1  0
 28 27  1  0
 29 25  1  0
 30 31  2  0
 31 32  1  0
 33 32  2  0
 34 33  1  0
 35  9  1  0
 35 36  1  0
 35 45  1  0
 36 39  1  0
 37 41  1  0
 37 36  1  0
 38 37  2  0
 41 40  1  0
 43 41  1  0
 43 44  1  0
 43 42  1  0
 45 48  1  1
 45 46  1  0
 47 45  1  0
 49 52  1  0
 49  6  1  0
 50 53  2  0
 50 52  1  0
 52 54  2  0
 53 55  1  0
 54 51  1  0
 54 57  1  0
 55 66  1  0
 55 51  2  0
 56 53  1  0
 58 64  1  0
 58 66  1  0
 59 64  1  0
 60 61  1  0
 60 59  1  0
 62 61  1  0
 62 71  1  0
 62 63  1  0
 64 63  1  0
 65 58  2  0
 66 67  1  0
 68 69  2  0
 69 88  1  0
 70 69  1  0
 70 73  1  0
 71 72  1  0
 71 68  1  0
 72 70  2  0
 73 74  1  0
 74 75  2  0
 76 79  1  0
 76 75  1  0
 77 76  2  0
 78 77  1  0
 78 73  2  0
 79 80  1  0
 80 85  2  0
 80 81  1  0
 81 82  2  0
 82 83  1  0
 83 87  1  0
 84 83  2  0
 85 84  1  0
 86 85  1  0
 88 89  1  0
 89 92  1  0
 89 91  1  0
 90 88  2  0
 93 68  1  0
 93 94  1  0
 95 93  1  0
M  ISO  4   5 101   8 101  58 100  66 100
M  END
>  <TORSDO>  (57) 
F 18

>  <SCORE>  (57) 
-12.810

>  <name>  (57) 
56

>  <ligand_id>  (57) 
56

>  <original_smiles>  (57) 
[H]C([H])=C1C([H])([H])C([H])(Oc2c([H])c([H])c3c(c2[H])C([H])([H])N(C(=O)C([H])(N([H])C(=O)C([H])(N([H])C([H])([H])[H])C([H])([H])[H])C(C([H])([H])[H])(C([H])([H])[H])C([H])([H])[H])C([H])(C(=O)N([H])C2([H])c4c([H])c([H])c([H])c([H])c4C([H])([H])C([H])([H])C2([H])[H])C3([H])[H])C([H])([H])[N+]1([H])C([H])([H])c1c([H])c(C([H])([H])[H])c(N([H])C(=O)N2C([H])([H])C([H])([H])C([H])([H])C([H])(n3nc(-c4c([H])c([H])c(Oc5c([H])c([H])c(F)c([H])c5F)c([H])c4[H])c(C(=O)N([H])[H])c3N([H])[H])C2([H])[H])c([H])c1C([H])([H])[H]

>  <smiles>  (57) 
[H]C([H])=C1C([H])([H])C([H])(Oc2c([H])c([H])c3c(c2[H])C([H])([H])N(C(=O)C([H])(N([H])C(=O)C([H])(N([H])C([H])([H])[H])C([H])([H])[H])C(C([H])([H])[H])(C([H])([H])[H])C([H])([H])[H])C([H])(C(=O)N([H])C2([H])c4c([H])c([H])c([H])c([H])c4C([H])([H])C([H])([H])C2([H])[H])C3([H])[H])C([H])([H])[N+]1([H])C([H])([H])c1c([H])c(C([H])([H])[H])c(N([H])C(=O)N2C([H])([H])C([H])([H])C([H])([H])C([H])(n3nc(-c4c([H])c([H])c(Oc5c([H])c([H])c(F)c([H])c5F)c([H])c4[H])c(C(=O)N([H])[H])c3N([H])[H])C2([H])[H])c([H])c1C([H])([H])[H]

$$$$
57:0:0
     RDKit          3D

 95104  0  0  1  0  0  0  0  0999 V2000
  -27.7940  -22.8640   20.5950 C   0  0  0  0  0  0  0  0  0  0  0  0
  -27.0130  -21.8100   20.8870 C   0  0  0  0  0  2  0  0  0  0  0  0
  -27.4470  -24.3560   20.7580 C   0  0  0  0  0  2  0  0  0  0  0  0
  -29.6790  -24.1870   20.0610 C   0  0  0  0  0  2  0  0  0  0  0  0
  -28.4490  -25.1900   19.9290 C   0  0  0  0  0  3  0  0  0  0  0  0
  -29.1600  -22.7510   19.9940 N   0  0  1  0  0  4  0  0  0  0  0  0
  -29.0460  -22.5660   19.0090 H   0  0  0  0  0  0  0  0  0  0  0  0
  -28.5560  -26.6650   20.2690 O   0  0  0  0  0  0  0  0  0  0  0  0
  -24.7100  -32.0090   23.3450 C   0  0  0  0  0  0  0  0  0  0  0  0
  -27.4340  -27.5320   20.2010 C   0  0  0  0  0  0  0  0  0  0  0  0
  -23.5470  -30.6190   21.6720 C   0  0  0  0  0  3  0  0  0  0  0  0
  -25.0400  -29.1330   20.2120 C   0  0  0  0  0  0  0  0  0  0  0  0
  -26.0850  -30.9850   21.5100 C   0  0  0  0  0  2  0  0  0  0  0  0
  -26.1970  -29.6210   20.8310 C   0  0  0  0  0  0  0  0  0  0  0  0
  -27.3930  -28.8310   20.8180 C   0  0  0  0  0  3  0  0  0  0  0  0
  -26.2530  -27.1260   19.5390 C   0  0  0  0  0  3  0  0  0  0  0  0
  -25.0720  -27.8920   19.5610 C   0  0  0  0  0  3  0  0  0  0  0  0
  -23.7830  -29.9790   20.2780 C   0  0  0  0  0  2  0  0  0  0  0  0
  -24.7990  -31.2230   22.2320 N   0  0  0  0  0  0  0  0  0  0  0  0
  -23.6180  -32.2490   23.8800 O   0  0  0  0  0  0  0  0  0  0  0  0
  -22.9040  -29.5670   22.6080 C   0  0  0  0  0  0  0  0  0  0  0  0
  -21.5860  -29.3480   22.4580 N   0  0  0  0  0  0  0  0  0  0  0  0
  -23.5910  -28.9520   23.4270 O   0  0  0  0  0  0  0  0  0  0  0  0
  -21.0900  -29.8970   21.7710 H   0  0  0  0  0  0  0  0  0  0  0  0
  -18.2390  -28.0460   22.9090 C   0  0  0  0  0  0  0  0  0  0  0  0
  -20.7870  -28.3740   23.2050 C   0  0  0  0  0  3  0  0  0  0  0  0
  -20.9350  -26.9580   22.6020 C   0  0  0  0  0  2  0  0  0  0  0  0
  -19.8500  -26.6230   21.5740 C   0  0  0  0  0  2  0  0  0  0  0  0
  -18.4600  -26.7160   22.2080 C   0  0  0  0  0  2  0  0  0  0  0  0
  -19.3320  -28.8320   23.3630 C   0  0  0  0  0  0  0  0  0  0  0  0
  -19.0730  -30.0740   23.9800 C   0  0  0  0  0  3  0  0  0  0  0  0
  -17.7530  -30.5340   24.1470 C   0  0  0  0  0  3  0  0  0  0  0  0
  -16.6740  -29.7460   23.7100 C   0  0  0  0  0  3  0  0  0  0  0  0
  -16.9180  -28.5040   23.0960 C   0  0  0  0  0  3  0  0  0  0  0  0
  -25.9740  -32.6590   23.9860 C   0  0  0  0  0  3  0  0  0  0  0  0
  -25.6500  -34.0620   24.2850 N   0  0  0  0  0  0  0  0  0  0  0  0
  -25.9980  -35.1040   23.5210 C   0  0  0  0  0  0  0  0  0  0  0  0
  -26.6930  -34.9870   22.5070 O   0  0  0  0  0  0  0  0  0  0  0  0
  -25.0350  -34.2260   25.0680 H   0  0  0  0  0  0  0  0  0  0  0  0
  -24.2700  -36.8850   23.1000 C   0  0  0  0  0  1  0  0  0  0  0  0
  -25.4960  -36.4980   23.9440 C   0  0  0  0  0  3  0  0  0  0  0  0
  -27.6020  -37.4130   24.8150 C   0  0  0  0  0  1  0  0  0  0  0  0
  -26.5260  -37.5550   23.8380 N   0  0  0  0  0  0  0  0  0  0  0  0
  -26.1110  -38.4770   23.9490 H   0  0  0  0  0  0  0  0  0  0  0  0
  -26.4630  -31.9120   25.2900 C   0  0  1  0  0  0  0  0  0  0  0  0
  -25.3380  -31.6660   26.3230 C   0  0  0  0  0  1  0  0  0  0  0  0
  -27.0860  -30.5420   24.9380 C   0  0  0  0  0  1  0  0  0  0  0  0
  -27.5750  -32.7390   25.9790 C   0  0  0  0  0  1  0  0  0  0  0  0
  -30.0570  -21.5970   20.5030 C   0  0  0  0  0  2  0  0  0  0  0  0
  -29.9030  -20.0110   18.4790 C   0  0  0  0  0  3  0  0  0  0  0  0
  -29.9570  -18.7640   17.8240 C   0  0  0  0  0  3  0  0  0  0  0  0
  -29.9900  -20.1130   19.8830 C   0  0  0  0  0  0  0  0  0  0  0  0
  -30.1410  -18.8460   20.6110 C   0  0  0  0  0  0  0  0  0  0  0  0
  -30.2200  -17.5430   19.9440 C   0  0  0  0  0  0  0  0  0  0  0  0
  -30.1100  -17.5580   18.5320 C   0  0  0  0  0  0  0  0  0  0  0  0
  -30.2550  -18.8980   22.1260 C   0  0  0  0  0  1  0  0  0  0  0  0
  -30.1060  -16.3990   17.8300 F   0  0  0  0  0  0  0  0  0  0  0  0
  -31.0090  -15.0840   20.2390 C   0  0  0  0  0  0  0  0  0  0  0  0
  -30.7940  -12.7920   19.2710 C   0  0  0  0  0  2  0  0  0  0  0  0
  -29.8500  -12.8590   18.0500 C   0  0  0  0  0  2  0  0  0  0  0  0
  -28.3820  -12.7040   18.4920 C   0  0  0  0  0  2  0  0  0  0  0  0
  -28.0230  -13.6030   19.7050 C   0  0  0  0  0  3  0  0  0  0  0  0
  -29.0870  -13.5160   20.8210 C   0  0  0  0  0  2  0  0  0  0  0  0
  -30.3870  -13.8540   20.2240 N   0  0  0  0  0  0  0  0  0  0  0  0
  -32.1710  -15.1890   19.8360 O   0  0  0  0  0  0  0  0  0  0  0  0
  -30.2800  -16.2070   20.6020 N   0  0  0  0  0  0  0  0  0  0  0  0
  -29.4670  -15.9930   21.1570 H   0  0  0  0  0  0  0  0  0  0  0  0
  -25.6540  -14.2080   20.4820 C   0  0  0  0  0  0  0  0  0  0  0  0
  -24.5820  -13.4400   20.8470 C   0  0  0  0  0  0  0  0  0  0  0  0
  -25.0240  -12.0840   20.7720 C   0  0  0  0  0  0  0  0  0  0  0  0
  -26.6810  -13.3220   20.2050 N   0  0  0  0  0  0  0  0  0  0  0  0
  -26.3090  -12.0360   20.4420 N   0  0  0  0  0  0  0  0  0  0  0  0
  -24.2820  -10.8280   20.9390 C   0  0  0  0  0  0  0  0  0  0  0  0
  -24.6690   -9.8610   21.8940 C   0  0  0  0  0  3  0  0  0  0  0  0
  -23.9260   -8.6700   22.0490 C   0  0  0  0  0  3  0  0  0  0  0  0
  -22.7820   -8.4370   21.2490 C   0  0  0  0  0  0  0  0  0  0  0  0
  -22.4150   -9.3920   20.2840 C   0  0  0  0  0  3  0  0  0  0  0  0
  -23.1570  -10.5730   20.1270 C   0  0  0  0  0  3  0  0  0  0  0  0
  -22.0170   -7.2980   21.3110 O   0  0  0  0  0  0  0  0  0  0  0  0
  -21.8400   -6.6140   22.4860 C   0  0  0  0  0  0  0  0  0  0  0  0
  -21.2340   -7.2110   23.6130 C   0  0  0  0  0  3  0  0  0  0  0  0
  -21.0080   -6.4500   24.7780 C   0  0  0  0  0  3  0  0  0  0  0  0
  -21.3790   -5.0930   24.8150 C   0  0  0  0  0  0  0  0  0  0  0  0
  -21.9780   -4.4950   23.6930 C   0  0  0  0  0  3  0  0  0  0  0  0
  -22.2050   -5.2530   22.5310 C   0  0  0  0  0  0  0  0  0  0  0  0
  -22.7620   -4.6660   21.4450 F   0  0  0  0  0  0  0  0  0  0  0  0
  -21.1560   -4.3590   25.9310 F   0  0  0  0  0  0  0  0  0  0  0  0
  -23.1980  -13.9300   21.1540 C   0  0  0  0  0  0  0  0  0  0  0  0
  -22.4780  -13.2280   22.0220 N   0  0  0  0  0  0  0  0  0  0  0  0
  -22.7630  -14.9700   20.6600 O   0  0  0  0  0  0  0  0  0  0  0  0
  -22.8440  -12.3840   22.4400 H   0  0  0  0  0  0  0  0  0  0  0  0
  -21.5500  -13.5370   22.2730 H   0  0  0  0  0  0  0  0  0  0  0  0
  -25.8360  -15.5800   20.3390 N   0  0  0  0  0  0  0  0  0  0  0  0
  -25.0770  -16.2400   20.4770 H   0  0  0  0  0  0  0  0  0  0  0  0
  -26.6790  -16.0170   19.9900 H   0  0  0  0  0  0  0  0  0  0  0  0
  1  3  1  0
  1  2  2  0
  5  4  1  0
  5  8  1  0
  5  3  1  0
  6  4  1  0
  6 49  1  0
  6  1  1  0
  6  7  1  6
  9 20  2  0
 10  8  1  0
 10 15  1  0
 11 19  1  0
 11 21  1  0
 12 18  1  0
 12 14  1  0
 13 19  1  0
 14 13  1  0
 15 14  2  0
 16 17  1  0
 16 10  2  0
 17 12  2  0
 18 11  1  0
 19  9  1  0
 21 23  2  0
 22 21  1  0
 24 22  1  0
 25 34  2  0
 25 30  1  0
 26 22  1  0
 26 30  1  0
 27 26  1  0
 28 29  1  0
 28 27  1  0
 29 25  1  0
 30 31  2  0
 31 32  1  0
 33 32  2  0
 34 33  1  0
 35  9  1  0
 35 36  1  0
 35 45  1  0
 36 39  1  0
 37 41  1  0
 37 36  1  0
 38 37  2  0
 41 40  1  0
 43 41  1  0
 43 44  1  0
 43 42  1  0
 45 48  1  1
 45 46  1  0
 47 45  1  0
 50 52  1  0
 51 50  2  0
 51 55  1  0
 52 49  1  0
 52 53  2  0
 53 56  1  0
 54 66  1  0
 54 53  1  0
 55 54  2  0
 57 55  1  0
 58 66  1  0
 59 64  1  0
 60 61  1  0
 60 59  1  0
 62 61  1  0
 62 71  1  0
 62 63  1  0
 64 58  1  0
 64 63  1  0
 65 58  2  0
 66 67  1  0
 68 69  2  0
 69 88  1  0
 70 69  1  0
 70 73  1  0
 71 72  1  0
 71 68  1  0
 72 70  2  0
 73 74  1  0
 74 75  2  0
 76 79  1  0
 76 75  1  0
 77 76  2  0
 78 77  1  0
 78 73  2  0
 79 80  1  0
 80 85  2  0
 80 81  1  0
 81 82  2  0
 82 83  1  0
 83 87  1  0
 84 83  2  0
 85 84  1  0
 86 85  1  0
 88 89  1  0
 89 92  1  0
 89 91  1  0
 90 88  2  0
 93 94  1  0
 93 68  1  0
 95 93  1  0
M  ISO  4   5 101   8 101  58 100  66 100
M  END
>  <TORSDO>  (58) 
F 18

>  <SCORE>  (58) 
-13.044

>  <name>  (58) 
57

>  <ligand_id>  (58) 
57

>  <original_smiles>  (58) 
[H]C([H])=C1C([H])([H])C([H])(Oc2c([H])c([H])c3c(c2[H])C([H])([H])N(C(=O)C([H])(N([H])C(=O)C([H])(N([H])C([H])([H])[H])C([H])([H])[H])C(C([H])([H])[H])(C([H])([H])[H])C([H])([H])[H])C([H])(C(=O)N([H])C2([H])c4c([H])c([H])c([H])c([H])c4C([H])([H])C([H])([H])C2([H])[H])C3([H])[H])C([H])([H])[N+]1([H])C([H])([H])c1c([H])c([H])c(F)c(N([H])C(=O)N2C([H])([H])C([H])([H])C([H])([H])C([H])(n3nc(-c4c([H])c([H])c(Oc5c([H])c([H])c(F)c([H])c5F)c([H])c4[H])c(C(=O)N([H])[H])c3N([H])[H])C2([H])[H])c1C([H])([H])[H]

>  <smiles>  (58) 
[H]C([H])=C1C([H])([H])C([H])(Oc2c([H])c([H])c3c(c2[H])C([H])([H])N(C(=O)C([H])(N([H])C(=O)C([H])(N([H])C([H])([H])[H])C([H])([H])[H])C(C([H])([H])[H])(C([H])([H])[H])C([H])([H])[H])C([H])(C(=O)N([H])C2([H])c4c([H])c([H])c([H])c([H])c4C([H])([H])C([H])([H])C2([H])[H])C3([H])[H])C([H])([H])[N+]1([H])C([H])([H])c1c([H])c([H])c(F)c(N([H])C(=O)N2C([H])([H])C([H])([H])C([H])([H])C([H])(n3nc(-c4c([H])c([H])c(Oc5c([H])c([H])c(F)c([H])c5F)c([H])c4[H])c(C(=O)N([H])[H])c3N([H])[H])C2([H])[H])c1C([H])([H])[H]

$$$$
58:0:0
     RDKit          3D

 97106  0  0  1  0  0  0  0  0999 V2000
  -27.6600  -23.0170   20.6330 C   0  0  0  0  0  0  0  0  0  0  0  0
  -26.5890  -22.2160   20.4540 C   0  0  0  0  0  3  0  0  0  0  0  0
  -27.5490  -24.5040   20.9520 C   0  0  0  0  0  2  0  0  0  0  0  0
  -29.6430  -24.1570   20.0020 C   0  0  0  0  0  2  0  0  0  0  0  0
  -28.4280  -25.1760   19.9050 C   0  0  0  0  0  3  0  0  0  0  0  0
  -26.5170  -20.8370   19.8360 C   0  0  0  0  0  1  0  0  0  0  0  0
  -29.0940  -22.7470   20.2210 N   0  0  1  0  0  4  0  0  0  0  0  0
  -29.0890  -22.2960   19.3160 H   0  0  0  0  0  0  0  0  0  0  0  0
  -28.5310  -26.6630   20.0600 O   0  0  0  0  0  0  0  0  0  0  0  0
  -24.4790  -31.8320   23.0740 C   0  0  0  0  0  0  0  0  0  0  0  0
  -27.3700  -27.4660   19.9690 C   0  0  0  0  0  0  0  0  0  0  0  0
  -23.3640  -30.4070   21.3900 C   0  0  0  0  0  3  0  0  0  0  0  0
  -24.9130  -28.9640   19.9460 C   0  0  0  0  0  0  0  0  0  0  0  0
  -25.8850  -30.8630   21.2400 C   0  0  0  0  0  2  0  0  0  0  0  0
  -26.0480  -29.5010   20.5670 C   0  0  0  0  0  0  0  0  0  0  0  0
  -27.2760  -28.7690   20.5600 C   0  0  0  0  0  3  0  0  0  0  0  0
  -26.2110  -26.9970   19.3050 C   0  0  0  0  0  3  0  0  0  0  0  0
  -25.0030  -27.7220   19.3000 C   0  0  0  0  0  3  0  0  0  0  0  0
  -23.6270  -29.7670   19.9990 C   0  0  0  0  0  2  0  0  0  0  0  0
  -24.5930  -31.0500   21.9580 N   0  0  0  0  0  0  0  0  0  0  0  0
  -23.3770  -32.0400   23.6020 O   0  0  0  0  0  0  0  0  0  0  0  0
  -22.7490  -29.3390   22.3270 C   0  0  0  0  0  0  0  0  0  0  0  0
  -21.4330  -29.0980   22.1920 N   0  0  0  0  0  0  0  0  0  0  0  0
  -23.4540  -28.7300   23.1380 O   0  0  0  0  0  0  0  0  0  0  0  0
  -20.9180  -29.6660   21.5350 H   0  0  0  0  0  0  0  0  0  0  0  0
  -18.1170  -27.6890   22.5810 C   0  0  0  0  0  0  0  0  0  0  0  0
  -20.6560  -28.0880   22.9180 C   0  0  0  0  0  3  0  0  0  0  0  0
  -20.8570  -26.6840   22.3090 C   0  0  0  0  0  2  0  0  0  0  0  0
  -19.7860  -26.3040   21.2750 C   0  0  0  0  0  2  0  0  0  0  0  0
  -18.3810  -26.3650   21.8860 C   0  0  0  0  0  2  0  0  0  0  0  0
  -19.1840  -28.5010   23.0510 C   0  0  0  0  0  0  0  0  0  0  0  0
  -18.8840  -29.7380   23.6630 C   0  0  0  0  0  3  0  0  0  0  0  0
  -17.5510  -30.1680   23.8080 C   0  0  0  0  0  3  0  0  0  0  0  0
  -16.4980  -29.3550   23.3530 C   0  0  0  0  0  3  0  0  0  0  0  0
  -16.7830  -28.1190   22.7480 C   0  0  0  0  0  3  0  0  0  0  0  0
  -25.7230  -32.5160   23.7250 C   0  0  0  0  0  3  0  0  0  0  0  0
  -25.3410  -33.8880   24.0820 N   0  0  0  0  0  0  0  0  0  0  0  0
  -25.6310  -34.9720   23.3510 C   0  0  0  0  0  0  0  0  0  0  0  0
  -26.3210  -34.9260   22.3290 O   0  0  0  0  0  0  0  0  0  0  0  0
  -24.7270  -33.9970   24.8750 H   0  0  0  0  0  0  0  0  0  0  0  0
  -23.8320  -36.7000   23.0000 C   0  0  0  0  0  1  0  0  0  0  0  0
  -25.0700  -36.3240   23.8320 C   0  0  0  0  0  3  0  0  0  0  0  0
  -27.1390  -37.2830   24.7460 C   0  0  0  0  0  1  0  0  0  0  0  0
  -26.0580  -37.4260   23.7750 N   0  0  0  0  0  0  0  0  0  0  0  0
  -25.6040  -38.3220   23.9340 H   0  0  0  0  0  0  0  0  0  0  0  0
  -26.2630  -31.7410   24.9910 C   0  0  1  0  0  0  0  0  0  0  0  0
  -25.1680  -31.4120   26.0340 C   0  0  0  0  0  1  0  0  0  0  0  0
  -26.9380  -30.4110   24.5770 C   0  0  0  0  0  1  0  0  0  0  0  0
  -27.3470  -32.5880   25.6970 C   0  0  0  0  0  1  0  0  0  0  0  0
  -29.9020  -21.8150   21.1470 C   0  0  0  0  0  2  0  0  0  0  0  0
  -29.0720  -19.3670   20.9470 C   0  0  0  0  0  3  0  0  0  0  0  0
  -30.1670  -20.2610   20.8630 C   0  0  0  0  0  0  0  0  0  0  0  0
  -31.4610  -19.6210   20.7690 C   0  0  0  0  0  0  0  0  0  0  0  0
  -31.5970  -18.1740   20.7520 C   0  0  0  0  0  0  0  0  0  0  0  0
  -30.4560  -17.3030   20.7170 C   0  0  0  0  0  0  0  0  0  0  0  0
  -29.2040  -17.9540   20.8640 C   0  0  0  0  0  0  0  0  0  0  0  0
  -32.7250  -20.4790   20.7100 C   0  0  0  0  0  1  0  0  0  0  0  0
  -32.9800  -17.5300   20.8660 C   0  0  0  0  0  1  0  0  0  0  0  0
  -27.7740  -16.9980   21.0000 Cl  0  0  0  0  0  0  0  0  0  0  0  0
  -30.8730  -14.9010   19.7380 C   0  0  0  0  0  0  0  0  0  0  0  0
  -30.4470  -12.7840   18.4830 C   0  0  0  0  0  2  0  0  0  0  0  0
  -29.3940  -13.0160   17.3770 C   0  0  0  0  0  2  0  0  0  0  0  0
  -27.9690  -12.8490   17.9380 C   0  0  0  0  0  2  0  0  0  0  0  0
  -27.7630  -13.6270   19.2640 C   0  0  0  0  0  3  0  0  0  0  0  0
  -28.9140  -13.3620   20.2640 C   0  0  0  0  0  2  0  0  0  0  0  0
  -30.1820  -13.7180   19.6100 N   0  0  0  0  0  0  0  0  0  0  0  0
  -31.8590  -15.0930   19.0240 O   0  0  0  0  0  0  0  0  0  0  0  0
  -30.4420  -15.8190   20.6700 N   0  0  0  0  0  0  0  0  0  0  0  0
  -29.7530  -15.4280   21.2960 H   0  0  0  0  0  0  0  0  0  0  0  0
  -25.4360  -14.2150   20.1900 C   0  0  0  0  0  0  0  0  0  0  0  0
  -24.4080  -13.4380   20.6580 C   0  0  0  0  0  0  0  0  0  0  0  0
  -24.8560  -12.0880   20.5490 C   0  0  0  0  0  0  0  0  0  0  0  0
  -26.4540  -13.3370   19.8490 N   0  0  0  0  0  0  0  0  0  0  0  0
  -26.1130  -12.0480   20.1190 N   0  0  0  0  0  0  0  0  0  0  0  0
  -24.1360  -10.8280   20.7800 C   0  0  0  0  0  0  0  0  0  0  0  0
  -24.5960   -9.8770   21.7150 C   0  0  0  0  0  3  0  0  0  0  0  0
  -23.8770   -8.6800   21.9270 C   0  0  0  0  0  3  0  0  0  0  0  0
  -22.6840   -8.4330   21.2070 C   0  0  0  0  0  0  0  0  0  0  0  0
  -22.2440   -9.3740   20.2590 C   0  0  0  0  0  3  0  0  0  0  0  0
  -22.9640  -10.5620   20.0450 C   0  0  0  0  0  3  0  0  0  0  0  0
  -21.9370   -7.2840   21.3270 O   0  0  0  0  0  0  0  0  0  0  0  0
  -21.8680   -6.5930   22.5090 C   0  0  0  0  0  0  0  0  0  0  0  0
  -21.4270   -7.2040   23.7040 C   0  0  0  0  0  3  0  0  0  0  0  0
  -21.3020   -6.4390   24.8810 C   0  0  0  0  0  3  0  0  0  0  0  0
  -21.6090   -5.0650   24.8670 C   0  0  0  0  0  0  0  0  0  0  0  0
  -22.0420   -4.4550   23.6760 C   0  0  0  0  0  3  0  0  0  0  0  0
  -22.1680   -5.2160   22.5020 C   0  0  0  0  0  0  0  0  0  0  0  0
  -22.5650   -4.6170   21.3530 F   0  0  0  0  0  0  0  0  0  0  0  0
  -21.4840   -4.3290   25.9960 F   0  0  0  0  0  0  0  0  0  0  0  0
  -23.0500  -13.9190   21.0830 C   0  0  0  0  0  0  0  0  0  0  0  0
  -22.4250  -13.2410   22.0440 N   0  0  0  0  0  0  0  0  0  0  0  0
  -22.5510  -14.9320   20.5990 O   0  0  0  0  0  0  0  0  0  0  0  0
  -22.8490  -12.4320   22.4710 H   0  0  0  0  0  0  0  0  0  0  0  0
  -21.5150  -13.5450   22.3620 H   0  0  0  0  0  0  0  0  0  0  0  0
  -25.5770  -15.5830   20.0130 N   0  0  0  0  0  0  0  0  0  0  0  0
  -24.8340  -16.2350   20.2370 H   0  0  0  0  0  0  0  0  0  0  0  0
  -26.4230  -16.0400   19.7010 H   0  0  0  0  0  0  0  0  0  0  0  0
  1  3  1  0
  2  1  2  0
  4  7  1  0
  5  4  1  0
  5  9  1  0
  5  3  1  0
  6  2  1  0
  7  1  1  0
  7 50  1  0
  7  8  1  6
 10 21  2  0
 11  9  1  0
 11 16  1  0
 12 20  1  0
 12 22  1  0
 13 19  1  0
 13 15  1  0
 14 20  1  0
 15 14  1  0
 16 15  2  0
 17 11  2  0
 18 17  1  0
 18 13  2  0
 19 12  1  0
 20 10  1  0
 22 24  2  0
 23 22  1  0
 25 23  1  0
 26 35  2  0
 26 31  1  0
 27 23  1  0
 27 31  1  0
 28 27  1  0
 29 30  1  0
 29 28  1  0
 30 26  1  0
 31 32  2  0
 32 33  1  0
 34 33  2  0
 35 34  1  0
 36 10  1  0
 36 37  1  0
 36 46  1  0
 37 40  1  0
 38 42  1  0
 38 37  1  0
 39 38  2  0
 42 41  1  0
 44 42  1  0
 44 45  1  0
 44 43  1  0
 46 49  1  1
 46 47  1  0
 48 46  1  0
 52 51  2  0
 52 50  1  0
 53 52  1  0
 54 53  2  0
 54 58  1  0
 55 54  1  0
 55 56  2  0
 56 51  1  0
 56 59  1  0
 57 53  1  0
 60 68  1  0
 61 66  1  0
 62 63  1  0
 62 61  1  0
 64 63  1  0
 64 73  1  0
 64 65  1  0
 66 60  1  0
 66 65  1  0
 67 60  2  0
 68 55  1  0
 68 69  1  0
 70 71  2  0
 71 90  1  0
 72 71  1  0
 72 75  1  0
 73 74  1  0
 73 70  1  0
 74 72  2  0
 75 76  1  0
 76 77  2  0
 78 81  1  0
 78 77  1  0
 79 78  2  0
 80 79  1  0
 80 75  2  0
 81 82  1  0
 82 83  1  0
 83 84  2  0
 85 84  1  0
 85 89  1  0
 86 85  2  0
 87 82  2  0
 87 86  1  0
 88 87  1  0
 90 91  1  0
 91 94  1  0
 91 93  1  0
 92 90  2  0
 95 70  1  0
 95 96  1  0
 97 95  1  0
M  ISO  4   5 101   9 101  60 100  68 100
M  END
>  <TORSDO>  (59) 
F 18

>  <SCORE>  (59) 
-10.884

>  <name>  (59) 
58

>  <ligand_id>  (59) 
58

>  <original_smiles>  (59) 
[H]C(=C1C([H])([H])C([H])(Oc2c([H])c([H])c3c(c2[H])C([H])([H])N(C(=O)C([H])(N([H])C(=O)C([H])(N([H])C([H])([H])[H])C([H])([H])[H])C(C([H])([H])[H])(C([H])([H])[H])C([H])([H])[H])C([H])(C(=O)N([H])C2([H])c4c([H])c([H])c([H])c([H])c4C([H])([H])C([H])([H])C2([H])[H])C3([H])[H])C([H])([H])[N+]1([H])C([H])([H])c1c([H])c(Cl)c(N([H])C(=O)N2C([H])([H])C([H])([H])C([H])([H])C([H])(n3nc(-c4c([H])c([H])c(Oc5c([H])c([H])c(F)c([H])c5F)c([H])c4[H])c(C(=O)N([H])[H])c3N([H])[H])C2([H])[H])c(C([H])([H])[H])c1C([H])([H])[H])C([H])([H])[H]

>  <smiles>  (59) 
[H]C(=C1C([H])([H])C([H])(Oc2c([H])c([H])c3c(c2[H])C([H])([H])N(C(=O)C([H])(N([H])C(=O)C([H])(N([H])C([H])([H])[H])C([H])([H])[H])C(C([H])([H])[H])(C([H])([H])[H])C([H])([H])[H])C([H])(C(=O)N([H])C2([H])c4c([H])c([H])c([H])c([H])c4C([H])([H])C([H])([H])C2([H])[H])C3([H])[H])C([H])([H])[N+]1([H])C([H])([H])c1c([H])c(Cl)c(N([H])C(=O)N2C([H])([H])C([H])([H])C([H])([H])C([H])(n3nc(-c4c([H])c([H])c(Oc5c([H])c([H])c(F)c([H])c5F)c([H])c4[H])c(C(=O)N([H])[H])c3N([H])[H])C2([H])[H])c(C([H])([H])[H])c1C([H])([H])[H])C([H])([H])[H]

$$$$
59:0:0
     RDKit          3D

 95106  0  0  1  0  0  0  0  0999 V2000
  -28.7750  -22.4130   20.5710 C   0  0  0  0  0  0  0  0  0  0  0  0
  -27.7330  -21.6500   20.1470 C   0  0  0  0  0  2  0  0  0  0  0  0
  -28.6840  -23.9140   21.0680 C   0  0  0  0  0  2  0  0  0  0  0  0
  -30.5570  -23.3430   19.7050 C   0  0  0  0  0  2  0  0  0  0  0  0
  -29.6380  -24.8350   20.1200 C   0  0  0  0  0  3  0  0  0  0  0  0
  -30.1910  -22.0150   20.3700 N   0  0  2  0  0  4  0  0  0  0  0  0
  -30.6440  -22.1270   21.2970 H   0  0  0  0  0  0  0  0  0  0  0  0
  -29.9660  -26.5280   20.2080 O   0  0  0  0  0  0  0  0  0  0  0  0
  -26.6530  -30.4230   25.4360 C   0  0  0  0  0  0  0  0  0  0  0  0
  -29.0800  -27.7070   20.4740 C   0  0  0  0  0  0  0  0  0  0  0  0
  -25.4160  -29.9510   23.3390 C   0  0  0  0  0  3  0  0  0  0  0  0
  -26.8420  -29.4800   21.2310 C   0  0  0  0  0  0  0  0  0  0  0  0
  -27.9490  -30.3840   23.2750 C   0  0  0  0  0  2  0  0  0  0  0  0
  -28.0090  -29.5300   21.9920 C   0  0  0  0  0  0  0  0  0  0  0  0
  -29.1150  -28.6590   21.6000 C   0  0  0  0  0  3  0  0  0  0  0  0
  -27.9510  -27.9300   19.6480 C   0  0  0  0  0  3  0  0  0  0  0  0
  -26.8450  -28.7540   20.0230 C   0  0  0  0  0  3  0  0  0  0  0  0
  -25.6140  -30.1580   21.7970 C   0  0  0  0  0  2  0  0  0  0  0  0
  -26.6820  -30.2870   24.0730 N   0  0  0  0  0  0  0  0  0  0  0  0
  -25.5990  -30.2750   26.0680 O   0  0  0  0  0  0  0  0  0  0  0  0
  -24.8830  -28.5380   23.6590 C   0  0  0  0  0  0  0  0  0  0  0  0
  -23.7060  -28.1700   23.1400 N   0  0  0  0  0  0  0  0  0  0  0  0
  -25.5400  -27.7880   24.3710 O   0  0  0  0  0  0  0  0  0  0  0  0
  -23.1970  -28.8390   22.5920 H   0  0  0  0  0  0  0  0  0  0  0  0
  -21.1570  -25.9350   21.7870 C   0  0  0  0  0  0  0  0  0  0  0  0
  -23.0780  -26.8520   23.2730 C   0  0  0  0  0  3  0  0  0  0  0  0
  -23.9460  -25.7400   22.6390 C   0  0  0  0  0  2  0  0  0  0  0  0
  -23.5730  -25.4240   21.1850 C   0  0  0  0  0  2  0  0  0  0  0  0
  -22.1090  -24.9700   21.0900 C   0  0  0  0  0  2  0  0  0  0  0  0
  -21.6220  -26.8280   22.7940 C   0  0  0  0  0  0  0  0  0  0  0  0
  -20.7020  -27.7130   23.3860 C   0  0  0  0  0  3  0  0  0  0  0  0
  -19.3530  -27.7400   22.9830 C   0  0  0  0  0  3  0  0  0  0  0  0
  -18.8970  -26.8490   21.9980 C   0  0  0  0  0  3  0  0  0  0  0  0
  -19.7950  -25.9460   21.4020 C   0  0  0  0  0  3  0  0  0  0  0  0
  -27.9280  -30.7760   26.2610 C   0  0  0  0  0  3  0  0  0  0  0  0
  -28.2700  -29.7670   27.4280 C   0  0  1  0  0  0  0  0  0  0  0  0
  -27.0630  -29.4310   28.3280 C   0  0  0  0  0  1  0  0  0  0  0  0
  -28.8380  -28.4330   26.9160 C   0  0  0  0  0  1  0  0  0  0  0  0
  -29.3740  -30.3750   28.3210 C   0  0  0  0  0  1  0  0  0  0  0  0
  -27.7250  -32.1260   26.8180 N   0  0  0  0  0  0  0  0  0  0  0  0
  -28.4040  -33.2330   26.4790 C   0  0  0  0  0  0  0  0  0  0  0  0
  -29.3240  -33.2270   25.6580 O   0  0  0  0  0  0  0  0  0  0  0  0
  -26.9730  -32.2160   27.4850 H   0  0  0  0  0  0  0  0  0  0  0  0
  -27.1920  -35.4310   26.1830 C   0  0  0  0  0  1  0  0  0  0  0  0
  -27.9960  -34.5580   27.1610 C   0  0  0  0  0  3  0  0  0  0  0  0
  -29.8900  -34.6580   28.7260 C   0  0  0  0  0  1  0  0  0  0  0  0
  -29.1360  -35.3410   27.6780 N   0  0  0  0  0  0  0  0  0  0  0  0
  -28.8160  -36.2270   28.0600 H   0  0  0  0  0  0  0  0  0  0  0  0
  -30.2170  -20.3790   20.1220 C   0  0  0  0  0  2  0  0  0  0  0  0
  -32.4300  -17.0570   19.0620 C   0  0  0  0  0  3  0  0  0  0  0  0
  -31.7780  -18.3490   18.7780 C   0  0  0  0  0  3  0  0  0  0  0  0
  -30.9680  -16.6490   20.7820 C   0  0  0  0  0  3  0  0  0  0  0  0
  -32.2910  -16.3060   20.2710 C   0  0  0  0  0  0  0  0  0  0  0  0
  -30.8520  -18.9750   19.8110 C   0  0  0  0  0  0  0  0  0  0  0  0
  -30.2570  -17.8160   20.5220 C   0  0  0  0  0  0  0  0  0  0  0  0
  -28.8180  -17.8700   21.0310 C   0  0  0  0  0  1  0  0  0  0  0  0
  -33.0560  -14.9840   20.7500 C   0  0  0  0  0  2  0  0  0  0  0  0
  -33.9890  -13.5160   18.4570 C   0  0  0  0  0  0  0  0  0  0  0  0
  -32.5760  -12.8120   16.8680 C   0  0  0  0  0  2  0  0  0  0  0  0
  -31.4620  -13.3140   17.8130 C   0  0  0  0  0  2  0  0  0  0  0  0
  -31.5550  -12.4040   19.2700 C   0  0  1  0  0  0  0  0  0  0  0  0
  -30.7840  -11.1010   18.9610 C   0  0  0  0  0  3  0  0  0  0  0  0
  -32.1310  -11.0960   18.0000 C   0  0  0  0  0  3  0  0  0  0  0  0
  -33.3710  -12.2390   17.8890 N   0  0  0  0  0  0  0  0  0  0  0  0
  -34.7810  -14.1130   17.6790 O   0  0  0  0  0  0  0  0  0  0  0  0
  -33.8770  -13.9750   19.8200 N   0  0  0  0  0  0  0  0  0  0  0  0
  -34.5260  -13.5220   20.4530 H   0  0  0  0  0  0  0  0  0  0  0  0
  -29.2440  -12.9440   20.4210 C   0  0  0  0  0  0  0  0  0  0  0  0
  -28.1160  -12.5850   21.1450 C   0  0  0  0  0  0  0  0  0  0  0  0
  -28.1070  -11.1890   21.0610 C   0  0  0  0  0  3  0  0  0  0  0  0
  -29.8750  -11.7780   19.9220 N   0  0  2  0  0  4  0  0  0  0  0  0
  -29.2170  -10.7700   20.5180 N   0  0  0  0  0  2  0  0  0  0  0  0
  -27.1690  -10.1150   21.1940 C   0  0  0  0  0  0  0  0  0  0  0  0
  -27.2130   -9.1920   22.2540 C   0  0  0  0  0  3  0  0  0  0  0  0
  -26.1840   -8.2340   22.4190 C   0  0  0  0  0  3  0  0  0  0  0  0
  -25.1440   -8.1900   21.4640 C   0  0  0  0  0  0  0  0  0  0  0  0
  -25.2000   -9.0450   20.3370 C   0  0  0  0  0  3  0  0  0  0  0  0
  -26.2080   -9.9950   20.2060 C   0  0  0  0  0  3  0  0  0  0  0  0
  -24.1890   -7.2320   21.4750 O   0  0  0  0  0  0  0  0  0  0  0  0
  -23.0780   -7.3440   22.2800 C   0  0  0  0  0  0  0  0  0  0  0  0
  -22.3680   -8.5680   22.3610 C   0  0  0  0  0  3  0  0  0  0  0  0
  -21.1980   -8.6200   23.1280 C   0  0  0  0  0  3  0  0  0  0  0  0
  -20.7620   -7.4850   23.8180 C   0  0  0  0  0  0  0  0  0  0  0  0
  -21.4920   -6.2890   23.7730 C   0  0  0  0  0  3  0  0  0  0  0  0
  -22.6500   -6.2050   22.9940 C   0  0  0  0  0  0  0  0  0  0  0  0
  -23.3620   -5.0550   22.8750 F   0  0  0  0  0  0  0  0  0  0  0  0
  -19.6340   -7.5260   24.5680 F   0  0  0  0  0  0  0  0  0  0  0  0
  -26.9840  -13.4180   21.7250 C   0  0  0  0  0  0  0  0  0  0  0  0
  -26.3010  -12.8310   22.6990 N   0  0  0  0  0  0  0  0  0  0  0  0
  -26.7520  -14.5260   21.2570 O   0  0  0  0  0  0  0  0  0  0  0  0
  -26.5540  -11.8450   22.8430 H   0  0  0  0  0  0  0  0  0  0  0  0
  -25.6530  -13.2990   23.3190 H   0  0  0  0  0  0  0  0  0  0  0  0
  -29.5390  -14.2610   20.1340 N   0  0  0  0  0  0  0  0  0  0  0  0
  -29.1310  -15.0110   20.7580 H   0  0  0  0  0  0  0  0  0  0  0  0
  -30.2280  -14.6480   19.4690 H   0  0  0  0  0  0  0  0  0  0  0  0
  1  3  1  0
  2  1  2  0
  4  5  1  0
  4  6  1  0
  5  8  1  0
  5  3  1  0
  6  1  1  0
  6  7  1  1
  8 10  1  0
  9 20  2  0
 10 15  1  0
 11 21  1  0
 11 19  1  0
 12 18  1  0
 12 14  1  0
 13 19  1  0
 14 13  1  0
 15 14  2  0
 16 17  1  0
 16 10  2  0
 17 12  2  0
 18 11  1  0
 19  9  1  0
 21 23  2  0
 22 21  1  0
 24 22  1  0
 25 30  1  0
 26 22  1  0
 27 26  1  0
 28 27  1  0
 29 28  1  0
 29 25  1  0
 30 26  1  0
 30 31  2  0
 32 31  1  0
 33 32  2  0
 34 25  2  0
 34 33  1  0
 35  9  1  0
 35 40  1  0
 35 36  1  0
 36 39  1  1
 36 37  1  0
 38 36  1  0
 40 43  1  0
 41 40  1  0
 41 45  1  0
 42 41  2  0
 45 44  1  0
 45 47  1  0
 47 48  1  0
 47 46  1  0
 49  6  1  0
 50 53  1  0
 51 50  2  0
 51 54  1  0
 53 57  1  0
 53 52  2  0
 54 49  1  0
 54 55  2  0
 55 52  1  0
 55 56  1  0
 58 66  1  0
 59 60  1  0
 59 64  1  0
 61 60  1  6
 61 71  1  0
 62 61  1  0
 62 71  1  0
 63 64  1  0
 63 62  1  0
 63 61  1  0
 64 58  1  0
 65 58  2  0
 66 67  1  0
 66 57  1  0
 68 69  2  0
 69 88  1  0
 70 69  1  0
 70 73  1  0
 71 68  1  0
 71 72  1  1
 72 70  1  0
 73 74  1  0
 74 75  2  0
 76 79  1  0
 76 75  1  0
 77 76  2  0
 78 77  1  0
 78 73  2  0
 79 80  1  0
 80 81  2  0
 80 85  1  0
 81 82  1  0
 82 83  2  0
 83 87  1  0
 84 83  1  0
 85 84  2  0
 86 85  1  0
 88 89  1  0
 89 91  1  0
 89 92  1  0
 90 88  2  0
 93 68  1  0
 93 94  1  0
 95 93  1  0
M  ISO  4   5 101   8 101  58 100  66 100
M  END
>  <TORSDO>  (60) 
F 19

>  <SCORE>  (60) 
-3.737

>  <name>  (60) 
59

>  <ligand_id>  (60) 
59

>  <original_smiles>  (60) 
[H]C([H])=C1C([H])([H])C([H])(Oc2c([H])c([H])c3c(c2[H])C([H])([H])N(C(=O)C([H])(N([H])C(=O)C([H])(N([H])C([H])([H])[H])C([H])([H])[H])C(C([H])([H])[H])(C([H])([H])[H])C([H])([H])[H])C([H])(C(=O)N([H])C2([H])c4c([H])c([H])c([H])c([H])c4C([H])([H])C([H])([H])C2([H])[H])C3([H])[H])C([H])([H])[N+]1([H])C([H])([H])c1c([H])c([H])c(C([H])([H])N([H])C(=O)N2C([H])([H])C([H])([H])C([H])([H])C([H])(n3nc(-c4c([H])c([H])c(Oc5c([H])c([H])c(F)c([H])c5F)c([H])c4[H])c(C(=O)N([H])[H])c3N([H])[H])C2([H])[H])c([H])c1C([H])([H])[H]

>  <smiles>  (60) 
[H]C([H])=C1C([H])([H])C([H])(Oc2c([H])c([H])c3c(c2[H])C([H])([H])N(C(=O)C([H])(N([H])C(=O)C([H])(N([H])C([H])([H])[H])C([H])([H])[H])C(C([H])([H])[H])(C([H])([H])[H])C([H])([H])[H])C([H])(C(=O)N([H])C2([H])c4c([H])c([H])c([H])c([H])c4C([H])([H])C([H])([H])C2([H])[H])C3([H])[H])C([H])([H])[N+]1([H])C([H])([H])c1c([H])c([H])c(C([H])([H])N([H])C(=O)N2C([H])([H])C([H])([H])C([H])([H])C([H])(n3nc(-c4c([H])c([H])c(Oc5c([H])c([H])c(F)c([H])c5F)c([H])c4[H])c(C(=O)N([H])[H])c3N([H])[H])C2([H])[H])c([H])c1C([H])([H])[H]

$$$$
60:0:0
     RDKit          3D

 93101  0  0  1  0  0  0  0  0999 V2000
  -28.0500  -18.6870   20.6270 C   0  0  0  0  0  2  0  0  0  0  0  0
  -27.4900  -15.8180   21.6300 C   0  0  0  0  0  3  0  0  0  0  0  0
  -27.6480  -14.1940   21.9400 C   0  0  0  0  0  3  0  0  0  0  0  0
  -28.6580  -14.3820   19.0530 C   0  0  0  0  0  2  0  0  0  0  0  0
  -27.8810  -16.8020   20.3990 C   0  0  0  0  0  3  0  0  0  0  0  0
  -28.4620  -15.9600   19.1950 C   0  0  0  0  0  3  0  0  0  0  0  0
  -28.2840  -13.1470   20.7390 C   0  0  0  0  0  3  0  0  0  0  0  0
  -28.4700  -11.4620   21.2310 Cl  0  0  0  0  0  0  0  0  0  0  0  0
  -29.7150  -16.5110   18.5310 C   0  0  0  0  0  2  0  0  0  0  0  0
  -31.3310  -14.3940   19.0520 C   0  0  0  0  0  0  0  0  0  0  0  0
  -30.1030  -12.3340   18.2850 C   0  0  0  0  0  3  0  0  0  0  0  0
  -28.5100  -12.1620   17.3960 C   0  0  0  0  0  3  0  0  0  0  0  0
  -26.8740  -12.8650   17.7720 C   0  0  0  0  0  2  0  0  0  0  0  0
  -26.5470  -14.0670   19.2250 C   0  0  0  0  0  2  0  0  0  0  0  0
  -29.5520  -14.3350   20.5570 C   0  0  0  0  0  3  0  0  0  0  0  0
  -30.5410  -13.4260   19.5410 N   0  0  0  0  0  0  0  0  0  0  0  0
  -32.3980  -14.0830   18.6270 O   0  0  0  0  0  0  0  0  0  0  0  0
  -30.9700  -15.7110   18.8110 N   0  0  0  0  0  0  0  0  0  0  0  0
  -31.7890  -16.2280   18.5220 H   0  0  0  0  0  0  0  0  0  0  0  0
  -24.4720  -13.8270   20.3970 C   0  0  0  0  0  0  0  0  0  0  0  0
  -23.6810  -12.8670   20.8930 C   0  0  0  0  0  0  0  0  0  0  0  0
  -24.3230  -11.6010   20.7280 C   0  0  0  0  0  0  0  0  0  0  0  0
  -25.4890  -13.1940   19.8420 N   0  0  0  0  0  0  0  0  0  0  0  0
  -25.4990  -11.8230   20.1430 N   0  0  0  0  0  0  0  0  0  0  0  0
  -23.7700  -10.2460   20.9590 C   0  0  0  0  0  0  0  0  0  0  0  0
  -24.3010   -9.3040   21.8740 C   0  0  0  0  0  3  0  0  0  0  0  0
  -23.6420   -8.0670   22.0960 C   0  0  0  0  0  3  0  0  0  0  0  0
  -22.4440   -7.7630   21.4040 C   0  0  0  0  0  0  0  0  0  0  0  0
  -21.9410   -8.6880   20.4760 C   0  0  0  0  0  3  0  0  0  0  0  0
  -22.5980   -9.9090   20.2550 C   0  0  0  0  0  3  0  0  0  0  0  0
  -21.7430   -6.5840   21.5240 O   0  0  0  0  0  0  0  0  0  0  0  0
  -21.7280   -5.8590   22.6880 C   0  0  0  0  0  0  0  0  0  0  0  0
  -21.2970   -6.4200   23.9110 C   0  0  0  0  0  3  0  0  0  0  0  0
  -21.2330   -5.6200   25.0690 C   0  0  0  0  0  3  0  0  0  0  0  0
  -21.5880   -4.2590   25.0070 C   0  0  0  0  0  0  0  0  0  0  0  0
  -22.0070   -3.6960   23.7880 C   0  0  0  0  0  3  0  0  0  0  0  0
  -22.0720   -4.4930   22.6320 C   0  0  0  0  0  0  0  0  0  0  0  0
  -22.4540   -3.9390   21.4560 F   0  0  0  0  0  0  0  0  0  0  0  0
  -21.5230   -3.4890   26.1180 F   0  0  0  0  0  0  0  0  0  0  0  0
  -22.3110  -13.1870   21.3200 C   0  0  0  0  0  0  0  0  0  0  0  0
  -21.7730  -12.4290   22.2550 N   0  0  0  0  0  0  0  0  0  0  0  0
  -21.7430  -14.1730   20.8510 O   0  0  0  0  0  0  0  0  0  0  0  0
  -22.2750  -11.6420   22.6400 H   0  0  0  0  0  0  0  0  0  0  0  0
  -20.8430  -12.6330   22.5910 H   0  0  0  0  0  0  0  0  0  0  0  0
  -24.3970  -15.2090   20.3030 N   0  0  0  0  0  0  0  0  0  0  0  0
  -23.6080  -15.7380   20.6550 H   0  0  0  0  0  0  0  0  0  0  0  0
  -25.1630  -15.7840   19.9750 H   0  0  0  0  0  0  0  0  0  0  0  0
  -28.0780  -21.8590   20.2760 C   0  0  0  0  0  0  0  0  0  0  0  0
  -27.8180  -20.3400   19.9480 N   0  0  0  0  0  0  0  0  0  0  0  0
  -28.7650  -21.9810   21.2920 O   0  0  0  0  0  0  0  0  0  0  0  0
  -27.2720  -20.2830   19.0970 H   0  0  0  0  0  0  0  0  0  0  0  0
  -27.6060  -23.5620   19.5980 C   0  0  0  0  0  2  0  0  0  0  0  0
  -27.9900  -25.2740   19.9330 O   0  0  0  0  0  0  0  0  0  0  0  0
  -24.6650  -31.6070   22.9620 C   0  0  0  0  0  0  0  0  0  0  0  0
  -27.1530  -26.5820   19.8470 C   0  0  0  0  0  0  0  0  0  0  0  0
  -23.5000  -30.2290   21.3000 C   0  0  0  0  0  3  0  0  0  0  0  0
  -24.9550  -28.6610   19.8160 C   0  0  0  0  0  0  0  0  0  0  0  0
  -26.0760  -30.4020   21.1780 C   0  0  0  0  0  2  0  0  0  0  0  0
  -26.1430  -28.9850   20.4780 C   0  0  0  0  0  0  0  0  0  0  0  0
  -27.2380  -27.9680   20.4660 C   0  0  0  0  0  3  0  0  0  0  0  0
  -25.9650  -26.5080   19.0920 C   0  0  0  0  0  3  0  0  0  0  0  0
  -24.9100  -27.4610   19.0930 C   0  0  0  0  0  3  0  0  0  0  0  0
  -23.7430  -29.5980   19.9000 C   0  0  0  0  0  2  0  0  0  0  0  0
  -24.7720  -30.7820   21.8640 N   0  0  0  0  0  0  0  0  0  0  0  0
  -23.5670  -31.8660   23.4840 O   0  0  0  0  0  0  0  0  0  0  0  0
  -22.8210  -29.1970   22.2430 C   0  0  0  0  0  0  0  0  0  0  0  0
  -21.4860  -29.0370   22.1530 N   0  0  0  0  0  0  0  0  0  0  0  0
  -23.5070  -28.5450   23.0340 O   0  0  0  0  0  0  0  0  0  0  0  0
  -20.9810  -29.6180   21.4980 H   0  0  0  0  0  0  0  0  0  0  0  0
  -18.1200  -27.8050   22.7500 C   0  0  0  0  0  0  0  0  0  0  0  0
  -20.6910  -28.0630   22.9120 C   0  0  0  0  0  3  0  0  0  0  0  0
  -20.7620  -26.6600   22.2640 C   0  0  0  0  0  2  0  0  0  0  0  0
  -19.6190  -26.3880   21.2830 C   0  0  0  0  0  2  0  0  0  0  0  0
  -18.2660  -26.4960   21.9930 C   0  0  0  0  0  2  0  0  0  0  0  0
  -19.2570  -28.5490   23.1670 C   0  0  0  0  0  0  0  0  0  0  0  0
  -19.0620  -29.7720   23.8450 C   0  0  0  0  0  3  0  0  0  0  0  0
  -17.7650  -30.2550   24.1030 C   0  0  0  0  0  3  0  0  0  0  0  0
  -16.6440  -29.5100   23.6970 C   0  0  0  0  0  3  0  0  0  0  0  0
  -16.8220  -28.2870   23.0280 C   0  0  0  0  0  3  0  0  0  0  0  0
  -25.9130  -32.2790   23.6100 C   0  0  0  0  0  3  0  0  0  0  0  0
  -26.4700  -31.4790   24.8530 C   0  0  1  0  0  0  0  0  0  0  0  0
  -25.3970  -31.1620   25.9240 C   0  0  0  0  0  1  0  0  0  0  0  0
  -27.0990  -30.1390   24.4190 C   0  0  0  0  0  1  0  0  0  0  0  0
  -27.5980  -32.2880   25.5350 C   0  0  0  0  0  1  0  0  0  0  0  0
  -25.5340  -33.6450   24.0290 N   0  0  0  0  0  0  0  0  0  0  0  0
  -25.8070  -34.7670   23.3500 C   0  0  0  0  0  0  0  0  0  0  0  0
  -26.4610  -34.7650   22.3050 O   0  0  0  0  0  0  0  0  0  0  0  0
  -24.9460  -33.7160   24.8460 H   0  0  0  0  0  0  0  0  0  0  0  0
  -23.9920  -36.5070   23.1730 C   0  0  0  0  0  1  0  0  0  0  0  0
  -25.2760  -36.1030   23.9150 C   0  0  0  0  0  3  0  0  0  0  0  0
  -27.3930  -37.0380   24.7420 C   0  0  0  0  0  1  0  0  0  0  0  0
  -26.2580  -37.2090   23.8400 N   0  0  0  0  0  0  0  0  0  0  0  0
  -25.8150  -38.0990   24.0530 H   0  0  0  0  0  0  0  0  0  0  0  0
  2  3  2  0
  4  6  1  0
  5  1  1  0
  5  2  1  0
  6  9  1  0
  6  5  1  0
  7  8  1  0
  7  3  1  0
  9 18  1  0
 10 16  1  0
 11 16  1  0
 12 13  1  0
 12 11  2  0
 13 14  1  0
 14 23  1  0
 15  4  1  0
 15  7  1  0
 16 15  1  0
 17 10  2  0
 18 10  1  0
 19 18  1  0
 20 21  2  0
 21 40  1  0
 22 21  1  0
 22 25  1  0
 23 24  1  0
 23 20  1  0
 24 22  2  0
 25 26  1  0
 26 27  2  0
 28 31  1  0
 28 27  1  0
 29 28  2  0
 30 29  1  0
 30 25  2  0
 31 32  1  0
 32 33  1  0
 33 34  2  0
 35 34  1  0
 35 39  1  0
 36 35  2  0
 37 32  2  0
 37 36  1  0
 38 37  1  0
 40 41  1  0
 41 44  1  0
 41 43  1  0
 42 40  2  0
 45 20  1  0
 45 46  1  0
 47 45  1  0
 48 50  2  0
 49 48  1  0
 49  1  1  0
 51 49  1  0
 52 53  1  0
 52 48  1  0
 54 65  2  0
 55 53  1  0
 55 60  1  0
 56 64  1  0
 56 66  1  0
 57 63  1  0
 57 59  1  0
 58 64  1  0
 59 58  1  0
 60 59  2  0
 61 62  1  0
 61 55  2  0
 62 57  2  0
 63 56  1  0
 64 54  1  0
 66 68  2  0
 67 66  1  0
 69 67  1  0
 70 79  2  0
 70 75  1  0
 71 67  1  0
 71 75  1  0
 72 71  1  0
 73 74  1  0
 73 72  1  0
 74 70  1  0
 75 76  2  0
 76 77  1  0
 78 77  2  0
 79 78  1  0
 80 54  1  0
 80 85  1  0
 80 81  1  0
 81 84  1  1
 81 82  1  0
 83 81  1  0
 85 88  1  0
 86 90  1  0
 86 85  1  0
 87 86  2  0
 90 89  1  0
 92 90  1  0
 92 93  1  0
 92 91  1  0
M  ISO  4  10 100  18 100  52 101  53 101
M  END
>  <TORSDO>  (61) 
F 20

>  <SCORE>  (61) 
-10.866

>  <name>  (61) 
60

>  <ligand_id>  (61) 
60

>  <original_smiles>  (61) 
[H]c1c([H])c([H])c2c(c1[H])C([H])([H])C([H])([H])C([H])([H])C2([H])N([H])C(=O)C1([H])N(C(=O)C([H])(N([H])C(=O)C([H])(N([H])C([H])([H])[H])C([H])([H])[H])C(C([H])([H])[H])(C([H])([H])[H])C([H])([H])[H])C([H])([H])c2c([H])c(OC([H])([H])C(=O)N([H])C([H])([H])c3c([H])c([H])c(Cl)c([H])c3C([H])([H])N([H])C(=O)N3C([H])([H])C([H])([H])C([H])([H])C([H])(n4nc(-c5c([H])c([H])c(Oc6c([H])c([H])c(F)c([H])c6F)c([H])c5[H])c(C(=O)N([H])[H])c4N([H])[H])C3([H])[H])c([H])c([H])c2C1([H])[H]

>  <smiles>  (61) 
[H]c1c([H])c([H])c2c(c1[H])C([H])([H])C([H])([H])C([H])([H])C2([H])N([H])C(=O)C1([H])N(C(=O)C([H])(N([H])C(=O)C([H])(N([H])C([H])([H])[H])C([H])([H])[H])C(C([H])([H])[H])(C([H])([H])[H])C([H])([H])[H])C([H])([H])c2c([H])c(OC([H])([H])C(=O)N([H])C([H])([H])c3c([H])c([H])c(Cl)c([H])c3C([H])([H])N([H])C(=O)N3C([H])([H])C([H])([H])C([H])([H])C([H])(n4nc(-c5c([H])c([H])c(Oc6c([H])c([H])c(F)c([H])c6F)c([H])c5[H])c(C(=O)N([H])[H])c4N([H])[H])C3([H])[H])c([H])c([H])c2C1([H])[H]

$$$$
61:0:0
     RDKit          3D

 96105  0  0  1  0  0  0  0  0999 V2000
  -28.3580  -21.8620   20.3210 C   0  0  0  0  0  2  0  0  0  0  0  0
  -29.9740  -18.4160   19.4800 C   0  0  0  0  0  3  0  0  0  0  0  0
  -29.6680  -20.1320   21.6690 C   0  0  0  0  0  3  0  0  0  0  0  0
  -29.2400  -19.6200   19.3340 C   0  0  0  0  0  0  0  0  0  0  0  0
  -30.5950  -18.0740   20.7010 C   0  0  0  0  0  0  0  0  0  0  0  0
  -29.1040  -20.5140   20.4300 C   0  0  0  0  0  0  0  0  0  0  0  0
  -30.4100  -18.9380   21.8110 C   0  0  0  0  0  0  0  0  0  0  0  0
  -28.6040  -19.9190   17.9860 C   0  0  0  0  0  1  0  0  0  0  0  0
  -31.0980  -18.5860   23.3570 Cl  0  0  0  0  0  0  0  0  0  0  0  0
  -31.5220  -16.8490   20.7600 C   0  0  0  0  0  2  0  0  0  0  0  0
  -31.4720  -14.5030   19.8560 C   0  0  0  0  0  0  0  0  0  0  0  0
  -31.0790  -12.2280   18.9660 C   0  0  0  0  0  2  0  0  0  0  0  0
  -30.1030  -12.2930   17.7750 C   0  0  0  0  0  2  0  0  0  0  0  0
  -28.6400  -12.2560   18.2580 C   0  0  0  0  0  2  0  0  0  0  0  0
  -28.3640  -13.2650   19.4050 C   0  0  0  0  0  3  0  0  0  0  0  0
  -29.4420  -13.1510   20.5040 C   0  0  0  0  0  2  0  0  0  0  0  0
  -30.7570  -13.3440   19.8680 N   0  0  0  0  0  0  0  0  0  0  0  0
  -32.5520  -14.6140   19.2670 O   0  0  0  0  0  0  0  0  0  0  0  0
  -30.9010  -15.5440   20.4880 N   0  0  0  0  0  0  0  0  0  0  0  0
  -30.0030  -15.3710   20.9150 H   0  0  0  0  0  0  0  0  0  0  0  0
  -26.0730  -14.0740   20.2540 C   0  0  0  0  0  0  0  0  0  0  0  0
  -24.9590  -13.3940   20.6670 C   0  0  0  0  0  0  0  0  0  0  0  0
  -25.2890  -12.0070   20.5830 C   0  0  0  0  0  0  0  0  0  0  0  0
  -27.0180  -13.1060   19.9490 N   0  0  0  0  0  0  0  0  0  0  0  0
  -26.5520  -11.8560   20.2020 N   0  0  0  0  0  0  0  0  0  0  0  0
  -24.4610  -10.8120   20.7880 C   0  0  0  0  0  0  0  0  0  0  0  0
  -24.8190   -9.8160   21.7220 C   0  0  0  0  0  3  0  0  0  0  0  0
  -23.9970   -8.6850   21.9150 C   0  0  0  0  0  3  0  0  0  0  0  0
  -22.8010   -8.5430   21.1730 C   0  0  0  0  0  0  0  0  0  0  0  0
  -22.4600   -9.5260   20.2270 C   0  0  0  0  0  3  0  0  0  0  0  0
  -23.2820  -10.6480   20.0330 C   0  0  0  0  0  3  0  0  0  0  0  0
  -21.9530   -7.4670   21.2750 O   0  0  0  0  0  0  0  0  0  0  0  0
  -21.8050   -6.7750   22.4500 C   0  0  0  0  0  0  0  0  0  0  0  0
  -21.3900   -7.4100   23.6410 C   0  0  0  0  0  3  0  0  0  0  0  0
  -21.1840   -6.6500   24.8100 C   0  0  0  0  0  3  0  0  0  0  0  0
  -21.3830   -5.2560   24.7880 C   0  0  0  0  0  0  0  0  0  0  0  0
  -21.7910   -4.6210   23.6010 C   0  0  0  0  0  3  0  0  0  0  0  0
  -21.9980   -5.3800   22.4360 C   0  0  0  0  0  0  0  0  0  0  0  0
  -22.3710   -4.7600   21.2900 F   0  0  0  0  0  0  0  0  0  0  0  0
  -21.1770   -4.5250   25.9070 F   0  0  0  0  0  0  0  0  0  0  0  0
  -23.6300  -13.9910   21.0300 C   0  0  0  0  0  0  0  0  0  0  0  0
  -22.8970  -13.3500   21.9350 N   0  0  0  0  0  0  0  0  0  0  0  0
  -23.2530  -15.0570   20.5460 O   0  0  0  0  0  0  0  0  0  0  0  0
  -23.2130  -12.4850   22.3470 H   0  0  0  0  0  0  0  0  0  0  0  0
  -22.0040  -13.7300   22.2190 H   0  0  0  0  0  0  0  0  0  0  0  0
  -26.3550  -15.4280   20.0950 N   0  0  0  0  0  0  0  0  0  0  0  0
  -25.6620  -16.1490   20.2590 H   0  0  0  0  0  0  0  0  0  0  0  0
  -27.2290  -15.7920   19.7350 H   0  0  0  0  0  0  0  0  0  0  0  0
  -30.4500  -24.7390   21.7710 C   0  0  0  0  0  2  0  0  0  0  0  0
  -29.4900  -25.8860   21.4220 C   0  0  0  0  0  2  0  0  0  0  0  0
  -29.7460  -23.3790   21.7230 C   0  0  0  0  0  2  0  0  0  0  0  0
  -28.8140  -24.2420   19.5450 C   0  0  0  0  0  2  0  0  0  0  0  0
  -28.4220  -25.5030   20.3730 C   0  0  0  0  0  3  0  0  0  0  0  0
  -29.2660  -23.0510   20.3520 N   0  0  2  0  0  4  0  0  0  0  0  0
  -30.0850  -22.7280   19.8610 H   0  0  0  0  0  0  0  0  0  0  0  0
  -28.2720  -26.6600   19.5280 O   0  0  0  0  0  0  0  0  0  0  0  0
  -24.5310  -31.6540   23.0020 C   0  0  0  0  0  0  0  0  0  0  0  0
  -27.0970  -27.3680   19.6520 C   0  0  0  0  0  0  0  0  0  0  0  0
  -23.2740  -30.2950   21.3610 C   0  0  0  0  0  3  0  0  0  0  0  0
  -24.6870  -28.8330   19.8200 C   0  0  0  0  0  0  0  0  0  0  0  0
  -25.7820  -30.7050   21.0630 C   0  0  0  0  0  2  0  0  0  0  0  0
  -25.8610  -29.3570   20.3730 C   0  0  0  0  0  0  0  0  0  0  0  0
  -27.0730  -28.6340   20.2820 C   0  0  0  0  0  3  0  0  0  0  0  0
  -25.9080  -26.8540   19.0980 C   0  0  0  0  0  3  0  0  0  0  0  0
  -24.7040  -27.5820   19.1790 C   0  0  0  0  0  3  0  0  0  0  0  0
  -23.4330  -29.6680   19.9500 C   0  0  0  0  0  2  0  0  0  0  0  0
  -24.5500  -30.8980   21.8670 N   0  0  0  0  0  0  0  0  0  0  0  0
  -23.4710  -31.8870   23.5980 O   0  0  0  0  0  0  0  0  0  0  0  0
  -22.6830  -29.2290   22.3110 C   0  0  0  0  0  0  0  0  0  0  0  0
  -21.3600  -29.0110   22.2170 N   0  0  0  0  0  0  0  0  0  0  0  0
  -23.4080  -28.5990   23.0840 O   0  0  0  0  0  0  0  0  0  0  0  0
  -20.8320  -29.5700   21.5620 H   0  0  0  0  0  0  0  0  0  0  0  0
  -18.0500  -27.6610   22.7290 C   0  0  0  0  0  0  0  0  0  0  0  0
  -20.5960  -28.0270   22.9830 C   0  0  0  0  0  3  0  0  0  0  0  0
  -20.7570  -26.6110   22.3840 C   0  0  0  0  0  2  0  0  0  0  0  0
  -19.6610  -26.2530   21.3770 C   0  0  0  0  0  2  0  0  0  0  0  0
  -18.2800  -26.3300   22.0340 C   0  0  0  0  0  2  0  0  0  0  0  0
  -19.1370  -28.4640   23.1610 C   0  0  0  0  0  0  0  0  0  0  0  0
  -18.8680  -29.7100   23.7700 C   0  0  0  0  0  3  0  0  0  0  0  0
  -17.5440  -30.1510   23.9530 C   0  0  0  0  0  3  0  0  0  0  0  0
  -16.4710  -29.3440   23.5370 C   0  0  0  0  0  3  0  0  0  0  0  0
  -16.7250  -28.1000   22.9310 C   0  0  0  0  0  3  0  0  0  0  0  0
  -25.8340  -32.2820   23.5890 C   0  0  0  0  0  3  0  0  0  0  0  0
  -26.4390  -31.4510   24.7860 C   0  0  1  0  0  0  0  0  0  0  0  0
  -25.4150  -31.1320   25.8990 C   0  0  0  0  0  1  0  0  0  0  0  0
  -27.0220  -30.1110   24.2790 C   0  0  0  0  0  1  0  0  0  0  0  0
  -27.6120  -32.2310   25.4260 C   0  0  0  0  0  1  0  0  0  0  0  0
  -25.5130  -33.6500   24.0140 N   0  0  0  0  0  0  0  0  0  0  0  0
  -25.8260  -34.7540   23.3220 C   0  0  0  0  0  0  0  0  0  0  0  0
  -26.4860  -34.7250   22.2810 O   0  0  0  0  0  0  0  0  0  0  0  0
  -24.9270  -33.7450   24.8310 H   0  0  0  0  0  0  0  0  0  0  0  0
  -24.0760  -36.5440   23.0990 C   0  0  0  0  0  1  0  0  0  0  0  0
  -25.3270  -36.1010   23.8760 C   0  0  0  0  0  3  0  0  0  0  0  0
  -27.4590  -36.9520   24.7490 C   0  0  0  0  0  1  0  0  0  0  0  0
  -26.3470  -37.1720   23.8270 N   0  0  0  0  0  0  0  0  0  0  0  0
  -25.9320  -38.0740   24.0400 H   0  0  0  0  0  0  0  0  0  0  0  0
  1 54  1  0
  1  6  1  0
  2  5  1  0
  3  7  1  0
  4  2  2  0
  4  6  1  0
  5 10  1  0
  5  7  2  0
  6  3  2  0
  7  9  1  0
  8  4  1  0
 11 17  1  0
 11 19  1  0
 12 17  1  0
 13 14  1  0
 13 12  1  0
 15 14  1  0
 15 24  1  0
 15 16  1  0
 17 16  1  0
 18 11  2  0
 19 10  1  0
 19 20  1  0
 21 22  2  0
 22 41  1  0
 23 22  1  0
 23 26  1  0
 24 25  1  0
 24 21  1  0
 25 23  2  0
 26 27  1  0
 27 28  2  0
 29 32  1  0
 29 28  1  0
 30 29  2  0
 31 30  1  0
 31 26  2  0
 32 33  1  0
 33 34  1  0
 34 35  2  0
 36 35  1  0
 36 40  1  0
 37 36  2  0
 38 33  2  0
 38 37  1  0
 39 38  1  0
 41 42  1  0
 42 45  1  0
 42 44  1  0
 43 41  2  0
 46 21  1  0
 46 47  1  0
 48 46  1  0
 50 49  1  0
 51 49  1  0
 52 54  1  0
 52 53  1  0
 53 56  1  0
 53 50  1  0
 54 51  1  0
 54 55  1  6
 56 58  1  0
 57 68  2  0
 58 63  1  0
 59 67  1  0
 59 69  1  0
 60 66  1  0
 60 62  1  0
 61 67  1  0
 62 61  1  0
 63 62  2  0
 64 65  1  0
 64 58  2  0
 65 60  2  0
 66 59  1  0
 67 57  1  0
 69 71  2  0
 70 69  1  0
 72 70  1  0
 73 82  2  0
 73 78  1  0
 74 70  1  0
 74 78  1  0
 75 74  1  0
 76 77  1  0
 76 75  1  0
 77 73  1  0
 78 79  2  0
 79 80  1  0
 81 80  2  0
 82 81  1  0
 83 57  1  0
 83 88  1  0
 83 84  1  0
 84 87  1  1
 84 85  1  0
 86 84  1  0
 88 91  1  0
 89 93  1  0
 89 88  1  0
 90 89  2  0
 93 92  1  0
 95 93  1  0
 95 96  1  0
 95 94  1  0
M  ISO  4  11 100  19 100  53 101  56 101
M  END
>  <TORSDO>  (62) 
F 19

>  <SCORE>  (62) 
-12.880

>  <name>  (62) 
61

>  <ligand_id>  (62) 
61

>  <original_smiles>  (62) 
[H]c1c([H])c([H])c2c(c1[H])C([H])([H])C([H])([H])C([H])([H])C2([H])N([H])C(=O)C1([H])N(C(=O)C([H])(N([H])C(=O)C([H])(N([H])C([H])([H])[H])C([H])([H])[H])C(C([H])([H])[H])(C([H])([H])[H])C([H])([H])[H])C([H])([H])c2c([H])c(OC3([H])C([H])([H])C([H])([H])C([H])([H])[N+]([H])(C([H])([H])c4c([H])c(Cl)c(C([H])([H])N([H])C(=O)N5C([H])([H])C([H])([H])C([H])([H])C([H])(n6nc(-c7c([H])c([H])c(Oc8c([H])c([H])c(F)c([H])c8F)c([H])c7[H])c(C(=O)N([H])[H])c6N([H])[H])C5([H])[H])c([H])c4C([H])([H])[H])C3([H])[H])c([H])c([H])c2C1([H])[H]

>  <smiles>  (62) 
[H]c1c([H])c([H])c2c(c1[H])C([H])([H])C([H])([H])C([H])([H])C2([H])N([H])C(=O)C1([H])N(C(=O)C([H])(N([H])C(=O)C([H])(N([H])C([H])([H])[H])C([H])([H])[H])C(C([H])([H])[H])(C([H])([H])[H])C([H])([H])[H])C([H])([H])c2c([H])c(OC3([H])C([H])([H])C([H])([H])C([H])([H])[N+]([H])(C([H])([H])c4c([H])c(Cl)c(C([H])([H])N([H])C(=O)N5C([H])([H])C([H])([H])C([H])([H])C([H])(n6nc(-c7c([H])c([H])c(Oc8c([H])c([H])c(F)c([H])c8F)c([H])c7[H])c(C(=O)N([H])[H])c6N([H])[H])C5([H])[H])c([H])c4C([H])([H])[H])C3([H])[H])c([H])c([H])c2C1([H])[H]

$$$$
62:0:0
     RDKit          3D

 96105  0  0  1  0  0  0  0  0999 V2000
  -29.9090  -21.9610   21.0430 C   0  0  0  0  0  2  0  0  0  0  0  0
  -31.8890  -18.4990   19.1920 C   0  0  0  0  0  3  0  0  0  0  0  0
  -31.2490  -20.8520   19.1830 C   0  0  0  0  0  3  0  0  0  0  0  0
  -31.9310  -19.7710   18.5890 C   0  0  0  0  0  0  0  0  0  0  0  0
  -31.1690  -18.2830   20.3900 C   0  0  0  0  0  0  0  0  0  0  0  0
  -30.4960  -20.6860   20.3660 C   0  0  0  0  0  0  0  0  0  0  0  0
  -30.4290  -19.3780   20.9530 C   0  0  0  0  0  0  0  0  0  0  0  0
  -32.7630  -19.9790   17.3360 C   0  0  0  0  0  1  0  0  0  0  0  0
  -29.6020  -19.1790   22.2240 C   0  0  0  0  0  1  0  0  0  0  0  0
  -31.4150  -16.9330   21.1130 C   0  0  0  0  0  2  0  0  0  0  0  0
  -31.2370  -14.6540   20.0510 C   0  0  0  0  0  0  0  0  0  0  0  0
  -30.7810  -12.4790   18.9510 C   0  0  0  0  0  2  0  0  0  0  0  0
  -29.8070  -12.6880   17.7770 C   0  0  0  0  0  2  0  0  0  0  0  0
  -28.3510  -12.5930   18.2770 C   0  0  0  0  0  2  0  0  0  0  0  0
  -28.0850  -13.4620   19.5390 C   0  0  0  0  0  3  0  0  0  0  0  0
  -29.1910  -13.2540   20.5990 C   0  0  0  0  0  2  0  0  0  0  0  0
  -30.4880  -13.5130   19.9590 N   0  0  0  0  0  0  0  0  0  0  0  0
  -32.3440  -14.7510   19.5200 O   0  0  0  0  0  0  0  0  0  0  0  0
  -30.6830  -15.7170   20.6750 N   0  0  0  0  0  0  0  0  0  0  0  0
  -29.7460  -15.6060   21.0250 H   0  0  0  0  0  0  0  0  0  0  0  0
  -25.7670  -14.1340   20.4230 C   0  0  0  0  0  0  0  0  0  0  0  0
  -24.6840  -13.3960   20.8170 C   0  0  0  0  0  0  0  0  0  0  0  0
  -25.0730  -12.0270   20.6990 C   0  0  0  0  0  0  0  0  0  0  0  0
  -26.7520  -13.2190   20.0880 N   0  0  0  0  0  0  0  0  0  0  0  0
  -26.3400  -11.9430   20.3110 N   0  0  0  0  0  0  0  0  0  0  0  0
  -24.2960  -10.7940   20.8740 C   0  0  0  0  0  0  0  0  0  0  0  0
  -24.6920   -9.7950   21.7890 C   0  0  0  0  0  3  0  0  0  0  0  0
  -23.9140   -8.6280   21.9570 C   0  0  0  0  0  3  0  0  0  0  0  0
  -22.7280   -8.4520   21.2040 C   0  0  0  0  0  0  0  0  0  0  0  0
  -22.3500   -9.4410   20.2800 C   0  0  0  0  0  3  0  0  0  0  0  0
  -23.1290  -10.5980   20.1120 C   0  0  0  0  0  3  0  0  0  0  0  0
  -21.9230   -7.3400   21.2810 O   0  0  0  0  0  0  0  0  0  0  0  0
  -21.7970   -6.6220   22.4440 C   0  0  0  0  0  0  0  0  0  0  0  0
  -21.3170   -7.2100   23.6340 C   0  0  0  0  0  3  0  0  0  0  0  0
  -21.1370   -6.4190   24.7860 C   0  0  0  0  0  3  0  0  0  0  0  0
  -21.4270   -5.0400   24.7480 C   0  0  0  0  0  0  0  0  0  0  0  0
  -21.9010   -4.4530   23.5610 C   0  0  0  0  0  3  0  0  0  0  0  0
  -22.0830   -5.2420   22.4110 C   0  0  0  0  0  0  0  0  0  0  0  0
  -22.5200   -4.6660   21.2650 F   0  0  0  0  0  0  0  0  0  0  0  0
  -21.2460   -4.2790   25.8510 F   0  0  0  0  0  0  0  0  0  0  0  0
  -23.3280  -13.9250   21.1890 C   0  0  0  0  0  0  0  0  0  0  0  0
  -22.6230  -13.2340   22.0770 N   0  0  0  0  0  0  0  0  0  0  0  0
  -22.9100  -14.9880   20.7310 O   0  0  0  0  0  0  0  0  0  0  0  0
  -22.9810  -12.3760   22.4720 H   0  0  0  0  0  0  0  0  0  0  0  0
  -21.7130  -13.5650   22.3610 H   0  0  0  0  0  0  0  0  0  0  0  0
  -25.9840  -15.5030   20.2990 N   0  0  0  0  0  0  0  0  0  0  0  0
  -25.2500  -16.1750   20.4930 H   0  0  0  0  0  0  0  0  0  0  0  0
  -26.8190  -15.9290   19.9170 H   0  0  0  0  0  0  0  0  0  0  0  0
  -27.7000  -22.9210   20.2480 C   0  0  0  0  0  0  0  0  0  0  0  0
  -26.8910  -21.9010   19.9170 C   0  0  0  0  0  2  0  0  0  0  0  0
  -27.3080  -24.3510   20.5710 C   0  0  0  0  0  2  0  0  0  0  0  0
  -29.6320  -24.3420   20.2120 C   0  0  0  0  0  2  0  0  0  0  0  0
  -28.3920  -25.2200   19.8990 C   0  0  0  0  0  3  0  0  0  0  0  0
  -29.1880  -22.9080   20.1300 N   0  0  1  0  0  4  0  0  0  0  0  0
  -29.4090  -22.5800   19.2010 H   0  0  0  0  0  0  0  0  0  0  0  0
  -28.4720  -26.6260   20.3110 O   0  0  0  0  0  0  0  0  0  0  0  0
  -24.6180  -31.8780   23.2520 C   0  0  0  0  0  0  0  0  0  0  0  0
  -27.3420  -27.4370   20.1940 C   0  0  0  0  0  0  0  0  0  0  0  0
  -23.4660  -30.4980   21.5580 C   0  0  0  0  0  3  0  0  0  0  0  0
  -24.9600  -28.9990   20.1390 C   0  0  0  0  0  0  0  0  0  0  0  0
  -25.9980  -30.8570   21.4310 C   0  0  0  0  0  2  0  0  0  0  0  0
  -26.1030  -29.4910   20.7770 C   0  0  0  0  0  0  0  0  0  0  0  0
  -27.3000  -28.7230   20.8030 C   0  0  0  0  0  3  0  0  0  0  0  0
  -26.1850  -27.0050   19.5020 C   0  0  0  0  0  3  0  0  0  0  0  0
  -24.9990  -27.7570   19.4920 C   0  0  0  0  0  3  0  0  0  0  0  0
  -23.7160  -29.8620   20.1670 C   0  0  0  0  0  2  0  0  0  0  0  0
  -24.7110  -31.0950   22.1380 N   0  0  0  0  0  0  0  0  0  0  0  0
  -23.5200  -32.1310   23.7730 O   0  0  0  0  0  0  0  0  0  0  0  0
  -22.8020  -29.4540   22.4880 C   0  0  0  0  0  0  0  0  0  0  0  0
  -21.4750  -29.2810   22.3580 N   0  0  0  0  0  0  0  0  0  0  0  0
  -23.4790  -28.8030   23.2910 O   0  0  0  0  0  0  0  0  0  0  0  0
  -20.9810  -29.8540   21.6880 H   0  0  0  0  0  0  0  0  0  0  0  0
  -18.0900  -28.1240   22.8460 C   0  0  0  0  0  0  0  0  0  0  0  0
  -20.6560  -28.3260   23.1040 C   0  0  0  0  0  3  0  0  0  0  0  0
  -20.7330  -26.9160   22.4710 C   0  0  0  0  0  2  0  0  0  0  0  0
  -19.6120  -26.6520   21.4600 C   0  0  0  0  0  2  0  0  0  0  0  0
  -18.2380  -26.7980   22.1180 C   0  0  0  0  0  2  0  0  0  0  0  0
  -19.2260  -28.8500   23.2950 C   0  0  0  0  0  0  0  0  0  0  0  0
  -19.0320  -30.1000   23.9240 C   0  0  0  0  0  3  0  0  0  0  0  0
  -17.7370  -30.6140   24.1260 C   0  0  0  0  0  3  0  0  0  0  0  0
  -16.6170  -29.8850   23.6910 C   0  0  0  0  0  3  0  0  0  0  0  0
  -16.7940  -28.6430   23.0520 C   0  0  0  0  0  3  0  0  0  0  0  0
  -25.8830  -32.5150   23.9060 C   0  0  0  0  0  3  0  0  0  0  0  0
  -26.3600  -31.7540   25.2060 C   0  0  1  0  0  0  0  0  0  0  0  0
  -25.2350  -31.5200   26.2390 C   0  0  0  0  0  1  0  0  0  0  0  0
  -26.9620  -30.3780   24.8370 C   0  0  0  0  0  1  0  0  0  0  0  0
  -27.4760  -32.5580   25.9110 C   0  0  0  0  0  1  0  0  0  0  0  0
  -25.5640  -33.9160   24.2150 N   0  0  0  0  0  0  0  0  0  0  0  0
  -25.9050  -34.9620   23.4470 C   0  0  0  0  0  0  0  0  0  0  0  0
  -26.5860  -34.8490   22.4260 O   0  0  0  0  0  0  0  0  0  0  0  0
  -24.9680  -34.0740   25.0140 H   0  0  0  0  0  0  0  0  0  0  0  0
  -24.1600  -36.7360   23.0620 C   0  0  0  0  0  1  0  0  0  0  0  0
  -25.4030  -36.3500   23.8840 C   0  0  0  0  0  3  0  0  0  0  0  0
  -27.5200  -37.2780   24.7140 C   0  0  0  0  0  1  0  0  0  0  0  0
  -26.4240  -37.4140   23.7580 N   0  0  0  0  0  0  0  0  0  0  0  0
  -25.9990  -38.3290   23.8860 H   0  0  0  0  0  0  0  0  0  0  0  0
  2  5  1  0
  3  6  2  0
  4  3  1  0
  4  2  2  0
  5  7  2  0
  5 10  1  0
  6  7  1  0
  6  1  1  0
  7  9  1  0
  8  4  1  0
 11 19  1  0
 12 17  1  0
 13 14  1  0
 13 12  1  0
 15 14  1  0
 15 24  1  0
 15 16  1  0
 17 11  1  0
 17 16  1  0
 18 11  2  0
 19 20  1  0
 19 10  1  0
 21 22  2  0
 22 41  1  0
 23 22  1  0
 23 26  1  0
 24 25  1  0
 24 21  1  0
 25 23  2  0
 26 27  1  0
 27 28  2  0
 29 32  1  0
 29 28  1  0
 30 29  2  0
 31 30  1  0
 31 26  2  0
 32 33  1  0
 33 34  1  0
 34 35  2  0
 36 35  1  0
 36 40  1  0
 37 36  2  0
 38 33  2  0
 38 37  1  0
 39 38  1  0
 41 42  1  0
 42 45  1  0
 42 44  1  0
 43 41  2  0
 46 21  1  0
 46 47  1  0
 48 46  1  0
 49 51  1  0
 50 49  2  0
 53 52  1  0
 53 56  1  0
 53 51  1  0
 54 52  1  0
 54 49  1  0
 54  1  1  0
 54 55  1  6
 57 68  2  0
 58 56  1  0
 58 63  1  0
 59 67  1  0
 59 69  1  0
 60 66  1  0
 60 62  1  0
 61 67  1  0
 62 63  2  0
 62 61  1  0
 64 58  2  0
 65 64  1  0
 65 60  2  0
 66 59  1  0
 67 57  1  0
 69 71  2  0
 70 69  1  0
 72 70  1  0
 73 82  2  0
 73 78  1  0
 74 70  1  0
 74 78  1  0
 75 74  1  0
 76 77  1  0
 76 75  1  0
 77 73  1  0
 78 79  2  0
 79 80  1  0
 81 80  2  0
 82 81  1  0
 83 57  1  0
 83 88  1  0
 83 84  1  0
 84 87  1  1
 84 85  1  0
 86 84  1  0
 88 91  1  0
 89 93  1  0
 89 88  1  0
 90 89  2  0
 93 92  1  0
 95 93  1  0
 95 96  1  0
 95 94  1  0
M  ISO  4  11 100  19 100  53 101  56 101
M  END
>  <TORSDO>  (63) 
F 19

>  <SCORE>  (63) 
-12.721

>  <name>  (63) 
62

>  <ligand_id>  (63) 
62

>  <original_smiles>  (63) 
[H]C([H])=C1C([H])([H])C([H])(Oc2c([H])c([H])c3c(c2[H])C([H])([H])N(C(=O)C([H])(N([H])C(=O)C([H])(N([H])C([H])([H])[H])C([H])([H])[H])C(C([H])([H])[H])(C([H])([H])[H])C([H])([H])[H])C([H])(C(=O)N([H])C2([H])c4c([H])c([H])c([H])c([H])c4C([H])([H])C([H])([H])C2([H])[H])C3([H])[H])C([H])([H])[N+]1([H])C([H])([H])c1c([H])c(C([H])([H])[H])c([H])c(C([H])([H])N([H])C(=O)N2C([H])([H])C([H])([H])C([H])([H])C([H])(n3nc(-c4c([H])c([H])c(Oc5c([H])c([H])c(F)c([H])c5F)c([H])c4[H])c(C(=O)N([H])[H])c3N([H])[H])C2([H])[H])c1C([H])([H])[H]

>  <smiles>  (63) 
[H]C([H])=C1C([H])([H])C([H])(Oc2c([H])c([H])c3c(c2[H])C([H])([H])N(C(=O)C([H])(N([H])C(=O)C([H])(N([H])C([H])([H])[H])C([H])([H])[H])C(C([H])([H])[H])(C([H])([H])[H])C([H])([H])[H])C([H])(C(=O)N([H])C2([H])c4c([H])c([H])c([H])c([H])c4C([H])([H])C([H])([H])C2([H])[H])C3([H])[H])C([H])([H])[N+]1([H])C([H])([H])c1c([H])c(C([H])([H])[H])c([H])c(C([H])([H])N([H])C(=O)N2C([H])([H])C([H])([H])C([H])([H])C([H])(n3nc(-c4c([H])c([H])c(Oc5c([H])c([H])c(F)c([H])c5F)c([H])c4[H])c(C(=O)N([H])[H])c3N([H])[H])C2([H])[H])c1C([H])([H])[H]

$$$$
63:0:0
     RDKit          3D

 95104  0  0  1  0  0  0  0  0999 V2000
  -27.9740  -23.0950   21.3120 C   0  0  0  0  0  0  0  0  0  0  0  0
  -27.6240  -22.2090   22.2600 C   0  0  0  0  0  2  0  0  0  0  0  0
  -27.5600  -24.5830   21.2280 C   0  0  0  0  0  2  0  0  0  0  0  0
  -28.8860  -24.0380   19.3340 C   0  0  0  0  0  2  0  0  0  0  0  0
  -28.5540  -25.2660   20.2810 C   0  0  0  0  0  3  0  0  0  0  0  0
  -28.9360  -22.7810   20.1960 N   0  0  2  0  0  4  0  0  0  0  0  0
  -29.8640  -22.7830   20.5920 H   0  0  0  0  0  0  0  0  0  0  0  0
  -28.4150  -26.7080   19.8490 O   0  0  0  0  0  0  0  0  0  0  0  0
  -24.6050  -31.9260   23.1900 C   0  0  0  0  0  0  0  0  0  0  0  0
  -27.2480  -27.4940   19.9430 C   0  0  0  0  0  0  0  0  0  0  0  0
  -23.4020  -30.5700   21.5120 C   0  0  0  0  0  3  0  0  0  0  0  0
  -24.8570  -29.0820   20.0160 C   0  0  0  0  0  0  0  0  0  0  0  0
  -25.9340  -30.9300   21.3060 C   0  0  0  0  0  2  0  0  0  0  0  0
  -26.0260  -29.5700   20.6130 C   0  0  0  0  0  0  0  0  0  0  0  0
  -27.2240  -28.7910   20.5580 C   0  0  0  0  0  3  0  0  0  0  0  0
  -26.0560  -27.0600   19.3320 C   0  0  0  0  0  3  0  0  0  0  0  0
  -24.8750  -27.8350   19.3660 C   0  0  0  0  0  3  0  0  0  0  0  0
  -23.6100  -29.9420   20.1070 C   0  0  0  0  0  2  0  0  0  0  0  0
  -24.6670  -31.1600   22.0600 N   0  0  0  0  0  0  0  0  0  0  0  0
  -23.5240  -32.1650   23.7490 O   0  0  0  0  0  0  0  0  0  0  0  0
  -22.7670  -29.5110   22.4450 C   0  0  0  0  0  0  0  0  0  0  0  0
  -21.4440  -29.3080   22.3190 N   0  0  0  0  0  0  0  0  0  0  0  0
  -23.4630  -28.8750   23.2390 O   0  0  0  0  0  0  0  0  0  0  0  0
  -20.9380  -29.8770   21.6530 H   0  0  0  0  0  0  0  0  0  0  0  0
  -18.1010  -28.0080   22.7870 C   0  0  0  0  0  0  0  0  0  0  0  0
  -20.6520  -28.3260   23.0610 C   0  0  0  0  0  3  0  0  0  0  0  0
  -20.7890  -26.9160   22.4400 C   0  0  0  0  0  2  0  0  0  0  0  0
  -19.6940  -26.5980   21.4180 C   0  0  0  0  0  2  0  0  0  0  0  0
  -18.3100  -26.6860   22.0690 C   0  0  0  0  0  2  0  0  0  0  0  0
  -19.2000  -28.7860   23.2400 C   0  0  0  0  0  0  0  0  0  0  0  0
  -18.9490  -30.0230   23.8710 C   0  0  0  0  0  3  0  0  0  0  0  0
  -17.6320  -30.4850   24.0560 C   0  0  0  0  0  3  0  0  0  0  0  0
  -16.5470  -29.7030   23.6210 C   0  0  0  0  0  3  0  0  0  0  0  0
  -16.7820  -28.4670   22.9920 C   0  0  0  0  0  3  0  0  0  0  0  0
  -25.8850  -32.5570   23.8200 C   0  0  0  0  0  3  0  0  0  0  0  0
  -25.5730  -33.9530   24.1610 N   0  0  0  0  0  0  0  0  0  0  0  0
  -25.9180  -35.0140   23.4200 C   0  0  0  0  0  0  0  0  0  0  0  0
  -26.6010  -34.9210   22.3960 O   0  0  0  0  0  0  0  0  0  0  0  0
  -24.9680  -34.1000   24.9560 H   0  0  0  0  0  0  0  0  0  0  0  0
  -24.2130  -36.8270   23.0520 C   0  0  0  0  0  1  0  0  0  0  0  0
  -25.4290  -36.3990   23.8870 C   0  0  0  0  0  3  0  0  0  0  0  0
  -27.5420  -37.2630   24.7930 C   0  0  0  0  0  1  0  0  0  0  0  0
  -26.4710  -37.4460   23.8170 N   0  0  0  0  0  0  0  0  0  0  0  0
  -26.0670  -38.3680   23.9600 H   0  0  0  0  0  0  0  0  0  0  0  0
  -26.3980  -31.7780   25.0940 C   0  0  1  0  0  0  0  0  0  0  0  0
  -25.3010  -31.5290   26.1550 C   0  0  0  0  0  1  0  0  0  0  0  0
  -26.9890  -30.4060   24.6960 C   0  0  0  0  0  1  0  0  0  0  0  0
  -27.5390  -32.5740   25.7690 C   0  0  0  0  0  1  0  0  0  0  0  0
  -28.8250  -21.3900   19.5200 C   0  0  0  0  0  2  0  0  0  0  0  0
  -31.0270  -20.4030   20.4490 C   0  0  0  0  0  3  0  0  0  0  0  0
  -31.5670  -18.0100   20.6410 C   0  0  0  0  0  3  0  0  0  0  0  0
  -31.9260  -19.3670   20.7830 C   0  0  0  0  0  0  0  0  0  0  0  0
  -29.7270  -20.1350   19.9710 C   0  0  0  0  0  0  0  0  0  0  0  0
  -29.3760  -18.7140   19.8350 C   0  0  0  0  0  0  0  0  0  0  0  0
  -30.2960  -17.6210   20.1620 C   0  0  0  0  0  0  0  0  0  0  0  0
  -33.3100  -19.7190   21.2890 C   0  0  0  0  0  1  0  0  0  0  0  0
  -28.0010  -18.3520   19.2970 C   0  0  0  0  0  1  0  0  0  0  0  0
  -30.7830  -15.0400   19.9160 C   0  0  0  0  0  0  0  0  0  0  0  0
  -30.5650  -12.7410   18.9520 C   0  0  0  0  0  2  0  0  0  0  0  0
  -29.5550  -12.7730   17.7840 C   0  0  0  0  0  2  0  0  0  0  0  0
  -28.1140  -12.5890   18.3020 C   0  0  0  0  0  2  0  0  0  0  0  0
  -27.7990  -13.4970   19.5220 C   0  0  0  0  0  3  0  0  0  0  0  0
  -28.9210  -13.4450   20.5800 C   0  0  0  0  0  2  0  0  0  0  0  0
  -30.1710  -13.8060   19.9010 N   0  0  0  0  0  0  0  0  0  0  0  0
  -31.9590  -15.1360   19.5510 O   0  0  0  0  0  0  0  0  0  0  0  0
  -29.9790  -16.1650   20.0900 N   0  0  0  0  0  0  0  0  0  0  0  0
  -29.0010  -15.9400   20.1830 H   0  0  0  0  0  0  0  0  0  0  0  0
  -25.4740  -14.0810   20.4350 C   0  0  0  0  0  0  0  0  0  0  0  0
  -24.4300  -13.3020   20.8510 C   0  0  0  0  0  0  0  0  0  0  0  0
  -24.8760  -11.9490   20.7410 C   0  0  0  0  0  0  0  0  0  0  0  0
  -26.4900  -13.2020   20.0960 N   0  0  0  0  0  0  0  0  0  0  0  0
  -26.1410  -11.9130   20.3430 N   0  0  0  0  0  0  0  0  0  0  0  0
  -24.1510  -10.6870   20.9340 C   0  0  0  0  0  0  0  0  0  0  0  0
  -24.5890   -9.7180   21.8630 C   0  0  0  0  0  3  0  0  0  0  0  0
  -23.8630   -8.5210   22.0450 C   0  0  0  0  0  3  0  0  0  0  0  0
  -22.6850   -8.2850   21.2970 C   0  0  0  0  0  0  0  0  0  0  0  0
  -22.2660   -9.2420   20.3570 C   0  0  0  0  0  3  0  0  0  0  0  0
  -22.9920  -10.4310   20.1730 C   0  0  0  0  0  3  0  0  0  0  0  0
  -21.9310   -7.1400   21.3880 O   0  0  0  0  0  0  0  0  0  0  0  0
  -21.8410   -6.4290   22.5580 C   0  0  0  0  0  0  0  0  0  0  0  0
  -21.3080   -6.9970   23.7360 C   0  0  0  0  0  3  0  0  0  0  0  0
  -21.1700   -6.2090   24.8970 C   0  0  0  0  0  3  0  0  0  0  0  0
  -21.5540   -4.8550   24.8800 C   0  0  0  0  0  0  0  0  0  0  0  0
  -22.0790   -4.2860   23.7060 C   0  0  0  0  0  3  0  0  0  0  0  0
  -22.2190   -5.0710   22.5470 C   0  0  0  0  0  0  0  0  0  0  0  0
  -22.7070   -4.5130   21.4130 F   0  0  0  0  0  0  0  0  0  0  0  0
  -21.4140   -4.0960   25.9920 F   0  0  0  0  0  0  0  0  0  0  0  0
  -23.0580  -13.7810   21.2320 C   0  0  0  0  0  0  0  0  0  0  0  0
  -22.3800  -13.0560   22.1150 N   0  0  0  0  0  0  0  0  0  0  0  0
  -22.6000  -14.8310   20.7830 O   0  0  0  0  0  0  0  0  0  0  0  0
  -22.7650  -12.2060   22.4980 H   0  0  0  0  0  0  0  0  0  0  0  0
  -21.4620  -13.3560   22.4110 H   0  0  0  0  0  0  0  0  0  0  0  0
  -25.6370  -15.4560   20.2920 N   0  0  0  0  0  0  0  0  0  0  0  0
  -24.8760  -16.1020   20.4670 H   0  0  0  0  0  0  0  0  0  0  0  0
  -26.4420  -15.8990   19.8750 H   0  0  0  0  0  0  0  0  0  0  0  0
  1  2  2  0
  3  1  1  0
  4  6  1  0
  4  5  1  0
  5  8  1  0
  5  3  1  0
  6  7  1  1
  6  1  1  0
  8 10  1  0
  9 20  2  0
 10 15  1  0
 11 19  1  0
 11 21  1  0
 12 18  1  0
 12 14  1  0
 13 19  1  0
 14 13  1  0
 15 14  2  0
 16 17  1  0
 16 10  2  0
 17 12  2  0
 18 11  1  0
 19  9  1  0
 21 23  2  0
 22 21  1  0
 24 22  1  0
 25 34  2  0
 25 30  1  0
 26 22  1  0
 26 30  1  0
 27 26  1  0
 28 29  1  0
 28 27  1  0
 29 25  1  0
 30 31  2  0
 31 32  1  0
 33 32  2  0
 34 33  1  0
 35  9  1  0
 35 36  1  0
 35 45  1  0
 36 39  1  0
 37 41  1  0
 37 36  1  0
 38 37  2  0
 41 40  1  0
 43 41  1  0
 43 44  1  0
 43 42  1  0
 45 48  1  1
 45 46  1  0
 47 45  1  0
 49 53  1  0
 49  6  1  0
 50 52  1  0
 51 52  2  0
 52 56  1  0
 53 50  2  0
 54 53  1  0
 54 55  2  0
 55 51  1  0
 57 54  1  0
 58 66  1  0
 59 64  1  0
 60 61  1  0
 60 59  1  0
 62 61  1  0
 62 71  1  0
 62 63  1  0
 64 58  1  0
 64 63  1  0
 65 58  2  0
 66 55  1  0
 66 67  1  0
 68 69  2  0
 69 88  1  0
 70 69  1  0
 70 73  1  0
 71 72  1  0
 71 68  1  0
 72 70  2  0
 73 74  1  0
 74 75  2  0
 76 79  1  0
 76 75  1  0
 77 76  2  0
 78 77  1  0
 78 73  2  0
 79 80  1  0
 80 81  1  0
 81 82  2  0
 83 82  1  0
 83 87  1  0
 84 83  2  0
 85 80  2  0
 85 84  1  0
 86 85  1  0
 88 89  1  0
 89 92  1  0
 89 91  1  0
 90 88  2  0
 93 68  1  0
 93 94  1  0
 95 93  1  0
M  ISO  4   5 101   8 101  58 100  66 100
M  END
>  <TORSDO>  (64) 
F 18

>  <SCORE>  (64) 
-14.157

>  <name>  (64) 
63

>  <ligand_id>  (64) 
63

>  <original_smiles>  (64) 
[H]C([H])=C1C([H])([H])C([H])(Oc2c([H])c([H])c3c(c2[H])C([H])([H])N(C(=O)C([H])(N([H])C(=O)C([H])(N([H])C([H])([H])[H])C([H])([H])[H])C(C([H])([H])[H])(C([H])([H])[H])C([H])([H])[H])C([H])(C(=O)N([H])C2([H])c4c([H])c([H])c([H])c([H])c4C([H])([H])C([H])([H])C2([H])[H])C3([H])[H])C([H])([H])[N+]1([H])C([H])([H])c1c([H])c(C([H])([H])[H])c([H])c(N([H])C(=O)N2C([H])([H])C([H])([H])C([H])([H])C([H])(n3nc(-c4c([H])c([H])c(Oc5c([H])c([H])c(F)c([H])c5F)c([H])c4[H])c(C(=O)N([H])[H])c3N([H])[H])C2([H])[H])c1C([H])([H])[H]

>  <smiles>  (64) 
[H]C([H])=C1C([H])([H])C([H])(Oc2c([H])c([H])c3c(c2[H])C([H])([H])N(C(=O)C([H])(N([H])C(=O)C([H])(N([H])C([H])([H])[H])C([H])([H])[H])C(C([H])([H])[H])(C([H])([H])[H])C([H])([H])[H])C([H])(C(=O)N([H])C2([H])c4c([H])c([H])c([H])c([H])c4C([H])([H])C([H])([H])C2([H])[H])C3([H])[H])C([H])([H])[N+]1([H])C([H])([H])c1c([H])c(C([H])([H])[H])c([H])c(N([H])C(=O)N2C([H])([H])C([H])([H])C([H])([H])C([H])(n3nc(-c4c([H])c([H])c(Oc5c([H])c([H])c(F)c([H])c5F)c([H])c4[H])c(C(=O)N([H])[H])c3N([H])[H])C2([H])[H])c1C([H])([H])[H]

$$$$
64:0:0
     RDKit          3D

 96104  0  0  1  0  0  0  0  0999 V2000
  -32.4240  -21.6770   20.9440 C   0  0  0  0  0  0  0  0  0  0  0  0
  -33.7250  -21.5560   20.6810 N   0  0  0  0  0  4  0  0  0  0  0  0
  -31.8850  -22.8960   20.7500 N   0  0  0  0  0  0  0  0  0  0  0  0
  -34.1710  -20.6630   20.8340 H   0  0  0  0  0  0  0  0  0  0  0  0
  -34.3000  -22.3140   20.3480 H   0  0  0  0  0  0  0  0  0  0  0  0
  -32.5180  -23.6550   20.5380 H   0  0  0  0  0  0  0  0  0  0  0  0
  -30.4070  -18.0810   22.1850 C   0  0  0  0  0  3  0  0  0  0  0  0
  -30.4330  -19.2000   23.0430 C   0  0  0  0  0  3  0  0  0  0  0  0
  -31.6470  -19.3560   20.5230 C   0  0  0  0  0  3  0  0  0  0  0  0
  -31.6830  -20.4820   21.3790 C   0  0  0  0  0  0  0  0  0  0  0  0
  -31.0180  -18.1520   20.9140 C   0  0  0  0  0  0  0  0  0  0  0  0
  -31.0690  -20.3950   22.6500 C   0  0  0  0  0  0  0  0  0  0  0  0
  -31.1100  -21.4340   23.5190 F   0  0  0  0  0  0  0  0  0  0  0  0
  -30.9750  -16.9910   19.9260 C   0  0  0  0  0  2  0  0  0  0  0  0
  -31.3940  -14.5610   20.1050 C   0  0  0  0  0  0  0  0  0  0  0  0
  -30.9330  -12.4580   18.9320 C   0  0  0  0  0  2  0  0  0  0  0  0
  -29.9490  -12.7670   17.7830 C   0  0  0  0  0  2  0  0  0  0  0  0
  -28.4930  -12.6810   18.2810 C   0  0  0  0  0  2  0  0  0  0  0  0
  -28.2560  -13.4830   19.5890 C   0  0  0  0  0  3  0  0  0  0  0  0
  -29.3550  -13.1800   20.6370 C   0  0  0  0  0  2  0  0  0  0  0  0
  -30.6640  -13.4190   20.0110 N   0  0  0  0  0  0  0  0  0  0  0  0
  -32.5310  -14.6710   19.6440 O   0  0  0  0  0  0  0  0  0  0  0  0
  -30.6940  -15.6510   20.4660 N   0  0  0  0  0  0  0  0  0  0  0  0
  -29.7620  -15.4820   20.8060 H   0  0  0  0  0  0  0  0  0  0  0  0
  -25.9240  -14.1620   20.4400 C   0  0  0  0  0  0  0  0  0  0  0  0
  -24.8410  -13.4200   20.8290 C   0  0  0  0  0  0  0  0  0  0  0  0
  -25.2400  -12.0530   20.7230 C   0  0  0  0  0  0  0  0  0  0  0  0
  -26.9160  -13.2480   20.1230 N   0  0  0  0  0  0  0  0  0  0  0  0
  -26.5110  -11.9720   20.3510 N   0  0  0  0  0  0  0  0  0  0  0  0
  -24.4690  -10.8160   20.8980 C   0  0  0  0  0  0  0  0  0  0  0  0
  -24.8210   -9.8550   21.8720 C   0  0  0  0  0  3  0  0  0  0  0  0
  -24.0530   -8.6830   22.0330 C   0  0  0  0  0  3  0  0  0  0  0  0
  -22.9170   -8.4610   21.2180 C   0  0  0  0  0  0  0  0  0  0  0  0
  -22.5840   -9.4080   20.2350 C   0  0  0  0  0  3  0  0  0  0  0  0
  -23.3530  -10.5730   20.0720 C   0  0  0  0  0  3  0  0  0  0  0  0
  -22.1260   -7.3390   21.2870 O   0  0  0  0  0  0  0  0  0  0  0  0
  -21.8870   -6.7000   22.4770 C   0  0  0  0  0  0  0  0  0  0  0  0
  -21.2580   -7.3520   23.5610 C   0  0  0  0  0  3  0  0  0  0  0  0
  -20.9680   -6.6380   24.7400 C   0  0  0  0  0  3  0  0  0  0  0  0
  -21.2950   -5.2720   24.8360 C   0  0  0  0  0  0  0  0  0  0  0  0
  -21.9160   -4.6200   23.7560 C   0  0  0  0  0  3  0  0  0  0  0  0
  -22.2080   -5.3320   22.5800 C   0  0  0  0  0  0  0  0  0  0  0  0
  -22.7880   -4.6920   21.5340 F   0  0  0  0  0  0  0  0  0  0  0  0
  -21.0090   -4.5830   25.9650 F   0  0  0  0  0  0  0  0  0  0  0  0
  -23.4800  -13.9440   21.1880 C   0  0  0  0  0  0  0  0  0  0  0  0
  -22.7780  -13.2610   22.0850 N   0  0  0  0  0  0  0  0  0  0  0  0
  -23.0520  -14.9940   20.7090 O   0  0  0  0  0  0  0  0  0  0  0  0
  -23.1380  -12.4100   22.4920 H   0  0  0  0  0  0  0  0  0  0  0  0
  -21.8670  -13.5920   22.3700 H   0  0  0  0  0  0  0  0  0  0  0  0
  -26.1410  -15.5310   20.3060 N   0  0  0  0  0  0  0  0  0  0  0  0
  -25.4030  -16.2080   20.4670 H   0  0  0  0  0  0  0  0  0  0  0  0
  -26.9790  -15.9450   19.9200 H   0  0  0  0  0  0  0  0  0  0  0  0
  -30.4680  -23.3040   20.8150 C   0  0  0  0  0  2  0  0  0  0  0  0
  -30.3170  -24.7880   20.4210 C   0  0  0  0  0  2  0  0  0  0  0  0
  -28.8580  -25.2620   20.3110 C   0  0  0  0  0  2  0  0  0  0  0  0
  -28.8420  -26.6510   19.9740 O   0  0  0  0  0  0  0  0  0  0  0  0
  -24.6450  -31.4780   23.0550 C   0  0  0  0  0  0  0  0  0  0  0  0
  -27.6130  -27.2710   19.9620 C   0  0  0  0  0  0  0  0  0  0  0  0
  -23.5530  -30.0300   21.3720 C   0  0  0  0  0  3  0  0  0  0  0  0
  -25.1230  -28.6070   19.9540 C   0  0  0  0  0  0  0  0  0  0  0  0
  -26.0520  -30.5540   21.2190 C   0  0  0  0  0  2  0  0  0  0  0  0
  -26.2350  -29.2020   20.5610 C   0  0  0  0  0  0  0  0  0  0  0  0
  -27.4830  -28.5440   20.5550 C   0  0  0  0  0  3  0  0  0  0  0  0
  -26.4820  -26.6800   19.3520 C   0  0  0  0  0  3  0  0  0  0  0  0
  -25.2400  -27.3450   19.3460 C   0  0  0  0  0  3  0  0  0  0  0  0
  -23.8260  -29.3830   19.9880 C   0  0  0  0  0  2  0  0  0  0  0  0
  -24.7670  -30.7010   21.9420 N   0  0  0  0  0  0  0  0  0  0  0  0
  -23.5390  -31.6720   23.5810 O   0  0  0  0  0  0  0  0  0  0  0  0
  -22.9520  -28.9550   22.3050 C   0  0  0  0  0  0  0  0  0  0  0  0
  -21.6450  -28.6890   22.1490 N   0  0  0  0  0  0  0  0  0  0  0  0
  -23.6590  -28.3630   23.1250 O   0  0  0  0  0  0  0  0  0  0  0  0
  -21.1320  -29.2250   21.4630 H   0  0  0  0  0  0  0  0  0  0  0  0
  -18.3500  -27.2620   22.5440 C   0  0  0  0  0  0  0  0  0  0  0  0
  -20.8750  -27.6900   22.8890 C   0  0  0  0  0  3  0  0  0  0  0  0
  -21.0920  -26.2750   22.3040 C   0  0  0  0  0  2  0  0  0  0  0  0
  -20.0420  -25.8870   21.2570 C   0  0  0  0  0  2  0  0  0  0  0  0
  -18.6370  -25.9320   21.8640 C   0  0  0  0  0  2  0  0  0  0  0  0
  -19.4020  -28.0940   23.0110 C   0  0  0  0  0  0  0  0  0  0  0  0
  -19.0820  -29.3340   23.6030 C   0  0  0  0  0  3  0  0  0  0  0  0
  -17.7430  -29.7460   23.7340 C   0  0  0  0  0  3  0  0  0  0  0  0
  -16.7050  -28.9110   23.2840 C   0  0  0  0  0  3  0  0  0  0  0  0
  -17.0090  -27.6700   22.6950 C   0  0  0  0  0  3  0  0  0  0  0  0
  -25.8790  -32.1760   23.7060 C   0  0  0  0  0  3  0  0  0  0  0  0
  -25.4820  -33.5480   24.0460 N   0  0  0  0  0  0  0  0  0  0  0  0
  -25.8260  -34.6350   23.3410 C   0  0  0  0  0  0  0  0  0  0  0  0
  -26.5790  -34.5890   22.3650 O   0  0  0  0  0  0  0  0  0  0  0  0
  -24.8170  -33.6550   24.7990 H   0  0  0  0  0  0  0  0  0  0  0  0
  -24.0620  -36.3680   22.8770 C   0  0  0  0  0  1  0  0  0  0  0  0
  -25.2400  -35.9890   23.7890 C   0  0  0  0  0  3  0  0  0  0  0  0
  -27.2410  -36.9380   24.8480 C   0  0  0  0  0  1  0  0  0  0  0  0
  -26.2330  -37.0850   23.8020 N   0  0  0  0  0  0  0  0  0  0  0  0
  -25.7760  -37.9840   23.9240 H   0  0  0  0  0  0  0  0  0  0  0  0
  -26.4220  -31.4200   24.9790 C   0  0  1  0  0  0  0  0  0  0  0  0
  -25.3280  -31.0930   26.0230 C   0  0  0  0  0  1  0  0  0  0  0  0
  -27.1010  -30.0900   24.5750 C   0  0  0  0  0  1  0  0  0  0  0  0
  -27.5070  -32.2750   25.6750 C   0  0  0  0  0  1  0  0  0  0  0  0
  1 10  1  0
  2  4  1  0
  2  1  2  0
  3 53  1  0
  3  1  1  0
  5  2  1  0
  6  3  1  0
  7  8  1  0
  9 11  1  0
  9 10  2  0
 10 12  1  0
 11  7  2  0
 12  8  2  0
 12 13  1  0
 14 23  1  0
 14 11  1  0
 15 23  1  0
 16 21  1  0
 17 18  1  0
 17 16  1  0
 19 18  1  0
 19 28  1  0
 19 20  1  0
 21 15  1  0
 21 20  1  0
 22 15  2  0
 23 24  1  0
 25 26  2  0
 26 45  1  0
 27 26  1  0
 27 30  1  0
 28 29  1  0
 28 25  1  0
 29 27  2  0
 30 31  1  0
 31 32  2  0
 33 36  1  0
 33 32  1  0
 34 33  2  0
 35 34  1  0
 35 30  2  0
 36 37  1  0
 37 42  2  0
 37 38  1  0
 38 39  2  0
 39 40  1  0
 40 44  1  0
 41 40  2  0
 42 41  1  0
 43 42  1  0
 45 46  1  0
 46 49  1  0
 46 48  1  0
 47 45  2  0
 50 25  1  0
 50 51  1  0
 52 50  1  0
 54 53  1  0
 55 54  1  0
 56 55  1  0
 57 68  2  0
 58 56  1  0
 58 63  1  0
 59 67  1  0
 59 69  1  0
 60 66  1  0
 60 62  1  0
 61 67  1  0
 62 61  1  0
 63 62  2  0
 64 58  2  0
 65 64  1  0
 65 60  2  0
 66 59  1  0
 67 57  1  0
 69 71  2  0
 70 69  1  0
 72 70  1  0
 73 82  2  0
 73 78  1  0
 74 70  1  0
 74 78  1  0
 75 74  1  0
 76 77  1  0
 76 75  1  0
 77 73  1  0
 78 79  2  0
 79 80  1  0
 81 80  2  0
 82 81  1  0
 83 57  1  0
 83 84  1  0
 83 93  1  0
 84 87  1  0
 85 89  1  0
 85 84  1  0
 86 85  2  0
 89 88  1  0
 89 91  1  0
 91 92  1  0
 91 90  1  0
 93 96  1  1
 93 94  1  0
 95 93  1  0
M  ISO  4  15 100  23 100  55 101  56 101
M  END
>  <TORSDO>  (65) 
F 21

>  <SCORE>  (65) 
-11.585

>  <name>  (65) 
64

>  <ligand_id>  (65) 
64

>  <original_smiles>  (65) 
[H]c1c([H])c([H])c2c(c1[H])C([H])([H])C([H])([H])C([H])([H])C2([H])N([H])C(=O)C1([H])N(C(=O)C([H])(N([H])C(=O)C([H])(N([H])C([H])([H])[H])C([H])([H])[H])C(C([H])([H])[H])(C([H])([H])[H])C([H])([H])[H])C([H])([H])c2c([H])c(OC([H])([H])C([H])([H])C([H])([H])[N+]([H])=C(c3c([H])c(C([H])([H])N([H])C(=O)N4C([H])([H])C([H])([H])C([H])([H])C([H])(n5nc(-c6c([H])c([H])c(Oc7c([H])c([H])c(F)c([H])c7F)c([H])c6[H])c(C(=O)N([H])[H])c5N([H])[H])C4([H])[H])c([H])c([H])c3F)N([H])[H])c([H])c([H])c2C1([H])[H]

>  <smiles>  (65) 
[H]c1c([H])c([H])c2c(c1[H])C([H])([H])C([H])([H])C([H])([H])C2([H])N([H])C(=O)C1([H])N(C(=O)C([H])(N([H])C(=O)C([H])(N([H])C([H])([H])[H])C([H])([H])[H])C(C([H])([H])[H])(C([H])([H])[H])C([H])([H])[H])C([H])([H])c2c([H])c(OC([H])([H])C([H])([H])C([H])([H])[N+]([H])=C(c3c([H])c(C([H])([H])N([H])C(=O)N4C([H])([H])C([H])([H])C([H])([H])C([H])(n5nc(-c6c([H])c([H])c(Oc7c([H])c([H])c(F)c([H])c7F)c([H])c6[H])c(C(=O)N([H])[H])c5N([H])[H])C4([H])[H])c([H])c([H])c3F)N([H])[H])c([H])c([H])c2C1([H])[H]

$$$$
65:0:0
     RDKit          3D

 96105  0  0  1  0  0  0  0  0999 V2000
  -30.0740  -25.4510   21.2460 C   0  0  0  0  0  2  0  0  0  0  0  0
  -30.4140  -24.1260   21.9430 C   0  0  0  0  0  2  0  0  0  0  0  0
  -28.9800  -24.1510   19.3720 C   0  0  0  0  0  2  0  0  0  0  0  0
  -28.8170  -25.3750   20.3800 C   0  0  0  0  0  3  0  0  0  0  0  0
  -29.6860  -22.8670   21.4070 C   0  0  0  0  0  3  0  0  0  0  0  0
  -30.3830  -21.6430   22.0310 C   0  0  0  0  0  1  0  0  0  0  0  0
  -29.6160  -22.8570   19.9070 N   0  0  1  0  0  4  0  0  0  0  0  0
  -30.5750  -22.8810   19.5900 H   0  0  0  0  0  0  0  0  0  0  0  0
  -28.7080  -26.7300   19.8250 O   0  0  0  0  0  0  0  0  0  0  0  0
  -24.6350  -31.6820   23.1260 C   0  0  0  0  0  0  0  0  0  0  0  0
  -27.5140  -27.4400   19.9140 C   0  0  0  0  0  0  0  0  0  0  0  0
  -23.5230  -30.3220   21.3880 C   0  0  0  0  0  3  0  0  0  0  0  0
  -25.0690  -28.9050   19.9250 C   0  0  0  0  0  0  0  0  0  0  0  0
  -26.0410  -30.7710   21.2740 C   0  0  0  0  0  2  0  0  0  0  0  0
  -26.1960  -29.4300   20.5700 C   0  0  0  0  0  0  0  0  0  0  0  0
  -27.4240  -28.7110   20.5500 C   0  0  0  0  0  3  0  0  0  0  0  0
  -26.3650  -26.9410   19.2670 C   0  0  0  0  0  3  0  0  0  0  0  0
  -25.1540  -27.6640   19.2670 C   0  0  0  0  0  3  0  0  0  0  0  0
  -23.7910  -29.7180   19.9820 C   0  0  0  0  0  2  0  0  0  0  0  0
  -24.7490  -30.9390   21.9880 N   0  0  0  0  0  0  0  0  0  0  0  0
  -23.5310  -31.8830   23.6530 O   0  0  0  0  0  0  0  0  0  0  0  0
  -22.8880  -29.2310   22.2810 C   0  0  0  0  0  0  0  0  0  0  0  0
  -21.5650  -29.0350   22.1450 N   0  0  0  0  0  0  0  0  0  0  0  0
  -23.5850  -28.5670   23.0520 O   0  0  0  0  0  0  0  0  0  0  0  0
  -21.0620  -29.6250   21.4980 H   0  0  0  0  0  0  0  0  0  0  0  0
  -18.2060  -27.7930   22.6250 C   0  0  0  0  0  0  0  0  0  0  0  0
  -20.7700  -28.0320   22.8520 C   0  0  0  0  0  3  0  0  0  0  0  0
  -20.8580  -26.6560   22.1510 C   0  0  0  0  0  2  0  0  0  0  0  0
  -19.7290  -26.4220   21.1430 C   0  0  0  0  0  2  0  0  0  0  0  0
  -18.3650  -26.5070   21.8310 C   0  0  0  0  0  2  0  0  0  0  0  0
  -19.3350  -28.5170   23.0910 C   0  0  0  0  0  0  0  0  0  0  0  0
  -19.1320  -29.7240   23.7940 C   0  0  0  0  0  3  0  0  0  0  0  0
  -17.8320  -30.2060   24.0380 C   0  0  0  0  0  3  0  0  0  0  0  0
  -16.7180  -29.4770   23.5880 C   0  0  0  0  0  3  0  0  0  0  0  0
  -16.9050  -28.2730   22.8860 C   0  0  0  0  0  3  0  0  0  0  0  0
  -25.8780  -32.3310   23.8080 C   0  0  0  0  0  3  0  0  0  0  0  0
  -25.5200  -33.7130   24.1550 N   0  0  0  0  0  0  0  0  0  0  0  0
  -25.8450  -34.7890   23.4260 C   0  0  0  0  0  0  0  0  0  0  0  0
  -26.5440  -34.7220   22.4110 O   0  0  0  0  0  0  0  0  0  0  0  0
  -24.8970  -33.8370   24.9400 H   0  0  0  0  0  0  0  0  0  0  0  0
  -24.0720  -36.5390   23.0680 C   0  0  0  0  0  1  0  0  0  0  0  0
  -25.3100  -36.1560   23.8960 C   0  0  0  0  0  3  0  0  0  0  0  0
  -27.3970  -37.0940   24.7850 C   0  0  0  0  0  1  0  0  0  0  0  0
  -26.3130  -37.2400   23.8170 N   0  0  0  0  0  0  0  0  0  0  0  0
  -25.8760  -38.1450   23.9640 H   0  0  0  0  0  0  0  0  0  0  0  0
  -26.3650  -31.5450   25.0870 C   0  0  1  0  0  0  0  0  0  0  0  0
  -25.2400  -31.2590   26.1080 C   0  0  0  0  0  1  0  0  0  0  0  0
  -27.0060  -30.1940   24.6910 C   0  0  0  0  0  1  0  0  0  0  0  0
  -27.4650  -32.3570   25.8110 C   0  0  0  0  0  1  0  0  0  0  0  0
  -29.0320  -21.5980   19.2680 C   0  0  0  0  0  2  0  0  0  0  0  0
  -30.1990  -19.4090   18.3510 C   0  0  0  0  0  3  0  0  0  0  0  0
  -29.4500  -19.4120   20.6260 C   0  0  0  0  0  3  0  0  0  0  0  0
  -29.6480  -20.1500   19.4340 C   0  0  0  0  0  0  0  0  0  0  0  0
  -30.5240  -18.0110   18.4410 C   0  0  0  0  0  0  0  0  0  0  0  0
  -30.3350  -17.2870   19.6670 C   0  0  0  0  0  0  0  0  0  0  0  0
  -29.7850  -18.0370   20.7430 C   0  0  0  0  0  0  0  0  0  0  0  0
  -30.9710  -17.3390   17.1510 C   0  0  0  0  0  1  0  0  0  0  0  0
  -29.4130  -17.2410   22.2350 Cl  0  0  0  0  0  0  0  0  0  0  0  0
  -31.2330  -14.8050   19.5140 C   0  0  0  0  0  0  0  0  0  0  0  0
  -30.9730  -12.4830   18.6650 C   0  0  0  0  0  2  0  0  0  0  0  0
  -29.9220  -12.5390   17.5330 C   0  0  0  0  0  2  0  0  0  0  0  0
  -28.4900  -12.4270   18.0980 C   0  0  0  0  0  2  0  0  0  0  0  0
  -28.2450  -13.3800   19.2960 C   0  0  0  0  0  3  0  0  0  0  0  0
  -29.3950  -13.2670   20.3220 C   0  0  0  0  0  2  0  0  0  0  0  0
  -30.6550  -13.5650   19.6170 N   0  0  0  0  0  0  0  0  0  0  0  0
  -32.3470  -14.9580   19.0030 O   0  0  0  0  0  0  0  0  0  0  0  0
  -30.4250  -15.8400   19.8930 N   0  0  0  0  0  0  0  0  0  0  0  0
  -29.6890  -15.5130   20.5020 H   0  0  0  0  0  0  0  0  0  0  0  0
  -25.9840  -14.0830   20.3020 C   0  0  0  0  0  0  0  0  0  0  0  0
  -24.9180  -13.3550   20.7580 C   0  0  0  0  0  0  0  0  0  0  0  0
  -25.2900  -11.9810   20.6170 C   0  0  0  0  0  0  0  0  0  0  0  0
  -26.9400  -13.1560   19.9140 N   0  0  0  0  0  0  0  0  0  0  0  0
  -26.5330  -11.8850   20.1630 N   0  0  0  0  0  0  0  0  0  0  0  0
  -24.5130  -10.7540   20.8310 C   0  0  0  0  0  0  0  0  0  0  0  0
  -24.9020   -9.7910   21.7870 C   0  0  0  0  0  3  0  0  0  0  0  0
  -24.1300   -8.6260   21.9870 C   0  0  0  0  0  3  0  0  0  0  0  0
  -22.9520   -8.4180   21.2330 C   0  0  0  0  0  0  0  0  0  0  0  0
  -22.5810   -9.3680   20.2650 C   0  0  0  0  0  3  0  0  0  0  0  0
  -23.3540  -10.5230   20.0620 C   0  0  0  0  0  3  0  0  0  0  0  0
  -22.1530   -7.3050   21.3430 O   0  0  0  0  0  0  0  0  0  0  0  0
  -21.9510   -6.6810   22.5470 C   0  0  0  0  0  0  0  0  0  0  0  0
  -21.4350   -7.3690   23.6680 C   0  0  0  0  0  3  0  0  0  0  0  0
  -21.1760   -6.6720   24.8650 C   0  0  0  0  0  3  0  0  0  0  0  0
  -21.4230   -5.2880   24.9410 C   0  0  0  0  0  0  0  0  0  0  0  0
  -21.9350   -4.6010   23.8260 C   0  0  0  0  0  3  0  0  0  0  0  0
  -22.1940   -5.2950   22.6320 C   0  0  0  0  0  0  0  0  0  0  0  0
  -22.6650   -4.6240   21.5530 F   0  0  0  0  0  0  0  0  0  0  0  0
  -21.1690   -4.6160   26.0880 F   0  0  0  0  0  0  0  0  0  0  0  0
  -23.5900  -13.8930   21.2030 C   0  0  0  0  0  0  0  0  0  0  0  0
  -22.9380  -13.2240   22.1490 N   0  0  0  0  0  0  0  0  0  0  0  0
  -23.1400  -14.9410   20.7410 O   0  0  0  0  0  0  0  0  0  0  0  0
  -23.3150  -12.3770   22.5470 H   0  0  0  0  0  0  0  0  0  0  0  0
  -22.0480  -13.5690   22.4820 H   0  0  0  0  0  0  0  0  0  0  0  0
  -26.2160  -15.4480   20.1620 N   0  0  0  0  0  0  0  0  0  0  0  0
  -25.5160  -16.1460   20.3850 H   0  0  0  0  0  0  0  0  0  0  0  0
  -27.0450  -15.8440   19.7350 H   0  0  0  0  0  0  0  0  0  0  0  0
  1  2  1  0
  3  7  1  0
  3  4  1  0
  4  9  1  0
  4  1  1  0
  5  2  1  0
  5  6  1  0
  7  5  1  0
  7  8  1  6
  9 11  1  0
 10 21  2  0
 11 16  1  0
 12 20  1  0
 12 22  1  0
 13 19  1  0
 13 15  1  0
 14 20  1  0
 15 14  1  0
 16 15  2  0
 17 18  1  0
 17 11  2  0
 18 13  2  0
 19 12  1  0
 20 10  1  0
 22 24  2  0
 23 22  1  0
 25 23  1  0
 26 35  2  0
 26 31  1  0
 27 23  1  0
 27 31  1  0
 28 27  1  0
 29 30  1  0
 29 28  1  0
 30 26  1  0
 31 32  2  0
 32 33  1  0
 34 33  2  0
 35 34  1  0
 36 10  1  0
 36 37  1  0
 36 46  1  0
 37 40  1  0
 38 42  1  0
 38 37  1  0
 39 38  2  0
 42 41  1  0
 44 42  1  0
 44 45  1  0
 44 43  1  0
 46 49  1  1
 46 47  1  0
 48 46  1  0
 50 53  1  0
 50  7  1  0
 51 54  2  0
 51 53  1  0
 52 56  1  0
 53 52  2  0
 54 55  1  0
 55 67  1  0
 55 56  2  0
 56 58  1  0
 57 54  1  0
 59 65  1  0
 59 67  1  0
 60 65  1  0
 61 62  1  0
 61 60  1  0
 63 62  1  0
 63 72  1  0
 63 64  1  0
 65 64  1  0
 66 59  2  0
 67 68  1  0
 69 70  2  0
 70 89  1  0
 71 70  1  0
 71 74  1  0
 72 73  1  0
 72 69  1  0
 73 71  2  0
 74 75  1  0
 75 76  2  0
 77 80  1  0
 77 76  1  0
 78 77  2  0
 79 78  1  0
 79 74  2  0
 80 81  1  0
 81 86  2  0
 81 82  1  0
 82 83  2  0
 83 84  1  0
 84 88  1  0
 85 84  2  0
 86 85  1  0
 87 86  1  0
 89 90  1  0
 90 93  1  0
 90 92  1  0
 91 89  2  0
 94 69  1  0
 94 95  1  0
 96 94  1  0
M  ISO  4   4 101   9 101  59 100  67 100
M  END
>  <TORSDO>  (66) 
F 18

>  <SCORE>  (66) 
-12.541

>  <name>  (66) 
65

>  <ligand_id>  (66) 
65

>  <original_smiles>  (66) 
[H]c1c([H])c([H])c2c(c1[H])C([H])([H])C([H])([H])C([H])([H])C2([H])N([H])C(=O)C1([H])N(C(=O)C([H])(N([H])C(=O)C([H])(N([H])C([H])([H])[H])C([H])([H])[H])C(C([H])([H])[H])(C([H])([H])[H])C([H])([H])[H])C([H])([H])c2c([H])c(OC3([H])C([H])([H])C([H])([H])C([H])(C([H])([H])[H])[N+]([H])(C([H])([H])c4c([H])c(Cl)c(N([H])C(=O)N5C([H])([H])C([H])([H])C([H])([H])C([H])(n6nc(-c7c([H])c([H])c(Oc8c([H])c([H])c(F)c([H])c8F)c([H])c7[H])c(C(=O)N([H])[H])c6N([H])[H])C5([H])[H])c(C([H])([H])[H])c4[H])C3([H])[H])c([H])c([H])c2C1([H])[H]

>  <smiles>  (66) 
[H]c1c([H])c([H])c2c(c1[H])C([H])([H])C([H])([H])C([H])([H])C2([H])N([H])C(=O)C1([H])N(C(=O)C([H])(N([H])C(=O)C([H])(N([H])C([H])([H])[H])C([H])([H])[H])C(C([H])([H])[H])(C([H])([H])[H])C([H])([H])[H])C([H])([H])c2c([H])c(OC3([H])C([H])([H])C([H])([H])C([H])(C([H])([H])[H])[N+]([H])(C([H])([H])c4c([H])c(Cl)c(N([H])C(=O)N5C([H])([H])C([H])([H])C([H])([H])C([H])(n6nc(-c7c([H])c([H])c(Oc8c([H])c([H])c(F)c([H])c8F)c([H])c7[H])c(C(=O)N([H])[H])c6N([H])[H])C5([H])[H])c(C([H])([H])[H])c4[H])C3([H])[H])c([H])c([H])c2C1([H])[H]

$$$$
66:0:0
     RDKit          3D

 97106  0  0  1  0  0  0  0  0999 V2000
  -30.0770  -24.4430   21.2770 C   0  0  0  0  0  0  0  0  0  0  0  0
  -31.4170  -24.3280   21.2390 C   0  0  0  0  0  3  0  0  0  0  0  0
  -29.3340  -25.7090   21.6260 C   0  0  0  0  0  2  0  0  0  0  0  0
  -28.0140  -24.3580   20.0780 C   0  0  0  0  0  2  0  0  0  0  0  0
  -28.1310  -25.7540   20.7060 C   0  0  0  0  0  3  0  0  0  0  0  0
  -32.2120  -23.1660   20.6990 C   0  0  0  0  0  1  0  0  0  0  0  0
  -29.1020  -23.5080   20.6380 N   0  0  2  0  0  4  0  0  0  0  0  0
  -29.5580  -23.0930   19.8410 H   0  0  0  0  0  0  0  0  0  0  0  0
  -28.3090  -26.8100   19.7340 O   0  0  0  0  0  0  0  0  0  0  0  0
  -24.6420  -31.7970   23.1540 C   0  0  0  0  0  0  0  0  0  0  0  0
  -27.2070  -27.6170   19.7060 C   0  0  0  0  0  0  0  0  0  0  0  0
  -23.3890  -30.4660   21.4880 C   0  0  0  0  0  3  0  0  0  0  0  0
  -24.8050  -29.0630   19.9010 C   0  0  0  0  0  0  0  0  0  0  0  0
  -25.8980  -30.8940   21.2080 C   0  0  0  0  0  2  0  0  0  0  0  0
  -25.9780  -29.5800   20.4650 C   0  0  0  0  0  0  0  0  0  0  0  0
  -27.1920  -28.8670   20.3620 C   0  0  0  0  0  3  0  0  0  0  0  0
  -26.0310  -27.1170   19.1160 C   0  0  0  0  0  3  0  0  0  0  0  0
  -24.8250  -27.8320   19.2240 C   0  0  0  0  0  3  0  0  0  0  0  0
  -23.5460  -29.8850   20.0590 C   0  0  0  0  0  2  0  0  0  0  0  0
  -24.6610  -31.0630   22.0030 N   0  0  0  0  0  0  0  0  0  0  0  0
  -23.5820  -32.0150   23.7500 O   0  0  0  0  0  0  0  0  0  0  0  0
  -22.8020  -29.3770   22.4120 C   0  0  0  0  0  0  0  0  0  0  0  0
  -21.4910  -29.1240   22.2810 N   0  0  0  0  0  0  0  0  0  0  0  0
  -23.5240  -28.7640   23.2050 O   0  0  0  0  0  0  0  0  0  0  0  0
  -20.9660  -29.6770   21.6160 H   0  0  0  0  0  0  0  0  0  0  0  0
  -18.2150  -27.6420   22.6500 C   0  0  0  0  0  0  0  0  0  0  0  0
  -20.7290  -28.1190   23.0200 C   0  0  0  0  0  3  0  0  0  0  0  0
  -20.9760  -26.7020   22.4500 C   0  0  0  0  0  2  0  0  0  0  0  0
  -19.9450  -26.2880   21.3940 C   0  0  0  0  0  2  0  0  0  0  0  0
  -18.5310  -26.3150   21.9810 C   0  0  0  0  0  2  0  0  0  0  0  0
  -19.2470  -28.4960   23.1200 C   0  0  0  0  0  0  0  0  0  0  0  0
  -18.8980  -29.7360   23.7000 C   0  0  0  0  0  3  0  0  0  0  0  0
  -17.5500  -30.1250   23.8120 C   0  0  0  0  0  3  0  0  0  0  0  0
  -16.5330  -29.2700   23.3550 C   0  0  0  0  0  3  0  0  0  0  0  0
  -16.8660  -28.0300   22.7820 C   0  0  0  0  0  3  0  0  0  0  0  0
  -25.9420  -32.4110   23.7500 C   0  0  0  0  0  3  0  0  0  0  0  0
  -26.5260  -31.5830   24.9620 C   0  0  1  0  0  0  0  0  0  0  0  0
  -25.4830  -31.2630   26.0580 C   0  0  0  0  0  1  0  0  0  0  0  0
  -27.1170  -30.2390   24.4760 C   0  0  0  0  0  1  0  0  0  0  0  0
  -27.6850  -32.3700   25.6190 C   0  0  0  0  0  1  0  0  0  0  0  0
  -25.6270  -33.7870   24.1580 N   0  0  0  0  0  0  0  0  0  0  0  0
  -25.9300  -34.8800   23.4430 C   0  0  0  0  0  0  0  0  0  0  0  0
  -26.5730  -34.8380   22.3900 O   0  0  0  0  0  0  0  0  0  0  0  0
  -25.0340  -33.8930   24.9670 H   0  0  0  0  0  0  0  0  0  0  0  0
  -24.1900  -36.6860   23.2090 C   0  0  0  0  0  1  0  0  0  0  0  0
  -25.4400  -36.2370   23.9840 C   0  0  0  0  0  3  0  0  0  0  0  0
  -27.5720  -37.0910   24.8500 C   0  0  0  0  0  1  0  0  0  0  0  0
  -26.4640  -37.3010   23.9230 N   0  0  0  0  0  0  0  0  0  0  0  0
  -26.0530  -38.2090   24.1160 H   0  0  0  0  0  0  0  0  0  0  0  0
  -28.6280  -22.3110   21.4140 C   0  0  0  0  0  2  0  0  0  0  0  0
  -29.0490  -19.2130   19.0310 C   0  0  0  0  0  3  0  0  0  0  0  0
  -29.4310  -19.9170   21.6900 C   0  0  0  0  0  3  0  0  0  0  0  0
  -28.6970  -20.5190   19.4510 C   0  0  0  0  0  0  0  0  0  0  0  0
  -29.6160  -18.2570   19.9050 C   0  0  0  0  0  0  0  0  0  0  0  0
  -28.9190  -20.9080   20.8070 C   0  0  0  0  0  0  0  0  0  0  0  0
  -29.7880  -18.6170   21.2610 C   0  0  0  0  0  0  0  0  0  0  0  0
  -28.0990  -21.4270   18.3870 C   0  0  0  0  0  1  0  0  0  0  0  0
  -30.4710  -17.5170   22.4060 Cl  0  0  0  0  0  0  0  0  0  0  0  0
  -30.1530  -16.9560   19.2880 C   0  0  0  0  0  2  0  0  0  0  0  0
  -30.3660  -14.5300   19.3960 C   0  0  0  0  0  0  0  0  0  0  0  0
  -30.1450  -12.1720   18.7480 C   0  0  0  0  0  2  0  0  0  0  0  0
  -29.0840  -12.0920   17.6320 C   0  0  0  0  0  2  0  0  0  0  0  0
  -27.6980  -11.8750   18.2660 C   0  0  0  0  0  2  0  0  0  0  0  0
  -27.3890  -12.8960   19.3970 C   0  0  0  0  0  3  0  0  0  0  0  0
  -28.5760  -13.0450   20.3820 C   0  0  0  0  0  2  0  0  0  0  0  0
  -29.7860  -13.3220   19.5960 N   0  0  0  0  0  0  0  0  0  0  0  0
  -31.4240  -14.6490   18.7650 O   0  0  0  0  0  0  0  0  0  0  0  0
  -29.6740  -15.6340   19.7380 N   0  0  0  0  0  0  0  0  0  0  0  0
  -28.7890  -15.5460   20.2150 H   0  0  0  0  0  0  0  0  0  0  0  0
  -25.2270  -13.4070   20.6950 C   0  0  0  0  0  0  0  0  0  0  0  0
  -24.2140  -12.6020   21.1410 C   0  0  0  0  0  0  0  0  0  0  0  0
  -24.5780  -11.2700   20.7740 C   0  0  0  0  0  0  0  0  0  0  0  0
  -26.1490  -12.5620   20.0950 N   0  0  0  0  0  0  0  0  0  0  0  0
  -25.7730  -11.2620   20.1950 N   0  0  0  0  0  0  0  0  0  0  0  0
  -23.8350  -10.0090   20.8900 C   0  0  0  0  0  0  0  0  0  0  0  0
  -24.2500   -8.9810   21.7680 C   0  0  0  0  0  3  0  0  0  0  0  0
  -23.5010   -7.7870   21.8770 C   0  0  0  0  0  3  0  0  0  0  0  0
  -22.3280   -7.6130   21.1050 C   0  0  0  0  0  0  0  0  0  0  0  0
  -21.9360   -8.6290   20.2150 C   0  0  0  0  0  3  0  0  0  0  0  0
  -22.6820   -9.8130   20.1020 C   0  0  0  0  0  3  0  0  0  0  0  0
  -21.5540   -6.4770   21.1220 O   0  0  0  0  0  0  0  0  0  0  0  0
  -21.3010   -5.7980   22.2880 C   0  0  0  0  0  0  0  0  0  0  0  0
  -20.6470   -6.4120   23.3780 C   0  0  0  0  0  3  0  0  0  0  0  0
  -20.3370   -5.6570   24.5270 C   0  0  0  0  0  3  0  0  0  0  0  0
  -20.6780   -4.2910   24.5870 C   0  0  0  0  0  0  0  0  0  0  0  0
  -21.3300   -3.6810   23.5010 C   0  0  0  0  0  3  0  0  0  0  0  0
  -21.6360   -4.4320   22.3520 C   0  0  0  0  0  0  0  0  0  0  0  0
  -22.2430   -3.8320   21.3000 F   0  0  0  0  0  0  0  0  0  0  0  0
  -20.3800   -3.5640   25.6910 F   0  0  0  0  0  0  0  0  0  0  0  0
  -22.9320  -13.0510   21.7820 C   0  0  0  0  0  0  0  0  0  0  0  0
  -22.3790  -12.2560   22.6920 N   0  0  0  0  0  0  0  0  0  0  0  0
  -22.4310  -14.1420   21.5120 O   0  0  0  0  0  0  0  0  0  0  0  0
  -22.7960  -11.3730   22.9460 H   0  0  0  0  0  0  0  0  0  0  0  0
  -21.5290  -12.5430   23.1540 H   0  0  0  0  0  0  0  0  0  0  0  0
  -25.4310  -14.7820   20.7300 N   0  0  0  0  0  0  0  0  0  0  0  0
  -24.7550  -15.4300   21.1210 H   0  0  0  0  0  0  0  0  0  0  0  0
  -26.2210  -15.2520   20.3060 H   0  0  0  0  0  0  0  0  0  0  0  0
  1  3  1  0
  2  1  2  0
  4  7  1  0
  4  5  1  0
  5  9  1  0
  5  3  1  0
  6  2  1  0
  7  1  1  0
  7 50  1  0
  7  8  1  6
 10 21  2  0
 11  9  1  0
 11 16  1  0
 12 20  1  0
 12 22  1  0
 13 19  1  0
 13 15  1  0
 14 20  1  0
 15 14  1  0
 16 15  2  0
 17 18  1  0
 17 11  2  0
 18 13  2  0
 19 12  1  0
 20 10  1  0
 22 24  2  0
 23 22  1  0
 25 23  1  0
 26 35  2  0
 26 31  1  0
 27 23  1  0
 27 31  1  0
 28 27  1  0
 29 30  1  0
 29 28  1  0
 30 26  1  0
 31 32  2  0
 32 33  1  0
 34 33  2  0
 35 34  1  0
 36 10  1  0
 36 41  1  0
 36 37  1  0
 37 40  1  1
 37 38  1  0
 39 37  1  0
 41 44  1  0
 42 46  1  0
 42 41  1  0
 43 42  2  0
 46 45  1  0
 48 46  1  0
 48 49  1  0
 48 47  1  0
 51 53  2  0
 51 54  1  0
 53 55  1  0
 54 56  2  0
 55 50  1  0
 55 52  2  0
 56 52  1  0
 56 58  1  0
 57 53  1  0
 59 68  1  0
 59 54  1  0
 60 66  1  0
 60 68  1  0
 61 66  1  0
 62 63  1  0
 62 61  1  0
 64 63  1  0
 64 73  1  0
 64 65  1  0
 66 65  1  0
 67 60  2  0
 68 69  1  0
 70 95  1  0
 70 71  2  0
 71 90  1  0
 72 75  1  0
 72 71  1  0
 73 74  1  0
 73 70  1  0
 74 72  2  0
 75 76  1  0
 76 77  2  0
 78 81  1  0
 78 77  1  0
 79 78  2  0
 80 79  1  0
 80 75  2  0
 81 82  1  0
 82 87  2  0
 82 83  1  0
 83 84  2  0
 84 85  1  0
 85 89  1  0
 86 85  2  0
 87 86  1  0
 88 87  1  0
 90 91  1  0
 91 93  1  0
 91 94  1  0
 92 90  2  0
 95 96  1  0
 97 95  1  0
M  ISO  4   5 101   9 101  60 100  68 100
M  END
>  <TORSDO>  (67) 
F 19

>  <SCORE>  (67) 
-10.830

>  <name>  (67) 
66

>  <ligand_id>  (67) 
66

>  <original_smiles>  (67) 
[H]C(=C1C([H])([H])C([H])(Oc2c([H])c([H])c3c(c2[H])C([H])([H])N(C(=O)C([H])(N([H])C(=O)C([H])(N([H])C([H])([H])[H])C([H])([H])[H])C(C([H])([H])[H])(C([H])([H])[H])C([H])([H])[H])C([H])(C(=O)N([H])C2([H])c4c([H])c([H])c([H])c([H])c4C([H])([H])C([H])([H])C2([H])[H])C3([H])[H])C([H])([H])[N+]1([H])C([H])([H])c1c([H])c(Cl)c(C([H])([H])N([H])C(=O)N2C([H])([H])C([H])([H])C([H])([H])C([H])(n3nc(-c4c([H])c([H])c(Oc5c([H])c([H])c(F)c([H])c5F)c([H])c4[H])c(C(=O)N([H])[H])c3N([H])[H])C2([H])[H])c([H])c1C([H])([H])[H])C([H])([H])[H]

>  <smiles>  (67) 
[H]C(=C1C([H])([H])C([H])(Oc2c([H])c([H])c3c(c2[H])C([H])([H])N(C(=O)C([H])(N([H])C(=O)C([H])(N([H])C([H])([H])[H])C([H])([H])[H])C(C([H])([H])[H])(C([H])([H])[H])C([H])([H])[H])C([H])(C(=O)N([H])C2([H])c4c([H])c([H])c([H])c([H])c4C([H])([H])C([H])([H])C2([H])[H])C3([H])[H])C([H])([H])[N+]1([H])C([H])([H])c1c([H])c(Cl)c(C([H])([H])N([H])C(=O)N2C([H])([H])C([H])([H])C([H])([H])C([H])(n3nc(-c4c([H])c([H])c(Oc5c([H])c([H])c(F)c([H])c5F)c([H])c4[H])c(C(=O)N([H])[H])c3N([H])[H])C2([H])[H])c([H])c1C([H])([H])[H])C([H])([H])[H]

$$$$
67:0:0
     RDKit          3D

 99108  0  0  1  0  0  0  0  0999 V2000
  -29.5450  -24.4260   20.2540 C   0  0  0  0  0  0  0  0  0  0  0  0
  -30.4580  -24.6000   19.2780 C   0  0  0  0  0  2  0  0  0  0  0  0
  -27.3930  -24.1150   22.6470 C   0  0  0  0  0  2  0  0  0  0  0  0
  -27.0410  -22.9950   21.6430 C   0  0  0  0  0  2  0  0  0  0  0  0
  -27.8820  -25.4380   22.0040 C   0  0  0  0  0  2  0  0  0  0  0  0
  -28.2740  -22.3620   20.9520 C   0  0  0  0  0  2  0  0  0  0  0  0
  -28.3680  -25.3880   20.5180 C   0  0  0  0  0  3  0  0  0  0  0  0
  -29.4930  -23.1950   21.1500 N   0  0  1  0  0  4  0  0  0  0  0  0
  -29.2850  -23.5720   22.0620 H   0  0  0  0  0  0  0  0  0  0  0  0
  -28.5720  -26.7360   19.9920 O   0  0  0  0  0  0  0  0  0  0  0  0
  -24.6390  -31.7750   23.1230 C   0  0  0  0  0  0  0  0  0  0  0  0
  -27.4200  -27.5070   19.9030 C   0  0  0  0  0  0  0  0  0  0  0  0
  -23.4700  -30.3610   21.4680 C   0  0  0  0  0  3  0  0  0  0  0  0
  -24.9720  -28.9360   19.9730 C   0  0  0  0  0  0  0  0  0  0  0  0
  -25.9820  -30.8290   21.2470 C   0  0  0  0  0  2  0  0  0  0  0  0
  -26.1180  -29.4830   20.5620 C   0  0  0  0  0  0  0  0  0  0  0  0
  -27.3480  -28.7760   20.5240 C   0  0  0  0  0  3  0  0  0  0  0  0
  -26.2610  -27.0040   19.2640 C   0  0  0  0  0  3  0  0  0  0  0  0
  -25.0400  -27.6970   19.3170 C   0  0  0  0  0  3  0  0  0  0  0  0
  -23.6900  -29.7310   20.0680 C   0  0  0  0  0  2  0  0  0  0  0  0
  -24.7160  -31.0020   22.0030 N   0  0  0  0  0  0  0  0  0  0  0  0
  -23.5550  -31.9890   23.6850 O   0  0  0  0  0  0  0  0  0  0  0  0
  -22.8810  -29.2870   22.4100 C   0  0  0  0  0  0  0  0  0  0  0  0
  -21.5680  -29.0260   22.2770 N   0  0  0  0  0  0  0  0  0  0  0  0
  -23.6000  -28.6910   23.2160 O   0  0  0  0  0  0  0  0  0  0  0  0
  -21.0470  -29.5630   21.5980 H   0  0  0  0  0  0  0  0  0  0  0  0
  -18.2890  -27.5630   22.6880 C   0  0  0  0  0  0  0  0  0  0  0  0
  -20.8090  -28.0300   23.0320 C   0  0  0  0  0  3  0  0  0  0  0  0
  -21.0450  -26.6090   22.4720 C   0  0  0  0  0  2  0  0  0  0  0  0
  -20.0040  -26.1890   21.4300 C   0  0  0  0  0  2  0  0  0  0  0  0
  -18.5950  -26.2270   22.0330 C   0  0  0  0  0  2  0  0  0  0  0  0
  -19.3300  -28.4160   23.1420 C   0  0  0  0  0  0  0  0  0  0  0  0
  -18.9960  -29.6630   23.7140 C   0  0  0  0  0  3  0  0  0  0  0  0
  -17.6510  -30.0600   23.8400 C   0  0  0  0  0  3  0  0  0  0  0  0
  -16.6240  -29.2050   23.4060 C   0  0  0  0  0  3  0  0  0  0  0  0
  -16.9430  -27.9590   22.8360 C   0  0  0  0  0  3  0  0  0  0  0  0
  -25.9040  -32.4500   23.7370 C   0  0  0  0  0  3  0  0  0  0  0  0
  -26.4790  -31.6720   24.9840 C   0  0  1  0  0  0  0  0  0  0  0  0
  -25.4170  -31.3550   26.0630 C   0  0  0  0  0  1  0  0  0  0  0  0
  -27.1250  -30.3350   24.5490 C   0  0  0  0  0  1  0  0  0  0  0  0
  -27.5990  -32.5080   25.6480 C   0  0  0  0  0  1  0  0  0  0  0  0
  -25.5370  -33.8240   24.1030 N   0  0  0  0  0  0  0  0  0  0  0  0
  -25.8700  -34.9150   23.3980 C   0  0  0  0  0  0  0  0  0  0  0  0
  -26.5890  -34.8720   22.3970 O   0  0  0  0  0  0  0  0  0  0  0  0
  -24.9040  -33.9300   24.8810 H   0  0  0  0  0  0  0  0  0  0  0  0
  -24.1120  -36.6760   23.0220 C   0  0  0  0  0  1  0  0  0  0  0  0
  -25.3160  -36.2680   23.8850 C   0  0  0  0  0  3  0  0  0  0  0  0
  -27.3790  -37.1670   24.8650 C   0  0  0  0  0  1  0  0  0  0  0  0
  -26.3210  -37.3520   23.8770 N   0  0  0  0  0  0  0  0  0  0  0  0
  -25.8800  -38.2520   24.0480 H   0  0  0  0  0  0  0  0  0  0  0  0
  -30.7750  -22.4690   21.4740 C   0  0  0  0  0  2  0  0  0  0  0  0
  -30.9960  -20.2570   20.2570 C   0  0  0  0  0  3  0  0  0  0  0  0
  -30.7990  -20.9200   21.4870 C   0  0  0  0  0  0  0  0  0  0  0  0
  -30.7340  -20.1300   22.6770 C   0  0  0  0  0  0  0  0  0  0  0  0
  -30.9340  -18.7180   22.6140 C   0  0  0  0  0  0  0  0  0  0  0  0
  -31.2660  -18.0970   21.3790 C   0  0  0  0  0  0  0  0  0  0  0  0
  -31.2400  -18.8730   20.2010 C   0  0  0  0  0  0  0  0  0  0  0  0
  -30.4920  -20.7690   24.0440 C   0  0  0  0  0  1  0  0  0  0  0  0
  -30.8500  -17.8800   23.8890 C   0  0  0  0  0  1  0  0  0  0  0  0
  -31.5170  -18.3030   19.0040 F   0  0  0  0  0  0  0  0  0  0  0  0
  -31.8380  -16.6700   21.3100 C   0  0  0  0  0  2  0  0  0  0  0  0
  -31.3640  -14.6370   19.9610 C   0  0  0  0  0  0  0  0  0  0  0  0
  -30.8580  -12.4820   18.8610 C   0  0  0  0  0  2  0  0  0  0  0  0
  -29.8840  -12.6880   17.6850 C   0  0  0  0  0  2  0  0  0  0  0  0
  -28.4280  -12.6310   18.1810 C   0  0  0  0  0  2  0  0  0  0  0  0
  -28.1840  -13.5340   19.4200 C   0  0  0  0  0  3  0  0  0  0  0  0
  -29.2710  -13.3170   20.4950 C   0  0  0  0  0  2  0  0  0  0  0  0
  -30.5850  -13.5240   19.8660 N   0  0  0  0  0  0  0  0  0  0  0  0
  -32.4020  -14.7700   19.3050 O   0  0  0  0  0  0  0  0  0  0  0  0
  -30.9670  -15.5850   20.8280 N   0  0  0  0  0  0  0  0  0  0  0  0
  -30.0990  -15.4250   21.3170 H   0  0  0  0  0  0  0  0  0  0  0  0
  -25.8760  -14.2850   20.2710 C   0  0  0  0  0  0  0  0  0  0  0  0
  -24.7740  -13.5790   20.6740 C   0  0  0  0  0  0  0  0  0  0  0  0
  -25.1330  -12.2000   20.5770 C   0  0  0  0  0  0  0  0  0  0  0  0
  -26.8410  -13.3400   19.9610 N   0  0  0  0  0  0  0  0  0  0  0  0
  -26.3980  -12.0780   20.1990 N   0  0  0  0  0  0  0  0  0  0  0  0
  -24.3270  -10.9880   20.7690 C   0  0  0  0  0  0  0  0  0  0  0  0
  -24.7160   -9.9790   21.6780 C   0  0  0  0  0  3  0  0  0  0  0  0
  -23.9160   -8.8310   21.8580 C   0  0  0  0  0  3  0  0  0  0  0  0
  -22.7120   -8.6840   21.1290 C   0  0  0  0  0  0  0  0  0  0  0  0
  -22.3410   -9.6800   20.2090 C   0  0  0  0  0  3  0  0  0  0  0  0
  -23.1400  -10.8210   20.0280 C   0  0  0  0  0  3  0  0  0  0  0  0
  -21.8840   -7.5910   21.2210 O   0  0  0  0  0  0  0  0  0  0  0  0
  -21.7700   -6.8680   22.3810 C   0  0  0  0  0  0  0  0  0  0  0  0
  -21.3800   -7.4680   23.5970 C   0  0  0  0  0  3  0  0  0  0  0  0
  -21.2080   -6.6760   24.7500 C   0  0  0  0  0  3  0  0  0  0  0  0
  -21.4200   -5.2850   24.6860 C   0  0  0  0  0  0  0  0  0  0  0  0
  -21.8040   -4.6850   23.4740 C   0  0  0  0  0  3  0  0  0  0  0  0
  -21.9760   -5.4750   22.3240 C   0  0  0  0  0  0  0  0  0  0  0  0
  -22.3260   -4.8900   21.1530 F   0  0  0  0  0  0  0  0  0  0  0  0
  -21.2480   -4.5220   25.7910 F   0  0  0  0  0  0  0  0  0  0  0  0
  -23.4330  -14.1470   21.0360 C   0  0  0  0  0  0  0  0  0  0  0  0
  -22.7120  -13.4880   21.9370 N   0  0  0  0  0  0  0  0  0  0  0  0
  -23.0370  -15.2080   20.5580 O   0  0  0  0  0  0  0  0  0  0  0  0
  -23.0470  -12.6260   22.3430 H   0  0  0  0  0  0  0  0  0  0  0  0
  -21.8140  -13.8500   22.2240 H   0  0  0  0  0  0  0  0  0  0  0  0
  -26.1310  -15.6460   20.1260 N   0  0  0  0  0  0  0  0  0  0  0  0
  -25.4200  -16.3490   20.2970 H   0  0  0  0  0  0  0  0  0  0  0  0
  -26.9990  -16.0350   19.7780 H   0  0  0  0  0  0  0  0  0  0  0  0
  1  7  1  0
  1  8  1  0
  2  1  2  0
  4  3  1  0
  5  3  1  0
  6  8  1  0
  6  4  1  0
  7 10  1  0
  7  5  1  0
  8 51  1  0
  8  9  1  1
 11 22  2  0
 12 10  1  0
 12 17  1  0
 13 21  1  0
 13 23  1  0
 14 20  1  0
 14 16  1  0
 15 21  1  0
 16 15  1  0
 17 16  2  0
 18 19  1  0
 18 12  2  0
 19 14  2  0
 20 13  1  0
 21 11  1  0
 23 25  2  0
 24 23  1  0
 26 24  1  0
 27 36  2  0
 27 32  1  0
 28 24  1  0
 28 32  1  0
 29 28  1  0
 30 31  1  0
 30 29  1  0
 31 27  1  0
 32 33  2  0
 33 34  1  0
 35 34  2  0
 36 35  1  0
 37 11  1  0
 37 42  1  0
 37 38  1  0
 38 41  1  1
 38 39  1  0
 40 38  1  0
 42 45  1  0
 43 47  1  0
 43 42  1  0
 44 43  2  0
 47 46  1  0
 49 47  1  0
 49 50  1  0
 49 48  1  0
 51 53  1  0
 52 53  1  0
 53 54  2  0
 54 58  1  0
 55 54  1  0
 55 59  1  0
 56 55  2  0
 57 52  2  0
 57 56  1  0
 60 57  1  0
 61 56  1  0
 62 70  1  0
 63 68  1  0
 64 65  1  0
 64 63  1  0
 66 65  1  0
 66 75  1  0
 66 67  1  0
 68 62  1  0
 68 67  1  0
 69 62  2  0
 70 61  1  0
 70 71  1  0
 72 73  2  0
 73 92  1  0
 74 73  1  0
 74 77  1  0
 75 76  1  0
 75 72  1  0
 76 74  2  0
 77 78  1  0
 78 79  2  0
 80 83  1  0
 80 79  1  0
 81 80  2  0
 82 81  1  0
 82 77  2  0
 83 84  1  0
 84 85  1  0
 85 86  2  0
 87 86  1  0
 87 91  1  0
 88 87  2  0
 89 84  2  0
 89 88  1  0
 90 89  1  0
 92 93  1  0
 93 96  1  0
 93 95  1  0
 94 92  2  0
 97 72  1  0
 97 98  1  0
 99 97  1  0
M  ISO  4   7 101  10 101  62 100  70 100
M  END
>  <TORSDO>  (68) 
F 19

>  <SCORE>  (68) 
-12.088

>  <name>  (68) 
67

>  <ligand_id>  (68) 
67

>  <original_smiles>  (68) 
[H]C([H])=C1C([H])(Oc2c([H])c([H])c3c(c2[H])C([H])([H])N(C(=O)C([H])(N([H])C(=O)C([H])(N([H])C([H])([H])[H])C([H])([H])[H])C(C([H])([H])[H])(C([H])([H])[H])C([H])([H])[H])C([H])(C(=O)N([H])C2([H])c4c([H])c([H])c([H])c([H])c4C([H])([H])C([H])([H])C2([H])[H])C3([H])[H])C([H])([H])C([H])([H])C([H])([H])C([H])([H])[N+]1([H])C([H])([H])c1c([H])c(F)c(C([H])([H])N([H])C(=O)N2C([H])([H])C([H])([H])C([H])([H])C([H])(n3nc(-c4c([H])c([H])c(Oc5c([H])c([H])c(F)c([H])c5F)c([H])c4[H])c(C(=O)N([H])[H])c3N([H])[H])C2([H])[H])c(C([H])([H])[H])c1C([H])([H])[H]

>  <smiles>  (68) 
[H]C([H])=C1C([H])(Oc2c([H])c([H])c3c(c2[H])C([H])([H])N(C(=O)C([H])(N([H])C(=O)C([H])(N([H])C([H])([H])[H])C([H])([H])[H])C(C([H])([H])[H])(C([H])([H])[H])C([H])([H])[H])C([H])(C(=O)N([H])C2([H])c4c([H])c([H])c([H])c([H])c4C([H])([H])C([H])([H])C2([H])[H])C3([H])[H])C([H])([H])C([H])([H])C([H])([H])C([H])([H])[N+]1([H])C([H])([H])c1c([H])c(F)c(C([H])([H])N([H])C(=O)N2C([H])([H])C([H])([H])C([H])([H])C([H])(n3nc(-c4c([H])c([H])c(Oc5c([H])c([H])c(F)c([H])c5F)c([H])c4[H])c(C(=O)N([H])[H])c3N([H])[H])C2([H])[H])c(C([H])([H])[H])c1C([H])([H])[H]

$$$$
68:0:0
     RDKit          3D

 97106  0  0  1  0  0  0  0  0999 V2000
  -28.3060  -23.8580   21.3090 C   0  0  0  0  0  0  0  0  0  0  0  0
  -27.8010  -22.9960   22.2150 C   0  0  0  0  0  3  0  0  0  0  0  0
  -28.2650  -25.3790   21.4150 C   0  0  0  0  0  2  0  0  0  0  0  0
  -29.0070  -24.7620   19.2000 C   0  0  0  0  0  2  0  0  0  0  0  0
  -29.0660  -25.9120   20.2300 C   0  0  0  0  0  3  0  0  0  0  0  0
  -27.7640  -21.4820   22.1320 C   0  0  0  0  0  1  0  0  0  0  0  0
  -28.9350  -23.4940   19.9930 N   0  0  1  0  0  4  0  0  0  0  0  0
  -28.3010  -22.8840   19.5000 H   0  0  0  0  0  0  0  0  0  0  0  0
  -28.8520  -27.3000   19.8390 O   0  0  0  0  0  0  0  0  0  0  0  0
  -24.6770  -31.9170   23.3720 C   0  0  0  0  0  0  0  0  0  0  0  0
  -27.6160  -27.9180   19.9380 C   0  0  0  0  0  0  0  0  0  0  0  0
  -23.5740  -30.6110   21.5840 C   0  0  0  0  0  3  0  0  0  0  0  0
  -25.1320  -29.2890   20.0510 C   0  0  0  0  0  0  0  0  0  0  0  0
  -26.0780  -31.1240   21.4630 C   0  0  0  0  0  2  0  0  0  0  0  0
  -26.2520  -29.8230   20.7020 C   0  0  0  0  0  0  0  0  0  0  0  0
  -27.4960  -29.1460   20.6370 C   0  0  0  0  0  3  0  0  0  0  0  0
  -26.4760  -27.4030   19.2840 C   0  0  0  0  0  3  0  0  0  0  0  0
  -25.2410  -28.0810   19.3390 C   0  0  0  0  0  3  0  0  0  0  0  0
  -23.8420  -30.0720   20.1520 C   0  0  0  0  0  2  0  0  0  0  0  0
  -24.7930  -31.2300   22.1990 N   0  0  0  0  0  0  0  0  0  0  0  0
  -23.5760  -32.0720   23.9190 O   0  0  0  0  0  0  0  0  0  0  0  0
  -22.9730  -29.4690   22.4360 C   0  0  0  0  0  0  0  0  0  0  0  0
  -21.6680  -29.2120   22.2540 N   0  0  0  0  0  0  0  0  0  0  0  0
  -23.6800  -28.8200   23.2120 O   0  0  0  0  0  0  0  0  0  0  0  0
  -21.1580  -29.7920   21.6020 H   0  0  0  0  0  0  0  0  0  0  0  0
  -18.3730  -27.7560   22.5540 C   0  0  0  0  0  0  0  0  0  0  0  0
  -20.9000  -28.1560   22.9150 C   0  0  0  0  0  3  0  0  0  0  0  0
  -21.1100  -26.7940   22.2170 C   0  0  0  0  0  2  0  0  0  0  0  0
  -20.0550  -26.4940   21.1480 C   0  0  0  0  0  2  0  0  0  0  0  0
  -18.6530  -26.4890   21.7650 C   0  0  0  0  0  2  0  0  0  0  0  0
  -19.4260  -28.5480   23.0800 C   0  0  0  0  0  0  0  0  0  0  0  0
  -19.1100  -29.7350   23.7760 C   0  0  0  0  0  3  0  0  0  0  0  0
  -17.7710  -30.1320   23.9490 C   0  0  0  0  0  3  0  0  0  0  0  0
  -16.7300  -29.3390   23.4380 C   0  0  0  0  0  3  0  0  0  0  0  0
  -17.0310  -28.1510   22.7460 C   0  0  0  0  0  3  0  0  0  0  0  0
  -25.9170  -32.5580   24.0700 C   0  0  0  0  0  3  0  0  0  0  0  0
  -26.3670  -31.7870   25.3710 C   0  0  1  0  0  0  0  0  0  0  0  0
  -25.2090  -31.4980   26.3550 C   0  0  0  0  0  1  0  0  0  0  0  0
  -27.0200  -30.4330   25.0030 C   0  0  0  0  0  1  0  0  0  0  0  0
  -27.4410  -32.6080   26.1230 C   0  0  0  0  0  1  0  0  0  0  0  0
  -25.5740  -33.9510   24.3850 N   0  0  0  0  0  0  0  0  0  0  0  0
  -25.9400  -35.0110   23.6510 C   0  0  0  0  0  0  0  0  0  0  0  0
  -26.6720  -34.9190   22.6620 O   0  0  0  0  0  0  0  0  0  0  0  0
  -24.9280  -34.0940   25.1480 H   0  0  0  0  0  0  0  0  0  0  0  0
  -24.2110  -36.7820   23.2060 C   0  0  0  0  0  1  0  0  0  0  0  0
  -25.4110  -36.3930   24.0840 C   0  0  0  0  0  3  0  0  0  0  0  0
  -27.4820  -37.3040   25.0380 C   0  0  0  0  0  1  0  0  0  0  0  0
  -26.4350  -37.4590   24.0310 N   0  0  0  0  0  0  0  0  0  0  0  0
  -26.0100  -38.3730   24.1540 H   0  0  0  0  0  0  0  0  0  0  0  0
  -30.2230  -22.7110   20.0650 C   0  0  0  0  0  2  0  0  0  0  0  0
  -29.9010  -18.4010   19.1750 C   0  0  0  0  0  3  0  0  0  0  0  0
  -29.3560  -20.7330   18.6920 C   0  0  0  0  0  3  0  0  0  0  0  0
  -30.6970  -18.7870   20.2740 C   0  0  0  0  0  0  0  0  0  0  0  0
  -30.1260  -21.1790   19.7890 C   0  0  0  0  0  0  0  0  0  0  0  0
  -30.8220  -20.1900   20.5690 C   0  0  0  0  0  0  0  0  0  0  0  0
  -29.2450  -19.3630   18.3900 C   0  0  0  0  0  0  0  0  0  0  0  0
  -31.7220  -20.6280   21.7220 C   0  0  0  0  0  1  0  0  0  0  0  0
  -28.2950  -18.8610   17.0390 Cl  0  0  0  0  0  0  0  0  0  0  0  0
  -31.4200  -17.7000   21.1150 C   0  0  0  0  0  2  0  0  0  0  0  0
  -31.6980  -15.2220   20.6340 C   0  0  0  0  0  0  0  0  0  0  0  0
  -31.4990  -12.9340   19.7200 C   0  0  0  0  0  2  0  0  0  0  0  0
  -30.6540  -12.9720   18.4300 C   0  0  0  0  0  2  0  0  0  0  0  0
  -29.1500  -12.8780   18.7550 C   0  0  0  0  0  2  0  0  0  0  0  0
  -28.7160  -13.8570   19.8790 C   0  0  0  0  0  3  0  0  0  0  0  0
  -29.6770  -13.7760   21.0840 C   0  0  0  0  0  2  0  0  0  0  0  0
  -31.0400  -14.0310   20.5890 N   0  0  0  0  0  0  0  0  0  0  0  0
  -32.8640  -15.3460   20.2500 O   0  0  0  0  0  0  0  0  0  0  0  0
  -30.9600  -16.2960   20.9990 N   0  0  0  0  0  0  0  0  0  0  0  0
  -30.0100  -16.1080   21.2800 H   0  0  0  0  0  0  0  0  0  0  0  0
  -26.3070  -14.5600   20.4500 C   0  0  0  0  0  0  0  0  0  0  0  0
  -25.1880  -13.8310   20.7510 C   0  0  0  0  0  0  0  0  0  0  0  0
  -25.5930  -12.4610   20.7390 C   0  0  0  0  0  0  0  0  0  0  0  0
  -27.3270  -13.6370   20.2760 N   0  0  0  0  0  0  0  0  0  0  0  0
  -26.8970  -12.3700   20.5070 N   0  0  0  0  0  0  0  0  0  0  0  0
  -24.8060  -11.2300   20.8780 C   0  0  0  0  0  0  0  0  0  0  0  0
  -25.1150  -10.2630   21.8600 C   0  0  0  0  0  3  0  0  0  0  0  0
  -24.3320   -9.0950   21.9870 C   0  0  0  0  0  3  0  0  0  0  0  0
  -23.2270   -8.8860   21.1280 C   0  0  0  0  0  0  0  0  0  0  0  0
  -22.9370   -9.8400   20.1370 C   0  0  0  0  0  3  0  0  0  0  0  0
  -23.7200  -11.0000   20.0090 C   0  0  0  0  0  3  0  0  0  0  0  0
  -22.4260   -7.7700   21.1600 O   0  0  0  0  0  0  0  0  0  0  0  0
  -22.1640   -7.1050   22.3310 C   0  0  0  0  0  0  0  0  0  0  0  0
  -21.5400   -7.7430   23.4260 C   0  0  0  0  0  3  0  0  0  0  0  0
  -21.2260   -7.0050   24.5850 C   0  0  0  0  0  3  0  0  0  0  0  0
  -21.5250   -5.6310   24.6490 C   0  0  0  0  0  0  0  0  0  0  0  0
  -22.1420   -4.9940   23.5570 C   0  0  0  0  0  3  0  0  0  0  0  0
  -22.4570   -5.7280   22.4010 C   0  0  0  0  0  0  0  0  0  0  0  0
  -23.0310   -5.1040   21.3440 F   0  0  0  0  0  0  0  0  0  0  0  0
  -21.2170   -4.9200   25.7580 F   0  0  0  0  0  0  0  0  0  0  0  0
  -23.7980  -14.3650   20.9440 C   0  0  0  0  0  0  0  0  0  0  0  0
  -22.9990  -13.7110   21.7790 N   0  0  0  0  0  0  0  0  0  0  0  0
  -23.4270  -15.3980   20.3870 O   0  0  0  0  0  0  0  0  0  0  0  0
  -23.3100  -12.8760   22.2530 H   0  0  0  0  0  0  0  0  0  0  0  0
  -22.0640  -14.0520   21.9510 H   0  0  0  0  0  0  0  0  0  0  0  0
  -26.5370  -15.9220   20.2900 N   0  0  0  0  0  0  0  0  0  0  0  0
  -25.7900  -16.6040   20.3530 H   0  0  0  0  0  0  0  0  0  0  0  0
  -27.4120  -16.3240   19.9830 H   0  0  0  0  0  0  0  0  0  0  0  0
  1  3  1  0
  1  2  2  0
  4  7  1  0
  4  5  1  0
  5  9  1  0
  5  3  1  0
  6  2  1  0
  7 50  1  0
  7  1  1  0
  7  8  1  6
  9 11  1  0
 10 21  2  0
 11 16  1  0
 12 20  1  0
 12 22  1  0
 13 19  1  0
 13 15  1  0
 14 20  1  0
 15 14  1  0
 16 15  2  0
 17 18  1  0
 17 11  2  0
 18 13  2  0
 19 12  1  0
 20 10  1  0
 22 24  2  0
 23 22  1  0
 25 23  1  0
 26 35  2  0
 26 31  1  0
 27 23  1  0
 27 31  1  0
 28 27  1  0
 29 30  1  0
 29 28  1  0
 30 26  1  0
 31 32  2  0
 32 33  1  0
 34 33  2  0
 35 34  1  0
 36 10  1  0
 36 41  1  0
 36 37  1  0
 37 40  1  1
 37 38  1  0
 39 37  1  0
 41 44  1  0
 42 46  1  0
 42 41  1  0
 43 42  2  0
 46 45  1  0
 48 46  1  0
 48 49  1  0
 48 47  1  0
 51 53  1  0
 52 54  2  0
 53 55  2  0
 53 59  1  0
 54 50  1  0
 54 55  1  0
 55 57  1  0
 56 52  1  0
 56 51  2  0
 58 56  1  0
 60 68  1  0
 61 66  1  0
 62 63  1  0
 62 61  1  0
 64 63  1  0
 64 73  1  0
 64 65  1  0
 66 60  1  0
 66 65  1  0
 67 60  2  0
 68 59  1  0
 68 69  1  0
 70 71  2  0
 71 90  1  0
 72 71  1  0
 72 75  1  0
 73 70  1  0
 73 74  1  0
 74 72  2  0
 75 76  1  0
 76 77  2  0
 78 81  1  0
 78 77  1  0
 79 78  2  0
 80 79  1  0
 80 75  2  0
 81 82  1  0
 82 87  2  0
 82 83  1  0
 83 84  2  0
 84 85  1  0
 85 89  1  0
 86 85  2  0
 87 86  1  0
 88 87  1  0
 90 91  1  0
 91 94  1  0
 91 93  1  0
 92 90  2  0
 95 96  1  0
 95 70  1  0
 97 95  1  0
M  ISO  4   5 101   9 101  60 100  68 100
M  END
>  <TORSDO>  (69) 
F 19

>  <SCORE>  (69) 
-11.284

>  <name>  (69) 
68

>  <ligand_id>  (69) 
68

>  <original_smiles>  (69) 
[H]C(=C1C([H])([H])C([H])(Oc2c([H])c([H])c3c(c2[H])C([H])([H])N(C(=O)C([H])(N([H])C(=O)C([H])(N([H])C([H])([H])[H])C([H])([H])[H])C(C([H])([H])[H])(C([H])([H])[H])C([H])([H])[H])C([H])(C(=O)N([H])C2([H])c4c([H])c([H])c([H])c([H])c4C([H])([H])C([H])([H])C2([H])[H])C3([H])[H])C([H])([H])[N+]1([H])C([H])([H])c1c([H])c(Cl)c([H])c(C([H])([H])N([H])C(=O)N2C([H])([H])C([H])([H])C([H])([H])C([H])(n3nc(-c4c([H])c([H])c(Oc5c([H])c([H])c(F)c([H])c5F)c([H])c4[H])c(C(=O)N([H])[H])c3N([H])[H])C2([H])[H])c1C([H])([H])[H])C([H])([H])[H]

>  <smiles>  (69) 
[H]C(=C1C([H])([H])C([H])(Oc2c([H])c([H])c3c(c2[H])C([H])([H])N(C(=O)C([H])(N([H])C(=O)C([H])(N([H])C([H])([H])[H])C([H])([H])[H])C(C([H])([H])[H])(C([H])([H])[H])C([H])([H])[H])C([H])(C(=O)N([H])C2([H])c4c([H])c([H])c([H])c([H])c4C([H])([H])C([H])([H])C2([H])[H])C3([H])[H])C([H])([H])[N+]1([H])C([H])([H])c1c([H])c(Cl)c([H])c(C([H])([H])N([H])C(=O)N2C([H])([H])C([H])([H])C([H])([H])C([H])(n3nc(-c4c([H])c([H])c(Oc5c([H])c([H])c(F)c([H])c5F)c([H])c4[H])c(C(=O)N([H])[H])c3N([H])[H])C2([H])[H])c1C([H])([H])[H])C([H])([H])[H]

$$$$
69:0:0
     RDKit          3D

 91 99  0  0  1  0  0  0  0  0999 V2000
  -30.0230  -22.2150   19.2790 C   0  0  0  0  0  3  0  0  0  0  0  0
  -30.4580  -20.7970   19.2490 C   0  0  0  0  0  3  0  0  0  0  0  0
  -27.8430  -21.4880   19.3670 C   0  0  0  0  0  3  0  0  0  0  0  0
  -28.6620  -22.7030   19.3520 C   0  0  0  0  0  0  0  0  0  0  0  0
  -29.6410  -19.5850   19.2580 C   0  0  0  0  0  0  0  0  0  0  0  0
  -28.2650  -20.0550   19.3290 C   0  0  0  0  0  0  0  0  0  0  0  0
  -27.1840  -18.9780   19.3790 C   0  0  1  0  0  0  0  0  0  0  0  0
  -25.9540  -19.4860   19.2820 F   0  0  0  0  0  0  0  0  0  0  0  0
  -27.3490  -18.1100   18.3790 F   0  0  0  0  0  0  0  0  0  0  0  0
  -27.2750  -18.3150   20.5310 F   0  0  0  0  0  0  0  0  0  0  0  0
  -30.3440  -17.9960   19.3210 C   0  0  0  0  0  2  0  0  0  0  0  0
  -30.6030  -15.1470   19.4320 C   0  0  0  0  0  0  0  0  0  0  0  0
  -30.4350  -12.6850   18.6740 C   0  0  0  0  0  2  0  0  0  0  0  0
  -29.3910  -12.4670   17.5530 C   0  0  0  0  0  2  0  0  0  0  0  0
  -27.9900  -12.2460   18.1520 C   0  0  0  0  0  2  0  0  0  0  0  0
  -27.6720  -13.2600   19.2810 C   0  0  0  0  0  3  0  0  0  0  0  0
  -28.8340  -13.4300   20.2830 C   0  0  0  0  0  2  0  0  0  0  0  0
  -30.0030  -13.8660   19.5040 N   0  0  0  0  0  0  0  0  0  0  0  0
  -31.7890  -15.1170   19.0760 O   0  0  0  0  0  0  0  0  0  0  0  0
  -29.8950  -16.4300   19.5470 N   0  0  0  0  0  0  0  0  0  0  0  0
  -28.9220  -16.3260   19.7930 H   0  0  0  0  0  0  0  0  0  0  0  0
  -25.4470  -13.8840   20.3610 C   0  0  0  0  0  0  0  0  0  0  0  0
  -24.3990  -13.1360   20.8190 C   0  0  0  0  0  0  0  0  0  0  0  0
  -24.7860  -11.7700   20.6560 C   0  0  0  0  0  0  0  0  0  0  0  0
  -26.4040  -12.9780   19.9380 N   0  0  0  0  0  0  0  0  0  0  0  0
  -26.0250  -11.6950   20.1820 N   0  0  0  0  0  0  0  0  0  0  0  0
  -24.0200  -10.5340   20.8660 C   0  0  0  0  0  0  0  0  0  0  0  0
  -24.4610   -9.5350   21.7610 C   0  0  0  0  0  3  0  0  0  0  0  0
  -23.6930   -8.3660   21.9630 C   0  0  0  0  0  3  0  0  0  0  0  0
  -22.4720   -8.1890   21.2700 C   0  0  0  0  0  0  0  0  0  0  0  0
  -22.0500   -9.1780   20.3640 C   0  0  0  0  0  3  0  0  0  0  0  0
  -22.8160  -10.3370   20.1600 C   0  0  0  0  0  3  0  0  0  0  0  0
  -21.6750   -7.0760   21.3840 O   0  0  0  0  0  0  0  0  0  0  0  0
  -21.5840   -6.3730   22.5590 C   0  0  0  0  0  0  0  0  0  0  0  0
  -21.1690   -6.9830   23.7620 C   0  0  0  0  0  3  0  0  0  0  0  0
  -21.0220   -6.2080   24.9300 C   0  0  0  0  0  3  0  0  0  0  0  0
  -21.2800   -4.8250   24.8950 C   0  0  0  0  0  0  0  0  0  0  0  0
  -21.6890   -4.2150   23.6960 C   0  0  0  0  0  3  0  0  0  0  0  0
  -21.8370   -4.9870   22.5300 C   0  0  0  0  0  0  0  0  0  0  0  0
  -22.2100   -4.3900   21.3730 F   0  0  0  0  0  0  0  0  0  0  0  0
  -21.1320   -4.0780   26.0150 F   0  0  0  0  0  0  0  0  0  0  0  0
  -23.0740  -13.6620   21.2870 C   0  0  0  0  0  0  0  0  0  0  0  0
  -22.4340  -12.9660   22.2190 N   0  0  0  0  0  0  0  0  0  0  0  0
  -22.6220  -14.7240   20.8600 O   0  0  0  0  0  0  0  0  0  0  0  0
  -22.8160  -12.1060   22.5830 H   0  0  0  0  0  0  0  0  0  0  0  0
  -21.5500  -13.2980   22.5740 H   0  0  0  0  0  0  0  0  0  0  0  0
  -25.6580  -15.2540   20.2410 N   0  0  0  0  0  0  0  0  0  0  0  0
  -24.9490  -15.9300   20.5020 H   0  0  0  0  0  0  0  0  0  0  0  0
  -26.4820  -15.6850   19.8420 H   0  0  0  0  0  0  0  0  0  0  0  0
  -28.0300  -24.3030   19.1070 C   0  0  0  0  0  2  0  0  0  0  0  0
  -28.3250  -25.8090   19.6430 O   0  0  0  0  0  0  0  0  0  0  0  0
  -24.6350  -31.4620   22.9580 C   0  0  0  0  0  0  0  0  0  0  0  0
  -27.3040  -26.8860   19.6330 C   0  0  0  0  0  0  0  0  0  0  0  0
  -23.4710  -30.1450   21.2350 C   0  0  0  0  0  3  0  0  0  0  0  0
  -24.9560  -28.6830   19.7100 C   0  0  0  0  0  0  0  0  0  0  0  0
  -26.0300  -30.4390   21.0990 C   0  0  0  0  0  2  0  0  0  0  0  0
  -26.1350  -29.0820   20.3540 C   0  0  0  0  0  0  0  0  0  0  0  0
  -27.3040  -28.2040   20.2970 C   0  0  0  0  0  3  0  0  0  0  0  0
  -26.0950  -26.6390   18.9440 C   0  0  0  0  0  3  0  0  0  0  0  0
  -24.9580  -27.4830   18.9860 C   0  0  0  0  0  3  0  0  0  0  0  0
  -23.7140  -29.5620   19.8170 C   0  0  0  0  0  2  0  0  0  0  0  0
  -24.7330  -30.7040   21.8190 N   0  0  0  0  0  0  0  0  0  0  0  0
  -23.5410  -31.6900   23.4990 O   0  0  0  0  0  0  0  0  0  0  0  0
  -22.8080  -29.0690   22.1340 C   0  0  0  0  0  0  0  0  0  0  0  0
  -21.4760  -28.9070   22.0290 N   0  0  0  0  0  0  0  0  0  0  0  0
  -23.4970  -28.3830   22.8940 O   0  0  0  0  0  0  0  0  0  0  0  0
  -20.9730  -29.5110   21.3950 H   0  0  0  0  0  0  0  0  0  0  0  0
  -18.1020  -27.6920   22.5790 C   0  0  0  0  0  0  0  0  0  0  0  0
  -20.6750  -27.9070   22.7440 C   0  0  0  0  0  3  0  0  0  0  0  0
  -20.7300  -26.5360   22.0320 C   0  0  0  0  0  2  0  0  0  0  0  0
  -19.5770  -26.3230   21.0440 C   0  0  0  0  0  2  0  0  0  0  0  0
  -18.2290  -26.4150   21.7650 C   0  0  0  0  0  2  0  0  0  0  0  0
  -19.2500  -28.4010   23.0250 C   0  0  0  0  0  0  0  0  0  0  0  0
  -19.0730  -29.5980   23.7520 C   0  0  0  0  0  3  0  0  0  0  0  0
  -17.7830  -30.0880   24.0330 C   0  0  0  0  0  3  0  0  0  0  0  0
  -16.6520  -29.3760   23.5990 C   0  0  0  0  0  3  0  0  0  0  0  0
  -16.8120  -28.1790   22.8780 C   0  0  0  0  0  3  0  0  0  0  0  0
  -25.8920  -32.0940   23.6280 C   0  0  0  0  0  3  0  0  0  0  0  0
  -26.3960  -31.2840   24.8870 C   0  0  1  0  0  0  0  0  0  0  0  0
  -25.2880  -31.0010   25.9290 C   0  0  0  0  0  1  0  0  0  0  0  0
  -26.9980  -29.9240   24.4650 C   0  0  0  0  0  1  0  0  0  0  0  0
  -27.5280  -32.0660   25.5930 C   0  0  0  0  0  1  0  0  0  0  0  0
  -25.5530  -33.4740   24.0150 N   0  0  0  0  0  0  0  0  0  0  0  0
  -25.8700  -34.5680   23.3100 C   0  0  0  0  0  0  0  0  0  0  0  0
  -26.5410  -34.5230   22.2760 O   0  0  0  0  0  0  0  0  0  0  0  0
  -24.9540  -33.5810   24.8210 H   0  0  0  0  0  0  0  0  0  0  0  0
  -24.1080  -36.3510   23.0530 C   0  0  0  0  0  1  0  0  0  0  0  0
  -25.3630  -35.9290   23.8330 C   0  0  0  0  0  3  0  0  0  0  0  0
  -27.4890  -36.8180   24.6850 C   0  0  0  0  0  1  0  0  0  0  0  0
  -26.3770  -37.0040   23.7570 N   0  0  0  0  0  0  0  0  0  0  0  0
  -25.9560  -37.9100   23.9460 H   0  0  0  0  0  0  0  0  0  0  0  0
  1  4  1  0
  2  5  1  0
  2  1  2  0
  4  3  2  0
  5 11  1  0
  5  6  2  0
  6  3  1  0
  6  7  1  0
  7 10  1  1
  8  7  1  0
  9  7  1  0
 11 20  1  0
 12 18  1  0
 12 20  1  0
 13 18  1  0
 14 15  1  0
 14 13  1  0
 16 15  1  0
 16 25  1  0
 16 17  1  0
 18 17  1  0
 19 12  2  0
 20 21  1  0
 22 23  2  0
 23 42  1  0
 24 23  1  0
 24 27  1  0
 25 26  1  0
 25 22  1  0
 26 24  2  0
 27 28  1  0
 28 29  2  0
 30 33  1  0
 30 29  1  0
 31 30  2  0
 32 31  1  0
 32 27  2  0
 33 34  1  0
 34 35  1  0
 35 36  2  0
 37 36  1  0
 37 41  1  0
 38 37  2  0
 39 34  2  0
 39 38  1  0
 40 39  1  0
 42 43  1  0
 43 46  1  0
 43 45  1  0
 44 42  2  0
 47 22  1  0
 47 48  1  0
 49 47  1  0
 50  4  1  0
 50 51  1  0
 52 63  2  0
 53 51  1  0
 53 58  1  0
 54 62  1  0
 54 64  1  0
 55 61  1  0
 55 57  1  0
 56 62  1  0
 57 56  1  0
 58 57  2  0
 59 60  1  0
 59 53  2  0
 60 55  2  0
 61 54  1  0
 62 52  1  0
 64 66  2  0
 65 64  1  0
 67 65  1  0
 68 77  2  0
 68 73  1  0
 69 65  1  0
 69 73  1  0
 70 69  1  0
 71 72  1  0
 71 70  1  0
 72 68  1  0
 73 74  2  0
 74 75  1  0
 76 75  2  0
 77 76  1  0
 78 52  1  0
 78 83  1  0
 78 79  1  0
 79 82  1  1
 79 80  1  0
 81 79  1  0
 83 86  1  0
 84 88  1  0
 84 83  1  0
 85 84  2  0
 88 87  1  0
 90 88  1  0
 90 91  1  0
 90 89  1  0
M  ISO  4  12 100  20 100  50 101  51 101
M  END
>  <TORSDO>  (70) 
F 19

>  <SCORE>  (70) 
-14.065

>  <name>  (70) 
69

>  <ligand_id>  (70) 
69

>  <original_smiles>  (70) 
[H]c1c([H])c([H])c2c(c1[H])C([H])([H])C([H])([H])C([H])([H])C2([H])N([H])C(=O)C1([H])N(C(=O)C([H])(N([H])C(=O)C([H])(N([H])C([H])([H])[H])C([H])([H])[H])C(C([H])([H])[H])(C([H])([H])[H])C([H])([H])[H])C([H])([H])c2c([H])c(OC([H])([H])c3c([H])c([H])c(C([H])([H])N([H])C(=O)N4C([H])([H])C([H])([H])C([H])([H])C([H])(n5nc(-c6c([H])c([H])c(Oc7c([H])c([H])c(F)c([H])c7F)c([H])c6[H])c(C(=O)N([H])[H])c5N([H])[H])C4([H])[H])c(C(F)(F)F)c3[H])c([H])c([H])c2C1([H])[H]

>  <smiles>  (70) 
[H]c1c([H])c([H])c2c(c1[H])C([H])([H])C([H])([H])C([H])([H])C2([H])N([H])C(=O)C1([H])N(C(=O)C([H])(N([H])C(=O)C([H])(N([H])C([H])([H])[H])C([H])([H])[H])C(C([H])([H])[H])(C([H])([H])[H])C([H])([H])[H])C([H])([H])c2c([H])c(OC([H])([H])c3c([H])c([H])c(C([H])([H])N([H])C(=O)N4C([H])([H])C([H])([H])C([H])([H])C([H])(n5nc(-c6c([H])c([H])c(Oc7c([H])c([H])c(F)c([H])c7F)c([H])c6[H])c(C(=O)N([H])[H])c5N([H])[H])C4([H])[H])c(C(F)(F)F)c3[H])c([H])c([H])c2C1([H])[H]

$$$$
70:0:0
     RDKit          3D

 89 86  0  0  1  0  0  0  0  0999 V2000
  -26.3800  -12.6530   19.7630 C   0  0  0  0  0  1  0  0  0  0  0  0
  -24.7990  -14.0580   18.9700 C   0  0  0  0  0 15  0  0  0  0  0  0
  -27.7040  -15.9810   21.5800 C   0  0  0  0  0 15  0  0  0  0  0  0
  -26.3480  -17.3320   20.5490 C   0  0  0  0  0 15  0  0  0  0  0  0
  -27.9510  -13.7910   21.2780 C   0  0  0  0  0  1  0  0  0  0  0  0
  -24.8140  -16.2540   19.4110 C   0  0  0  0  0  1  0  0  0  0  0  0
  -23.7540  -17.0880   18.7310 C   0  0  0  0  0  1  0  0  0  0  0  0
  -26.7940  -19.7030   20.4400 C   0  0  0  0  0  1  0  0  0  0  0  0
  -26.8300  -21.5820   20.2140 C   0  0  0  0  0  1  0  0  0  0  0  0
  -27.5540  -23.4890   20.1800 O   0  0  0  0  0  1  0  0  0  0  0  0
  -25.8760  -31.4980   23.1070 C   0  0  0  0  0  0  0  0  0  0  0  0
  -27.2810  -25.3290   20.1380 C   0  0  0  0  0  0  0  0  0  0  0  0
  -24.5940  -30.1960   21.4910 C   0  0  0  0  0  3  0  0  0  0  0  0
  -25.7960  -28.3130   20.0190 C   0  0  0  0  0  0  0  0  0  0  0  0
  -27.1430  -29.7780   21.4590 C   0  0  0  0  0  2  0  0  0  0  0  0
  -26.9610  -28.2610   20.7730 C   0  0  0  0  0  0  0  0  0  0  0  0
  -27.6740  -26.8230   20.7880 C   0  0  0  0  0  3  0  0  0  0  0  0
  -26.3290  -25.9150   19.2220 C   0  0  0  0  0  3  0  0  0  0  0  0
  -25.6100  -27.1850   19.1940 C   0  0  0  0  0  3  0  0  0  0  0  0
  -24.7830  -29.5000   20.0990 C   0  0  0  0  0  2  0  0  0  0  0  0
  -25.9260  -30.5610   22.0620 N   0  0  0  0  0  0  0  0  0  0  0  0
  -24.7960  -31.8910   23.5950 O   0  0  0  0  0  0  0  0  0  0  0  0
  -23.8030  -29.2850   22.4720 C   0  0  0  0  0  0  0  0  0  0  0  0
  -22.4670  -29.1750   22.3370 N   0  0  0  0  0  0  0  0  0  0  0  0
  -24.4170  -28.6760   23.3510 O   0  0  0  0  0  0  0  0  0  0  0  0
  -22.0090  -29.7170   21.6180 H   0  0  0  0  0  0  0  0  0  0  0  0
  -19.0810  -27.9110   22.7780 C   0  0  0  0  0  0  0  0  0  0  0  0
  -21.6230  -28.2580   23.1170 C   0  0  0  0  0  3  0  0  0  0  0  0
  -21.7760  -26.8040   22.6090 C   0  0  0  0  0  2  0  0  0  0  0  0
  -20.7270  -26.4220   21.5610 C   0  0  0  0  0  2  0  0  0  0  0  0
  -19.3180  -26.5500   22.1460 C   0  0  0  0  0  2  0  0  0  0  0  0
  -20.1630  -28.7210   23.2180 C   0  0  0  0  0  0  0  0  0  0  0  0
  -19.8860  -29.9870   23.7770 C   0  0  0  0  0  3  0  0  0  0  0  0
  -18.5600  -30.4490   23.8940 C   0  0  0  0  0  3  0  0  0  0  0  0
  -17.4940  -29.6400   23.4650 C   0  0  0  0  0  3  0  0  0  0  0  0
  -17.7550  -28.3720   22.9130 C   0  0  0  0  0  3  0  0  0  0  0  0
  -27.1420  -32.1440   23.7600 C   0  0  0  0  0  3  0  0  0  0  0  0
  -26.7950  -33.4940   24.2890 N   0  0  0  0  0  0  0  0  0  0  0  0
  -27.0760  -34.6740   23.7130 C   0  0  0  0  0  0  0  0  0  0  0  0
  -27.6860  -34.7510   22.6450 O   0  0  0  0  0  0  0  0  0  0  0  0
  -26.2370  -33.5050   25.1290 H   0  0  0  0  0  0  0  0  0  0  0  0
  -25.3000  -36.4750   23.8010 C   0  0  0  0  0  1  0  0  0  0  0  0
  -26.6150  -35.9750   24.4210 C   0  0  0  0  0  3  0  0  0  0  0  0
  -28.8000  -36.8070   25.1910 C   0  0  0  0  0  1  0  0  0  0  0  0
  -27.6170  -37.0670   24.3760 N   0  0  0  0  0  0  0  0  0  0  0  0
  -27.2070  -37.9450   24.6840 H   0  0  0  0  0  0  0  0  0  0  0  0
  -27.7240  -31.2850   24.9520 C   0  0  1  0  0  0  0  0  0  0  0  0
  -26.6820  -30.9310   26.0410 C   0  0  0  0  0  1  0  0  0  0  0  0
  -28.3210  -29.9580   24.4500 C   0  0  0  0  0  1  0  0  0  0  0  0
  -28.8880  -32.0450   25.6340 C   0  0  0  0  0  1  0  0  0  0  0  0
  -29.5070  -13.5590   21.5450 C   0  0  0  0  0  2  0  0  0  0  0  0
  -30.8970  -13.4950   19.2200 C   0  0  0  0  0  0  0  0  0  0  0  0
  -30.4740  -11.4840   17.7290 C   0  0  0  0  0  2  0  0  0  0  0  0
  -29.1760  -11.5960   16.8180 C   0  0  0  0  0  2  0  0  0  0  0  0
  -27.8310  -12.0830   17.4570 C   0  0  0  0  0  2  0  0  0  0  0  0
  -28.1700  -13.1200   18.5940 C   0  0  0  0  0  2  0  0  0  0  0  0
  -29.0930  -12.0260   19.3960 C   0  0  0  0  0  2  0  0  0  0  0  0
  -30.3860  -12.2790   18.9590 N   0  0  0  0  0  0  0  0  0  0  0  0
  -31.6470  -14.0300   18.3810 O   0  0  0  0  0  0  0  0  0  0  0  0
  -30.4900  -14.0230   20.4410 N   0  0  0  0  0  0  0  0  0  0  0  0
  -30.8960  -14.9290   20.6280 H   0  0  0  0  0  0  0  0  0  0  0  0
  -25.5070  -14.2870   20.5690 C   0  0  0  0  0  1  0  0  0  0  0  0
  -24.4210  -13.3200   21.1500 C   0  0  0  0  0  0  0  0  0  0  0  0
  -24.9370  -12.0830   21.4120 C   0  0  0  0  0  2  0  0  0  0  0  0
  -26.6890  -14.1960   19.5530 N   0  0  0  0  0  1  0  0  0  0  0  0
  -25.3690  -13.5040   20.8750 N   0  0  0  0  0  0  0  0  0  0  0  0
  -24.1500  -10.5660   21.2380 C   0  0  0  0  0  3  0  0  0  0  0  0
  -24.5390   -9.3770   21.9970 C   0  0  0  0  0  3  0  0  0  0  0  0
  -23.7790   -8.1480   22.1860 C   0  0  0  0  0  3  0  0  0  0  0  0
  -22.5000   -7.9490   21.6080 C   0  0  0  0  0  0  0  0  0  0  0  0
  -22.1250   -9.0080   20.7370 C   0  0  0  0  0  3  0  0  0  0  0  0
  -22.9090  -10.2200   20.5520 C   0  0  0  0  0  3  0  0  0  0  0  0
  -21.6680   -6.8180   21.7770 O   0  0  0  0  0  0  0  0  0  0  0  0
  -21.5720   -6.0400   22.9380 C   0  0  0  0  0  0  0  0  0  0  0  0
  -21.3250   -6.6140   24.2080 C   0  0  0  0  0  3  0  0  0  0  0  0
  -21.2010   -5.8050   25.3640 C   0  0  0  0  0  3  0  0  0  0  0  0
  -21.3100   -4.4050   25.2730 C   0  0  0  0  0  0  0  0  0  0  0  0
  -21.5110   -3.8140   24.0150 C   0  0  0  0  0  3  0  0  0  0  0  0
  -21.6250   -4.6190   22.8590 C   0  0  0  0  0  0  0  0  0  0  0  0
  -21.7860   -4.0040   21.6630 F   0  0  0  0  0  0  0  0  0  0  0  0
  -21.2190   -3.6330   26.3850 F   0  0  0  0  0  0  0  0  0  0  0  0
  -22.9490  -13.5310   21.5240 C   0  0  0  0  0  0  0  0  0  0  0  0
  -22.4140  -12.7360   22.4570 N   0  0  0  0  0  0  0  0  0  0  0  0
  -22.3370  -14.4270   20.9790 O   0  0  0  0  0  0  0  0  0  0  0  0
  -22.9520  -12.0090   22.9000 H   0  0  0  0  0  0  0  0  0  0  0  0
  -21.4500  -12.8650   22.7310 H   0  0  0  0  0  0  0  0  0  0  0  0
  -26.7800  -14.5930   19.4140 N   0  0  0  0  0  0  0  0  0  0  0  0
  -26.2110  -14.7800   18.5950 H   0  0  0  0  0  0  0  0  0  0  0  0
  -27.1490  -15.4890   19.7020 H   0  0  0  0  0  0  0  0  0  0  0  0
  1 66  1  0
  5 51  1  0
  7  6  1  0
  9  8  1  0
 11 22  2  0
 12 10  1  0
 12 17  1  0
 13 21  1  0
 13 23  1  0
 14 20  1  0
 14 16  1  0
 15 21  1  0
 16 17  2  0
 16 15  1  0
 18 12  2  0
 19 18  1  0
 19 14  2  0
 20 13  1  0
 21 11  1  0
 23 25  2  0
 24 23  1  0
 26 24  1  0
 27 36  2  0
 27 32  1  0
 28 24  1  0
 28 32  1  0
 29 28  1  0
 30 31  1  0
 30 29  1  0
 31 27  1  0
 32 33  2  0
 33 34  1  0
 35 34  2  0
 36 35  1  0
 37 11  1  0
 37 38  1  0
 37 47  1  0
 38 41  1  0
 39 38  1  0
 39 43  1  0
 40 39  2  0
 43 42  1  0
 45 43  1  0
 45 46  1  0
 45 44  1  0
 47 50  1  1
 47 48  1  0
 49 47  1  0
 52 60  1  0
 53 58  1  0
 54 55  1  0
 54 53  1  0
 55 56  1  0
 56 57  1  0
 58 52  1  0
 58 57  1  0
 59 52  2  0
 60 61  1  0
 60 51  1  0
 62 66  1  0
 63 64  2  0
 63 82  1  0
 66 63  1  0
 67 68  1  0
 68 69  2  0
 70 73  1  0
 70 69  1  0
 71 70  2  0
 72 71  1  0
 72 67  2  0
 73 74  1  0
 74 75  1  0
 75 76  2  0
 77 76  1  0
 77 81  1  0
 78 77  2  0
 79 74  2  0
 79 78  1  0
 80 79  1  0
 82 83  1  0
 83 86  1  0
 83 85  1  0
 84 82  2  0
 87 65  1  0
 87 89  1  0
 88 87  1  0
M  ISO  4   9 101  10 101  52 100  60 100
M  END
>  <TORSDO>  (71) 
F 18

>  <SCORE>  (71) 
0.290

>  <name>  (71) 
70

>  <ligand_id>  (71) 
70

>  <original_smiles>  (71) 
[H]C(Oc1c([H])c([H])c2c(c1[H])C([H])([H])N(C(=O)C([H])(N([H])C(=O)C([H])(N([H])C([H])([H])[H])C([H])([H])[H])C(C([H])([H])[H])(C([H])([H])[H])C([H])([H])[H])C([H])(C(=O)N([H])C1([H])c3c([H])c([H])c([H])c([H])c3C([H])([H])C([H])([H])C1([H])[H])C2([H])[H])=C([H])c1c([H])c(C([H])([H])N([H])C(=O)N2C([H])([H])C([H])([H])C([H])([H])C([H])(n3nc(-c4c([H])c([H])c(Oc5c([H])c([H])c(F)c([H])c5F)c([H])c4[H])c(C(=O)N([H])[H])c3N([H])[H])C2([H])[H])c([H])c([H])c1C([H])([H])[H]

>  <smiles>  (71) 
[H]C(Oc1c([H])c([H])c2c(c1[H])C([H])([H])N(C(=O)C([H])(N([H])C(=O)C([H])(N([H])C([H])([H])[H])C([H])([H])[H])C(C([H])([H])[H])(C([H])([H])[H])C([H])([H])[H])C([H])(C(=O)N([H])C1([H])c3c([H])c([H])c([H])c([H])c3C([H])([H])C([H])([H])C1([H])[H])C2([H])[H])=C([H])c1c([H])c(C([H])([H])N([H])C(=O)N2C([H])([H])C([H])([H])C([H])([H])C([H])(n3nc(-c4c([H])c([H])c(Oc5c([H])c([H])c(F)c([H])c5F)c([H])c4[H])c(C(=O)N([H])[H])c3N([H])[H])C2([H])[H])c([H])c([H])c1C([H])([H])[H]

$$$$
71:0:0
     RDKit          3D

 97106  0  0  1  0  0  0  0  0999 V2000
  -30.4660  -21.8270   20.2600 C   0  0  0  0  0  2  0  0  0  0  0  0
  -30.3390  -17.9750   19.2920 C   0  0  0  0  0  3  0  0  0  0  0  0
  -30.3130  -19.4030   19.2040 C   0  0  0  0  0  0  0  0  0  0  0  0
  -30.4310  -19.5470   21.6210 C   0  0  0  0  0  0  0  0  0  0  0  0
  -30.3370  -20.2390   20.3680 C   0  0  0  0  0  0  0  0  0  0  0  0
  -30.4670  -18.1040   21.6930 C   0  0  0  0  0  0  0  0  0  0  0  0
  -30.4030  -17.2820   20.5270 C   0  0  0  0  0  0  0  0  0  0  0  0
  -30.3160  -20.0020   17.8030 C   0  0  0  0  0  1  0  0  0  0  0  0
  -30.6100  -17.4180   23.0530 C   0  0  0  0  0  1  0  0  0  0  0  0
  -31.0190  -14.7800   20.1080 C   0  0  0  0  0  0  0  0  0  0  0  0
  -30.7850  -12.5260   19.0750 C   0  0  0  0  0  2  0  0  0  0  0  0
  -29.7920  -12.6240   17.8950 C   0  0  0  0  0  2  0  0  0  0  0  0
  -28.3450  -12.4320   18.3860 C   0  0  0  0  0  2  0  0  0  0  0  0
  -28.0170  -13.3030   19.6280 C   0  0  0  0  0  3  0  0  0  0  0  0
  -29.1240  -13.1900   20.7030 C   0  0  0  0  0  2  0  0  0  0  0  0
  -30.4070  -13.5500   20.0730 N   0  0  0  0  0  0  0  0  0  0  0  0
  -32.1300  -14.9510   19.6000 O   0  0  0  0  0  0  0  0  0  0  0  0
  -30.2990  -15.8180   20.6430 N   0  0  0  0  0  0  0  0  0  0  0  0
  -29.5050  -15.5060   21.1780 H   0  0  0  0  0  0  0  0  0  0  0  0
  -25.6560  -13.8650   20.4770 C   0  0  0  0  0  0  0  0  0  0  0  0
  -24.6080  -13.0760   20.8680 C   0  0  0  0  0  0  0  0  0  0  0  0
  -25.0700  -11.7280   20.7640 C   0  0  0  0  0  0  0  0  0  0  0  0
  -26.6910  -12.9980   20.1650 N   0  0  0  0  0  0  0  0  0  0  0  0
  -26.3450  -11.7050   20.3950 N   0  0  0  0  0  0  0  0  0  0  0  0
  -24.3540  -10.4570   20.9420 C   0  0  0  0  0  0  0  0  0  0  0  0
  -24.7620   -9.5090   21.9070 C   0  0  0  0  0  3  0  0  0  0  0  0
  -24.0460   -8.3040   22.0740 C   0  0  0  0  0  3  0  0  0  0  0  0
  -22.9080   -8.0370   21.2760 C   0  0  0  0  0  0  0  0  0  0  0  0
  -22.5200   -8.9740   20.3020 C   0  0  0  0  0  3  0  0  0  0  0  0
  -23.2360  -10.1710   20.1340 C   0  0  0  0  0  3  0  0  0  0  0  0
  -22.1680   -6.8810   21.3490 O   0  0  0  0  0  0  0  0  0  0  0  0
  -21.9710   -6.2270   22.5370 C   0  0  0  0  0  0  0  0  0  0  0  0
  -21.3770   -6.8650   23.6490 C   0  0  0  0  0  3  0  0  0  0  0  0
  -21.1310   -6.1350   24.8300 C   0  0  0  0  0  3  0  0  0  0  0  0
  -21.4670   -4.7700   24.8980 C   0  0  0  0  0  0  0  0  0  0  0  0
  -22.0530   -4.1330   23.7900 C   0  0  0  0  0  3  0  0  0  0  0  0
  -22.3010   -4.8590   22.6130 C   0  0  0  0  0  0  0  0  0  0  0  0
  -22.8470   -4.2360   21.5410 F   0  0  0  0  0  0  0  0  0  0  0  0
  -21.2220   -4.0670   26.0280 F   0  0  0  0  0  0  0  0  0  0  0  0
  -23.2250  -13.5400   21.2240 C   0  0  0  0  0  0  0  0  0  0  0  0
  -22.5500  -12.8240   22.1170 N   0  0  0  0  0  0  0  0  0  0  0  0
  -22.7530  -14.5710   20.7460 O   0  0  0  0  0  0  0  0  0  0  0  0
  -22.9440  -11.9890   22.5250 H   0  0  0  0  0  0  0  0  0  0  0  0
  -21.6260  -13.1180   22.4000 H   0  0  0  0  0  0  0  0  0  0  0  0
  -25.8060  -15.2430   20.3420 N   0  0  0  0  0  0  0  0  0  0  0  0
  -25.0390  -15.8850   20.5080 H   0  0  0  0  0  0  0  0  0  0  0  0
  -26.6370  -15.7030   19.9910 H   0  0  0  0  0  0  0  0  0  0  0  0
  -31.9900  -20.7200   23.2830 C   0  0  0  0  0  1  0  0  0  0  0  0
  -30.5390  -20.3650   22.9140 C   0  0  0  0  0  2  0  0  0  0  0  0
  -28.5260  -22.9570   18.9800 C   0  0  0  0  0  0  0  0  0  0  0  0
  -28.0380  -21.9570   18.2270 C   0  0  0  0  0  2  0  0  0  0  0  0
  -28.3040  -24.4630   18.7900 C   0  0  0  0  0  2  0  0  0  0  0  0
  -29.5130  -24.1570   20.7760 C   0  0  0  0  0  2  0  0  0  0  0  0
  -28.4100  -25.1030   20.1850 C   0  0  0  0  0  3  0  0  0  0  0  0
  -29.2540  -22.7530   20.2700 N   0  0  2  0  0  4  0  0  0  0  0  0
  -28.6070  -22.3380   20.9230 H   0  0  0  0  0  0  0  0  0  0  0  0
  -28.5970  -26.5830   20.2220 O   0  0  0  0  0  0  0  0  0  0  0  0
  -24.8360  -31.9060   23.3650 C   0  0  0  0  0  0  0  0  0  0  0  0
  -27.4710  -27.4300   20.1880 C   0  0  0  0  0  0  0  0  0  0  0  0
  -23.6480  -30.5710   21.6620 C   0  0  0  0  0  3  0  0  0  0  0  0
  -25.1100  -29.0550   20.2110 C   0  0  0  0  0  0  0  0  0  0  0  0
  -26.1940  -30.8730   21.5290 C   0  0  0  0  0  2  0  0  0  0  0  0
  -26.2740  -29.5170   20.8370 C   0  0  0  0  0  0  0  0  0  0  0  0
  -27.4570  -28.7160   20.8150 C   0  0  0  0  0  3  0  0  0  0  0  0
  -26.2800  -27.0250   19.5420 C   0  0  0  0  0  3  0  0  0  0  0  0
  -25.1140  -27.8140   19.5580 C   0  0  0  0  0  3  0  0  0  0  0  0
  -23.8780  -29.9360   20.2660 C   0  0  0  0  0  2  0  0  0  0  0  0
  -24.9110  -31.1330   22.2420 N   0  0  0  0  0  0  0  0  0  0  0  0
  -23.7480  -32.1740   23.8920 O   0  0  0  0  0  0  0  0  0  0  0  0
  -22.9630  -29.5300   22.5780 C   0  0  0  0  0  0  0  0  0  0  0  0
  -21.6460  -29.3330   22.3930 N   0  0  0  0  0  0  0  0  0  0  0  0
  -23.6180  -28.9030   23.4160 O   0  0  0  0  0  0  0  0  0  0  0  0
  -21.1760  -29.8950   21.6970 H   0  0  0  0  0  0  0  0  0  0  0  0
  -18.2800  -28.0450   22.7000 C   0  0  0  0  0  0  0  0  0  0  0  0
  -20.8120  -28.3690   23.1130 C   0  0  0  0  0  3  0  0  0  0  0  0
  -20.9830  -26.9430   22.5390 C   0  0  0  0  0  2  0  0  0  0  0  0
  -19.9490  -26.5960   21.4650 C   0  0  0  0  0  2  0  0  0  0  0  0
  -18.5300  -26.7040   22.0300 C   0  0  0  0  0  2  0  0  0  0  0  0
  -19.3530  -28.8330   23.1950 C   0  0  0  0  0  0  0  0  0  0  0  0
  -19.0690  -30.0870   23.7800 C   0  0  0  0  0  3  0  0  0  0  0  0
  -17.7450  -30.5540   23.8750 C   0  0  0  0  0  3  0  0  0  0  0  0
  -16.6850  -29.7630   23.3990 C   0  0  0  0  0  3  0  0  0  0  0  0
  -16.9540  -28.5110   22.8180 C   0  0  0  0  0  3  0  0  0  0  0  0
  -26.1140  -32.5080   24.0280 C   0  0  0  0  0  3  0  0  0  0  0  0
  -26.6030  -31.6940   25.2890 C   0  0  1  0  0  0  0  0  0  0  0  0
  -25.4870  -31.4320   26.3280 C   0  0  0  0  0  1  0  0  0  0  0  0
  -27.1850  -30.3270   24.8660 C   0  0  0  0  0  1  0  0  0  0  0  0
  -27.7430  -32.4620   25.9970 C   0  0  0  0  0  1  0  0  0  0  0  0
  -25.8110  -33.8980   24.3960 N   0  0  0  0  0  0  0  0  0  0  0  0
  -26.1390  -34.9690   23.6630 C   0  0  0  0  0  0  0  0  0  0  0  0
  -26.7990  -34.8920   22.6230 O   0  0  0  0  0  0  0  0  0  0  0  0
  -25.2310  -34.0340   25.2110 H   0  0  0  0  0  0  0  0  0  0  0  0
  -24.4010  -36.7660   23.3910 C   0  0  0  0  0  1  0  0  0  0  0  0
  -25.6620  -36.3460   24.1640 C   0  0  0  0  0  3  0  0  0  0  0  0
  -27.8110  -37.2220   24.9660 C   0  0  0  0  0  1  0  0  0  0  0  0
  -26.6880  -37.4050   24.0500 N   0  0  0  0  0  0  0  0  0  0  0  0
  -26.2810  -38.3190   24.2280 H   0  0  0  0  0  0  0  0  0  0  0  0
  1 55  1  0
  1  5  1  0
  2  7  1  0
  3  2  2  0
  3  5  1  0
  4  6  1  0
  4 49  1  0
  5  4  2  0
  6  9  1  0
  7 18  1  0
  7  6  2  0
  8  3  1  0
 10 18  1  0
 11 16  1  0
 12 13  1  0
 12 11  1  0
 14 13  1  0
 14 23  1  0
 14 15  1  0
 16 10  1  0
 16 15  1  0
 17 10  2  0
 18 19  1  0
 20 21  2  0
 21 40  1  0
 22 21  1  0
 22 25  1  0
 23 24  1  0
 23 20  1  0
 24 22  2  0
 25 26  1  0
 26 27  2  0
 28 31  1  0
 28 27  1  0
 29 28  2  0
 30 29  1  0
 30 25  2  0
 31 32  1  0
 32 37  2  0
 32 33  1  0
 33 34  2  0
 34 35  1  0
 35 39  1  0
 36 35  2  0
 37 36  1  0
 38 37  1  0
 40 41  1  0
 41 44  1  0
 41 43  1  0
 42 40  2  0
 45 20  1  0
 45 46  1  0
 47 45  1  0
 49 48  1  0
 50 55  1  0
 51 50  2  0
 52 50  1  0
 52 54  1  0
 54 57  1  0
 54 53  1  0
 55 53  1  0
 55 56  1  1
 58 69  2  0
 59 57  1  0
 59 64  1  0
 60 68  1  0
 60 70  1  0
 61 67  1  0
 61 63  1  0
 62 68  1  0
 63 62  1  0
 64 63  2  0
 65 66  1  0
 65 59  2  0
 66 61  2  0
 67 60  1  0
 68 58  1  0
 70 72  2  0
 71 70  1  0
 73 71  1  0
 74 83  2  0
 74 79  1  0
 75 71  1  0
 75 79  1  0
 76 75  1  0
 77 78  1  0
 77 76  1  0
 78 74  1  0
 79 80  2  0
 80 81  1  0
 82 81  2  0
 83 82  1  0
 84 58  1  0
 84 89  1  0
 84 85  1  0
 85 88  1  1
 85 86  1  0
 87 85  1  0
 89 92  1  0
 90 94  1  0
 90 89  1  0
 91 90  2  0
 94 93  1  0
 96 94  1  0
 96 97  1  0
 96 95  1  0
M  ISO  4  10 100  18 100  54 101  57 101
M  END
>  <TORSDO>  (72) 
F 19

>  <SCORE>  (72) 
-13.435

>  <name>  (72) 
71

>  <ligand_id>  (72) 
71

>  <original_smiles>  (72) 
[H]C([H])=C1C([H])([H])C([H])(Oc2c([H])c([H])c3c(c2[H])C([H])([H])N(C(=O)C([H])(N([H])C(=O)C([H])(N([H])C([H])([H])[H])C([H])([H])[H])C(C([H])([H])[H])(C([H])([H])[H])C([H])([H])[H])C([H])(C(=O)N([H])C2([H])c4c([H])c([H])c([H])c([H])c4C([H])([H])C([H])([H])C2([H])[H])C3([H])[H])C([H])([H])[N+]1([H])C([H])([H])c1c(C([H])([H])[H])c([H])c(N([H])C(=O)N2C([H])([H])C([H])([H])C([H])([H])C([H])(n3nc(-c4c([H])c([H])c(Oc5c([H])c([H])c(F)c([H])c5F)c([H])c4[H])c(C(=O)N([H])[H])c3N([H])[H])C2([H])[H])c(C([H])([H])[H])c1C([H])([H])C([H])([H])[H]

>  <smiles>  (72) 
[H]C([H])=C1C([H])([H])C([H])(Oc2c([H])c([H])c3c(c2[H])C([H])([H])N(C(=O)C([H])(N([H])C(=O)C([H])(N([H])C([H])([H])[H])C([H])([H])[H])C(C([H])([H])[H])(C([H])([H])[H])C([H])([H])[H])C([H])(C(=O)N([H])C2([H])c4c([H])c([H])c([H])c([H])c4C([H])([H])C([H])([H])C2([H])[H])C3([H])[H])C([H])([H])[N+]1([H])C([H])([H])c1c(C([H])([H])[H])c([H])c(N([H])C(=O)N2C([H])([H])C([H])([H])C([H])([H])C([H])(n3nc(-c4c([H])c([H])c(Oc5c([H])c([H])c(F)c([H])c5F)c([H])c4[H])c(C(=O)N([H])[H])c3N([H])[H])C2([H])[H])c(C([H])([H])[H])c1C([H])([H])C([H])([H])[H]

$$$$
72:0:0
     RDKit          3D

 97106  0  0  1  0  0  0  0  0999 V2000
  -27.1690  -23.3700   20.8160 C   0  0  0  0  0  0  0  0  0  0  0  0
  -25.9670  -22.7430   20.8050 C   0  0  0  0  0  0  0  0  0  0  0  0
  -27.3640  -24.8210   21.2930 C   0  0  0  0  0  2  0  0  0  0  0  0
  -29.1240  -24.2040   19.7140 C   0  0  0  0  0  2  0  0  0  0  0  0
  -28.5470  -25.4460   20.5510 C   0  0  0  0  0  3  0  0  0  0  0  0
  -25.6550  -21.4880   20.0100 C   0  0  0  0  0  1  0  0  0  0  0  0
  -24.7400  -23.3170   21.5070 C   0  0  0  0  0  1  0  0  0  0  0  0
  -28.4280  -22.8990   20.1010 N   0  0  1  0  0  4  0  0  0  0  0  0
  -28.1430  -22.4580   19.2400 H   0  0  0  0  0  0  0  0  0  0  0  0
  -28.5270  -26.9150   20.1300 O   0  0  0  0  0  0  0  0  0  0  0  0
  -24.5120  -32.1210   23.2710 C   0  0  0  0  0  0  0  0  0  0  0  0
  -27.3780  -27.7470   20.1170 C   0  0  0  0  0  0  0  0  0  0  0  0
  -23.4190  -30.7550   21.5320 C   0  0  0  0  0  3  0  0  0  0  0  0
  -24.9700  -29.3220   20.0760 C   0  0  0  0  0  0  0  0  0  0  0  0
  -25.9480  -31.1670   21.4390 C   0  0  0  0  0  2  0  0  0  0  0  0
  -26.1000  -29.8140   20.7370 C   0  0  0  0  0  0  0  0  0  0  0  0
  -27.3070  -29.0400   20.7400 C   0  0  0  0  0  3  0  0  0  0  0  0
  -26.2270  -27.3320   19.4140 C   0  0  0  0  0  3  0  0  0  0  0  0
  -25.0380  -28.0930   19.3960 C   0  0  0  0  0  3  0  0  0  0  0  0
  -23.6990  -30.1540   20.1280 C   0  0  0  0  0  2  0  0  0  0  0  0
  -24.6440  -31.3670   22.1370 N   0  0  0  0  0  0  0  0  0  0  0  0
  -23.4020  -32.3240   23.7830 O   0  0  0  0  0  0  0  0  0  0  0  0
  -22.7690  -29.6730   22.4280 C   0  0  0  0  0  0  0  0  0  0  0  0
  -21.4500  -29.4630   22.2710 N   0  0  0  0  0  0  0  0  0  0  0  0
  -23.4530  -29.0280   23.2250 O   0  0  0  0  0  0  0  0  0  0  0  0
  -20.9510  -30.0460   21.6150 H   0  0  0  0  0  0  0  0  0  0  0  0
  -18.0910  -28.1800   22.7630 C   0  0  0  0  0  0  0  0  0  0  0  0
  -20.6590  -28.4410   22.9630 C   0  0  0  0  0  3  0  0  0  0  0  0
  -20.7580  -27.0810   22.2320 C   0  0  0  0  0  2  0  0  0  0  0  0
  -19.5990  -26.8330   21.2560 C   0  0  0  0  0  2  0  0  0  0  0  0
  -18.2550  -26.8870   21.9840 C   0  0  0  0  0  2  0  0  0  0  0  0
  -19.2200  -28.9110   23.2140 C   0  0  0  0  0  0  0  0  0  0  0  0
  -19.0120  -30.1220   23.9140 C   0  0  0  0  0  3  0  0  0  0  0  0
  -17.7100  -30.5990   24.1590 C   0  0  0  0  0  3  0  0  0  0  0  0
  -16.5960  -29.8580   23.7260 C   0  0  0  0  0  3  0  0  0  0  0  0
  -16.7880  -28.6510   23.0310 C   0  0  0  0  0  3  0  0  0  0  0  0
  -25.7480  -32.7760   23.9590 C   0  0  0  0  0  3  0  0  0  0  0  0
  -26.2090  -32.0170   25.2640 C   0  0  1  0  0  0  0  0  0  0  0  0
  -25.0600  -31.7490   26.2610 C   0  0  0  0  0  1  0  0  0  0  0  0
  -26.8540  -30.6570   24.9080 C   0  0  0  0  0  1  0  0  0  0  0  0
  -27.2970  -32.8420   25.9920 C   0  0  0  0  0  1  0  0  0  0  0  0
  -25.3920  -34.1680   24.2730 N   0  0  0  0  0  0  0  0  0  0  0  0
  -25.7130  -35.2270   23.5170 C   0  0  0  0  0  0  0  0  0  0  0  0
  -26.4070  -35.1360   22.5010 O   0  0  0  0  0  0  0  0  0  0  0  0
  -24.7750  -34.3110   25.0590 H   0  0  0  0  0  0  0  0  0  0  0  0
  -23.9490  -36.9780   23.1240 C   0  0  0  0  0  1  0  0  0  0  0  0
  -25.1830  -36.6070   23.9590 C   0  0  0  0  0  3  0  0  0  0  0  0
  -27.2760  -37.5540   24.8280 C   0  0  0  0  0  1  0  0  0  0  0  0
  -26.1920  -37.6860   23.8590 N   0  0  0  0  0  0  0  0  0  0  0  0
  -25.7570  -38.5960   23.9900 H   0  0  0  0  0  0  0  0  0  0  0  0
  -29.2320  -21.7790   20.8170 C   0  0  0  0  0  2  0  0  0  0  0  0
  -31.9610  -19.7670   18.9930 C   0  0  0  0  0  3  0  0  0  0  0  0
  -31.0920  -20.7790   19.4290 C   0  0  0  0  0  3  0  0  0  0  0  0
  -31.7030  -18.4060   19.2550 C   0  0  0  0  0  3  0  0  0  0  0  0
  -29.8970  -20.4850   20.1180 C   0  0  0  0  0  0  0  0  0  0  0  0
  -29.5860  -19.0450   20.2830 C   0  0  0  0  0  0  0  0  0  0  0  0
  -30.5270  -17.9710   19.9090 C   0  0  0  0  0  0  0  0  0  0  0  0
  -31.1070  -15.3680   19.8420 C   0  0  0  0  0  0  0  0  0  0  0  0
  -30.8640  -13.0760   18.8540 C   0  0  0  0  0  2  0  0  0  0  0  0
  -29.8340  -13.1320   17.7010 C   0  0  0  0  0  2  0  0  0  0  0  0
  -28.4070  -12.9290   18.2450 C   0  0  0  0  0  2  0  0  0  0  0  0
  -28.1150  -13.8370   19.4720 C   0  0  0  0  0  3  0  0  0  0  0  0
  -29.2510  -13.7680   20.5130 C   0  0  0  0  0  2  0  0  0  0  0  0
  -30.4940  -14.1300   19.8310 N   0  0  0  0  0  0  0  0  0  0  0  0
  -32.2730  -15.4490   19.4440 O   0  0  0  0  0  0  0  0  0  0  0  0
  -30.3300  -16.4980   20.1470 N   0  0  0  0  0  0  0  0  0  0  0  0
  -29.4350  -16.2550   20.5450 H   0  0  0  0  0  0  0  0  0  0  0  0
  -25.8390  -14.4230   20.4780 C   0  0  0  0  0  0  0  0  0  0  0  0
  -24.7890  -13.6510   20.8960 C   0  0  0  0  0  0  0  0  0  0  0  0
  -25.2070  -12.2960   20.7300 C   0  0  0  0  0  0  0  0  0  0  0  0
  -26.8210  -13.5380   20.0710 N   0  0  0  0  0  0  0  0  0  0  0  0
  -26.4560  -12.2490   20.2830 N   0  0  0  0  0  0  0  0  0  0  0  0
  -24.4630  -11.0420   20.8990 C   0  0  0  0  0  0  0  0  0  0  0  0
  -24.8790  -10.0550   21.8160 C   0  0  0  0  0  3  0  0  0  0  0  0
  -24.1360   -8.8650   21.9730 C   0  0  0  0  0  3  0  0  0  0  0  0
  -22.9630   -8.6560   21.2130 C   0  0  0  0  0  0  0  0  0  0  0  0
  -22.5650   -9.6320   20.2820 C   0  0  0  0  0  3  0  0  0  0  0  0
  -23.3080  -10.8130   20.1250 C   0  0  0  0  0  3  0  0  0  0  0  0
  -22.1930   -7.5210   21.2870 O   0  0  0  0  0  0  0  0  0  0  0  0
  -22.0650   -6.8130   22.4530 C   0  0  0  0  0  0  0  0  0  0  0  0
  -21.5870   -7.4100   23.6400 C   0  0  0  0  0  3  0  0  0  0  0  0
  -21.4060   -6.6290   24.7980 C   0  0  0  0  0  3  0  0  0  0  0  0
  -21.6870   -5.2510   24.7700 C   0  0  0  0  0  0  0  0  0  0  0  0
  -22.1510   -4.6490   23.5880 C   0  0  0  0  0  3  0  0  0  0  0  0
  -22.3390   -5.4290   22.4320 C   0  0  0  0  0  0  0  0  0  0  0  0
  -22.7720   -4.8410   21.2910 F   0  0  0  0  0  0  0  0  0  0  0  0
  -21.5040   -4.4980   25.8810 F   0  0  0  0  0  0  0  0  0  0  0  0
  -23.4370  -14.1450   21.3210 C   0  0  0  0  0  0  0  0  0  0  0  0
  -22.7960  -13.4530   22.2540 N   0  0  0  0  0  0  0  0  0  0  0  0
  -22.9620  -15.1800   20.8600 O   0  0  0  0  0  0  0  0  0  0  0  0
  -23.1870  -12.6110   22.6480 H   0  0  0  0  0  0  0  0  0  0  0  0
  -21.9020  -13.7810   22.5830 H   0  0  0  0  0  0  0  0  0  0  0  0
  -26.0310  -15.7950   20.3810 N   0  0  0  0  0  0  0  0  0  0  0  0
  -25.3170  -16.4550   20.6610 H   0  0  0  0  0  0  0  0  0  0  0  0
  -26.8470  -16.2350   19.9730 H   0  0  0  0  0  0  0  0  0  0  0  0
  -28.2120  -17.5390   21.8800 C   0  0  0  0  0  1  0  0  0  0  0  0
  -28.2130  -18.6340   20.8000 C   0  0  0  0  0  2  0  0  0  0  0  0
  1  3  1  0
  2  1  2  0
  2  7  1  0
  4  8  1  0
  4  5  1  0
  5 10  1  0
  5  3  1  0
  6  2  1  0
  8  1  1  0
  8 51  1  0
  8  9  1  6
 11 22  2  0
 12 10  1  0
 12 17  1  0
 13 21  1  0
 13 23  1  0
 14 20  1  0
 14 16  1  0
 15 21  1  0
 16 17  2  0
 16 15  1  0
 18 12  2  0
 19 18  1  0
 19 14  2  0
 20 13  1  0
 21 11  1  0
 23 25  2  0
 24 23  1  0
 26 24  1  0
 27 36  2  0
 27 32  1  0
 28 24  1  0
 28 32  1  0
 29 28  1  0
 30 31  1  0
 30 29  1  0
 31 27  1  0
 32 33  2  0
 33 34  1  0
 35 34  2  0
 36 35  1  0
 37 11  1  0
 37 42  1  0
 37 38  1  0
 38 41  1  1
 38 39  1  0
 40 38  1  0
 42 45  1  0
 43 47  1  0
 43 42  1  0
 44 43  2  0
 47 46  1  0
 49 47  1  0
 49 50  1  0
 49 48  1  0
 52 54  2  0
 52 53  1  0
 53 55  2  0
 54 57  1  0
 55 56  1  0
 55 51  1  0
 56 97  1  0
 57 66  1  0
 57 56  2  0
 58 66  1  0
 59 64  1  0
 60 61  1  0
 60 59  1  0
 62 61  1  0
 62 71  1  0
 62 63  1  0
 64 58  1  0
 64 63  1  0
 65 58  2  0
 66 67  1  0
 68 69  2  0
 69 88  1  0
 70 69  1  0
 70 73  1  0
 71 72  1  0
 71 68  1  0
 72 70  2  0
 73 74  1  0
 74 75  2  0
 76 79  1  0
 76 75  1  0
 77 76  2  0
 78 77  1  0
 78 73  2  0
 79 80  1  0
 80 81  1  0
 81 82  2  0
 83 82  1  0
 83 87  1  0
 84 83  2  0
 85 80  2  0
 85 84  1  0
 86 85  1  0
 88 89  1  0
 89 92  1  0
 89 91  1  0
 90 88  2  0
 93 68  1  0
 93 94  1  0
 95 93  1  0
 97 96  1  0
M  ISO  4   5 101  10 101  58 100  66 100
M  END
>  <TORSDO>  (73) 
F 19

>  <SCORE>  (73) 
-7.888

>  <name>  (73) 
72

>  <ligand_id>  (73) 
72

>  <original_smiles>  (73) 
[H]c1c([H])c([H])c2c(c1[H])C([H])([H])C([H])([H])C([H])([H])C2([H])N([H])C(=O)C1([H])N(C(=O)C([H])(N([H])C(=O)C([H])(N([H])C([H])([H])[H])C([H])([H])[H])C(C([H])([H])[H])(C([H])([H])[H])C([H])([H])[H])C([H])([H])c2c([H])c(OC3([H])C([H])([H])C(=C(C([H])([H])[H])C([H])([H])[H])[N+]([H])(C([H])([H])c4c([H])c([H])c([H])c(N([H])C(=O)N5C([H])([H])C([H])([H])C([H])([H])C([H])(n6nc(-c7c([H])c([H])c(Oc8c([H])c([H])c(F)c([H])c8F)c([H])c7[H])c(C(=O)N([H])[H])c6N([H])[H])C5([H])[H])c4C([H])([H])C([H])([H])[H])C3([H])[H])c([H])c([H])c2C1([H])[H]

>  <smiles>  (73) 
[H]c1c([H])c([H])c2c(c1[H])C([H])([H])C([H])([H])C([H])([H])C2([H])N([H])C(=O)C1([H])N(C(=O)C([H])(N([H])C(=O)C([H])(N([H])C([H])([H])[H])C([H])([H])[H])C(C([H])([H])[H])(C([H])([H])[H])C([H])([H])[H])C([H])([H])c2c([H])c(OC3([H])C([H])([H])C(=C(C([H])([H])[H])C([H])([H])[H])[N+]([H])(C([H])([H])c4c([H])c([H])c([H])c(N([H])C(=O)N5C([H])([H])C([H])([H])C([H])([H])C([H])(n6nc(-c7c([H])c([H])c(Oc8c([H])c([H])c(F)c([H])c8F)c([H])c7[H])c(C(=O)N([H])[H])c6N([H])[H])C5([H])[H])c4C([H])([H])C([H])([H])[H])C3([H])[H])c([H])c([H])c2C1([H])[H]

$$$$
73:0:0
     RDKit          3D

 96105  0  0  1  0  0  0  0  0999 V2000
  -28.5530  -21.8370   20.0890 C   0  0  0  0  0  2  0  0  0  0  0  0
  -30.3590  -18.5320   19.1330 C   0  0  0  0  0  3  0  0  0  0  0  0
  -29.7390  -20.0070   21.4320 C   0  0  0  0  0  3  0  0  0  0  0  0
  -30.8060  -18.0570   20.3860 C   0  0  0  0  0  0  0  0  0  0  0  0
  -29.3320  -20.5080   20.1750 C   0  0  0  0  0  0  0  0  0  0  0  0
  -30.4700  -18.8010   21.5450 C   0  0  0  0  0  0  0  0  0  0  0  0
  -29.6360  -19.7420   19.0210 C   0  0  0  0  0  0  0  0  0  0  0  0
  -30.9570  -18.2810   23.1200 Cl  0  0  0  0  0  0  0  0  0  0  0  0
  -29.1560  -20.2760   17.4500 Cl  0  0  0  0  0  0  0  0  0  0  0  0
  -31.7120  -16.8190   20.4380 C   0  0  0  0  0  2  0  0  0  0  0  0
  -31.5760  -14.4600   19.5740 C   0  0  0  0  0  0  0  0  0  0  0  0
  -31.1140  -12.1740   18.7510 C   0  0  0  0  0  2  0  0  0  0  0  0
  -30.0910  -12.2250   17.5990 C   0  0  0  0  0  2  0  0  0  0  0  0
  -28.6480  -12.2180   18.1410 C   0  0  0  0  0  2  0  0  0  0  0  0
  -28.4320  -13.2510   19.2790 C   0  0  0  0  0  3  0  0  0  0  0  0
  -29.5540  -13.1530   20.3340 C   0  0  0  0  0  2  0  0  0  0  0  0
  -30.8430  -13.3170   19.6400 N   0  0  0  0  0  0  0  0  0  0  0  0
  -32.6300  -14.5440   18.9360 O   0  0  0  0  0  0  0  0  0  0  0  0
  -31.0540  -15.5240   20.2120 N   0  0  0  0  0  0  0  0  0  0  0  0
  -30.1690  -15.3790   20.6740 H   0  0  0  0  0  0  0  0  0  0  0  0
  -26.2190  -14.1020   20.2790 C   0  0  0  0  0  0  0  0  0  0  0  0
  -25.1000  -13.4480   20.7150 C   0  0  0  0  0  0  0  0  0  0  0  0
  -25.3690  -12.0540   20.5530 C   0  0  0  0  0  0  0  0  0  0  0  0
  -27.1070  -13.1150   19.8830 N   0  0  0  0  0  0  0  0  0  0  0  0
  -26.6040  -11.8730   20.1020 N   0  0  0  0  0  0  0  0  0  0  0  0
  -24.5030  -10.8840   20.7460 C   0  0  0  0  0  0  0  0  0  0  0  0
  -24.8520   -9.8450   21.6360 C   0  0  0  0  0  3  0  0  0  0  0  0
  -23.9950   -8.7400   21.8190 C   0  0  0  0  0  3  0  0  0  0  0  0
  -22.7710   -8.6660   21.1120 C   0  0  0  0  0  0  0  0  0  0  0  0
  -22.4390   -9.6920   20.2100 C   0  0  0  0  0  3  0  0  0  0  0  0
  -23.2960  -10.7890   20.0250 C   0  0  0  0  0  3  0  0  0  0  0  0
  -21.8870   -7.6190   21.2070 O   0  0  0  0  0  0  0  0  0  0  0  0
  -21.7310   -6.9100   22.3720 C   0  0  0  0  0  0  0  0  0  0  0  0
  -21.3460   -7.5370   23.5770 C   0  0  0  0  0  3  0  0  0  0  0  0
  -21.1300   -6.7620   24.7340 C   0  0  0  0  0  3  0  0  0  0  0  0
  -21.2890   -5.3640   24.6860 C   0  0  0  0  0  0  0  0  0  0  0  0
  -21.6660   -4.7380   23.4860 C   0  0  0  0  0  3  0  0  0  0  0  0
  -21.8840   -5.5100   22.3300 C   0  0  0  0  0  0  0  0  0  0  0  0
  -22.2270   -4.9010   21.1700 F   0  0  0  0  0  0  0  0  0  0  0  0
  -21.0730   -4.6180   25.7950 F   0  0  0  0  0  0  0  0  0  0  0  0
  -23.8150  -14.0770   21.1690 C   0  0  0  0  0  0  0  0  0  0  0  0
  -23.1010  -13.4260   22.0830 N   0  0  0  0  0  0  0  0  0  0  0  0
  -23.4570  -15.1770   20.7500 O   0  0  0  0  0  0  0  0  0  0  0  0
  -23.4050  -12.5320   22.4430 H   0  0  0  0  0  0  0  0  0  0  0  0
  -22.2400  -13.8260   22.4270 H   0  0  0  0  0  0  0  0  0  0  0  0
  -26.5480  -15.4500   20.1670 N   0  0  0  0  0  0  0  0  0  0  0  0
  -25.8930  -16.1900   20.3970 H   0  0  0  0  0  0  0  0  0  0  0  0
  -27.4190  -15.7980   19.7830 H   0  0  0  0  0  0  0  0  0  0  0  0
  -30.4170  -24.6500   21.9260 C   0  0  0  0  0  2  0  0  0  0  0  0
  -29.5270  -25.8340   21.5150 C   0  0  0  0  0  2  0  0  0  0  0  0
  -29.7020  -23.3060   21.7360 C   0  0  0  0  0  2  0  0  0  0  0  0
  -28.9550  -24.2790   19.5370 C   0  0  0  0  0  2  0  0  0  0  0  0
  -28.5060  -25.4890   20.4090 C   0  0  0  0  0  3  0  0  0  0  0  0
  -29.3920  -23.0560   20.3030 N   0  0  2  0  0  4  0  0  0  0  0  0
  -30.2780  -22.8220   19.8830 H   0  0  0  0  0  0  0  0  0  0  0  0
  -28.3650  -26.6820   19.6170 O   0  0  0  0  0  0  0  0  0  0  0  0
  -24.5210  -31.6600   23.0020 C   0  0  0  0  0  0  0  0  0  0  0  0
  -27.1780  -27.3690   19.7270 C   0  0  0  0  0  0  0  0  0  0  0  0
  -23.3010  -30.2740   21.3560 C   0  0  0  0  0  3  0  0  0  0  0  0
  -24.7480  -28.8100   19.8500 C   0  0  0  0  0  0  0  0  0  0  0  0
  -25.8080  -30.7050   21.0910 C   0  0  0  0  0  2  0  0  0  0  0  0
  -25.9100  -29.3510   20.4150 C   0  0  0  0  0  0  0  0  0  0  0  0
  -27.1300  -28.6400   20.3470 C   0  0  0  0  0  3  0  0  0  0  0  0
  -25.9990  -26.8370   19.1630 C   0  0  0  0  0  3  0  0  0  0  0  0
  -24.7890  -27.5520   19.2220 C   0  0  0  0  0  3  0  0  0  0  0  0
  -23.4860  -29.6350   19.9530 C   0  0  0  0  0  2  0  0  0  0  0  0
  -24.5640  -30.8940   21.8750 N   0  0  0  0  0  0  0  0  0  0  0  0
  -23.4500  -31.8890   23.5800 O   0  0  0  0  0  0  0  0  0  0  0  0
  -22.7050  -29.2110   22.3070 C   0  0  0  0  0  0  0  0  0  0  0  0
  -21.3800  -29.0040   22.2200 N   0  0  0  0  0  0  0  0  0  0  0  0
  -23.4300  -28.5740   23.0760 O   0  0  0  0  0  0  0  0  0  0  0  0
  -20.8520  -29.5710   21.5700 H   0  0  0  0  0  0  0  0  0  0  0  0
  -18.0560  -27.7020   22.7660 C   0  0  0  0  0  0  0  0  0  0  0  0
  -20.6110  -28.0260   22.9890 C   0  0  0  0  0  3  0  0  0  0  0  0
  -20.7410  -26.6130   22.3750 C   0  0  0  0  0  2  0  0  0  0  0  0
  -19.6250  -26.2810   21.3810 C   0  0  0  0  0  2  0  0  0  0  0  0
  -18.2550  -26.3750   22.0570 C   0  0  0  0  0  2  0  0  0  0  0  0
  -19.1630  -28.4850   23.1900 C   0  0  0  0  0  0  0  0  0  0  0  0
  -18.9220  -29.7280   23.8130 C   0  0  0  0  0  3  0  0  0  0  0  0
  -17.6080  -30.1890   24.0180 C   0  0  0  0  0  3  0  0  0  0  0  0
  -16.5160  -29.4030   23.6120 C   0  0  0  0  0  3  0  0  0  0  0  0
  -16.7420  -28.1610   22.9920 C   0  0  0  0  0  3  0  0  0  0  0  0
  -25.8100  -32.3050   23.6020 C   0  0  0  0  0  3  0  0  0  0  0  0
  -26.4110  -31.4860   24.8090 C   0  0  1  0  0  0  0  0  0  0  0  0
  -25.3770  -31.1570   25.9100 C   0  0  0  0  0  1  0  0  0  0  0  0
  -27.0160  -30.1520   24.3130 C   0  0  0  0  0  1  0  0  0  0  0  0
  -27.5630  -32.2820   25.4620 C   0  0  0  0  0  1  0  0  0  0  0  0
  -25.4670  -33.6710   24.0190 N   0  0  0  0  0  0  0  0  0  0  0  0
  -25.7540  -34.7740   23.3160 C   0  0  0  0  0  0  0  0  0  0  0  0
  -26.4050  -34.7500   22.2680 O   0  0  0  0  0  0  0  0  0  0  0  0
  -24.8880  -33.7630   24.8400 H   0  0  0  0  0  0  0  0  0  0  0  0
  -23.9650  -36.5260   23.1000 C   0  0  0  0  0  1  0  0  0  0  0  0
  -25.2350  -36.1180   23.8630 C   0  0  0  0  0  3  0  0  0  0  0  0
  -27.3600  -37.0200   24.6970 C   0  0  0  0  0  1  0  0  0  0  0  0
  -26.2310  -37.2070   23.7880 N   0  0  0  0  0  0  0  0  0  0  0  0
  -25.8020  -38.1040   23.9970 H   0  0  0  0  0  0  0  0  0  0  0  0
  1  5  1  0
  1 54  1  0
  2  4  1  0
  3  6  1  0
  4 10  1  0
  4  6  2  0
  5  3  2  0
  6  8  1  0
  7  2  2  0
  7  5  1  0
  9  7  1  0
 11 17  1  0
 11 19  1  0
 12 17  1  0
 13 14  1  0
 13 12  1  0
 15 14  1  0
 15 24  1  0
 15 16  1  0
 17 16  1  0
 18 11  2  0
 19 10  1  0
 19 20  1  0
 21 22  2  0
 22 41  1  0
 23 22  1  0
 23 26  1  0
 24 25  1  0
 24 21  1  0
 25 23  2  0
 26 27  1  0
 27 28  2  0
 29 32  1  0
 29 28  1  0
 30 29  2  0
 31 30  1  0
 31 26  2  0
 32 33  1  0
 33 34  1  0
 34 35  2  0
 36 35  1  0
 36 40  1  0
 37 36  2  0
 38 33  2  0
 38 37  1  0
 39 38  1  0
 41 42  1  0
 42 45  1  0
 42 44  1  0
 43 41  2  0
 46 21  1  0
 46 47  1  0
 48 46  1  0
 50 49  1  0
 51 49  1  0
 52 54  1  0
 52 53  1  0
 53 56  1  0
 53 50  1  0
 54 51  1  0
 54 55  1  6
 56 58  1  0
 57 68  2  0
 58 63  1  0
 59 67  1  0
 59 69  1  0
 60 66  1  0
 60 62  1  0
 61 67  1  0
 62 61  1  0
 63 62  2  0
 64 65  1  0
 64 58  2  0
 65 60  2  0
 66 59  1  0
 67 57  1  0
 69 71  2  0
 70 69  1  0
 72 70  1  0
 73 82  2  0
 73 78  1  0
 74 70  1  0
 74 78  1  0
 75 74  1  0
 76 77  1  0
 76 75  1  0
 77 73  1  0
 78 79  2  0
 79 80  1  0
 81 80  2  0
 82 81  1  0
 83 57  1  0
 83 88  1  0
 83 84  1  0
 84 87  1  1
 84 85  1  0
 86 84  1  0
 88 91  1  0
 89 93  1  0
 89 88  1  0
 90 89  2  0
 93 92  1  0
 95 93  1  0
 95 96  1  0
 95 94  1  0
M  ISO  4  11 100  19 100  53 101  56 101
M  END
>  <TORSDO>  (74) 
F 19

>  <SCORE>  (74) 
-12.694

>  <name>  (74) 
73

>  <ligand_id>  (74) 
73

>  <original_smiles>  (74) 
[H]c1c([H])c([H])c2c(c1[H])C([H])([H])C([H])([H])C([H])([H])C2([H])N([H])C(=O)C1([H])N(C(=O)C([H])(N([H])C(=O)C([H])(N([H])C([H])([H])[H])C([H])([H])[H])C(C([H])([H])[H])(C([H])([H])[H])C([H])([H])[H])C([H])([H])c2c([H])c(OC3([H])C([H])([H])C([H])([H])C([H])([H])[N+]([H])(C([H])([H])c4c([H])c(Cl)c(C([H])([H])N([H])C(=O)N5C([H])([H])C([H])([H])C([H])([H])C([H])(n6nc(-c7c([H])c([H])c(Oc8c([H])c([H])c(F)c([H])c8F)c([H])c7[H])c(C(=O)N([H])[H])c6N([H])[H])C5([H])[H])c([H])c4Cl)C3([H])[H])c([H])c([H])c2C1([H])[H]

>  <smiles>  (74) 
[H]c1c([H])c([H])c2c(c1[H])C([H])([H])C([H])([H])C([H])([H])C2([H])N([H])C(=O)C1([H])N(C(=O)C([H])(N([H])C(=O)C([H])(N([H])C([H])([H])[H])C([H])([H])[H])C(C([H])([H])[H])(C([H])([H])[H])C([H])([H])[H])C([H])([H])c2c([H])c(OC3([H])C([H])([H])C([H])([H])C([H])([H])[N+]([H])(C([H])([H])c4c([H])c(Cl)c(C([H])([H])N([H])C(=O)N5C([H])([H])C([H])([H])C([H])([H])C([H])(n6nc(-c7c([H])c([H])c(Oc8c([H])c([H])c(F)c([H])c8F)c([H])c7[H])c(C(=O)N([H])[H])c6N([H])[H])C5([H])[H])c([H])c4Cl)C3([H])[H])c([H])c([H])c2C1([H])[H]

$$$$
74:0:0
     RDKit          3D

 95104  0  0  1  0  0  0  0  0999 V2000
  -28.0760  -22.1770   18.5350 C   0  0  0  0  0  0  0  0  0  0  0  0
  -27.1010  -23.3230   18.2380 C   0  0  0  0  0  2  0  0  0  0  0  0
  -27.7640  -24.7010   18.3070 C   0  0  0  0  0  2  0  0  0  0  0  0
  -29.4100  -23.7830   19.9320 C   0  0  0  0  0  2  0  0  0  0  0  0
  -28.2650  -24.9190   19.7360 C   0  0  0  0  0  3  0  0  0  0  0  0
  -29.1820  -22.3980   19.2920 N   0  0  0  0  0  0  0  0  0  0  0  0
  -27.8350  -21.0870   18.0060 O   0  0  0  0  0  0  0  0  0  0  0  0
  -28.4390  -26.4000   19.9640 O   0  0  0  0  0  0  0  0  0  0  0  0
  -24.5720  -31.7280   23.0490 C   0  0  0  0  0  0  0  0  0  0  0  0
  -27.3000  -27.2530   19.9330 C   0  0  0  0  0  0  0  0  0  0  0  0
  -23.4080  -30.3070   21.4080 C   0  0  0  0  0  3  0  0  0  0  0  0
  -24.8950  -28.8410   19.9450 C   0  0  0  0  0  0  0  0  0  0  0  0
  -25.9380  -30.7130   21.2020 C   0  0  0  0  0  2  0  0  0  0  0  0
  -26.0620  -29.3460   20.5320 C   0  0  0  0  0  0  0  0  0  0  0  0
  -27.2680  -28.5710   20.5050 C   0  0  0  0  0  3  0  0  0  0  0  0
  -26.0810  -26.8090   19.3560 C   0  0  0  0  0  3  0  0  0  0  0  0
  -24.9110  -27.5820   19.3420 C   0  0  0  0  0  3  0  0  0  0  0  0
  -23.6320  -29.6740   20.0150 C   0  0  0  0  0  2  0  0  0  0  0  0
  -24.6600  -30.9320   21.9420 N   0  0  0  0  0  0  0  0  0  0  0  0
  -23.4820  -31.9580   23.5930 O   0  0  0  0  0  0  0  0  0  0  0  0
  -22.7970  -29.2450   22.3570 C   0  0  0  0  0  0  0  0  0  0  0  0
  -21.4780  -29.0150   22.2420 N   0  0  0  0  0  0  0  0  0  0  0  0
  -23.5090  -28.6370   23.1600 O   0  0  0  0  0  0  0  0  0  0  0  0
  -20.9600  -29.5570   21.5640 H   0  0  0  0  0  0  0  0  0  0  0  0
  -18.1580  -27.6630   22.7420 C   0  0  0  0  0  0  0  0  0  0  0  0
  -20.7030  -28.0400   23.0130 C   0  0  0  0  0  3  0  0  0  0  0  0
  -20.8690  -26.6160   22.4320 C   0  0  0  0  0  2  0  0  0  0  0  0
  -19.7820  -26.2460   21.4200 C   0  0  0  0  0  2  0  0  0  0  0  0
  -18.3960  -26.3270   22.0640 C   0  0  0  0  0  2  0  0  0  0  0  0
  -19.2410  -28.4760   23.1730 C   0  0  0  0  0  0  0  0  0  0  0  0
  -18.9620  -29.7260   23.7670 C   0  0  0  0  0  3  0  0  0  0  0  0
  -17.6340  -30.1630   23.9370 C   0  0  0  0  0  3  0  0  0  0  0  0
  -16.5670  -29.3480   23.5230 C   0  0  0  0  0  3  0  0  0  0  0  0
  -16.8310  -28.1000   22.9300 C   0  0  0  0  0  3  0  0  0  0  0  0
  -25.8320  -32.4070   23.6640 C   0  0  0  0  0  3  0  0  0  0  0  0
  -25.4600  -33.7770   24.0430 N   0  0  0  0  0  0  0  0  0  0  0  0
  -25.7250  -34.8670   23.3130 C   0  0  0  0  0  0  0  0  0  0  0  0
  -26.3800  -34.8310   22.2680 O   0  0  0  0  0  0  0  0  0  0  0  0
  -24.8750  -33.8780   24.8600 H   0  0  0  0  0  0  0  0  0  0  0  0
  -23.8990  -36.5770   23.0510 C   0  0  0  0  0  1  0  0  0  0  0  0
  -25.1790  -36.2160   23.8210 C   0  0  0  0  0  3  0  0  0  0  0  0
  -27.2860  -37.1790   24.6330 C   0  0  0  0  0  1  0  0  0  0  0  0
  -26.1550  -37.3230   23.7200 N   0  0  0  0  0  0  0  0  0  0  0  0
  -25.7060  -38.2140   23.9140 H   0  0  0  0  0  0  0  0  0  0  0  0
  -26.4100  -31.6290   24.9090 C   0  0  1  0  0  0  0  0  0  0  0  0
  -25.3520  -31.3110   25.9920 C   0  0  0  0  0  1  0  0  0  0  0  0
  -27.0470  -30.2920   24.4670 C   0  0  0  0  0  1  0  0  0  0  0  0
  -27.5380  -32.4570   25.5680 C   0  0  0  0  0  1  0  0  0  0  0  0
  -30.2980  -21.3570   19.1190 C   0  0  0  0  0  2  0  0  0  0  0  0
  -30.3830  -20.0760   21.3110 C   0  0  0  0  0  3  0  0  0  0  0  0
  -30.5870  -18.9420   22.1170 C   0  0  0  0  0  3  0  0  0  0  0  0
  -30.3520  -19.9740   19.9110 C   0  0  0  0  0  0  0  0  0  0  0  0
  -30.6940  -17.4400   20.1660 C   0  0  0  0  0  0  0  0  0  0  0  0
  -30.7400  -17.6540   21.5680 C   0  0  0  0  0  0  0  0  0  0  0  0
  -30.4980  -18.6310   19.3440 C   0  0  0  0  0  0  0  0  0  0  0  0
  -30.9260  -16.3380   22.6730 Cl  0  0  0  0  0  0  0  0  0  0  0  0
  -30.4220  -18.4280   17.6300 Cl  0  0  0  0  0  0  0  0  0  0  0  0
  -31.3940  -14.9140   19.8150 C   0  0  0  0  0  0  0  0  0  0  0  0
  -31.0860  -12.6010   18.9150 C   0  0  0  0  0  2  0  0  0  0  0  0
  -30.1010  -12.6650   17.7260 C   0  0  0  0  0  2  0  0  0  0  0  0
  -28.6380  -12.5910   18.2160 C   0  0  0  0  0  2  0  0  0  0  0  0
  -28.3510  -13.5530   19.3980 C   0  0  0  0  0  3  0  0  0  0  0  0
  -29.4450  -13.4380   20.4800 C   0  0  0  0  0  2  0  0  0  0  0  0
  -30.7340  -13.7080   19.8270 N   0  0  0  0  0  0  0  0  0  0  0  0
  -32.5980  -14.9700   19.5550 O   0  0  0  0  0  0  0  0  0  0  0  0
  -30.5820  -16.0290   19.7230 N   0  0  0  0  0  0  0  0  0  0  0  0
  -29.6210  -15.7350   19.6860 H   0  0  0  0  0  0  0  0  0  0  0  0
  -26.0570  -14.3360   20.2500 C   0  0  0  0  0  0  0  0  0  0  0  0
  -24.9440  -13.6480   20.6490 C   0  0  0  0  0  0  0  0  0  0  0  0
  -25.2870  -12.2620   20.5690 C   0  0  0  0  0  0  0  0  0  0  0  0
  -27.0100  -13.3740   19.9470 N   0  0  0  0  0  0  0  0  0  0  0  0
  -26.5550  -12.1220   20.2030 N   0  0  0  0  0  0  0  0  0  0  0  0
  -24.4630  -11.0620   20.7620 C   0  0  0  0  0  0  0  0  0  0  0  0
  -24.8310  -10.0550   21.6800 C   0  0  0  0  0  3  0  0  0  0  0  0
  -24.0140   -8.9180   21.8620 C   0  0  0  0  0  3  0  0  0  0  0  0
  -22.8140   -8.7820   21.1260 C   0  0  0  0  0  0  0  0  0  0  0  0
  -22.4640   -9.7770   20.1980 C   0  0  0  0  0  3  0  0  0  0  0  0
  -23.2800  -10.9050   20.0130 C   0  0  0  0  0  3  0  0  0  0  0  0
  -21.9700   -7.7010   21.2200 O   0  0  0  0  0  0  0  0  0  0  0  0
  -21.8520   -6.9770   22.3790 C   0  0  0  0  0  0  0  0  0  0  0  0
  -21.4900   -7.5820   23.6020 C   0  0  0  0  0  3  0  0  0  0  0  0
  -21.3150   -6.7900   24.7540 C   0  0  0  0  0  3  0  0  0  0  0  0
  -21.4890   -5.3960   24.6840 C   0  0  0  0  0  0  0  0  0  0  0  0
  -21.8430   -4.7900   23.4650 C   0  0  0  0  0  3  0  0  0  0  0  0
  -22.0210   -5.5800   22.3150 C   0  0  0  0  0  0  0  0  0  0  0  0
  -22.3420   -4.9890   21.1390 F   0  0  0  0  0  0  0  0  0  0  0  0
  -21.3120   -4.6340   25.7890 F   0  0  0  0  0  0  0  0  0  0  0  0
  -23.6030  -14.2330   20.9870 C   0  0  0  0  0  0  0  0  0  0  0  0
  -22.8650  -13.5980   21.8870 N   0  0  0  0  0  0  0  0  0  0  0  0
  -23.2250  -15.2930   20.4850 O   0  0  0  0  0  0  0  0  0  0  0  0
  -23.1850  -12.7430   22.3190 H   0  0  0  0  0  0  0  0  0  0  0  0
  -21.9640  -13.9720   22.1510 H   0  0  0  0  0  0  0  0  0  0  0  0
  -26.3320  -15.6920   20.0920 N   0  0  0  0  0  0  0  0  0  0  0  0
  -25.6300  -16.4050   20.2600 H   0  0  0  0  0  0  0  0  0  0  0  0
  -27.1950  -16.0720   19.7320 H   0  0  0  0  0  0  0  0  0  0  0  0
  1  6  1  0
  2  3  1  0
  2  1  1  0
  3  5  1  0
  5  4  1  0
  5  8  1  0
  6  4  1  0
  7  1  2  0
  9 20  2  0
 10  8  1  0
 10 15  1  0
 11 19  1  0
 11 21  1  0
 12 18  1  0
 12 14  1  0
 13 19  1  0
 14 13  1  0
 15 14  2  0
 16 10  2  0
 17 16  1  0
 17 12  2  0
 18 11  1  0
 19  9  1  0
 21 23  2  0
 22 21  1  0
 24 22  1  0
 25 34  2  0
 25 30  1  0
 26 22  1  0
 26 30  1  0
 27 26  1  0
 28 29  1  0
 28 27  1  0
 29 25  1  0
 30 31  2  0
 31 32  1  0
 33 32  2  0
 34 33  1  0
 35  9  1  0
 35 36  1  0
 35 45  1  0
 36 39  1  0
 37 41  1  0
 37 36  1  0
 38 37  2  0
 41 40  1  0
 43 41  1  0
 43 44  1  0
 43 42  1  0
 45 48  1  1
 45 46  1  0
 47 45  1  0
 49  6  1  0
 49 52  1  0
 50 51  1  0
 52 50  2  0
 53 54  1  0
 54 51  2  0
 54 56  1  0
 55 52  1  0
 55 53  2  0
 57 55  1  0
 58 64  1  0
 59 64  1  0
 60 61  1  0
 60 59  1  0
 62 61  1  0
 62 71  1  0
 62 63  1  0
 64 63  1  0
 65 58  2  0
 66 58  1  0
 66 53  1  0
 67 66  1  0
 68 69  2  0
 69 88  1  0
 70 69  1  0
 70 73  1  0
 71 72  1  0
 71 68  1  0
 72 70  2  0
 73 74  1  0
 74 75  2  0
 76 79  1  0
 76 75  1  0
 77 76  2  0
 78 77  1  0
 78 73  2  0
 79 80  1  0
 80 81  1  0
 81 82  2  0
 83 82  1  0
 83 87  1  0
 84 83  2  0
 85 80  2  0
 85 84  1  0
 86 85  1  0
 88 89  1  0
 89 92  1  0
 89 91  1  0
 90 88  2  0
 93 68  1  0
 93 94  1  0
 95 93  1  0
M  ISO  4   5 101   8 101  58 100  66 100
M  END
>  <TORSDO>  (75) 
F 18

>  <SCORE>  (75) 
-13.487

>  <name>  (75) 
74

>  <ligand_id>  (75) 
74

>  <original_smiles>  (75) 
[H]c1c([H])c([H])c2c(c1[H])C([H])([H])C([H])([H])C([H])([H])C2([H])N([H])C(=O)C1([H])N(C(=O)C([H])(N([H])C(=O)C([H])(N([H])C([H])([H])[H])C([H])([H])[H])C(C([H])([H])[H])(C([H])([H])[H])C([H])([H])[H])C([H])([H])c2c([H])c(OC3([H])C([H])([H])N(C([H])([H])c4c([H])c([H])c(Cl)c(N([H])C(=O)N5C([H])([H])C([H])([H])C([H])([H])C([H])(n6nc(-c7c([H])c([H])c(Oc8c([H])c([H])c(F)c([H])c8F)c([H])c7[H])c(C(=O)N([H])[H])c6N([H])[H])C5([H])[H])c4Cl)C(=O)C([H])([H])C3([H])[H])c([H])c([H])c2C1([H])[H]

>  <smiles>  (75) 
[H]c1c([H])c([H])c2c(c1[H])C([H])([H])C([H])([H])C([H])([H])C2([H])N([H])C(=O)C1([H])N(C(=O)C([H])(N([H])C(=O)C([H])(N([H])C([H])([H])[H])C([H])([H])[H])C(C([H])([H])[H])(C([H])([H])[H])C([H])([H])[H])C([H])([H])c2c([H])c(OC3([H])C([H])([H])N(C([H])([H])c4c([H])c([H])c(Cl)c(N([H])C(=O)N5C([H])([H])C([H])([H])C([H])([H])C([H])(n6nc(-c7c([H])c([H])c(Oc8c([H])c([H])c(F)c([H])c8F)c([H])c7[H])c(C(=O)N([H])[H])c6N([H])[H])C5([H])[H])c4Cl)C(=O)C([H])([H])C3([H])[H])c([H])c([H])c2C1([H])[H]

$$$$
75:0:0
     RDKit          3D

 95104  0  0  1  0  0  0  0  0999 V2000
  -29.3810  -23.1820   21.1770 C   0  0  0  0  0  0  0  0  0  0  0  0
  -29.7430  -22.3250   22.1460 C   0  0  0  0  0  2  0  0  0  0  0  0
  -28.8850  -24.6200   21.4020 C   0  0  0  0  0  2  0  0  0  0  0  0
  -29.0440  -24.2290   19.0630 C   0  0  0  0  0  2  0  0  0  0  0  0
  -29.2260  -25.3630   20.1170 C   0  0  0  0  0  3  0  0  0  0  0  0
  -29.6410  -22.9830   19.7010 N   0  0  2  0  0  4  0  0  0  0  0  0
  -30.6370  -23.0850   19.5740 H   0  0  0  0  0  0  0  0  0  0  0  0
  -28.8910  -26.7980   20.0190 O   0  0  0  0  0  0  0  0  0  0  0  0
  -24.6760  -31.7370   23.1310 C   0  0  0  0  0  0  0  0  0  0  0  0
  -27.6400  -27.4100   20.0880 C   0  0  0  0  0  0  0  0  0  0  0  0
  -23.5960  -30.3100   21.4200 C   0  0  0  0  0  3  0  0  0  0  0  0
  -25.1700  -28.8400   20.0400 C   0  0  0  0  0  0  0  0  0  0  0  0
  -26.1130  -30.7740   21.3180 C   0  0  0  0  0  2  0  0  0  0  0  0
  -26.2830  -29.4050   20.6710 C   0  0  0  0  0  0  0  0  0  0  0  0
  -27.5190  -28.7000   20.6810 C   0  0  0  0  0  3  0  0  0  0  0  0
  -26.4990  -26.8660   19.4600 C   0  0  0  0  0  3  0  0  0  0  0  0
  -25.2740  -27.5740   19.4350 C   0  0  0  0  0  3  0  0  0  0  0  0
  -23.8940  -29.6600   20.0420 C   0  0  0  0  0  2  0  0  0  0  0  0
  -24.8110  -30.9590   22.0160 N   0  0  0  0  0  0  0  0  0  0  0  0
  -23.5620  -31.9410   23.6400 O   0  0  0  0  0  0  0  0  0  0  0  0
  -22.9610  -29.2460   22.3470 C   0  0  0  0  0  0  0  0  0  0  0  0
  -21.6430  -29.0290   22.2010 N   0  0  0  0  0  0  0  0  0  0  0  0
  -23.6530  -28.6180   23.1530 O   0  0  0  0  0  0  0  0  0  0  0  0
  -21.1380  -29.5990   21.5360 H   0  0  0  0  0  0  0  0  0  0  0  0
  -18.3000  -27.7380   22.6650 C   0  0  0  0  0  0  0  0  0  0  0  0
  -20.8520  -28.0380   22.9350 C   0  0  0  0  0  3  0  0  0  0  0  0
  -20.9810  -26.6320   22.3000 C   0  0  0  0  0  2  0  0  0  0  0  0
  -19.8830  -26.3290   21.2760 C   0  0  0  0  0  2  0  0  0  0  0  0
  -18.5010  -26.4230   21.9290 C   0  0  0  0  0  2  0  0  0  0  0  0
  -19.4050  -28.5010   23.1250 C   0  0  0  0  0  0  0  0  0  0  0  0
  -19.1620  -29.7340   23.7680 C   0  0  0  0  0  3  0  0  0  0  0  0
  -17.8490  -30.2010   23.9610 C   0  0  0  0  0  3  0  0  0  0  0  0
  -16.7600  -29.4340   23.5160 C   0  0  0  0  0  3  0  0  0  0  0  0
  -16.9840  -28.2040   22.8700 C   0  0  0  0  0  3  0  0  0  0  0  0
  -25.9030  -32.4230   23.8050 C   0  0  0  0  0  3  0  0  0  0  0  0
  -25.5190  -33.8020   24.1370 N   0  0  0  0  0  0  0  0  0  0  0  0
  -25.8300  -34.8770   23.4000 C   0  0  0  0  0  0  0  0  0  0  0  0
  -26.5400  -34.8140   22.3920 O   0  0  0  0  0  0  0  0  0  0  0  0
  -24.8920  -33.9200   24.9200 H   0  0  0  0  0  0  0  0  0  0  0  0
  -24.0350  -36.5900   23.0110 C   0  0  0  0  0  1  0  0  0  0  0  0
  -25.2680  -36.2360   23.8570 C   0  0  0  0  0  3  0  0  0  0  0  0
  -27.3350  -37.2070   24.7570 C   0  0  0  0  0  1  0  0  0  0  0  0
  -26.2540  -37.3330   23.7850 N   0  0  0  0  0  0  0  0  0  0  0  0
  -25.8010  -38.2300   23.9300 H   0  0  0  0  0  0  0  0  0  0  0  0
  -26.4090  -31.6660   25.0940 C   0  0  1  0  0  0  0  0  0  0  0  0
  -25.2910  -31.3610   26.1180 C   0  0  0  0  0  1  0  0  0  0  0  0
  -27.0840  -30.3280   24.7080 C   0  0  0  0  0  1  0  0  0  0  0  0
  -27.4840  -32.5140   25.8130 C   0  0  0  0  0  1  0  0  0  0  0  0
  -29.3290  -21.6630   18.9780 C   0  0  0  0  0  2  0  0  0  0  0  0
  -30.6470  -19.4270   18.4550 C   0  0  0  0  0  3  0  0  0  0  0  0
  -30.9400  -18.0390   18.6620 C   0  0  0  0  0  3  0  0  0  0  0  0
  -29.8960  -20.2200   19.3790 C   0  0  0  0  0  0  0  0  0  0  0  0
  -29.4670  -19.5250   20.5550 C   0  0  0  0  0  0  0  0  0  0  0  0
  -29.7710  -18.1310   20.7700 C   0  0  0  0  0  0  0  0  0  0  0  0
  -30.4880  -17.3430   19.8160 C   0  0  0  0  0  0  0  0  0  0  0  0
  -28.5550  -20.2530   21.5470 C   0  0  0  0  0  1  0  0  0  0  0  0
  -29.2540  -17.4470   22.0370 C   0  0  0  0  0  1  0  0  0  0  0  0
  -31.3070  -14.8380   19.5380 C   0  0  0  0  0  0  0  0  0  0  0  0
  -30.9650  -12.5760   18.5600 C   0  0  0  0  0  2  0  0  0  0  0  0
  -29.9060  -12.6990   17.4390 C   0  0  0  0  0  2  0  0  0  0  0  0
  -28.4770  -12.6020   18.0070 C   0  0  0  0  0  2  0  0  0  0  0  0
  -28.2650  -13.5070   19.2490 C   0  0  0  0  0  3  0  0  0  0  0  0
  -29.4140  -13.3250   20.2670 C   0  0  0  0  0  2  0  0  0  0  0  0
  -30.6790  -13.6170   19.5660 N   0  0  0  0  0  0  0  0  0  0  0  0
  -32.4220  -14.9770   19.0250 O   0  0  0  0  0  0  0  0  0  0  0  0
  -30.5610  -15.8850   20.0160 N   0  0  0  0  0  0  0  0  0  0  0  0
  -29.7890  -15.5400   20.5660 H   0  0  0  0  0  0  0  0  0  0  0  0
  -25.9980  -14.2360   20.2150 C   0  0  0  0  0  0  0  0  0  0  0  0
  -24.9200  -13.5200   20.6650 C   0  0  0  0  0  0  0  0  0  0  0  0
  -25.2840  -12.1450   20.5480 C   0  0  0  0  0  0  0  0  0  0  0  0
  -26.9520  -13.2990   19.8560 N   0  0  0  0  0  0  0  0  0  0  0  0
  -26.5330  -12.0330   20.1150 N   0  0  0  0  0  0  0  0  0  0  0  0
  -24.4930  -10.9250   20.7640 C   0  0  0  0  0  0  0  0  0  0  0  0
  -24.8820   -9.9530   21.7120 C   0  0  0  0  0  3  0  0  0  0  0  0
  -24.0950   -8.7990   21.9150 C   0  0  0  0  0  3  0  0  0  0  0  0
  -22.9070   -8.6080   21.1710 C   0  0  0  0  0  0  0  0  0  0  0  0
  -22.5360   -9.5690   20.2140 C   0  0  0  0  0  3  0  0  0  0  0  0
  -23.3230  -10.7150   20.0090 C   0  0  0  0  0  3  0  0  0  0  0  0
  -22.0940   -7.5060   21.2830 O   0  0  0  0  0  0  0  0  0  0  0  0
  -21.9220   -6.8570   22.4790 C   0  0  0  0  0  0  0  0  0  0  0  0
  -21.4770   -7.5340   23.6350 C   0  0  0  0  0  3  0  0  0  0  0  0
  -21.2470   -6.8170   24.8260 C   0  0  0  0  0  3  0  0  0  0  0  0
  -21.4530   -5.4240   24.8620 C   0  0  0  0  0  0  0  0  0  0  0  0
  -21.8920   -4.7470   23.7100 C   0  0  0  0  0  3  0  0  0  0  0  0
  -22.1230   -5.4620   22.5210 C   0  0  0  0  0  0  0  0  0  0  0  0
  -22.5250   -4.8020   21.4080 F   0  0  0  0  0  0  0  0  0  0  0  0
  -21.2250   -4.7330   26.0030 F   0  0  0  0  0  0  0  0  0  0  0  0
  -23.5910  -14.0770   21.0870 C   0  0  0  0  0  0  0  0  0  0  0  0
  -22.9270  -13.4290   22.0370 N   0  0  0  0  0  0  0  0  0  0  0  0
  -23.1540  -15.1220   20.6060 O   0  0  0  0  0  0  0  0  0  0  0  0
  -23.2950  -12.5820   22.4460 H   0  0  0  0  0  0  0  0  0  0  0  0
  -22.0390  -13.7830   22.3600 H   0  0  0  0  0  0  0  0  0  0  0  0
  -26.2380  -15.5970   20.0560 N   0  0  0  0  0  0  0  0  0  0  0  0
  -25.5220  -16.2930   20.2290 H   0  0  0  0  0  0  0  0  0  0  0  0
  -27.0560  -15.9750   19.5950 H   0  0  0  0  0  0  0  0  0  0  0  0
  1  3  1  0
  1  2  2  0
  4  6  1  0
  4  5  1  0
  5  8  1  0
  5  3  1  0
  6  1  1  0
  6  7  1  1
  8 10  1  0
  9 20  2  0
 10 15  1  0
 11 19  1  0
 11 21  1  0
 12 18  1  0
 12 14  1  0
 13 19  1  0
 14 15  2  0
 14 13  1  0
 16 10  2  0
 17 16  1  0
 17 12  2  0
 18 11  1  0
 19  9  1  0
 21 23  2  0
 22 21  1  0
 24 22  1  0
 25 34  2  0
 25 30  1  0
 26 22  1  0
 26 30  1  0
 27 26  1  0
 28 29  1  0
 28 27  1  0
 29 25  1  0
 30 31  2  0
 31 32  1  0
 33 32  2  0
 34 33  1  0
 35  9  1  0
 35 36  1  0
 35 45  1  0
 36 39  1  0
 37 41  1  0
 37 36  1  0
 38 37  2  0
 41 40  1  0
 43 41  1  0
 43 44  1  0
 43 42  1  0
 45 48  1  1
 45 46  1  0
 47 45  1  0
 49 52  1  0
 49  6  1  0
 50 51  2  0
 50 52  1  0
 51 55  1  0
 52 53  2  0
 53 54  1  0
 53 56  1  0
 54 57  1  0
 55 66  1  0
 55 54  2  0
 58 64  1  0
 58 66  1  0
 59 64  1  0
 60 61  1  0
 60 59  1  0
 62 61  1  0
 62 71  1  0
 62 63  1  0
 64 63  1  0
 65 58  2  0
 66 67  1  0
 68 69  2  0
 69 88  1  0
 70 69  1  0
 70 73  1  0
 71 72  1  0
 71 68  1  0
 72 70  2  0
 73 74  1  0
 74 75  2  0
 76 79  1  0
 76 75  1  0
 77 76  2  0
 78 77  1  0
 78 73  2  0
 79 80  1  0
 80 85  2  0
 80 81  1  0
 81 82  2  0
 82 83  1  0
 83 87  1  0
 84 83  2  0
 85 84  1  0
 86 85  1  0
 88 89  1  0
 89 92  1  0
 89 91  1  0
 90 88  2  0
 93 68  1  0
 93 94  1  0
 95 93  1  0
M  ISO  4   5 101   8 101  58 100  66 100
M  END
>  <TORSDO>  (76) 
F 18

>  <SCORE>  (76) 
-11.598

>  <name>  (76) 
75

>  <ligand_id>  (76) 
75

>  <original_smiles>  (76) 
[H]C([H])=C1C([H])([H])C([H])(Oc2c([H])c([H])c3c(c2[H])C([H])([H])N(C(=O)C([H])(N([H])C(=O)C([H])(N([H])C([H])([H])[H])C([H])([H])[H])C(C([H])([H])[H])(C([H])([H])[H])C([H])([H])[H])C([H])(C(=O)N([H])C2([H])c4c([H])c([H])c([H])c([H])c4C([H])([H])C([H])([H])C2([H])[H])C3([H])[H])C([H])([H])[N+]1([H])C([H])([H])c1c([H])c([H])c(N([H])C(=O)N2C([H])([H])C([H])([H])C([H])([H])C([H])(n3nc(-c4c([H])c([H])c(Oc5c([H])c([H])c(F)c([H])c5F)c([H])c4[H])c(C(=O)N([H])[H])c3N([H])[H])C2([H])[H])c(C([H])([H])[H])c1C([H])([H])[H]

>  <smiles>  (76) 
[H]C([H])=C1C([H])([H])C([H])(Oc2c([H])c([H])c3c(c2[H])C([H])([H])N(C(=O)C([H])(N([H])C(=O)C([H])(N([H])C([H])([H])[H])C([H])([H])[H])C(C([H])([H])[H])(C([H])([H])[H])C([H])([H])[H])C([H])(C(=O)N([H])C2([H])c4c([H])c([H])c([H])c([H])c4C([H])([H])C([H])([H])C2([H])[H])C3([H])[H])C([H])([H])[N+]1([H])C([H])([H])c1c([H])c([H])c(N([H])C(=O)N2C([H])([H])C([H])([H])C([H])([H])C([H])(n3nc(-c4c([H])c([H])c(Oc5c([H])c([H])c(F)c([H])c5F)c([H])c4[H])c(C(=O)N([H])[H])c3N([H])[H])C2([H])[H])c(C([H])([H])[H])c1C([H])([H])[H]

$$$$
76:0:0
     RDKit          3D

 96105  0  0  1  0  0  0  0  0999 V2000
  -30.6720  -22.3470   20.2650 C   0  0  0  0  0  2  0  0  0  0  0  0
  -28.2790  -19.4370   21.1420 C   0  0  0  0  0  3  0  0  0  0  0  0
  -29.0400  -18.3090   20.7890 C   0  0  0  0  0  3  0  0  0  0  0  0
  -28.7900  -20.7400   20.9570 C   0  0  0  0  0  0  0  0  0  0  0  0
  -30.3210  -18.4620   20.2230 C   0  0  0  0  0  0  0  0  0  0  0  0
  -30.0710  -20.9260   20.3720 C   0  0  0  0  0  0  0  0  0  0  0  0
  -30.8200  -19.7760   19.9890 C   0  0  0  0  0  0  0  0  0  0  0  0
  -27.9600  -21.9200   21.4370 C   0  0  0  0  0  1  0  0  0  0  0  0
  -32.3840  -19.9660   19.2670 Cl  0  0  0  0  0  0  0  0  0  0  0  0
  -31.2030  -17.2420   19.9210 C   0  0  0  0  0  2  0  0  0  0  0  0
  -31.3920  -14.7900   19.9410 C   0  0  0  0  0  0  0  0  0  0  0  0
  -31.0100  -12.5920   18.9150 C   0  0  0  0  0  2  0  0  0  0  0  0
  -30.0420  -12.7680   17.7290 C   0  0  0  0  0  2  0  0  0  0  0  0
  -28.5800  -12.6690   18.2060 C   0  0  0  0  0  2  0  0  0  0  0  0
  -28.2880  -13.5590   19.4440 C   0  0  0  0  0  3  0  0  0  0  0  0
  -29.3750  -13.3900   20.5300 C   0  0  0  0  0  2  0  0  0  0  0  0
  -30.6840  -13.6300   19.9050 N   0  0  0  0  0  0  0  0  0  0  0  0
  -32.5280  -14.8880   19.4740 O   0  0  0  0  0  0  0  0  0  0  0  0
  -30.7170  -15.8990   20.3000 N   0  0  0  0  0  0  0  0  0  0  0  0
  -29.7730  -15.8060   20.6350 H   0  0  0  0  0  0  0  0  0  0  0  0
  -25.9280  -14.2150   20.2290 C   0  0  0  0  0  0  0  0  0  0  0  0
  -24.8560  -13.4660   20.6280 C   0  0  0  0  0  0  0  0  0  0  0  0
  -25.2830  -12.1040   20.5820 C   0  0  0  0  0  0  0  0  0  0  0  0
  -26.9470  -13.3130   19.9670 N   0  0  0  0  0  0  0  0  0  0  0  0
  -26.5630  -12.0380   20.2350 N   0  0  0  0  0  0  0  0  0  0  0  0
  -24.5320  -10.8590   20.7930 C   0  0  0  0  0  0  0  0  0  0  0  0
  -24.8870   -9.9450   21.8100 C   0  0  0  0  0  3  0  0  0  0  0  0
  -24.1390   -8.7650   22.0030 C   0  0  0  0  0  3  0  0  0  0  0  0
  -23.0200   -8.4900   21.1810 C   0  0  0  0  0  0  0  0  0  0  0  0
  -22.6840   -9.3930   20.1570 C   0  0  0  0  0  3  0  0  0  0  0  0
  -23.4330  -10.5650   19.9630 C   0  0  0  0  0  3  0  0  0  0  0  0
  -22.2490   -7.3570   21.2820 O   0  0  0  0  0  0  0  0  0  0  0  0
  -21.9850   -6.7720   22.4940 C   0  0  0  0  0  0  0  0  0  0  0  0
  -21.3550   -7.4760   23.5430 C   0  0  0  0  0  3  0  0  0  0  0  0
  -21.0400   -6.8130   24.7470 C   0  0  0  0  0  3  0  0  0  0  0  0
  -21.3500   -5.4470   24.9010 C   0  0  0  0  0  0  0  0  0  0  0  0
  -21.9740   -4.7440   23.8560 C   0  0  0  0  0  3  0  0  0  0  0  0
  -22.2880   -5.4040   22.6550 C   0  0  0  0  0  0  0  0  0  0  0  0
  -22.8690   -4.7150   21.6420 F   0  0  0  0  0  0  0  0  0  0  0  0
  -21.0420   -4.8090   26.0540 F   0  0  0  0  0  0  0  0  0  0  0  0
  -23.4780  -13.9740   20.9460 C   0  0  0  0  0  0  0  0  0  0  0  0
  -22.7750  -13.3130   21.8560 N   0  0  0  0  0  0  0  0  0  0  0  0
  -23.0370  -14.9970   20.4200 O   0  0  0  0  0  0  0  0  0  0  0  0
  -23.1450  -12.4860   22.3010 H   0  0  0  0  0  0  0  0  0  0  0  0
  -21.8530  -13.6330   22.1140 H   0  0  0  0  0  0  0  0  0  0  0  0
  -26.1170  -15.5810   20.0460 N   0  0  0  0  0  0  0  0  0  0  0  0
  -25.3530  -16.2390   20.1520 H   0  0  0  0  0  0  0  0  0  0  0  0
  -26.9520  -15.9950   19.6500 H   0  0  0  0  0  0  0  0  0  0  0  0
  -29.4220  -24.2320   17.1380 C   0  0  0  0  0  2  0  0  0  0  0  0
  -29.5340  -25.6630   17.6870 C   0  0  0  0  0  2  0  0  0  0  0  0
  -30.2440  -23.2400   17.9890 C   0  0  0  0  0  2  0  0  0  0  0  0
  -29.9390  -24.7180   19.9650 C   0  0  0  0  0  2  0  0  0  0  0  0
  -29.0360  -25.6740   19.1460 C   0  0  0  0  0  3  0  0  0  0  0  0
  -29.8910  -23.3100   19.4350 N   0  0  2  0  0  4  0  0  0  0  0  0
  -28.9320  -23.0050   19.5120 H   0  0  0  0  0  0  0  0  0  0  0  0
  -28.9710  -27.0230   19.6690 O   0  0  0  0  0  0  0  0  0  0  0  0
  -24.5830  -31.5260   23.0620 C   0  0  0  0  0  0  0  0  0  0  0  0
  -27.7330  -27.6560   19.6700 C   0  0  0  0  0  0  0  0  0  0  0  0
  -23.5700  -30.1860   21.2520 C   0  0  0  0  0  3  0  0  0  0  0  0
  -25.2040  -28.9490   19.7420 C   0  0  0  0  0  0  0  0  0  0  0  0
  -26.0590  -30.7940   21.1860 C   0  0  0  0  0  2  0  0  0  0  0  0
  -26.2960  -29.5090   20.4180 C   0  0  0  0  0  0  0  0  0  0  0  0
  -27.5620  -28.8740   20.3770 C   0  0  0  0  0  3  0  0  0  0  0  0
  -26.6070  -27.1200   18.9940 C   0  0  0  0  0  3  0  0  0  0  0  0
  -25.3570  -27.7560   19.0250 C   0  0  0  0  0  3  0  0  0  0  0  0
  -23.8840  -29.6780   19.8230 C   0  0  0  0  0  2  0  0  0  0  0  0
  -24.7540  -30.8470   21.8920 N   0  0  0  0  0  0  0  0  0  0  0  0
  -23.4620  -31.6390   23.5800 O   0  0  0  0  0  0  0  0  0  0  0  0
  -22.9970  -29.0120   22.0810 C   0  0  0  0  0  0  0  0  0  0  0  0
  -21.7050  -28.7100   21.8740 N   0  0  0  0  0  0  0  0  0  0  0  0
  -23.7120  -28.3840   22.8650 O   0  0  0  0  0  0  0  0  0  0  0  0
  -21.1860  -29.2780   21.2210 H   0  0  0  0  0  0  0  0  0  0  0  0
  -18.4510  -27.1570   22.1250 C   0  0  0  0  0  0  0  0  0  0  0  0
  -20.9630  -27.6250   22.5160 C   0  0  0  0  0  3  0  0  0  0  0  0
  -21.2200  -26.2760   21.8060 C   0  0  0  0  0  2  0  0  0  0  0  0
  -20.1820  -25.9550   20.7260 C   0  0  0  0  0  2  0  0  0  0  0  0
  -18.7750  -25.9040   21.3290 C   0  0  0  0  0  2  0  0  0  0  0  0
  -19.4790  -27.9720   22.6690 C   0  0  0  0  0  0  0  0  0  0  0  0
  -19.1210  -29.1430   23.3720 C   0  0  0  0  0  3  0  0  0  0  0  0
  -17.7700  -29.5010   23.5390 C   0  0  0  0  0  3  0  0  0  0  0  0
  -16.7570  -28.6820   23.0100 C   0  0  0  0  0  3  0  0  0  0  0  0
  -17.0980  -27.5120   22.3080 C   0  0  0  0  0  3  0  0  0  0  0  0
  -25.7780  -32.2140   23.7900 C   0  0  0  0  0  3  0  0  0  0  0  0
  -26.2560  -31.4310   25.0730 C   0  0  1  0  0  0  0  0  0  0  0  0
  -25.1120  -31.0830   26.0540 C   0  0  0  0  0  1  0  0  0  0  0  0
  -26.9570  -30.1110   24.6750 C   0  0  0  0  0  1  0  0  0  0  0  0
  -27.3050  -32.2740   25.8370 C   0  0  0  0  0  1  0  0  0  0  0  0
  -25.3550  -33.5770   24.1390 N   0  0  0  0  0  0  0  0  0  0  0  0
  -25.6610  -34.6720   23.4310 C   0  0  0  0  0  0  0  0  0  0  0  0
  -26.3960  -34.6450   22.4400 O   0  0  0  0  0  0  0  0  0  0  0  0
  -24.7050  -33.6650   24.9050 H   0  0  0  0  0  0  0  0  0  0  0  0
  -23.8360  -36.3540   23.0200 C   0  0  0  0  0  1  0  0  0  0  0  0
  -25.0510  -36.0090   23.8940 C   0  0  0  0  0  3  0  0  0  0  0  0
  -27.0620  -37.0130   24.8820 C   0  0  0  0  0  1  0  0  0  0  0  0
  -26.0140  -37.1320   23.8730 N   0  0  0  0  0  0  0  0  0  0  0  0
  -25.5370  -38.0180   24.0130 H   0  0  0  0  0  0  0  0  0  0  0  0
  1  6  1  0
  3  2  2  0
  4  2  1  0
  4  8  1  0
  5  3  1  0
  6  4  2  0
  7  5  2  0
  7  6  1  0
  9  7  1  0
 10  5  1  0
 10 19  1  0
 11 19  1  0
 12 17  1  0
 13 14  1  0
 13 12  1  0
 15 14  1  0
 15 24  1  0
 15 16  1  0
 17 11  1  0
 17 16  1  0
 18 11  2  0
 19 20  1  0
 21 22  2  0
 22 41  1  0
 23 22  1  0
 23 26  1  0
 24 21  1  0
 24 25  1  0
 25 23  2  0
 26 27  1  0
 27 28  2  0
 29 32  1  0
 29 28  1  0
 30 29  2  0
 31 30  1  0
 31 26  2  0
 32 33  1  0
 33 38  2  0
 33 34  1  0
 34 35  2  0
 35 36  1  0
 36 40  1  0
 37 36  2  0
 38 37  1  0
 39 38  1  0
 41 42  1  0
 42 45  1  0
 42 44  1  0
 43 41  2  0
 46 47  1  0
 46 21  1  0
 48 46  1  0
 49 50  1  0
 49 51  1  0
 50 53  1  0
 51 54  1  0
 53 56  1  0
 53 52  1  0
 54 55  1  6
 54 52  1  0
 54  1  1  0
 56 58  1  0
 57 68  2  0
 58 63  1  0
 59 67  1  0
 59 69  1  0
 60 66  1  0
 60 62  1  0
 61 67  1  0
 62 61  1  0
 63 62  2  0
 64 65  1  0
 64 58  2  0
 65 60  2  0
 66 59  1  0
 67 57  1  0
 69 71  2  0
 70 69  1  0
 72 70  1  0
 73 82  2  0
 73 78  1  0
 74 70  1  0
 74 78  1  0
 75 74  1  0
 76 77  1  0
 76 75  1  0
 77 73  1  0
 78 79  2  0
 79 80  1  0
 81 80  2  0
 82 81  1  0
 83 57  1  0
 83 88  1  0
 83 84  1  0
 84 87  1  1
 84 85  1  0
 86 84  1  0
 88 91  1  0
 89 93  1  0
 89 88  1  0
 90 89  2  0
 93 92  1  0
 95 93  1  0
 95 96  1  0
 95 94  1  0
M  ISO  4  11 100  19 100  53 101  56 101
M  END
>  <TORSDO>  (77) 
F 19

>  <SCORE>  (77) 
-11.546

>  <name>  (77) 
76

>  <ligand_id>  (77) 
76

>  <original_smiles>  (77) 
[H]c1c([H])c([H])c2c(c1[H])C([H])([H])C([H])([H])C([H])([H])C2([H])N([H])C(=O)C1([H])N(C(=O)C([H])(N([H])C(=O)C([H])(N([H])C([H])([H])[H])C([H])([H])[H])C(C([H])([H])[H])(C([H])([H])[H])C([H])([H])[H])C([H])([H])c2c([H])c(OC3([H])C([H])([H])C([H])([H])C([H])([H])[N+]([H])(C([H])([H])c4c(Cl)c(C([H])([H])N([H])C(=O)N5C([H])([H])C([H])([H])C([H])([H])C([H])(n6nc(-c7c([H])c([H])c(Oc8c([H])c([H])c(F)c([H])c8F)c([H])c7[H])c(C(=O)N([H])[H])c6N([H])[H])C5([H])[H])c([H])c([H])c4C([H])([H])[H])C3([H])[H])c([H])c([H])c2C1([H])[H]

>  <smiles>  (77) 
[H]c1c([H])c([H])c2c(c1[H])C([H])([H])C([H])([H])C([H])([H])C2([H])N([H])C(=O)C1([H])N(C(=O)C([H])(N([H])C(=O)C([H])(N([H])C([H])([H])[H])C([H])([H])[H])C(C([H])([H])[H])(C([H])([H])[H])C([H])([H])[H])C([H])([H])c2c([H])c(OC3([H])C([H])([H])C([H])([H])C([H])([H])[N+]([H])(C([H])([H])c4c(Cl)c(C([H])([H])N([H])C(=O)N5C([H])([H])C([H])([H])C([H])([H])C([H])(n6nc(-c7c([H])c([H])c(Oc8c([H])c([H])c(F)c([H])c8F)c([H])c7[H])c(C(=O)N([H])[H])c6N([H])[H])C5([H])[H])c([H])c([H])c4C([H])([H])[H])C3([H])[H])c([H])c([H])c2C1([H])[H]

$$$$
77:0:0
     RDKit          3D

 95103  0  0  1  0  0  0  0  0999 V2000
  -28.5210  -21.0190   20.9580 C   0  0  0  0  0  0  0  0  0  0  0  0
  -27.9140  -20.6460   22.0350 N   0  0  0  0  0  4  0  0  0  0  0  0
  -27.9740  -19.6870   22.3870 H   0  0  0  0  0  0  0  0  0  0  0  0
  -27.4310  -21.3060   22.6360 H   0  0  0  0  0  0  0  0  0  0  0  0
  -29.8640  -18.6510   18.1160 C   0  0  0  0  0  3  0  0  0  0  0  0
  -30.1120  -17.4280   18.7780 C   0  0  0  0  0  3  0  0  0  0  0  0
  -29.1540  -19.7900   20.1890 C   0  0  0  0  0  0  0  0  0  0  0  0
  -29.3490  -19.7970   18.7740 C   0  0  0  0  0  0  0  0  0  0  0  0
  -29.8250  -17.2710   20.1490 C   0  0  0  0  0  0  0  0  0  0  0  0
  -29.3740  -18.4770   20.8340 C   0  0  0  0  0  0  0  0  0  0  0  0
  -28.9240  -20.9410   17.8620 C   0  0  0  0  0  1  0  0  0  0  0  0
  -29.0830  -18.3270   22.1540 F   0  0  0  0  0  0  0  0  0  0  0  0
  -30.6020  -14.7720   20.4270 C   0  0  0  0  0  0  0  0  0  0  0  0
  -30.4360  -12.4680   19.4780 C   0  0  0  0  0  2  0  0  0  0  0  0
  -29.5160  -12.5350   18.2370 C   0  0  0  0  0  2  0  0  0  0  0  0
  -28.0380  -12.3650   18.6410 C   0  0  0  0  0  2  0  0  0  0  0  0
  -27.6470  -13.2460   19.8590 C   0  0  0  0  0  3  0  0  0  0  0  0
  -28.6930  -13.1760   20.9940 C   0  0  0  0  0  2  0  0  0  0  0  0
  -29.9990  -13.5300   20.4210 N   0  0  0  0  0  0  0  0  0  0  0  0
  -31.7630  -14.8810   20.0260 O   0  0  0  0  0  0  0  0  0  0  0  0
  -29.8570  -15.8990   20.7570 N   0  0  0  0  0  0  0  0  0  0  0  0
  -29.0910  -15.7140   21.3900 H   0  0  0  0  0  0  0  0  0  0  0  0
  -25.2530  -13.8240   20.5700 C   0  0  0  0  0  0  0  0  0  0  0  0
  -24.1830  -13.0450   20.9220 C   0  0  0  0  0  0  0  0  0  0  0  0
  -24.6450  -11.6940   20.8750 C   0  0  0  0  0  0  0  0  0  0  0  0
  -26.2980  -12.9470   20.3320 N   0  0  0  0  0  0  0  0  0  0  0  0
  -25.9390  -11.6600   20.5760 N   0  0  0  0  0  0  0  0  0  0  0  0
  -23.9130  -10.4310   21.0400 C   0  0  0  0  0  0  0  0  0  0  0  0
  -24.3660   -9.4220   21.9170 C   0  0  0  0  0  3  0  0  0  0  0  0
  -23.6330   -8.2260   22.0750 C   0  0  0  0  0  3  0  0  0  0  0  0
  -22.4290   -8.0300   21.3550 C   0  0  0  0  0  0  0  0  0  0  0  0
  -21.9940   -9.0270   20.4650 C   0  0  0  0  0  3  0  0  0  0  0  0
  -22.7280  -10.2150   20.3040 C   0  0  0  0  0  3  0  0  0  0  0  0
  -21.6650   -6.8880   21.4240 O   0  0  0  0  0  0  0  0  0  0  0  0
  -21.6870   -6.0740   22.5280 C   0  0  0  0  0  0  0  0  0  0  0  0
  -21.4030   -6.5650   23.8210 C   0  0  0  0  0  3  0  0  0  0  0  0
  -21.3670   -5.6800   24.9180 C   0  0  0  0  0  3  0  0  0  0  0  0
  -21.6050   -4.3060   24.7220 C   0  0  0  0  0  0  0  0  0  0  0  0
  -21.8830   -3.8150   23.4350 C   0  0  0  0  0  3  0  0  0  0  0  0
  -21.9200   -4.6970   22.3400 C   0  0  0  0  0  0  0  0  0  0  0  0
  -22.1650   -4.2150   21.0980 F   0  0  0  0  0  0  0  0  0  0  0  0
  -21.5640   -3.4540   25.7730 F   0  0  0  0  0  0  0  0  0  0  0  0
  -22.7830  -13.5200   21.1880 C   0  0  0  0  0  0  0  0  0  0  0  0
  -22.0490  -12.8170   22.0430 N   0  0  0  0  0  0  0  0  0  0  0  0
  -22.3500  -14.5490   20.6700 O   0  0  0  0  0  0  0  0  0  0  0  0
  -22.4090  -11.9840   22.4830 H   0  0  0  0  0  0  0  0  0  0  0  0
  -21.1100  -13.1180   22.2610 H   0  0  0  0  0  0  0  0  0  0  0  0
  -25.4180  -15.1970   20.4130 N   0  0  0  0  0  0  0  0  0  0  0  0
  -24.6480  -15.8480   20.5200 H   0  0  0  0  0  0  0  0  0  0  0  0
  -26.2590  -15.6370   20.0630 H   0  0  0  0  0  0  0  0  0  0  0  0
  -28.7530  -23.4980   20.2290 C   0  0  0  0  0  0  0  0  0  0  0  0
  -30.0590  -23.5940   19.4740 C   0  0  0  0  0  1  0  0  0  0  0  0
  -28.3100  -22.4210   20.8510 N   0  0  0  0  0  0  0  0  0  0  0  0
  -27.8250  -24.8200   20.1730 C   0  0  0  0  0  2  0  0  0  0  0  0
  -28.2650  -26.2750   20.1670 O   0  0  0  0  0  0  0  0  0  0  0  0
  -24.6360  -31.8550   23.2000 C   0  0  0  0  0  0  0  0  0  0  0  0
  -27.2090  -27.2360   20.1140 C   0  0  0  0  0  0  0  0  0  0  0  0
  -23.4310  -30.4840   21.5450 C   0  0  0  0  0  3  0  0  0  0  0  0
  -24.8740  -28.9380   20.1120 C   0  0  0  0  0  0  0  0  0  0  0  0
  -25.9810  -30.7610   21.3860 C   0  0  0  0  0  2  0  0  0  0  0  0
  -26.0530  -29.3830   20.7250 C   0  0  0  0  0  0  0  0  0  0  0  0
  -27.2230  -28.5450   20.7210 C   0  0  0  0  0  3  0  0  0  0  0  0
  -26.0030  -26.8910   19.4520 C   0  0  0  0  0  3  0  0  0  0  0  0
  -24.8570  -27.6990   19.4670 C   0  0  0  0  0  3  0  0  0  0  0  0
  -23.6490  -29.8270   20.1600 C   0  0  0  0  0  2  0  0  0  0  0  0
  -24.7020  -31.0510   22.0990 N   0  0  0  0  0  0  0  0  0  0  0  0
  -23.5500  -32.1400   23.7270 O   0  0  0  0  0  0  0  0  0  0  0  0
  -22.7500  -29.4640   22.4900 C   0  0  0  0  0  0  0  0  0  0  0  0
  -21.4210  -29.3090   22.3630 N   0  0  0  0  0  0  0  0  0  0  0  0
  -23.4180  -28.8170   23.3010 O   0  0  0  0  0  0  0  0  0  0  0  0
  -20.9390  -29.8860   21.6870 H   0  0  0  0  0  0  0  0  0  0  0  0
  -18.0300  -28.1390   22.8480 C   0  0  0  0  0  0  0  0  0  0  0  0
  -20.5900  -28.3730   23.1240 C   0  0  0  0  0  3  0  0  0  0  0  0
  -20.6790  -26.9450   22.5390 C   0  0  0  0  0  2  0  0  0  0  0  0
  -19.5760  -26.6390   21.5210 C   0  0  0  0  0  2  0  0  0  0  0  0
  -18.1950  -26.7930   22.1630 C   0  0  0  0  0  2  0  0  0  0  0  0
  -19.1550  -28.8870   23.2860 C   0  0  0  0  0  0  0  0  0  0  0  0
  -18.9480  -30.1470   23.8890 C   0  0  0  0  0  3  0  0  0  0  0  0
  -17.6490  -30.6600   24.0570 C   0  0  0  0  0  3  0  0  0  0  0  0
  -16.5380  -29.9100   23.6330 C   0  0  0  0  0  3  0  0  0  0  0  0
  -16.7290  -28.6520   23.0340 C   0  0  0  0  0  3  0  0  0  0  0  0
  -25.9190  -32.4740   23.8320 C   0  0  0  0  0  3  0  0  0  0  0  0
  -26.4520  -31.6590   25.0730 C   0  0  1  0  0  0  0  0  0  0  0  0
  -25.3700  -31.3810   26.1410 C   0  0  0  0  0  1  0  0  0  0  0  0
  -27.0350  -30.2980   24.6250 C   0  0  0  0  0  1  0  0  0  0  0  0
  -27.6040  -32.4330   25.7530 C   0  0  0  0  0  1  0  0  0  0  0  0
  -25.5970  -33.8550   24.2230 N   0  0  0  0  0  0  0  0  0  0  0  0
  -25.9070  -34.9440   23.5060 C   0  0  0  0  0  0  0  0  0  0  0  0
  -26.5640  -34.8930   22.4620 O   0  0  0  0  0  0  0  0  0  0  0  0
  -25.0110  -33.9690   25.0360 H   0  0  0  0  0  0  0  0  0  0  0  0
  -24.1500  -36.7300   23.2630 C   0  0  0  0  0  1  0  0  0  0  0  0
  -25.4120  -36.3070   24.0300 C   0  0  0  0  0  3  0  0  0  0  0  0
  -27.5570  -37.1810   24.8450 C   0  0  0  0  0  1  0  0  0  0  0  0
  -26.4290  -37.3760   23.9400 N   0  0  0  0  0  0  0  0  0  0  0  0
  -26.0160  -38.2840   24.1370 H   0  0  0  0  0  0  0  0  0  0  0  0
  1  2  2  0
  2  3  1  0
  2  4  1  0
  5  8  2  0
  5  6  1  0
  6  9  2  0
  7 10  2  0
  7  1  1  0
  8  7  1  0
  9 21  1  0
  9 10  1  0
 10 12  1  0
 11  8  1  0
 13 21  1  0
 14 19  1  0
 15 16  1  0
 15 14  1  0
 17 16  1  0
 17 26  1  0
 17 18  1  0
 19 13  1  0
 19 18  1  0
 20 13  2  0
 21 22  1  0
 23 24  2  0
 24 43  1  0
 25 24  1  0
 25 28  1  0
 26 23  1  0
 26 27  1  0
 27 25  2  0
 28 29  1  0
 29 30  2  0
 31 34  1  0
 31 30  1  0
 32 31  2  0
 33 32  1  0
 33 28  2  0
 34 35  1  0
 35 36  1  0
 36 37  2  0
 38 37  1  0
 38 42  1  0
 39 38  2  0
 40 35  2  0
 40 39  1  0
 41 40  1  0
 43 44  1  0
 44 47  1  0
 44 46  1  0
 45 43  2  0
 48 49  1  0
 48 23  1  0
 50 48  1  0
 51 53  2  0
 52 51  1  0
 53  1  1  0
 54 51  1  0
 55 54  1  0
 56 67  2  0
 57 55  1  0
 57 62  1  0
 58 66  1  0
 58 68  1  0
 59 65  1  0
 59 61  1  0
 60 66  1  0
 61 60  1  0
 62 61  2  0
 63 64  1  0
 63 57  2  0
 64 59  2  0
 65 58  1  0
 66 56  1  0
 68 70  2  0
 69 68  1  0
 71 69  1  0
 72 81  2  0
 72 77  1  0
 73 69  1  0
 73 77  1  0
 74 73  1  0
 75 76  1  0
 75 74  1  0
 76 72  1  0
 77 78  2  0
 78 79  1  0
 80 79  2  0
 81 80  1  0
 82 56  1  0
 82 87  1  0
 82 83  1  0
 83 86  1  1
 83 84  1  0
 85 83  1  0
 87 90  1  0
 88 92  1  0
 88 87  1  0
 89 88  2  0
 92 91  1  0
 94 92  1  0
 94 95  1  0
 94 93  1  0
M  ISO  4  13 100  21 100  54 101  55 101
M  END
>  <TORSDO>  (78) 
F 19

>  <SCORE>  (78) 
-12.423

>  <name>  (78) 
77

>  <ligand_id>  (78) 
77

>  <original_smiles>  (78) 
[H]c1c([H])c([H])c2c(c1[H])C([H])([H])C([H])([H])C([H])([H])C2([H])N([H])C(=O)C1([H])N(C(=O)C([H])(N([H])C(=O)C([H])(N([H])C([H])([H])[H])C([H])([H])[H])C(C([H])([H])[H])(C([H])([H])[H])C([H])([H])[H])C([H])([H])c2c([H])c(OC([H])([H])C(=NC(c3c(F)c(N([H])C(=O)N4C([H])([H])C([H])([H])C([H])([H])C([H])(n5nc(-c6c([H])c([H])c(Oc7c([H])c([H])c(F)c([H])c7F)c([H])c6[H])c(C(=O)N([H])[H])c5N([H])[H])C4([H])[H])c([H])c([H])c3C([H])([H])[H])=[N+]([H])[H])C([H])([H])[H])c([H])c([H])c2C1([H])[H]

>  <smiles>  (78) 
[H]c1c([H])c([H])c2c(c1[H])C([H])([H])C([H])([H])C([H])([H])C2([H])N([H])C(=O)C1([H])N(C(=O)C([H])(N([H])C(=O)C([H])(N([H])C([H])([H])[H])C([H])([H])[H])C(C([H])([H])[H])(C([H])([H])[H])C([H])([H])[H])C([H])([H])c2c([H])c(OC([H])([H])C(=NC(c3c(F)c(N([H])C(=O)N4C([H])([H])C([H])([H])C([H])([H])C([H])(n5nc(-c6c([H])c([H])c(Oc7c([H])c([H])c(F)c([H])c7F)c([H])c6[H])c(C(=O)N([H])[H])c5N([H])[H])C4([H])[H])c([H])c([H])c3C([H])([H])[H])=[N+]([H])[H])C([H])([H])[H])c([H])c([H])c2C1([H])[H]

$$$$
78:0:0
     RDKit          3D

 92100  0  0  1  0  0  0  0  0999 V2000
  -30.2800  -19.4370   19.2570 C   0  0  0  0  0  3  0  0  0  0  0  0
  -29.8330  -20.4600   21.7970 C   0  0  0  0  0  3  0  0  0  0  0  0
  -29.8610  -20.7930   19.4090 C   0  0  0  0  0  0  0  0  0  0  0  0
  -30.5020  -18.5620   20.3560 C   0  0  0  0  0  0  0  0  0  0  0  0
  -29.6500  -21.3470   20.7020 C   0  0  0  0  0  0  0  0  0  0  0  0
  -30.2560  -19.1080   21.6410 C   0  0  0  0  0  0  0  0  0  0  0  0
  -29.6090  -21.6100   18.1530 C   0  0  0  0  0  1  0  0  0  0  0  0
  -30.5140  -18.1470   23.0540 Cl  0  0  0  0  0  0  0  0  0  0  0  0
  -29.1710  -22.6730   20.9610 N   0  0  0  0  0  0  0  0  0  0  0  0
  -28.7570  -22.7730   21.8840 H   0  0  0  0  0  0  0  0  0  0  0  0
  -29.7380  -23.9700   20.4790 C   0  0  0  0  0  2  0  0  0  0  0  0
  -28.6190  -25.0410   20.1560 C   0  0  0  0  0  2  0  0  0  0  0  0
  -28.8570  -26.4990   20.2260 O   0  0  0  0  0  0  0  0  0  0  0  0
  -24.8040  -31.6650   23.2000 C   0  0  0  0  0  0  0  0  0  0  0  0
  -27.7120  -27.3070   20.1390 C   0  0  0  0  0  0  0  0  0  0  0  0
  -23.7160  -30.2420   21.5050 C   0  0  0  0  0  3  0  0  0  0  0  0
  -25.2760  -28.8000   20.0900 C   0  0  0  0  0  0  0  0  0  0  0  0
  -26.2410  -30.6890   21.3990 C   0  0  0  0  0  2  0  0  0  0  0  0
  -26.4040  -29.3310   20.7280 C   0  0  0  0  0  0  0  0  0  0  0  0
  -27.6270  -28.5970   20.7450 C   0  0  0  0  0  3  0  0  0  0  0  0
  -26.5570  -26.8360   19.4670 C   0  0  0  0  0  3  0  0  0  0  0  0
  -25.3530  -27.5570   19.4530 C   0  0  0  0  0  3  0  0  0  0  0  0
  -23.9970  -29.6110   20.1190 C   0  0  0  0  0  2  0  0  0  0  0  0
  -24.9370  -30.8820   22.0920 N   0  0  0  0  0  0  0  0  0  0  0  0
  -23.6940  -31.8810   23.7080 O   0  0  0  0  0  0  0  0  0  0  0  0
  -23.0790  -29.1720   22.4250 C   0  0  0  0  0  0  0  0  0  0  0  0
  -21.7720  -28.9210   22.2450 N   0  0  0  0  0  0  0  0  0  0  0  0
  -23.7610  -28.5730   23.2600 O   0  0  0  0  0  0  0  0  0  0  0  0
  -21.2780  -29.4590   21.5470 H   0  0  0  0  0  0  0  0  0  0  0  0
  -18.4500  -27.5330   22.6000 C   0  0  0  0  0  0  0  0  0  0  0  0
  -20.9780  -27.9300   22.9740 C   0  0  0  0  0  3  0  0  0  0  0  0
  -21.1830  -26.5130   22.3920 C   0  0  0  0  0  2  0  0  0  0  0  0
  -20.1410  -26.1410   21.3310 C   0  0  0  0  0  2  0  0  0  0  0  0
  -18.7280  -26.2010   21.9210 C   0  0  0  0  0  2  0  0  0  0  0  0
  -19.5070  -28.3500   23.0800 C   0  0  0  0  0  0  0  0  0  0  0  0
  -19.1960  -29.5940   23.6740 C   0  0  0  0  0  3  0  0  0  0  0  0
  -17.8600  -30.0200   23.7920 C   0  0  0  0  0  3  0  0  0  0  0  0
  -16.8170  -29.1990   23.3290 C   0  0  0  0  0  3  0  0  0  0  0  0
  -17.1120  -27.9580   22.7390 C   0  0  0  0  0  3  0  0  0  0  0  0
  -26.0380  -32.3460   23.8680 C   0  0  0  0  0  3  0  0  0  0  0  0
  -26.5420  -31.5890   25.1580 C   0  0  1  0  0  0  0  0  0  0  0  0
  -25.4230  -31.2990   26.1860 C   0  0  0  0  0  1  0  0  0  0  0  0
  -27.1960  -30.2400   24.7810 C   0  0  0  0  0  1  0  0  0  0  0  0
  -27.6330  -32.4270   25.8640 C   0  0  0  0  0  1  0  0  0  0  0  0
  -25.6580  -33.7280   24.1930 N   0  0  0  0  0  0  0  0  0  0  0  0
  -25.9450  -34.7950   23.4380 C   0  0  0  0  0  0  0  0  0  0  0  0
  -26.6300  -34.7240   22.4130 O   0  0  0  0  0  0  0  0  0  0  0  0
  -25.0480  -33.8530   24.9890 H   0  0  0  0  0  0  0  0  0  0  0  0
  -24.1230  -36.4920   23.0820 C   0  0  0  0  0  1  0  0  0  0  0  0
  -25.3860  -36.1580   23.8900 C   0  0  0  0  0  3  0  0  0  0  0  0
  -27.4730  -37.1610   24.7080 C   0  0  0  0  0  1  0  0  0  0  0  0
  -26.3610  -37.2650   23.7670 N   0  0  0  0  0  0  0  0  0  0  0  0
  -25.9070  -38.1630   23.9110 H   0  0  0  0  0  0  0  0  0  0  0  0
  -31.1970  -17.1750   20.1160 C   0  0  0  0  0  2  0  0  0  0  0  0
  -31.1700  -14.6660   19.9930 C   0  0  0  0  0  0  0  0  0  0  0  0
  -30.8020  -12.4380   18.9790 C   0  0  0  0  0  2  0  0  0  0  0  0
  -29.8300  -12.5720   17.7880 C   0  0  0  0  0  2  0  0  0  0  0  0
  -28.3730  -12.4510   18.2710 C   0  0  0  0  0  2  0  0  0  0  0  0
  -28.0710  -13.3440   19.5040 C   0  0  0  0  0  3  0  0  0  0  0  0
  -29.1660  -13.2230   20.5870 C   0  0  0  0  0  2  0  0  0  0  0  0
  -30.4560  -13.5000   19.9460 N   0  0  0  0  0  0  0  0  0  0  0  0
  -32.3400  -14.7010   19.6080 O   0  0  0  0  0  0  0  0  0  0  0  0
  -30.5170  -15.8410   20.2560 N   0  0  0  0  0  0  0  0  0  0  0  0
  -29.5410  -15.8140   20.5070 H   0  0  0  0  0  0  0  0  0  0  0  0
  -25.7250  -13.9820   20.3310 C   0  0  0  0  0  0  0  0  0  0  0  0
  -24.6560  -13.2280   20.7310 C   0  0  0  0  0  0  0  0  0  0  0  0
  -25.0860  -11.8670   20.6660 C   0  0  0  0  0  0  0  0  0  0  0  0
  -26.7390  -13.0830   20.0440 N   0  0  0  0  0  0  0  0  0  0  0  0
  -26.3630  -11.8040   20.3080 N   0  0  0  0  0  0  0  0  0  0  0  0
  -24.3380  -10.6180   20.8650 C   0  0  0  0  0  0  0  0  0  0  0  0
  -24.7320   -9.6660   21.8310 C   0  0  0  0  0  3  0  0  0  0  0  0
  -23.9850   -8.4840   22.0180 C   0  0  0  0  0  3  0  0  0  0  0  0
  -22.8290   -8.2450   21.2390 C   0  0  0  0  0  0  0  0  0  0  0  0
  -22.4540   -9.1840   20.2620 C   0  0  0  0  0  3  0  0  0  0  0  0
  -23.2010  -10.3580   20.0740 C   0  0  0  0  0  3  0  0  0  0  0  0
  -22.0560   -7.1120   21.3330 O   0  0  0  0  0  0  0  0  0  0  0  0
  -21.8830   -6.4560   22.5250 C   0  0  0  0  0  0  0  0  0  0  0  0
  -21.3340   -7.0970   23.6560 C   0  0  0  0  0  3  0  0  0  0  0  0
  -21.1100   -6.3680   24.8400 C   0  0  0  0  0  3  0  0  0  0  0  0
  -21.4240   -4.9960   24.8920 C   0  0  0  0  0  0  0  0  0  0  0  0
  -21.9650   -4.3540   23.7650 C   0  0  0  0  0  3  0  0  0  0  0  0
  -22.1910   -5.0820   22.5840 C   0  0  0  0  0  0  0  0  0  0  0  0
  -22.6930   -4.4530   21.4930 F   0  0  0  0  0  0  0  0  0  0  0  0
  -21.2020   -4.2920   26.0270 F   0  0  0  0  0  0  0  0  0  0  0  0
  -23.2800  -13.7320   21.0590 C   0  0  0  0  0  0  0  0  0  0  0  0
  -22.5730  -13.0470   21.9510 N   0  0  0  0  0  0  0  0  0  0  0  0
  -22.8440  -14.7690   20.5610 O   0  0  0  0  0  0  0  0  0  0  0  0
  -22.9370  -12.2070   22.3750 H   0  0  0  0  0  0  0  0  0  0  0  0
  -21.6520  -13.3680   22.2140 H   0  0  0  0  0  0  0  0  0  0  0  0
  -25.9130  -15.3520   20.1630 N   0  0  0  0  0  0  0  0  0  0  0  0
  -25.1660  -16.0210   20.3120 H   0  0  0  0  0  0  0  0  0  0  0  0
  -26.7580  -15.7760   19.8030 H   0  0  0  0  0  0  0  0  0  0  0  0
  1  3  2  0
  1  4  1  0
  3  5  1  0
  4  6  2  0
  5  9  1  0
  5  2  2  0
  6  2  1  0
  6  8  1  0
  7  3  1  0
  9 10  1  0
 11  9  1  0
 12 13  1  0
 12 11  1  0
 14 25  2  0
 15 13  1  0
 15 20  1  0
 16 24  1  0
 16 26  1  0
 17 23  1  0
 17 19  1  0
 18 24  1  0
 19 20  2  0
 19 18  1  0
 21 15  2  0
 22 21  1  0
 22 17  2  0
 23 16  1  0
 24 14  1  0
 26 28  2  0
 27 26  1  0
 29 27  1  0
 30 39  2  0
 30 35  1  0
 31 27  1  0
 31 35  1  0
 32 31  1  0
 33 34  1  0
 33 32  1  0
 34 30  1  0
 35 36  2  0
 36 37  1  0
 38 37  2  0
 39 38  1  0
 40 14  1  0
 40 45  1  0
 40 41  1  0
 41 44  1  1
 41 42  1  0
 43 41  1  0
 45 48  1  0
 46 50  1  0
 46 45  1  0
 47 46  2  0
 50 49  1  0
 52 50  1  0
 52 53  1  0
 52 51  1  0
 54 63  1  0
 54  4  1  0
 55 63  1  0
 56 61  1  0
 57 58  1  0
 57 56  1  0
 59 58  1  0
 59 68  1  0
 59 60  1  0
 61 55  1  0
 61 60  1  0
 62 55  2  0
 63 64  1  0
 65 66  2  0
 66 85  1  0
 67 66  1  0
 67 70  1  0
 68 69  1  0
 68 65  1  0
 69 67  2  0
 70 71  1  0
 71 72  2  0
 73 76  1  0
 73 72  1  0
 74 73  2  0
 75 74  1  0
 75 70  2  0
 76 77  1  0
 77 82  2  0
 77 78  1  0
 78 79  2  0
 79 80  1  0
 80 84  1  0
 81 80  2  0
 82 81  1  0
 83 82  1  0
 85 86  1  0
 86 89  1  0
 86 88  1  0
 87 85  2  0
 90 91  1  0
 90 65  1  0
 92 90  1  0
M  ISO  4  12 101  13 101  55 100  63 100
M  END
>  <TORSDO>  (79) 
F 20

>  <SCORE>  (79) 
-12.407

>  <name>  (79) 
78

>  <ligand_id>  (79) 
78

>  <original_smiles>  (79) 
[H]c1c([H])c([H])c2c(c1[H])C([H])([H])C([H])([H])C([H])([H])C2([H])N([H])C(=O)C1([H])N(C(=O)C([H])(N([H])C(=O)C([H])(N([H])C([H])([H])[H])C([H])([H])[H])C(C([H])([H])[H])(C([H])([H])[H])C([H])([H])[H])C([H])([H])c2c([H])c(OC([H])([H])C([H])([H])N([H])c3c([H])c(Cl)c(C([H])([H])N([H])C(=O)N4C([H])([H])C([H])([H])C([H])([H])C([H])(n5nc(-c6c([H])c([H])c(Oc7c([H])c([H])c(F)c([H])c7F)c([H])c6[H])c(C(=O)N([H])[H])c5N([H])[H])C4([H])[H])c([H])c3C([H])([H])[H])c([H])c([H])c2C1([H])[H]

>  <smiles>  (79) 
[H]c1c([H])c([H])c2c(c1[H])C([H])([H])C([H])([H])C([H])([H])C2([H])N([H])C(=O)C1([H])N(C(=O)C([H])(N([H])C(=O)C([H])(N([H])C([H])([H])[H])C([H])([H])[H])C(C([H])([H])[H])(C([H])([H])[H])C([H])([H])[H])C([H])([H])c2c([H])c(OC([H])([H])C([H])([H])N([H])c3c([H])c(Cl)c(C([H])([H])N([H])C(=O)N4C([H])([H])C([H])([H])C([H])([H])C([H])(n5nc(-c6c([H])c([H])c(Oc7c([H])c([H])c(F)c([H])c7F)c([H])c6[H])c(C(=O)N([H])[H])c5N([H])[H])C4([H])[H])c([H])c3C([H])([H])[H])c([H])c([H])c2C1([H])[H]

$$$$
79:0:0
     RDKit          3D

 93101  0  0  1  0  0  0  0  0999 V2000
  -28.9650  -21.9680   21.2150 C   0  0  0  0  0  2  0  0  0  0  0  0
  -27.8660  -20.2830   19.6480 C   0  0  0  0  0  3  0  0  0  0  0  0
  -27.7590  -19.0020   19.0760 C   0  0  0  0  0  3  0  0  0  0  0  0
  -29.6400  -19.4630   21.0960 C   0  0  0  0  0  3  0  0  0  0  0  0
  -28.8370  -20.5450   20.6370 C   0  0  0  0  0  0  0  0  0  0  0  0
  -29.5170  -18.1480   20.5580 C   0  0  0  0  0  0  0  0  0  0  0  0
  -28.5970  -17.9510   19.4910 C   0  0  0  0  0  0  0  0  0  0  0  0
  -28.4920  -16.4720   18.6080 Cl  0  0  0  0  0  0  0  0  0  0  0  0
  -30.4540  -17.0390   21.0910 C   0  0  0  0  0  2  0  0  0  0  0  0
  -30.6830  -14.5800   20.6330 C   0  0  0  0  0  0  0  0  0  0  0  0
  -30.4110  -12.4190   19.4810 C   0  0  0  0  0  2  0  0  0  0  0  0
  -29.4890  -12.6150   18.2600 C   0  0  0  0  0  2  0  0  0  0  0  0
  -28.0130  -12.4430   18.6680 C   0  0  0  0  0  2  0  0  0  0  0  0
  -27.6420  -13.2690   19.9280 C   0  0  0  0  0  3  0  0  0  0  0  0
  -28.6860  -13.0870   21.0540 C   0  0  0  0  0  2  0  0  0  0  0  0
  -30.0120  -13.4040   20.5000 N   0  0  0  0  0  0  0  0  0  0  0  0
  -31.8320  -14.7340   20.2090 O   0  0  0  0  0  0  0  0  0  0  0  0
  -29.9790  -15.6350   21.0970 N   0  0  0  0  0  0  0  0  0  0  0  0
  -29.0400  -15.4610   21.4160 H   0  0  0  0  0  0  0  0  0  0  0  0
  -25.2250  -13.8390   20.5870 C   0  0  0  0  0  0  0  0  0  0  0  0
  -24.1620  -13.0490   20.9340 C   0  0  0  0  0  0  0  0  0  0  0  0
  -24.6450  -11.7050   20.9100 C   0  0  0  0  0  0  0  0  0  0  0  0
  -26.2860  -12.9740   20.3810 N   0  0  0  0  0  0  0  0  0  0  0  0
  -25.9420  -11.6850   20.6320 N   0  0  0  0  0  0  0  0  0  0  0  0
  -23.9360  -10.4290   21.0810 C   0  0  0  0  0  0  0  0  0  0  0  0
  -24.3620   -9.4720   22.0260 C   0  0  0  0  0  3  0  0  0  0  0  0
  -23.6540   -8.2610   22.1870 C   0  0  0  0  0  3  0  0  0  0  0  0
  -22.5050   -8.0020   21.4030 C   0  0  0  0  0  0  0  0  0  0  0  0
  -22.0980   -8.9500   20.4470 C   0  0  0  0  0  3  0  0  0  0  0  0
  -22.8080  -10.1510   20.2840 C   0  0  0  0  0  3  0  0  0  0  0  0
  -21.7710   -6.8420   21.4710 O   0  0  0  0  0  0  0  0  0  0  0  0
  -21.6980   -6.1040   22.6240 C   0  0  0  0  0  0  0  0  0  0  0  0
  -21.1940   -6.6470   23.8260 C   0  0  0  0  0  3  0  0  0  0  0  0
  -21.0740   -5.8340   24.9710 C   0  0  0  0  0  3  0  0  0  0  0  0
  -21.4460   -4.4780   24.9140 C   0  0  0  0  0  0  0  0  0  0  0  0
  -21.9420   -3.9340   23.7160 C   0  0  0  0  0  3  0  0  0  0  0  0
  -22.0650   -4.7450   22.5740 C   0  0  0  0  0  0  0  0  0  0  0  0
  -22.5250   -4.2110   21.4170 F   0  0  0  0  0  0  0  0  0  0  0  0
  -21.3220   -3.6930   26.0090 F   0  0  0  0  0  0  0  0  0  0  0  0
  -22.7510  -13.5020   21.1770 C   0  0  0  0  0  0  0  0  0  0  0  0
  -22.0170  -12.7870   22.0230 N   0  0  0  0  0  0  0  0  0  0  0  0
  -22.3070  -14.5210   20.6530 O   0  0  0  0  0  0  0  0  0  0  0  0
  -22.3880  -11.9620   22.4700 H   0  0  0  0  0  0  0  0  0  0  0  0
  -21.0690  -13.0740   22.2260 H   0  0  0  0  0  0  0  0  0  0  0  0
  -25.3700  -15.2130   20.4100 N   0  0  0  0  0  0  0  0  0  0  0  0
  -24.5910  -15.8550   20.5070 H   0  0  0  0  0  0  0  0  0  0  0  0
  -26.2070  -15.6590   20.0600 H   0  0  0  0  0  0  0  0  0  0  0  0
  -29.3110  -22.9980   20.1970 N   0  0  0  0  0  4  0  0  0  0  0  0
  -30.2300  -22.7780   19.8450 H   0  0  0  0  0  0  0  0  0  0  0  0
  -28.6760  -22.9020   19.4230 H   0  0  0  0  0  0  0  0  0  0  0  0
  -29.3110  -24.4270   20.6490 C   0  0  0  0  0  2  0  0  0  0  0  0
  -28.2950  -25.3010   19.8680 C   0  0  0  0  0  2  0  0  0  0  0  0
  -28.3790  -26.7140   20.1740 O   0  0  0  0  0  0  0  0  0  0  0  0
  -24.5830  -31.9220   23.2230 C   0  0  0  0  0  0  0  0  0  0  0  0
  -27.2160  -27.4700   20.1160 C   0  0  0  0  0  0  0  0  0  0  0  0
  -23.3790  -30.5320   21.5730 C   0  0  0  0  0  3  0  0  0  0  0  0
  -24.8310  -29.0100   20.1330 C   0  0  0  0  0  0  0  0  0  0  0  0
  -25.9080  -30.8830   21.3840 C   0  0  0  0  0  2  0  0  0  0  0  0
  -25.9910  -29.5140   20.7320 C   0  0  0  0  0  0  0  0  0  0  0  0
  -27.1850  -28.7510   20.7250 C   0  0  0  0  0  3  0  0  0  0  0  0
  -26.0390  -27.0050   19.4810 C   0  0  0  0  0  3  0  0  0  0  0  0
  -24.8520  -27.7570   19.5040 C   0  0  0  0  0  3  0  0  0  0  0  0
  -23.5910  -29.8720   20.1850 C   0  0  0  0  0  2  0  0  0  0  0  0
  -24.6430  -31.1250   22.1180 N   0  0  0  0  0  0  0  0  0  0  0  0
  -23.5010  -32.1930   23.7620 O   0  0  0  0  0  0  0  0  0  0  0  0
  -22.7280  -29.5010   22.5230 C   0  0  0  0  0  0  0  0  0  0  0  0
  -21.4040  -29.3180   22.3920 N   0  0  0  0  0  0  0  0  0  0  0  0
  -23.4120  -28.8730   23.3350 O   0  0  0  0  0  0  0  0  0  0  0  0
  -20.9150  -29.8820   21.7110 H   0  0  0  0  0  0  0  0  0  0  0  0
  -18.0310  -28.1140   22.8720 C   0  0  0  0  0  0  0  0  0  0  0  0
  -20.5870  -28.3730   23.1550 C   0  0  0  0  0  3  0  0  0  0  0  0
  -20.6950  -26.9470   22.5630 C   0  0  0  0  0  2  0  0  0  0  0  0
  -19.5920  -26.6280   21.5490 C   0  0  0  0  0  2  0  0  0  0  0  0
  -18.2110  -26.7680   22.1930 C   0  0  0  0  0  2  0  0  0  0  0  0
  -19.1460  -28.8730   23.3140 C   0  0  0  0  0  0  0  0  0  0  0  0
  -18.9250  -30.1300   23.9160 C   0  0  0  0  0  3  0  0  0  0  0  0
  -17.6180  -30.6290   24.0810 C   0  0  0  0  0  3  0  0  0  0  0  0
  -16.5160  -29.8710   23.6490 C   0  0  0  0  0  3  0  0  0  0  0  0
  -16.7230  -28.6160   23.0500 C   0  0  0  0  0  3  0  0  0  0  0  0
  -25.8690  -32.5490   23.8460 C   0  0  0  0  0  3  0  0  0  0  0  0
  -25.5640  -33.9480   24.1740 N   0  0  0  0  0  0  0  0  0  0  0  0
  -25.9000  -34.9980   23.4120 C   0  0  0  0  0  0  0  0  0  0  0  0
  -26.5700  -34.8890   22.3810 O   0  0  0  0  0  0  0  0  0  0  0  0
  -24.9680  -34.1080   24.9740 H   0  0  0  0  0  0  0  0  0  0  0  0
  -24.1850  -36.8000   23.0380 C   0  0  0  0  0  1  0  0  0  0  0  0
  -25.4140  -36.3890   23.8640 C   0  0  0  0  0  3  0  0  0  0  0  0
  -27.5390  -37.2650   24.7260 C   0  0  0  0  0  1  0  0  0  0  0  0
  -26.4540  -37.4360   23.7640 N   0  0  0  0  0  0  0  0  0  0  0  0
  -26.0500  -38.3580   23.9020 H   0  0  0  0  0  0  0  0  0  0  0  0
  -26.3810  -31.7760   25.1220 C   0  0  1  0  0  0  0  0  0  0  0  0
  -25.2860  -31.5360   26.1870 C   0  0  0  0  0  1  0  0  0  0  0  0
  -26.9630  -30.3980   24.7280 C   0  0  0  0  0  1  0  0  0  0  0  0
  -27.5310  -32.5660   25.7880 C   0  0  0  0  0  1  0  0  0  0  0  0
  2  5  1  0
  3  7  1  0
  3  2  2  0
  5  4  2  0
  5  1  1  0
  6  9  1  0
  6  4  1  0
  7  6  2  0
  8  7  1  0
  9 18  1  0
 10 18  1  0
 11 16  1  0
 12 13  1  0
 12 11  1  0
 14 13  1  0
 14 23  1  0
 14 15  1  0
 16 10  1  0
 16 15  1  0
 17 10  2  0
 18 19  1  0
 20 21  2  0
 21 40  1  0
 22 21  1  0
 22 25  1  0
 23 20  1  0
 23 24  1  0
 24 22  2  0
 25 26  1  0
 26 27  2  0
 28 31  1  0
 28 27  1  0
 29 28  2  0
 30 29  1  0
 30 25  2  0
 31 32  1  0
 32 33  1  0
 33 34  2  0
 35 34  1  0
 35 39  1  0
 36 35  2  0
 37 32  2  0
 37 36  1  0
 38 37  1  0
 40 41  1  0
 41 44  1  0
 41 43  1  0
 42 40  2  0
 45 46  1  0
 45 20  1  0
 47 45  1  0
 48 51  1  0
 48  1  1  0
 49 48  1  0
 50 48  1  0
 52 53  1  0
 52 51  1  0
 54 65  2  0
 55 53  1  0
 55 60  1  0
 56 64  1  0
 56 66  1  0
 57 63  1  0
 57 59  1  0
 58 64  1  0
 59 58  1  0
 60 59  2  0
 61 62  1  0
 61 55  2  0
 62 57  2  0
 63 56  1  0
 64 54  1  0
 66 68  2  0
 67 66  1  0
 69 67  1  0
 70 79  2  0
 70 75  1  0
 71 67  1  0
 71 75  1  0
 72 71  1  0
 73 74  1  0
 73 72  1  0
 74 70  1  0
 75 76  2  0
 76 77  1  0
 78 77  2  0
 79 78  1  0
 80 54  1  0
 80 81  1  0
 80 90  1  0
 81 84  1  0
 82 86  1  0
 82 81  1  0
 83 82  2  0
 86 85  1  0
 88 86  1  0
 88 89  1  0
 88 87  1  0
 90 93  1  1
 90 91  1  0
 92 90  1  0
M  ISO  4  10 100  18 100  52 101  53 101
M  END
>  <TORSDO>  (80) 
F 21

>  <SCORE>  (80) 
-13.566

>  <name>  (80) 
79

>  <ligand_id>  (80) 
79

>  <original_smiles>  (80) 
[H]c1c([H])c([H])c2c(c1[H])C([H])([H])C([H])([H])C([H])([H])C2([H])N([H])C(=O)C1([H])N(C(=O)C([H])(N([H])C(=O)C([H])(N([H])C([H])([H])[H])C([H])([H])[H])C(C([H])([H])[H])(C([H])([H])[H])C([H])([H])[H])C([H])([H])c2c([H])c(OC([H])([H])C([H])([H])[N+]([H])([H])C([H])([H])c3c([H])c([H])c(Cl)c(C([H])([H])N([H])C(=O)N4C([H])([H])C([H])([H])C([H])([H])C([H])(n5nc(-c6c([H])c([H])c(Oc7c([H])c([H])c(F)c([H])c7F)c([H])c6[H])c(C(=O)N([H])[H])c5N([H])[H])C4([H])[H])c3[H])c([H])c([H])c2C1([H])[H]

>  <smiles>  (80) 
[H]c1c([H])c([H])c2c(c1[H])C([H])([H])C([H])([H])C([H])([H])C2([H])N([H])C(=O)C1([H])N(C(=O)C([H])(N([H])C(=O)C([H])(N([H])C([H])([H])[H])C([H])([H])[H])C(C([H])([H])[H])(C([H])([H])[H])C([H])([H])[H])C([H])([H])c2c([H])c(OC([H])([H])C([H])([H])[N+]([H])([H])C([H])([H])c3c([H])c([H])c(Cl)c(C([H])([H])N([H])C(=O)N4C([H])([H])C([H])([H])C([H])([H])C([H])(n5nc(-c6c([H])c([H])c(Oc7c([H])c([H])c(F)c([H])c7F)c([H])c6[H])c(C(=O)N([H])[H])c5N([H])[H])C4([H])[H])c3[H])c([H])c([H])c2C1([H])[H]

$$$$
80:0:0
     RDKit          3D

 95104  0  0  1  0  0  0  0  0999 V2000
  -30.0500  -23.4450   21.0790 C   0  0  0  0  0  0  0  0  0  0  0  0
  -30.8050  -23.1030   22.1370 C   0  0  0  0  0  2  0  0  0  0  0  0
  -30.0700  -24.7710   20.3160 C   0  0  0  0  0  2  0  0  0  0  0  0
  -27.9690  -23.6570   20.0300 C   0  0  0  0  0  2  0  0  0  0  0  0
  -28.6680  -25.0820   19.7550 C   0  0  0  0  0  3  0  0  0  0  0  0
  -28.9510  -22.5890   20.5490 N   0  0  1  0  0  4  0  0  0  0  0  0
  -28.4950  -22.1370   21.3260 H   0  0  0  0  0  0  0  0  0  0  0  0
  -28.3580  -26.4570   20.3130 O   0  0  0  0  0  0  0  0  0  0  0  0
  -24.6060  -31.8650   23.2400 C   0  0  0  0  0  0  0  0  0  0  0  0
  -27.2240  -27.2850   20.1660 C   0  0  0  0  0  0  0  0  0  0  0  0
  -23.4050  -30.4770   21.5850 C   0  0  0  0  0  3  0  0  0  0  0  0
  -24.8610  -28.9250   20.1410 C   0  0  0  0  0  0  0  0  0  0  0  0
  -25.9440  -30.7880   21.4090 C   0  0  0  0  0  2  0  0  0  0  0  0
  -26.0230  -29.4090   20.7500 C   0  0  0  0  0  0  0  0  0  0  0  0
  -27.2000  -28.5990   20.7500 C   0  0  0  0  0  3  0  0  0  0  0  0
  -26.0440  -26.8600   19.5230 C   0  0  0  0  0  3  0  0  0  0  0  0
  -24.8770  -27.6630   19.5150 C   0  0  0  0  0  3  0  0  0  0  0  0
  -23.6210  -29.8030   20.2000 C   0  0  0  0  0  2  0  0  0  0  0  0
  -24.6700  -31.0630   22.1350 N   0  0  0  0  0  0  0  0  0  0  0  0
  -23.5220  -32.1390   23.7760 O   0  0  0  0  0  0  0  0  0  0  0  0
  -22.7380  -29.4590   22.5420 C   0  0  0  0  0  0  0  0  0  0  0  0
  -21.4100  -29.2910   22.4210 N   0  0  0  0  0  0  0  0  0  0  0  0
  -23.4160  -28.8230   23.3530 O   0  0  0  0  0  0  0  0  0  0  0  0
  -20.9220  -29.8580   21.7400 H   0  0  0  0  0  0  0  0  0  0  0  0
  -18.0290  -28.1080   22.9260 C   0  0  0  0  0  0  0  0  0  0  0  0
  -20.5900  -28.3500   23.1850 C   0  0  0  0  0  3  0  0  0  0  0  0
  -20.6800  -26.9250   22.5900 C   0  0  0  0  0  2  0  0  0  0  0  0
  -19.5710  -26.6230   21.5780 C   0  0  0  0  0  2  0  0  0  0  0  0
  -18.1940  -26.7670   22.2300 C   0  0  0  0  0  2  0  0  0  0  0  0
  -19.1540  -28.8580   23.3600 C   0  0  0  0  0  0  0  0  0  0  0  0
  -18.9450  -30.1140   23.9700 C   0  0  0  0  0  3  0  0  0  0  0  0
  -17.6440  -30.6200   24.1500 C   0  0  0  0  0  3  0  0  0  0  0  0
  -16.5330  -29.8670   23.7320 C   0  0  0  0  0  3  0  0  0  0  0  0
  -16.7260  -28.6120   23.1270 C   0  0  0  0  0  3  0  0  0  0  0  0
  -25.8870  -32.4950   23.8700 C   0  0  0  0  0  3  0  0  0  0  0  0
  -25.5750  -33.8890   24.2190 N   0  0  0  0  0  0  0  0  0  0  0  0
  -25.9020  -34.9530   23.4750 C   0  0  0  0  0  0  0  0  0  0  0  0
  -26.5650  -34.8640   22.4380 O   0  0  0  0  0  0  0  0  0  0  0  0
  -24.9860  -34.0310   25.0270 H   0  0  0  0  0  0  0  0  0  0  0  0
  -24.1650  -36.7450   23.1640 C   0  0  0  0  0  1  0  0  0  0  0  0
  -25.4170  -36.3350   23.9550 C   0  0  0  0  0  3  0  0  0  0  0  0
  -27.5580  -37.2190   24.7710 C   0  0  0  0  0  1  0  0  0  0  0  0
  -26.4450  -37.3930   23.8410 N   0  0  0  0  0  0  0  0  0  0  0  0
  -26.0380  -38.3110   24.0030 H   0  0  0  0  0  0  0  0  0  0  0  0
  -26.4060  -31.7100   25.1390 C   0  0  1  0  0  0  0  0  0  0  0  0
  -25.3140  -31.4610   26.2040 C   0  0  0  0  0  1  0  0  0  0  0  0
  -26.9900  -30.3380   24.7330 C   0  0  0  0  0  1  0  0  0  0  0  0
  -27.5560  -32.4990   25.8080 C   0  0  0  0  0  1  0  0  0  0  0  0
  -29.5050  -21.4270   19.6720 C   0  0  0  0  0  2  0  0  0  0  0  0
  -28.5620  -17.1010   18.9890 C   0  0  0  0  0  3  0  0  0  0  0  0
  -27.7680  -18.1600   18.5190 C   0  0  0  0  0  3  0  0  0  0  0  0
  -29.8790  -18.7070   20.2530 C   0  0  0  0  0  0  0  0  0  0  0  0
  -29.1070  -19.8500   19.7040 C   0  0  0  0  0  0  0  0  0  0  0  0
  -29.5920  -17.2860   19.9310 C   0  0  0  0  0  0  0  0  0  0  0  0
  -28.0130  -19.4960   18.8780 C   0  0  0  0  0  0  0  0  0  0  0  0
  -31.0780  -18.9990   21.1460 C   0  0  0  0  0  1  0  0  0  0  0  0
  -26.9800  -20.7000   18.1870 Cl  0  0  0  0  0  0  0  0  0  0  0  0
  -30.7150  -14.8740   19.9780 C   0  0  0  0  0  0  0  0  0  0  0  0
  -30.4310  -12.5770   18.9800 C   0  0  0  0  0  2  0  0  0  0  0  0
  -29.4290  -12.6140   17.8070 C   0  0  0  0  0  2  0  0  0  0  0  0
  -27.9970  -12.4010   18.3270 C   0  0  0  0  0  2  0  0  0  0  0  0
  -27.6810  -13.2940   19.5540 C   0  0  0  0  0  3  0  0  0  0  0  0
  -28.8040  -13.2760   20.6110 C   0  0  0  0  0  2  0  0  0  0  0  0
  -30.0550  -13.6530   19.9370 N   0  0  0  0  0  0  0  0  0  0  0  0
  -31.8410  -14.9430   19.4750 O   0  0  0  0  0  0  0  0  0  0  0  0
  -30.4520  -16.1080   21.9970 C   0  0  0  0  0  1  0  0  0  0  0  0
  -30.1460  -16.0230   20.5660 N   0  0  0  0  0  0  0  0  0  0  0  0
  -25.3630  -13.9060   20.4500 C   0  0  0  0  0  0  0  0  0  0  0  0
  -24.3090  -13.1370   20.8620 C   0  0  0  0  0  0  0  0  0  0  0  0
  -24.7520  -11.7820   20.7680 C   0  0  0  0  0  0  0  0  0  0  0  0
  -26.3730  -13.0160   20.1250 N   0  0  0  0  0  0  0  0  0  0  0  0
  -26.0200  -11.7330   20.3820 N   0  0  0  0  0  0  0  0  0  0  0  0
  -24.0230  -10.5240   20.9680 C   0  0  0  0  0  0  0  0  0  0  0  0
  -24.4780   -9.5450   21.8790 C   0  0  0  0  0  3  0  0  0  0  0  0
  -23.7500   -8.3510   22.0680 C   0  0  0  0  0  3  0  0  0  0  0  0
  -22.5550   -8.1290   21.3450 C   0  0  0  0  0  0  0  0  0  0  0  0
  -22.1200   -9.0950   20.4210 C   0  0  0  0  0  3  0  0  0  0  0  0
  -22.8480  -10.2800   20.2300 C   0  0  0  0  0  3  0  0  0  0  0  0
  -21.7950   -6.9880   21.4460 O   0  0  0  0  0  0  0  0  0  0  0  0
  -21.7490   -6.2560   22.6050 C   0  0  0  0  0  0  0  0  0  0  0  0
  -21.3290   -6.8230   23.8280 C   0  0  0  0  0  3  0  0  0  0  0  0
  -21.2290   -6.0180   24.9800 C   0  0  0  0  0  3  0  0  0  0  0  0
  -21.5380   -4.6460   24.9120 C   0  0  0  0  0  0  0  0  0  0  0  0
  -21.9510   -4.0790   23.6930 C   0  0  0  0  0  3  0  0  0  0  0  0
  -22.0540   -4.8810   22.5440 C   0  0  0  0  0  0  0  0  0  0  0  0
  -22.4340   -4.3240   21.3680 F   0  0  0  0  0  0  0  0  0  0  0  0
  -21.4320   -3.8720   26.0160 F   0  0  0  0  0  0  0  0  0  0  0  0
  -22.9390  -13.6240   21.2300 C   0  0  0  0  0  0  0  0  0  0  0  0
  -22.2530  -12.9130   22.1190 N   0  0  0  0  0  0  0  0  0  0  0  0
  -22.4850  -14.6680   20.7640 O   0  0  0  0  0  0  0  0  0  0  0  0
  -22.6340  -12.0690   22.5180 H   0  0  0  0  0  0  0  0  0  0  0  0
  -21.3360  -13.2200   22.4080 H   0  0  0  0  0  0  0  0  0  0  0  0
  -25.5360  -15.2800   20.3030 N   0  0  0  0  0  0  0  0  0  0  0  0
  -24.7950  -15.9400   20.5130 H   0  0  0  0  0  0  0  0  0  0  0  0
  -26.3900  -15.7280   20.0010 H   0  0  0  0  0  0  0  0  0  0  0  0
  1  2  2  0
  3  1  1  0
  4  6  1  0
  5  4  1  0
  5  8  1  0
  5  3  1  0
  6  1  1  0
  6  7  1  1
  9 20  2  0
 10  8  1  0
 10 15  1  0
 11 19  1  0
 11 21  1  0
 12 18  1  0
 12 14  1  0
 13 19  1  0
 14 15  2  0
 14 13  1  0
 16 10  2  0
 17 16  1  0
 17 12  2  0
 18 11  1  0
 19  9  1  0
 21 23  2  0
 22 21  1  0
 24 22  1  0
 25 34  2  0
 25 30  1  0
 26 22  1  0
 26 30  1  0
 27 26  1  0
 28 29  1  0
 28 27  1  0
 29 25  1  0
 30 31  2  0
 31 32  1  0
 33 32  2  0
 34 33  1  0
 35  9  1  0
 35 36  1  0
 35 45  1  0
 36 39  1  0
 37 41  1  0
 37 36  1  0
 38 37  2  0
 41 40  1  0
 43 41  1  0
 43 44  1  0
 43 42  1  0
 45 48  1  1
 45 46  1  0
 47 45  1  0
 49 53  1  0
 49  6  1  0
 50 54  1  0
 51 55  1  0
 51 50  2  0
 52 56  1  0
 53 52  1  0
 54 52  2  0
 54 67  1  0
 55 53  2  0
 57 55  1  0
 58 67  1  0
 59 64  1  0
 60 61  1  0
 60 59  1  0
 62 61  1  0
 62 71  1  0
 62 63  1  0
 64 58  1  0
 64 63  1  0
 65 58  2  0
 67 66  1  0
 68 69  2  0
 69 88  1  0
 70 69  1  0
 70 73  1  0
 71 72  1  0
 71 68  1  0
 72 70  2  0
 73 74  1  0
 74 75  2  0
 76 79  1  0
 76 75  1  0
 77 76  2  0
 78 77  1  0
 78 73  2  0
 79 80  1  0
 80 81  1  0
 81 82  2  0
 83 82  1  0
 83 87  1  0
 84 83  2  0
 85 80  2  0
 85 84  1  0
 86 85  1  0
 88 89  1  0
 89 92  1  0
 89 91  1  0
 90 88  2  0
 93 68  1  0
 93 94  1  0
 95 93  1  0
M  ISO  4   5 101   8 101  58 100  67 100
M  END
>  <TORSDO>  (81) 
F 18

>  <SCORE>  (81) 
-14.922

>  <name>  (81) 
80

>  <ligand_id>  (81) 
80

>  <original_smiles>  (81) 
[H]C([H])=C1C([H])([H])C([H])(Oc2c([H])c([H])c3c(c2[H])C([H])([H])N(C(=O)C([H])(N([H])C(=O)C([H])(N([H])C([H])([H])[H])C([H])([H])[H])C(C([H])([H])[H])(C([H])([H])[H])C([H])([H])[H])C([H])(C(=O)N([H])C2([H])c4c([H])c([H])c([H])c([H])c4C([H])([H])C([H])([H])C2([H])[H])C3([H])[H])C([H])([H])[N+]1([H])C([H])([H])c1c(Cl)c([H])c([H])c(N(C(=O)N2C([H])([H])C([H])([H])C([H])([H])C([H])(n3nc(-c4c([H])c([H])c(Oc5c([H])c([H])c(F)c([H])c5F)c([H])c4[H])c(C(=O)N([H])[H])c3N([H])[H])C2([H])[H])C([H])([H])[H])c1C([H])([H])[H]

>  <smiles>  (81) 
[H]C([H])=C1C([H])([H])C([H])(Oc2c([H])c([H])c3c(c2[H])C([H])([H])N(C(=O)C([H])(N([H])C(=O)C([H])(N([H])C([H])([H])[H])C([H])([H])[H])C(C([H])([H])[H])(C([H])([H])[H])C([H])([H])[H])C([H])(C(=O)N([H])C2([H])c4c([H])c([H])c([H])c([H])c4C([H])([H])C([H])([H])C2([H])[H])C3([H])[H])C([H])([H])[N+]1([H])C([H])([H])c1c(Cl)c([H])c([H])c(N(C(=O)N2C([H])([H])C([H])([H])C([H])([H])C([H])(n3nc(-c4c([H])c([H])c(Oc5c([H])c([H])c(F)c([H])c5F)c([H])c4[H])c(C(=O)N([H])[H])c3N([H])[H])C2([H])[H])C([H])([H])[H])c1C([H])([H])[H]

$$$$
81:0:0
     RDKit          3D

 95104  0  0  1  0  0  0  0  0999 V2000
  -29.9560  -20.2160   19.8020 C   0  0  0  0  0  3  0  0  0  0  0  0
  -28.6370  -20.6910   19.5960 C   0  0  0  0  0  0  0  0  0  0  0  0
  -27.6390  -19.7120   19.3170 C   0  0  0  0  0  0  0  0  0  0  0  0
  -27.9640  -18.3230   19.2080 C   0  0  0  0  0  0  0  0  0  0  0  0
  -29.2960  -17.8490   19.4370 C   0  0  0  0  0  0  0  0  0  0  0  0
  -30.2840  -18.8360   19.7220 C   0  0  0  0  0  0  0  0  0  0  0  0
  -26.1830  -20.1570   19.1290 C   0  0  0  0  0  1  0  0  0  0  0  0
  -26.8370  -17.3520   18.8340 C   0  0  0  0  0  1  0  0  0  0  0  0
  -31.9460  -18.4160   19.9410 Cl  0  0  0  0  0  0  0  0  0  0  0  0
  -29.6290  -16.3260   19.2590 C   0  0  0  0  0  2  0  0  0  0  0  0
  -31.5010  -14.5610   19.3570 C   0  0  0  0  0  0  0  0  0  0  0  0
  -31.2710  -12.1030   19.2180 C   0  0  0  0  0  2  0  0  0  0  0  0
  -30.3240  -11.7000   18.0690 C   0  0  0  0  0  2  0  0  0  0  0  0
  -28.8680  -11.6510   18.5660 C   0  0  0  0  0  2  0  0  0  0  0  0
  -28.4730  -12.9330   19.3410 C   0  0  0  0  0  3  0  0  0  0  0  0
  -29.5370  -13.3000   20.4020 C   0  0  0  0  0  2  0  0  0  0  0  0
  -30.8360  -13.4220   19.7220 N   0  0  0  0  0  0  0  0  0  0  0  0
  -32.6250  -14.5100   18.8610 O   0  0  0  0  0  0  0  0  0  0  0  0
  -30.9740  -15.7960   19.5590 N   0  0  0  0  0  0  0  0  0  0  0  0
  -31.6840  -16.5020   19.4410 H   0  0  0  0  0  0  0  0  0  0  0  0
  -26.2500  -13.8380   20.2580 C   0  0  0  0  0  0  0  0  0  0  0  0
  -25.1160  -13.2100   20.6930 C   0  0  0  0  0  0  0  0  0  0  0  0
  -25.3740  -11.8110   20.5730 C   0  0  0  0  0  0  0  0  0  0  0  0
  -27.1380  -12.8300   19.9190 N   0  0  0  0  0  0  0  0  0  0  0  0
  -26.6170  -11.6020   20.1640 N   0  0  0  0  0  0  0  0  0  0  0  0
  -24.4880  -10.6560   20.7620 C   0  0  0  0  0  0  0  0  0  0  0  0
  -24.8370   -9.5910   21.6210 C   0  0  0  0  0  3  0  0  0  0  0  0
  -23.9600   -8.5000   21.7960 C   0  0  0  0  0  3  0  0  0  0  0  0
  -22.7200   -8.4680   21.1160 C   0  0  0  0  0  0  0  0  0  0  0  0
  -22.3900   -9.5200   20.2430 C   0  0  0  0  0  3  0  0  0  0  0  0
  -23.2660  -10.6030   20.0640 C   0  0  0  0  0  3  0  0  0  0  0  0
  -21.8170   -7.4380   21.2090 O   0  0  0  0  0  0  0  0  0  0  0  0
  -21.7140   -6.6730   22.3440 C   0  0  0  0  0  0  0  0  0  0  0  0
  -21.3940   -7.2390   23.5980 C   0  0  0  0  0  3  0  0  0  0  0  0
  -21.2300   -6.4070   24.7230 C   0  0  0  0  0  3  0  0  0  0  0  0
  -21.3770   -5.0130   24.5970 C   0  0  0  0  0  0  0  0  0  0  0  0
  -21.6920   -4.4480   23.3490 C   0  0  0  0  0  3  0  0  0  0  0  0
  -21.8590   -5.2770   22.2260 C   0  0  0  0  0  0  0  0  0  0  0  0
  -22.1430   -4.7270   21.0210 F   0  0  0  0  0  0  0  0  0  0  0  0
  -21.2120   -4.2120   25.6750 F   0  0  0  0  0  0  0  0  0  0  0  0
  -23.8280  -13.8700   21.0910 C   0  0  0  0  0  0  0  0  0  0  0  0
  -23.0840  -13.2610   22.0080 N   0  0  0  0  0  0  0  0  0  0  0  0
  -23.4940  -14.9590   20.6250 O   0  0  0  0  0  0  0  0  0  0  0  0
  -23.3640  -12.3750   22.4040 H   0  0  0  0  0  0  0  0  0  0  0  0
  -22.2200  -13.6850   22.3160 H   0  0  0  0  0  0  0  0  0  0  0  0
  -26.5840  -15.1760   20.0930 N   0  0  0  0  0  0  0  0  0  0  0  0
  -25.9080  -15.9130   20.2590 H   0  0  0  0  0  0  0  0  0  0  0  0
  -27.4240  -15.5050   19.6380 H   0  0  0  0  0  0  0  0  0  0  0  0
  -28.2270  -22.1960   19.7130 C   0  0  0  0  0  2  0  0  0  0  0  0
  -28.6340  -24.3310   18.3790 C   0  0  0  0  0  2  0  0  0  0  0  0
  -29.3200  -24.3980   20.3030 C   0  0  0  0  0  2  0  0  0  0  0  0
  -28.2260  -25.2010   19.5850 C   0  0  0  0  0  3  0  0  0  0  0  0
  -29.1610  -23.3070   19.3130 N   0  0  1  0  0  4  0  0  0  0  0  0
  -30.0540  -22.9440   19.0190 H   0  0  0  0  0  0  0  0  0  0  0  0
  -28.4410  -26.6430   19.5480 O   0  0  0  0  0  0  0  0  0  0  0  0
  -24.6590  -31.5830   23.1050 C   0  0  0  0  0  0  0  0  0  0  0  0
  -27.2970  -27.4250   19.6050 C   0  0  0  0  0  0  0  0  0  0  0  0
  -23.4570  -30.3490   21.3320 C   0  0  0  0  0  3  0  0  0  0  0  0
  -24.9130  -28.9580   19.7630 C   0  0  0  0  0  0  0  0  0  0  0  0
  -25.9880  -30.7140   21.1760 C   0  0  0  0  0  2  0  0  0  0  0  0
  -26.0760  -29.4130   20.4010 C   0  0  0  0  0  0  0  0  0  0  0  0
  -27.2750  -28.6570   20.3110 C   0  0  0  0  0  3  0  0  0  0  0  0
  -26.1150  -27.0000   18.9620 C   0  0  0  0  0  3  0  0  0  0  0  0
  -24.9290  -27.7560   19.0380 C   0  0  0  0  0  3  0  0  0  0  0  0
  -23.6720  -29.8150   19.8910 C   0  0  0  0  0  2  0  0  0  0  0  0
  -24.7210  -30.8920   21.9300 N   0  0  0  0  0  0  0  0  0  0  0  0
  -23.5750  -31.8020   23.6650 O   0  0  0  0  0  0  0  0  0  0  0  0
  -22.8000  -29.2390   22.1840 C   0  0  0  0  0  0  0  0  0  0  0  0
  -21.4700  -29.0970   22.0660 N   0  0  0  0  0  0  0  0  0  0  0  0
  -23.4850  -28.5110   22.9080 O   0  0  0  0  0  0  0  0  0  0  0  0
  -20.9780  -29.7410   21.4630 H   0  0  0  0  0  0  0  0  0  0  0  0
  -18.0740  -27.9520   22.5480 C   0  0  0  0  0  0  0  0  0  0  0  0
  -20.6480  -28.0910   22.7420 C   0  0  0  0  0  3  0  0  0  0  0  0
  -20.6750  -26.7450   21.9790 C   0  0  0  0  0  2  0  0  0  0  0  0
  -19.5270  -26.5950   20.9790 C   0  0  0  0  0  2  0  0  0  0  0  0
  -18.1750  -26.6990   21.6930 C   0  0  0  0  0  2  0  0  0  0  0  0
  -19.2360  -28.6130   23.0260 C   0  0  0  0  0  0  0  0  0  0  0  0
  -19.0850  -29.7930   23.7860 C   0  0  0  0  0  3  0  0  0  0  0  0
  -17.8080  -30.3130   24.0660 C   0  0  0  0  0  3  0  0  0  0  0  0
  -16.6610  -29.6430   23.6050 C   0  0  0  0  0  3  0  0  0  0  0  0
  -16.7960  -28.4630   22.8510 C   0  0  0  0  0  3  0  0  0  0  0  0
  -25.9420  -32.1490   23.7890 C   0  0  0  0  0  3  0  0  0  0  0  0
  -26.4030  -31.3070   25.0420 C   0  0  1  0  0  0  0  0  0  0  0  0
  -25.2760  -31.0630   26.0720 C   0  0  0  0  0  1  0  0  0  0  0  0
  -26.9510  -29.9300   24.6040 C   0  0  0  0  0  1  0  0  0  0  0  0
  -27.5620  -32.0350   25.7660 C   0  0  0  0  0  1  0  0  0  0  0  0
  -25.6630  -33.5400   24.1720 N   0  0  0  0  0  0  0  0  0  0  0  0
  -26.0310  -34.6130   23.4580 C   0  0  0  0  0  0  0  0  0  0  0  0
  -26.7140  -34.5340   22.4330 O   0  0  0  0  0  0  0  0  0  0  0  0
  -25.0680  -33.6780   24.9760 H   0  0  0  0  0  0  0  0  0  0  0  0
  -24.3440  -36.4530   23.1630 C   0  0  0  0  0  1  0  0  0  0  0  0
  -25.5710  -35.9920   23.9660 C   0  0  0  0  0  3  0  0  0  0  0  0
  -27.7170  -36.8020   24.8440 C   0  0  0  0  0  1  0  0  0  0  0  0
  -26.6270  -37.0260   23.8970 N   0  0  0  0  0  0  0  0  0  0  0  0
  -26.2390  -37.9490   24.0730 H   0  0  0  0  0  0  0  0  0  0  0  0
  2 49  1  0
  2  1  2  0
  3  2  1  0
  4  3  2  0
  4  5  1  0
  5  6  2  0
  6  1  1  0
  6  9  1  0
  7  3  1  0
  8  4  1  0
 10  5  1  0
 10 19  1  0
 11 19  1  0
 11 17  1  0
 12 17  1  0
 13 14  1  0
 13 12  1  0
 15 14  1  0
 15 24  1  0
 15 16  1  0
 17 16  1  0
 18 11  2  0
 20 19  1  0
 21 22  2  0
 22 41  1  0
 23 22  1  0
 23 26  1  0
 24 25  1  0
 24 21  1  0
 25 23  2  0
 26 27  1  0
 27 28  2  0
 29 32  1  0
 29 28  1  0
 30 29  2  0
 31 30  1  0
 31 26  2  0
 32 33  1  0
 33 34  1  0
 34 35  2  0
 36 35  1  0
 36 40  1  0
 37 36  2  0
 38 33  2  0
 38 37  1  0
 39 38  1  0
 41 42  1  0
 42 45  1  0
 42 44  1  0
 43 41  2  0
 46 21  1  0
 46 47  1  0
 48 46  1  0
 50 53  1  0
 50 52  1  0
 52 55  1  0
 52 51  1  0
 53 49  1  0
 53 51  1  0
 53 54  1  6
 55 57  1  0
 56 67  2  0
 57 62  1  0
 58 66  1  0
 58 68  1  0
 59 65  1  0
 59 61  1  0
 60 66  1  0
 61 60  1  0
 62 61  2  0
 63 64  1  0
 63 57  2  0
 64 59  2  0
 65 58  1  0
 66 56  1  0
 68 70  2  0
 69 68  1  0
 71 69  1  0
 72 81  2  0
 72 77  1  0
 73 69  1  0
 73 77  1  0
 74 73  1  0
 75 76  1  0
 75 74  1  0
 76 72  1  0
 77 78  2  0
 78 79  1  0
 80 79  2  0
 81 80  1  0
 82 56  1  0
 82 87  1  0
 82 83  1  0
 83 86  1  1
 83 84  1  0
 85 83  1  0
 87 90  1  0
 88 92  1  0
 88 87  1  0
 89 88  2  0
 92 91  1  0
 94 92  1  0
 94 95  1  0
 94 93  1  0
M  ISO  4  11 100  19 100  52 101  55 101
M  END
>  <TORSDO>  (82) 
F 19

>  <SCORE>  (82) 
-12.406

>  <name>  (82) 
81

>  <ligand_id>  (82) 
81

>  <original_smiles>  (82) 
[H]c1c([H])c([H])c2c(c1[H])C([H])([H])C([H])([H])C([H])([H])C2([H])N([H])C(=O)C1([H])N(C(=O)C([H])(N([H])C(=O)C([H])(N([H])C([H])([H])[H])C([H])([H])[H])C(C([H])([H])[H])(C([H])([H])[H])C([H])([H])[H])C([H])([H])c2c([H])c(OC3([H])C([H])([H])[N+]([H])(C([H])([H])c4c([H])c(Cl)c(C([H])([H])N([H])C(=O)N5C([H])([H])C([H])([H])C([H])([H])C([H])(n6nc(-c7c([H])c([H])c(Oc8c([H])c([H])c(F)c([H])c8F)c([H])c7[H])c(C(=O)N([H])[H])c6N([H])[H])C5([H])[H])c(C([H])([H])[H])c4C([H])([H])[H])C3([H])[H])c([H])c([H])c2C1([H])[H]

>  <smiles>  (82) 
[H]c1c([H])c([H])c2c(c1[H])C([H])([H])C([H])([H])C([H])([H])C2([H])N([H])C(=O)C1([H])N(C(=O)C([H])(N([H])C(=O)C([H])(N([H])C([H])([H])[H])C([H])([H])[H])C(C([H])([H])[H])(C([H])([H])[H])C([H])([H])[H])C([H])([H])c2c([H])c(OC3([H])C([H])([H])[N+]([H])(C([H])([H])c4c([H])c(Cl)c(C([H])([H])N([H])C(=O)N5C([H])([H])C([H])([H])C([H])([H])C([H])(n6nc(-c7c([H])c([H])c(Oc8c([H])c([H])c(F)c([H])c8F)c([H])c7[H])c(C(=O)N([H])[H])c6N([H])[H])C5([H])[H])c(C([H])([H])[H])c4C([H])([H])[H])C3([H])[H])c([H])c([H])c2C1([H])[H]

$$$$
82:0:0
     RDKit          3D

 96105  0  0  1  0  0  0  0  0999 V2000
  -28.7210  -21.1580   19.9910 C   0  0  0  0  0  2  0  0  0  0  0  0
  -29.5430  -18.5670   19.9460 C   0  0  0  0  0  3  0  0  0  0  0  0
  -29.4960  -19.8730   20.6030 C   0  0  0  0  0  0  0  0  0  0  0  0
  -30.0330  -19.8990   21.9260 C   0  0  0  0  0  0  0  0  0  0  0  0
  -30.6780  -18.7540   22.4870 C   0  0  0  0  0  0  0  0  0  0  0  0
  -30.1150  -17.3570   20.5300 C   0  0  0  0  0  0  0  0  0  0  0  0
  -30.6850  -17.5000   21.8200 C   0  0  0  0  0  0  0  0  0  0  0  0
  -29.8310  -21.1250   22.8130 C   0  0  0  0  0  1  0  0  0  0  0  0
  -31.3220  -18.8140   23.8780 C   0  0  0  0  0  1  0  0  0  0  0  0
  -31.2750  -16.1110   22.6830 Cl  0  0  0  0  0  0  0  0  0  0  0  0
  -30.7420  -14.8580   19.9250 C   0  0  0  0  0  0  0  0  0  0  0  0
  -30.4760  -12.5690   18.9350 C   0  0  0  0  0  2  0  0  0  0  0  0
  -29.4720  -12.6380   17.7640 C   0  0  0  0  0  2  0  0  0  0  0  0
  -28.0240  -12.5020   18.2750 C   0  0  0  0  0  2  0  0  0  0  0  0
  -27.7300  -13.4120   19.4930 C   0  0  0  0  0  3  0  0  0  0  0  0
  -28.8440  -13.3160   20.5560 C   0  0  0  0  0  2  0  0  0  0  0  0
  -30.1040  -13.6410   19.8820 N   0  0  0  0  0  0  0  0  0  0  0  0
  -31.9360  -14.9410   19.6230 O   0  0  0  0  0  0  0  0  0  0  0  0
  -29.9280  -15.9840   19.9850 N   0  0  0  0  0  0  0  0  0  0  0  0
  -28.9570  -15.7590   19.8440 H   0  0  0  0  0  0  0  0  0  0  0  0
  -25.4110  -14.0840   20.3620 C   0  0  0  0  0  0  0  0  0  0  0  0
  -24.3370  -13.3480   20.7720 C   0  0  0  0  0  0  0  0  0  0  0  0
  -24.7430  -11.9790   20.6940 C   0  0  0  0  0  0  0  0  0  0  0  0
  -26.4050  -13.1690   20.0540 N   0  0  0  0  0  0  0  0  0  0  0  0
  -26.0130  -11.8960   20.3160 N   0  0  0  0  0  0  0  0  0  0  0  0
  -23.9790  -10.7440   20.9030 C   0  0  0  0  0  0  0  0  0  0  0  0
  -24.3990   -9.7610   21.8270 C   0  0  0  0  0  3  0  0  0  0  0  0
  -23.6360   -8.5910   22.0230 C   0  0  0  0  0  3  0  0  0  0  0  0
  -22.4380   -8.3930   21.2960 C   0  0  0  0  0  0  0  0  0  0  0  0
  -22.0360   -9.3630   20.3620 C   0  0  0  0  0  3  0  0  0  0  0  0
  -22.7980  -10.5260   20.1640 C   0  0  0  0  0  3  0  0  0  0  0  0
  -21.6470   -7.2740   21.4000 O   0  0  0  0  0  0  0  0  0  0  0  0
  -21.5650   -6.5590   22.5680 C   0  0  0  0  0  0  0  0  0  0  0  0
  -21.1510   -7.1530   23.7790 C   0  0  0  0  0  3  0  0  0  0  0  0
  -21.0160   -6.3660   24.9400 C   0  0  0  0  0  3  0  0  0  0  0  0
  -21.2860   -4.9850   24.8890 C   0  0  0  0  0  0  0  0  0  0  0  0
  -21.6930   -4.3900   23.6820 C   0  0  0  0  0  3  0  0  0  0  0  0
  -21.8310   -5.1750   22.5240 C   0  0  0  0  0  0  0  0  0  0  0  0
  -22.2050   -4.5940   21.3580 F   0  0  0  0  0  0  0  0  0  0  0  0
  -21.1470   -4.2270   26.0010 F   0  0  0  0  0  0  0  0  0  0  0  0
  -22.9750  -13.8750   21.1210 C   0  0  0  0  0  0  0  0  0  0  0  0
  -22.2730  -13.2030   22.0240 N   0  0  0  0  0  0  0  0  0  0  0  0
  -22.5460  -14.9180   20.6280 O   0  0  0  0  0  0  0  0  0  0  0  0
  -22.6320  -12.3560   22.4390 H   0  0  0  0  0  0  0  0  0  0  0  0
  -21.3650  -13.5430   22.3100 H   0  0  0  0  0  0  0  0  0  0  0  0
  -25.6210  -15.4540   20.2090 N   0  0  0  0  0  0  0  0  0  0  0  0
  -24.8860  -16.1260   20.3980 H   0  0  0  0  0  0  0  0  0  0  0  0
  -26.4750  -15.8830   19.8820 H   0  0  0  0  0  0  0  0  0  0  0  0
  -30.1310  -23.2530   19.2460 C   0  0  0  0  0  0  0  0  0  0  0  0
  -31.2470  -22.6490   18.7950 C   0  0  0  0  0  2  0  0  0  0  0  0
  -29.7040  -24.7050   18.9540 C   0  0  0  0  0  2  0  0  0  0  0  0
  -28.1370  -23.7290   20.4910 C   0  0  0  0  0  2  0  0  0  0  0  0
  -28.3130  -25.0120   19.5490 C   0  0  0  0  0  3  0  0  0  0  0  0
  -29.1740  -22.6330   20.2170 N   0  0  1  0  0  4  0  0  0  0  0  0
  -29.6680  -22.5560   21.0940 H   0  0  0  0  0  0  0  0  0  0  0  0
  -28.2490  -26.4540   20.0390 O   0  0  0  0  0  0  0  0  0  0  0  0
  -24.5340  -31.9010   23.1170 C   0  0  0  0  0  0  0  0  0  0  0  0
  -27.1120  -27.3070   20.0000 C   0  0  0  0  0  0  0  0  0  0  0  0
  -23.3110  -30.5080   21.4870 C   0  0  0  0  0  3  0  0  0  0  0  0
  -24.7440  -28.9610   20.0290 C   0  0  0  0  0  0  0  0  0  0  0  0
  -25.8500  -30.8200   21.2730 C   0  0  0  0  0  2  0  0  0  0  0  0
  -25.9230  -29.4390   20.6120 C   0  0  0  0  0  0  0  0  0  0  0  0
  -27.1020  -28.6230   20.5870 C   0  0  0  0  0  3  0  0  0  0  0  0
  -25.9010  -26.8930   19.4060 C   0  0  0  0  0  3  0  0  0  0  0  0
  -24.7380  -27.6920   19.4230 C   0  0  0  0  0  3  0  0  0  0  0  0
  -23.5120  -29.8500   20.0980 C   0  0  0  0  0  2  0  0  0  0  0  0
  -24.5850  -31.0940   22.0150 N   0  0  0  0  0  0  0  0  0  0  0  0
  -23.4580  -32.1750   23.6670 O   0  0  0  0  0  0  0  0  0  0  0  0
  -22.6620  -29.4840   22.4480 C   0  0  0  0  0  0  0  0  0  0  0  0
  -21.3310  -29.3200   22.3530 N   0  0  0  0  0  0  0  0  0  0  0  0
  -23.3530  -28.8380   23.2410 O   0  0  0  0  0  0  0  0  0  0  0  0
  -20.8270  -29.8960   21.6940 H   0  0  0  0  0  0  0  0  0  0  0  0
  -17.9600  -28.1480   22.9320 C   0  0  0  0  0  0  0  0  0  0  0  0
  -20.5270  -28.3790   23.1310 C   0  0  0  0  0  3  0  0  0  0  0  0
  -20.5980  -26.9560   22.5320 C   0  0  0  0  0  2  0  0  0  0  0  0
  -19.4670  -26.6590   21.5430 C   0  0  0  0  0  2  0  0  0  0  0  0
  -18.1050  -26.8080   22.2280 C   0  0  0  0  0  2  0  0  0  0  0  0
  -19.0980  -28.8910   23.3430 C   0  0  0  0  0  0  0  0  0  0  0  0
  -18.9100  -30.1460   23.9620 C   0  0  0  0  0  3  0  0  0  0  0  0
  -17.6150  -30.6560   24.1780 C   0  0  0  0  0  3  0  0  0  0  0  0
  -16.4920  -29.9120   23.7840 C   0  0  0  0  0  3  0  0  0  0  0  0
  -16.6640  -28.6590   23.1650 C   0  0  0  0  0  3  0  0  0  0  0  0
  -25.8240  -32.5340   23.7250 C   0  0  0  0  0  3  0  0  0  0  0  0
  -25.5070  -33.9210   24.0910 N   0  0  0  0  0  0  0  0  0  0  0  0
  -25.8140  -34.9950   23.3530 C   0  0  0  0  0  0  0  0  0  0  0  0
  -26.4630  -34.9230   22.3060 O   0  0  0  0  0  0  0  0  0  0  0  0
  -24.9240  -34.0510   24.9050 H   0  0  0  0  0  0  0  0  0  0  0  0
  -24.0700  -36.7900   23.0800 C   0  0  0  0  0  1  0  0  0  0  0  0
  -25.3250  -36.3650   23.8600 C   0  0  0  0  0  3  0  0  0  0  0  0
  -27.4640  -37.2470   24.6850 C   0  0  0  0  0  1  0  0  0  0  0  0
  -26.3470  -37.4300   23.7650 N   0  0  0  0  0  0  0  0  0  0  0  0
  -25.9290  -38.3390   23.9480 H   0  0  0  0  0  0  0  0  0  0  0  0
  -26.3770  -31.7430   24.9760 C   0  0  1  0  0  0  0  0  0  0  0  0
  -25.3070  -31.4780   26.0580 C   0  0  0  0  0  1  0  0  0  0  0  0
  -26.9680  -30.3790   24.5480 C   0  0  0  0  0  1  0  0  0  0  0  0
  -27.5300  -32.5390   25.6300 C   0  0  0  0  0  1  0  0  0  0  0  0
  1 54  1  0
  1  3  1  0
  2  6  2  0
  2  3  1  0
  3  4  2  0
  4  5  1  0
  4  8  1  0
  5  9  1  0
  6  7  1  0
  7  5  2  0
  7 10  1  0
 11 19  1  0
 12 17  1  0
 13 14  1  0
 13 12  1  0
 15 14  1  0
 15 24  1  0
 15 16  1  0
 17 11  1  0
 17 16  1  0
 18 11  2  0
 19  6  1  0
 20 19  1  0
 21 22  2  0
 22 41  1  0
 23 22  1  0
 23 26  1  0
 24 25  1  0
 24 21  1  0
 25 23  2  0
 26 27  1  0
 27 28  2  0
 29 32  1  0
 29 28  1  0
 30 29  2  0
 31 30  1  0
 31 26  2  0
 32 33  1  0
 33 34  1  0
 34 35  2  0
 36 35  1  0
 36 40  1  0
 37 36  2  0
 38 33  2  0
 38 37  1  0
 39 38  1  0
 41 42  1  0
 42 45  1  0
 42 44  1  0
 43 41  2  0
 46 21  1  0
 46 47  1  0
 48 46  1  0
 49 54  1  0
 50 49  2  0
 51 49  1  0
 51 53  1  0
 53 56  1  0
 53 52  1  0
 54 52  1  0
 54 55  1  1
 57 68  2  0
 58 56  1  0
 58 63  1  0
 59 67  1  0
 59 69  1  0
 60 66  1  0
 60 62  1  0
 61 67  1  0
 62 61  1  0
 63 62  2  0
 64 65  1  0
 64 58  2  0
 65 60  2  0
 66 59  1  0
 67 57  1  0
 69 71  2  0
 70 69  1  0
 72 70  1  0
 73 82  2  0
 73 78  1  0
 74 70  1  0
 74 78  1  0
 75 74  1  0
 76 77  1  0
 76 75  1  0
 77 73  1  0
 78 79  2  0
 79 80  1  0
 81 80  2  0
 82 81  1  0
 83 57  1  0
 83 84  1  0
 83 93  1  0
 84 87  1  0
 85 89  1  0
 85 84  1  0
 86 85  2  0
 89 88  1  0
 91 89  1  0
 91 92  1  0
 91 90  1  0
 93 96  1  1
 93 94  1  0
 95 93  1  0
M  ISO  4  11 100  19 100  53 101  56 101
M  END
>  <TORSDO>  (83) 
F 18

>  <SCORE>  (83) 
-12.957

>  <name>  (83) 
82

>  <ligand_id>  (83) 
82

>  <original_smiles>  (83) 
[H]C([H])=C1C([H])([H])C([H])(Oc2c([H])c([H])c3c(c2[H])C([H])([H])N(C(=O)C([H])(N([H])C(=O)C([H])(N([H])C([H])([H])[H])C([H])([H])[H])C(C([H])([H])[H])(C([H])([H])[H])C([H])([H])[H])C([H])(C(=O)N([H])C2([H])c4c([H])c([H])c([H])c([H])c4C([H])([H])C([H])([H])C2([H])[H])C3([H])[H])C([H])([H])[N+]1([H])C([H])([H])c1c([H])c(N([H])C(=O)N2C([H])([H])C([H])([H])C([H])([H])C([H])(n3nc(-c4c([H])c([H])c(Oc5c([H])c([H])c(F)c([H])c5F)c([H])c4[H])c(C(=O)N([H])[H])c3N([H])[H])C2([H])[H])c(Cl)c(C([H])([H])[H])c1C([H])([H])[H]

>  <smiles>  (83) 
[H]C([H])=C1C([H])([H])C([H])(Oc2c([H])c([H])c3c(c2[H])C([H])([H])N(C(=O)C([H])(N([H])C(=O)C([H])(N([H])C([H])([H])[H])C([H])([H])[H])C(C([H])([H])[H])(C([H])([H])[H])C([H])([H])[H])C([H])(C(=O)N([H])C2([H])c4c([H])c([H])c([H])c([H])c4C([H])([H])C([H])([H])C2([H])[H])C3([H])[H])C([H])([H])[N+]1([H])C([H])([H])c1c([H])c(N([H])C(=O)N2C([H])([H])C([H])([H])C([H])([H])C([H])(n3nc(-c4c([H])c([H])c(Oc5c([H])c([H])c(F)c([H])c5F)c([H])c4[H])c(C(=O)N([H])[H])c3N([H])[H])C2([H])[H])c(Cl)c(C([H])([H])[H])c1C([H])([H])[H]

$$$$
83:0:0
     RDKit          3D

 94103  0  0  1  0  0  0  0  0999 V2000
  -30.3920  -23.5370   20.6340 C   0  0  0  0  0  0  0  0  0  0  0  0
  -31.5320  -23.0760   21.1800 C   0  0  0  0  0  2  0  0  0  0  0  0
  -30.1590  -24.9450   20.0890 C   0  0  0  0  0  2  0  0  0  0  0  0
  -28.0480  -23.8610   20.4190 C   0  0  0  0  0  2  0  0  0  0  0  0
  -28.6640  -25.1710   19.7870 C   0  0  0  0  0  3  0  0  0  0  0  0
  -29.1090  -22.7740   20.5710 N   0  0  1  0  0  4  0  0  0  0  0  0
  -28.9270  -22.3390   21.4630 H   0  0  0  0  0  0  0  0  0  0  0  0
  -28.4030  -26.5550   20.2600 O   0  0  0  0  0  0  0  0  0  0  0  0
  -24.6450  -31.8860   23.2170 C   0  0  0  0  0  0  0  0  0  0  0  0
  -27.2300  -27.3180   20.1550 C   0  0  0  0  0  0  0  0  0  0  0  0
  -23.4160  -30.4820   21.5920 C   0  0  0  0  0  3  0  0  0  0  0  0
  -24.8480  -28.9090   20.1540 C   0  0  0  0  0  0  0  0  0  0  0  0
  -25.9450  -30.8000   21.3710 C   0  0  0  0  0  2  0  0  0  0  0  0
  -26.0140  -29.4150   20.7360 C   0  0  0  0  0  0  0  0  0  0  0  0
  -27.1980  -28.6270   20.7310 C   0  0  0  0  0  3  0  0  0  0  0  0
  -26.0470  -26.8530   19.5460 C   0  0  0  0  0  3  0  0  0  0  0  0
  -24.8660  -27.6360   19.5500 C   0  0  0  0  0  3  0  0  0  0  0  0
  -23.6090  -29.7840   20.2150 C   0  0  0  0  0  2  0  0  0  0  0  0
  -24.6880  -31.0750   22.1180 N   0  0  0  0  0  0  0  0  0  0  0  0
  -23.5700  -32.1690   23.7640 O   0  0  0  0  0  0  0  0  0  0  0  0
  -22.7610  -29.4790   22.5700 C   0  0  0  0  0  0  0  0  0  0  0  0
  -21.4330  -29.3040   22.4600 N   0  0  0  0  0  0  0  0  0  0  0  0
  -23.4470  -28.8560   23.3860 O   0  0  0  0  0  0  0  0  0  0  0  0
  -20.9390  -29.8570   21.7730 H   0  0  0  0  0  0  0  0  0  0  0  0
  -18.0610  -28.1050   22.9830 C   0  0  0  0  0  0  0  0  0  0  0  0
  -20.6220  -28.3720   23.2420 C   0  0  0  0  0  3  0  0  0  0  0  0
  -20.7260  -26.9360   22.6790 C   0  0  0  0  0  2  0  0  0  0  0  0
  -19.6210  -26.6020   21.6720 C   0  0  0  0  0  2  0  0  0  0  0  0
  -18.2390  -26.7490   22.3190 C   0  0  0  0  0  2  0  0  0  0  0  0
  -19.1810  -28.8730   23.4020 C   0  0  0  0  0  0  0  0  0  0  0  0
  -18.9610  -30.1400   23.9830 C   0  0  0  0  0  3  0  0  0  0  0  0
  -17.6550  -30.6400   24.1490 C   0  0  0  0  0  3  0  0  0  0  0  0
  -16.5510  -29.8680   23.7470 C   0  0  0  0  0  3  0  0  0  0  0  0
  -16.7550  -28.6030   23.1690 C   0  0  0  0  0  3  0  0  0  0  0  0
  -25.9380  -32.5150   23.8230 C   0  0  0  0  0  3  0  0  0  0  0  0
  -25.6290  -33.9080   24.1810 N   0  0  0  0  0  0  0  0  0  0  0  0
  -25.9410  -34.9730   23.4310 C   0  0  0  0  0  0  0  0  0  0  0  0
  -26.5890  -34.8880   22.3860 O   0  0  0  0  0  0  0  0  0  0  0  0
  -25.0450  -34.0480   24.9920 H   0  0  0  0  0  0  0  0  0  0  0  0
  -24.1940  -36.7630   23.1500 C   0  0  0  0  0  1  0  0  0  0  0  0
  -25.4610  -36.3540   23.9190 C   0  0  0  0  0  3  0  0  0  0  0  0
  -27.6190  -37.2390   24.6900 C   0  0  0  0  0  1  0  0  0  0  0  0
  -26.4830  -37.4150   23.7890 N   0  0  0  0  0  0  0  0  0  0  0  0
  -26.0780  -38.3310   23.9650 H   0  0  0  0  0  0  0  0  0  0  0  0
  -26.4810  -31.7290   25.0800 C   0  0  1  0  0  0  0  0  0  0  0  0
  -25.4120  -31.4760   26.1680 C   0  0  0  0  0  1  0  0  0  0  0  0
  -27.0560  -30.3570   24.6590 C   0  0  0  0  0  1  0  0  0  0  0  0
  -27.6440  -32.5140   25.7280 C   0  0  0  0  0  1  0  0  0  0  0  0
  -29.1140  -21.6170   19.5720 C   0  0  0  0  0  2  0  0  0  0  0  0
  -30.1690  -19.5270   20.9360 C   0  0  0  0  0  3  0  0  0  0  0  0
  -30.3410  -18.1130   21.1110 C   0  0  0  0  0  3  0  0  0  0  0  0
  -28.6220  -19.1030   19.1630 C   0  0  0  0  0  3  0  0  0  0  0  0
  -29.2900  -20.0770   19.9550 C   0  0  0  0  0  0  0  0  0  0  0  0
  -28.7960  -17.6950   19.3140 C   0  0  0  0  0  0  0  0  0  0  0  0
  -29.6510  -17.1530   20.3190 C   0  0  0  0  0  0  0  0  0  0  0  0
  -28.0460  -16.7980   18.3370 C   0  0  0  0  0  1  0  0  0  0  0  0
  -30.5260  -14.6930   20.5760 C   0  0  0  0  0  0  0  0  0  0  0  0
  -30.4180  -12.4030   19.6170 C   0  0  0  0  0  2  0  0  0  0  0  0
  -29.5190  -12.5060   18.3640 C   0  0  0  0  0  2  0  0  0  0  0  0
  -28.0250  -12.3640   18.7290 C   0  0  0  0  0  2  0  0  0  0  0  0
  -27.6150  -13.2260   19.9540 C   0  0  0  0  0  3  0  0  0  0  0  0
  -28.6410  -13.1010   21.1030 C   0  0  0  0  0  2  0  0  0  0  0  0
  -29.9630  -13.4440   20.5580 N   0  0  0  0  0  0  0  0  0  0  0  0
  -31.7250  -14.8690   20.3370 O   0  0  0  0  0  0  0  0  0  0  0  0
  -29.6160  -15.7210   20.6390 N   0  0  0  0  0  0  0  0  0  0  0  0
  -28.6820  -15.3500   20.7170 H   0  0  0  0  0  0  0  0  0  0  0  0
  -25.1970  -13.8260   20.5780 C   0  0  0  0  0  0  0  0  0  0  0  0
  -24.1200  -13.0530   20.9130 C   0  0  0  0  0  0  0  0  0  0  0  0
  -24.5910  -11.7040   20.9240 C   0  0  0  0  0  0  0  0  0  0  0  0
  -26.2530  -12.9430   20.3960 N   0  0  0  0  0  0  0  0  0  0  0  0
  -25.8910  -11.6630   20.6650 N   0  0  0  0  0  0  0  0  0  0  0  0
  -23.8620  -10.4430   21.1070 C   0  0  0  0  0  0  0  0  0  0  0  0
  -24.2830   -9.4760   22.0460 C   0  0  0  0  0  3  0  0  0  0  0  0
  -23.5500   -8.2810   22.2170 C   0  0  0  0  0  3  0  0  0  0  0  0
  -22.3850   -8.0440   21.4490 C   0  0  0  0  0  0  0  0  0  0  0  0
  -21.9830   -9.0010   20.5010 C   0  0  0  0  0  3  0  0  0  0  0  0
  -22.7150  -10.1860   20.3270 C   0  0  0  0  0  3  0  0  0  0  0  0
  -21.6270   -6.9000   21.5270 O   0  0  0  0  0  0  0  0  0  0  0  0
  -21.5930   -6.1400   22.6680 C   0  0  0  0  0  0  0  0  0  0  0  0
  -21.2080   -6.6820   23.9140 C   0  0  0  0  0  3  0  0  0  0  0  0
  -21.1130   -5.8490   25.0450 C   0  0  0  0  0  3  0  0  0  0  0  0
  -21.3970   -4.4740   24.9350 C   0  0  0  0  0  0  0  0  0  0  0  0
  -21.7760   -3.9320   23.6950 C   0  0  0  0  0  3  0  0  0  0  0  0
  -21.8700   -4.7630   22.5640 C   0  0  0  0  0  0  0  0  0  0  0  0
  -22.2120   -4.2310   21.3660 F   0  0  0  0  0  0  0  0  0  0  0  0
  -21.2990   -3.6710   26.0200 F   0  0  0  0  0  0  0  0  0  0  0  0
  -22.7100  -13.5300   21.1200 C   0  0  0  0  0  0  0  0  0  0  0  0
  -21.9520  -12.8470   21.9710 N   0  0  0  0  0  0  0  0  0  0  0  0
  -22.2880  -14.5410   20.5610 O   0  0  0  0  0  0  0  0  0  0  0  0
  -22.3030  -12.0270   22.4460 H   0  0  0  0  0  0  0  0  0  0  0  0
  -21.0090  -13.1510   22.1550 H   0  0  0  0  0  0  0  0  0  0  0  0
  -25.3590  -15.1980   20.3960 N   0  0  0  0  0  0  0  0  0  0  0  0
  -24.5850  -15.8450   20.4990 H   0  0  0  0  0  0  0  0  0  0  0  0
  -26.2250  -15.6600   20.1600 H   0  0  0  0  0  0  0  0  0  0  0  0
  1  2  2  0
  3  1  1  0
  4  6  1  0
  5  3  1  0
  5  8  1  0
  5  4  1  0
  6  1  1  0
  6  7  1  1
  9 20  2  0
 10  8  1  0
 10 15  1  0
 11 19  1  0
 11 21  1  0
 12 18  1  0
 12 14  1  0
 13 19  1  0
 14 13  1  0
 15 14  2  0
 16 17  1  0
 16 10  2  0
 17 12  2  0
 18 11  1  0
 19  9  1  0
 21 23  2  0
 22 21  1  0
 24 22  1  0
 25 34  2  0
 25 30  1  0
 26 22  1  0
 26 30  1  0
 27 26  1  0
 28 29  1  0
 28 27  1  0
 29 25  1  0
 30 31  2  0
 31 32  1  0
 33 32  2  0
 34 33  1  0
 35  9  1  0
 35 36  1  0
 35 45  1  0
 36 39  1  0
 37 41  1  0
 37 36  1  0
 38 37  2  0
 41 40  1  0
 43 41  1  0
 43 44  1  0
 43 42  1  0
 45 48  1  1
 45 46  1  0
 47 45  1  0
 49 53  1  0
 49  6  1  0
 50 51  1  0
 52 54  2  0
 52 53  1  0
 53 50  2  0
 54 55  1  0
 55 65  1  0
 55 51  2  0
 56 54  1  0
 57 65  1  0
 58 63  1  0
 59 60  1  0
 59 58  1  0
 61 60  1  0
 61 70  1  0
 61 62  1  0
 63 57  1  0
 63 62  1  0
 64 57  2  0
 65 66  1  0
 67 68  2  0
 68 69  1  0
 68 87  1  0
 69 72  1  0
 70 67  1  0
 70 71  1  0
 71 69  2  0
 72 73  1  0
 73 74  2  0
 75 78  1  0
 75 74  1  0
 76 75  2  0
 77 76  1  0
 77 72  2  0
 78 79  1  0
 79 80  1  0
 80 81  2  0
 82 81  1  0
 82 86  1  0
 83 82  2  0
 84 79  2  0
 84 83  1  0
 85 84  1  0
 87 88  1  0
 88 91  1  0
 88 90  1  0
 89 87  2  0
 92 93  1  0
 92 67  1  0
 94 92  1  0
M  ISO  4   5 101   8 101  57 100  65 100
M  END
>  <TORSDO>  (84) 
F 18

>  <SCORE>  (84) 
-14.249

>  <name>  (84) 
83

>  <ligand_id>  (84) 
83

>  <original_smiles>  (84) 
[H]C([H])=C1C([H])([H])C([H])(Oc2c([H])c([H])c3c(c2[H])C([H])([H])N(C(=O)C([H])(N([H])C(=O)C([H])(N([H])C([H])([H])[H])C([H])([H])[H])C(C([H])([H])[H])(C([H])([H])[H])C([H])([H])[H])C([H])(C(=O)N([H])C2([H])c4c([H])c([H])c([H])c([H])c4C([H])([H])C([H])([H])C2([H])[H])C3([H])[H])C([H])([H])[N+]1([H])C([H])([H])c1c([H])c([H])c(N([H])C(=O)N2C([H])([H])C([H])([H])C([H])([H])C([H])(n3nc(-c4c([H])c([H])c(Oc5c([H])c([H])c(F)c([H])c5F)c([H])c4[H])c(C(=O)N([H])[H])c3N([H])[H])C2([H])[H])c(C([H])([H])[H])c1[H]

>  <smiles>  (84) 
[H]C([H])=C1C([H])([H])C([H])(Oc2c([H])c([H])c3c(c2[H])C([H])([H])N(C(=O)C([H])(N([H])C(=O)C([H])(N([H])C([H])([H])[H])C([H])([H])[H])C(C([H])([H])[H])(C([H])([H])[H])C([H])([H])[H])C([H])(C(=O)N([H])C2([H])c4c([H])c([H])c([H])c([H])c4C([H])([H])C([H])([H])C2([H])[H])C3([H])[H])C([H])([H])[N+]1([H])C([H])([H])c1c([H])c([H])c(N([H])C(=O)N2C([H])([H])C([H])([H])C([H])([H])C([H])(n3nc(-c4c([H])c([H])c(Oc5c([H])c([H])c(F)c([H])c5F)c([H])c4[H])c(C(=O)N([H])[H])c3N([H])[H])C2([H])[H])c(C([H])([H])[H])c1[H]

$$$$
84:0:0
     RDKit          3D

 96105  0  0  1  0  0  0  0  0999 V2000
  -28.5120  -23.0680   21.3420 C   0  0  0  0  0  0  0  0  0  0  0  0
  -27.4650  -22.7980   22.1520 C   0  0  0  0  0  2  0  0  0  0  0  0
  -29.0850  -24.4980   21.2300 C   0  0  0  0  0  2  0  0  0  0  0  0
  -30.0610  -23.7090   18.7030 C   0  0  0  0  0  2  0  0  0  0  0  0
  -29.1430  -24.9490   18.6970 C   0  0  0  0  0  2  0  0  0  0  0  0
  -29.3920  -22.3600   19.0570 C   0  0  0  0  0  2  0  0  0  0  0  0
  -28.4750  -25.2870   20.0420 C   0  0  0  0  0  3  0  0  0  0  0  0
  -29.2290  -21.9990   20.5020 N   0  0  2  0  0  4  0  0  0  0  0  0
  -30.1700  -21.9210   20.8600 H   0  0  0  0  0  0  0  0  0  0  0  0
  -28.5270  -26.7270   20.2170 O   0  0  0  0  0  0  0  0  0  0  0  0
  -24.6450  -31.8950   23.1910 C   0  0  0  0  0  0  0  0  0  0  0  0
  -27.3550  -27.4660   20.1320 C   0  0  0  0  0  0  0  0  0  0  0  0
  -23.4670  -30.4820   21.5390 C   0  0  0  0  0  3  0  0  0  0  0  0
  -24.9490  -28.9730   20.1110 C   0  0  0  0  0  0  0  0  0  0  0  0
  -25.9920  -30.8670   21.3630 C   0  0  0  0  0  2  0  0  0  0  0  0
  -26.0980  -29.4990   20.7160 C   0  0  0  0  0  0  0  0  0  0  0  0
  -27.3000  -28.7520   20.7240 C   0  0  0  0  0  3  0  0  0  0  0  0
  -26.1920  -26.9830   19.4850 C   0  0  0  0  0  3  0  0  0  0  0  0
  -24.9930  -27.7160   19.4920 C   0  0  0  0  0  3  0  0  0  0  0  0
  -23.6940  -29.8150   20.1560 C   0  0  0  0  0  2  0  0  0  0  0  0
  -24.7190  -31.0960   22.0890 N   0  0  0  0  0  0  0  0  0  0  0  0
  -23.5570  -32.1520   23.7240 O   0  0  0  0  0  0  0  0  0  0  0  0
  -22.8240  -29.4480   22.4920 C   0  0  0  0  0  0  0  0  0  0  0  0
  -21.4980  -29.2700   22.3760 N   0  0  0  0  0  0  0  0  0  0  0  0
  -23.5140  -28.8110   23.2900 O   0  0  0  0  0  0  0  0  0  0  0  0
  -21.0000  -29.8390   21.7050 H   0  0  0  0  0  0  0  0  0  0  0  0
  -18.1230  -28.0940   22.9070 C   0  0  0  0  0  0  0  0  0  0  0  0
  -20.6870  -28.3230   23.1420 C   0  0  0  0  0  3  0  0  0  0  0  0
  -20.7670  -26.9040   22.5340 C   0  0  0  0  0  2  0  0  0  0  0  0
  -19.6450  -26.6120   21.5320 C   0  0  0  0  0  2  0  0  0  0  0  0
  -18.2750  -26.7560   22.2030 C   0  0  0  0  0  2  0  0  0  0  0  0
  -19.2550  -28.8370   23.3340 C   0  0  0  0  0  0  0  0  0  0  0  0
  -19.0590  -30.0910   23.9520 C   0  0  0  0  0  3  0  0  0  0  0  0
  -17.7620  -30.6020   24.1470 C   0  0  0  0  0  3  0  0  0  0  0  0
  -16.6440  -29.8540   23.7400 C   0  0  0  0  0  3  0  0  0  0  0  0
  -16.8250  -28.6020   23.1270 C   0  0  0  0  0  3  0  0  0  0  0  0
  -25.9190  -32.5400   23.8190 C   0  0  0  0  0  3  0  0  0  0  0  0
  -25.5930  -33.9340   24.1510 N   0  0  0  0  0  0  0  0  0  0  0  0
  -25.9290  -34.9930   23.4040 C   0  0  0  0  0  0  0  0  0  0  0  0
  -26.6190  -34.9020   22.3850 O   0  0  0  0  0  0  0  0  0  0  0  0
  -24.9870  -34.0770   24.9450 H   0  0  0  0  0  0  0  0  0  0  0  0
  -24.1930  -36.7700   23.0220 C   0  0  0  0  0  1  0  0  0  0  0  0
  -25.4190  -36.3740   23.8590 C   0  0  0  0  0  3  0  0  0  0  0  0
  -27.5250  -37.2720   24.7440 C   0  0  0  0  0  1  0  0  0  0  0  0
  -26.4440  -37.4380   23.7760 N   0  0  0  0  0  0  0  0  0  0  0  0
  -26.0260  -38.3530   23.9210 H   0  0  0  0  0  0  0  0  0  0  0  0
  -26.4450  -31.7720   25.0930 C   0  0  1  0  0  0  0  0  0  0  0  0
  -25.3530  -31.5140   26.1570 C   0  0  0  0  0  1  0  0  0  0  0  0
  -27.0440  -30.4030   24.6940 C   0  0  0  0  0  1  0  0  0  0  0  0
  -27.5840  -32.5770   25.7590 C   0  0  0  0  0  1  0  0  0  0  0  0
  -28.6590  -20.5960   20.6920 C   0  0  0  0  0  2  0  0  0  0  0  0
  -29.4690  -19.2060   18.6820 C   0  0  0  0  0  3  0  0  0  0  0  0
  -30.1180  -18.1040   18.1180 C   0  0  0  0  0  3  0  0  0  0  0  0
  -29.6740  -18.1880   20.8730 C   0  0  0  0  0  3  0  0  0  0  0  0
  -29.3360  -19.3320   20.0800 C   0  0  0  0  0  0  0  0  0  0  0  0
  -30.2240  -16.9940   20.3030 C   0  0  0  0  0  0  0  0  0  0  0  0
  -30.5310  -17.0230   18.9080 C   0  0  0  0  0  0  0  0  0  0  0  0
  -31.3490  -15.7790   18.0410 Cl  0  0  0  0  0  0  0  0  0  0  0  0
  -31.0620  -14.6920   20.9350 C   0  0  0  0  0  0  0  0  0  0  0  0
  -30.8810  -12.4070   20.0180 C   0  0  0  0  0  2  0  0  0  0  0  0
  -30.0530  -12.4380   18.7130 C   0  0  0  0  0  2  0  0  0  0  0  0
  -28.5410  -12.3980   18.9950 C   0  0  0  0  0  2  0  0  0  0  0  0
  -28.0920  -13.3480   20.1380 C   0  0  0  0  0  3  0  0  0  0  0  0
  -29.0360  -13.2380   21.3580 C   0  0  0  0  0  2  0  0  0  0  0  0
  -30.4070  -13.4950   20.8920 N   0  0  0  0  0  0  0  0  0  0  0  0
  -32.2620  -14.8040   20.6760 O   0  0  0  0  0  0  0  0  0  0  0  0
  -30.2840  -15.7880   21.1080 N   0  0  0  0  0  0  0  0  0  0  0  0
  -29.4290  -15.5890   21.6060 H   0  0  0  0  0  0  0  0  0  0  0  0
  -25.6460  -14.0130   20.6020 C   0  0  0  0  0  0  0  0  0  0  0  0
  -24.5350  -13.2660   20.8920 C   0  0  0  0  0  0  0  0  0  0  0  0
  -24.9760  -11.9090   20.9530 C   0  0  0  0  0  0  0  0  0  0  0  0
  -26.6960  -13.1120   20.5040 N   0  0  0  0  0  0  0  0  0  0  0  0
  -26.2890  -11.8450   20.7760 N   0  0  0  0  0  0  0  0  0  0  0  0
  -24.2160  -10.6630   21.1130 C   0  0  0  0  0  0  0  0  0  0  0  0
  -24.5750   -9.6970   22.0800 C   0  0  0  0  0  3  0  0  0  0  0  0
  -23.8160   -8.5150   22.2280 C   0  0  0  0  0  3  0  0  0  0  0  0
  -22.6850   -8.2910   21.4100 C   0  0  0  0  0  0  0  0  0  0  0  0
  -22.3450   -9.2450   20.4350 C   0  0  0  0  0  3  0  0  0  0  0  0
  -23.1040  -10.4170   20.2840 C   0  0  0  0  0  3  0  0  0  0  0  0
  -21.9030   -7.1620   21.4680 O   0  0  0  0  0  0  0  0  0  0  0  0
  -21.8000   -6.4170   22.6150 C   0  0  0  0  0  0  0  0  0  0  0  0
  -21.3460   -6.9780   23.8290 C   0  0  0  0  0  3  0  0  0  0  0  0
  -21.1850   -6.1620   24.9650 C   0  0  0  0  0  3  0  0  0  0  0  0
  -21.4700   -4.7840   24.8890 C   0  0  0  0  0  0  0  0  0  0  0  0
  -21.9170   -4.2240   23.6800 C   0  0  0  0  0  3  0  0  0  0  0  0
  -22.0790   -5.0370   22.5450 C   0  0  0  0  0  0  0  0  0  0  0  0
  -22.4900   -4.4870   21.3770 F   0  0  0  0  0  0  0  0  0  0  0  0
  -21.3080   -3.9980   25.9780 F   0  0  0  0  0  0  0  0  0  0  0  0
  -23.1260  -13.7700   21.0110 C   0  0  0  0  0  0  0  0  0  0  0  0
  -22.3160  -13.1310   21.8480 N   0  0  0  0  0  0  0  0  0  0  0  0
  -22.7510  -14.7710   20.3990 O   0  0  0  0  0  0  0  0  0  0  0  0
  -22.6320  -12.3230   22.3630 H   0  0  0  0  0  0  0  0  0  0  0  0
  -21.3680  -13.4570   21.9760 H   0  0  0  0  0  0  0  0  0  0  0  0
  -25.8500  -15.3740   20.3940 N   0  0  0  0  0  0  0  0  0  0  0  0
  -25.0890  -16.0420   20.4180 H   0  0  0  0  0  0  0  0  0  0  0  0
  -26.7310  -15.7870   20.1150 H   0  0  0  0  0  0  0  0  0  0  0  0
  1  2  2  0
  3  1  1  0
  4  6  1  0
  5  4  1  0
  5  7  1  0
  6  8  1  0
  7 10  1  0
  7  3  1  0
  8 51  1  0
  8  9  1  1
  8  1  1  0
 11 22  2  0
 12 10  1  0
 12 17  1  0
 13 21  1  0
 13 23  1  0
 14 20  1  0
 14 16  1  0
 15 21  1  0
 16 17  2  0
 16 15  1  0
 18 19  1  0
 18 12  2  0
 19 14  2  0
 20 13  1  0
 21 11  1  0
 23 25  2  0
 24 23  1  0
 26 24  1  0
 27 36  2  0
 27 32  1  0
 28 24  1  0
 28 32  1  0
 29 28  1  0
 30 31  1  0
 30 29  1  0
 31 27  1  0
 32 33  2  0
 33 34  1  0
 35 34  2  0
 36 35  1  0
 37 11  1  0
 37 38  1  0
 37 47  1  0
 38 41  1  0
 39 43  1  0
 39 38  1  0
 40 39  2  0
 43 42  1  0
 45 43  1  0
 45 46  1  0
 45 44  1  0
 47 50  1  1
 47 48  1  0
 49 47  1  0
 52 55  1  0
 53 52  2  0
 53 57  1  0
 55 51  1  0
 55 54  2  0
 56 54  1  0
 56 67  1  0
 57 56  2  0
 58 57  1  0
 59 67  1  0
 60 65  1  0
 61 62  1  0
 61 60  1  0
 63 62  1  0
 63 72  1  0
 63 64  1  0
 65 59  1  0
 65 64  1  0
 66 59  2  0
 67 68  1  0
 69 70  2  0
 70 71  1  0
 70 89  1  0
 71 74  1  0
 72 69  1  0
 72 73  1  0
 73 71  2  0
 74 75  1  0
 75 76  2  0
 77 80  1  0
 77 76  1  0
 78 77  2  0
 79 78  1  0
 79 74  2  0
 80 81  1  0
 81 82  1  0
 82 83  2  0
 84 83  1  0
 84 88  1  0
 85 84  2  0
 86 81  2  0
 86 85  1  0
 87 86  1  0
 89 90  1  0
 90 93  1  0
 90 92  1  0
 91 89  2  0
 94 95  1  0
 94 69  1  0
 96 94  1  0
M  ISO  4   7 101  10 101  59 100  67 100
M  END
>  <TORSDO>  (85) 
F 18

>  <SCORE>  (85) 
-14.197

>  <name>  (85) 
84

>  <ligand_id>  (85) 
84

>  <original_smiles>  (85) 
[H]C([H])=C1C([H])([H])C([H])(Oc2c([H])c([H])c3c(c2[H])C([H])([H])N(C(=O)C([H])(N([H])C(=O)C([H])(N([H])C([H])([H])[H])C([H])([H])[H])C(C([H])([H])[H])(C([H])([H])[H])C([H])([H])[H])C([H])(C(=O)N([H])C2([H])c4c([H])c([H])c([H])c([H])c4C([H])([H])C([H])([H])C2([H])[H])C3([H])[H])C([H])([H])C([H])([H])C([H])([H])[N+]1([H])C([H])([H])c1c([H])c([H])c(Cl)c(N([H])C(=O)N2C([H])([H])C([H])([H])C([H])([H])C([H])(n3nc(-c4c([H])c([H])c(Oc5c([H])c([H])c(F)c([H])c5F)c([H])c4[H])c(C(=O)N([H])[H])c3N([H])[H])C2([H])[H])c1[H]

>  <smiles>  (85) 
[H]C([H])=C1C([H])([H])C([H])(Oc2c([H])c([H])c3c(c2[H])C([H])([H])N(C(=O)C([H])(N([H])C(=O)C([H])(N([H])C([H])([H])[H])C([H])([H])[H])C(C([H])([H])[H])(C([H])([H])[H])C([H])([H])[H])C([H])(C(=O)N([H])C2([H])c4c([H])c([H])c([H])c([H])c4C([H])([H])C([H])([H])C2([H])[H])C3([H])[H])C([H])([H])C([H])([H])C([H])([H])[N+]1([H])C([H])([H])c1c([H])c([H])c(Cl)c(N([H])C(=O)N2C([H])([H])C([H])([H])C([H])([H])C([H])(n3nc(-c4c([H])c([H])c(Oc5c([H])c([H])c(F)c([H])c5F)c([H])c4[H])c(C(=O)N([H])[H])c3N([H])[H])C2([H])[H])c1[H]

$$$$
85:0:0
     RDKit          3D

 94103  0  0  1  0  0  0  0  0999 V2000
  -28.2340  -22.9460   21.6860 C   0  0  0  0  0  0  0  0  0  0  0  0
  -28.4760  -22.0280   22.6410 C   0  0  0  0  0  2  0  0  0  0  0  0
  -27.4550  -24.2020   22.0860 C   0  0  0  0  0  2  0  0  0  0  0  0
  -28.0980  -25.5190   21.6330 C   0  0  0  0  0  2  0  0  0  0  0  0
  -28.2490  -24.0660   19.4700 C   0  0  0  0  0  2  0  0  0  0  0  0
  -28.5220  -25.5070   20.1530 C   0  0  0  0  0  3  0  0  0  0  0  0
  -28.5620  -22.8320   20.3170 N   0  0  0  0  0  0  0  0  0  0  0  0
  -27.9650  -21.3000   18.4780 C   0  0  0  0  0  3  0  0  0  0  0  0
  -27.9280  -20.0340   17.8590 C   0  0  0  0  0  3  0  0  0  0  0  0
  -29.4600  -20.3750   20.1350 C   0  0  0  0  0  3  0  0  0  0  0  0
  -29.4220  -19.0420   19.5480 C   0  0  0  0  0  0  0  0  0  0  0  0
  -28.6980  -21.5290   19.6630 C   0  0  0  0  0  0  0  0  0  0  0  0
  -28.6160  -18.9170   18.3820 C   0  0  0  0  0  0  0  0  0  0  0  0
  -28.4400  -17.4090   17.5550 Cl  0  0  0  0  0  0  0  0  0  0  0  0
  -30.2460  -17.7920   20.1360 C   0  0  0  0  0  2  0  0  0  0  0  0
  -30.8350  -15.1830   19.9160 C   0  0  0  0  0  0  0  0  0  0  0  0
  -30.6550  -12.8660   19.0020 C   0  0  0  0  0  2  0  0  0  0  0  0
  -29.6510  -12.8660   17.8270 C   0  0  0  0  0  2  0  0  0  0  0  0
  -28.2060  -12.6970   18.3380 C   0  0  0  0  0  2  0  0  0  0  0  0
  -27.8780  -13.6310   19.5320 C   0  0  0  0  0  3  0  0  0  0  0  0
  -28.9900  -13.5890   20.6020 C   0  0  0  0  0  2  0  0  0  0  0  0
  -30.2470  -13.9400   19.9310 N   0  0  0  0  0  0  0  0  0  0  0  0
  -32.0080  -15.3120   19.5580 O   0  0  0  0  0  0  0  0  0  0  0  0
  -30.0050  -16.2760   20.1100 N   0  0  0  0  0  0  0  0  0  0  0  0
  -29.0510  -16.0140   20.3030 H   0  0  0  0  0  0  0  0  0  0  0  0
  -25.5530  -14.2410   20.4300 C   0  0  0  0  0  0  0  0  0  0  0  0
  -24.4980  -13.4740   20.8400 C   0  0  0  0  0  0  0  0  0  0  0  0
  -24.9310  -12.1170   20.7330 C   0  0  0  0  0  0  0  0  0  0  0  0
  -26.5620  -13.3520   20.0960 N   0  0  0  0  0  0  0  0  0  0  0  0
  -26.1990  -12.0680   20.3440 N   0  0  0  0  0  0  0  0  0  0  0  0
  -24.1920  -10.8620   20.9240 C   0  0  0  0  0  0  0  0  0  0  0  0
  -24.6140   -9.8910   21.8580 C   0  0  0  0  0  3  0  0  0  0  0  0
  -23.8760   -8.7020   22.0360 C   0  0  0  0  0  3  0  0  0  0  0  0
  -22.7010   -8.4740   21.2810 C   0  0  0  0  0  0  0  0  0  0  0  0
  -22.2990   -9.4340   20.3340 C   0  0  0  0  0  3  0  0  0  0  0  0
  -23.0370  -10.6150   20.1540 C   0  0  0  0  0  3  0  0  0  0  0  0
  -21.9360   -7.3370   21.3690 O   0  0  0  0  0  0  0  0  0  0  0  0
  -21.8150   -6.6390   22.5440 C   0  0  0  0  0  0  0  0  0  0  0  0
  -21.2560   -7.2230   23.7010 C   0  0  0  0  0  3  0  0  0  0  0  0
  -21.0860   -6.4490   24.8660 C   0  0  0  0  0  3  0  0  0  0  0  0
  -21.4660   -5.0930   24.8750 C   0  0  0  0  0  0  0  0  0  0  0  0
  -22.0180   -4.5100   23.7210 C   0  0  0  0  0  3  0  0  0  0  0  0
  -22.1880   -5.2810   22.5580 C   0  0  0  0  0  0  0  0  0  0  0  0
  -22.7000   -4.7080   21.4410 F   0  0  0  0  0  0  0  0  0  0  0  0
  -21.2960   -4.3480   25.9910 F   0  0  0  0  0  0  0  0  0  0  0  0
  -23.1300  -13.9660   21.2140 C   0  0  0  0  0  0  0  0  0  0  0  0
  -22.4500  -13.2600   22.1100 N   0  0  0  0  0  0  0  0  0  0  0  0
  -22.6760  -15.0080   20.7450 O   0  0  0  0  0  0  0  0  0  0  0  0
  -22.8330  -12.4150   22.5060 H   0  0  0  0  0  0  0  0  0  0  0  0
  -21.5340  -13.5690   22.4040 H   0  0  0  0  0  0  0  0  0  0  0  0
  -25.7310  -15.6150   20.2840 N   0  0  0  0  0  0  0  0  0  0  0  0
  -24.9720  -16.2650   20.4560 H   0  0  0  0  0  0  0  0  0  0  0  0
  -26.5290  -16.0490   19.8390 H   0  0  0  0  0  0  0  0  0  0  0  0
  -28.3460  -26.8500   19.4970 O   0  0  0  0  0  0  0  0  0  0  0  0
  -24.6480  -31.9120   23.1410 C   0  0  0  0  0  0  0  0  0  0  0  0
  -27.1900  -27.6410   19.6320 C   0  0  0  0  0  0  0  0  0  0  0  0
  -23.3840  -30.5990   21.4740 C   0  0  0  0  0  3  0  0  0  0  0  0
  -24.7860  -29.1860   19.8610 C   0  0  0  0  0  0  0  0  0  0  0  0
  -25.8960  -31.0060   21.1610 C   0  0  0  0  0  2  0  0  0  0  0  0
  -25.9770  -29.6760   20.4160 C   0  0  0  0  0  0  0  0  0  0  0  0
  -27.1800  -28.9190   20.2830 C   0  0  0  0  0  3  0  0  0  0  0  0
  -25.9780  -27.2010   19.0670 C   0  0  0  0  0  3  0  0  0  0  0  0
  -24.7910  -27.9570   19.1780 C   0  0  0  0  0  3  0  0  0  0  0  0
  -23.5320  -30.0180   20.0420 C   0  0  0  0  0  2  0  0  0  0  0  0
  -24.6650  -31.1860   21.9830 N   0  0  0  0  0  0  0  0  0  0  0  0
  -23.5930  -32.1210   23.7560 O   0  0  0  0  0  0  0  0  0  0  0  0
  -22.8040  -29.5020   22.3970 C   0  0  0  0  0  0  0  0  0  0  0  0
  -21.4920  -29.2350   22.2710 N   0  0  0  0  0  0  0  0  0  0  0  0
  -23.5330  -28.8920   23.1840 O   0  0  0  0  0  0  0  0  0  0  0  0
  -20.9570  -29.7850   21.6150 H   0  0  0  0  0  0  0  0  0  0  0  0
  -18.2340  -27.7210   22.6780 C   0  0  0  0  0  0  0  0  0  0  0  0
  -20.7530  -28.2060   23.0030 C   0  0  0  0  0  3  0  0  0  0  0  0
  -20.9950  -26.8030   22.3980 C   0  0  0  0  0  2  0  0  0  0  0  0
  -19.9440  -26.4080   21.3550 C   0  0  0  0  0  2  0  0  0  0  0  0
  -18.5450  -26.4110   21.9760 C   0  0  0  0  0  2  0  0  0  0  0  0
  -19.2710  -28.5710   23.1460 C   0  0  0  0  0  0  0  0  0  0  0  0
  -18.9280  -29.7960   23.7580 C   0  0  0  0  0  3  0  0  0  0  0  0
  -17.5800  -30.1700   23.9130 C   0  0  0  0  0  3  0  0  0  0  0  0
  -16.5580  -29.3180   23.4620 C   0  0  0  0  0  3  0  0  0  0  0  0
  -16.8850  -28.0950   22.8470 C   0  0  0  0  0  3  0  0  0  0  0  0
  -25.9510  -32.5360   23.7360 C   0  0  0  0  0  3  0  0  0  0  0  0
  -25.6530  -33.9290   24.1000 N   0  0  0  0  0  0  0  0  0  0  0  0
  -25.9870  -34.9990   23.3670 C   0  0  0  0  0  0  0  0  0  0  0  0
  -26.6520  -34.9160   22.3310 O   0  0  0  0  0  0  0  0  0  0  0  0
  -25.0640  -34.0700   24.9080 H   0  0  0  0  0  0  0  0  0  0  0  0
  -24.2830  -36.8230   23.0460 C   0  0  0  0  0  1  0  0  0  0  0  0
  -25.5100  -36.3790   23.8590 C   0  0  0  0  0  3  0  0  0  0  0  0
  -27.6380  -37.2190   24.7510 C   0  0  0  0  0  1  0  0  0  0  0  0
  -26.5560  -37.4220   23.7890 N   0  0  0  0  0  0  0  0  0  0  0  0
  -26.1590  -38.3450   23.9450 H   0  0  0  0  0  0  0  0  0  0  0  0
  -26.5060  -31.7440   24.9830 C   0  0  1  0  0  0  0  0  0  0  0  0
  -25.4460  -31.4810   26.0770 C   0  0  0  0  0  1  0  0  0  0  0  0
  -27.0830  -30.3760   24.5490 C   0  0  0  0  0  1  0  0  0  0  0  0
  -27.6700  -32.5320   25.6290 C   0  0  0  0  0  1  0  0  0  0  0  0
  1  3  1  0
  1  2  2  0
  4  3  1  0
  5  6  1  0
  5  7  1  0
  6 54  1  0
  6  4  1  0
  7  1  1  0
  8 12  1  0
  9 13  1  0
  9  8  2  0
 11 10  1  0
 11 15  1  0
 12 10  2  0
 12  7  1  0
 13 11  2  0
 14 13  1  0
 16 22  1  0
 16 24  1  0
 17 22  1  0
 18 19  1  0
 18 17  1  0
 20 19  1  0
 20 29  1  0
 20 21  1  0
 22 21  1  0
 23 16  2  0
 24 15  1  0
 24 25  1  0
 26 27  2  0
 27 46  1  0
 28 27  1  0
 28 31  1  0
 29 30  1  0
 29 26  1  0
 30 28  2  0
 31 32  1  0
 32 33  2  0
 34 37  1  0
 34 33  1  0
 35 34  2  0
 36 35  1  0
 36 31  2  0
 37 38  1  0
 38 43  2  0
 38 39  1  0
 39 40  2  0
 40 41  1  0
 41 45  1  0
 42 41  2  0
 43 42  1  0
 44 43  1  0
 46 47  1  0
 47 50  1  0
 47 49  1  0
 48 46  2  0
 51 26  1  0
 51 52  1  0
 53 51  1  0
 54 56  1  0
 55 66  2  0
 56 61  1  0
 57 65  1  0
 57 67  1  0
 58 64  1  0
 58 60  1  0
 59 65  1  0
 60 59  1  0
 61 60  2  0
 62 63  1  0
 62 56  2  0
 63 58  2  0
 64 57  1  0
 65 55  1  0
 67 69  2  0
 68 67  1  0
 70 68  1  0
 71 80  2  0
 71 76  1  0
 72 68  1  0
 72 76  1  0
 73 72  1  0
 74 75  1  0
 74 73  1  0
 75 71  1  0
 76 77  2  0
 77 78  1  0
 79 78  2  0
 80 79  1  0
 81 55  1  0
 81 82  1  0
 81 91  1  0
 82 85  1  0
 83 87  1  0
 83 82  1  0
 84 83  2  0
 87 86  1  0
 89 87  1  0
 89 90  1  0
 89 88  1  0
 91 94  1  1
 91 92  1  0
 93 91  1  0
M  ISO  4   6 101  16 100  24 100  54 101
M  END
>  <TORSDO>  (86) 
F 18

>  <SCORE>  (86) 
-12.934

>  <name>  (86) 
85

>  <ligand_id>  (86) 
85

>  <original_smiles>  (86) 
[H]C([H])=C1N(c2c([H])c([H])c(Cl)c(C([H])([H])N([H])C(=O)N3C([H])([H])C([H])([H])C([H])([H])C([H])(n4nc(-c5c([H])c([H])c(Oc6c([H])c([H])c(F)c([H])c6F)c([H])c5[H])c(C(=O)N([H])[H])c4N([H])[H])C3([H])[H])c2[H])C([H])([H])C([H])(Oc2c([H])c([H])c3c(c2[H])C([H])([H])N(C(=O)C([H])(N([H])C(=O)C([H])(N([H])C([H])([H])[H])C([H])([H])[H])C(C([H])([H])[H])(C([H])([H])[H])C([H])([H])[H])C([H])(C(=O)N([H])C2([H])c4c([H])c([H])c([H])c([H])c4C([H])([H])C([H])([H])C2([H])[H])C3([H])[H])C([H])([H])C1([H])[H]

>  <smiles>  (86) 
[H]C([H])=C1N(c2c([H])c([H])c(Cl)c(C([H])([H])N([H])C(=O)N3C([H])([H])C([H])([H])C([H])([H])C([H])(n4nc(-c5c([H])c([H])c(Oc6c([H])c([H])c(F)c([H])c6F)c([H])c5[H])c(C(=O)N([H])[H])c4N([H])[H])C3([H])[H])c2[H])C([H])([H])C([H])(Oc2c([H])c([H])c3c(c2[H])C([H])([H])N(C(=O)C([H])(N([H])C(=O)C([H])(N([H])C([H])([H])[H])C([H])([H])[H])C(C([H])([H])[H])(C([H])([H])[H])C([H])([H])[H])C([H])(C(=O)N([H])C2([H])c4c([H])c([H])c([H])c([H])c4C([H])([H])C([H])([H])C2([H])[H])C3([H])[H])C([H])([H])C1([H])[H]

$$$$
86:0:0
     RDKit          3D

 97106  0  0  1  0  0  0  0  0999 V2000
  -28.6980  -22.1360   18.2050 C   0  0  0  0  0  0  0  0  0  0  0  0
  -28.9920  -21.0540   17.4460 C   0  0  0  0  0  3  0  0  0  0  0  0
  -27.8790  -23.3380   17.7180 C   0  0  0  0  0  2  0  0  0  0  0  0
  -28.3380  -24.7100   18.2370 C   0  0  0  0  0  2  0  0  0  0  0  0
  -28.8930  -23.5520   20.4400 C   0  0  0  0  0  2  0  0  0  0  0  0
  -28.1430  -24.8090   19.7540 C   0  0  0  0  0  3  0  0  0  0  0  0
  -28.4930  -20.7350   16.0420 C   0  0  0  0  0  1  0  0  0  0  0  0
  -29.3290  -22.3370   19.5780 N   0  0  1  0  0  4  0  0  0  0  0  0
  -30.2200  -22.7260   19.3070 H   0  0  0  0  0  0  0  0  0  0  0  0
  -28.3050  -26.2450   20.2210 O   0  0  0  0  0  0  0  0  0  0  0  0
  -24.6240  -31.8040   23.2120 C   0  0  0  0  0  0  0  0  0  0  0  0
  -27.2140  -27.1570   20.1740 C   0  0  0  0  0  0  0  0  0  0  0  0
  -23.4230  -30.4040   21.5750 C   0  0  0  0  0  3  0  0  0  0  0  0
  -24.8710  -28.8430   20.1650 C   0  0  0  0  0  0  0  0  0  0  0  0
  -25.9760  -30.6850   21.4170 C   0  0  0  0  0  2  0  0  0  0  0  0
  -26.0480  -29.3010   20.7720 C   0  0  0  0  0  0  0  0  0  0  0  0
  -27.2190  -28.4700   20.7720 C   0  0  0  0  0  3  0  0  0  0  0  0
  -26.0020  -26.7830   19.5410 C   0  0  0  0  0  3  0  0  0  0  0  0
  -24.8550  -27.5900   19.5430 C   0  0  0  0  0  3  0  0  0  0  0  0
  -23.6440  -29.7310   20.1970 C   0  0  0  0  0  2  0  0  0  0  0  0
  -24.6920  -30.9870   22.1210 N   0  0  0  0  0  0  0  0  0  0  0  0
  -23.5370  -32.0900   23.7370 O   0  0  0  0  0  0  0  0  0  0  0  0
  -22.7460  -29.3950   22.5340 C   0  0  0  0  0  0  0  0  0  0  0  0
  -21.4170  -29.2380   22.4100 N   0  0  0  0  0  0  0  0  0  0  0  0
  -23.4160  -28.7540   23.3480 O   0  0  0  0  0  0  0  0  0  0  0  0
  -20.9340  -29.8030   21.7250 H   0  0  0  0  0  0  0  0  0  0  0  0
  -18.0200  -28.1040   22.9380 C   0  0  0  0  0  0  0  0  0  0  0  0
  -20.5870  -28.3150   23.1880 C   0  0  0  0  0  3  0  0  0  0  0  0
  -20.6550  -26.8840   22.6070 C   0  0  0  0  0  2  0  0  0  0  0  0
  -19.5410  -26.5870   21.5990 C   0  0  0  0  0  2  0  0  0  0  0  0
  -18.1660  -26.7550   22.2540 C   0  0  0  0  0  2  0  0  0  0  0  0
  -19.1570  -28.8430   23.3620 C   0  0  0  0  0  0  0  0  0  0  0  0
  -18.9650  -30.1060   23.9610 C   0  0  0  0  0  3  0  0  0  0  0  0
  -17.6700  -30.6320   24.1400 C   0  0  0  0  0  3  0  0  0  0  0  0
  -16.5490  -29.8890   23.7340 C   0  0  0  0  0  3  0  0  0  0  0  0
  -16.7240  -28.6270   23.1390 C   0  0  0  0  0  3  0  0  0  0  0  0
  -25.9050  -32.4370   23.8380 C   0  0  0  0  0  3  0  0  0  0  0  0
  -25.5960  -33.8350   24.1730 N   0  0  0  0  0  0  0  0  0  0  0  0
  -25.9150  -34.8910   23.4120 C   0  0  0  0  0  0  0  0  0  0  0  0
  -26.5770  -34.7940   22.3740 O   0  0  0  0  0  0  0  0  0  0  0  0
  -25.0270  -33.9870   24.9930 H   0  0  0  0  0  0  0  0  0  0  0  0
  -24.1790  -36.6730   23.0680 C   0  0  0  0  0  1  0  0  0  0  0  0
  -25.4260  -36.2760   23.8740 C   0  0  0  0  0  3  0  0  0  0  0  0
  -27.5580  -37.1660   24.7020 C   0  0  0  0  0  1  0  0  0  0  0  0
  -26.4550  -37.3340   23.7590 N   0  0  0  0  0  0  0  0  0  0  0  0
  -26.0450  -38.2510   23.9160 H   0  0  0  0  0  0  0  0  0  0  0  0
  -26.4170  -31.6660   25.1160 C   0  0  1  0  0  0  0  0  0  0  0  0
  -25.3180  -31.4280   26.1780 C   0  0  0  0  0  1  0  0  0  0  0  0
  -27.0000  -30.2890   24.7270 C   0  0  0  0  0  1  0  0  0  0  0  0
  -27.5710  -32.4530   25.7820 C   0  0  0  0  0  1  0  0  0  0  0  0
  -29.9060  -21.0880   20.3190 C   0  0  0  0  0  2  0  0  0  0  0  0
  -27.9920  -19.4420   19.8820 C   0  0  0  0  0  3  0  0  0  0  0  0
  -28.0830  -17.0310   20.2700 C   0  0  0  0  0  3  0  0  0  0  0  0
  -29.3560  -19.5860   20.1980 C   0  0  0  0  0  0  0  0  0  0  0  0
  -29.4780  -17.0240   20.5000 C   0  0  0  0  0  0  0  0  0  0  0  0
  -27.3590  -18.1930   19.9300 C   0  0  0  0  0  0  0  0  0  0  0  0
  -30.1030  -18.3480   20.4860 C   0  0  0  0  0  0  0  0  0  0  0  0
  -25.6600  -18.1270   19.6210 Cl  0  0  0  0  0  0  0  0  0  0  0  0
  -31.7720  -18.4570   20.9100 Cl  0  0  0  0  0  0  0  0  0  0  0  0
  -30.6920  -14.6410   20.3350 C   0  0  0  0  0  0  0  0  0  0  0  0
  -30.5350  -12.3200   19.3800 C   0  0  0  0  0  2  0  0  0  0  0  0
  -29.5820  -12.3420   18.1610 C   0  0  0  0  0  2  0  0  0  0  0  0
  -28.1110  -12.1880   18.5990 C   0  0  0  0  0  2  0  0  0  0  0  0
  -27.7470  -13.1090   19.7910 C   0  0  0  0  0  3  0  0  0  0  0  0
  -28.8080  -13.0240   20.9120 C   0  0  0  0  0  2  0  0  0  0  0  0
  -30.1110  -13.3860   20.3240 N   0  0  0  0  0  0  0  0  0  0  0  0
  -31.8100  -14.7960   19.8330 O   0  0  0  0  0  0  0  0  0  0  0  0
  -29.9880  -15.6800   20.9290 N   0  0  0  0  0  0  0  0  0  0  0  0
  -29.3130  -15.2400   21.5360 H   0  0  0  0  0  0  0  0  0  0  0  0
  -25.3700  -13.7390   20.5480 C   0  0  0  0  0  0  0  0  0  0  0  0
  -24.3040  -12.9910   20.9620 C   0  0  0  0  0  0  0  0  0  0  0  0
  -24.7370  -11.6330   20.9040 C   0  0  0  0  0  0  0  0  0  0  0  0
  -26.4000  -12.8470   20.2950 N   0  0  0  0  0  0  0  0  0  0  0  0
  -26.0200  -11.5690   20.5630 N   0  0  0  0  0  0  0  0  0  0  0  0
  -23.9790  -10.3890   21.0890 C   0  0  0  0  0  0  0  0  0  0  0  0
  -24.4100   -9.3910   21.9890 C   0  0  0  0  0  3  0  0  0  0  0  0
  -23.6540   -8.2120   22.1650 C   0  0  0  0  0  3  0  0  0  0  0  0
  -22.4520   -8.0230   21.4420 C   0  0  0  0  0  0  0  0  0  0  0  0
  -22.0390   -9.0090   20.5300 C   0  0  0  0  0  3  0  0  0  0  0  0
  -22.7960  -10.1810   20.3510 C   0  0  0  0  0  3  0  0  0  0  0  0
  -21.6680   -6.8980   21.5300 O   0  0  0  0  0  0  0  0  0  0  0  0
  -21.6350   -6.1330   22.6670 C   0  0  0  0  0  0  0  0  0  0  0  0
  -21.2630   -6.6730   23.9180 C   0  0  0  0  0  3  0  0  0  0  0  0
  -21.1740   -5.8350   25.0470 C   0  0  0  0  0  3  0  0  0  0  0  0
  -21.4470   -4.4590   24.9260 C   0  0  0  0  0  0  0  0  0  0  0  0
  -21.8080   -3.9200   23.6800 C   0  0  0  0  0  3  0  0  0  0  0  0
  -21.9000   -4.7540   22.5530 C   0  0  0  0  0  0  0  0  0  0  0  0
  -22.2320   -4.2260   21.3500 F   0  0  0  0  0  0  0  0  0  0  0  0
  -21.3520   -3.6520   26.0080 F   0  0  0  0  0  0  0  0  0  0  0  0
  -22.9300  -13.5060   21.2720 C   0  0  0  0  0  0  0  0  0  0  0  0
  -22.2060  -12.8320   22.1580 N   0  0  0  0  0  0  0  0  0  0  0  0
  -22.5070  -14.5460   20.7680 O   0  0  0  0  0  0  0  0  0  0  0  0
  -22.5540  -11.9920   22.5950 H   0  0  0  0  0  0  0  0  0  0  0  0
  -21.2840  -13.1640   22.3980 H   0  0  0  0  0  0  0  0  0  0  0  0
  -25.5100  -15.0960   20.3310 N   0  0  0  0  0  0  0  0  0  0  0  0
  -24.6760  -15.6730   20.3800 H   0  0  0  0  0  0  0  0  0  0  0  0
  -26.1980  -15.4700   19.6900 H   0  0  0  0  0  0  0  0  0  0  0  0
  1  8  1  0
  2  1  2  0
  3  1  1  0
  3  4  1  0
  4  6  1  0
  6 10  1  0
  6  5  1  0
  7  2  1  0
  8 51  1  0
  8  5  1  0
  8  9  1  6
 11 22  2  0
 12 10  1  0
 12 17  1  0
 13 21  1  0
 13 23  1  0
 14 20  1  0
 14 16  1  0
 15 21  1  0
 16 17  2  0
 16 15  1  0
 18 19  1  0
 18 12  2  0
 19 14  2  0
 20 13  1  0
 21 11  1  0
 23 25  2  0
 24 23  1  0
 26 24  1  0
 27 36  2  0
 27 32  1  0
 28 24  1  0
 28 32  1  0
 29 28  1  0
 30 31  1  0
 30 29  1  0
 31 27  1  0
 32 33  2  0
 33 34  1  0
 35 34  2  0
 36 35  1  0
 37 11  1  0
 37 38  1  0
 37 47  1  0
 38 41  1  0
 39 43  1  0
 39 38  1  0
 40 39  2  0
 43 42  1  0
 45 43  1  0
 45 46  1  0
 45 44  1  0
 47 50  1  1
 47 48  1  0
 49 47  1  0
 52 56  2  0
 52 54  1  0
 53 55  2  0
 54 51  1  0
 54 57  2  0
 55 68  1  0
 56 53  1  0
 57 55  1  0
 57 59  1  0
 58 56  1  0
 60 68  1  0
 61 66  1  0
 62 63  1  0
 62 61  1  0
 64 63  1  0
 64 73  1  0
 64 65  1  0
 66 60  1  0
 66 65  1  0
 67 60  2  0
 68 69  1  0
 70 71  2  0
 71 90  1  0
 72 71  1  0
 72 75  1  0
 73 70  1  0
 73 74  1  0
 74 72  2  0
 75 76  1  0
 76 77  2  0
 78 81  1  0
 78 77  1  0
 79 78  2  0
 80 79  1  0
 80 75  2  0
 81 82  1  0
 82 83  1  0
 83 84  2  0
 85 84  1  0
 85 89  1  0
 86 85  2  0
 87 82  2  0
 87 86  1  0
 88 87  1  0
 90 91  1  0
 91 94  1  0
 91 93  1  0
 92 90  2  0
 95 96  1  0
 95 70  1  0
 97 95  1  0
M  ISO  4   6 101  10 101  60 100  68 100
M  END
>  <TORSDO>  (87) 
F 18

>  <SCORE>  (87) 
-14.106

>  <name>  (87) 
86

>  <ligand_id>  (87) 
86

>  <original_smiles>  (87) 
[H]C(=C1C([H])([H])C([H])([H])C([H])(Oc2c([H])c([H])c3c(c2[H])C([H])([H])N(C(=O)C([H])(N([H])C(=O)C([H])(N([H])C([H])([H])[H])C([H])([H])[H])C(C([H])([H])[H])(C([H])([H])[H])C([H])([H])[H])C([H])(C(=O)N([H])C2([H])c4c([H])c([H])c([H])c([H])c4C([H])([H])C([H])([H])C2([H])[H])C3([H])[H])C([H])([H])[N+]1([H])C([H])([H])c1c([H])c(Cl)c([H])c(N([H])C(=O)N2C([H])([H])C([H])([H])C([H])([H])C([H])(n3nc(-c4c([H])c([H])c(Oc5c([H])c([H])c(F)c([H])c5F)c([H])c4[H])c(C(=O)N([H])[H])c3N([H])[H])C2([H])[H])c1Cl)C([H])([H])[H]

>  <smiles>  (87) 
[H]C(=C1C([H])([H])C([H])([H])C([H])(Oc2c([H])c([H])c3c(c2[H])C([H])([H])N(C(=O)C([H])(N([H])C(=O)C([H])(N([H])C([H])([H])[H])C([H])([H])[H])C(C([H])([H])[H])(C([H])([H])[H])C([H])([H])[H])C([H])(C(=O)N([H])C2([H])c4c([H])c([H])c([H])c([H])c4C([H])([H])C([H])([H])C2([H])[H])C3([H])[H])C([H])([H])[N+]1([H])C([H])([H])c1c([H])c(Cl)c([H])c(N([H])C(=O)N2C([H])([H])C([H])([H])C([H])([H])C([H])(n3nc(-c4c([H])c([H])c(Oc5c([H])c([H])c(F)c([H])c5F)c([H])c4[H])c(C(=O)N([H])[H])c3N([H])[H])C2([H])[H])c1Cl)C([H])([H])[H]

$$$$
87:0:0
     RDKit          3D

 94103  0  0  1  0  0  0  0  0999 V2000
  -30.0820  -23.9070   17.9630 C   0  0  0  0  0  2  0  0  0  0  0  0
  -29.7880  -25.2700   18.6230 C   0  0  0  0  0  2  0  0  0  0  0  0
  -30.3610  -22.8060   19.0080 C   0  0  0  0  0  2  0  0  0  0  0  0
  -28.8110  -23.9440   20.5640 C   0  0  0  0  0  2  0  0  0  0  0  0
  -28.5770  -25.2020   19.5710 C   0  0  0  0  0  3  0  0  0  0  0  0
  -29.1970  -22.5990   19.9110 N   0  0  2  0  0  4  0  0  0  0  0  0
  -28.4170  -22.3560   19.3180 H   0  0  0  0  0  0  0  0  0  0  0  0
  -28.4490  -26.5950   20.1190 O   0  0  0  0  0  0  0  0  0  0  0  0
  -24.6500  -31.9500   23.1830 C   0  0  0  0  0  0  0  0  0  0  0  0
  -27.2870  -27.4030   20.0650 C   0  0  0  0  0  0  0  0  0  0  0  0
  -23.4420  -30.5420   21.5550 C   0  0  0  0  0  3  0  0  0  0  0  0
  -24.8910  -29.0020   20.1110 C   0  0  0  0  0  0  0  0  0  0  0  0
  -25.9770  -30.8750   21.3470 C   0  0  0  0  0  2  0  0  0  0  0  0
  -26.0630  -29.4990   20.6910 C   0  0  0  0  0  0  0  0  0  0  0  0
  -27.2570  -28.7100   20.6600 C   0  0  0  0  0  3  0  0  0  0  0  0
  -26.0800  -26.9600   19.4750 C   0  0  0  0  0  3  0  0  0  0  0  0
  -24.9020  -27.7370   19.5000 C   0  0  0  0  0  3  0  0  0  0  0  0
  -23.6430  -29.8650   20.1750 C   0  0  0  0  0  2  0  0  0  0  0  0
  -24.7090  -31.1410   22.0830 N   0  0  0  0  0  0  0  0  0  0  0  0
  -23.5700  -32.2190   23.7290 O   0  0  0  0  0  0  0  0  0  0  0  0
  -22.7960  -29.5210   22.5230 C   0  0  0  0  0  0  0  0  0  0  0  0
  -21.4680  -29.3380   22.4150 N   0  0  0  0  0  0  0  0  0  0  0  0
  -23.4890  -28.8970   23.3310 O   0  0  0  0  0  0  0  0  0  0  0  0
  -20.9660  -29.8900   21.7330 H   0  0  0  0  0  0  0  0  0  0  0  0
  -18.1090  -28.1100   22.9520 C   0  0  0  0  0  0  0  0  0  0  0  0
  -20.6670  -28.3930   23.1950 C   0  0  0  0  0  3  0  0  0  0  0  0
  -20.7780  -26.9640   22.6170 C   0  0  0  0  0  2  0  0  0  0  0  0
  -19.6670  -26.6300   21.6170 C   0  0  0  0  0  2  0  0  0  0  0  0
  -18.2910  -26.7630   22.2750 C   0  0  0  0  0  2  0  0  0  0  0  0
  -19.2250  -28.8840   23.3700 C   0  0  0  0  0  0  0  0  0  0  0  0
  -19.0000  -30.1440   23.9660 C   0  0  0  0  0  3  0  0  0  0  0  0
  -17.6920  -30.6310   24.1470 C   0  0  0  0  0  3  0  0  0  0  0  0
  -16.5900  -29.8550   23.7480 C   0  0  0  0  0  3  0  0  0  0  0  0
  -16.8010  -28.5970   23.1560 C   0  0  0  0  0  3  0  0  0  0  0  0
  -25.9320  -32.5940   23.7920 C   0  0  0  0  0  3  0  0  0  0  0  0
  -25.6010  -33.9780   24.1650 N   0  0  0  0  0  0  0  0  0  0  0  0
  -25.9040  -35.0580   23.4320 C   0  0  0  0  0  0  0  0  0  0  0  0
  -26.5600  -34.9960   22.3890 O   0  0  0  0  0  0  0  0  0  0  0  0
  -25.0120  -34.0990   24.9750 H   0  0  0  0  0  0  0  0  0  0  0  0
  -24.1390  -36.8300   23.1590 C   0  0  0  0  0  1  0  0  0  0  0  0
  -25.3990  -36.4230   23.9380 C   0  0  0  0  0  3  0  0  0  0  0  0
  -27.5340  -37.3220   24.7530 C   0  0  0  0  0  1  0  0  0  0  0  0
  -26.4100  -37.4980   23.8390 N   0  0  0  0  0  0  0  0  0  0  0  0
  -25.9900  -38.4050   24.0270 H   0  0  0  0  0  0  0  0  0  0  0  0
  -26.4930  -31.8040   25.0390 C   0  0  1  0  0  0  0  0  0  0  0  0
  -25.4280  -31.5230   26.1250 C   0  0  0  0  0  1  0  0  0  0  0  0
  -27.0930  -30.4450   24.6090 C   0  0  0  0  0  1  0  0  0  0  0  0
  -27.6440  -32.6050   25.6960 C   0  0  0  0  0  1  0  0  0  0  0  0
  -29.3760  -21.3620   20.8210 C   0  0  0  0  0  2  0  0  0  0  0  0
  -29.1120  -19.7420   18.8330 C   0  0  0  0  0  3  0  0  0  0  0  0
  -29.0780  -18.4760   18.2330 C   0  0  0  0  0  3  0  0  0  0  0  0
  -29.6950  -18.6590   20.9360 C   0  0  0  0  0  3  0  0  0  0  0  0
  -29.4250  -19.8920   20.1980 C   0  0  0  0  0  0  0  0  0  0  0  0
  -29.3510  -17.2920   18.9500 C   0  0  0  0  0  0  0  0  0  0  0  0
  -29.6810  -17.3260   20.3390 C   0  0  0  0  0  0  0  0  0  0  0  0
  -29.2100  -16.0060   18.1630 C   0  0  0  0  0  1  0  0  0  0  0  0
  -30.6250  -14.9600   21.0370 C   0  0  0  0  0  0  0  0  0  0  0  0
  -30.6420  -12.5800   20.2760 C   0  0  0  0  0  2  0  0  0  0  0  0
  -29.8510  -12.4680   18.9530 C   0  0  0  0  0  2  0  0  0  0  0  0
  -28.3270  -12.3900   19.1830 C   0  0  0  0  0  2  0  0  0  0  0  0
  -27.8030  -13.3140   20.3180 C   0  0  0  0  0  3  0  0  0  0  0  0
  -28.7340  -13.3300   21.5460 C   0  0  0  0  0  2  0  0  0  0  0  0
  -30.0740  -13.6950   21.0660 N   0  0  0  0  0  0  0  0  0  0  0  0
  -31.8300  -15.1020   20.8150 O   0  0  0  0  0  0  0  0  0  0  0  0
  -29.7650  -16.0500   21.1140 N   0  0  0  0  0  0  0  0  0  0  0  0
  -28.8790  -15.7810   21.5120 H   0  0  0  0  0  0  0  0  0  0  0  0
  -25.3430  -13.9000   20.7520 C   0  0  0  0  0  0  0  0  0  0  0  0
  -24.2540  -13.1230   21.0260 C   0  0  0  0  0  0  0  0  0  0  0  0
  -24.7330  -11.7780   21.0890 C   0  0  0  0  0  0  0  0  0  0  0  0
  -26.4180  -13.0280   20.6620 N   0  0  0  0  0  0  0  0  0  0  0  0
  -26.0500  -11.7490   20.9270 N   0  0  0  0  0  0  0  0  0  0  0  0
  -24.0100  -10.5080   21.2280 C   0  0  0  0  0  0  0  0  0  0  0  0
  -24.3820   -9.5470   22.1950 C   0  0  0  0  0  3  0  0  0  0  0  0
  -23.6550   -8.3440   22.3260 C   0  0  0  0  0  3  0  0  0  0  0  0
  -22.5460   -8.0900   21.4850 C   0  0  0  0  0  0  0  0  0  0  0  0
  -22.1980   -9.0370   20.5050 C   0  0  0  0  0  3  0  0  0  0  0  0
  -22.9240  -10.2330   20.3730 C   0  0  0  0  0  3  0  0  0  0  0  0
  -21.7950   -6.9410   21.5250 O   0  0  0  0  0  0  0  0  0  0  0  0
  -21.6900   -6.1900   22.6670 C   0  0  0  0  0  0  0  0  0  0  0  0
  -21.2190   -6.7380   23.8800 C   0  0  0  0  0  3  0  0  0  0  0  0
  -21.0670   -5.9140   25.0130 C   0  0  0  0  0  3  0  0  0  0  0  0
  -21.3690   -4.5420   24.9300 C   0  0  0  0  0  0  0  0  0  0  0  0
  -21.8310   -3.9930   23.7220 C   0  0  0  0  0  3  0  0  0  0  0  0
  -21.9870   -4.8150   22.5930 C   0  0  0  0  0  0  0  0  0  0  0  0
  -22.4130   -4.2780   21.4240 F   0  0  0  0  0  0  0  0  0  0  0  0
  -21.2110   -3.7460   26.0140 F   0  0  0  0  0  0  0  0  0  0  0  0
  -22.8260  -13.5850   21.1350 C   0  0  0  0  0  0  0  0  0  0  0  0
  -22.0240  -12.9030   21.9420 N   0  0  0  0  0  0  0  0  0  0  0  0
  -22.4320  -14.5890   20.5400 O   0  0  0  0  0  0  0  0  0  0  0  0
  -22.3530  -12.0930   22.4480 H   0  0  0  0  0  0  0  0  0  0  0  0
  -21.0630  -13.1930   22.0640 H   0  0  0  0  0  0  0  0  0  0  0  0
  -25.5130  -15.2690   20.5500 N   0  0  0  0  0  0  0  0  0  0  0  0
  -24.7350  -15.9180   20.5270 H   0  0  0  0  0  0  0  0  0  0  0  0
  -26.3890  -15.7000   20.2810 H   0  0  0  0  0  0  0  0  0  0  0  0
  1  2  1  0
  1  3  1  0
  2  5  1  0
  3  6  1  0
  5  8  1  0
  5  4  1  0
  6  4  1  0
  6 49  1  0
  6  7  1  6
  9 20  2  0
 10  8  1  0
 10 15  1  0
 11 19  1  0
 11 21  1  0
 12 18  1  0
 12 14  1  0
 13 19  1  0
 14 13  1  0
 15 14  2  0
 16 17  1  0
 16 10  2  0
 17 12  2  0
 18 11  1  0
 19  9  1  0
 21 23  2  0
 22 21  1  0
 24 22  1  0
 25 34  2  0
 25 30  1  0
 26 22  1  0
 26 30  1  0
 27 26  1  0
 28 29  1  0
 28 27  1  0
 29 25  1  0
 30 31  2  0
 31 32  1  0
 33 32  2  0
 34 33  1  0
 35  9  1  0
 35 36  1  0
 35 45  1  0
 36 39  1  0
 37 41  1  0
 37 36  1  0
 38 37  2  0
 41 40  1  0
 43 41  1  0
 43 44  1  0
 43 42  1  0
 45 48  1  1
 45 46  1  0
 47 45  1  0
 50 53  1  0
 51 50  2  0
 51 54  1  0
 53 49  1  0
 53 52  2  0
 54 55  2  0
 55 52  1  0
 55 65  1  0
 56 54  1  0
 57 63  1  0
 57 65  1  0
 58 63  1  0
 59 60  1  0
 59 58  1  0
 61 60  1  0
 61 70  1  0
 61 62  1  0
 63 62  1  0
 64 57  2  0
 65 66  1  0
 67 68  2  0
 68 69  1  0
 68 87  1  0
 69 72  1  0
 70 67  1  0
 70 71  1  0
 71 69  2  0
 72 73  1  0
 73 74  2  0
 75 78  1  0
 75 74  1  0
 76 75  2  0
 77 76  1  0
 77 72  2  0
 78 79  1  0
 79 80  1  0
 80 81  2  0
 82 81  1  0
 82 86  1  0
 83 82  2  0
 84 79  2  0
 84 83  1  0
 85 84  1  0
 87 88  1  0
 88 91  1  0
 88 90  1  0
 89 87  2  0
 92 67  1  0
 93 92  1  0
 94 92  1  0
M  ISO  4   5 101   8 101  57 100  65 100
M  END
>  <TORSDO>  (88) 
F 18

>  <SCORE>  (88) 
-13.452

>  <name>  (88) 
87

>  <ligand_id>  (88) 
87

>  <original_smiles>  (88) 
[H]c1c([H])c([H])c2c(c1[H])C([H])([H])C([H])([H])C([H])([H])C2([H])N([H])C(=O)C1([H])N(C(=O)C([H])(N([H])C(=O)C([H])(N([H])C([H])([H])[H])C([H])([H])[H])C(C([H])([H])[H])(C([H])([H])[H])C([H])([H])[H])C([H])([H])c2c([H])c(OC3([H])C([H])([H])C([H])([H])C([H])([H])[N+]([H])(C([H])([H])c4c([H])c([H])c(C([H])([H])[H])c(N([H])C(=O)N5C([H])([H])C([H])([H])C([H])([H])C([H])(n6nc(-c7c([H])c([H])c(Oc8c([H])c([H])c(F)c([H])c8F)c([H])c7[H])c(C(=O)N([H])[H])c6N([H])[H])C5([H])[H])c4[H])C3([H])[H])c([H])c([H])c2C1([H])[H]

>  <smiles>  (88) 
[H]c1c([H])c([H])c2c(c1[H])C([H])([H])C([H])([H])C([H])([H])C2([H])N([H])C(=O)C1([H])N(C(=O)C([H])(N([H])C(=O)C([H])(N([H])C([H])([H])[H])C([H])([H])[H])C(C([H])([H])[H])(C([H])([H])[H])C([H])([H])[H])C([H])([H])c2c([H])c(OC3([H])C([H])([H])C([H])([H])C([H])([H])[N+]([H])(C([H])([H])c4c([H])c([H])c(C([H])([H])[H])c(N([H])C(=O)N5C([H])([H])C([H])([H])C([H])([H])C([H])(n6nc(-c7c([H])c([H])c(Oc8c([H])c([H])c(F)c([H])c8F)c([H])c7[H])c(C(=O)N([H])[H])c6N([H])[H])C5([H])[H])c4[H])C3([H])[H])c([H])c([H])c2C1([H])[H]

$$$$
88:0:0
     RDKit          3D

 97106  0  0  1  0  0  0  0  0999 V2000
  -27.8570  -23.9650   21.1750 C   0  0  0  0  0  0  0  0  0  0  0  0
  -27.1510  -23.1300   21.9630 C   0  0  0  0  0  3  0  0  0  0  0  0
  -27.4550  -25.3610   20.7560 C   0  0  0  0  0  2  0  0  0  0  0  0
  -29.6850  -24.9940   20.0450 C   0  0  0  0  0  2  0  0  0  0  0  0
  -28.4380  -25.7980   19.6510 C   0  0  0  0  0  3  0  0  0  0  0  0
  -27.5260  -21.7230   22.3720 C   0  0  0  0  0  1  0  0  0  0  0  0
  -29.1570  -23.6770   20.5010 N   0  0  2  0  0  4  0  0  0  0  0  0
  -29.8110  -23.3050   21.1710 H   0  0  0  0  0  0  0  0  0  0  0  0
  -28.5710  -27.2360   19.5500 O   0  0  0  0  0  0  0  0  0  0  0  0
  -24.5460  -31.8450   23.1750 C   0  0  0  0  0  0  0  0  0  0  0  0
  -27.3730  -27.9350   19.5680 C   0  0  0  0  0  0  0  0  0  0  0  0
  -23.3790  -30.5130   21.4540 C   0  0  0  0  0  3  0  0  0  0  0  0
  -24.8790  -29.2510   19.8230 C   0  0  0  0  0  0  0  0  0  0  0  0
  -25.8580  -31.0880   21.1930 C   0  0  0  0  0  2  0  0  0  0  0  0
  -26.0210  -29.7970   20.4190 C   0  0  0  0  0  0  0  0  0  0  0  0
  -27.2720  -29.1450   20.2940 C   0  0  0  0  0  3  0  0  0  0  0  0
  -26.2130  -27.4310   18.9310 C   0  0  0  0  0  3  0  0  0  0  0  0
  -24.9700  -28.0660   19.0780 C   0  0  0  0  0  3  0  0  0  0  0  0
  -23.5760  -29.9910   20.0070 C   0  0  0  0  0  2  0  0  0  0  0  0
  -24.6160  -31.1570   22.0000 N   0  0  0  0  0  0  0  0  0  0  0  0
  -23.4730  -31.9800   23.7790 O   0  0  0  0  0  0  0  0  0  0  0  0
  -22.8530  -29.3540   22.3320 C   0  0  0  0  0  0  0  0  0  0  0  0
  -21.5600  -29.0280   22.1820 N   0  0  0  0  0  0  0  0  0  0  0  0
  -23.6070  -28.7570   23.1050 O   0  0  0  0  0  0  0  0  0  0  0  0
  -21.0060  -29.5600   21.5260 H   0  0  0  0  0  0  0  0  0  0  0  0
  -18.3700  -27.3670   22.5240 C   0  0  0  0  0  0  0  0  0  0  0  0
  -20.8650  -27.9450   22.8800 C   0  0  0  0  0  3  0  0  0  0  0  0
  -21.1710  -26.5770   22.2290 C   0  0  0  0  0  2  0  0  0  0  0  0
  -20.1420  -26.1660   21.1710 C   0  0  0  0  0  2  0  0  0  0  0  0
  -18.7380  -26.0960   21.7780 C   0  0  0  0  0  2  0  0  0  0  0  0
  -19.3690  -28.2430   23.0280 C   0  0  0  0  0  0  0  0  0  0  0  0
  -18.9710  -29.4300   23.6800 C   0  0  0  0  0  3  0  0  0  0  0  0
  -17.6080  -29.7480   23.8290 C   0  0  0  0  0  3  0  0  0  0  0  0
  -16.6250  -28.8720   23.3420 C   0  0  0  0  0  3  0  0  0  0  0  0
  -17.0060  -27.6820   22.6960 C   0  0  0  0  0  3  0  0  0  0  0  0
  -25.8070  -32.5170   23.8010 C   0  0  0  0  0  3  0  0  0  0  0  0
  -26.3510  -31.7560   25.0710 C   0  0  1  0  0  0  0  0  0  0  0  0
  -25.2590  -31.4500   26.1230 C   0  0  0  0  0  1  0  0  0  0  0  0
  -27.0080  -30.4150   24.6630 C   0  0  0  0  0  1  0  0  0  0  0  0
  -27.4530  -32.5990   25.7540 C   0  0  0  0  0  1  0  0  0  0  0  0
  -25.4480  -33.9010   24.1390 N   0  0  0  0  0  0  0  0  0  0  0  0
  -25.7580  -34.9720   23.3930 C   0  0  0  0  0  0  0  0  0  0  0  0
  -26.4500  -34.8990   22.3750 O   0  0  0  0  0  0  0  0  0  0  0  0
  -24.8320  -34.0280   24.9280 H   0  0  0  0  0  0  0  0  0  0  0  0
  -23.9810  -36.7100   23.0110 C   0  0  0  0  0  1  0  0  0  0  0  0
  -25.2130  -36.3360   23.8510 C   0  0  0  0  0  3  0  0  0  0  0  0
  -27.2910  -37.2850   24.7520 C   0  0  0  0  0  1  0  0  0  0  0  0
  -26.2120  -37.4230   23.7780 N   0  0  0  0  0  0  0  0  0  0  0  0
  -25.7720  -38.3290   23.9170 H   0  0  0  0  0  0  0  0  0  0  0  0
  -29.0700  -22.6560   19.4110 C   0  0  0  0  0  2  0  0  0  0  0  0
  -31.2400  -19.9050   21.0200 C   0  0  0  0  0  3  0  0  0  0  0  0
  -30.6700  -21.1520   20.7260 C   0  0  0  0  0  3  0  0  0  0  0  0
  -30.8710  -18.7380   20.3280 C   0  0  0  0  0  0  0  0  0  0  0  0
  -29.6710  -21.2740   19.7370 C   0  0  0  0  0  0  0  0  0  0  0  0
  -29.9230  -18.8510   19.2680 C   0  0  0  0  0  0  0  0  0  0  0  0
  -29.2920  -20.1090   19.0070 C   0  0  0  0  0  0  0  0  0  0  0  0
  -29.6230  -17.6710   18.3470 C   0  0  0  0  0  1  0  0  0  0  0  0
  -28.2440  -20.2170   17.8910 C   0  0  0  0  0  1  0  0  0  0  0  0
  -31.6400  -17.4670   20.7330 C   0  0  0  0  0  2  0  0  0  0  0  0
  -31.5330  -15.0660   20.1340 C   0  0  0  0  0  0  0  0  0  0  0  0
  -31.1390  -12.8310   19.1860 C   0  0  0  0  0  2  0  0  0  0  0  0
  -30.2100  -12.9470   17.9630 C   0  0  0  0  0  2  0  0  0  0  0  0
  -28.7350  -12.8770   18.3980 C   0  0  0  0  0  2  0  0  0  0  0  0
  -28.4120  -13.8220   19.5860 C   0  0  0  0  0  3  0  0  0  0  0  0
  -29.4700  -13.7130   20.7100 C   0  0  0  0  0  2  0  0  0  0  0  0
  -30.7970  -13.9240   20.1100 N   0  0  0  0  0  0  0  0  0  0  0  0
  -32.6400  -15.1470   19.5930 O   0  0  0  0  0  0  0  0  0  0  0  0
  -30.9650  -16.1590   20.6690 N   0  0  0  0  0  0  0  0  0  0  0  0
  -30.0420  -16.0800   21.0660 H   0  0  0  0  0  0  0  0  0  0  0  0
  -26.0690  -14.5210   20.3880 C   0  0  0  0  0  0  0  0  0  0  0  0
  -24.9670  -13.7920   20.7490 C   0  0  0  0  0  0  0  0  0  0  0  0
  -25.3500  -12.4180   20.6390 C   0  0  0  0  0  0  0  0  0  0  0  0
  -27.0570  -13.5980   20.0890 N   0  0  0  0  0  0  0  0  0  0  0  0
  -26.6270  -12.3250   20.2900 N   0  0  0  0  0  0  0  0  0  0  0  0
  -24.5560  -11.1900   20.7830 C   0  0  0  0  0  0  0  0  0  0  0  0
  -24.8950  -10.2000   21.7330 C   0  0  0  0  0  3  0  0  0  0  0  0
  -24.1070   -9.0370   21.8650 C   0  0  0  0  0  3  0  0  0  0  0  0
  -22.9660   -8.8550   21.0480 C   0  0  0  0  0  0  0  0  0  0  0  0
  -22.6460   -9.8340   20.0890 C   0  0  0  0  0  3  0  0  0  0  0  0
  -23.4340  -10.9900   19.9540 C   0  0  0  0  0  3  0  0  0  0  0  0
  -22.1570   -7.7440   21.0890 O   0  0  0  0  0  0  0  0  0  0  0  0
  -21.9430   -7.0540   22.2560 C   0  0  0  0  0  0  0  0  0  0  0  0
  -21.3500   -7.6640   23.3840 C   0  0  0  0  0  3  0  0  0  0  0  0
  -21.0800   -6.8990   24.5380 C   0  0  0  0  0  3  0  0  0  0  0  0
  -21.3960   -5.5280   24.5630 C   0  0  0  0  0  0  0  0  0  0  0  0
  -21.9810   -4.9180   23.4400 C   0  0  0  0  0  3  0  0  0  0  0  0
  -22.2500   -5.6800   22.2880 C   0  0  0  0  0  0  0  0  0  0  0  0
  -22.7950   -5.0810   21.2000 F   0  0  0  0  0  0  0  0  0  0  0  0
  -21.1310   -4.7910   25.6680 F   0  0  0  0  0  0  0  0  0  0  0  0
  -23.6050  -14.3340   21.0840 C   0  0  0  0  0  0  0  0  0  0  0  0
  -22.8650  -13.6460   21.9440 N   0  0  0  0  0  0  0  0  0  0  0  0
  -23.2100  -15.4020   20.6190 O   0  0  0  0  0  0  0  0  0  0  0  0
  -23.1930  -12.7810   22.3440 H   0  0  0  0  0  0  0  0  0  0  0  0
  -21.9520  -13.9930   22.2080 H   0  0  0  0  0  0  0  0  0  0  0  0
  -26.3060  -15.8860   20.2690 N   0  0  0  0  0  0  0  0  0  0  0  0
  -25.5760  -16.5750   20.4100 H   0  0  0  0  0  0  0  0  0  0  0  0
  -27.1690  -16.2900   19.9310 H   0  0  0  0  0  0  0  0  0  0  0  0
  1  2  2  0
  2  6  1  0
  3  1  1  0
  4  7  1  0
  5  9  1  0
  5  4  1  0
  5  3  1  0
  7  8  1  1
  7  1  1  0
  9 11  1  0
 10 21  2  0
 11 16  1  0
 12 20  1  0
 12 22  1  0
 13 19  1  0
 13 15  1  0
 14 20  1  0
 15 14  1  0
 16 15  2  0
 17 18  1  0
 17 11  2  0
 18 13  2  0
 19 12  1  0
 20 10  1  0
 22 24  2  0
 23 22  1  0
 25 23  1  0
 26 35  2  0
 26 31  1  0
 27 23  1  0
 27 31  1  0
 28 27  1  0
 29 30  1  0
 29 28  1  0
 30 26  1  0
 31 32  2  0
 32 33  1  0
 34 33  2  0
 35 34  1  0
 36 10  1  0
 36 41  1  0
 36 37  1  0
 37 40  1  1
 37 38  1  0
 39 37  1  0
 41 44  1  0
 42 46  1  0
 42 41  1  0
 43 42  2  0
 46 45  1  0
 48 46  1  0
 48 49  1  0
 48 47  1  0
 50 54  1  0
 50  7  1  0
 52 51  1  0
 53 59  1  0
 53 51  2  0
 54 52  2  0
 55 53  1  0
 56 55  2  0
 56 54  1  0
 57 55  1  0
 58 56  1  0
 60 68  1  0
 61 66  1  0
 62 63  1  0
 62 61  1  0
 64 63  1  0
 64 73  1  0
 64 65  1  0
 66 60  1  0
 66 65  1  0
 67 60  2  0
 68 59  1  0
 68 69  1  0
 70 71  2  0
 71 90  1  0
 72 71  1  0
 72 75  1  0
 73 74  1  0
 73 70  1  0
 74 72  2  0
 75 76  1  0
 76 77  2  0
 78 81  1  0
 78 77  1  0
 79 78  2  0
 80 79  1  0
 80 75  2  0
 81 82  1  0
 82 87  2  0
 82 83  1  0
 83 84  2  0
 84 85  1  0
 85 89  1  0
 86 85  2  0
 87 86  1  0
 88 87  1  0
 90 91  1  0
 91 94  1  0
 91 93  1  0
 92 90  2  0
 95 70  1  0
 95 96  1  0
 97 95  1  0
M  ISO  4   5 101   9 101  60 100  68 100
M  END
>  <TORSDO>  (89) 
F 19

>  <SCORE>  (89) 
-10.721

>  <name>  (89) 
88

>  <ligand_id>  (89) 
88

>  <original_smiles>  (89) 
[H]C(=C1C([H])([H])C([H])(Oc2c([H])c([H])c3c(c2[H])C([H])([H])N(C(=O)C([H])(N([H])C(=O)C([H])(N([H])C([H])([H])[H])C([H])([H])[H])C(C([H])([H])[H])(C([H])([H])[H])C([H])([H])[H])C([H])(C(=O)N([H])C2([H])c4c([H])c([H])c([H])c([H])c4C([H])([H])C([H])([H])C2([H])[H])C3([H])[H])C([H])([H])[N+]1([H])C([H])([H])c1c([H])c([H])c(C([H])([H])N([H])C(=O)N2C([H])([H])C([H])([H])C([H])([H])C([H])(n3nc(-c4c([H])c([H])c(Oc5c([H])c([H])c(F)c([H])c5F)c([H])c4[H])c(C(=O)N([H])[H])c3N([H])[H])C2([H])[H])c(C([H])([H])[H])c1C([H])([H])[H])C([H])([H])[H]

>  <smiles>  (89) 
[H]C(=C1C([H])([H])C([H])(Oc2c([H])c([H])c3c(c2[H])C([H])([H])N(C(=O)C([H])(N([H])C(=O)C([H])(N([H])C([H])([H])[H])C([H])([H])[H])C(C([H])([H])[H])(C([H])([H])[H])C([H])([H])[H])C([H])(C(=O)N([H])C2([H])c4c([H])c([H])c([H])c([H])c4C([H])([H])C([H])([H])C2([H])[H])C3([H])[H])C([H])([H])[N+]1([H])C([H])([H])c1c([H])c([H])c(C([H])([H])N([H])C(=O)N2C([H])([H])C([H])([H])C([H])([H])C([H])(n3nc(-c4c([H])c([H])c(Oc5c([H])c([H])c(F)c([H])c5F)c([H])c4[H])c(C(=O)N([H])[H])c3N([H])[H])C2([H])[H])c(C([H])([H])[H])c1C([H])([H])[H])C([H])([H])[H]

$$$$
89:0:0
     RDKit          3D

 97106  0  0  1  0  0  0  0  0999 V2000
  -29.9650  -22.0460   19.3350 C   0  0  0  0  0  2  0  0  0  0  0  0
  -29.2190  -19.6310   19.1510 C   0  0  0  0  0  3  0  0  0  0  0  0
  -29.1480  -18.2640   19.5070 C   0  0  0  0  0  0  0  0  0  0  0  0
  -29.8170  -20.6160   19.9690 C   0  0  0  0  0  0  0  0  0  0  0  0
  -30.3770  -20.1630   21.2020 C   0  0  0  0  0  0  0  0  0  0  0  0
  -30.2600  -18.7840   21.6050 C   0  0  0  0  0  0  0  0  0  0  0  0
  -29.6590  -17.8000   20.7510 C   0  0  0  0  0  0  0  0  0  0  0  0
  -28.4710  -17.3170   18.5280 C   0  0  0  0  0  1  0  0  0  0  0  0
  -31.1210  -21.1550   22.0930 C   0  0  0  0  0  1  0  0  0  0  0  0
  -30.7890  -18.3780   22.9800 C   0  0  0  0  0  1  0  0  0  0  0  0
  -29.4030  -16.3080   21.1790 C   0  0  0  0  0  2  0  0  0  0  0  0
  -30.7120  -14.4590   20.0240 C   0  0  0  0  0  0  0  0  0  0  0  0
  -30.2190  -12.3690   18.7730 C   0  0  0  0  0  2  0  0  0  0  0  0
  -29.1920  -12.6170   17.6510 C   0  0  0  0  0  2  0  0  0  0  0  0
  -27.7590  -12.4670   18.1910 C   0  0  0  0  0  2  0  0  0  0  0  0
  -27.5340  -13.2620   19.5070 C   0  0  0  0  0  3  0  0  0  0  0  0
  -28.6730  -13.0160   20.5250 C   0  0  0  0  0  2  0  0  0  0  0  0
  -29.9530  -13.3270   19.8680 N   0  0  0  0  0  0  0  0  0  0  0  0
  -31.7220  -14.6490   19.3380 O   0  0  0  0  0  0  0  0  0  0  0  0
  -31.5260  -15.3510   22.1120 C   0  0  0  0  0  1  0  0  0  0  0  0
  -30.4700  -15.2660   21.0960 N   0  0  0  0  0  0  0  0  0  0  0  0
  -25.2020  -13.8650   20.4070 C   0  0  0  0  0  0  0  0  0  0  0  0
  -24.1580  -13.0940   20.8390 C   0  0  0  0  0  0  0  0  0  0  0  0
  -24.6010  -11.7400   20.7400 C   0  0  0  0  0  0  0  0  0  0  0  0
  -26.2200  -12.9830   20.0810 N   0  0  0  0  0  0  0  0  0  0  0  0
  -25.8660  -11.6960   20.3410 N   0  0  0  0  0  0  0  0  0  0  0  0
  -23.8740  -10.4830   20.9490 C   0  0  0  0  0  0  0  0  0  0  0  0
  -24.3300   -9.5120   21.8680 C   0  0  0  0  0  3  0  0  0  0  0  0
  -23.6050   -8.3170   22.0660 C   0  0  0  0  0  3  0  0  0  0  0  0
  -22.4070   -8.0880   21.3460 C   0  0  0  0  0  0  0  0  0  0  0  0
  -21.9700   -9.0470   20.4150 C   0  0  0  0  0  3  0  0  0  0  0  0
  -22.6970  -10.2330   20.2150 C   0  0  0  0  0  3  0  0  0  0  0  0
  -21.6440   -6.9500   21.4620 O   0  0  0  0  0  0  0  0  0  0  0  0
  -21.5850   -6.2380   22.6320 C   0  0  0  0  0  0  0  0  0  0  0  0
  -21.1650   -6.8240   23.8470 C   0  0  0  0  0  3  0  0  0  0  0  0
  -21.0530   -6.0350   25.0080 C   0  0  0  0  0  3  0  0  0  0  0  0
  -21.3560   -4.6610   24.9600 C   0  0  0  0  0  0  0  0  0  0  0  0
  -21.7740   -4.0740   23.7520 C   0  0  0  0  0  3  0  0  0  0  0  0
  -21.8840   -4.8600   22.5920 C   0  0  0  0  0  0  0  0  0  0  0  0
  -22.2640   -4.2860   21.4250 F   0  0  0  0  0  0  0  0  0  0  0  0
  -21.2430   -3.9020   26.0740 F   0  0  0  0  0  0  0  0  0  0  0  0
  -22.7920  -13.5790   21.2320 C   0  0  0  0  0  0  0  0  0  0  0  0
  -22.1260  -12.8760   22.1390 N   0  0  0  0  0  0  0  0  0  0  0  0
  -22.3280  -14.6190   20.7670 O   0  0  0  0  0  0  0  0  0  0  0  0
  -22.5220  -12.0430   22.5470 H   0  0  0  0  0  0  0  0  0  0  0  0
  -21.2110  -13.1860   22.4380 H   0  0  0  0  0  0  0  0  0  0  0  0
  -25.3660  -15.2390   20.2470 N   0  0  0  0  0  0  0  0  0  0  0  0
  -24.6160  -15.9000   20.4250 H   0  0  0  0  0  0  0  0  0  0  0  0
  -26.1910  -15.6760   19.8610 H   0  0  0  0  0  0  0  0  0  0  0  0
  -30.7850  -24.3660   19.7600 C   0  0  0  0  0  0  0  0  0  0  0  0
  -32.0770  -24.3350   20.1340 C   0  0  0  0  0  2  0  0  0  0  0  0
  -30.0970  -25.4780   18.9990 C   0  0  0  0  0  2  0  0  0  0  0  0
  -28.4290  -24.0180   19.9940 C   0  0  0  0  0  2  0  0  0  0  0  0
  -28.6140  -25.4400   19.3570 C   0  0  0  0  0  3  0  0  0  0  0  0
  -29.7630  -23.3320   20.1100 N   0  0  1  0  0  4  0  0  0  0  0  0
  -29.8780  -23.0860   21.0810 H   0  0  0  0  0  0  0  0  0  0  0  0
  -28.3740  -26.6040   20.2020 O   0  0  0  0  0  0  0  0  0  0  0  0
  -24.5780  -31.8560   23.2190 C   0  0  0  0  0  0  0  0  0  0  0  0
  -27.1970  -27.3460   20.1480 C   0  0  0  0  0  0  0  0  0  0  0  0
  -23.3660  -30.4610   21.5770 C   0  0  0  0  0  3  0  0  0  0  0  0
  -24.8120  -28.9040   20.1530 C   0  0  0  0  0  0  0  0  0  0  0  0
  -25.8980  -30.7880   21.3860 C   0  0  0  0  0  2  0  0  0  0  0  0
  -25.9740  -29.4110   20.7470 C   0  0  0  0  0  0  0  0  0  0  0  0
  -27.1630  -28.6370   20.7440 C   0  0  0  0  0  3  0  0  0  0  0  0
  -26.0080  -26.8630   19.5540 C   0  0  0  0  0  3  0  0  0  0  0  0
  -24.8260  -27.6320   19.5570 C   0  0  0  0  0  3  0  0  0  0  0  0
  -23.5750  -29.7770   20.1980 C   0  0  0  0  0  2  0  0  0  0  0  0
  -24.6330  -31.0520   22.1190 N   0  0  0  0  0  0  0  0  0  0  0  0
  -23.4980  -32.1370   23.7550 O   0  0  0  0  0  0  0  0  0  0  0  0
  -22.7040  -29.4470   22.5390 C   0  0  0  0  0  0  0  0  0  0  0  0
  -21.3770  -29.2750   22.4090 N   0  0  0  0  0  0  0  0  0  0  0  0
  -23.3800  -28.8190   23.3570 O   0  0  0  0  0  0  0  0  0  0  0  0
  -20.8910  -29.8330   21.7210 H   0  0  0  0  0  0  0  0  0  0  0  0
  -17.9940  -28.1000   22.8980 C   0  0  0  0  0  0  0  0  0  0  0  0
  -20.5520  -28.3430   23.1780 C   0  0  0  0  0  3  0  0  0  0  0  0
  -20.6480  -26.9110   22.6030 C   0  0  0  0  0  2  0  0  0  0  0  0
  -19.5470  -26.5940   21.5860 C   0  0  0  0  0  2  0  0  0  0  0  0
  -18.1650  -26.7490   22.2250 C   0  0  0  0  0  2  0  0  0  0  0  0
  -19.1160  -28.8560   23.3320 C   0  0  0  0  0  0  0  0  0  0  0  0
  -18.9040  -30.1210   23.9200 C   0  0  0  0  0  3  0  0  0  0  0  0
  -17.6020  -30.6320   24.0790 C   0  0  0  0  0  3  0  0  0  0  0  0
  -16.4950  -29.8730   23.6640 C   0  0  0  0  0  3  0  0  0  0  0  0
  -16.6910  -28.6100   23.0800 C   0  0  0  0  0  3  0  0  0  0  0  0
  -25.8650  -32.4810   23.8410 C   0  0  0  0  0  3  0  0  0  0  0  0
  -26.3900  -31.6950   25.1040 C   0  0  1  0  0  0  0  0  0  0  0  0
  -25.3050  -31.4410   26.1770 C   0  0  0  0  0  1  0  0  0  0  0  0
  -26.9720  -30.3230   24.6910 C   0  0  0  0  0  1  0  0  0  0  0  0
  -27.5440  -32.4810   25.7700 C   0  0  0  0  0  1  0  0  0  0  0  0
  -25.5600  -33.8760   24.1890 N   0  0  0  0  0  0  0  0  0  0  0  0
  -25.8870  -34.9370   23.4390 C   0  0  0  0  0  0  0  0  0  0  0  0
  -26.5490  -34.8440   22.4020 O   0  0  0  0  0  0  0  0  0  0  0  0
  -24.9710  -34.0220   24.9960 H   0  0  0  0  0  0  0  0  0  0  0  0
  -24.1580  -36.7330   23.1110 C   0  0  0  0  0  1  0  0  0  0  0  0
  -25.4010  -36.3200   23.9140 C   0  0  0  0  0  3  0  0  0  0  0  0
  -27.5410  -37.1910   24.7460 C   0  0  0  0  0  1  0  0  0  0  0  0
  -26.4340  -37.3730   23.8110 N   0  0  0  0  0  0  0  0  0  0  0  0
  -26.0300  -38.2910   23.9740 H   0  0  0  0  0  0  0  0  0  0  0  0
  1  4  1  0
  1 55  1  0
  2  3  2  0
  2  4  1  0
  3  7  1  0
  4  5  2  0
  5  6  1  0
  5  9  1  0
  6 10  1  0
  7 11  1  0
  7  6  2  0
  8  3  1  0
 12 21  1  0
 13 18  1  0
 14 15  1  0
 14 13  1  0
 16 15  1  0
 16 25  1  0
 16 17  1  0
 18 12  1  0
 18 17  1  0
 19 12  2  0
 21 11  1  0
 21 20  1  0
 22 23  2  0
 23 42  1  0
 24 23  1  0
 24 27  1  0
 25 26  1  0
 25 22  1  0
 26 24  2  0
 27 28  1  0
 28 29  2  0
 30 33  1  0
 30 29  1  0
 31 30  2  0
 32 31  1  0
 32 27  2  0
 33 34  1  0
 34 35  1  0
 35 36  2  0
 37 36  1  0
 37 41  1  0
 38 37  2  0
 39 34  2  0
 39 38  1  0
 40 39  1  0
 42 43  1  0
 43 46  1  0
 43 45  1  0
 44 42  2  0
 47 22  1  0
 47 48  1  0
 49 47  1  0
 50 55  1  0
 50 51  2  0
 52 54  1  0
 52 50  1  0
 53 55  1  0
 54 53  1  0
 54 57  1  0
 55 56  1  1
 58 69  2  0
 59 57  1  0
 59 64  1  0
 60 68  1  0
 60 70  1  0
 61 67  1  0
 61 63  1  0
 62 68  1  0
 63 62  1  0
 64 63  2  0
 65 66  1  0
 65 59  2  0
 66 61  2  0
 67 60  1  0
 68 58  1  0
 70 72  2  0
 71 70  1  0
 73 71  1  0
 74 83  2  0
 74 79  1  0
 75 71  1  0
 75 79  1  0
 76 75  1  0
 77 78  1  0
 77 76  1  0
 78 74  1  0
 79 80  2  0
 80 81  1  0
 82 81  2  0
 83 82  1  0
 84 58  1  0
 84 89  1  0
 84 85  1  0
 85 88  1  1
 85 86  1  0
 87 85  1  0
 89 92  1  0
 90 94  1  0
 90 89  1  0
 91 90  2  0
 94 93  1  0
 96 94  1  0
 96 97  1  0
 96 95  1  0
M  ISO  4  12 100  21 100  54 101  57 101
M  END
>  <TORSDO>  (90) 
F 19

>  <SCORE>  (90) 
-13.363

>  <name>  (90) 
89

>  <ligand_id>  (90) 
89

>  <original_smiles>  (90) 
[H]C([H])=C1C([H])([H])C([H])(Oc2c([H])c([H])c3c(c2[H])C([H])([H])N(C(=O)C([H])(N([H])C(=O)C([H])(N([H])C([H])([H])[H])C([H])([H])[H])C(C([H])([H])[H])(C([H])([H])[H])C([H])([H])[H])C([H])(C(=O)N([H])C2([H])c4c([H])c([H])c([H])c([H])c4C([H])([H])C([H])([H])C2([H])[H])C3([H])[H])C([H])([H])[N+]1([H])C([H])([H])c1c([H])c(C([H])([H])[H])c(C([H])([H])N(C(=O)N2C([H])([H])C([H])([H])C([H])([H])C([H])(n3nc(-c4c([H])c([H])c(Oc5c([H])c([H])c(F)c([H])c5F)c([H])c4[H])c(C(=O)N([H])[H])c3N([H])[H])C2([H])[H])C([H])([H])[H])c(C([H])([H])[H])c1C([H])([H])[H]

>  <smiles>  (90) 
[H]C([H])=C1C([H])([H])C([H])(Oc2c([H])c([H])c3c(c2[H])C([H])([H])N(C(=O)C([H])(N([H])C(=O)C([H])(N([H])C([H])([H])[H])C([H])([H])[H])C(C([H])([H])[H])(C([H])([H])[H])C([H])([H])[H])C([H])(C(=O)N([H])C2([H])c4c([H])c([H])c([H])c([H])c4C([H])([H])C([H])([H])C2([H])[H])C3([H])[H])C([H])([H])[N+]1([H])C([H])([H])c1c([H])c(C([H])([H])[H])c(C([H])([H])N(C(=O)N2C([H])([H])C([H])([H])C([H])([H])C([H])(n3nc(-c4c([H])c([H])c(Oc5c([H])c([H])c(F)c([H])c5F)c([H])c4[H])c(C(=O)N([H])[H])c3N([H])[H])C2([H])[H])C([H])([H])[H])c(C([H])([H])[H])c1C([H])([H])[H]

$$$$
90:0:0
     RDKit          3D

102112  0  0  1  0  0  0  0  0999 V2000
  -29.0950  -17.5590   19.4800 C   0  0  0  0  0  3  0  0  0  0  0  0
  -28.7170  -18.9180   19.2490 C   0  0  0  0  0  0  0  0  0  0  0  0
  -29.6490  -19.5240   21.4040 C   0  0  0  0  0  0  0  0  0  0  0  0
  -28.9710  -19.9590   20.2140 C   0  0  0  0  0  0  0  0  0  0  0  0
  -30.0460  -18.1470   21.6050 C   0  0  0  0  0  0  0  0  0  0  0  0
  -29.7420  -17.1230   20.6570 C   0  0  0  0  0  0  0  0  0  0  0  0
  -29.8990  -20.5360   22.5210 C   0  0  0  0  0  1  0  0  0  0  0  0
  -30.7770  -17.7460   22.8830 C   0  0  0  0  0  1  0  0  0  0  0  0
  -30.6000  -14.6680   20.5010 C   0  0  0  0  0  0  0  0  0  0  0  0
  -30.4450  -12.4090   19.4600 C   0  0  0  0  0  2  0  0  0  0  0  0
  -29.5140  -12.5140   18.2310 C   0  0  0  0  0  2  0  0  0  0  0  0
  -28.0350  -12.3500   18.6390 C   0  0  0  0  0  2  0  0  0  0  0  0
  -27.6570  -13.2160   19.8700 C   0  0  0  0  0  3  0  0  0  0  0  0
  -28.7010  -13.0670   20.9990 C   0  0  0  0  0  2  0  0  0  0  0  0
  -30.0150  -13.4270   20.4420 N   0  0  0  0  0  0  0  0  0  0  0  0
  -31.7420  -14.8550   20.0710 O   0  0  0  0  0  0  0  0  0  0  0  0
  -29.8100  -15.6890   20.9710 N   0  0  0  0  0  0  0  0  0  0  0  0
  -28.9730  -15.3390   21.4110 H   0  0  0  0  0  0  0  0  0  0  0  0
  -25.2580  -13.8160   20.5690 C   0  0  0  0  0  0  0  0  0  0  0  0
  -24.1830  -13.0430   20.9180 C   0  0  0  0  0  0  0  0  0  0  0  0
  -24.6390  -11.6910   20.8730 C   0  0  0  0  0  0  0  0  0  0  0  0
  -26.3010  -12.9340   20.3350 N   0  0  0  0  0  0  0  0  0  0  0  0
  -25.9330  -11.6500   20.5760 N   0  0  0  0  0  0  0  0  0  0  0  0
  -23.9070  -10.4290   21.0400 C   0  0  0  0  0  0  0  0  0  0  0  0
  -24.3610   -9.4210   21.9180 C   0  0  0  0  0  3  0  0  0  0  0  0
  -23.6290   -8.2240   22.0750 C   0  0  0  0  0  3  0  0  0  0  0  0
  -22.4280   -8.0280   21.3540 C   0  0  0  0  0  0  0  0  0  0  0  0
  -21.9910   -9.0260   20.4650 C   0  0  0  0  0  3  0  0  0  0  0  0
  -22.7230  -10.2140   20.3050 C   0  0  0  0  0  3  0  0  0  0  0  0
  -21.6630   -6.8890   21.4240 O   0  0  0  0  0  0  0  0  0  0  0  0
  -21.6850   -6.0740   22.5280 C   0  0  0  0  0  0  0  0  0  0  0  0
  -21.4010   -6.5640   23.8210 C   0  0  0  0  0  3  0  0  0  0  0  0
  -21.3660   -5.6790   24.9180 C   0  0  0  0  0  3  0  0  0  0  0  0
  -21.6050   -4.3060   24.7220 C   0  0  0  0  0  0  0  0  0  0  0  0
  -21.8820   -3.8150   23.4340 C   0  0  0  0  0  3  0  0  0  0  0  0
  -21.9190   -4.6970   22.3400 C   0  0  0  0  0  0  0  0  0  0  0  0
  -22.1650   -4.2150   21.0980 F   0  0  0  0  0  0  0  0  0  0  0  0
  -21.5640   -3.4540   25.7730 F   0  0  0  0  0  0  0  0  0  0  0  0
  -22.7850  -13.5240   21.1850 C   0  0  0  0  0  0  0  0  0  0  0  0
  -22.0490  -12.8230   22.0410 N   0  0  0  0  0  0  0  0  0  0  0  0
  -22.3550  -14.5560   20.6720 O   0  0  0  0  0  0  0  0  0  0  0  0
  -22.4090  -11.9870   22.4770 H   0  0  0  0  0  0  0  0  0  0  0  0
  -21.1110  -13.1270   22.2620 H   0  0  0  0  0  0  0  0  0  0  0  0
  -25.4300  -15.1880   20.4120 N   0  0  0  0  0  0  0  0  0  0  0  0
  -24.6700  -15.8460   20.5440 H   0  0  0  0  0  0  0  0  0  0  0  0
  -26.2910  -15.6320   20.1200 H   0  0  0  0  0  0  0  0  0  0  0  0
  -27.9270  -19.1610   17.9520 C   0  0  0  0  0  2  0  0  0  0  0  0
  -30.6570  -19.9590   15.4660 C   0  0  0  0  0  2  0  0  0  0  0  0
  -29.4840  -20.8050   14.9720 C   0  0  0  0  0  2  0  0  0  0  0  0
  -30.2040  -19.5180   16.8570 C   0  0  0  0  0  2  0  0  0  0  0  0
  -28.2490  -20.2390   15.6980 C   0  0  0  0  0  2  0  0  0  0  0  0
  -28.7520  -19.2820   16.7150 N   0  0  2  0  0  4  0  0  0  0  0  0
  -28.6850  -18.3770   16.2730 H   0  0  0  0  0  0  0  0  0  0  0  0
  -28.3400  -21.4260   20.0240 C   0  0  0  0  0  2  0  0  0  0  0  0
  -30.1280  -23.2490   19.6240 C   0  0  0  0  0  0  0  0  0  0  0  0
  -31.1890  -22.5130   19.2500 C   0  0  0  0  0  2  0  0  0  0  0  0
  -29.8930  -24.7360   19.3490 C   0  0  0  0  0  2  0  0  0  0  0  0
  -28.0830  -23.9190   20.6860 C   0  0  0  0  0  2  0  0  0  0  0  0
  -28.4460  -25.1000   19.7130 C   0  0  0  0  0  3  0  0  0  0  0  0
  -29.0050  -22.7310   20.4600 N   0  0  1  0  0  4  0  0  0  0  0  0
  -29.3700  -22.5200   21.3770 H   0  0  0  0  0  0  0  0  0  0  0  0
  -28.3860  -26.5150   20.1690 O   0  0  0  0  0  0  0  0  0  0  0  0
  -24.6260  -31.8590   23.2010 C   0  0  0  0  0  0  0  0  0  0  0  0
  -27.2320  -27.3120   20.1180 C   0  0  0  0  0  0  0  0  0  0  0  0
  -23.4190  -30.4810   21.5420 C   0  0  0  0  0  3  0  0  0  0  0  0
  -24.8660  -28.9290   20.1110 C   0  0  0  0  0  0  0  0  0  0  0  0
  -25.9590  -30.7880   21.3700 C   0  0  0  0  0  2  0  0  0  0  0  0
  -26.0320  -29.4130   20.7140 C   0  0  0  0  0  0  0  0  0  0  0  0
  -27.2130  -28.6160   20.7080 C   0  0  0  0  0  3  0  0  0  0  0  0
  -26.0360  -26.8710   19.5060 C   0  0  0  0  0  3  0  0  0  0  0  0
  -24.8700  -27.6640   19.5000 C   0  0  0  0  0  3  0  0  0  0  0  0
  -23.6340  -29.8110   20.1580 C   0  0  0  0  0  2  0  0  0  0  0  0
  -24.6870  -31.0600   22.0950 N   0  0  0  0  0  0  0  0  0  0  0  0
  -23.5420  -32.1390   23.7330 O   0  0  0  0  0  0  0  0  0  0  0  0
  -22.7470  -29.4620   22.4930 C   0  0  0  0  0  0  0  0  0  0  0  0
  -21.4180  -29.3040   22.3680 N   0  0  0  0  0  0  0  0  0  0  0  0
  -23.4190  -28.8160   23.3010 O   0  0  0  0  0  0  0  0  0  0  0  0
  -20.9360  -29.8770   21.6890 H   0  0  0  0  0  0  0  0  0  0  0  0
  -18.0280  -28.1390   22.8490 C   0  0  0  0  0  0  0  0  0  0  0  0
  -20.5880  -28.3690   23.1290 C   0  0  0  0  0  3  0  0  0  0  0  0
  -20.6770  -26.9420   22.5410 C   0  0  0  0  0  2  0  0  0  0  0  0
  -19.5750  -26.6390   21.5220 C   0  0  0  0  0  2  0  0  0  0  0  0
  -18.1930  -26.7930   22.1630 C   0  0  0  0  0  2  0  0  0  0  0  0
  -19.1530  -28.8860   23.2880 C   0  0  0  0  0  0  0  0  0  0  0  0
  -18.9460  -30.1460   23.8900 C   0  0  0  0  0  3  0  0  0  0  0  0
  -17.6460  -30.6590   24.0560 C   0  0  0  0  0  3  0  0  0  0  0  0
  -16.5350  -29.9100   23.6330 C   0  0  0  0  0  3  0  0  0  0  0  0
  -16.7270  -28.6510   23.0350 C   0  0  0  0  0  3  0  0  0  0  0  0
  -25.9110  -32.4770   23.8330 C   0  0  0  0  0  3  0  0  0  0  0  0
  -26.4490  -31.6580   25.0710 C   0  0  1  0  0  0  0  0  0  0  0  0
  -25.3720  -31.3730   26.1430 C   0  0  0  0  0  1  0  0  0  0  0  0
  -27.0340  -30.3010   24.6170 C   0  0  0  0  0  1  0  0  0  0  0  0
  -27.6050  -32.4310   25.7480 C   0  0  0  0  0  1  0  0  0  0  0  0
  -25.5920  -33.8570   24.2260 N   0  0  0  0  0  0  0  0  0  0  0  0
  -25.9050  -34.9440   23.5100 C   0  0  0  0  0  0  0  0  0  0  0  0
  -26.5620  -34.8920   22.4670 O   0  0  0  0  0  0  0  0  0  0  0  0
  -25.0060  -33.9710   25.0400 H   0  0  0  0  0  0  0  0  0  0  0  0
  -24.1490  -36.7290   23.2640 C   0  0  0  0  0  1  0  0  0  0  0  0
  -25.4120  -36.3070   24.0330 C   0  0  0  0  0  3  0  0  0  0  0  0
  -27.5580  -37.1800   24.8460 C   0  0  0  0  0  1  0  0  0  0  0  0
  -26.4290  -37.3770   23.9410 N   0  0  0  0  0  0  0  0  0  0  0  0
  -26.0170  -38.2850   24.1400 H   0  0  0  0  0  0  0  0  0  0  0  0
  1  6  1  0
  2  1  2  0
  2  4  1  0
  3  5  1  0
  3  7  1  0
  4  3  2  0
  5  8  1  0
  6 17  1  0
  6  5  2  0
  9 17  1  0
 10 15  1  0
 11 12  1  0
 11 10  1  0
 13 12  1  0
 13 22  1  0
 13 14  1  0
 15  9  1  0
 15 14  1  0
 16  9  2  0
 17 18  1  0
 19 20  2  0
 20 39  1  0
 21 20  1  0
 21 24  1  0
 22 19  1  0
 22 23  1  0
 23 21  2  0
 24 25  1  0
 25 26  2  0
 27 30  1  0
 27 26  1  0
 28 27  2  0
 29 28  1  0
 29 24  2  0
 30 31  1  0
 31 32  1  0
 32 33  2  0
 34 33  1  0
 34 38  1  0
 35 34  2  0
 36 31  2  0
 36 35  1  0
 37 36  1  0
 39 40  1  0
 40 43  1  0
 40 42  1  0
 41 39  2  0
 44 45  1  0
 44 19  1  0
 46 44  1  0
 47  2  1  0
 48 50  1  0
 49 48  1  0
 49 51  1  0
 51 52  1  0
 52 50  1  0
 52 47  1  0
 52 53  1  6
 54  4  1  0
 54 60  1  0
 55 60  1  0
 56 55  2  0
 57 55  1  0
 57 59  1  0
 59 62  1  0
 59 58  1  0
 60 58  1  0
 60 61  1  1
 63 74  2  0
 64 62  1  0
 64 69  1  0
 65 73  1  0
 65 75  1  0
 66 72  1  0
 66 68  1  0
 67 73  1  0
 68 67  1  0
 69 68  2  0
 70 64  2  0
 71 70  1  0
 71 66  2  0
 72 65  1  0
 73 63  1  0
 75 77  2  0
 76 75  1  0
 78 76  1  0
 79 88  2  0
 79 84  1  0
 80 76  1  0
 80 84  1  0
 81 80  1  0
 82 83  1  0
 82 81  1  0
 83 79  1  0
 84 85  2  0
 85 86  1  0
 87 86  2  0
 88 87  1  0
 89 63  1  0
 89 94  1  0
 89 90  1  0
 90 93  1  1
 90 91  1  0
 92 90  1  0
 94 97  1  0
 95 99  1  0
 95 94  1  0
 96 95  2  0
 99 98  1  0
101 99  1  0
101102  1  0
101100  1  0
M  ISO  4   9 100  17 100  59 101  62 101
M  END
>  <TORSDO>  (91) 
F 20

>  <SCORE>  (91) 
-12.311

>  <name>  (91) 
90

>  <ligand_id>  (91) 
90

>  <original_smiles>  (91) 
[H]C([H])=C1C([H])([H])C([H])(Oc2c([H])c([H])c3c(c2[H])C([H])([H])N(C(=O)C([H])(N([H])C(=O)C([H])(N([H])C([H])([H])[H])C([H])([H])[H])C(C([H])([H])[H])(C([H])([H])[H])C([H])([H])[H])C([H])(C(=O)N([H])C2([H])c4c([H])c([H])c([H])c([H])c4C([H])([H])C([H])([H])C2([H])[H])C3([H])[H])C([H])([H])[N+]1([H])C([H])([H])c1c(C([H])([H])[H])c(C([H])([H])[H])c(N([H])C(=O)N2C([H])([H])C([H])([H])C([H])([H])C([H])(n3nc(-c4c([H])c([H])c(Oc5c([H])c([H])c(F)c([H])c5F)c([H])c4[H])c(C(=O)N([H])[H])c3N([H])[H])C2([H])[H])c([H])c1C([H])([H])[N+]1([H])C([H])([H])C([H])([H])C([H])([H])C1([H])[H]

>  <smiles>  (91) 
[H]C([H])=C1C([H])([H])C([H])(Oc2c([H])c([H])c3c(c2[H])C([H])([H])N(C(=O)C([H])(N([H])C(=O)C([H])(N([H])C([H])([H])[H])C([H])([H])[H])C(C([H])([H])[H])(C([H])([H])[H])C([H])([H])[H])C([H])(C(=O)N([H])C2([H])c4c([H])c([H])c([H])c([H])c4C([H])([H])C([H])([H])C2([H])[H])C3([H])[H])C([H])([H])[N+]1([H])C([H])([H])c1c(C([H])([H])[H])c(C([H])([H])[H])c(N([H])C(=O)N2C([H])([H])C([H])([H])C([H])([H])C([H])(n3nc(-c4c([H])c([H])c(Oc5c([H])c([H])c(F)c([H])c5F)c([H])c4[H])c(C(=O)N([H])[H])c3N([H])[H])C2([H])[H])c([H])c1C([H])([H])[N+]1([H])C([H])([H])C([H])([H])C([H])([H])C1([H])[H]

$$$$
91:0:0
     RDKit          3D

 93102  0  0  1  0  0  0  0  0999 V2000
  -27.4620  -19.8740   20.3340 C   0  0  0  0  0  3  0  0  0  0  0  0
  -28.3630  -18.7860   20.2860 C   0  0  0  0  0  3  0  0  0  0  0  0
  -30.1370  -20.3680   19.8320 C   0  0  0  0  0  3  0  0  0  0  0  0
  -27.8650  -21.2270   20.1520 C   0  0  0  0  0  0  0  0  0  0  0  0
  -29.7360  -18.9860   20.0450 C   0  0  0  0  0  0  0  0  0  0  0  0
  -29.2320  -21.5070   19.8830 C   0  0  0  0  0  0  0  0  0  0  0  0
  -26.8810  -22.3470   20.2460 C   0  0  0  0  0  0  0  0  0  0  0  0
  -25.6460  -22.2030   20.7640 C   0  0  0  0  0  2  0  0  0  0  0  0
  -27.2990  -23.6970   19.6660 C   0  0  0  0  0  2  0  0  0  0  0  0
  -28.7610  -24.0780   19.9620 C   0  0  0  0  0  3  0  0  0  0  0  0
  -29.6410  -22.8790   19.6640 N   0  0  0  0  0  0  0  0  0  0  0  0
  -30.6300  -23.0650   19.5180 H   0  0  0  0  0  0  0  0  0  0  0  0
  -30.7420  -17.7470   20.0300 C   0  0  0  0  0  2  0  0  0  0  0  0
  -31.0750  -15.1540   20.1480 C   0  0  0  0  0  0  0  0  0  0  0  0
  -30.8660  -12.8500   19.2190 C   0  0  0  0  0  2  0  0  0  0  0  0
  -29.9380  -12.9000   17.9850 C   0  0  0  0  0  2  0  0  0  0  0  0
  -28.4660  -12.7470   18.4150 C   0  0  0  0  0  2  0  0  0  0  0  0
  -28.0890  -13.6800   19.5960 C   0  0  0  0  0  3  0  0  0  0  0  0
  -29.1360  -13.6180   20.7300 C   0  0  0  0  0  2  0  0  0  0  0  0
  -30.4400  -13.9330   20.1350 N   0  0  0  0  0  0  0  0  0  0  0  0
  -32.2620  -15.2320   19.8170 O   0  0  0  0  0  0  0  0  0  0  0  0
  -30.3140  -16.3030   20.3070 N   0  0  0  0  0  0  0  0  0  0  0  0
  -29.3510  -16.1630   20.5650 H   0  0  0  0  0  0  0  0  0  0  0  0
  -25.7170  -14.3220   20.3290 C   0  0  0  0  0  0  0  0  0  0  0  0
  -24.6340  -13.5720   20.7010 C   0  0  0  0  0  0  0  0  0  0  0  0
  -25.0670  -12.2110   20.6620 C   0  0  0  0  0  0  0  0  0  0  0  0
  -26.7390  -13.4200   20.0860 N   0  0  0  0  0  0  0  0  0  0  0  0
  -26.3560  -12.1440   20.3510 N   0  0  0  0  0  0  0  0  0  0  0  0
  -24.3110  -10.9650   20.8470 C   0  0  0  0  0  0  0  0  0  0  0  0
  -24.7100   -9.9910   21.7880 C   0  0  0  0  0  3  0  0  0  0  0  0
  -23.9550   -8.8090   21.9580 C   0  0  0  0  0  3  0  0  0  0  0  0
  -22.7870   -8.5960   21.1900 C   0  0  0  0  0  0  0  0  0  0  0  0
  -22.4080   -9.5580   20.2380 C   0  0  0  0  0  3  0  0  0  0  0  0
  -23.1620  -10.7310   20.0640 C   0  0  0  0  0  3  0  0  0  0  0  0
  -22.0060   -7.4680   21.2710 O   0  0  0  0  0  0  0  0  0  0  0  0
  -21.9280   -6.7280   22.4240 C   0  0  0  0  0  0  0  0  0  0  0  0
  -21.4830   -7.2890   23.6400 C   0  0  0  0  0  3  0  0  0  0  0  0
  -21.3500   -6.4770   24.7830 C   0  0  0  0  0  3  0  0  0  0  0  0
  -21.6560   -5.1040   24.7120 C   0  0  0  0  0  0  0  0  0  0  0  0
  -22.0940   -4.5420   23.5000 C   0  0  0  0  0  3  0  0  0  0  0  0
  -22.2270   -5.3510   22.3590 C   0  0  0  0  0  0  0  0  0  0  0  0
  -22.6300   -4.8010   21.1890 F   0  0  0  0  0  0  0  0  0  0  0  0
  -21.5220   -4.3220   25.8090 F   0  0  0  0  0  0  0  0  0  0  0  0
  -23.2500  -14.0800   20.9750 C   0  0  0  0  0  0  0  0  0  0  0  0
  -22.5100  -13.4070   21.8500 N   0  0  0  0  0  0  0  0  0  0  0  0
  -22.8320  -15.1110   20.4470 O   0  0  0  0  0  0  0  0  0  0  0  0
  -22.8610  -12.5760   22.3020 H   0  0  0  0  0  0  0  0  0  0  0  0
  -21.5790  -13.7280   22.0710 H   0  0  0  0  0  0  0  0  0  0  0  0
  -25.9120  -15.6880   20.1490 N   0  0  0  0  0  0  0  0  0  0  0  0
  -25.1470  -16.3490   20.2180 H   0  0  0  0  0  0  0  0  0  0  0  0
  -26.7420  -16.0860   19.7310 H   0  0  0  0  0  0  0  0  0  0  0  0
  -29.1400  -25.4950   19.2530 C   0  0  0  0  0  2  0  0  0  0  0  0
  -28.9120  -26.8580   19.8430 O   0  0  0  0  0  0  0  0  0  0  0  0
  -24.6300  -31.7120   23.0830 C   0  0  0  0  0  0  0  0  0  0  0  0
  -27.7100  -27.5980   19.7890 C   0  0  0  0  0  0  0  0  0  0  0  0
  -23.5930  -30.3250   21.3250 C   0  0  0  0  0  3  0  0  0  0  0  0
  -25.2070  -29.0080   19.8300 C   0  0  0  0  0  0  0  0  0  0  0  0
  -26.0960  -30.8750   21.2290 C   0  0  0  0  0  2  0  0  0  0  0  0
  -26.3130  -29.5540   20.4900 C   0  0  0  0  0  0  0  0  0  0  0  0
  -27.5630  -28.8600   20.4600 C   0  0  0  0  0  3  0  0  0  0  0  0
  -26.5740  -27.1070   19.1110 C   0  0  0  0  0  3  0  0  0  0  0  0
  -25.3410  -27.7930   19.1350 C   0  0  0  0  0  3  0  0  0  0  0  0
  -23.8920  -29.7640   19.9090 C   0  0  0  0  0  2  0  0  0  0  0  0
  -24.7880  -30.9870   21.9370 N   0  0  0  0  0  0  0  0  0  0  0  0
  -23.5150  -31.8520   23.6080 O   0  0  0  0  0  0  0  0  0  0  0  0
  -23.0080  -29.1910   22.2010 C   0  0  0  0  0  0  0  0  0  0  0  0
  -21.7050  -28.9070   22.0360 N   0  0  0  0  0  0  0  0  0  0  0  0
  -23.7280  -28.5730   22.9900 O   0  0  0  0  0  0  0  0  0  0  0  0
  -21.1760  -29.4670   21.3820 H   0  0  0  0  0  0  0  0  0  0  0  0
  -18.4420  -27.3880   22.3900 C   0  0  0  0  0  0  0  0  0  0  0  0
  -20.9640  -27.8490   22.7230 C   0  0  0  0  0  3  0  0  0  0  0  0
  -21.1950  -26.4750   22.0480 C   0  0  0  0  0  2  0  0  0  0  0  0
  -20.1390  -26.1390   20.9920 C   0  0  0  0  0  2  0  0  0  0  0  0
  -18.7440  -26.1130   21.6200 C   0  0  0  0  0  2  0  0  0  0  0  0
  -19.4840  -28.2120   22.8920 C   0  0  0  0  0  0  0  0  0  0  0  0
  -19.1480  -29.4050   23.5670 C   0  0  0  0  0  3  0  0  0  0  0  0
  -17.8020  -29.7760   23.7480 C   0  0  0  0  0  3  0  0  0  0  0  0
  -16.7750  -28.9490   23.2620 C   0  0  0  0  0  3  0  0  0  0  0  0
  -17.0950  -27.7560   22.5890 C   0  0  0  0  0  3  0  0  0  0  0  0
  -25.8340  -32.4180   23.7790 C   0  0  0  0  0  3  0  0  0  0  0  0
  -25.4120  -33.7840   24.1230 N   0  0  0  0  0  0  0  0  0  0  0  0
  -25.7140  -34.8770   23.4120 C   0  0  0  0  0  0  0  0  0  0  0  0
  -26.4440  -34.8490   22.4170 O   0  0  0  0  0  0  0  0  0  0  0  0
  -24.7640  -33.8750   24.8920 H   0  0  0  0  0  0  0  0  0  0  0  0
  -23.8830  -36.5580   23.0220 C   0  0  0  0  0  1  0  0  0  0  0  0
  -25.1140  -36.2180   23.8780 C   0  0  0  0  0  3  0  0  0  0  0  0
  -27.1410  -37.2290   24.8260 C   0  0  0  0  0  1  0  0  0  0  0  0
  -26.0750  -37.3420   23.8340 N   0  0  0  0  0  0  0  0  0  0  0  0
  -25.5990  -38.2290   23.9800 H   0  0  0  0  0  0  0  0  0  0  0  0
  -26.3440  -31.6560   25.0650 C   0  0  1  0  0  0  0  0  0  0  0  0
  -25.2250  -31.3300   26.0800 C   0  0  0  0  0  1  0  0  0  0  0  0
  -27.0290  -30.3250   24.6780 C   0  0  0  0  0  1  0  0  0  0  0  0
  -27.4120  -32.5080   25.7900 C   0  0  0  0  0  1  0  0  0  0  0  0
  2  1  1  0
  3  6  2  0
  3  5  1  0
  4  7  1  0
  4  1  2  0
  5  2  2  0
  6  4  1  0
  7  8  2  0
  9 10  1  0
  9  7  1  0
 10 52  1  0
 11  6  1  0
 11 10  1  0
 12 11  1  0
 13  5  1  0
 13 22  1  0
 14 22  1  0
 15 20  1  0
 16 17  1  0
 16 15  1  0
 18 17  1  0
 18 27  1  0
 18 19  1  0
 20 14  1  0
 20 19  1  0
 21 14  2  0
 22 23  1  0
 24 25  2  0
 25 44  1  0
 26 25  1  0
 26 29  1  0
 27 24  1  0
 27 28  1  0
 28 26  2  0
 29 30  1  0
 30 31  2  0
 32 35  1  0
 32 31  1  0
 33 32  2  0
 34 33  1  0
 34 29  2  0
 35 36  1  0
 36 37  1  0
 37 38  2  0
 39 38  1  0
 39 43  1  0
 40 39  2  0
 41 36  2  0
 41 40  1  0
 42 41  1  0
 44 45  1  0
 45 48  1  0
 45 47  1  0
 46 44  2  0
 49 50  1  0
 49 24  1  0
 51 49  1  0
 52 53  1  0
 54 65  2  0
 55 53  1  0
 55 60  1  0
 56 64  1  0
 56 66  1  0
 57 63  1  0
 57 59  1  0
 58 64  1  0
 59 58  1  0
 60 59  2  0
 61 62  1  0
 61 55  2  0
 62 57  2  0
 63 56  1  0
 64 54  1  0
 66 68  2  0
 67 66  1  0
 69 67  1  0
 70 79  2  0
 70 75  1  0
 71 67  1  0
 71 75  1  0
 72 71  1  0
 73 74  1  0
 73 72  1  0
 74 70  1  0
 75 76  2  0
 76 77  1  0
 78 77  2  0
 79 78  1  0
 80 54  1  0
 80 81  1  0
 80 90  1  0
 81 84  1  0
 82 86  1  0
 82 81  1  0
 83 82  2  0
 86 85  1  0
 88 86  1  0
 88 89  1  0
 88 87  1  0
 90 93  1  1
 90 91  1  0
 92 90  1  0
M  ISO  4  14 100  22 100  52 101  53 101
M  END
>  <TORSDO>  (92) 
F 18

>  <SCORE>  (92) 
-11.643

>  <name>  (92) 
91

>  <ligand_id>  (92) 
91

>  <original_smiles>  (92) 
[H]C([H])=C1c2c([H])c([H])c(C([H])([H])N([H])C(=O)N3C([H])([H])C([H])([H])C([H])([H])C([H])(n4nc(-c5c([H])c([H])c(Oc6c([H])c([H])c(F)c([H])c6F)c([H])c5[H])c(C(=O)N([H])[H])c4N([H])[H])C3([H])[H])c([H])c2N([H])C([H])(C([H])([H])Oc2c([H])c([H])c3c(c2[H])C([H])([H])N(C(=O)C([H])(N([H])C(=O)C([H])(N([H])C([H])([H])[H])C([H])([H])[H])C(C([H])([H])[H])(C([H])([H])[H])C([H])([H])[H])C([H])(C(=O)N([H])C2([H])c4c([H])c([H])c([H])c([H])c4C([H])([H])C([H])([H])C2([H])[H])C3([H])[H])C1([H])[H]

>  <smiles>  (92) 
[H]C([H])=C1c2c([H])c([H])c(C([H])([H])N([H])C(=O)N3C([H])([H])C([H])([H])C([H])([H])C([H])(n4nc(-c5c([H])c([H])c(Oc6c([H])c([H])c(F)c([H])c6F)c([H])c5[H])c(C(=O)N([H])[H])c4N([H])[H])C3([H])[H])c([H])c2N([H])C([H])(C([H])([H])Oc2c([H])c([H])c3c(c2[H])C([H])([H])N(C(=O)C([H])(N([H])C(=O)C([H])(N([H])C([H])([H])[H])C([H])([H])[H])C(C([H])([H])[H])(C([H])([H])[H])C([H])([H])[H])C([H])(C(=O)N([H])C2([H])c4c([H])c([H])c([H])c([H])c4C([H])([H])C([H])([H])C2([H])[H])C3([H])[H])C1([H])[H]

$$$$
