0:0:0
     RDKit          3D

 94103  0  0  1  0  0  0  0  0999 V2000
  -28.3540  -23.1450   20.0400 C   0  0  0  0  0  0  0  0  0  0  0  0
  -30.0280  -23.7020   22.2070 C   0  0  0  0  0  2  0  0  0  0  0  0
  -28.8280  -24.6630   22.1470 C   0  0  0  0  0  2  0  0  0  0  0  0
  -29.6100  -22.2300   21.9590 C   0  0  0  0  0  2  0  0  0  0  0  0
  -28.0840  -24.6420   20.7950 C   0  0  0  0  0  3  0  0  0  0  0  0
  -28.9090  -21.9720   20.6870 N   0  0  0  0  0  0  0  0  0  0  0  0
  -27.9350  -23.0350   18.8830 O   0  0  0  0  0  0  0  0  0  0  0  0
  -28.2370  -26.0920   20.1720 O   0  0  0  0  0  0  0  0  0  0  0  0
  -24.6080  -31.8670   23.2070 C   0  0  0  0  0  0  0  0  0  0  0  0
  -27.1910  -27.1040   20.2000 C   0  0  0  0  0  0  0  0  0  0  0  0
  -23.4150  -30.4680   21.5690 C   0  0  0  0  0  3  0  0  0  0  0  0
  -24.8680  -28.8810   20.1570 C   0  0  0  0  0  0  0  0  0  0  0  0
  -25.9730  -30.7260   21.4090 C   0  0  0  0  0  2  0  0  0  0  0  0
  -26.0530  -29.3250   20.7600 C   0  0  0  0  0  0  0  0  0  0  0  0
  -27.2190  -28.4560   20.7550 C   0  0  0  0  0  3  0  0  0  0  0  0
  -25.9780  -26.7730   19.5620 C   0  0  0  0  0  3  0  0  0  0  0  0
  -24.8460  -27.6190   19.5410 C   0  0  0  0  0  3  0  0  0  0  0  0
  -23.6440  -29.7860   20.1940 C   0  0  0  0  0  2  0  0  0  0  0  0
  -24.6860  -31.0420   22.1170 N   0  0  0  0  0  0  0  0  0  0  0  0
  -23.5190  -32.1510   23.7300 O   0  0  0  0  0  0  0  0  0  0  0  0
  -22.7300  -29.4650   22.5330 C   0  0  0  0  0  0  0  0  0  0  0  0
  -21.4020  -29.2910   22.4020 N   0  0  0  0  0  0  0  0  0  0  0  0
  -23.3980  -28.8410   23.3620 O   0  0  0  0  0  0  0  0  0  0  0  0
  -20.9190  -29.8480   21.7080 H   0  0  0  0  0  0  0  0  0  0  0  0
  -18.0180  -28.0850   22.9010 C   0  0  0  0  0  0  0  0  0  0  0  0
  -20.5770  -28.3540   23.1700 C   0  0  0  0  0  3  0  0  0  0  0  0
  -20.6820  -26.9210   22.5980 C   0  0  0  0  0  2  0  0  0  0  0  0
  -19.5810  -26.5960   21.5820 C   0  0  0  0  0  2  0  0  0  0  0  0
  -18.1980  -26.7370   22.2230 C   0  0  0  0  0  2  0  0  0  0  0  0
  -19.1350  -28.8500   23.3310 C   0  0  0  0  0  0  0  0  0  0  0  0
  -18.9110  -30.1110   23.9260 C   0  0  0  0  0  3  0  0  0  0  0  0
  -17.6040  -30.6070   24.0950 C   0  0  0  0  0  3  0  0  0  0  0  0
  -16.5020  -29.8400   23.6790 C   0  0  0  0  0  3  0  0  0  0  0  0
  -16.7100  -28.5800   23.0900 C   0  0  0  0  0  3  0  0  0  0  0  0
  -25.8810  -32.5080   23.8390 C   0  0  0  0  0  3  0  0  0  0  0  0
  -25.5630  -33.9060   24.1680 N   0  0  0  0  0  0  0  0  0  0  0  0
  -25.8900  -34.9640   23.4160 C   0  0  0  0  0  0  0  0  0  0  0  0
  -26.5580  -34.8660   22.3830 O   0  0  0  0  0  0  0  0  0  0  0  0
  -24.9750  -34.0550   24.9750 H   0  0  0  0  0  0  0  0  0  0  0  0
  -24.1610  -36.7630   23.0730 C   0  0  0  0  0  1  0  0  0  0  0  0
  -25.4020  -36.3520   23.8820 C   0  0  0  0  0  3  0  0  0  0  0  0
  -27.5330  -37.2370   24.7200 C   0  0  0  0  0  1  0  0  0  0  0  0
  -26.4330  -37.4080   23.7750 N   0  0  0  0  0  0  0  0  0  0  0  0
  -26.0230  -38.3250   23.9310 H   0  0  0  0  0  0  0  0  0  0  0  0
  -26.3870  -31.7440   25.1250 C   0  0  1  0  0  0  0  0  0  0  0  0
  -25.2880  -31.5070   26.1880 C   0  0  0  0  0  1  0  0  0  0  0  0
  -26.9740  -30.3650   24.7470 C   0  0  0  0  0  1  0  0  0  0  0  0
  -27.5370  -32.5410   25.7860 C   0  0  0  0  0  1  0  0  0  0  0  0
  -28.7910  -20.3560   20.4750 C   0  0  0  0  0  2  0  0  0  0  0  0
  -31.6410  -19.8050   18.0410 C   0  0  0  0  0  3  0  0  0  0  0  0
  -30.6910  -20.2070   18.9790 C   0  0  0  0  0  3  0  0  0  0  0  0
  -31.1110  -17.5150   18.5630 C   0  0  0  0  0  3  0  0  0  0  0  0
  -31.8120  -18.4510   17.7910 C   0  0  0  0  0  0  0  0  0  0  0  0
  -29.8920  -19.3310   19.7600 C   0  0  0  0  0  0  0  0  0  0  0  0
  -30.2120  -17.8070   19.6350 C   0  0  0  0  0  0  0  0  0  0  0  0
  -32.7530  -17.9950   16.6940 C   0  0  0  0  0  1  0  0  0  0  0  0
  -30.4920  -15.1240   20.2490 C   0  0  0  0  0  0  0  0  0  0  0  0
  -30.3540  -12.7310   19.3750 C   0  0  0  0  0  2  0  0  0  0  0  0
  -29.4240  -12.5970   18.1490 C   0  0  0  0  0  2  0  0  0  0  0  0
  -27.9680  -12.3810   18.5950 C   0  0  0  0  0  2  0  0  0  0  0  0
  -27.5540  -13.3350   19.7440 C   0  0  0  0  0  3  0  0  0  0  0  0
  -28.6150  -13.4340   20.8590 C   0  0  0  0  0  2  0  0  0  0  0  0
  -29.8590  -13.8700   20.2160 N   0  0  0  0  0  0  0  0  0  0  0  0
  -31.7170  -15.0610   20.0720 O   0  0  0  0  0  0  0  0  0  0  0  0
  -29.8120  -16.4230   20.2730 N   0  0  0  0  0  0  0  0  0  0  0  0
  -28.8700  -16.3820   20.6320 H   0  0  0  0  0  0  0  0  0  0  0  0
  -25.1880  -13.9010   20.5270 C   0  0  0  0  0  0  0  0  0  0  0  0
  -24.1280  -13.1230   20.8990 C   0  0  0  0  0  0  0  0  0  0  0  0
  -24.5920  -11.7720   20.8530 C   0  0  0  0  0  0  0  0  0  0  0  0
  -26.2270  -13.0250   20.2660 N   0  0  0  0  0  0  0  0  0  0  0  0
  -25.8810  -11.7390   20.5300 N   0  0  0  0  0  0  0  0  0  0  0  0
  -23.8640  -10.5090   21.0370 C   0  0  0  0  0  0  0  0  0  0  0  0
  -24.2910   -9.5370   21.9690 C   0  0  0  0  0  3  0  0  0  0  0  0
  -23.5600   -8.3420   22.1440 C   0  0  0  0  0  3  0  0  0  0  0  0
  -22.3880   -8.1100   21.3850 C   0  0  0  0  0  0  0  0  0  0  0  0
  -21.9820   -9.0690   20.4400 C   0  0  0  0  0  3  0  0  0  0  0  0
  -22.7130  -10.2550   20.2640 C   0  0  0  0  0  3  0  0  0  0  0  0
  -21.6300   -6.9670   21.4670 O   0  0  0  0  0  0  0  0  0  0  0  0
  -21.5640   -6.2300   22.6200 C   0  0  0  0  0  0  0  0  0  0  0  0
  -21.1120   -6.7860   23.8370 C   0  0  0  0  0  3  0  0  0  0  0  0
  -20.9940   -5.9730   24.9820 C   0  0  0  0  0  3  0  0  0  0  0  0
  -21.3200   -4.6060   24.9120 C   0  0  0  0  0  0  0  0  0  0  0  0
  -21.7670   -4.0490   23.6990 C   0  0  0  0  0  3  0  0  0  0  0  0
  -21.8860   -4.8590   22.5560 C   0  0  0  0  0  0  0  0  0  0  0  0
  -22.2950   -4.3120   21.3860 F   0  0  0  0  0  0  0  0  0  0  0  0
  -21.2010   -3.8230   26.0100 F   0  0  0  0  0  0  0  0  0  0  0  0
  -22.7320  -13.6010   21.1770 C   0  0  0  0  0  0  0  0  0  0  0  0
  -22.0010  -12.8980   22.0340 N   0  0  0  0  0  0  0  0  0  0  0  0
  -22.2960  -14.6320   20.6670 O   0  0  0  0  0  0  0  0  0  0  0  0
  -22.3660  -12.0640   22.4690 H   0  0  0  0  0  0  0  0  0  0  0  0
  -21.0620  -13.1990   22.2550 H   0  0  0  0  0  0  0  0  0  0  0  0
  -25.3520  -15.2740   20.3640 N   0  0  0  0  0  0  0  0  0  0  0  0
  -24.5950  -15.9320   20.5170 H   0  0  0  0  0  0  0  0  0  0  0  0
  -26.1980  -15.7140   20.0270 H   0  0  0  0  0  0  0  0  0  0  0  0
  1  6  1  0
  1  5  1  0
  3  2  1  0
  4  2  1  0
  5  8  1  0
  5  3  1  0
  6  4  1  0
  7  1  2  0
  8 10  1  0
  9 20  2  0
 10 15  1  0
 11 19  1  0
 11 21  1  0
 12 18  1  0
 12 14  1  0
 13 19  1  0
 14 13  1  0
 15 14  2  0
 16 10  2  0
 17 16  1  0
 17 12  2  0
 18 11  1  0
 19  9  1  0
 21 23  2  0
 22 21  1  0
 24 22  1  0
 25 34  2  0
 25 30  1  0
 26 22  1  0
 26 30  1  0
 27 26  1  0
 28 29  1  0
 28 27  1  0
 29 25  1  0
 30 31  2  0
 31 32  1  0
 33 32  2  0
 34 33  1  0
 35  9  1  0
 35 36  1  0
 35 45  1  0
 36 39  1  0
 37 41  1  0
 37 36  1  0
 38 37  2  0
 41 40  1  0
 43 41  1  0
 43 44  1  0
 43 42  1  0
 45 48  1  1
 45 46  1  0
 47 45  1  0
 49  6  1  0
 50 51  1  0
 51 54  2  0
 52 55  2  0
 53 50  2  0
 53 52  1  0
 54 49  1  0
 55 54  1  0
 55 65  1  0
 56 53  1  0
 57 65  1  0
 58 63  1  0
 59 60  1  0
 59 58  1  0
 61 60  1  0
 61 70  1  0
 61 62  1  0
 63 57  1  0
 63 62  1  0
 64 57  2  0
 65 66  1  0
 67 68  2  0
 68 87  1  0
 69 68  1  0
 69 72  1  0
 70 67  1  0
 70 71  1  0
 71 69  2  0
 72 73  1  0
 73 74  2  0
 75 78  1  0
 75 74  1  0
 76 75  2  0
 77 76  1  0
 77 72  2  0
 78 79  1  0
 79 80  1  0
 80 81  2  0
 82 81  1  0
 82 86  1  0
 83 82  2  0
 84 79  2  0
 84 83  1  0
 85 84  1  0
 87 88  1  0
 88 91  1  0
 88 90  1  0
 89 87  2  0
 92 93  1  0
 92 67  1  0
 94 92  1  0
M  ISO  4   5 101   8 101  57 100  65 100
M  END
>  <TORSDO>  (1) 
F 18

>  <SCORE>  (1) 
-14.974

>  <name>  (1) 
0

>  <ligand_id>  (1) 
0

>  <original_smiles>  (1) 
[H]c1c([H])c([H])c2c(c1[H])C([H])([H])C([H])([H])C([H])([H])C2([H])N([H])C(=O)C1([H])N(C(=O)C([H])(N([H])C(=O)C([H])(N([H])C([H])([H])[H])C([H])([H])[H])C(C([H])([H])[H])(C([H])([H])[H])C([H])([H])[H])C([H])([H])c2c([H])c(OC3([H])C(=O)N(C([H])([H])c4c([H])c([H])c(C([H])([H])[H])c([H])c4N([H])C(=O)N4C([H])([H])C([H])([H])C([H])([H])C([H])(n5nc(-c6c([H])c([H])c(Oc7c([H])c([H])c(F)c([H])c7F)c([H])c6[H])c(C(=O)N([H])[H])c5N([H])[H])C4([H])[H])C([H])([H])C([H])([H])C3([H])[H])c([H])c([H])c2C1([H])[H]

>  <smiles>  (1) 
[H]c1c([H])c([H])c2c(c1[H])C([H])([H])C([H])([H])C([H])([H])C2([H])N([H])C(=O)C1([H])N(C(=O)C([H])(N([H])C(=O)C([H])(N([H])C([H])([H])[H])C([H])([H])[H])C(C([H])([H])[H])(C([H])([H])[H])C([H])([H])[H])C([H])([H])c2c([H])c(OC3([H])C(=O)N(C([H])([H])c4c([H])c([H])c(C([H])([H])[H])c([H])c4N([H])C(=O)N4C([H])([H])C([H])([H])C([H])([H])C([H])(n5nc(-c6c([H])c([H])c(Oc7c([H])c([H])c(F)c([H])c7F)c([H])c6[H])c(C(=O)N([H])[H])c5N([H])[H])C4([H])[H])C([H])([H])C([H])([H])C3([H])[H])c([H])c([H])c2C1([H])[H]

$$$$
1:0:0
     RDKit          3D

 92100  0  0  1  0  0  0  0  0999 V2000
  -29.4880  -21.2790   21.0670 C   0  0  0  0  0  2  0  0  0  0  0  0
  -30.1720  -19.8880   19.0070 C   0  0  0  0  0  3  0  0  0  0  0  0
  -30.4530  -18.6860   18.3300 C   0  0  0  0  0  3  0  0  0  0  0  0
  -29.7980  -18.5840   21.0240 C   0  0  0  0  0  3  0  0  0  0  0  0
  -29.8010  -19.8840   20.3630 C   0  0  0  0  0  0  0  0  0  0  0  0
  -30.3930  -17.4250   18.9690 C   0  0  0  0  0  0  0  0  0  0  0  0
  -30.1230  -17.3250   20.3660 C   0  0  0  0  0  0  0  0  0  0  0  0
  -30.5470  -16.2010   18.0830 C   0  0  0  0  0  1  0  0  0  0  0  0
  -30.8480  -14.8670   20.8910 C   0  0  0  0  0  0  0  0  0  0  0  0
  -30.7680  -12.5400   19.9970 C   0  0  0  0  0  2  0  0  0  0  0  0
  -29.9510  -12.5240   18.6850 C   0  0  0  0  0  2  0  0  0  0  0  0
  -28.4370  -12.4330   18.9600 C   0  0  0  0  0  2  0  0  0  0  0  0
  -27.9550  -13.3570   20.1120 C   0  0  0  0  0  3  0  0  0  0  0  0
  -28.8990  -13.2930   21.3300 C   0  0  0  0  0  2  0  0  0  0  0  0
  -30.2480  -13.6290   20.8560 N   0  0  0  0  0  0  0  0  0  0  0  0
  -32.0550  -14.9700   20.6490 O   0  0  0  0  0  0  0  0  0  0  0  0
  -30.0470  -15.9920   21.0290 N   0  0  0  0  0  0  0  0  0  0  0  0
  -29.1720  -15.8090   21.4960 H   0  0  0  0  0  0  0  0  0  0  0  0
  -25.5080  -13.9600   20.6020 C   0  0  0  0  0  0  0  0  0  0  0  0
  -24.4130  -13.1930   20.8950 C   0  0  0  0  0  0  0  0  0  0  0  0
  -24.8790  -11.8430   20.9450 C   0  0  0  0  0  0  0  0  0  0  0  0
  -26.5700  -13.0780   20.4840 N   0  0  0  0  0  0  0  0  0  0  0  0
  -26.1920  -11.8020   20.7540 N   0  0  0  0  0  0  0  0  0  0  0  0
  -24.1400  -10.5840   21.1020 C   0  0  0  0  0  0  0  0  0  0  0  0
  -24.4900   -9.6380   22.0920 C   0  0  0  0  0  3  0  0  0  0  0  0
  -23.7520   -8.4430   22.2330 C   0  0  0  0  0  3  0  0  0  0  0  0
  -22.6500   -8.1860   21.3840 C   0  0  0  0  0  0  0  0  0  0  0  0
  -22.3210   -9.1190   20.3830 C   0  0  0  0  0  3  0  0  0  0  0  0
  -23.0610  -10.3040   20.2400 C   0  0  0  0  0  3  0  0  0  0  0  0
  -21.8880   -7.0440   21.4370 O   0  0  0  0  0  0  0  0  0  0  0  0
  -21.7390   -6.3300   22.6000 C   0  0  0  0  0  0  0  0  0  0  0  0
  -21.1880   -6.9090   23.7650 C   0  0  0  0  0  3  0  0  0  0  0  0
  -20.9840   -6.1170   24.9140 C   0  0  0  0  0  3  0  0  0  0  0  0
  -21.3250   -4.7520   24.9020 C   0  0  0  0  0  0  0  0  0  0  0  0
  -21.8740   -4.1750   23.7420 C   0  0  0  0  0  3  0  0  0  0  0  0
  -22.0770   -4.9610   22.5940 C   0  0  0  0  0  0  0  0  0  0  0  0
  -22.5860   -4.3950   21.4740 F   0  0  0  0  0  0  0  0  0  0  0  0
  -21.1250   -3.9920   26.0030 F   0  0  0  0  0  0  0  0  0  0  0  0
  -22.9950  -13.6720   21.0230 C   0  0  0  0  0  0  0  0  0  0  0  0
  -22.1880  -13.0000   21.8370 N   0  0  0  0  0  0  0  0  0  0  0  0
  -22.6060  -14.6790   20.4330 O   0  0  0  0  0  0  0  0  0  0  0  0
  -22.5100  -12.1900   22.3460 H   0  0  0  0  0  0  0  0  0  0  0  0
  -21.2320  -13.3060   21.9600 H   0  0  0  0  0  0  0  0  0  0  0  0
  -25.6890  -15.3270   20.4090 N   0  0  0  0  0  0  0  0  0  0  0  0
  -24.9220  -15.9870   20.4690 H   0  0  0  0  0  0  0  0  0  0  0  0
  -26.5660  -15.7610   20.1540 H   0  0  0  0  0  0  0  0  0  0  0  0
  -29.1080  -23.8520   20.5560 C   0  0  0  0  0  0  0  0  0  0  0  0
  -28.9710  -22.4940   20.2890 N   0  0  0  0  0  0  0  0  0  0  0  0
  -29.8910  -24.2340   21.4280 O   0  0  0  0  0  0  0  0  0  0  0  0
  -28.3210  -22.2710   19.5470 H   0  0  0  0  0  0  0  0  0  0  0  0
  -28.2210  -24.9530   19.7910 C   0  0  0  0  0  2  0  0  0  0  0  0
  -28.4300  -26.4270   20.0730 O   0  0  0  0  0  0  0  0  0  0  0  0
  -24.6080  -31.8300   23.0990 C   0  0  0  0  0  0  0  0  0  0  0  0
  -27.3260  -27.3170   19.9940 C   0  0  0  0  0  0  0  0  0  0  0  0
  -23.4490  -30.4410   21.4230 C   0  0  0  0  0  3  0  0  0  0  0  0
  -24.9420  -28.9390   19.9810 C   0  0  0  0  0  0  0  0  0  0  0  0
  -25.9910  -30.7860   21.2840 C   0  0  0  0  0  2  0  0  0  0  0  0
  -26.0990  -29.4170   20.6100 C   0  0  0  0  0  0  0  0  0  0  0  0
  -27.2880  -28.6160   20.6130 C   0  0  0  0  0  3  0  0  0  0  0  0
  -26.1470  -26.9260   19.3170 C   0  0  0  0  0  3  0  0  0  0  0  0
  -24.9730  -27.7020   19.3240 C   0  0  0  0  0  3  0  0  0  0  0  0
  -23.6920  -29.7970   20.0320 C   0  0  0  0  0  2  0  0  0  0  0  0
  -24.7010  -31.0370   21.9910 N   0  0  0  0  0  0  0  0  0  0  0  0
  -23.5140  -32.0810   23.6230 O   0  0  0  0  0  0  0  0  0  0  0  0
  -22.7890  -29.3980   22.3560 C   0  0  0  0  0  0  0  0  0  0  0  0
  -21.4560  -29.2510   22.2590 N   0  0  0  0  0  0  0  0  0  0  0  0
  -23.4760  -28.7260   23.1320 O   0  0  0  0  0  0  0  0  0  0  0  0
  -20.9600  -29.8440   21.6070 H   0  0  0  0  0  0  0  0  0  0  0  0
  -18.0650  -28.1440   22.8630 C   0  0  0  0  0  0  0  0  0  0  0  0
  -20.6410  -28.2980   23.0150 C   0  0  0  0  0  3  0  0  0  0  0  0
  -20.6610  -26.9000   22.3540 C   0  0  0  0  0  2  0  0  0  0  0  0
  -19.4980  -26.6770   21.3800 C   0  0  0  0  0  2  0  0  0  0  0  0
  -18.1560  -26.8330   22.1010 C   0  0  0  0  0  2  0  0  0  0  0  0
  -19.2310  -28.8390   23.2790 C   0  0  0  0  0  0  0  0  0  0  0  0
  -19.0900  -30.0680   23.9560 C   0  0  0  0  0  3  0  0  0  0  0  0
  -17.8140  -30.6020   24.2230 C   0  0  0  0  0  3  0  0  0  0  0  0
  -16.6620  -29.9030   23.8210 C   0  0  0  0  0  3  0  0  0  0  0  0
  -16.7890  -28.6760   23.1450 C   0  0  0  0  0  3  0  0  0  0  0  0
  -25.8720  -32.4750   23.7460 C   0  0  0  0  0  3  0  0  0  0  0  0
  -26.3960  -31.6820   25.0070 C   0  0  1  0  0  0  0  0  0  0  0  0
  -25.3000  -31.4000   26.0610 C   0  0  0  0  0  1  0  0  0  0  0  0
  -27.0090  -30.3250   24.5910 C   0  0  0  0  0  1  0  0  0  0  0  0
  -27.5280  -32.4830   25.6930 C   0  0  0  0  0  1  0  0  0  0  0  0
  -25.5270  -33.8560   24.1120 N   0  0  0  0  0  0  0  0  0  0  0  0
  -25.8740  -34.9400   23.4060 C   0  0  0  0  0  0  0  0  0  0  0  0
  -26.5860  -34.8830   22.3990 O   0  0  0  0  0  0  0  0  0  0  0  0
  -24.8960  -33.9730   24.8910 H   0  0  0  0  0  0  0  0  0  0  0  0
  -24.1620  -36.7440   23.0220 C   0  0  0  0  0  1  0  0  0  0  0  0
  -25.3510  -36.3060   23.8930 C   0  0  0  0  0  3  0  0  0  0  0  0
  -27.4190  -37.1630   24.9020 C   0  0  0  0  0  1  0  0  0  0  0  0
  -26.3830  -37.3670   23.8930 N   0  0  0  0  0  0  0  0  0  0  0  0
  -25.9620  -38.2790   24.0500 H   0  0  0  0  0  0  0  0  0  0  0  0
  2  5  1  0
  3  6  1  0
  3  2  2  0
  5  4  2  0
  5  1  1  0
  6  7  2  0
  7  4  1  0
  7 17  1  0
  8  6  1  0
  9 17  1  0
 10 15  1  0
 11 12  1  0
 11 10  1  0
 13 12  1  0
 13 22  1  0
 13 14  1  0
 15  9  1  0
 15 14  1  0
 16  9  2  0
 17 18  1  0
 19 20  2  0
 20 21  1  0
 20 39  1  0
 21 24  1  0
 22 19  1  0
 22 23  1  0
 23 21  2  0
 24 25  1  0
 25 26  2  0
 27 30  1  0
 27 26  1  0
 28 27  2  0
 29 28  1  0
 29 24  2  0
 30 31  1  0
 31 32  1  0
 32 33  2  0
 34 33  1  0
 34 38  1  0
 35 34  2  0
 36 31  2  0
 36 35  1  0
 37 36  1  0
 39 40  1  0
 40 43  1  0
 40 42  1  0
 41 39  2  0
 44 45  1  0
 44 19  1  0
 46 44  1  0
 47 49  2  0
 48 47  1  0
 48  1  1  0
 50 48  1  0
 51 52  1  0
 51 47  1  0
 53 64  2  0
 54 52  1  0
 54 59  1  0
 55 63  1  0
 55 65  1  0
 56 62  1  0
 56 58  1  0
 57 63  1  0
 58 59  2  0
 58 57  1  0
 60 61  1  0
 60 54  2  0
 61 56  2  0
 62 55  1  0
 63 53  1  0
 65 67  2  0
 66 65  1  0
 68 66  1  0
 69 78  2  0
 69 74  1  0
 70 66  1  0
 70 74  1  0
 71 70  1  0
 72 73  1  0
 72 71  1  0
 73 69  1  0
 74 75  2  0
 75 76  1  0
 77 76  2  0
 78 77  1  0
 79 53  1  0
 79 84  1  0
 79 80  1  0
 80 83  1  1
 80 81  1  0
 82 80  1  0
 84 87  1  0
 85 89  1  0
 85 84  1  0
 86 85  2  0
 89 88  1  0
 89 91  1  0
 91 92  1  0
 91 90  1  0
M  ISO  4   9 100  17 100  51 101  52 101
M  END
>  <TORSDO>  (2) 
F 19

>  <SCORE>  (2) 
-13.535

>  <name>  (2) 
1

>  <ligand_id>  (2) 
1

>  <original_smiles>  (2) 
[H]c1c([H])c([H])c2c(c1[H])C([H])([H])C([H])([H])C([H])([H])C2([H])N([H])C(=O)C1([H])N(C(=O)C([H])(N([H])C(=O)C([H])(N([H])C([H])([H])[H])C([H])([H])[H])C(C([H])([H])[H])(C([H])([H])[H])C([H])([H])[H])C([H])([H])c2c([H])c(OC([H])([H])C(=O)N([H])C([H])([H])c3c([H])c([H])c(C([H])([H])[H])c(N([H])C(=O)N4C([H])([H])C([H])([H])C([H])([H])C([H])(n5nc(-c6c([H])c([H])c(Oc7c([H])c([H])c(F)c([H])c7F)c([H])c6[H])c(C(=O)N([H])[H])c5N([H])[H])C4([H])[H])c3[H])c([H])c([H])c2C1([H])[H]

>  <smiles>  (2) 
[H]c1c([H])c([H])c2c(c1[H])C([H])([H])C([H])([H])C([H])([H])C2([H])N([H])C(=O)C1([H])N(C(=O)C([H])(N([H])C(=O)C([H])(N([H])C([H])([H])[H])C([H])([H])[H])C(C([H])([H])[H])(C([H])([H])[H])C([H])([H])[H])C([H])([H])c2c([H])c(OC([H])([H])C(=O)N([H])C([H])([H])c3c([H])c([H])c(C([H])([H])[H])c(N([H])C(=O)N4C([H])([H])C([H])([H])C([H])([H])C([H])(n5nc(-c6c([H])c([H])c(Oc7c([H])c([H])c(F)c([H])c7F)c([H])c6[H])c(C(=O)N([H])[H])c5N([H])[H])C4([H])[H])c3[H])c([H])c([H])c2C1([H])[H]

$$$$
2:0:0
     RDKit          3D

 96105  0  0  1  0  0  0  0  0999 V2000
  -29.6250  -22.6020   21.1100 C   0  0  0  0  0  0  0  0  0  0  0  0
  -30.1840  -22.2550   22.3080 C   0  0  0  0  0  0  0  0  0  0  0  0
  -29.4430  -24.1490   20.8010 C   0  0  0  0  0  2  0  0  0  0  0  0
  -28.2920  -23.6840   18.7350 C   0  0  0  0  0  2  0  0  0  0  0  0
  -28.1880  -22.1540   19.1450 C   0  0  0  0  0  2  0  0  0  0  0  0
  -28.2510  -24.6860   19.9300 C   0  0  0  0  0  3  0  0  0  0  0  0
  -30.2740  -20.8470   22.8810 C   0  0  0  0  0  1  0  0  0  0  0  0
  -30.7870  -23.2680   23.2740 C   0  0  0  0  0  1  0  0  0  0  0  0
  -29.1800  -21.6550   20.1290 N   0  0  0  0  0  0  0  0  0  0  0  0
  -28.3390  -19.2710   20.2220 C   0  0  0  0  0  3  0  0  0  0  0  0
  -30.8600  -18.1110   20.0260 C   0  0  0  0  0  3  0  0  0  0  0  0
  -28.5040  -17.8440   20.2870 C   0  0  0  0  0  0  0  0  0  0  0  0
  -30.6890  -19.5520   19.9860 C   0  0  0  0  0  0  0  0  0  0  0  0
  -29.4100  -20.2000   20.1030 C   0  0  0  0  0  0  0  0  0  0  0  0
  -29.7770  -17.1890   20.1830 C   0  0  0  0  0  0  0  0  0  0  0  0
  -27.2330  -17.0390   20.5090 C   0  0  0  0  0  1  0  0  0  0  0  0
  -31.9270  -20.4140   19.8090 C   0  0  0  0  0  1  0  0  0  0  0  0
  -30.6450  -14.6610   19.7220 C   0  0  0  0  0  0  0  0  0  0  0  0
  -30.4080  -12.4000   18.6480 C   0  0  0  0  0  2  0  0  0  0  0  0
  -29.3160  -12.4870   17.5560 C   0  0  0  0  0  2  0  0  0  0  0  0
  -27.9120  -12.2690   18.1570 C   0  0  0  0  0  2  0  0  0  0  0  0
  -27.6830  -13.1010   19.4460 C   0  0  0  0  0  3  0  0  0  0  0  0
  -28.8760  -12.9720   20.4200 C   0  0  0  0  0  2  0  0  0  0  0  0
  -30.0840  -13.3980   19.6950 N   0  0  0  0  0  0  0  0  0  0  0  0
  -31.7540  -14.8490   19.2090 O   0  0  0  0  0  0  0  0  0  0  0  0
  -29.8430  -15.6880   20.2130 N   0  0  0  0  0  0  0  0  0  0  0  0
  -29.0260  -15.2860   20.6470 H   0  0  0  0  0  0  0  0  0  0  0  0
  -25.4190  -13.6370   20.5290 C   0  0  0  0  0  0  0  0  0  0  0  0
  -24.4040  -12.8410   20.9820 C   0  0  0  0  0  0  0  0  0  0  0  0
  -24.8350  -11.4960   20.7710 C   0  0  0  0  0  0  0  0  0  0  0  0
  -26.4110  -12.7780   20.0850 N   0  0  0  0  0  0  0  0  0  0  0  0
  -26.0720  -11.4790   20.2880 N   0  0  0  0  0  0  0  0  0  0  0  0
  -24.1170  -10.2270   20.9460 C   0  0  0  0  0  0  0  0  0  0  0  0
  -24.5540   -9.2520   21.8710 C   0  0  0  0  0  3  0  0  0  0  0  0
  -23.8350   -8.0500   22.0350 C   0  0  0  0  0  3  0  0  0  0  0  0
  -22.6650   -7.8110   21.2750 C   0  0  0  0  0  0  0  0  0  0  0  0
  -22.2480   -8.7740   20.3390 C   0  0  0  0  0  3  0  0  0  0  0  0
  -22.9680   -9.9690   20.1720 C   0  0  0  0  0  3  0  0  0  0  0  0
  -21.9180   -6.6610   21.3490 O   0  0  0  0  0  0  0  0  0  0  0  0
  -21.7260   -6.0020   22.5370 C   0  0  0  0  0  0  0  0  0  0  0  0
  -21.1260   -6.6330   23.6490 C   0  0  0  0  0  3  0  0  0  0  0  0
  -20.8830   -5.9000   24.8270 C   0  0  0  0  0  3  0  0  0  0  0  0
  -21.2320   -4.5370   24.8940 C   0  0  0  0  0  0  0  0  0  0  0  0
  -21.8250   -3.9070   23.7860 C   0  0  0  0  0  3  0  0  0  0  0  0
  -22.0680   -4.6370   22.6100 C   0  0  0  0  0  0  0  0  0  0  0  0
  -22.6210   -4.0190   21.5380 F   0  0  0  0  0  0  0  0  0  0  0  0
  -20.9920   -3.8310   26.0240 F   0  0  0  0  0  0  0  0  0  0  0  0
  -23.0650  -13.3010   21.4830 C   0  0  0  0  0  0  0  0  0  0  0  0
  -22.4580  -12.5460   22.3910 N   0  0  0  0  0  0  0  0  0  0  0  0
  -22.5720  -14.3630   21.1060 O   0  0  0  0  0  0  0  0  0  0  0  0
  -22.8720  -11.6850   22.7150 H   0  0  0  0  0  0  0  0  0  0  0  0
  -21.5660  -12.8340   22.7680 H   0  0  0  0  0  0  0  0  0  0  0  0
  -25.5650  -15.0160   20.4310 N   0  0  0  0  0  0  0  0  0  0  0  0
  -24.8020  -15.6420   20.6660 H   0  0  0  0  0  0  0  0  0  0  0  0
  -26.3130  -15.4760   19.9310 H   0  0  0  0  0  0  0  0  0  0  0  0
  -28.3530  -26.1920   19.7200 O   0  0  0  0  0  0  0  0  0  0  0  0
  -24.7320  -31.5910   23.0370 C   0  0  0  0  0  0  0  0  0  0  0  0
  -27.2430  -27.0760   19.7670 C   0  0  0  0  0  0  0  0  0  0  0  0
  -23.5000  -30.3020   21.3320 C   0  0  0  0  0  3  0  0  0  0  0  0
  -24.9180  -28.7800   19.8320 C   0  0  0  0  0  0  0  0  0  0  0  0
  -26.0490  -30.5610   21.1610 C   0  0  0  0  0  2  0  0  0  0  0  0
  -26.1020  -29.2080   20.4470 C   0  0  0  0  0  0  0  0  0  0  0  0
  -27.2670  -28.3730   20.3950 C   0  0  0  0  0  3  0  0  0  0  0  0
  -26.0330  -26.7170   19.1390 C   0  0  0  0  0  3  0  0  0  0  0  0
  -24.8910  -27.5460   19.1650 C   0  0  0  0  0  3  0  0  0  0  0  0
  -23.7020  -29.6850   19.9220 C   0  0  0  0  0  2  0  0  0  0  0  0
  -24.7800  -30.8340   21.9000 N   0  0  0  0  0  0  0  0  0  0  0  0
  -23.6540  -31.8660   23.5850 O   0  0  0  0  0  0  0  0  0  0  0  0
  -22.8110  -29.2570   22.2450 C   0  0  0  0  0  0  0  0  0  0  0  0
  -21.4750  -29.1440   22.1410 N   0  0  0  0  0  0  0  0  0  0  0  0
  -23.4790  -28.5520   23.0060 O   0  0  0  0  0  0  0  0  0  0  0  0
  -20.9960  -29.7640   21.5040 H   0  0  0  0  0  0  0  0  0  0  0  0
  -18.0530  -28.1430   22.7580 C   0  0  0  0  0  0  0  0  0  0  0  0
  -20.6360  -28.1920   22.8710 C   0  0  0  0  0  3  0  0  0  0  0  0
  -20.5900  -26.8250   22.1500 C   0  0  0  0  0  2  0  0  0  0  0  0
  -19.4050  -26.6880   21.1900 C   0  0  0  0  0  2  0  0  0  0  0  0
  -18.0810  -26.8630   21.9400 C   0  0  0  0  0  2  0  0  0  0  0  0
  -19.2510  -28.7750   23.1810 C   0  0  0  0  0  0  0  0  0  0  0  0
  -19.1690  -29.9820   23.9100 C   0  0  0  0  0  3  0  0  0  0  0  0
  -17.9190  -30.5520   24.2190 C   0  0  0  0  0  3  0  0  0  0  0  0
  -16.7360  -29.9140   23.8090 C   0  0  0  0  0  3  0  0  0  0  0  0
  -16.8040  -28.7110   23.0840 C   0  0  0  0  0  3  0  0  0  0  0  0
  -26.0260  -32.1680   23.6900 C   0  0  0  0  0  3  0  0  0  0  0  0
  -25.7380  -33.5510   24.1030 N   0  0  0  0  0  0  0  0  0  0  0  0
  -26.0590  -34.6420   23.3950 C   0  0  0  0  0  0  0  0  0  0  0  0
  -26.6970  -34.5890   22.3380 O   0  0  0  0  0  0  0  0  0  0  0  0
  -25.1680  -33.6660   24.9280 H   0  0  0  0  0  0  0  0  0  0  0  0
  -24.3340  -36.4650   23.2030 C   0  0  0  0  0  1  0  0  0  0  0  0
  -25.6030  -36.0080   23.9430 C   0  0  0  0  0  3  0  0  0  0  0  0
  -27.7700  -36.8420   24.7430 C   0  0  0  0  0  1  0  0  0  0  0  0
  -26.6380  -37.0590   23.8440 N   0  0  0  0  0  0  0  0  0  0  0  0
  -26.2440  -37.9730   24.0490 H   0  0  0  0  0  0  0  0  0  0  0  0
  -26.5320  -31.3180   24.9200 C   0  0  1  0  0  0  0  0  0  0  0  0
  -25.4380  -31.0320   25.9740 C   0  0  0  0  0  1  0  0  0  0  0  0
  -27.0980  -29.9590   24.4490 C   0  0  0  0  0  1  0  0  0  0  0  0
  -27.6940  -32.0580   25.6250 C   0  0  0  0  0  1  0  0  0  0  0  0
  1  2  2  0
  2  7  1  0
  2  8  1  0
  3  1  1  0
  4  5  1  0
  4  6  1  0
  5  9  1  0
  6 56  1  0
  6  3  1  0
  9  1  1  0
 10 12  1  0
 11 15  1  0
 12 16  1  0
 13 11  2  0
 13 14  1  0
 14  9  1  0
 14 10  2  0
 15 26  1  0
 15 12  2  0
 17 13  1  0
 18 26  1  0
 19 24  1  0
 20 21  1  0
 20 19  1  0
 22 21  1  0
 22 31  1  0
 22 23  1  0
 24 18  1  0
 24 23  1  0
 25 18  2  0
 26 27  1  0
 28 29  2  0
 29 48  1  0
 30 33  1  0
 30 29  1  0
 31 32  1  0
 31 28  1  0
 32 30  2  0
 33 34  1  0
 34 35  2  0
 36 39  1  0
 36 35  1  0
 37 36  2  0
 38 37  1  0
 38 33  2  0
 39 40  1  0
 40 45  2  0
 40 41  1  0
 41 42  2  0
 42 43  1  0
 43 47  1  0
 44 43  2  0
 45 44  1  0
 46 45  1  0
 48 49  1  0
 49 51  1  0
 49 52  1  0
 50 48  2  0
 53 28  1  0
 53 54  1  0
 55 53  1  0
 56 58  1  0
 57 68  2  0
 58 63  1  0
 59 67  1  0
 59 69  1  0
 60 66  1  0
 60 62  1  0
 61 67  1  0
 62 61  1  0
 63 62  2  0
 64 65  1  0
 64 58  2  0
 65 60  2  0
 66 59  1  0
 67 57  1  0
 69 71  2  0
 70 69  1  0
 72 70  1  0
 73 82  2  0
 73 78  1  0
 74 70  1  0
 74 78  1  0
 75 74  1  0
 76 77  1  0
 76 75  1  0
 77 73  1  0
 78 79  2  0
 79 80  1  0
 81 80  2  0
 82 81  1  0
 83 57  1  0
 83 84  1  0
 83 93  1  0
 84 87  1  0
 85 89  1  0
 85 84  1  0
 86 85  2  0
 89 88  1  0
 91 89  1  0
 91 92  1  0
 91 90  1  0
 93 96  1  1
 93 94  1  0
 95 93  1  0
M  ISO  4   6 101  18 100  26 100  56 101
M  END
>  <TORSDO>  (3) 
F 17

>  <SCORE>  (3) 
-12.964

>  <name>  (3) 
2

>  <ligand_id>  (3) 
2

>  <original_smiles>  (3) 
[H]c1c([H])c([H])c2c(c1[H])C([H])([H])C([H])([H])C([H])([H])C2([H])N([H])C(=O)C1([H])N(C(=O)C([H])(N([H])C(=O)C([H])(N([H])C([H])([H])[H])C([H])([H])[H])C(C([H])([H])[H])(C([H])([H])[H])C([H])([H])[H])C([H])([H])c2c([H])c(OC3([H])C([H])([H])C(=C(C([H])([H])[H])C([H])([H])[H])N(c4c([H])c(C([H])([H])[H])c(N([H])C(=O)N5C([H])([H])C([H])([H])C([H])([H])C([H])(n6nc(-c7c([H])c([H])c(Oc8c([H])c([H])c(F)c([H])c8F)c([H])c7[H])c(C(=O)N([H])[H])c6N([H])[H])C5([H])[H])c([H])c4C([H])([H])[H])C([H])([H])C3([H])[H])c([H])c([H])c2C1([H])[H]

>  <smiles>  (3) 
[H]c1c([H])c([H])c2c(c1[H])C([H])([H])C([H])([H])C([H])([H])C2([H])N([H])C(=O)C1([H])N(C(=O)C([H])(N([H])C(=O)C([H])(N([H])C([H])([H])[H])C([H])([H])[H])C(C([H])([H])[H])(C([H])([H])[H])C([H])([H])[H])C([H])([H])c2c([H])c(OC3([H])C([H])([H])C(=C(C([H])([H])[H])C([H])([H])[H])N(c4c([H])c(C([H])([H])[H])c(N([H])C(=O)N5C([H])([H])C([H])([H])C([H])([H])C([H])(n6nc(-c7c([H])c([H])c(Oc8c([H])c([H])c(F)c([H])c8F)c([H])c7[H])c(C(=O)N([H])[H])c6N([H])[H])C5([H])[H])c([H])c4C([H])([H])[H])C([H])([H])C3([H])[H])c([H])c([H])c2C1([H])[H]

$$$$
3:0:0
     RDKit          3D

 95104  0  0  1  0  0  0  0  0999 V2000
  -28.6420  -23.7570   20.0750 C   0  0  0  0  0  0  0  0  0  0  0  0
  -26.6550  -23.2840   22.1430 C   0  0  0  0  0  2  0  0  0  0  0  0
  -26.7050  -24.6820   21.4660 C   0  0  0  0  0  2  0  0  0  0  0  0
  -27.9630  -22.4640   22.0290 C   0  0  0  0  0  2  0  0  0  0  0  0
  -28.0800  -25.0490   20.8400 C   0  0  0  0  0  3  0  0  0  0  0  0
  -28.5720  -22.5070   20.6890 N   0  0  0  0  0  0  0  0  0  0  0  0
  -29.1070  -23.8940   18.9390 O   0  0  0  0  0  0  0  0  0  0  0  0
  -28.2040  -26.4020   20.1620 O   0  0  0  0  0  0  0  0  0  0  0  0
  -24.5960  -31.9220   23.1970 C   0  0  0  0  0  0  0  0  0  0  0  0
  -27.1290  -27.3140   20.1330 C   0  0  0  0  0  0  0  0  0  0  0  0
  -23.3760  -30.5550   21.5420 C   0  0  0  0  0  3  0  0  0  0  0  0
  -24.8090  -29.0000   20.0920 C   0  0  0  0  0  0  0  0  0  0  0  0
  -25.9220  -30.8310   21.3700 C   0  0  0  0  0  2  0  0  0  0  0  0
  -25.9830  -29.4550   20.7080 C   0  0  0  0  0  0  0  0  0  0  0  0
  -27.1500  -28.6240   20.7140 C   0  0  0  0  0  3  0  0  0  0  0  0
  -25.9500  -26.9400   19.4550 C   0  0  0  0  0  3  0  0  0  0  0  0
  -24.7980  -27.7520   19.4520 C   0  0  0  0  0  3  0  0  0  0  0  0
  -23.5850  -29.8960   20.1500 C   0  0  0  0  0  2  0  0  0  0  0  0
  -24.6510  -31.1220   22.0920 N   0  0  0  0  0  0  0  0  0  0  0  0
  -23.5160  -32.2060   23.7350 O   0  0  0  0  0  0  0  0  0  0  0  0
  -22.7030  -29.5340   22.4930 C   0  0  0  0  0  0  0  0  0  0  0  0
  -21.3720  -29.3780   22.3720 N   0  0  0  0  0  0  0  0  0  0  0  0
  -23.3790  -28.8860   23.2960 O   0  0  0  0  0  0  0  0  0  0  0  0
  -20.8880  -29.9510   21.6970 H   0  0  0  0  0  0  0  0  0  0  0  0
  -17.9780  -28.2470   22.9050 C   0  0  0  0  0  0  0  0  0  0  0  0
  -20.5460  -28.4430   23.1380 C   0  0  0  0  0  3  0  0  0  0  0  0
  -20.6070  -27.0230   22.5320 C   0  0  0  0  0  2  0  0  0  0  0  0
  -19.4820  -26.7460   21.5290 C   0  0  0  0  0  2  0  0  0  0  0  0
  -18.1140  -26.9100   22.1970 C   0  0  0  0  0  2  0  0  0  0  0  0
  -19.1210  -28.9750   23.3330 C   0  0  0  0  0  0  0  0  0  0  0  0
  -18.9400  -30.2290   23.9540 C   0  0  0  0  0  3  0  0  0  0  0  0
  -17.6490  -30.7540   24.1530 C   0  0  0  0  0  3  0  0  0  0  0  0
  -16.5220  -30.0230   23.7410 C   0  0  0  0  0  3  0  0  0  0  0  0
  -16.6870  -28.7720   23.1220 C   0  0  0  0  0  3  0  0  0  0  0  0
  -25.8870  -32.5360   23.8230 C   0  0  0  0  0  3  0  0  0  0  0  0
  -25.5860  -33.9320   24.1690 N   0  0  0  0  0  0  0  0  0  0  0  0
  -25.9220  -34.9920   23.4240 C   0  0  0  0  0  0  0  0  0  0  0  0
  -26.5850  -34.8990   22.3850 O   0  0  0  0  0  0  0  0  0  0  0  0
  -24.9920  -34.0830   24.9710 H   0  0  0  0  0  0  0  0  0  0  0  0
  -24.2000  -36.8030   23.1210 C   0  0  0  0  0  1  0  0  0  0  0  0
  -25.4530  -36.3800   23.9050 C   0  0  0  0  0  3  0  0  0  0  0  0
  -27.6070  -37.2440   24.7090 C   0  0  0  0  0  1  0  0  0  0  0  0
  -26.4910  -37.4280   23.7850 N   0  0  0  0  0  0  0  0  0  0  0  0
  -26.0930  -38.3490   23.9480 H   0  0  0  0  0  0  0  0  0  0  0  0
  -26.4040  -31.7490   25.0900 C   0  0  1  0  0  0  0  0  0  0  0  0
  -25.3150  -31.5090   26.1620 C   0  0  0  0  0  1  0  0  0  0  0  0
  -26.9820  -30.3730   24.6860 C   0  0  0  0  0  1  0  0  0  0  0  0
  -27.5590  -32.5350   25.7530 C   0  0  0  0  0  1  0  0  0  0  0  0
  -28.8830  -21.1540   20.0210 C   0  0  0  0  0  2  0  0  0  0  0  0
  -31.2540  -18.8980   22.2160 C   0  0  0  0  0  3  0  0  0  0  0  0
  -29.3130  -18.5100   20.3020 C   0  0  0  0  0  3  0  0  0  0  0  0
  -30.6180  -20.0350   21.6770 C   0  0  0  0  0  0  0  0  0  0  0  0
  -30.9520  -17.5720   21.8300 C   0  0  0  0  0  0  0  0  0  0  0  0
  -29.5900  -19.8860   20.7080 C   0  0  0  0  0  0  0  0  0  0  0  0
  -29.9890  -17.3210   20.8160 C   0  0  0  0  0  0  0  0  0  0  0  0
  -31.1160  -21.3860   22.1690 C   0  0  0  0  0  1  0  0  0  0  0  0
  -31.6700  -16.4520   22.5700 C   0  0  0  0  0  1  0  0  0  0  0  0
  -30.4030  -14.8150   20.0570 C   0  0  0  0  0  0  0  0  0  0  0  0
  -30.1610  -12.5820   18.9320 C   0  0  0  0  0  2  0  0  0  0  0  0
  -29.1470  -12.6990   17.7730 C   0  0  0  0  0  2  0  0  0  0  0  0
  -27.7040  -12.4960   18.2770 C   0  0  0  0  0  2  0  0  0  0  0  0
  -27.4050  -13.3120   19.5640 C   0  0  0  0  0  3  0  0  0  0  0  0
  -28.5330  -13.1830   20.6100 C   0  0  0  0  0  2  0  0  0  0  0  0
  -29.7810  -13.5890   19.9510 N   0  0  0  0  0  0  0  0  0  0  0  0
  -31.5500  -14.9480   19.6220 O   0  0  0  0  0  0  0  0  0  0  0  0
  -29.6390  -15.9190   20.4340 N   0  0  0  0  0  0  0  0  0  0  0  0
  -28.6560  -15.7090   20.4910 H   0  0  0  0  0  0  0  0  0  0  0  0
  -25.0600  -13.8400   20.4570 C   0  0  0  0  0  0  0  0  0  0  0  0
  -24.0340  -13.0340   20.8750 C   0  0  0  0  0  0  0  0  0  0  0  0
  -24.5190  -11.6930   20.7770 C   0  0  0  0  0  0  0  0  0  0  0  0
  -26.1020  -12.9850   20.1300 N   0  0  0  0  0  0  0  0  0  0  0  0
  -25.7880  -11.6880   20.3850 N   0  0  0  0  0  0  0  0  0  0  0  0
  -23.8250  -10.4150   20.9780 C   0  0  0  0  0  0  0  0  0  0  0  0
  -24.3060   -9.4490   21.8890 C   0  0  0  0  0  3  0  0  0  0  0  0
  -23.6090   -8.2360   22.0800 C   0  0  0  0  0  3  0  0  0  0  0  0
  -22.4180   -7.9800   21.3590 C   0  0  0  0  0  0  0  0  0  0  0  0
  -21.9550   -8.9360   20.4380 C   0  0  0  0  0  3  0  0  0  0  0  0
  -22.6520  -10.1400   20.2450 C   0  0  0  0  0  3  0  0  0  0  0  0
  -21.6880   -6.8200   21.4620 O   0  0  0  0  0  0  0  0  0  0  0  0
  -21.6720   -6.0790   22.6180 C   0  0  0  0  0  0  0  0  0  0  0  0
  -21.2500   -6.6270   23.8490 C   0  0  0  0  0  3  0  0  0  0  0  0
  -21.1810   -5.8110   24.9950 C   0  0  0  0  0  3  0  0  0  0  0  0
  -21.5260   -4.4500   24.9120 C   0  0  0  0  0  0  0  0  0  0  0  0
  -21.9430   -3.9010   23.6860 C   0  0  0  0  0  3  0  0  0  0  0  0
  -22.0130   -4.7140   22.5420 C   0  0  0  0  0  0  0  0  0  0  0  0
  -22.3950   -4.1760   21.3590 F   0  0  0  0  0  0  0  0  0  0  0  0
  -21.4530   -3.6640   26.0120 F   0  0  0  0  0  0  0  0  0  0  0  0
  -22.6510  -13.4820   21.2450 C   0  0  0  0  0  0  0  0  0  0  0  0
  -21.9960  -12.7580   22.1490 N   0  0  0  0  0  0  0  0  0  0  0  0
  -22.1600  -14.5060   20.7730 O   0  0  0  0  0  0  0  0  0  0  0  0
  -22.4050  -11.9290   22.5520 H   0  0  0  0  0  0  0  0  0  0  0  0
  -21.0720  -13.0410   22.4430 H   0  0  0  0  0  0  0  0  0  0  0  0
  -25.1840  -15.2170   20.3080 N   0  0  0  0  0  0  0  0  0  0  0  0
  -24.3990  -15.8380   20.4770 H   0  0  0  0  0  0  0  0  0  0  0  0
  -25.9890  -15.6940   19.9230 H   0  0  0  0  0  0  0  0  0  0  0  0
  1  6  1  0
  1  5  1  0
  3  2  1  0
  4  2  1  0
  5  8  1  0
  5  3  1  0
  6  4  1  0
  7  1  2  0
  9 20  2  0
 10  8  1  0
 10 15  1  0
 11 19  1  0
 11 21  1  0
 12 18  1  0
 12 14  1  0
 13 19  1  0
 14 15  2  0
 14 13  1  0
 16 10  2  0
 17 16  1  0
 17 12  2  0
 18 11  1  0
 19  9  1  0
 21 23  2  0
 22 21  1  0
 24 22  1  0
 25 34  2  0
 25 30  1  0
 26 22  1  0
 26 30  1  0
 27 26  1  0
 28 29  1  0
 28 27  1  0
 29 25  1  0
 30 31  2  0
 31 32  1  0
 33 32  2  0
 34 33  1  0
 35  9  1  0
 35 36  1  0
 35 45  1  0
 36 39  1  0
 37 41  1  0
 37 36  1  0
 38 37  2  0
 41 40  1  0
 43 41  1  0
 43 44  1  0
 43 42  1  0
 45 48  1  1
 45 46  1  0
 47 45  1  0
 49  6  1  0
 49 54  1  0
 51 54  2  0
 51 55  1  0
 52 56  1  0
 52 50  2  0
 53 50  1  0
 53 57  1  0
 54 52  1  0
 55 53  2  0
 58 66  1  0
 59 64  1  0
 60 61  1  0
 60 59  1  0
 62 61  1  0
 62 71  1  0
 62 63  1  0
 64 58  1  0
 64 63  1  0
 65 58  2  0
 66 67  1  0
 66 55  1  0
 68 69  2  0
 69 88  1  0
 70 69  1  0
 70 73  1  0
 71 72  1  0
 71 68  1  0
 72 70  2  0
 73 74  1  0
 74 75  2  0
 76 79  1  0
 76 75  1  0
 77 76  2  0
 78 77  1  0
 78 73  2  0
 79 80  1  0
 80 81  1  0
 81 82  2  0
 83 82  1  0
 83 87  1  0
 84 83  2  0
 85 80  2  0
 85 84  1  0
 86 85  1  0
 88 89  1  0
 89 92  1  0
 89 91  1  0
 90 88  2  0
 93 68  1  0
 93 94  1  0
 95 93  1  0
M  ISO  4   5 101   8 101  58 100  66 100
M  END
>  <TORSDO>  (4) 
F 18

>  <SCORE>  (4) 
-13.317

>  <name>  (4) 
3

>  <ligand_id>  (4) 
3

>  <original_smiles>  (4) 
[H]c1c([H])c([H])c2c(c1[H])C([H])([H])C([H])([H])C([H])([H])C2([H])N([H])C(=O)C1([H])N(C(=O)C([H])(N([H])C(=O)C([H])(N([H])C([H])([H])[H])C([H])([H])[H])C(C([H])([H])[H])(C([H])([H])[H])C([H])([H])[H])C([H])([H])c2c([H])c(OC3([H])C(=O)N(C([H])([H])c4c([H])c(N([H])C(=O)N5C([H])([H])C([H])([H])C([H])([H])C([H])(n6nc(-c7c([H])c([H])c(Oc8c([H])c([H])c(F)c([H])c8F)c([H])c7[H])c(C(=O)N([H])[H])c6N([H])[H])C5([H])[H])c(C([H])([H])[H])c([H])c4C([H])([H])[H])C([H])([H])C([H])([H])C3([H])[H])c([H])c([H])c2C1([H])[H]

>  <smiles>  (4) 
[H]c1c([H])c([H])c2c(c1[H])C([H])([H])C([H])([H])C([H])([H])C2([H])N([H])C(=O)C1([H])N(C(=O)C([H])(N([H])C(=O)C([H])(N([H])C([H])([H])[H])C([H])([H])[H])C(C([H])([H])[H])(C([H])([H])[H])C([H])([H])[H])C([H])([H])c2c([H])c(OC3([H])C(=O)N(C([H])([H])c4c([H])c(N([H])C(=O)N5C([H])([H])C([H])([H])C([H])([H])C([H])(n6nc(-c7c([H])c([H])c(Oc8c([H])c([H])c(F)c([H])c8F)c([H])c7[H])c(C(=O)N([H])[H])c6N([H])[H])C5([H])[H])c(C([H])([H])[H])c([H])c4C([H])([H])[H])C([H])([H])C([H])([H])C3([H])[H])c([H])c([H])c2C1([H])[H]

$$$$
4:0:0
     RDKit          3D

 95104  0  0  1  0  0  0  0  0999 V2000
  -29.1790  -24.0630   19.8790 C   0  0  0  0  0  0  0  0  0  0  0  0
  -27.2720  -23.2110   21.9040 C   0  0  0  0  0  2  0  0  0  0  0  0
  -27.0870  -24.5880   21.2100 C   0  0  0  0  0  2  0  0  0  0  0  0
  -28.6890  -22.5950   21.7550 C   0  0  0  0  0  2  0  0  0  0  0  0
  -28.4100  -25.1910   20.6810 C   0  0  0  0  0  3  0  0  0  0  0  0
  -29.2540  -22.7890   20.4120 N   0  0  0  0  0  0  0  0  0  0  0  0
  -29.7180  -24.3590   18.8070 O   0  0  0  0  0  0  0  0  0  0  0  0
  -28.3830  -26.5240   20.0170 O   0  0  0  0  0  0  0  0  0  0  0  0
  -24.6030  -31.8310   23.1490 C   0  0  0  0  0  0  0  0  0  0  0  0
  -27.2440  -27.3370   20.0510 C   0  0  0  0  0  0  0  0  0  0  0  0
  -23.4120  -30.4610   21.4730 C   0  0  0  0  0  3  0  0  0  0  0  0
  -24.8760  -28.9310   20.0400 C   0  0  0  0  0  0  0  0  0  0  0  0
  -25.9490  -30.7860   21.3160 C   0  0  0  0  0  2  0  0  0  0  0  0
  -26.0360  -29.4150   20.6590 C   0  0  0  0  0  0  0  0  0  0  0  0
  -27.2230  -28.6280   20.6600 C   0  0  0  0  0  3  0  0  0  0  0  0
  -26.0740  -26.9120   19.3880 C   0  0  0  0  0  3  0  0  0  0  0  0
  -24.8950  -27.6820   19.3960 C   0  0  0  0  0  3  0  0  0  0  0  0
  -23.6390  -29.8040   20.0850 C   0  0  0  0  0  2  0  0  0  0  0  0
  -24.6730  -31.0440   22.0370 N   0  0  0  0  0  0  0  0  0  0  0  0
  -23.5160  -32.0990   23.6820 O   0  0  0  0  0  0  0  0  0  0  0  0
  -22.7420  -29.4290   22.4110 C   0  0  0  0  0  0  0  0  0  0  0  0
  -21.4140  -29.2720   22.2870 N   0  0  0  0  0  0  0  0  0  0  0  0
  -23.4170  -28.7740   23.2100 O   0  0  0  0  0  0  0  0  0  0  0  0
  -20.9280  -29.8530   21.6190 H   0  0  0  0  0  0  0  0  0  0  0  0
  -18.0180  -28.1450   22.8100 C   0  0  0  0  0  0  0  0  0  0  0  0
  -20.5870  -28.3260   23.0380 C   0  0  0  0  0  3  0  0  0  0  0  0
  -20.6410  -26.9160   22.4060 C   0  0  0  0  0  2  0  0  0  0  0  0
  -19.5120  -26.6620   21.4020 C   0  0  0  0  0  2  0  0  0  0  0  0
  -18.1470  -26.8190   22.0770 C   0  0  0  0  0  2  0  0  0  0  0  0
  -19.1640  -28.8600   23.2460 C   0  0  0  0  0  0  0  0  0  0  0  0
  -18.9900  -30.1050   23.8880 C   0  0  0  0  0  3  0  0  0  0  0  0
  -17.7010  -30.6330   24.1000 C   0  0  0  0  0  3  0  0  0  0  0  0
  -16.5700  -29.9130   23.6780 C   0  0  0  0  0  3  0  0  0  0  0  0
  -16.7300  -28.6710   23.0380 C   0  0  0  0  0  3  0  0  0  0  0  0
  -25.8820  -32.4510   23.7930 C   0  0  0  0  0  3  0  0  0  0  0  0
  -25.5720  -33.8420   24.1500 N   0  0  0  0  0  0  0  0  0  0  0  0
  -25.9120  -34.9100   23.4160 C   0  0  0  0  0  0  0  0  0  0  0  0
  -26.5890  -34.8270   22.3870 O   0  0  0  0  0  0  0  0  0  0  0  0
  -24.9730  -33.9810   24.9510 H   0  0  0  0  0  0  0  0  0  0  0  0
  -24.1890  -36.7130   23.0840 C   0  0  0  0  0  1  0  0  0  0  0  0
  -25.4230  -36.2890   23.8980 C   0  0  0  0  0  3  0  0  0  0  0  0
  -27.5490  -37.1550   24.7710 C   0  0  0  0  0  1  0  0  0  0  0  0
  -26.4580  -37.3430   23.8190 N   0  0  0  0  0  0  0  0  0  0  0  0
  -26.0490  -38.2590   23.9820 H   0  0  0  0  0  0  0  0  0  0  0  0
  -26.3920  -31.6530   25.0550 C   0  0  1  0  0  0  0  0  0  0  0  0
  -25.2920  -31.3960   26.1110 C   0  0  0  0  0  1  0  0  0  0  0  0
  -26.9760  -30.2830   24.6370 C   0  0  0  0  0  1  0  0  0  0  0  0
  -27.5380  -32.4330   25.7420 C   0  0  0  0  0  1  0  0  0  0  0  0
  -30.1720  -21.7310   19.8360 C   0  0  0  0  0  2  0  0  0  0  0  0
  -28.8880  -19.4530   20.2400 C   0  0  0  0  0  3  0  0  0  0  0  0
  -31.2330  -17.9320   20.2390 C   0  0  0  0  0  3  0  0  0  0  0  0
  -30.1000  -20.1680   20.1060 C   0  0  0  0  0  0  0  0  0  0  0  0
  -28.8390  -18.0320   20.3890 C   0  0  0  0  0  0  0  0  0  0  0  0
  -31.2820  -19.3580   20.1110 C   0  0  0  0  0  0  0  0  0  0  0  0
  -30.0140  -17.2160   20.3670 C   0  0  0  0  0  0  0  0  0  0  0  0
  -27.4600  -17.4250   20.5400 C   0  0  0  0  0  1  0  0  0  0  0  0
  -32.6520  -19.9940   19.9360 C   0  0  0  0  0  1  0  0  0  0  0  0
  -30.6960  -14.7030   20.0460 C   0  0  0  0  0  0  0  0  0  0  0  0
  -30.4460  -12.4930   18.9260 C   0  0  0  0  0  2  0  0  0  0  0  0
  -29.4410  -12.6470   17.7630 C   0  0  0  0  0  2  0  0  0  0  0  0
  -27.9930  -12.4590   18.2600 C   0  0  0  0  0  2  0  0  0  0  0  0
  -27.6890  -13.2770   19.5430 C   0  0  0  0  0  3  0  0  0  0  0  0
  -28.8060  -13.1040   20.5980 C   0  0  0  0  0  2  0  0  0  0  0  0
  -30.0800  -13.4780   19.9640 N   0  0  0  0  0  0  0  0  0  0  0  0
  -31.8410  -14.8630   19.6130 O   0  0  0  0  0  0  0  0  0  0  0  0
  -29.9070  -15.7480   20.4650 N   0  0  0  0  0  0  0  0  0  0  0  0
  -29.0070  -15.4280   20.7860 H   0  0  0  0  0  0  0  0  0  0  0  0
  -25.3120  -13.8150   20.3590 C   0  0  0  0  0  0  0  0  0  0  0  0
  -24.2820  -13.0240   20.7850 C   0  0  0  0  0  0  0  0  0  0  0  0
  -24.7740  -11.6850   20.7320 C   0  0  0  0  0  0  0  0  0  0  0  0
  -26.3690  -12.9630   20.0850 N   0  0  0  0  0  0  0  0  0  0  0  0
  -26.0510  -11.6740   20.3690 N   0  0  0  0  0  0  0  0  0  0  0  0
  -24.0800  -10.4110   20.9490 C   0  0  0  0  0  0  0  0  0  0  0  0
  -24.5270   -9.4820   21.9150 C   0  0  0  0  0  3  0  0  0  0  0  0
  -23.8320   -8.2700   22.1180 C   0  0  0  0  0  3  0  0  0  0  0  0
  -22.6750   -7.9800   21.3560 C   0  0  0  0  0  0  0  0  0  0  0  0
  -22.2480   -8.8980   20.3790 C   0  0  0  0  0  3  0  0  0  0  0  0
  -22.9450  -10.1000   20.1750 C   0  0  0  0  0  3  0  0  0  0  0  0
  -21.9500   -6.8190   21.4670 O   0  0  0  0  0  0  0  0  0  0  0  0
  -21.8530   -6.1440   22.6570 C   0  0  0  0  0  0  0  0  0  0  0  0
  -21.3310   -6.7540   23.8200 C   0  0  0  0  0  3  0  0  0  0  0  0
  -21.1850   -6.0030   25.0030 C   0  0  0  0  0  3  0  0  0  0  0  0
  -21.5500   -4.6430   25.0250 C   0  0  0  0  0  0  0  0  0  0  0  0
  -22.0660   -4.0330   23.8680 C   0  0  0  0  0  3  0  0  0  0  0  0
  -22.2150   -4.7820   22.6860 C   0  0  0  0  0  0  0  0  0  0  0  0
  -22.6920   -4.1840   21.5680 F   0  0  0  0  0  0  0  0  0  0  0  0
  -21.4020   -3.9190   26.1590 F   0  0  0  0  0  0  0  0  0  0  0  0
  -22.8890  -13.4770   21.1150 C   0  0  0  0  0  0  0  0  0  0  0  0
  -22.2120  -12.7700   22.0130 N   0  0  0  0  0  0  0  0  0  0  0  0
  -22.4110  -14.4930   20.6120 O   0  0  0  0  0  0  0  0  0  0  0  0
  -22.6120  -11.9460   22.4380 H   0  0  0  0  0  0  0  0  0  0  0  0
  -21.2810  -13.0560   22.2770 H   0  0  0  0  0  0  0  0  0  0  0  0
  -25.4200  -15.1830   20.1530 N   0  0  0  0  0  0  0  0  0  0  0  0
  -24.6180  -15.7950   20.2550 H   0  0  0  0  0  0  0  0  0  0  0  0
  -26.1960  -15.6170   19.6730 H   0  0  0  0  0  0  0  0  0  0  0  0
  1  6  1  0
  1  5  1  0
  3  2  1  0
  4  2  1  0
  5  8  1  0
  5  3  1  0
  6  4  1  0
  7  1  2  0
  8 10  1  0
  9 20  2  0
 10 15  1  0
 11 19  1  0
 11 21  1  0
 12 18  1  0
 12 14  1  0
 13 19  1  0
 14 15  2  0
 14 13  1  0
 16 17  1  0
 16 10  2  0
 17 12  2  0
 18 11  1  0
 19  9  1  0
 21 23  2  0
 22 21  1  0
 24 22  1  0
 25 34  2  0
 25 30  1  0
 26 22  1  0
 26 30  1  0
 27 26  1  0
 28 29  1  0
 28 27  1  0
 29 25  1  0
 30 31  2  0
 31 32  1  0
 33 32  2  0
 34 33  1  0
 35  9  1  0
 35 36  1  0
 35 45  1  0
 36 39  1  0
 37 41  1  0
 37 36  1  0
 38 37  2  0
 41 40  1  0
 43 41  1  0
 43 44  1  0
 43 42  1  0
 45 48  1  1
 45 46  1  0
 47 45  1  0
 49 52  1  0
 49  6  1  0
 50 53  1  0
 51 55  1  0
 52 54  1  0
 52 50  2  0
 53 56  1  0
 54 51  2  0
 55 53  2  0
 55 66  1  0
 57 54  1  0
 58 66  1  0
 59 64  1  0
 60 61  1  0
 60 59  1  0
 62 61  1  0
 62 71  1  0
 62 63  1  0
 64 58  1  0
 64 63  1  0
 65 58  2  0
 66 67  1  0
 68 69  2  0
 69 88  1  0
 70 69  1  0
 70 73  1  0
 71 68  1  0
 71 72  1  0
 72 70  2  0
 73 74  1  0
 74 75  2  0
 76 79  1  0
 76 75  1  0
 77 76  2  0
 78 77  1  0
 78 73  2  0
 79 80  1  0
 80 85  2  0
 80 81  1  0
 81 82  2  0
 82 83  1  0
 83 87  1  0
 84 83  2  0
 85 84  1  0
 86 85  1  0
 88 89  1  0
 89 92  1  0
 89 91  1  0
 90 88  2  0
 93 94  1  0
 93 68  1  0
 95 93  1  0
M  ISO  4   5 101   8 101  58 100  66 100
M  END
>  <TORSDO>  (5) 
F 18

>  <SCORE>  (5) 
-14.539

>  <name>  (5) 
4

>  <ligand_id>  (5) 
4

>  <original_smiles>  (5) 
[H]c1c([H])c([H])c2c(c1[H])C([H])([H])C([H])([H])C([H])([H])C2([H])N([H])C(=O)C1([H])N(C(=O)C([H])(N([H])C(=O)C([H])(N([H])C([H])([H])[H])C([H])([H])[H])C(C([H])([H])[H])(C([H])([H])[H])C([H])([H])[H])C([H])([H])c2c([H])c(OC3([H])C(=O)N(C([H])([H])c4c([H])c(C([H])([H])[H])c(N([H])C(=O)N5C([H])([H])C([H])([H])C([H])([H])C([H])(n6nc(-c7c([H])c([H])c(Oc8c([H])c([H])c(F)c([H])c8F)c([H])c7[H])c(C(=O)N([H])[H])c6N([H])[H])C5([H])[H])c([H])c4C([H])([H])[H])C([H])([H])C([H])([H])C3([H])[H])c([H])c([H])c2C1([H])[H]

>  <smiles>  (5) 
[H]c1c([H])c([H])c2c(c1[H])C([H])([H])C([H])([H])C([H])([H])C2([H])N([H])C(=O)C1([H])N(C(=O)C([H])(N([H])C(=O)C([H])(N([H])C([H])([H])[H])C([H])([H])[H])C(C([H])([H])[H])(C([H])([H])[H])C([H])([H])[H])C([H])([H])c2c([H])c(OC3([H])C(=O)N(C([H])([H])c4c([H])c(C([H])([H])[H])c(N([H])C(=O)N5C([H])([H])C([H])([H])C([H])([H])C([H])(n6nc(-c7c([H])c([H])c(Oc8c([H])c([H])c(F)c([H])c8F)c([H])c7[H])c(C(=O)N([H])[H])c6N([H])[H])C5([H])[H])c([H])c4C([H])([H])[H])C([H])([H])C([H])([H])C3([H])[H])c([H])c([H])c2C1([H])[H]

$$$$
5:0:0
     RDKit          3D

 94103  0  0  1  0  0  0  0  0999 V2000
  -28.5720  -23.7200   19.8400 C   0  0  0  0  0  0  0  0  0  0  0  0
  -29.8090  -23.7590   22.4440 C   0  0  0  0  0  2  0  0  0  0  0  0
  -29.3920  -25.1320   21.8980 C   0  0  0  0  0  2  0  0  0  0  0  0
  -30.3140  -22.8700   21.2960 C   0  0  0  0  0  2  0  0  0  0  0  0
  -28.3930  -25.0620   20.7250 C   0  0  0  0  0  3  0  0  0  0  0  0
  -29.2490  -22.5930   20.3230 N   0  0  0  0  0  0  0  0  0  0  0  0
  -27.9980  -23.6820   18.7470 O   0  0  0  0  0  0  0  0  0  0  0  0
  -28.4580  -26.4070   20.0580 O   0  0  0  0  0  0  0  0  0  0  0  0
  -24.6550  -31.7820   23.1870 C   0  0  0  0  0  0  0  0  0  0  0  0
  -27.3370  -27.2590   20.1020 C   0  0  0  0  0  0  0  0  0  0  0  0
  -23.4780  -30.3760   21.5360 C   0  0  0  0  0  3  0  0  0  0  0  0
  -24.9540  -28.8510   20.1040 C   0  0  0  0  0  0  0  0  0  0  0  0
  -26.0150  -30.7290   21.3590 C   0  0  0  0  0  2  0  0  0  0  0  0
  -26.1180  -29.3520   20.7030 C   0  0  0  0  0  0  0  0  0  0  0  0
  -27.3180  -28.5710   20.6850 C   0  0  0  0  0  3  0  0  0  0  0  0
  -26.1500  -26.8130   19.4910 C   0  0  0  0  0  3  0  0  0  0  0  0
  -24.9730  -27.5890   19.4890 C   0  0  0  0  0  3  0  0  0  0  0  0
  -23.7050  -29.7100   20.1540 C   0  0  0  0  0  2  0  0  0  0  0  0
  -24.7350  -30.9810   22.0840 N   0  0  0  0  0  0  0  0  0  0  0  0
  -23.5660  -32.0380   23.7210 O   0  0  0  0  0  0  0  0  0  0  0  0
  -22.8280  -29.3440   22.4880 C   0  0  0  0  0  0  0  0  0  0  0  0
  -21.5070  -29.1340   22.3460 N   0  0  0  0  0  0  0  0  0  0  0  0
  -23.5100  -28.7370   23.3180 O   0  0  0  0  0  0  0  0  0  0  0  0
  -21.0160  -29.6770   21.6500 H   0  0  0  0  0  0  0  0  0  0  0  0
  -18.1670  -27.8010   22.7560 C   0  0  0  0  0  0  0  0  0  0  0  0
  -20.7030  -28.1740   23.1030 C   0  0  0  0  0  3  0  0  0  0  0  0
  -20.8840  -26.7390   22.5560 C   0  0  0  0  0  2  0  0  0  0  0  0
  -19.8300  -26.3550   21.5120 C   0  0  0  0  0  2  0  0  0  0  0  0
  -18.4240  -26.4500   22.1080 C   0  0  0  0  0  2  0  0  0  0  0  0
  -19.2380  -28.6170   23.2090 C   0  0  0  0  0  0  0  0  0  0  0  0
  -18.9470  -29.8770   23.7740 C   0  0  0  0  0  3  0  0  0  0  0  0
  -17.6170  -30.3250   23.8880 C   0  0  0  0  0  3  0  0  0  0  0  0
  -16.5610  -29.5060   23.4510 C   0  0  0  0  0  3  0  0  0  0  0  0
  -16.8360  -28.2460   22.8930 C   0  0  0  0  0  3  0  0  0  0  0  0
  -25.9250  -32.4330   23.8180 C   0  0  0  0  0  3  0  0  0  0  0  0
  -25.5890  -33.8230   24.1610 N   0  0  0  0  0  0  0  0  0  0  0  0
  -25.9130  -34.8910   23.4190 C   0  0  0  0  0  0  0  0  0  0  0  0
  -26.5940  -34.8090   22.3920 O   0  0  0  0  0  0  0  0  0  0  0  0
  -24.9790  -33.9580   24.9530 H   0  0  0  0  0  0  0  0  0  0  0  0
  -24.1580  -36.6610   23.0800 C   0  0  0  0  0  1  0  0  0  0  0  0
  -25.4040  -36.2670   23.8900 C   0  0  0  0  0  3  0  0  0  0  0  0
  -27.5250  -37.1710   24.7320 C   0  0  0  0  0  1  0  0  0  0  0  0
  -26.4190  -37.3370   23.7930 N   0  0  0  0  0  0  0  0  0  0  0  0
  -25.9990  -38.2480   23.9560 H   0  0  0  0  0  0  0  0  0  0  0  0
  -26.4510  -31.6600   25.0910 C   0  0  1  0  0  0  0  0  0  0  0  0
  -25.3600  -31.3970   26.1560 C   0  0  0  0  0  1  0  0  0  0  0  0
  -27.0530  -30.2920   24.6910 C   0  0  0  0  0  1  0  0  0  0  0  0
  -27.5890  -32.4670   25.7580 C   0  0  0  0  0  1  0  0  0  0  0  0
  -29.2520  -21.1820   19.6890 C   0  0  0  0  0  2  0  0  0  0  0  0
  -30.1810  -19.8460   21.7440 C   0  0  0  0  0  3  0  0  0  0  0  0
  -30.8350  -17.4690   21.6920 C   0  0  0  0  0  3  0  0  0  0  0  0
  -29.8900  -18.5410   19.7220 C   0  0  0  0  0  3  0  0  0  0  0  0
  -30.7040  -18.6970   22.3800 C   0  0  0  0  0  0  0  0  0  0  0  0
  -29.8030  -19.8400   20.3840 C   0  0  0  0  0  0  0  0  0  0  0  0
  -30.4040  -17.3290   20.3550 C   0  0  0  0  0  0  0  0  0  0  0  0
  -31.0970  -18.7890   23.8430 C   0  0  0  0  0  1  0  0  0  0  0  0
  -31.0780  -14.8100   19.9210 C   0  0  0  0  0  0  0  0  0  0  0  0
  -30.7870  -12.5150   18.9560 C   0  0  0  0  0  2  0  0  0  0  0  0
  -29.7990  -12.5730   17.7720 C   0  0  0  0  0  2  0  0  0  0  0  0
  -28.3420  -12.4670   18.2640 C   0  0  0  0  0  2  0  0  0  0  0  0
  -28.0410  -13.4030   19.4630 C   0  0  0  0  0  3  0  0  0  0  0  0
  -29.1390  -13.3110   20.5420 C   0  0  0  0  0  2  0  0  0  0  0  0
  -30.4160  -13.6050   19.8790 N   0  0  0  0  0  0  0  0  0  0  0  0
  -32.2900  -14.8590   19.6920 O   0  0  0  0  0  0  0  0  0  0  0  0
  -30.2890  -15.9500   19.8190 N   0  0  0  0  0  0  0  0  0  0  0  0
  -29.3500  -15.7200   19.5360 H   0  0  0  0  0  0  0  0  0  0  0  0
  -25.7260  -14.1170   20.3030 C   0  0  0  0  0  0  0  0  0  0  0  0
  -24.6350  -13.3970   20.7080 C   0  0  0  0  0  0  0  0  0  0  0  0
  -25.0220  -12.0230   20.6450 C   0  0  0  0  0  0  0  0  0  0  0  0
  -26.7080  -13.1830   20.0120 N   0  0  0  0  0  0  0  0  0  0  0  0
  -26.2950  -11.9190   20.2830 N   0  0  0  0  0  0  0  0  0  0  0  0
  -24.2360  -10.8000   20.8510 C   0  0  0  0  0  0  0  0  0  0  0  0
  -24.6320   -9.8130   21.7800 C   0  0  0  0  0  3  0  0  0  0  0  0
  -23.8480   -8.6560   21.9730 C   0  0  0  0  0  3  0  0  0  0  0  0
  -22.6560   -8.4760   21.2350 C   0  0  0  0  0  0  0  0  0  0  0  0
  -22.2770   -9.4510   20.2950 C   0  0  0  0  0  3  0  0  0  0  0  0
  -23.0610  -10.6000   20.1000 C   0  0  0  0  0  3  0  0  0  0  0  0
  -21.8450   -7.3710   21.3370 O   0  0  0  0  0  0  0  0  0  0  0  0
  -21.7450   -6.6580   22.5050 C   0  0  0  0  0  0  0  0  0  0  0  0
  -21.3510   -7.2660   23.7170 C   0  0  0  0  0  3  0  0  0  0  0  0
  -21.1910   -6.4820   24.8770 C   0  0  0  0  0  3  0  0  0  0  0  0
  -21.4170   -5.0940   24.8270 C   0  0  0  0  0  0  0  0  0  0  0  0
  -21.8040   -4.4850   23.6200 C   0  0  0  0  0  3  0  0  0  0  0  0
  -21.9640   -5.2660   22.4610 C   0  0  0  0  0  0  0  0  0  0  0  0
  -22.3170   -4.6710   21.2960 F   0  0  0  0  0  0  0  0  0  0  0  0
  -21.2550   -4.3410   25.9410 F   0  0  0  0  0  0  0  0  0  0  0  0
  -23.2770  -13.9460   21.0390 C   0  0  0  0  0  0  0  0  0  0  0  0
  -22.5500  -13.2890   21.9360 N   0  0  0  0  0  0  0  0  0  0  0  0
  -22.8720  -14.9940   20.5350 O   0  0  0  0  0  0  0  0  0  0  0  0
  -22.8940  -12.4440   22.3660 H   0  0  0  0  0  0  0  0  0  0  0  0
  -21.6400  -13.6390   22.1990 H   0  0  0  0  0  0  0  0  0  0  0  0
  -25.9560  -15.4780   20.1340 N   0  0  0  0  0  0  0  0  0  0  0  0
  -25.2300  -16.1680   20.2920 H   0  0  0  0  0  0  0  0  0  0  0  0
  -26.8090  -15.8830   19.7720 H   0  0  0  0  0  0  0  0  0  0  0  0
  1  6  1  0
  1  5  1  0
  3  2  1  0
  4  2  1  0
  5  8  1  0
  5  3  1  0
  6  4  1  0
  7  1  2  0
  8 10  1  0
  9 20  2  0
 10 15  1  0
 11 19  1  0
 11 21  1  0
 12 18  1  0
 12 14  1  0
 13 19  1  0
 14 13  1  0
 15 14  2  0
 16 10  2  0
 17 16  1  0
 17 12  2  0
 18 11  1  0
 19  9  1  0
 21 23  2  0
 22 21  1  0
 24 22  1  0
 25 34  2  0
 25 30  1  0
 26 22  1  0
 26 30  1  0
 27 26  1  0
 28 29  1  0
 28 27  1  0
 29 25  1  0
 30 31  2  0
 31 32  1  0
 33 32  2  0
 34 33  1  0
 35  9  1  0
 35 36  1  0
 35 45  1  0
 36 39  1  0
 37 41  1  0
 37 36  1  0
 38 37  2  0
 41 40  1  0
 43 41  1  0
 43 44  1  0
 43 42  1  0
 45 48  1  1
 45 46  1  0
 47 45  1  0
 49  6  1  0
 49 54  1  0
 50 53  1  0
 51 53  2  0
 52 55  2  0
 52 54  1  0
 53 56  1  0
 54 50  2  0
 55 51  1  0
 58 63  1  0
 59 60  1  0
 59 58  1  0
 61 60  1  0
 61 70  1  0
 61 62  1  0
 63 57  1  0
 63 62  1  0
 64 57  2  0
 65 57  1  0
 65 55  1  0
 66 65  1  0
 67 68  2  0
 68 87  1  0
 69 68  1  0
 69 72  1  0
 70 71  1  0
 70 67  1  0
 71 69  2  0
 72 73  1  0
 73 74  2  0
 75 78  1  0
 75 74  1  0
 76 75  2  0
 77 76  1  0
 77 72  2  0
 78 79  1  0
 79 80  1  0
 80 81  2  0
 82 81  1  0
 82 86  1  0
 83 82  2  0
 84 79  2  0
 84 83  1  0
 85 84  1  0
 87 88  1  0
 88 91  1  0
 88 90  1  0
 89 87  2  0
 92 93  1  0
 92 67  1  0
 94 92  1  0
M  ISO  4   5 101   8 101  57 100  65 100
M  END
>  <TORSDO>  (6) 
F 18

>  <SCORE>  (6) 
-13.827

>  <name>  (6) 
5

>  <ligand_id>  (6) 
5

>  <original_smiles>  (6) 
[H]c1c([H])c([H])c2c(c1[H])C([H])([H])C([H])([H])C([H])([H])C2([H])N([H])C(=O)C1([H])N(C(=O)C([H])(N([H])C(=O)C([H])(N([H])C([H])([H])[H])C([H])([H])[H])C(C([H])([H])[H])(C([H])([H])[H])C([H])([H])[H])C([H])([H])c2c([H])c(OC3([H])C(=O)N(C([H])([H])c4c([H])c(N([H])C(=O)N5C([H])([H])C([H])([H])C([H])([H])C([H])(n6nc(-c7c([H])c([H])c(Oc8c([H])c([H])c(F)c([H])c8F)c([H])c7[H])c(C(=O)N([H])[H])c6N([H])[H])C5([H])[H])c([H])c(C([H])([H])[H])c4[H])C([H])([H])C([H])([H])C3([H])[H])c([H])c([H])c2C1([H])[H]

>  <smiles>  (6) 
[H]c1c([H])c([H])c2c(c1[H])C([H])([H])C([H])([H])C([H])([H])C2([H])N([H])C(=O)C1([H])N(C(=O)C([H])(N([H])C(=O)C([H])(N([H])C([H])([H])[H])C([H])([H])[H])C(C([H])([H])[H])(C([H])([H])[H])C([H])([H])[H])C([H])([H])c2c([H])c(OC3([H])C(=O)N(C([H])([H])c4c([H])c(N([H])C(=O)N5C([H])([H])C([H])([H])C([H])([H])C([H])(n6nc(-c7c([H])c([H])c(Oc8c([H])c([H])c(F)c([H])c8F)c([H])c7[H])c(C(=O)N([H])[H])c6N([H])[H])C5([H])[H])c([H])c(C([H])([H])[H])c4[H])C([H])([H])C([H])([H])C3([H])[H])c([H])c([H])c2C1([H])[H]

$$$$
6:0:0
     RDKit          3D

 96104  0  0  1  0  0  0  0  0999 V2000
  -28.5270  -21.7390   20.3410 C   0  0  0  0  0  0  0  0  0  0  0  0
  -27.5520  -21.5760   21.2340 N   0  0  0  0  0  4  0  0  0  0  0  0
  -28.8680  -22.9970   19.9740 N   0  0  0  0  0  0  0  0  0  0  0  0
  -27.2380  -20.6400   21.4380 H   0  0  0  0  0  0  0  0  0  0  0  0
  -27.0700  -22.3430   21.6680 H   0  0  0  0  0  0  0  0  0  0  0  0
  -29.6640  -23.0560   19.3530 H   0  0  0  0  0  0  0  0  0  0  0  0
  -29.0970  -20.4470   18.3210 C   0  0  0  0  0  3  0  0  0  0  0  0
  -29.6070  -19.3290   17.6380 C   0  0  0  0  0  3  0  0  0  0  0  0
  -29.1680  -20.5340   19.7280 C   0  0  0  0  0  0  0  0  0  0  0  0
  -29.7950  -19.4580   20.4530 C   0  0  0  0  0  0  0  0  0  0  0  0
  -30.2960  -18.3010   19.7540 C   0  0  0  0  0  0  0  0  0  0  0  0
  -30.1930  -18.2670   18.3430 C   0  0  0  0  0  0  0  0  0  0  0  0
  -29.9850  -19.5380   21.9690 C   0  0  0  0  0  1  0  0  0  0  0  0
  -30.6800  -17.2150   17.6420 F   0  0  0  0  0  0  0  0  0  0  0  0
  -31.0450  -17.1340   20.4580 C   0  0  0  0  0  2  0  0  0  0  0  0
  -31.2380  -14.6670   19.8840 C   0  0  0  0  0  0  0  0  0  0  0  0
  -30.9070  -12.3920   18.9750 C   0  0  0  0  0  2  0  0  0  0  0  0
  -29.9370  -12.4630   17.7770 C   0  0  0  0  0  2  0  0  0  0  0  0
  -28.4700  -12.3910   18.2500 C   0  0  0  0  0  2  0  0  0  0  0  0
  -28.1700  -13.3600   19.4260 C   0  0  0  0  0  3  0  0  0  0  0  0
  -29.2490  -13.2540   20.5240 C   0  0  0  0  0  2  0  0  0  0  0  0
  -30.5550  -13.4890   19.8880 N   0  0  0  0  0  0  0  0  0  0  0  0
  -32.3830  -14.7650   19.4360 O   0  0  0  0  0  0  0  0  0  0  0  0
  -30.5370  -15.7550   20.2740 N   0  0  0  0  0  0  0  0  0  0  0  0
  -29.5860  -15.5890   20.5680 H   0  0  0  0  0  0  0  0  0  0  0  0
  -25.8430  -14.0810   20.2590 C   0  0  0  0  0  0  0  0  0  0  0  0
  -24.7520  -13.3610   20.6670 C   0  0  0  0  0  0  0  0  0  0  0  0
  -25.1380  -11.9870   20.5980 C   0  0  0  0  0  0  0  0  0  0  0  0
  -26.8280  -13.1490   19.9680 N   0  0  0  0  0  0  0  0  0  0  0  0
  -26.4080  -11.8840   20.2280 N   0  0  0  0  0  0  0  0  0  0  0  0
  -24.3550  -10.7620   20.8040 C   0  0  0  0  0  0  0  0  0  0  0  0
  -24.7320   -9.7960   21.7630 C   0  0  0  0  0  3  0  0  0  0  0  0
  -23.9520   -8.6360   21.9570 C   0  0  0  0  0  3  0  0  0  0  0  0
  -22.7780   -8.4350   21.1910 C   0  0  0  0  0  0  0  0  0  0  0  0
  -22.4200   -9.3880   20.2220 C   0  0  0  0  0  3  0  0  0  0  0  0
  -23.2010  -10.5380   20.0270 C   0  0  0  0  0  3  0  0  0  0  0  0
  -21.9730   -7.3260   21.2920 O   0  0  0  0  0  0  0  0  0  0  0  0
  -21.8130   -6.6590   22.4790 C   0  0  0  0  0  0  0  0  0  0  0  0
  -21.2970   -7.2950   23.6290 C   0  0  0  0  0  3  0  0  0  0  0  0
  -21.0820   -6.5530   24.8070 C   0  0  0  0  0  3  0  0  0  0  0  0
  -21.3740   -5.1760   24.8370 C   0  0  0  0  0  0  0  0  0  0  0  0
  -21.8840   -4.5400   23.6910 C   0  0  0  0  0  3  0  0  0  0  0  0
  -22.0980   -5.2780   22.5150 C   0  0  0  0  0  0  0  0  0  0  0  0
  -22.5690   -4.6560   21.4080 F   0  0  0  0  0  0  0  0  0  0  0  0
  -21.1620   -4.4610   25.9670 F   0  0  0  0  0  0  0  0  0  0  0  0
  -23.3960  -13.9090   21.0070 C   0  0  0  0  0  0  0  0  0  0  0  0
  -22.6750  -13.2500   21.9080 N   0  0  0  0  0  0  0  0  0  0  0  0
  -22.9860  -14.9570   20.5080 O   0  0  0  0  0  0  0  0  0  0  0  0
  -23.0210  -12.4050   22.3370 H   0  0  0  0  0  0  0  0  0  0  0  0
  -21.7650  -13.5970   22.1750 H   0  0  0  0  0  0  0  0  0  0  0  0
  -26.0730  -15.4430   20.0920 N   0  0  0  0  0  0  0  0  0  0  0  0
  -25.3440  -16.1320   20.2460 H   0  0  0  0  0  0  0  0  0  0  0  0
  -26.9240  -15.8420   19.7170 H   0  0  0  0  0  0  0  0  0  0  0  0
  -28.3380  -24.3090   20.4650 C   0  0  0  0  0  2  0  0  0  0  0  0
  -28.6970  -25.5130   19.5380 C   0  0  0  0  0  2  0  0  0  0  0  0
  -28.5810  -26.8320   20.1240 O   0  0  0  0  0  0  0  0  0  0  0  0
  -24.7100  -31.9460   23.2490 C   0  0  0  0  0  0  0  0  0  0  0  0
  -27.3850  -27.5340   20.1100 C   0  0  0  0  0  0  0  0  0  0  0  0
  -23.5100  -30.5370   21.6090 C   0  0  0  0  0  3  0  0  0  0  0  0
  -24.9710  -29.0310   20.1560 C   0  0  0  0  0  0  0  0  0  0  0  0
  -26.0330  -30.9250   21.3960 C   0  0  0  0  0  2  0  0  0  0  0  0
  -26.1280  -29.5600   20.7380 C   0  0  0  0  0  0  0  0  0  0  0  0
  -27.3350  -28.8190   20.7120 C   0  0  0  0  0  3  0  0  0  0  0  0
  -26.2030  -27.0250   19.5270 C   0  0  0  0  0  3  0  0  0  0  0  0
  -25.0050  -27.7640   19.5480 C   0  0  0  0  0  3  0  0  0  0  0  0
  -23.7150  -29.8710   20.2230 C   0  0  0  0  0  2  0  0  0  0  0  0
  -24.7700  -31.1540   22.1410 N   0  0  0  0  0  0  0  0  0  0  0  0
  -23.6300  -32.1990   23.8000 O   0  0  0  0  0  0  0  0  0  0  0  0
  -22.8850  -29.4990   22.5690 C   0  0  0  0  0  0  0  0  0  0  0  0
  -21.5690  -29.2700   22.4300 N   0  0  0  0  0  0  0  0  0  0  0  0
  -23.5820  -28.9020   23.3950 O   0  0  0  0  0  0  0  0  0  0  0  0
  -21.0670  -29.8050   21.7350 H   0  0  0  0  0  0  0  0  0  0  0  0
  -18.2420  -27.9300   22.8690 C   0  0  0  0  0  0  0  0  0  0  0  0
  -20.7780  -28.3080   23.1960 C   0  0  0  0  0  3  0  0  0  0  0  0
  -20.9590  -26.8740   22.6430 C   0  0  0  0  0  2  0  0  0  0  0  0
  -19.8960  -26.4880   21.6090 C   0  0  0  0  0  2  0  0  0  0  0  0
  -18.4940  -26.5800   22.2190 C   0  0  0  0  0  2  0  0  0  0  0  0
  -19.3150  -28.7490   23.3130 C   0  0  0  0  0  0  0  0  0  0  0  0
  -19.0260  -30.0100   23.8770 C   0  0  0  0  0  3  0  0  0  0  0  0
  -17.6970  -30.4550   24.0040 C   0  0  0  0  0  3  0  0  0  0  0  0
  -16.6380  -29.6330   23.5800 C   0  0  0  0  0  3  0  0  0  0  0  0
  -16.9110  -28.3740   23.0170 C   0  0  0  0  0  3  0  0  0  0  0  0
  -25.9920  -32.5940   23.8590 C   0  0  0  0  0  3  0  0  0  0  0  0
  -26.5330  -31.8290   25.1300 C   0  0  1  0  0  0  0  0  0  0  0  0
  -25.4510  -31.5610   26.2010 C   0  0  0  0  0  1  0  0  0  0  0  0
  -27.1460  -30.4660   24.7290 C   0  0  0  0  0  1  0  0  0  0  0  0
  -27.6650  -32.6480   25.7920 C   0  0  0  0  0  1  0  0  0  0  0  0
  -25.6660  -33.9870   24.1950 N   0  0  0  0  0  0  0  0  0  0  0  0
  -25.9730  -35.0460   23.4330 C   0  0  0  0  0  0  0  0  0  0  0  0
  -26.6320  -34.9550   22.3950 O   0  0  0  0  0  0  0  0  0  0  0  0
  -25.0800  -34.1310   25.0040 H   0  0  0  0  0  0  0  0  0  0  0  0
  -24.2150  -36.8130   23.0990 C   0  0  0  0  0  1  0  0  0  0  0  0
  -25.4690  -36.4250   23.8980 C   0  0  0  0  0  3  0  0  0  0  0  0
  -27.5930  -37.3430   24.7200 C   0  0  0  0  0  1  0  0  0  0  0  0
  -26.4840  -37.4940   23.7810 N   0  0  0  0  0  0  0  0  0  0  0  0
  -26.0640  -38.4070   23.9300 H   0  0  0  0  0  0  0  0  0  0  0  0
  1  2  2  0
  2  4  1  0
  2  5  1  0
  3  1  1  0
  3 54  1  0
  6  3  1  0
  7  9  1  0
  8  7  2  0
  8 12  1  0
  9  1  1  0
  9 10  2  0
 10 13  1  0
 11 10  1  0
 11 15  1  0
 12 11  2  0
 14 12  1  0
 16 22  1  0
 16 24  1  0
 17 22  1  0
 18 19  1  0
 18 17  1  0
 20 19  1  0
 20 29  1  0
 20 21  1  0
 22 21  1  0
 23 16  2  0
 24 15  1  0
 24 25  1  0
 26 27  2  0
 27 46  1  0
 28 27  1  0
 28 31  1  0
 29 30  1  0
 29 26  1  0
 30 28  2  0
 31 32  1  0
 32 33  2  0
 34 37  1  0
 34 33  1  0
 35 34  2  0
 36 35  1  0
 36 31  2  0
 37 38  1  0
 38 43  2  0
 38 39  1  0
 39 40  2  0
 40 41  1  0
 41 45  1  0
 42 41  2  0
 43 42  1  0
 44 43  1  0
 46 47  1  0
 47 50  1  0
 47 49  1  0
 48 46  2  0
 51 52  1  0
 51 26  1  0
 53 51  1  0
 55 56  1  0
 55 54  1  0
 57 68  2  0
 58 56  1  0
 58 63  1  0
 59 67  1  0
 59 69  1  0
 60 66  1  0
 60 62  1  0
 61 67  1  0
 62 61  1  0
 63 62  2  0
 64 65  1  0
 64 58  2  0
 65 60  2  0
 66 59  1  0
 67 57  1  0
 69 71  2  0
 70 69  1  0
 72 70  1  0
 73 82  2  0
 73 78  1  0
 74 70  1  0
 74 78  1  0
 75 74  1  0
 76 77  1  0
 76 75  1  0
 77 73  1  0
 78 79  2  0
 79 80  1  0
 81 80  2  0
 82 81  1  0
 83 57  1  0
 83 88  1  0
 83 84  1  0
 84 87  1  1
 84 85  1  0
 86 84  1  0
 88 91  1  0
 89 93  1  0
 89 88  1  0
 90 89  2  0
 93 92  1  0
 95 93  1  0
 95 96  1  0
 95 94  1  0
M  ISO  4  16 100  24 100  55 101  56 101
M  END
>  <TORSDO>  (7) 
F 20

>  <SCORE>  (7) 
-13.102

>  <name>  (7) 
6

>  <ligand_id>  (7) 
6

>  <original_smiles>  (7) 
[H]c1c([H])c([H])c2c(c1[H])C([H])([H])C([H])([H])C([H])([H])C2([H])N([H])C(=O)C1([H])N(C(=O)C([H])(N([H])C(=O)C([H])(N([H])C([H])([H])[H])C([H])([H])[H])C(C([H])([H])[H])(C([H])([H])[H])C([H])([H])[H])C([H])([H])c2c([H])c(OC([H])([H])C([H])([H])[N+]([H])=C(c3c([H])c([H])c(F)c(C([H])([H])N([H])C(=O)N4C([H])([H])C([H])([H])C([H])([H])C([H])(n5nc(-c6c([H])c([H])c(Oc7c([H])c([H])c(F)c([H])c7F)c([H])c6[H])c(C(=O)N([H])[H])c5N([H])[H])C4([H])[H])c3C([H])([H])[H])N([H])[H])c([H])c([H])c2C1([H])[H]

>  <smiles>  (7) 
[H]c1c([H])c([H])c2c(c1[H])C([H])([H])C([H])([H])C([H])([H])C2([H])N([H])C(=O)C1([H])N(C(=O)C([H])(N([H])C(=O)C([H])(N([H])C([H])([H])[H])C([H])([H])[H])C(C([H])([H])[H])(C([H])([H])[H])C([H])([H])[H])C([H])([H])c2c([H])c(OC([H])([H])C([H])([H])[N+]([H])=C(c3c([H])c([H])c(F)c(C([H])([H])N([H])C(=O)N4C([H])([H])C([H])([H])C([H])([H])C([H])(n5nc(-c6c([H])c([H])c(Oc7c([H])c([H])c(F)c([H])c7F)c([H])c6[H])c(C(=O)N([H])[H])c5N([H])[H])C4([H])[H])c3C([H])([H])[H])N([H])[H])c([H])c([H])c2C1([H])[H]

$$$$
7:0:0
     RDKit          3D

 97105  0  0  1  0  0  0  0  0999 V2000
  -28.8830  -20.6270   20.6690 C   0  0  0  0  0  0  0  0  0  0  0  0
  -27.7600  -20.4780   21.3700 N   0  0  0  0  0  4  0  0  0  0  0  0
  -29.1590  -21.8440   20.1530 N   0  0  0  0  0  0  0  0  0  0  0  0
  -27.5980  -19.6190   21.8750 H   0  0  0  0  0  0  0  0  0  0  0  0
  -27.0050  -21.1390   21.2970 H   0  0  0  0  0  0  0  0  0  0  0  0
  -29.9350  -21.9030   19.5040 H   0  0  0  0  0  0  0  0  0  0  0  0
  -31.1930  -19.8290   20.7740 C   0  0  0  0  0  3  0  0  0  0  0  0
  -31.7950  -17.4760   20.7720 C   0  0  0  0  0  3  0  0  0  0  0  0
  -29.8320  -19.5010   20.5770 C   0  0  0  0  0  0  0  0  0  0  0  0
  -29.4570  -18.1250   20.4210 C   0  0  0  0  0  0  0  0  0  0  0  0
  -30.4470  -17.1030   20.5440 C   0  0  0  0  0  0  0  0  0  0  0  0
  -32.1690  -18.8260   20.8620 C   0  0  0  0  0  0  0  0  0  0  0  0
  -28.0170  -17.7210   20.1100 C   0  0  0  0  0  1  0  0  0  0  0  0
  -33.8200  -19.2530   21.1330 Cl  0  0  0  0  0  0  0  0  0  0  0  0
  -30.7800  -14.6660   20.0440 C   0  0  0  0  0  0  0  0  0  0  0  0
  -30.4420  -12.4830   18.9640 C   0  0  0  0  0  2  0  0  0  0  0  0
  -29.4520  -12.6690   17.7970 C   0  0  0  0  0  2  0  0  0  0  0  0
  -27.9970  -12.5280   18.2940 C   0  0  0  0  0  2  0  0  0  0  0  0
  -27.7050  -13.3760   19.5620 C   0  0  0  0  0  3  0  0  0  0  0  0
  -28.8140  -13.1870   20.6200 C   0  0  0  0  0  2  0  0  0  0  0  0
  -30.1070  -13.4880   19.9810 N   0  0  0  0  0  0  0  0  0  0  0  0
  -31.8980  -14.8140   19.5410 O   0  0  0  0  0  0  0  0  0  0  0  0
  -30.0670  -15.7150   20.5060 N   0  0  0  0  0  0  0  0  0  0  0  0
  -29.1150  -15.5000   20.7510 H   0  0  0  0  0  0  0  0  0  0  0  0
  -25.3630  -13.9780   20.4450 C   0  0  0  0  0  0  0  0  0  0  0  0
  -24.3140  -13.2040   20.8600 C   0  0  0  0  0  0  0  0  0  0  0  0
  -24.7630  -11.8510   20.7610 C   0  0  0  0  0  0  0  0  0  0  0  0
  -26.3820  -13.0980   20.1160 N   0  0  0  0  0  0  0  0  0  0  0  0
  -26.0290  -11.8130   20.3690 N   0  0  0  0  0  0  0  0  0  0  0  0
  -24.0440  -10.5870   20.9590 C   0  0  0  0  0  0  0  0  0  0  0  0
  -24.4930   -9.6160   21.8810 C   0  0  0  0  0  3  0  0  0  0  0  0
  -23.7720   -8.4180   22.0700 C   0  0  0  0  0  3  0  0  0  0  0  0
  -22.5860   -8.1810   21.3340 C   0  0  0  0  0  0  0  0  0  0  0  0
  -22.1530   -9.1410   20.4010 C   0  0  0  0  0  3  0  0  0  0  0  0
  -22.8760  -10.3320   20.2120 C   0  0  0  0  0  3  0  0  0  0  0  0
  -21.8350   -7.0360   21.4300 O   0  0  0  0  0  0  0  0  0  0  0  0
  -21.7690   -6.3140   22.5930 C   0  0  0  0  0  0  0  0  0  0  0  0
  -21.2970   -6.8810   23.7970 C   0  0  0  0  0  3  0  0  0  0  0  0
  -21.1820   -6.0850   24.9550 C   0  0  0  0  0  3  0  0  0  0  0  0
  -21.5300   -4.7210   24.9080 C   0  0  0  0  0  0  0  0  0  0  0  0
  -21.9920   -4.1530   23.7080 C   0  0  0  0  0  3  0  0  0  0  0  0
  -22.1110   -4.9470   22.5540 C   0  0  0  0  0  0  0  0  0  0  0  0
  -22.5410   -4.3890   21.3970 F   0  0  0  0  0  0  0  0  0  0  0  0
  -21.4070   -3.9540   26.0180 F   0  0  0  0  0  0  0  0  0  0  0  0
  -22.9370  -13.6860   21.2270 C   0  0  0  0  0  0  0  0  0  0  0  0
  -22.2520  -12.9700   22.1100 N   0  0  0  0  0  0  0  0  0  0  0  0
  -22.4860  -14.7330   20.7640 O   0  0  0  0  0  0  0  0  0  0  0  0
  -22.6330  -12.1280   22.5150 H   0  0  0  0  0  0  0  0  0  0  0  0
  -21.3330  -13.2780   22.3960 H   0  0  0  0  0  0  0  0  0  0  0  0
  -25.5200  -15.3530   20.2900 N   0  0  0  0  0  0  0  0  0  0  0  0
  -24.7480  -15.9890   20.4580 H   0  0  0  0  0  0  0  0  0  0  0  0
  -26.2910  -15.7860   19.8000 H   0  0  0  0  0  0  0  0  0  0  0  0
  -28.6620  -23.1230   20.7230 C   0  0  0  0  0  2  0  0  0  0  0  0
  -30.2420  -24.6010   19.3320 C   0  0  0  0  0  1  0  0  0  0  0  0
  -28.8050  -24.3940   19.8430 C   0  0  0  0  0  3  0  0  0  0  0  0
  -28.3450  -25.5950   20.7110 C   0  0  0  0  0  2  0  0  0  0  0  0
  -28.4430  -26.8890   20.0930 O   0  0  0  0  0  0  0  0  0  0  0  0
  -24.6250  -31.9970   23.2960 C   0  0  0  0  0  0  0  0  0  0  0  0
  -27.2810  -27.6250   20.1290 C   0  0  0  0  0  0  0  0  0  0  0  0
  -23.4170  -30.5980   21.6530 C   0  0  0  0  0  3  0  0  0  0  0  0
  -24.8720  -29.0930   20.1950 C   0  0  0  0  0  0  0  0  0  0  0  0
  -25.9350  -30.9920   21.4290 C   0  0  0  0  0  2  0  0  0  0  0  0
  -26.0310  -29.6270   20.7770 C   0  0  0  0  0  0  0  0  0  0  0  0
  -27.2400  -28.8980   20.7430 C   0  0  0  0  0  3  0  0  0  0  0  0
  -26.1090  -27.1040   19.5470 C   0  0  0  0  0  3  0  0  0  0  0  0
  -24.9050  -27.8310   19.5760 C   0  0  0  0  0  3  0  0  0  0  0  0
  -23.6190  -29.9360   20.2640 C   0  0  0  0  0  2  0  0  0  0  0  0
  -24.6790  -31.2100   22.1840 N   0  0  0  0  0  0  0  0  0  0  0  0
  -23.5480  -32.2510   23.8510 O   0  0  0  0  0  0  0  0  0  0  0  0
  -22.7940  -29.5580   22.6120 C   0  0  0  0  0  0  0  0  0  0  0  0
  -21.4730  -29.3450   22.4820 N   0  0  0  0  0  0  0  0  0  0  0  0
  -23.4900  -28.9530   23.4300 O   0  0  0  0  0  0  0  0  0  0  0  0
  -20.9710  -29.8940   21.7970 H   0  0  0  0  0  0  0  0  0  0  0  0
  -18.1370  -28.0340   22.9340 C   0  0  0  0  0  0  0  0  0  0  0  0
  -20.6800  -28.3810   23.2430 C   0  0  0  0  0  3  0  0  0  0  0  0
  -20.8390  -26.9510   22.6740 C   0  0  0  0  0  2  0  0  0  0  0  0
  -19.7640  -26.5840   21.6450 C   0  0  0  0  0  2  0  0  0  0  0  0
  -18.3700  -26.6870   22.2700 C   0  0  0  0  0  2  0  0  0  0  0  0
  -19.2230  -28.8350   23.3750 C   0  0  0  0  0  0  0  0  0  0  0  0
  -18.9530  -30.0950   23.9540 C   0  0  0  0  0  3  0  0  0  0  0  0
  -17.6300  -30.5530   24.0970 C   0  0  0  0  0  3  0  0  0  0  0  0
  -16.5580  -29.7510   23.6700 C   0  0  0  0  0  3  0  0  0  0  0  0
  -16.8130  -28.4920   23.0930 C   0  0  0  0  0  3  0  0  0  0  0  0
  -25.9130  -32.6350   23.9060 C   0  0  0  0  0  3  0  0  0  0  0  0
  -26.4340  -31.8770   25.1880 C   0  0  1  0  0  0  0  0  0  0  0  0
  -25.3430  -31.6380   26.2560 C   0  0  0  0  0  1  0  0  0  0  0  0
  -27.0280  -30.5020   24.8050 C   0  0  0  0  0  1  0  0  0  0  0  0
  -27.5770  -32.6860   25.8490 C   0  0  0  0  0  1  0  0  0  0  0  0
  -25.6050  -34.0380   24.2190 N   0  0  0  0  0  0  0  0  0  0  0  0
  -25.9330  -35.0790   23.4430 C   0  0  0  0  0  0  0  0  0  0  0  0
  -26.6000  -34.9620   22.4110 O   0  0  0  0  0  0  0  0  0  0  0  0
  -25.0180  -34.2000   25.0220 H   0  0  0  0  0  0  0  0  0  0  0  0
  -24.2030  -36.8630   23.0590 C   0  0  0  0  0  1  0  0  0  0  0  0
  -25.4430  -36.4720   23.8790 C   0  0  0  0  0  3  0  0  0  0  0  0
  -27.5730  -37.3720   24.7080 C   0  0  0  0  0  1  0  0  0  0  0  0
  -26.4750  -37.5240   23.7560 N   0  0  0  0  0  0  0  0  0  0  0  0
  -26.0640  -38.4450   23.8890 H   0  0  0  0  0  0  0  0  0  0  0  0
  1  2  2  0
  2  4  1  0
  3  1  1  0
  3 53  1  0
  5  2  1  0
  6  3  1  0
  7 12  1  0
  8 12  2  0
  9  1  1  0
  9  7  2  0
 10 11  2  0
 10  9  1  0
 11  8  1  0
 12 14  1  0
 13 10  1  0
 15 23  1  0
 16 21  1  0
 17 18  1  0
 17 16  1  0
 19 18  1  0
 19 28  1  0
 19 20  1  0
 21 15  1  0
 21 20  1  0
 22 15  2  0
 23 11  1  0
 23 24  1  0
 25 26  2  0
 26 45  1  0
 27 26  1  0
 27 30  1  0
 28 29  1  0
 28 25  1  0
 29 27  2  0
 30 31  1  0
 31 32  2  0
 33 36  1  0
 33 32  1  0
 34 33  2  0
 35 34  1  0
 35 30  2  0
 36 37  1  0
 37 38  1  0
 38 39  2  0
 40 39  1  0
 40 44  1  0
 41 40  2  0
 42 37  2  0
 42 41  1  0
 43 42  1  0
 45 46  1  0
 46 49  1  0
 46 48  1  0
 47 45  2  0
 50 25  1  0
 50 51  1  0
 52 50  1  0
 55 54  1  0
 55 56  1  0
 55 53  1  0
 57 59  1  0
 57 56  1  0
 58 69  2  0
 59 64  1  0
 60 68  1  0
 60 70  1  0
 61 67  1  0
 61 63  1  0
 62 68  1  0
 63 62  1  0
 64 63  2  0
 65 66  1  0
 65 59  2  0
 66 61  2  0
 67 60  1  0
 68 58  1  0
 70 72  2  0
 71 70  1  0
 73 71  1  0
 74 83  2  0
 74 79  1  0
 75 71  1  0
 75 79  1  0
 76 75  1  0
 77 78  1  0
 77 76  1  0
 78 74  1  0
 79 80  2  0
 80 81  1  0
 82 81  2  0
 83 82  1  0
 84 58  1  0
 84 89  1  0
 84 85  1  0
 85 88  1  1
 85 86  1  0
 87 85  1  0
 89 92  1  0
 90 94  1  0
 90 89  1  0
 91 90  2  0
 94 93  1  0
 96 94  1  0
 96 97  1  0
 96 95  1  0
M  ISO  4  15 100  23 100  56 101  57 101
M  END
>  <TORSDO>  (8) 
F 20

>  <SCORE>  (8) 
-13.940

>  <name>  (8) 
7

>  <ligand_id>  (8) 
7

>  <original_smiles>  (8) 
[H]c1c([H])c([H])c2c(c1[H])C([H])([H])C([H])([H])C([H])([H])C2([H])N([H])C(=O)C1([H])N(C(=O)C([H])(N([H])C(=O)C([H])(N([H])C([H])([H])[H])C([H])([H])[H])C(C([H])([H])[H])(C([H])([H])[H])C([H])([H])[H])C([H])([H])c2c([H])c(OC([H])([H])C([H])(C([H])([H])[H])C([H])([H])[N+]([H])=C(c3c([H])c(Cl)c([H])c(N([H])C(=O)N4C([H])([H])C([H])([H])C([H])([H])C([H])(n5nc(-c6c([H])c([H])c(Oc7c([H])c([H])c(F)c([H])c7F)c([H])c6[H])c(C(=O)N([H])[H])c5N([H])[H])C4([H])[H])c3C([H])([H])[H])N([H])[H])c([H])c([H])c2C1([H])[H]

>  <smiles>  (8) 
[H]c1c([H])c([H])c2c(c1[H])C([H])([H])C([H])([H])C([H])([H])C2([H])N([H])C(=O)C1([H])N(C(=O)C([H])(N([H])C(=O)C([H])(N([H])C([H])([H])[H])C([H])([H])[H])C(C([H])([H])[H])(C([H])([H])[H])C([H])([H])[H])C([H])([H])c2c([H])c(OC([H])([H])C([H])(C([H])([H])[H])C([H])([H])[N+]([H])=C(c3c([H])c(Cl)c([H])c(N([H])C(=O)N4C([H])([H])C([H])([H])C([H])([H])C([H])(n5nc(-c6c([H])c([H])c(Oc7c([H])c([H])c(F)c([H])c7F)c([H])c6[H])c(C(=O)N([H])[H])c5N([H])[H])C4([H])[H])c3C([H])([H])[H])N([H])[H])c([H])c([H])c2C1([H])[H]

$$$$
8:0:0
     RDKit          3D

 94102  0  0  1  0  0  0  0  0999 V2000
  -29.9630  -21.4240   20.7140 C   0  0  0  0  0  2  0  0  0  0  0  0
  -28.6920  -20.8050   18.6760 C   0  0  0  0  0  3  0  0  0  0  0  0
  -28.1610  -20.0500   17.6310 C   0  0  0  0  0  3  0  0  0  0  0  0
  -29.1990  -18.0850   18.5640 C   0  0  0  0  0  3  0  0  0  0  0  0
  -29.5120  -20.2670   19.7030 C   0  0  0  0  0  0  0  0  0  0  0  0
  -29.7660  -18.7920   19.6580 C   0  0  0  0  0  0  0  0  0  0  0  0
  -28.4080  -18.6820   17.5760 C   0  0  0  0  0  0  0  0  0  0  0  0
  -27.7450  -17.7280   16.3050 Cl  0  0  0  0  0  0  0  0  0  0  0  0
  -30.5980  -17.8020   20.6000 C   0  0  0  0  0  2  0  0  0  0  0  0
  -30.9810  -15.1320   20.3110 C   0  0  0  0  0  0  0  0  0  0  0  0
  -30.7010  -12.8990   19.1990 C   0  0  0  0  0  2  0  0  0  0  0  0
  -29.7590  -13.0460   17.9860 C   0  0  0  0  0  2  0  0  0  0  0  0
  -28.2850  -12.8800   18.4170 C   0  0  0  0  0  2  0  0  0  0  0  0
  -27.9390  -13.7140   19.6780 C   0  0  0  0  0  3  0  0  0  0  0  0
  -29.0120  -13.5730   20.7810 C   0  0  0  0  0  2  0  0  0  0  0  0
  -30.3110  -13.9300   20.1920 N   0  0  0  0  0  0  0  0  0  0  0  0
  -32.1660  -15.2030   19.9820 O   0  0  0  0  0  0  0  0  0  0  0  0
  -30.2510  -16.2860   20.6020 N   0  0  0  0  0  0  0  0  0  0  0  0
  -29.2820  -16.0930   20.8070 H   0  0  0  0  0  0  0  0  0  0  0  0
  -25.5780  -14.3120   20.4710 C   0  0  0  0  0  0  0  0  0  0  0  0
  -24.5000  -13.5440   20.8180 C   0  0  0  0  0  0  0  0  0  0  0  0
  -24.9350  -12.1880   20.7200 C   0  0  0  0  0  0  0  0  0  0  0  0
  -26.5980  -13.4240   20.1770 N   0  0  0  0  0  0  0  0  0  0  0  0
  -26.2200  -12.1390   20.3940 N   0  0  0  0  0  0  0  0  0  0  0  0
  -24.1810  -10.9340   20.8590 C   0  0  0  0  0  0  0  0  0  0  0  0
  -24.5690   -9.9410   21.7860 C   0  0  0  0  0  3  0  0  0  0  0  0
  -23.8170   -8.7530   21.9210 C   0  0  0  0  0  3  0  0  0  0  0  0
  -22.6630   -8.5530   21.1260 C   0  0  0  0  0  0  0  0  0  0  0  0
  -22.2930   -9.5340   20.1890 C   0  0  0  0  0  3  0  0  0  0  0  0
  -23.0440  -10.7130   20.0540 C   0  0  0  0  0  3  0  0  0  0  0  0
  -21.8880   -7.4180   21.1690 O   0  0  0  0  0  0  0  0  0  0  0  0
  -21.7630   -6.6710   22.3150 C   0  0  0  0  0  0  0  0  0  0  0  0
  -21.2430   -7.2160   23.5090 C   0  0  0  0  0  3  0  0  0  0  0  0
  -21.0690   -6.3980   24.6420 C   0  0  0  0  0  3  0  0  0  0  0  0
  -21.4040   -5.0310   24.5800 C   0  0  0  0  0  0  0  0  0  0  0  0
  -21.9140   -4.4840   23.3900 C   0  0  0  0  0  3  0  0  0  0  0  0
  -22.0910   -5.3020   22.2610 C   0  0  0  0  0  0  0  0  0  0  0  0
  -22.5640   -4.7650   21.1100 F   0  0  0  0  0  0  0  0  0  0  0  0
  -21.2300   -4.2410   25.6650 F   0  0  0  0  0  0  0  0  0  0  0  0
  -23.1160  -14.0380   21.1260 C   0  0  0  0  0  0  0  0  0  0  0  0
  -22.3840  -13.3240   21.9750 N   0  0  0  0  0  0  0  0  0  0  0  0
  -22.6950  -15.0910   20.6520 O   0  0  0  0  0  0  0  0  0  0  0  0
  -22.7350  -12.4710   22.3830 H   0  0  0  0  0  0  0  0  0  0  0  0
  -21.4560  -13.6390   22.2180 H   0  0  0  0  0  0  0  0  0  0  0  0
  -25.7640  -15.6860   20.3570 N   0  0  0  0  0  0  0  0  0  0  0  0
  -24.9980  -16.3360   20.4990 H   0  0  0  0  0  0  0  0  0  0  0  0
  -26.5940  -16.1290   19.9860 H   0  0  0  0  0  0  0  0  0  0  0  0
  -29.1390  -23.9760   20.7700 C   0  0  0  0  0  0  0  0  0  0  0  0
  -29.9220  -22.9210   20.2560 N   0  0  0  0  0  0  0  0  0  0  0  0
  -28.6560  -23.8670   21.9000 O   0  0  0  0  0  0  0  0  0  0  0  0
  -32.3620  -22.9360   19.6210 C   0  0  0  0  0  1  0  0  0  0  0  0
  -30.9130  -23.2200   19.1970 C   0  0  0  0  0  2  0  0  0  0  0  0
  -28.6640  -25.2760   19.9090 C   0  0  0  0  0  2  0  0  0  0  0  0
  -28.5920  -26.6470   20.5550 O   0  0  0  0  0  0  0  0  0  0  0  0
  -24.6040  -32.0560   23.3580 C   0  0  0  0  0  0  0  0  0  0  0  0
  -27.4630  -27.5080   20.4160 C   0  0  0  0  0  0  0  0  0  0  0  0
  -23.5000  -30.6140   21.6870 C   0  0  0  0  0  3  0  0  0  0  0  0
  -25.0510  -29.0990   20.3110 C   0  0  0  0  0  0  0  0  0  0  0  0
  -26.0410  -30.9870   21.6010 C   0  0  0  0  0  2  0  0  0  0  0  0
  -26.1810  -29.6040   20.9620 C   0  0  0  0  0  0  0  0  0  0  0  0
  -27.3820  -28.8180   21.0110 C   0  0  0  0  0  3  0  0  0  0  0  0
  -26.3090  -27.1000   19.7000 C   0  0  0  0  0  3  0  0  0  0  0  0
  -25.1220  -27.8550   19.6690 C   0  0  0  0  0  3  0  0  0  0  0  0
  -23.7870  -29.9450   20.3150 C   0  0  0  0  0  2  0  0  0  0  0  0
  -24.7320  -31.2400   22.2710 N   0  0  0  0  0  0  0  0  0  0  0  0
  -23.4920  -32.3050   23.8480 O   0  0  0  0  0  0  0  0  0  0  0  0
  -22.8310  -29.5840   22.6280 C   0  0  0  0  0  0  0  0  0  0  0  0
  -21.5140  -29.3760   22.4630 N   0  0  0  0  0  0  0  0  0  0  0  0
  -23.5000  -28.9790   23.4690 O   0  0  0  0  0  0  0  0  0  0  0  0
  -21.0300  -29.9230   21.7630 H   0  0  0  0  0  0  0  0  0  0  0  0
  -18.1410  -28.1420   22.9200 C   0  0  0  0  0  0  0  0  0  0  0  0
  -20.6970  -28.4220   23.2130 C   0  0  0  0  0  3  0  0  0  0  0  0
  -20.8150  -26.9990   22.6200 C   0  0  0  0  0  2  0  0  0  0  0  0
  -19.7250  -26.6800   21.5920 C   0  0  0  0  0  2  0  0  0  0  0  0
  -18.3360  -26.8040   22.2260 C   0  0  0  0  0  2  0  0  0  0  0  0
  -19.2500  -28.9070   23.3710 C   0  0  0  0  0  0  0  0  0  0  0  0
  -19.0150  -30.1600   23.9800 C   0  0  0  0  0  3  0  0  0  0  0  0
  -17.7040  -30.6450   24.1430 C   0  0  0  0  0  3  0  0  0  0  0  0
  -16.6100  -29.8770   23.7090 C   0  0  0  0  0  3  0  0  0  0  0  0
  -16.8290  -28.6270   23.1030 C   0  0  0  0  0  3  0  0  0  0  0  0
  -25.8420  -32.7340   24.0180 C   0  0  0  0  0  3  0  0  0  0  0  0
  -25.4940  -34.1380   24.2790 N   0  0  0  0  0  0  0  0  0  0  0  0
  -25.8400  -35.1690   23.4960 C   0  0  0  0  0  0  0  0  0  0  0  0
  -26.5510  -35.0390   22.4970 O   0  0  0  0  0  0  0  0  0  0  0  0
  -24.8660  -34.3100   25.0500 H   0  0  0  0  0  0  0  0  0  0  0  0
  -24.0860  -36.9110   23.0240 C   0  0  0  0  0  1  0  0  0  0  0  0
  -25.3130  -36.5640   23.8830 C   0  0  0  0  0  3  0  0  0  0  0  0
  -27.4000  -37.5340   24.7400 C   0  0  0  0  0  1  0  0  0  0  0  0
  -26.3270  -37.6340   23.7540 N   0  0  0  0  0  0  0  0  0  0  0  0
  -25.8970  -38.5510   23.8440 H   0  0  0  0  0  0  0  0  0  0  0  0
  -26.3020  -32.0210   25.3510 C   0  0  1  0  0  0  0  0  0  0  0  0
  -25.1510  -31.7730   26.3520 C   0  0  0  0  0  1  0  0  0  0  0  0
  -26.9600  -30.6550   25.0430 C   0  0  0  0  0  1  0  0  0  0  0  0
  -27.3730  -32.8800   26.0610 C   0  0  0  0  0  1  0  0  0  0  0  0
  2  5  1  0
  3  2  2  0
  4  6  1  0
  5  1  1  0
  6  5  2  0
  6  9  1  0
  7  3  1  0
  7  4  2  0
  8  7  1  0
  9 18  1  0
 10 18  1  0
 11 16  1  0
 12 13  1  0
 12 11  1  0
 14 13  1  0
 14 23  1  0
 14 15  1  0
 16 10  1  0
 16 15  1  0
 17 10  2  0
 18 19  1  0
 20 21  2  0
 21 40  1  0
 22 21  1  0
 22 25  1  0
 23 24  1  0
 23 20  1  0
 24 22  2  0
 25 26  1  0
 26 27  2  0
 28 31  1  0
 28 27  1  0
 29 28  2  0
 30 29  1  0
 30 25  2  0
 31 32  1  0
 32 33  1  0
 33 34  2  0
 35 34  1  0
 35 39  1  0
 36 35  2  0
 37 32  2  0
 37 36  1  0
 38 37  1  0
 40 41  1  0
 41 44  1  0
 41 43  1  0
 42 40  2  0
 45 20  1  0
 45 46  1  0
 47 45  1  0
 48 50  2  0
 49  1  1  0
 49 48  1  0
 52 51  1  0
 52 49  1  0
 53 54  1  0
 53 48  1  0
 55 66  2  0
 56 54  1  0
 56 61  1  0
 57 65  1  0
 57 67  1  0
 58 64  1  0
 58 60  1  0
 59 65  1  0
 60 61  2  0
 60 59  1  0
 62 56  2  0
 63 62  1  0
 63 58  2  0
 64 57  1  0
 65 55  1  0
 67 69  2  0
 68 67  1  0
 70 68  1  0
 71 80  2  0
 71 76  1  0
 72 68  1  0
 72 76  1  0
 73 72  1  0
 74 75  1  0
 74 73  1  0
 75 71  1  0
 76 77  2  0
 77 78  1  0
 79 78  2  0
 80 79  1  0
 81 55  1  0
 81 82  1  0
 81 91  1  0
 82 85  1  0
 83 87  1  0
 83 82  1  0
 84 83  2  0
 87 86  1  0
 89 90  1  0
 89 87  1  0
 89 88  1  0
 91 94  1  1
 91 92  1  0
 93 91  1  0
M  ISO  4  10 100  18 100  53 101  54 101
M  END
>  <TORSDO>  (9) 
F 21

>  <SCORE>  (9) 
-11.841

>  <name>  (9) 
8

>  <ligand_id>  (9) 
8

>  <original_smiles>  (9) 
[H]c1c([H])c([H])c2c(c1[H])C([H])([H])C([H])([H])C([H])([H])C2([H])N([H])C(=O)C1([H])N(C(=O)C([H])(N([H])C(=O)C([H])(N([H])C([H])([H])[H])C([H])([H])[H])C(C([H])([H])[H])(C([H])([H])[H])C([H])([H])[H])C([H])([H])c2c([H])c(OC([H])([H])C(=O)N(C([H])([H])c3c([H])c([H])c(Cl)c([H])c3C([H])([H])N([H])C(=O)N3C([H])([H])C([H])([H])C([H])([H])C([H])(n4nc(-c5c([H])c([H])c(Oc6c([H])c([H])c(F)c([H])c6F)c([H])c5[H])c(C(=O)N([H])[H])c4N([H])[H])C3([H])[H])C([H])([H])C([H])([H])[H])c([H])c([H])c2C1([H])[H]

>  <smiles>  (9) 
[H]c1c([H])c([H])c2c(c1[H])C([H])([H])C([H])([H])C([H])([H])C2([H])N([H])C(=O)C1([H])N(C(=O)C([H])(N([H])C(=O)C([H])(N([H])C([H])([H])[H])C([H])([H])[H])C(C([H])([H])[H])(C([H])([H])[H])C([H])([H])[H])C([H])([H])c2c([H])c(OC([H])([H])C(=O)N(C([H])([H])c3c([H])c([H])c(Cl)c([H])c3C([H])([H])N([H])C(=O)N3C([H])([H])C([H])([H])C([H])([H])C([H])(n4nc(-c5c([H])c([H])c(Oc6c([H])c([H])c(F)c([H])c6F)c([H])c5[H])c(C(=O)N([H])[H])c4N([H])[H])C3([H])[H])C([H])([H])C([H])([H])[H])c([H])c([H])c2C1([H])[H]

$$$$
9:0:0
     RDKit          3D

 94102  0  0  1  0  0  0  0  0999 V2000
  -29.6210  -17.7880   21.7920 C   0  0  0  0  0  3  0  0  0  0  0  0
  -29.6850  -19.1890   21.8970 C   0  0  0  0  0  3  0  0  0  0  0  0
  -29.9840  -17.1370   20.5910 C   0  0  0  0  0  0  0  0  0  0  0  0
  -30.4380  -17.9090   19.4910 C   0  0  0  0  0  0  0  0  0  0  0  0
  -30.4320  -19.3290   19.5660 C   0  0  0  0  0  0  0  0  0  0  0  0
  -30.0720  -19.9680   20.7890 C   0  0  0  0  0  0  0  0  0  0  0  0
  -30.8950  -17.2200   18.2080 C   0  0  0  0  0  1  0  0  0  0  0  0
  -29.9670  -21.6910   20.9570 Cl  0  0  0  0  0  0  0  0  0  0  0  0
  -30.6420  -20.0140   18.3570 N   0  0  0  0  0  0  0  0  0  0  0  0
  -30.5680  -19.4700   17.5050 H   0  0  0  0  0  0  0  0  0  0  0  0
  -30.9170  -21.4310   18.2220 C   0  0  0  0  0  2  0  0  0  0  0  0
  -31.4700  -21.7170   16.8150 C   0  0  0  0  0  2  0  0  0  0  0  0
  -31.3480  -23.1850   16.3770 C   0  0  0  0  0  2  0  0  0  0  0  0
  -29.9010  -23.7150   16.3990 C   0  0  0  0  0  2  0  0  0  0  0  0
  -29.8790  -25.0930   16.7580 O   0  0  0  0  0  0  0  0  0  0  0  0
  -25.9110  -27.8200   21.9650 C   0  0  0  0  0  0  0  0  0  0  0  0
  -28.6530  -25.6320   17.0860 C   0  0  0  0  0  0  0  0  0  0  0  0
  -24.7140  -27.3250   19.8590 C   0  0  0  0  0  3  0  0  0  0  0  0
  -26.1820  -26.7720   17.8480 C   0  0  0  0  0  0  0  0  0  0  0  0
  -27.2070  -27.8930   19.8400 C   0  0  0  0  0  2  0  0  0  0  0  0
  -27.3330  -27.0210   18.6130 C   0  0  0  0  0  0  0  0  0  0  0  0
  -28.5720  -26.4680   18.2220 C   0  0  0  0  0  3  0  0  0  0  0  0
  -27.4830  -25.3970   16.3240 C   0  0  0  0  0  3  0  0  0  0  0  0
  -26.2550  -25.9710   16.6980 C   0  0  0  0  0  3  0  0  0  0  0  0
  -24.8970  -27.4160   18.3210 C   0  0  0  0  0  2  0  0  0  0  0  0
  -25.9630  -27.6600   20.6140 N   0  0  0  0  0  0  0  0  0  0  0  0
  -24.8370  -27.7370   22.5770 O   0  0  0  0  0  0  0  0  0  0  0  0
  -24.1520  -25.9290   20.2030 C   0  0  0  0  0  0  0  0  0  0  0  0
  -22.8540  -25.7270   19.9190 N   0  0  0  0  0  0  0  0  0  0  0  0
  -24.8770  -25.0520   20.6800 O   0  0  0  0  0  0  0  0  0  0  0  0
  -22.3270  -26.5040   19.5360 H   0  0  0  0  0  0  0  0  0  0  0  0
  -19.6260  -24.1570   19.5360 C   0  0  0  0  0  0  0  0  0  0  0  0
  -22.1210  -24.4800   20.1200 C   0  0  0  0  0  3  0  0  0  0  0  0
  -22.4140  -23.4660   18.9900 C   0  0  0  0  0  2  0  0  0  0  0  0
  -21.4030  -23.5360   17.8430 C   0  0  0  0  0  2  0  0  0  0  0  0
  -19.9870  -23.2690   18.3560 C   0  0  0  0  0  2  0  0  0  0  0  0
  -20.6280  -24.7390   20.3510 C   0  0  0  0  0  0  0  0  0  0  0  0
  -20.2420  -25.5820   21.4150 C   0  0  0  0  0  3  0  0  0  0  0  0
  -18.8830  -25.8510   21.6610 C   0  0  0  0  0  3  0  0  0  0  0  0
  -17.8940  -25.2610   20.8570 C   0  0  0  0  0  3  0  0  0  0  0  0
  -18.2670  -24.4110   19.8010 C   0  0  0  0  0  3  0  0  0  0  0  0
  -27.1850  -28.1490   22.8030 C   0  0  0  0  0  3  0  0  0  0  0  0
  -26.7990  -29.1280   23.8300 N   0  0  0  0  0  0  0  0  0  0  0  0
  -27.0230  -30.4460   23.7450 C   0  0  0  0  0  0  0  0  0  0  0  0
  -27.6500  -30.9610   22.8140 O   0  0  0  0  0  0  0  0  0  0  0  0
  -26.2290  -28.7820   24.5880 H   0  0  0  0  0  0  0  0  0  0  0  0
  -25.1590  -31.9920   24.4110 C   0  0  0  0  0  1  0  0  0  0  0  0
  -26.4700  -31.3350   24.8730 C   0  0  0  0  0  3  0  0  0  0  0  0
  -28.5760  -31.8320   26.0310 C   0  0  0  0  0  1  0  0  0  0  0  0
  -27.4220  -32.3750   25.3220 N   0  0  0  0  0  0  0  0  0  0  0  0
  -26.9620  -33.0470   25.9290 H   0  0  0  0  0  0  0  0  0  0  0  0
  -27.8400  -26.8730   23.4630 C   0  0  1  0  0  0  0  0  0  0  0  0
  -26.8380  -26.0100   24.2650 C   0  0  0  0  0  1  0  0  0  0  0  0
  -28.4810  -25.9670   22.3870 C   0  0  0  0  0  1  0  0  0  0  0  0
  -28.9870  -27.3020   24.4080 C   0  0  0  0  0  1  0  0  0  0  0  0
  -29.7320  -15.6360   20.4690 C   0  0  0  0  0  2  0  0  0  0  0  0
  -31.2750  -13.7440   20.2180 C   0  0  0  0  0  0  0  0  0  0  0  0
  -30.7450  -11.5680   19.1700 C   0  0  0  0  0  2  0  0  0  0  0  0
  -29.7920  -11.7480   17.9740 C   0  0  0  0  0  2  0  0  0  0  0  0
  -28.3280  -11.7460   18.4490 C   0  0  0  0  0  2  0  0  0  0  0  0
  -28.0850  -12.7210   19.6250 C   0  0  0  0  0  3  0  0  0  0  0  0
  -29.1330  -12.4900   20.7410 C   0  0  0  0  0  2  0  0  0  0  0  0
  -30.4680  -12.6460   20.1350 N   0  0  0  0  0  0  0  0  0  0  0  0
  -32.3840  -13.8000   19.6860 O   0  0  0  0  0  0  0  0  0  0  0  0
  -30.8350  -14.7910   20.9300 N   0  0  0  0  0  0  0  0  0  0  0  0
  -31.5980  -15.3550   21.2740 H   0  0  0  0  0  0  0  0  0  0  0  0
  -25.7930  -13.6060   20.3920 C   0  0  0  0  0  0  0  0  0  0  0  0
  -24.6570  -12.9630   20.8130 C   0  0  0  0  0  0  0  0  0  0  0  0
  -24.9620  -11.5700   20.7760 C   0  0  0  0  0  0  0  0  0  0  0  0
  -26.7270  -12.6100   20.1470 N   0  0  0  0  0  0  0  0  0  0  0  0
  -26.2270  -11.3800   20.4340 N   0  0  0  0  0  0  0  0  0  0  0  0
  -24.1070  -10.3950   21.0010 C   0  0  0  0  0  0  0  0  0  0  0  0
  -24.4810   -9.3740   21.9010 C   0  0  0  0  0  3  0  0  0  0  0  0
  -23.6370   -8.2640   22.1140 C   0  0  0  0  0  3  0  0  0  0  0  0
  -22.4050   -8.1650   21.4220 C   0  0  0  0  0  0  0  0  0  0  0  0
  -22.0520   -9.1730   20.5050 C   0  0  0  0  0  3  0  0  0  0  0  0
  -22.8960  -10.2740   20.2910 C   0  0  0  0  0  3  0  0  0  0  0  0
  -21.5320   -7.1080   21.5470 O   0  0  0  0  0  0  0  0  0  0  0  0
  -21.4990   -6.3290   22.6750 C   0  0  0  0  0  0  0  0  0  0  0  0
  -21.2240   -6.8710   23.9500 C   0  0  0  0  0  3  0  0  0  0  0  0
  -21.1230   -6.0230   25.0710 C   0  0  0  0  0  3  0  0  0  0  0  0
  -21.2900   -4.6320   24.9180 C   0  0  0  0  0  0  0  0  0  0  0  0
  -21.5600   -4.0890   23.6470 C   0  0  0  0  0  3  0  0  0  0  0  0
  -21.6580   -4.9360   22.5280 C   0  0  0  0  0  0  0  0  0  0  0  0
  -21.8920   -4.4060   21.3060 F   0  0  0  0  0  0  0  0  0  0  0  0
  -21.1880   -3.8160   25.9910 F   0  0  0  0  0  0  0  0  0  0  0  0
  -23.3350  -13.5940   21.1320 C   0  0  0  0  0  0  0  0  0  0  0  0
  -22.5640  -12.9860   22.0280 N   0  0  0  0  0  0  0  0  0  0  0  0
  -22.9910  -14.6550   20.6150 O   0  0  0  0  0  0  0  0  0  0  0  0
  -22.8580  -12.1250   22.4640 H   0  0  0  0  0  0  0  0  0  0  0  0
  -21.6680  -13.3840   22.2740 H   0  0  0  0  0  0  0  0  0  0  0  0
  -26.1050  -14.9460   20.1770 N   0  0  0  0  0  0  0  0  0  0  0  0
  -25.4050  -15.6780   20.2310 H   0  0  0  0  0  0  0  0  0  0  0  0
  -26.9600  -15.2540   19.7310 H   0  0  0  0  0  0  0  0  0  0  0  0
  1  2  1  0
  3  1  2  0
  4  5  2  0
  4  3  1  0
  5  6  1  0
  6  8  1  0
  6  2  2  0
  7  4  1  0
  9  5  1  0
 10  9  1  0
 11  9  1  0
 12 11  1  0
 13 14  1  0
 13 12  1  0
 14 15  1  0
 15 17  1  0
 16 27  2  0
 17 22  1  0
 18 28  1  0
 18 26  1  0
 19 25  1  0
 19 21  1  0
 20 26  1  0
 21 20  1  0
 22 21  2  0
 23 24  1  0
 23 17  2  0
 24 19  2  0
 25 18  1  0
 26 16  1  0
 28 30  2  0
 29 28  1  0
 31 29  1  0
 32 41  2  0
 32 37  1  0
 33 29  1  0
 33 37  1  0
 34 33  1  0
 35 36  1  0
 35 34  1  0
 36 32  1  0
 37 38  2  0
 38 39  1  0
 40 39  2  0
 41 40  1  0
 42 16  1  0
 42 52  1  0
 42 43  1  0
 43 46  1  0
 44 43  1  0
 44 48  1  0
 45 44  2  0
 48 47  1  0
 48 50  1  0
 50 51  1  0
 50 49  1  0
 52 53  1  1
 52 55  1  0
 54 52  1  0
 56  3  1  0
 56 65  1  0
 57 65  1  0
 58 63  1  0
 59 60  1  0
 59 58  1  0
 61 60  1  0
 61 70  1  0
 61 62  1  0
 63 57  1  0
 63 62  1  0
 64 57  2  0
 65 66  1  0
 67 68  2  0
 68 87  1  0
 69 68  1  0
 69 72  1  0
 70 67  1  0
 70 71  1  0
 71 69  2  0
 72 73  1  0
 73 74  2  0
 75 78  1  0
 75 74  1  0
 76 75  2  0
 77 76  1  0
 77 72  2  0
 78 79  1  0
 79 80  1  0
 80 81  2  0
 82 81  1  0
 82 86  1  0
 83 82  2  0
 84 79  2  0
 84 83  1  0
 85 84  1  0
 87 88  1  0
 88 91  1  0
 88 90  1  0
 89 87  2  0
 92 93  1  0
 92 67  1  0
 94 92  1  0
M  ISO  4  14 101  15 101  57 100  65 100
M  END
>  <TORSDO>  (10) 
F 22

>  <SCORE>  (10) 
-8.722

>  <name>  (10) 
9

>  <ligand_id>  (10) 
9

>  <original_smiles>  (10) 
[H]c1c([H])c([H])c2c(c1[H])C([H])([H])C([H])([H])C([H])([H])C2([H])N([H])C(=O)C1([H])N(C(=O)C([H])(N([H])C(=O)C([H])(N([H])C([H])([H])[H])C([H])([H])[H])C(C([H])([H])[H])(C([H])([H])[H])C([H])([H])[H])C([H])([H])c2c([H])c(OC([H])([H])C([H])([H])C([H])([H])C([H])([H])N([H])c3c(Cl)c([H])c([H])c(C([H])([H])N([H])C(=O)N4C([H])([H])C([H])([H])C([H])([H])C([H])(n5nc(-c6c([H])c([H])c(Oc7c([H])c([H])c(F)c([H])c7F)c([H])c6[H])c(C(=O)N([H])[H])c5N([H])[H])C4([H])[H])c3C([H])([H])[H])c([H])c([H])c2C1([H])[H]

>  <smiles>  (10) 
[H]c1c([H])c([H])c2c(c1[H])C([H])([H])C([H])([H])C([H])([H])C2([H])N([H])C(=O)C1([H])N(C(=O)C([H])(N([H])C(=O)C([H])(N([H])C([H])([H])[H])C([H])([H])[H])C(C([H])([H])[H])(C([H])([H])[H])C([H])([H])[H])C([H])([H])c2c([H])c(OC([H])([H])C([H])([H])C([H])([H])C([H])([H])N([H])c3c(Cl)c([H])c([H])c(C([H])([H])N([H])C(=O)N4C([H])([H])C([H])([H])C([H])([H])C([H])(n5nc(-c6c([H])c([H])c(Oc7c([H])c([H])c(F)c([H])c7F)c([H])c6[H])c(C(=O)N([H])[H])c5N([H])[H])C4([H])[H])c3C([H])([H])[H])c([H])c([H])c2C1([H])[H]

$$$$
10:0:0
     RDKit          3D

 96104  0  0  1  0  0  0  0  0999 V2000
  -29.9300  -20.2250   19.2130 C   0  0  0  0  0  0  0  0  0  0  0  0
  -30.7910  -20.3010   18.2000 N   0  0  0  0  0  4  0  0  0  0  0  0
  -29.5640  -21.3900   19.8240 N   0  0  0  0  0  0  0  0  0  0  0  0
  -31.2420  -21.1610   17.9400 H   0  0  0  0  0  0  0  0  0  0  0  0
  -31.0090  -19.4690   17.6720 H   0  0  0  0  0  0  0  0  0  0  0  0
  -28.9770  -21.2710   20.6400 H   0  0  0  0  0  0  0  0  0  0  0  0
  -30.2030  -17.7810   19.9400 C   0  0  0  0  0  3  0  0  0  0  0  0
  -28.2620  -16.3360   20.1720 C   0  0  0  0  0  3  0  0  0  0  0  0
  -29.3520  -18.8840   19.5650 C   0  0  0  0  0  0  0  0  0  0  0  0
  -27.4100  -17.3860   19.7970 C   0  0  0  0  0  0  0  0  0  0  0  0
  -27.9430  -18.6540   19.4510 C   0  0  0  0  0  0  0  0  0  0  0  0
  -29.6580  -16.4880   20.2230 C   0  0  0  0  0  0  0  0  0  0  0  0
  -25.9140  -17.1050   19.7580 C   0  0  0  0  0  1  0  0  0  0  0  0
  -26.9820  -19.7280   18.9230 C   0  0  0  0  0  1  0  0  0  0  0  0
  -30.8980  -14.2810   19.8870 C   0  0  0  0  0  0  0  0  0  0  0  0
  -30.7600  -11.8630   19.3220 C   0  0  0  0  0  2  0  0  0  0  0  0
  -29.7950  -11.6670   18.1330 C   0  0  0  0  0  2  0  0  0  0  0  0
  -28.3320  -11.5650   18.6080 C   0  0  0  0  0  2  0  0  0  0  0  0
  -27.9540  -12.6920   19.6040 C   0  0  0  0  0  3  0  0  0  0  0  0
  -29.0200  -12.8090   20.7170 C   0  0  0  0  0  2  0  0  0  0  0  0
  -30.3320  -13.0520   20.0820 N   0  0  0  0  0  0  0  0  0  0  0  0
  -31.9020  -14.4530   19.1890 O   0  0  0  0  0  0  0  0  0  0  0  0
  -30.3430  -15.2760   20.6100 N   0  0  0  0  0  0  0  0  0  0  0  0
  -29.9090  -14.8620   21.4200 H   0  0  0  0  0  0  0  0  0  0  0  0
  -25.6240  -13.4380   20.4130 C   0  0  0  0  0  0  0  0  0  0  0  0
  -24.5360  -12.7290   20.8470 C   0  0  0  0  0  0  0  0  0  0  0  0
  -24.9240  -11.3540   20.8180 C   0  0  0  0  0  0  0  0  0  0  0  0
  -26.6110  -12.4990   20.1490 N   0  0  0  0  0  0  0  0  0  0  0  0
  -26.1930  -11.2420   20.4480 N   0  0  0  0  0  0  0  0  0  0  0  0
  -24.1430  -10.1350   21.0670 C   0  0  0  0  0  0  0  0  0  0  0  0
  -24.5610   -9.1700   22.0100 C   0  0  0  0  0  3  0  0  0  0  0  0
  -23.7840   -8.0150   22.2450 C   0  0  0  0  0  3  0  0  0  0  0  0
  -22.5740   -7.8170   21.5370 C   0  0  0  0  0  0  0  0  0  0  0  0
  -22.1750   -8.7700   20.5840 C   0  0  0  0  0  3  0  0  0  0  0  0
  -22.9520   -9.9160   20.3470 C   0  0  0  0  0  3  0  0  0  0  0  0
  -21.7690   -6.7130   21.6820 O   0  0  0  0  0  0  0  0  0  0  0  0
  -21.7080   -6.0150   22.8610 C   0  0  0  0  0  0  0  0  0  0  0  0
  -21.3310   -6.6320   24.0740 C   0  0  0  0  0  3  0  0  0  0  0  0
  -21.2130   -5.8620   25.2490 C   0  0  0  0  0  3  0  0  0  0  0  0
  -21.4650   -4.4780   25.2110 C   0  0  0  0  0  0  0  0  0  0  0  0
  -21.8360   -3.8610   24.0030 C   0  0  0  0  0  3  0  0  0  0  0  0
  -21.9550   -4.6280   22.8310 C   0  0  0  0  0  0  0  0  0  0  0  0
  -22.2910   -4.0240   21.6660 F   0  0  0  0  0  0  0  0  0  0  0  0
  -21.3450   -3.7360   26.3380 F   0  0  0  0  0  0  0  0  0  0  0  0
  -23.1810  -13.2830   21.1820 C   0  0  0  0  0  0  0  0  0  0  0  0
  -22.4660  -12.6450   22.1030 N   0  0  0  0  0  0  0  0  0  0  0  0
  -22.7670  -14.3180   20.6610 O   0  0  0  0  0  0  0  0  0  0  0  0
  -22.8150  -11.8090   22.5480 H   0  0  0  0  0  0  0  0  0  0  0  0
  -21.5580  -12.9990   22.3680 H   0  0  0  0  0  0  0  0  0  0  0  0
  -25.8510  -14.7950   20.2050 N   0  0  0  0  0  0  0  0  0  0  0  0
  -25.1230  -15.4880   20.3360 H   0  0  0  0  0  0  0  0  0  0  0  0
  -26.7070  -15.1850   19.8310 H   0  0  0  0  0  0  0  0  0  0  0  0
  -29.7380  -22.7990   19.3250 C   0  0  0  0  0  2  0  0  0  0  0  0
  -29.3270  -23.9770   20.2920 C   0  0  0  0  0  2  0  0  0  0  0  0
  -28.4930  -25.1190   19.6090 C   0  0  0  0  0  2  0  0  0  0  0  0
  -28.5110  -26.4580   20.2080 O   0  0  0  0  0  0  0  0  0  0  0  0
  -24.6320  -31.7200   23.1790 C   0  0  0  0  0  0  0  0  0  0  0  0
  -27.3630  -27.2530   20.1260 C   0  0  0  0  0  0  0  0  0  0  0  0
  -23.4780  -30.3300   21.4960 C   0  0  0  0  0  3  0  0  0  0  0  0
  -24.9730  -28.8140   20.0880 C   0  0  0  0  0  0  0  0  0  0  0  0
  -26.0140  -30.6790   21.3750 C   0  0  0  0  0  2  0  0  0  0  0  0
  -26.1190  -29.3110   20.7190 C   0  0  0  0  0  0  0  0  0  0  0  0
  -27.3130  -28.5380   20.7380 C   0  0  0  0  0  3  0  0  0  0  0  0
  -26.1950  -26.8090   19.4570 C   0  0  0  0  0  3  0  0  0  0  0  0
  -25.0110  -27.5650   19.4530 C   0  0  0  0  0  3  0  0  0  0  0  0
  -23.7280  -29.6730   20.1140 C   0  0  0  0  0  2  0  0  0  0  0  0
  -24.7250  -30.9250   22.0750 N   0  0  0  0  0  0  0  0  0  0  0  0
  -23.5350  -31.9830   23.6910 O   0  0  0  0  0  0  0  0  0  0  0  0
  -22.8030  -29.2950   22.4270 C   0  0  0  0  0  0  0  0  0  0  0  0
  -21.4810  -29.1140   22.2700 N   0  0  0  0  0  0  0  0  0  0  0  0
  -23.4680  -28.6610   23.2500 O   0  0  0  0  0  0  0  0  0  0  0  0
  -21.0050  -29.6780   21.5790 H   0  0  0  0  0  0  0  0  0  0  0  0
  -18.0910  -27.9420   22.7160 C   0  0  0  0  0  0  0  0  0  0  0  0
  -20.6480  -28.1680   23.0130 C   0  0  0  0  0  3  0  0  0  0  0  0
  -20.7420  -26.7500   22.4030 C   0  0  0  0  0  2  0  0  0  0  0  0
  -19.6440  -26.4630   21.3740 C   0  0  0  0  0  2  0  0  0  0  0  0
  -18.2590  -26.6070   22.0100 C   0  0  0  0  0  2  0  0  0  0  0  0
  -19.2130  -28.6820   23.1720 C   0  0  0  0  0  0  0  0  0  0  0  0
  -19.0020  -29.9320   23.7910 C   0  0  0  0  0  3  0  0  0  0  0  0
  -17.7010  -30.4430   23.9590 C   0  0  0  0  0  3  0  0  0  0  0  0
  -16.5920  -29.7000   23.5180 C   0  0  0  0  0  3  0  0  0  0  0  0
  -16.7880  -28.4510   22.9020 C   0  0  0  0  0  3  0  0  0  0  0  0
  -25.8960  -32.3530   23.8370 C   0  0  0  0  0  3  0  0  0  0  0  0
  -26.3790  -31.5800   25.1250 C   0  0  1  0  0  0  0  0  0  0  0  0
  -25.2540  -31.3220   26.1530 C   0  0  0  0  0  1  0  0  0  0  0  0
  -26.9920  -30.2120   24.7430 C   0  0  0  0  0  1  0  0  0  0  0  0
  -27.4980  -32.3830   25.8300 C   0  0  0  0  0  1  0  0  0  0  0  0
  -25.5730  -33.7500   24.1610 N   0  0  0  0  0  0  0  0  0  0  0  0
  -25.9210  -34.8050   23.4120 C   0  0  0  0  0  0  0  0  0  0  0  0
  -26.6170  -34.7040   22.3980 O   0  0  0  0  0  0  0  0  0  0  0  0
  -24.9590  -33.9010   24.9470 H   0  0  0  0  0  0  0  0  0  0  0  0
  -24.1950  -36.5900   23.0170 C   0  0  0  0  0  1  0  0  0  0  0  0
  -25.4180  -36.1900   23.8590 C   0  0  0  0  0  3  0  0  0  0  0  0
  -27.5270  -37.0820   24.7440 C   0  0  0  0  0  1  0  0  0  0  0  0
  -26.4490  -37.2470   23.7720 N   0  0  0  0  0  0  0  0  0  0  0  0
  -26.0360  -38.1660   23.9110 H   0  0  0  0  0  0  0  0  0  0  0  0
  1  9  1  0
  1  3  1  0
  2  1  2  0
  3  6  1  0
  4  2  1  0
  5  2  1  0
  7 12  1  0
  8 12  2  0
  9  7  2  0
 10  8  1  0
 11  9  1  0
 11 10  2  0
 12 23  1  0
 13 10  1  0
 14 11  1  0
 15 21  1  0
 15 23  1  0
 16 21  1  0
 17 18  1  0
 17 16  1  0
 19 18  1  0
 19 28  1  0
 19 20  1  0
 21 20  1  0
 22 15  2  0
 23 24  1  0
 25 26  2  0
 26 45  1  0
 27 26  1  0
 27 30  1  0
 28 25  1  0
 28 29  1  0
 29 27  2  0
 30 31  1  0
 31 32  2  0
 33 36  1  0
 33 32  1  0
 34 33  2  0
 35 34  1  0
 35 30  2  0
 36 37  1  0
 37 38  1  0
 38 39  2  0
 40 39  1  0
 40 44  1  0
 41 40  2  0
 42 37  2  0
 42 41  1  0
 43 42  1  0
 45 46  1  0
 46 49  1  0
 46 48  1  0
 47 45  2  0
 50 51  1  0
 50 25  1  0
 52 50  1  0
 53  3  1  0
 53 54  1  0
 55 56  1  0
 55 54  1  0
 57 68  2  0
 58 56  1  0
 58 63  1  0
 59 67  1  0
 59 69  1  0
 60 66  1  0
 60 62  1  0
 61 67  1  0
 62 63  2  0
 62 61  1  0
 64 58  2  0
 65 64  1  0
 65 60  2  0
 66 59  1  0
 67 57  1  0
 69 71  2  0
 70 69  1  0
 72 70  1  0
 73 82  2  0
 73 78  1  0
 74 70  1  0
 74 78  1  0
 75 74  1  0
 76 77  1  0
 76 75  1  0
 77 73  1  0
 78 79  2  0
 79 80  1  0
 81 80  2  0
 82 81  1  0
 83 57  1  0
 83 88  1  0
 83 84  1  0
 84 87  1  1
 84 85  1  0
 86 84  1  0
 88 91  1  0
 89 93  1  0
 89 88  1  0
 90 89  2  0
 93 92  1  0
 95 93  1  0
 95 96  1  0
 95 94  1  0
M  ISO  4  15 100  23 100  55 101  56 101
M  END
>  <TORSDO>  (11) 
F 20

>  <SCORE>  (11) 
-13.604

>  <name>  (11) 
10

>  <ligand_id>  (11) 
10

>  <original_smiles>  (11) 
[H]c1c([H])c([H])c2c(c1[H])C([H])([H])C([H])([H])C([H])([H])C2([H])N([H])C(=O)C1([H])N(C(=O)C([H])(N([H])C(=O)C([H])(N([H])C([H])([H])[H])C([H])([H])[H])C(C([H])([H])[H])(C([H])([H])[H])C([H])([H])[H])C([H])([H])c2c([H])c(OC([H])([H])C([H])([H])C([H])([H])[N+]([H])=C(c3c([H])c(N([H])C(=O)N4C([H])([H])C([H])([H])C([H])([H])C([H])(n5nc(-c6c([H])c([H])c(Oc7c([H])c([H])c(F)c([H])c7F)c([H])c6[H])c(C(=O)N([H])[H])c5N([H])[H])C4([H])[H])c([H])c(C([H])([H])[H])c3C([H])([H])[H])N([H])[H])c([H])c([H])c2C1([H])[H]

>  <smiles>  (11) 
[H]c1c([H])c([H])c2c(c1[H])C([H])([H])C([H])([H])C([H])([H])C2([H])N([H])C(=O)C1([H])N(C(=O)C([H])(N([H])C(=O)C([H])(N([H])C([H])([H])[H])C([H])([H])[H])C(C([H])([H])[H])(C([H])([H])[H])C([H])([H])[H])C([H])([H])c2c([H])c(OC([H])([H])C([H])([H])C([H])([H])[N+]([H])=C(c3c([H])c(N([H])C(=O)N4C([H])([H])C([H])([H])C([H])([H])C([H])(n5nc(-c6c([H])c([H])c(Oc7c([H])c([H])c(F)c([H])c7F)c([H])c6[H])c(C(=O)N([H])[H])c5N([H])[H])C4([H])[H])c([H])c(C([H])([H])[H])c3C([H])([H])[H])N([H])[H])c([H])c([H])c2C1([H])[H]

$$$$
11:0:0
     RDKit          3D

 99108  0  0  1  0  0  0  0  0999 V2000
  -27.2250  -22.1520   20.0870 C   0  0  0  0  0  0  0  0  0  0  0  0
  -28.2580  -22.9560   20.2280 C   0  0  0  0  0  0  0  0  0  0  0  0
  -26.2110  -21.3320   19.9510 C   0  0  0  0  0  3  0  0  0  0  0  0
  -28.3050  -24.4090   19.7040 C   0  0  0  0  0  2  0  0  0  0  0  0
  -29.8310  -25.0830   21.5160 C   0  0  0  0  0  2  0  0  0  0  0  0
  -29.7850  -23.6450   22.1050 C   0  0  0  0  0  2  0  0  0  0  0  0
  -28.5240  -25.4860   20.8050 C   0  0  0  0  0  3  0  0  0  0  0  0
  -26.0830  -20.3540   18.8000 C   0  0  0  0  0  1  0  0  0  0  0  0
  -29.3870  -22.5700   21.1420 N   0  0  2  0  0  4  0  0  0  0  0  0
  -28.9980  -21.8830   21.7690 H   0  0  0  0  0  0  0  0  0  0  0  0
  -28.6260  -26.8840   20.3670 O   0  0  0  0  0  0  0  0  0  0  0  0
  -24.8950  -32.1200   23.5730 C   0  0  0  0  0  0  0  0  0  0  0  0
  -27.4880  -27.6850   20.3800 C   0  0  0  0  0  0  0  0  0  0  0  0
  -23.6940  -30.8180   21.8500 C   0  0  0  0  0  3  0  0  0  0  0  0
  -25.1410  -29.2980   20.3960 C   0  0  0  0  0  0  0  0  0  0  0  0
  -26.2370  -31.1070   21.7180 C   0  0  0  0  0  2  0  0  0  0  0  0
  -26.3000  -29.7510   21.0360 C   0  0  0  0  0  0  0  0  0  0  0  0
  -27.4770  -28.9540   21.0250 C   0  0  0  0  0  3  0  0  0  0  0  0
  -26.3110  -27.2780   19.7120 C   0  0  0  0  0  3  0  0  0  0  0  0
  -25.1420  -28.0620   19.7320 C   0  0  0  0  0  3  0  0  0  0  0  0
  -23.9200  -30.1920   20.4480 C   0  0  0  0  0  2  0  0  0  0  0  0
  -24.9600  -31.3640   22.4390 N   0  0  0  0  0  0  0  0  0  0  0  0
  -23.8070  -32.3920   24.1030 O   0  0  0  0  0  0  0  0  0  0  0  0
  -22.9980  -29.7740   22.7530 C   0  0  0  0  0  0  0  0  0  0  0  0
  -21.6760  -29.6080   22.5790 N   0  0  0  0  0  0  0  0  0  0  0  0
  -23.6490  -29.1140   23.5670 O   0  0  0  0  0  0  0  0  0  0  0  0
  -21.2110  -30.1990   21.9050 H   0  0  0  0  0  0  0  0  0  0  0  0
  -18.2800  -28.4150   22.9080 C   0  0  0  0  0  0  0  0  0  0  0  0
  -20.8260  -28.6520   23.2900 C   0  0  0  0  0  3  0  0  0  0  0  0
  -20.9480  -27.2370   22.6780 C   0  0  0  0  0  2  0  0  0  0  0  0
  -19.8860  -26.9480   21.6110 C   0  0  0  0  0  2  0  0  0  0  0  0
  -18.4800  -27.0850   22.2030 C   0  0  0  0  0  2  0  0  0  0  0  0
  -19.3820  -29.1590   23.4040 C   0  0  0  0  0  0  0  0  0  0  0  0
  -19.1460  -30.4090   24.0150 C   0  0  0  0  0  3  0  0  0  0  0  0
  -17.8370  -30.9110   24.1440 C   0  0  0  0  0  3  0  0  0  0  0  0
  -16.7470  -30.1650   23.6650 C   0  0  0  0  0  3  0  0  0  0  0  0
  -16.9690  -28.9180   23.0500 C   0  0  0  0  0  3  0  0  0  0  0  0
  -26.1770  -32.6990   24.2460 C   0  0  0  0  0  3  0  0  0  0  0  0
  -26.6320  -31.8850   25.5180 C   0  0  1  0  0  0  0  0  0  0  0  0
  -25.4980  -31.6470   26.5420 C   0  0  0  0  0  1  0  0  0  0  0  0
  -27.2020  -30.5110   25.1020 C   0  0  0  0  0  1  0  0  0  0  0  0
  -27.7730  -32.6380   26.2400 C   0  0  0  0  0  1  0  0  0  0  0  0
  -25.9030  -34.0990   24.5980 N   0  0  0  0  0  0  0  0  0  0  0  0
  -26.2960  -35.1550   23.8750 C   0  0  0  0  0  0  0  0  0  0  0  0
  -26.9960  -35.0520   22.8640 O   0  0  0  0  0  0  0  0  0  0  0  0
  -25.2940  -34.2560   25.3890 H   0  0  0  0  0  0  0  0  0  0  0  0
  -24.6400  -37.0080   23.4990 C   0  0  0  0  0  1  0  0  0  0  0  0
  -25.8370  -36.5480   24.3470 C   0  0  0  0  0  3  0  0  0  0  0  0
  -27.9690  -37.3440   25.2710 C   0  0  0  0  0  1  0  0  0  0  0  0
  -26.9050  -37.5690   24.2950 N   0  0  0  0  0  0  0  0  0  0  0  0
  -26.5230  -38.4980   24.4500 H   0  0  0  0  0  0  0  0  0  0  0  0
  -30.5110  -21.7660   20.5500 C   0  0  0  0  0  2  0  0  0  0  0  0
  -30.6870  -19.4870   21.7790 C   0  0  0  0  0  3  0  0  0  0  0  0
  -30.0050  -19.4670   19.4640 C   0  0  0  0  0  3  0  0  0  0  0  0
  -30.3670  -20.2160   20.6100 C   0  0  0  0  0  0  0  0  0  0  0  0
  -30.6430  -18.0690   21.8060 C   0  0  0  0  0  0  0  0  0  0  0  0
  -29.9870  -18.0390   19.4580 C   0  0  0  0  0  0  0  0  0  0  0  0
  -30.3370  -17.3170   20.6390 C   0  0  0  0  0  0  0  0  0  0  0  0
  -30.9230  -17.3620   23.1210 C   0  0  0  0  0  1  0  0  0  0  0  0
  -30.9930  -14.9100   20.1370 C   0  0  0  0  0  0  0  0  0  0  0  0
  -30.7300  -12.7790   18.9070 C   0  0  0  0  0  2  0  0  0  0  0  0
  -29.7010  -12.9860   17.7710 C   0  0  0  0  0  2  0  0  0  0  0  0
  -28.2630  -12.7790   18.2860 C   0  0  0  0  0  2  0  0  0  0  0  0
  -27.9810  -13.5490   19.6030 C   0  0  0  0  0  3  0  0  0  0  0  0
  -29.1060  -13.3050   20.6320 C   0  0  0  0  0  2  0  0  0  0  0  0
  -30.3800  -13.6970   20.0050 N   0  0  0  0  0  0  0  0  0  0  0  0
  -32.0990  -15.1470   19.6390 O   0  0  0  0  0  0  0  0  0  0  0  0
  -30.2420  -15.8750   20.7300 N   0  0  0  0  0  0  0  0  0  0  0  0
  -29.4230  -15.5300   21.2050 H   0  0  0  0  0  0  0  0  0  0  0  0
  -25.6180  -14.0680   20.4740 C   0  0  0  0  0  0  0  0  0  0  0  0
  -24.5900  -13.2550   20.8720 C   0  0  0  0  0  0  0  0  0  0  0  0
  -25.0780  -11.9170   20.7560 C   0  0  0  0  0  0  0  0  0  0  0  0
  -26.6660  -13.2220   20.1460 N   0  0  0  0  0  0  0  0  0  0  0  0
  -26.3480  -11.9220   20.3720 N   0  0  0  0  0  0  0  0  0  0  0  0
  -24.3920  -10.6300   20.9340 C   0  0  0  0  0  0  0  0  0  0  0  0
  -24.8380   -9.6830   21.8810 C   0  0  0  0  0  3  0  0  0  0  0  0
  -24.1530   -8.4590   22.0450 C   0  0  0  0  0  3  0  0  0  0  0  0
  -23.0090   -8.1770   21.2630 C   0  0  0  0  0  0  0  0  0  0  0  0
  -22.5820   -9.1150   20.3060 C   0  0  0  0  0  3  0  0  0  0  0  0
  -23.2660  -10.3290   20.1390 C   0  0  0  0  0  3  0  0  0  0  0  0
  -22.2950   -7.0050   21.3360 O   0  0  0  0  0  0  0  0  0  0  0  0
  -22.1400   -6.3300   22.5200 C   0  0  0  0  0  0  0  0  0  0  0  0
  -21.5510   -6.9380   23.6520 C   0  0  0  0  0  3  0  0  0  0  0  0
  -21.3490   -6.1860   24.8270 C   0  0  0  0  0  3  0  0  0  0  0  0
  -21.7210   -4.8280   24.8690 C   0  0  0  0  0  0  0  0  0  0  0  0
  -22.3020   -4.2220   23.7410 C   0  0  0  0  0  3  0  0  0  0  0  0
  -22.5070   -4.9700   22.5680 C   0  0  0  0  0  0  0  0  0  0  0  0
  -23.0470   -4.3760   21.4770 F   0  0  0  0  0  0  0  0  0  0  0  0
  -21.5190   -4.1040   25.9950 F   0  0  0  0  0  0  0  0  0  0  0  0
  -23.2030  -13.6880   21.2450 C   0  0  0  0  0  0  0  0  0  0  0  0
  -22.5510  -12.9500   22.1390 N   0  0  0  0  0  0  0  0  0  0  0  0
  -22.7050  -14.7120   20.7820 O   0  0  0  0  0  0  0  0  0  0  0  0
  -22.9660  -12.1160   22.5290 H   0  0  0  0  0  0  0  0  0  0  0  0
  -21.6240  -13.2190   22.4350 H   0  0  0  0  0  0  0  0  0  0  0  0
  -25.7460  -15.4470   20.3470 N   0  0  0  0  0  0  0  0  0  0  0  0
  -24.9740  -16.0800   20.5290 H   0  0  0  0  0  0  0  0  0  0  0  0
  -26.5630  -15.9140   19.9710 H   0  0  0  0  0  0  0  0  0  0  0  0
  -28.9810  -18.0960   17.0460 C   0  0  0  0  0  1  0  0  0  0  0  0
  -29.5870  -17.2710   18.1930 C   0  0  0  0  0  2  0  0  0  0  0  0
  1  2  2  0
  2  9  1  0
  3  1  2  0
  4  2  1  0
  4  7  1  0
  5  6  1  0
  7 11  1  0
  7  5  1  0
  8  3  1  0
  9 10  1  1
  9  6  1  0
 11 13  1  0
 12 23  2  0
 13 18  1  0
 14 22  1  0
 14 24  1  0
 15 21  1  0
 15 17  1  0
 16 22  1  0
 17 16  1  0
 18 17  2  0
 19 20  1  0
 19 13  2  0
 20 15  2  0
 21 14  1  0
 22 12  1  0
 24 26  2  0
 25 24  1  0
 27 25  1  0
 28 37  2  0
 28 33  1  0
 29 25  1  0
 29 33  1  0
 30 29  1  0
 31 32  1  0
 31 30  1  0
 32 28  1  0
 33 34  2  0
 34 35  1  0
 36 35  2  0
 37 36  1  0
 38 12  1  0
 38 43  1  0
 38 39  1  0
 39 42  1  1
 39 40  1  0
 41 39  1  0
 43 46  1  0
 44 48  1  0
 44 43  1  0
 45 44  2  0
 48 47  1  0
 50 48  1  0
 50 51  1  0
 50 49  1  0
 52 55  1  0
 52  9  1  0
 53 56  1  0
 54 55  1  0
 55 53  2  0
 56 59  1  0
 57 54  2  0
 57 58  1  0
 58 68  1  0
 58 56  2  0
 60 68  1  0
 61 66  1  0
 62 63  1  0
 62 61  1  0
 64 63  1  0
 64 73  1  0
 64 65  1  0
 66 60  1  0
 66 65  1  0
 67 60  2  0
 68 69  1  0
 70 71  2  0
 71 90  1  0
 72 71  1  0
 72 75  1  0
 73 74  1  0
 73 70  1  0
 74 72  2  0
 75 76  1  0
 76 77  2  0
 78 81  1  0
 78 77  1  0
 79 78  2  0
 80 79  1  0
 80 75  2  0
 81 82  1  0
 82 87  2  0
 82 83  1  0
 83 84  2  0
 84 85  1  0
 85 89  1  0
 86 85  2  0
 87 86  1  0
 88 87  1  0
 90 91  1  0
 91 94  1  0
 91 93  1  0
 92 90  2  0
 95 70  1  0
 95 96  1  0
 97 95  1  0
 98 99  1  0
 99 57  1  0
M  ISO  4   7 101  11 101  60 100  68 100
M  END
>  <TORSDO>  (12) 
F 19

>  <SCORE>  (12) 
-11.285

>  <name>  (12) 
11

>  <ligand_id>  (12) 
11

>  <original_smiles>  (12) 
[H]C(=C=C1C([H])([H])C([H])(Oc2c([H])c([H])c3c(c2[H])C([H])([H])N(C(=O)C([H])(N([H])C(=O)C([H])(N([H])C([H])([H])[H])C([H])([H])[H])C(C([H])([H])[H])(C([H])([H])[H])C([H])([H])[H])C([H])(C(=O)N([H])C2([H])c4c([H])c([H])c([H])c([H])c4C([H])([H])C([H])([H])C2([H])[H])C3([H])[H])C([H])([H])C([H])([H])[N+]1([H])C([H])([H])c1c([H])c(C([H])([H])[H])c(N([H])C(=O)N2C([H])([H])C([H])([H])C([H])([H])C([H])(n3nc(-c4c([H])c([H])c(Oc5c([H])c([H])c(F)c([H])c5F)c([H])c4[H])c(C(=O)N([H])[H])c3N([H])[H])C2([H])[H])c(C([H])([H])C([H])([H])[H])c1[H])C([H])([H])[H]

>  <smiles>  (12) 
[H]C(=C=C1C([H])([H])C([H])(Oc2c([H])c([H])c3c(c2[H])C([H])([H])N(C(=O)C([H])(N([H])C(=O)C([H])(N([H])C([H])([H])[H])C([H])([H])[H])C(C([H])([H])[H])(C([H])([H])[H])C([H])([H])[H])C([H])(C(=O)N([H])C2([H])c4c([H])c([H])c([H])c([H])c4C([H])([H])C([H])([H])C2([H])[H])C3([H])[H])C([H])([H])C([H])([H])[N+]1([H])C([H])([H])c1c([H])c(C([H])([H])[H])c(N([H])C(=O)N2C([H])([H])C([H])([H])C([H])([H])C([H])(n3nc(-c4c([H])c([H])c(Oc5c([H])c([H])c(F)c([H])c5F)c([H])c4[H])c(C(=O)N([H])[H])c3N([H])[H])C2([H])[H])c(C([H])([H])C([H])([H])[H])c1[H])C([H])([H])[H]

$$$$
12:0:0
     RDKit          3D

 94103  0  0  1  0  0  0  0  0999 V2000
  -28.5770  -23.7370   19.8760 C   0  0  0  0  0  0  0  0  0  0  0  0
  -29.7910  -23.7990   22.4840 C   0  0  0  0  0  2  0  0  0  0  0  0
  -29.4010  -25.1710   21.9140 C   0  0  0  0  0  2  0  0  0  0  0  0
  -30.3150  -22.9010   21.3510 C   0  0  0  0  0  2  0  0  0  0  0  0
  -28.3950  -25.0880   20.7500 C   0  0  0  0  0  3  0  0  0  0  0  0
  -29.2650  -22.6160   20.3610 N   0  0  0  0  0  0  0  0  0  0  0  0
  -27.9990  -23.6860   18.7860 O   0  0  0  0  0  0  0  0  0  0  0  0
  -28.4470  -26.4250   20.0660 O   0  0  0  0  0  0  0  0  0  0  0  0
  -24.6000  -31.7900   23.1520 C   0  0  0  0  0  0  0  0  0  0  0  0
  -27.3210  -27.2720   20.0980 C   0  0  0  0  0  0  0  0  0  0  0  0
  -23.4340  -30.3730   21.5000 C   0  0  0  0  0  3  0  0  0  0  0  0
  -24.9260  -28.8500   20.0790 C   0  0  0  0  0  0  0  0  0  0  0  0
  -25.9700  -30.7400   21.3310 C   0  0  0  0  0  2  0  0  0  0  0  0
  -26.0840  -29.3610   20.6810 C   0  0  0  0  0  0  0  0  0  0  0  0
  -27.2870  -28.5860   20.6750 C   0  0  0  0  0  3  0  0  0  0  0  0
  -26.1400  -26.8180   19.4800 C   0  0  0  0  0  3  0  0  0  0  0  0
  -24.9580  -27.5850   19.4670 C   0  0  0  0  0  3  0  0  0  0  0  0
  -23.6710  -29.7020   20.1210 C   0  0  0  0  0  2  0  0  0  0  0  0
  -24.6860  -30.9870   22.0510 N   0  0  0  0  0  0  0  0  0  0  0  0
  -23.5080  -32.0430   23.6820 O   0  0  0  0  0  0  0  0  0  0  0  0
  -22.7860  -29.3420   22.4550 C   0  0  0  0  0  0  0  0  0  0  0  0
  -21.4660  -29.1330   22.3160 N   0  0  0  0  0  0  0  0  0  0  0  0
  -23.4710  -28.7330   23.2810 O   0  0  0  0  0  0  0  0  0  0  0  0
  -20.9710  -29.6770   21.6240 H   0  0  0  0  0  0  0  0  0  0  0  0
  -18.1240  -27.8140   22.7490 C   0  0  0  0  0  0  0  0  0  0  0  0
  -20.6630  -28.1720   23.0760 C   0  0  0  0  0  3  0  0  0  0  0  0
  -20.8310  -26.7400   22.5180 C   0  0  0  0  0  2  0  0  0  0  0  0
  -19.7670  -26.3670   21.4810 C   0  0  0  0  0  2  0  0  0  0  0  0
  -18.3660  -26.4670   22.0910 C   0  0  0  0  0  2  0  0  0  0  0  0
  -19.2030  -28.6220   23.1970 C   0  0  0  0  0  0  0  0  0  0  0  0
  -18.9230  -29.8810   23.7730 C   0  0  0  0  0  3  0  0  0  0  0  0
  -17.5960  -30.3340   23.9030 C   0  0  0  0  0  3  0  0  0  0  0  0
  -16.5310  -29.5250   23.4710 C   0  0  0  0  0  3  0  0  0  0  0  0
  -16.7950  -28.2660   22.9010 C   0  0  0  0  0  3  0  0  0  0  0  0
  -25.8640  -32.4480   23.7860 C   0  0  0  0  0  3  0  0  0  0  0  0
  -25.5180  -33.8350   24.1320 N   0  0  0  0  0  0  0  0  0  0  0  0
  -25.8330  -34.9060   23.3910 C   0  0  0  0  0  0  0  0  0  0  0  0
  -26.5120  -34.8320   22.3640 O   0  0  0  0  0  0  0  0  0  0  0  0
  -24.9120  -33.9650   24.9290 H   0  0  0  0  0  0  0  0  0  0  0  0
  -24.0690  -36.6690   23.0520 C   0  0  0  0  0  1  0  0  0  0  0  0
  -25.3130  -36.2780   23.8660 C   0  0  0  0  0  3  0  0  0  0  0  0
  -27.4230  -37.1950   24.7210 C   0  0  0  0  0  1  0  0  0  0  0  0
  -26.3240  -37.3540   23.7750 N   0  0  0  0  0  0  0  0  0  0  0  0
  -25.8960  -38.2640   23.9340 H   0  0  0  0  0  0  0  0  0  0  0  0
  -26.3930  -31.6780   25.0580 C   0  0  1  0  0  0  0  0  0  0  0  0
  -25.3030  -31.4090   26.1220 C   0  0  0  0  0  1  0  0  0  0  0  0
  -27.0070  -30.3160   24.6570 C   0  0  0  0  0  1  0  0  0  0  0  0
  -27.5250  -32.4900   25.7290 C   0  0  0  0  0  1  0  0  0  0  0  0
  -29.2830  -21.2080   19.7150 C   0  0  0  0  0  2  0  0  0  0  0  0
  -30.0980  -19.8620   21.8030 C   0  0  0  0  0  3  0  0  0  0  0  0
  -30.5600  -18.7060   22.4600 C   0  0  0  0  0  3  0  0  0  0  0  0
  -29.8850  -18.5490   19.7760 C   0  0  0  0  0  3  0  0  0  0  0  0
  -29.7850  -19.8550   20.4290 C   0  0  0  0  0  0  0  0  0  0  0  0
  -30.6780  -17.4580   21.8080 C   0  0  0  0  0  0  0  0  0  0  0  0
  -30.3260  -17.3200   20.4400 C   0  0  0  0  0  0  0  0  0  0  0  0
  -31.1010  -16.2620   22.6460 C   0  0  0  0  0  1  0  0  0  0  0  0
  -30.9780  -14.8110   19.8430 C   0  0  0  0  0  0  0  0  0  0  0  0
  -30.6980  -12.5250   18.8440 C   0  0  0  0  0  2  0  0  0  0  0  0
  -29.7020  -12.5960   17.6630 C   0  0  0  0  0  2  0  0  0  0  0  0
  -28.2440  -12.4750   18.1590 C   0  0  0  0  0  2  0  0  0  0  0  0
  -27.9490  -13.3920   19.3740 C   0  0  0  0  0  3  0  0  0  0  0  0
  -29.0520  -13.2810   20.4460 C   0  0  0  0  0  2  0  0  0  0  0  0
  -30.3280  -13.5990   19.7910 N   0  0  0  0  0  0  0  0  0  0  0  0
  -32.1760  -14.8880   19.5480 O   0  0  0  0  0  0  0  0  0  0  0  0
  -30.1690  -15.9430   19.8950 N   0  0  0  0  0  0  0  0  0  0  0  0
  -29.2020  -15.6820   19.7970 H   0  0  0  0  0  0  0  0  0  0  0  0
  -25.6320  -14.0840   20.2340 C   0  0  0  0  0  0  0  0  0  0  0  0
  -24.5500  -13.3540   20.6410 C   0  0  0  0  0  0  0  0  0  0  0  0
  -24.9460  -11.9840   20.5670 C   0  0  0  0  0  0  0  0  0  0  0  0
  -26.6190  -13.1600   19.9290 N   0  0  0  0  0  0  0  0  0  0  0  0
  -26.2170  -11.8910   20.1920 N   0  0  0  0  0  0  0  0  0  0  0  0
  -24.1710  -10.7540   20.7710 C   0  0  0  0  0  0  0  0  0  0  0  0
  -24.5800   -9.7650   21.6920 C   0  0  0  0  0  3  0  0  0  0  0  0
  -23.8060   -8.6000   21.8830 C   0  0  0  0  0  3  0  0  0  0  0  0
  -22.6090   -8.4170   21.1520 C   0  0  0  0  0  0  0  0  0  0  0  0
  -22.2170   -9.3930   20.2180 C   0  0  0  0  0  3  0  0  0  0  0  0
  -22.9910  -10.5490   20.0270 C   0  0  0  0  0  3  0  0  0  0  0  0
  -21.8060   -7.3050   21.2520 O   0  0  0  0  0  0  0  0  0  0  0  0
  -21.7190   -6.5840   22.4160 C   0  0  0  0  0  0  0  0  0  0  0  0
  -21.3260   -7.1800   23.6340 C   0  0  0  0  0  3  0  0  0  0  0  0
  -21.1810   -6.3880   24.7900 C   0  0  0  0  0  3  0  0  0  0  0  0
  -21.4200   -5.0020   24.7300 C   0  0  0  0  0  0  0  0  0  0  0  0
  -21.8070   -4.4050   23.5170 C   0  0  0  0  0  3  0  0  0  0  0  0
  -21.9530   -5.1950   22.3630 C   0  0  0  0  0  0  0  0  0  0  0  0
  -22.3050   -4.6130   21.1920 F   0  0  0  0  0  0  0  0  0  0  0  0
  -21.2740   -4.2400   25.8400 F   0  0  0  0  0  0  0  0  0  0  0  0
  -23.1910  -13.8930   20.9870 C   0  0  0  0  0  0  0  0  0  0  0  0
  -22.4810  -13.2270   21.8920 N   0  0  0  0  0  0  0  0  0  0  0  0
  -22.7710  -14.9360   20.4900 O   0  0  0  0  0  0  0  0  0  0  0  0
  -22.8330  -12.3800   22.3150 H   0  0  0  0  0  0  0  0  0  0  0  0
  -21.5710  -13.5680   22.1680 H   0  0  0  0  0  0  0  0  0  0  0  0
  -25.8510  -15.4490   20.0750 N   0  0  0  0  0  0  0  0  0  0  0  0
  -25.1180  -16.1300   20.2440 H   0  0  0  0  0  0  0  0  0  0  0  0
  -26.6930  -15.8650   19.7010 H   0  0  0  0  0  0  0  0  0  0  0  0
  1  6  1  0
  1  5  1  0
  3  2  1  0
  4  2  1  0
  5  8  1  0
  5  3  1  0
  6  4  1  0
  7  1  2  0
  8 10  1  0
  9 20  2  0
 10 15  1  0
 11 19  1  0
 11 21  1  0
 12 18  1  0
 12 14  1  0
 13 19  1  0
 14 13  1  0
 15 14  2  0
 16 10  2  0
 17 16  1  0
 17 12  2  0
 18 11  1  0
 19  9  1  0
 21 23  2  0
 22 21  1  0
 24 22  1  0
 25 34  2  0
 25 30  1  0
 26 22  1  0
 26 30  1  0
 27 26  1  0
 28 29  1  0
 28 27  1  0
 29 25  1  0
 30 31  2  0
 31 32  1  0
 33 32  2  0
 34 33  1  0
 35  9  1  0
 35 36  1  0
 35 45  1  0
 36 39  1  0
 37 41  1  0
 37 36  1  0
 38 37  2  0
 41 40  1  0
 43 41  1  0
 43 44  1  0
 43 42  1  0
 45 48  1  1
 45 46  1  0
 47 45  1  0
 49  6  1  0
 49 53  1  0
 50 51  1  0
 52 53  1  0
 52 55  2  0
 53 50  2  0
 54 51  2  0
 54 56  1  0
 55 54  1  0
 57 65  1  0
 58 63  1  0
 59 60  1  0
 59 58  1  0
 61 60  1  0
 61 70  1  0
 61 62  1  0
 63 57  1  0
 63 62  1  0
 64 57  2  0
 65 55  1  0
 66 65  1  0
 67 68  2  0
 68 87  1  0
 69 68  1  0
 69 72  1  0
 70 71  1  0
 70 67  1  0
 71 69  2  0
 72 73  1  0
 73 74  2  0
 75 78  1  0
 75 74  1  0
 76 75  2  0
 77 76  1  0
 77 72  2  0
 78 79  1  0
 79 80  1  0
 80 81  2  0
 82 81  1  0
 82 86  1  0
 83 82  2  0
 84 79  2  0
 84 83  1  0
 85 84  1  0
 87 88  1  0
 88 91  1  0
 88 90  1  0
 89 87  2  0
 92 67  1  0
 92 93  1  0
 94 92  1  0
M  ISO  4   5 101   8 101  57 100  65 100
M  END
>  <TORSDO>  (13) 
F 18

>  <SCORE>  (13) 
-13.620

>  <name>  (13) 
12

>  <ligand_id>  (13) 
12

>  <original_smiles>  (13) 
[H]c1c([H])c([H])c2c(c1[H])C([H])([H])C([H])([H])C([H])([H])C2([H])N([H])C(=O)C1([H])N(C(=O)C([H])(N([H])C(=O)C([H])(N([H])C([H])([H])[H])C([H])([H])[H])C(C([H])([H])[H])(C([H])([H])[H])C([H])([H])[H])C([H])([H])c2c([H])c(OC3([H])C(=O)N(C([H])([H])c4c([H])c([H])c(C([H])([H])[H])c(N([H])C(=O)N5C([H])([H])C([H])([H])C([H])([H])C([H])(n6nc(-c7c([H])c([H])c(Oc8c([H])c([H])c(F)c([H])c8F)c([H])c7[H])c(C(=O)N([H])[H])c6N([H])[H])C5([H])[H])c4[H])C([H])([H])C([H])([H])C3([H])[H])c([H])c([H])c2C1([H])[H]

>  <smiles>  (13) 
[H]c1c([H])c([H])c2c(c1[H])C([H])([H])C([H])([H])C([H])([H])C2([H])N([H])C(=O)C1([H])N(C(=O)C([H])(N([H])C(=O)C([H])(N([H])C([H])([H])[H])C([H])([H])[H])C(C([H])([H])[H])(C([H])([H])[H])C([H])([H])[H])C([H])([H])c2c([H])c(OC3([H])C(=O)N(C([H])([H])c4c([H])c([H])c(C([H])([H])[H])c(N([H])C(=O)N5C([H])([H])C([H])([H])C([H])([H])C([H])(n6nc(-c7c([H])c([H])c(Oc8c([H])c([H])c(F)c([H])c8F)c([H])c7[H])c(C(=O)N([H])[H])c6N([H])[H])C5([H])[H])c4[H])C([H])([H])C([H])([H])C3([H])[H])c([H])c([H])c2C1([H])[H]

$$$$
13:0:0
     RDKit          3D

 94103  0  0  1  0  0  0  0  0999 V2000
  -28.6460  -23.7890   19.8880 C   0  0  0  0  0  0  0  0  0  0  0  0
  -29.3150  -24.0290   22.7000 C   0  0  0  0  0  2  0  0  0  0  0  0
  -29.4610  -25.2630   21.8240 C   0  0  0  0  0  2  0  0  0  0  0  0
  -29.5240  -22.7020   21.9390 C   0  0  0  0  0  2  0  0  0  0  0  0
  -28.4460  -25.1780   20.6900 C   0  0  0  0  0  3  0  0  0  0  0  0
  -29.1270  -22.6070   20.5060 N   0  0  0  0  0  0  0  0  0  0  0  0
  -28.2660  -23.8040   18.7120 O   0  0  0  0  0  0  0  0  0  0  0  0
  -30.1470  -20.1630   17.7100 C   0  0  0  0  0  3  0  0  0  0  0  0
  -30.3570  -18.9250   18.3380 C   0  0  0  0  0  3  0  0  0  0  0  0
  -29.7480  -21.3040   18.4340 C   0  0  0  0  0  3  0  0  0  0  0  0
  -30.1350  -18.7690   19.7170 C   0  0  0  0  0  0  0  0  0  0  0  0
  -29.6130  -19.9360   20.4360 C   0  0  0  0  0  0  0  0  0  0  0  0
  -29.4560  -21.2790   19.8250 C   0  0  0  0  0  0  0  0  0  0  0  0
  -29.1650  -19.6680   21.8640 C   0  0  0  0  0  1  0  0  0  0  0  0
  -30.6840  -17.4100   20.3700 C   0  0  0  0  0  2  0  0  0  0  0  0
  -30.9540  -14.8610   19.7640 C   0  0  0  0  0  0  0  0  0  0  0  0
  -30.6640  -12.5710   18.8060 C   0  0  0  0  0  2  0  0  0  0  0  0
  -29.6470  -12.6120   17.6450 C   0  0  0  0  0  2  0  0  0  0  0  0
  -28.2070  -12.4720   18.1730 C   0  0  0  0  0  2  0  0  0  0  0  0
  -27.9180  -13.4020   19.3820 C   0  0  0  0  0  3  0  0  0  0  0  0
  -29.0440  -13.3300   20.4360 C   0  0  0  0  0  2  0  0  0  0  0  0
  -30.3020  -13.6510   19.7490 N   0  0  0  0  0  0  0  0  0  0  0  0
  -32.1310  -14.9320   19.4000 O   0  0  0  0  0  0  0  0  0  0  0  0
  -30.2150  -16.0020   20.0190 N   0  0  0  0  0  0  0  0  0  0  0  0
  -29.2390  -15.8290   20.1940 H   0  0  0  0  0  0  0  0  0  0  0  0
  -25.6010  -14.0590   20.2710 C   0  0  0  0  0  0  0  0  0  0  0  0
  -24.5380  -13.3120   20.7040 C   0  0  0  0  0  0  0  0  0  0  0  0
  -24.9600  -11.9490   20.6320 C   0  0  0  0  0  0  0  0  0  0  0  0
  -26.6010  -13.1520   19.9600 N   0  0  0  0  0  0  0  0  0  0  0  0
  -26.2270  -11.8770   20.2400 N   0  0  0  0  0  0  0  0  0  0  0  0
  -24.2120  -10.7050   20.8560 C   0  0  0  0  0  0  0  0  0  0  0  0
  -24.6340   -9.7510   21.8080 C   0  0  0  0  0  3  0  0  0  0  0  0
  -23.8870   -8.5720   22.0190 C   0  0  0  0  0  3  0  0  0  0  0  0
  -22.7020   -8.3380   21.2810 C   0  0  0  0  0  0  0  0  0  0  0  0
  -22.2990   -9.2810   20.3180 C   0  0  0  0  0  3  0  0  0  0  0  0
  -23.0460  -10.4510   20.1050 C   0  0  0  0  0  3  0  0  0  0  0  0
  -21.9260   -7.2110   21.4010 O   0  0  0  0  0  0  0  0  0  0  0  0
  -21.8200   -6.5340   22.5900 C   0  0  0  0  0  0  0  0  0  0  0  0
  -21.3260   -7.1530   23.7590 C   0  0  0  0  0  3  0  0  0  0  0  0
  -21.1680   -6.4010   24.9390 C   0  0  0  0  0  3  0  0  0  0  0  0
  -21.4940   -5.0320   24.9540 C   0  0  0  0  0  0  0  0  0  0  0  0
  -21.9800   -4.4130   23.7890 C   0  0  0  0  0  3  0  0  0  0  0  0
  -22.1400   -5.1610   22.6100 C   0  0  0  0  0  0  0  0  0  0  0  0
  -22.5890   -4.5540   21.4850 F   0  0  0  0  0  0  0  0  0  0  0  0
  -21.3340   -4.3090   26.0870 F   0  0  0  0  0  0  0  0  0  0  0  0
  -23.1750  -13.8240   21.0700 C   0  0  0  0  0  0  0  0  0  0  0  0
  -22.4870  -13.1440   21.9810 N   0  0  0  0  0  0  0  0  0  0  0  0
  -22.7320  -14.8620   20.5820 O   0  0  0  0  0  0  0  0  0  0  0  0
  -22.8620  -12.3020   22.3950 H   0  0  0  0  0  0  0  0  0  0  0  0
  -21.5760  -13.4670   22.2690 H   0  0  0  0  0  0  0  0  0  0  0  0
  -25.7910  -15.4260   20.0910 N   0  0  0  0  0  0  0  0  0  0  0  0
  -25.0490  -16.0970   20.2520 H   0  0  0  0  0  0  0  0  0  0  0  0
  -26.6170  -15.8460   19.6850 H   0  0  0  0  0  0  0  0  0  0  0  0
  -28.5240  -26.4940   19.9640 O   0  0  0  0  0  0  0  0  0  0  0  0
  -24.5770  -31.7090   23.1670 C   0  0  0  0  0  0  0  0  0  0  0  0
  -27.3950  -27.3360   19.9940 C   0  0  0  0  0  0  0  0  0  0  0  0
  -23.4420  -30.3030   21.4850 C   0  0  0  0  0  3  0  0  0  0  0  0
  -24.9660  -28.8590   20.0210 C   0  0  0  0  0  0  0  0  0  0  0  0
  -25.9670  -30.7410   21.3150 C   0  0  0  0  0  2  0  0  0  0  0  0
  -26.1150  -29.3820   20.6300 C   0  0  0  0  0  0  0  0  0  0  0  0
  -27.3360  -28.6360   20.6010 C   0  0  0  0  0  3  0  0  0  0  0  0
  -26.2250  -26.8730   19.3620 C   0  0  0  0  0  3  0  0  0  0  0  0
  -25.0250  -27.6120   19.3750 C   0  0  0  0  0  3  0  0  0  0  0  0
  -23.6920  -29.6770   20.0880 C   0  0  0  0  0  2  0  0  0  0  0  0
  -24.6810  -30.9360   22.0450 N   0  0  0  0  0  0  0  0  0  0  0  0
  -23.4800  -31.9180   23.7060 O   0  0  0  0  0  0  0  0  0  0  0  0
  -22.8280  -29.2290   22.4150 C   0  0  0  0  0  0  0  0  0  0  0  0
  -21.5210  -28.9570   22.2480 N   0  0  0  0  0  0  0  0  0  0  0  0
  -23.5260  -28.6450   23.2460 O   0  0  0  0  0  0  0  0  0  0  0  0
  -21.0140  -29.4860   21.5530 H   0  0  0  0  0  0  0  0  0  0  0  0
  -18.2510  -27.4460   22.5840 C   0  0  0  0  0  0  0  0  0  0  0  0
  -20.7550  -27.9490   22.9850 C   0  0  0  0  0  3  0  0  0  0  0  0
  -21.0260  -26.5290   22.4370 C   0  0  0  0  0  2  0  0  0  0  0  0
  -20.0140  -26.0930   21.3710 C   0  0  0  0  0  2  0  0  0  0  0  0
  -18.5910  -26.1150   21.9360 C   0  0  0  0  0  2  0  0  0  0  0  0
  -19.2680  -28.3140   23.0630 C   0  0  0  0  0  0  0  0  0  0  0  0
  -18.8990  -29.5540   23.6260 C   0  0  0  0  0  3  0  0  0  0  0  0
  -17.5450  -29.9290   23.7170 C   0  0  0  0  0  3  0  0  0  0  0  0
  -16.5430  -29.0600   23.2550 C   0  0  0  0  0  3  0  0  0  0  0  0
  -16.8960  -27.8200   22.6950 C   0  0  0  0  0  3  0  0  0  0  0  0
  -25.8250  -32.3870   23.8090 C   0  0  0  0  0  3  0  0  0  0  0  0
  -25.4560  -33.7690   24.1480 N   0  0  0  0  0  0  0  0  0  0  0  0
  -25.7660  -34.8430   23.4100 C   0  0  0  0  0  0  0  0  0  0  0  0
  -26.4610  -34.7770   22.3920 O   0  0  0  0  0  0  0  0  0  0  0  0
  -24.8380  -33.8900   24.9370 H   0  0  0  0  0  0  0  0  0  0  0  0
  -23.9840  -36.5810   23.0420 C   0  0  0  0  0  1  0  0  0  0  0  0
  -25.2210  -36.2080   23.8750 C   0  0  0  0  0  3  0  0  0  0  0  0
  -27.3000  -37.1600   24.7700 C   0  0  0  0  0  1  0  0  0  0  0  0
  -26.2180  -37.2980   23.7990 N   0  0  0  0  0  0  0  0  0  0  0  0
  -25.7750  -38.2010   23.9430 H   0  0  0  0  0  0  0  0  0  0  0  0
  -26.3570  -31.6250   25.0840 C   0  0  1  0  0  0  0  0  0  0  0  0
  -25.2620  -31.3340   26.1370 C   0  0  0  0  0  1  0  0  0  0  0  0
  -27.0010  -30.2760   24.6900 C   0  0  0  0  0  1  0  0  0  0  0  0
  -27.4650  -32.4610   25.7680 C   0  0  0  0  0  1  0  0  0  0  0  0
  1  6  1  0
  1  5  1  0
  3  2  1  0
  4  2  1  0
  5 54  1  0
  5  3  1  0
  6  4  1  0
  7  1  2  0
  8  9  2  0
  8 10  1  0
  9 11  1  0
 10 13  2  0
 11 15  1  0
 11 12  2  0
 12 14  1  0
 13 12  1  0
 13  6  1  0
 16 24  1  0
 17 22  1  0
 18 19  1  0
 18 17  1  0
 20 19  1  0
 20 29  1  0
 20 21  1  0
 22 16  1  0
 22 21  1  0
 23 16  2  0
 24 25  1  0
 24 15  1  0
 26 27  2  0
 27 46  1  0
 28 27  1  0
 28 31  1  0
 29 30  1  0
 29 26  1  0
 30 28  2  0
 31 32  1  0
 32 33  2  0
 34 37  1  0
 34 33  1  0
 35 34  2  0
 36 35  1  0
 36 31  2  0
 37 38  1  0
 38 43  2  0
 38 39  1  0
 39 40  2  0
 40 41  1  0
 41 45  1  0
 42 41  2  0
 43 42  1  0
 44 43  1  0
 46 47  1  0
 47 50  1  0
 47 49  1  0
 48 46  2  0
 51 52  1  0
 51 26  1  0
 53 51  1  0
 54 56  1  0
 55 66  2  0
 56 61  1  0
 57 65  1  0
 57 67  1  0
 58 64  1  0
 58 60  1  0
 59 65  1  0
 60 59  1  0
 61 60  2  0
 62 63  1  0
 62 56  2  0
 63 58  2  0
 64 57  1  0
 65 55  1  0
 67 69  2  0
 68 67  1  0
 70 68  1  0
 71 80  2  0
 71 76  1  0
 72 68  1  0
 72 76  1  0
 73 72  1  0
 74 75  1  0
 74 73  1  0
 75 71  1  0
 76 77  2  0
 77 78  1  0
 79 78  2  0
 80 79  1  0
 81 55  1  0
 81 82  1  0
 81 91  1  0
 82 85  1  0
 83 87  1  0
 83 82  1  0
 84 83  2  0
 87 86  1  0
 89 87  1  0
 89 90  1  0
 89 88  1  0
 91 94  1  1
 91 92  1  0
 93 91  1  0
M  ISO  4   5 101  16 100  24 100  54 101
M  END
>  <TORSDO>  (14) 
F 18

>  <SCORE>  (14) 
-13.057

>  <name>  (14) 
13

>  <ligand_id>  (14) 
13

>  <original_smiles>  (14) 
[H]c1c([H])c(N2C(=O)C([H])(Oc3c([H])c([H])c4c(c3[H])C([H])([H])N(C(=O)C([H])(N([H])C(=O)C([H])(N([H])C([H])([H])[H])C([H])([H])[H])C(C([H])([H])[H])(C([H])([H])[H])C([H])([H])[H])C([H])(C(=O)N([H])C3([H])c5c([H])c([H])c([H])c([H])c5C([H])([H])C([H])([H])C3([H])[H])C4([H])[H])C([H])([H])C([H])([H])C2([H])[H])c(C([H])([H])[H])c(C([H])([H])N([H])C(=O)N2C([H])([H])C([H])([H])C([H])([H])C([H])(n3nc(-c4c([H])c([H])c(Oc5c([H])c([H])c(F)c([H])c5F)c([H])c4[H])c(C(=O)N([H])[H])c3N([H])[H])C2([H])[H])c1[H]

>  <smiles>  (14) 
[H]c1c([H])c(N2C(=O)C([H])(Oc3c([H])c([H])c4c(c3[H])C([H])([H])N(C(=O)C([H])(N([H])C(=O)C([H])(N([H])C([H])([H])[H])C([H])([H])[H])C(C([H])([H])[H])(C([H])([H])[H])C([H])([H])[H])C([H])(C(=O)N([H])C3([H])c5c([H])c([H])c([H])c([H])c5C([H])([H])C([H])([H])C3([H])[H])C4([H])[H])C([H])([H])C([H])([H])C2([H])[H])c(C([H])([H])[H])c(C([H])([H])N([H])C(=O)N2C([H])([H])C([H])([H])C([H])([H])C([H])(n3nc(-c4c([H])c([H])c(Oc5c([H])c([H])c(F)c([H])c5F)c([H])c4[H])c(C(=O)N([H])[H])c3N([H])[H])C2([H])[H])c1[H]

$$$$
14:0:0
     RDKit          3D

 93101  0  0  1  0  0  0  0  0999 V2000
  -29.9710  -21.9500   19.8140 C   0  0  0  0  0  2  0  0  0  0  0  0
  -30.8730  -18.2030   21.9240 C   0  0  0  0  0  3  0  0  0  0  0  0
  -31.0920  -19.4360   22.5710 C   0  0  0  0  0  3  0  0  0  0  0  0
  -30.0330  -19.4110   19.9890 C   0  0  0  0  0  3  0  0  0  0  0  0
  -30.3500  -18.1800   20.6160 C   0  0  0  0  0  0  0  0  0  0  0  0
  -30.8020  -20.6640   21.9320 C   0  0  0  0  0  0  0  0  0  0  0  0
  -30.2480  -20.6640   20.6230 C   0  0  0  0  0  0  0  0  0  0  0  0
  -31.1450  -21.9520   22.6650 C   0  0  0  0  0  1  0  0  0  0  0  0
  -30.1690  -16.8760   19.8320 C   0  0  0  0  0  2  0  0  0  0  0  0
  -30.8550  -14.5350   20.3070 C   0  0  0  0  0  0  0  0  0  0  0  0
  -30.5370  -12.3430   19.2470 C   0  0  0  0  0  2  0  0  0  0  0  0
  -29.5800  -12.5500   18.0530 C   0  0  0  0  0  2  0  0  0  0  0  0
  -28.1110  -12.4320   18.5040 C   0  0  0  0  0  2  0  0  0  0  0  0
  -27.7990  -13.2820   19.7660 C   0  0  0  0  0  3  0  0  0  0  0  0
  -28.8730  -13.0750   20.8610 C   0  0  0  0  0  2  0  0  0  0  0  0
  -30.1920  -13.3470   20.2660 N   0  0  0  0  0  0  0  0  0  0  0  0
  -31.9970  -14.6790   19.8640 O   0  0  0  0  0  0  0  0  0  0  0  0
  -30.0810  -15.6050   20.5780 N   0  0  0  0  0  0  0  0  0  0  0  0
  -29.1810  -15.3920   20.9760 H   0  0  0  0  0  0  0  0  0  0  0  0
  -25.4290  -13.9210   20.5380 C   0  0  0  0  0  0  0  0  0  0  0  0
  -24.3530  -13.1620   20.9170 C   0  0  0  0  0  0  0  0  0  0  0  0
  -24.7880  -11.8030   20.8490 C   0  0  0  0  0  0  0  0  0  0  0  0
  -26.4510  -13.0250   20.2680 N   0  0  0  0  0  0  0  0  0  0  0  0
  -26.0700  -11.7450   20.5100 N   0  0  0  0  0  0  0  0  0  0  0  0
  -24.0410  -10.5520   21.0310 C   0  0  0  0  0  0  0  0  0  0  0  0
  -24.4690   -9.5630   21.9440 C   0  0  0  0  0  3  0  0  0  0  0  0
  -23.7240   -8.3750   22.1140 C   0  0  0  0  0  3  0  0  0  0  0  0
  -22.5370   -8.1700   21.3730 C   0  0  0  0  0  0  0  0  0  0  0  0
  -22.1280   -9.1480   20.4480 C   0  0  0  0  0  3  0  0  0  0  0  0
  -22.8740  -10.3250   20.2750 C   0  0  0  0  0  3  0  0  0  0  0  0
  -21.7640   -7.0360   21.4540 O   0  0  0  0  0  0  0  0  0  0  0  0
  -21.7120   -6.2810   22.5980 C   0  0  0  0  0  0  0  0  0  0  0  0
  -21.2790   -6.8220   23.8280 C   0  0  0  0  0  3  0  0  0  0  0  0
  -21.1730   -5.9930   24.9630 C   0  0  0  0  0  3  0  0  0  0  0  0
  -21.4910   -4.6240   24.8680 C   0  0  0  0  0  0  0  0  0  0  0  0
  -21.9180   -4.0840   23.6430 C   0  0  0  0  0  3  0  0  0  0  0  0
  -22.0250   -4.9100   22.5100 C   0  0  0  0  0  0  0  0  0  0  0  0
  -22.4160   -4.3790   21.3270 F   0  0  0  0  0  0  0  0  0  0  0  0
  -21.3830   -3.8270   25.9560 F   0  0  0  0  0  0  0  0  0  0  0  0
  -22.9720  -13.6620   21.2290 C   0  0  0  0  0  0  0  0  0  0  0  0
  -22.2500  -12.9610   22.0990 N   0  0  0  0  0  0  0  0  0  0  0  0
  -22.5420  -14.7060   20.7420 O   0  0  0  0  0  0  0  0  0  0  0  0
  -22.6100  -12.1160   22.5160 H   0  0  0  0  0  0  0  0  0  0  0  0
  -21.3250  -13.2760   22.3510 H   0  0  0  0  0  0  0  0  0  0  0  0
  -25.6140  -15.2910   20.3820 N   0  0  0  0  0  0  0  0  0  0  0  0
  -24.8590  -15.9550   20.5210 H   0  0  0  0  0  0  0  0  0  0  0  0
  -26.4600  -15.7260   20.0350 H   0  0  0  0  0  0  0  0  0  0  0  0
  -29.1590  -24.3040   20.0440 C   0  0  0  0  0  0  0  0  0  0  0  0
  -29.2330  -23.0320   20.4860 N   0  0  0  0  0  0  0  0  0  0  0  0
  -29.6870  -24.6580   18.9860 O   0  0  0  0  0  0  0  0  0  0  0  0
  -28.7600  -22.7980   21.3480 H   0  0  0  0  0  0  0  0  0  0  0  0
  -28.3850  -25.3250   20.9100 C   0  0  0  0  0  2  0  0  0  0  0  0
  -28.5300  -26.6780   20.4190 O   0  0  0  0  0  0  0  0  0  0  0  0
  -24.6060  -31.8800   23.3130 C   0  0  0  0  0  0  0  0  0  0  0  0
  -27.3660  -27.4170   20.3720 C   0  0  0  0  0  0  0  0  0  0  0  0
  -23.4550  -30.4460   21.6580 C   0  0  0  0  0  3  0  0  0  0  0  0
  -24.9600  -28.9040   20.2930 C   0  0  0  0  0  0  0  0  0  0  0  0
  -25.9830  -30.8270   21.5210 C   0  0  0  0  0  2  0  0  0  0  0  0
  -26.0990  -29.4490   20.9010 C   0  0  0  0  0  0  0  0  0  0  0  0
  -27.3080  -28.7150   20.9330 C   0  0  0  0  0  3  0  0  0  0  0  0
  -26.2140  -26.8910   19.7480 C   0  0  0  0  0  3  0  0  0  0  0  0
  -25.0140  -27.6250   19.7110 C   0  0  0  0  0  3  0  0  0  0  0  0
  -23.7070  -29.7500   20.2940 C   0  0  0  0  0  2  0  0  0  0  0  0
  -24.6980  -31.0670   22.2230 N   0  0  0  0  0  0  0  0  0  0  0  0
  -23.5100  -32.1480   23.8230 O   0  0  0  0  0  0  0  0  0  0  0  0
  -22.7880  -29.4310   22.6170 C   0  0  0  0  0  0  0  0  0  0  0  0
  -21.4730  -29.2220   22.4470 N   0  0  0  0  0  0  0  0  0  0  0  0
  -23.4550  -28.8350   23.4670 O   0  0  0  0  0  0  0  0  0  0  0  0
  -20.9980  -29.7550   21.7330 H   0  0  0  0  0  0  0  0  0  0  0  0
  -18.1120  -27.9470   22.8210 C   0  0  0  0  0  0  0  0  0  0  0  0
  -20.6470  -28.2820   23.2050 C   0  0  0  0  0  3  0  0  0  0  0  0
  -20.8150  -26.8400   22.6780 C   0  0  0  0  0  2  0  0  0  0  0  0
  -19.7720  -26.4580   21.6230 C   0  0  0  0  0  2  0  0  0  0  0  0
  -18.3570  -26.5830   22.1960 C   0  0  0  0  0  2  0  0  0  0  0  0
  -19.1900  -28.7510   23.2820 C   0  0  0  0  0  0  0  0  0  0  0  0
  -18.9100  -30.0240   23.8230 C   0  0  0  0  0  3  0  0  0  0  0  0
  -17.5860  -30.4950   23.9110 C   0  0  0  0  0  3  0  0  0  0  0  0
  -16.5240  -29.6870   23.4690 C   0  0  0  0  0  3  0  0  0  0  0  0
  -16.7880  -28.4160   22.9300 C   0  0  0  0  0  3  0  0  0  0  0  0
  -25.8700  -32.5310   23.9570 C   0  0  0  0  0  3  0  0  0  0  0  0
  -26.3570  -31.7890   25.2630 C   0  0  1  0  0  0  0  0  0  0  0  0
  -25.2340  -31.5610   26.3020 C   0  0  0  0  0  1  0  0  0  0  0  0
  -26.9620  -30.4100   24.9120 C   0  0  0  0  0  1  0  0  0  0  0  0
  -27.4790  -32.6060   25.9450 C   0  0  0  0  0  1  0  0  0  0  0  0
  -25.5470  -33.9330   24.2460 N   0  0  0  0  0  0  0  0  0  0  0  0
  -25.8930  -34.9700   23.4700 C   0  0  0  0  0  0  0  0  0  0  0  0
  -26.5890  -34.8460   22.4590 O   0  0  0  0  0  0  0  0  0  0  0  0
  -24.9330  -34.1050   25.0290 H   0  0  0  0  0  0  0  0  0  0  0  0
  -24.1640  -36.7420   23.0300 C   0  0  0  0  0  1  0  0  0  0  0  0
  -25.3860  -36.3650   23.8810 C   0  0  0  0  0  3  0  0  0  0  0  0
  -27.4910  -37.2870   24.7480 C   0  0  0  0  0  1  0  0  0  0  0  0
  -26.4150  -37.4220   23.7690 N   0  0  0  0  0  0  0  0  0  0  0  0
  -25.9980  -38.3430   23.8820 H   0  0  0  0  0  0  0  0  0  0  0  0
  1 49  1  0
  1  7  1  0
  2  3  1  0
  4  5  1  0
  4  7  2  0
  5  2  2  0
  6  3  2  0
  6  8  1  0
  7  6  1  0
  9 18  1  0
  9  5  1  0
 10 18  1  0
 11 16  1  0
 12 13  1  0
 12 11  1  0
 14 13  1  0
 14 23  1  0
 14 15  1  0
 16 10  1  0
 16 15  1  0
 17 10  2  0
 18 19  1  0
 20 21  2  0
 21 40  1  0
 22 21  1  0
 22 25  1  0
 23 24  1  0
 23 20  1  0
 24 22  2  0
 25 26  1  0
 26 27  2  0
 28 31  1  0
 28 27  1  0
 29 28  2  0
 30 29  1  0
 30 25  2  0
 31 32  1  0
 32 33  1  0
 33 34  2  0
 35 34  1  0
 35 39  1  0
 36 35  2  0
 37 32  2  0
 37 36  1  0
 38 37  1  0
 40 41  1  0
 41 44  1  0
 41 43  1  0
 42 40  2  0
 45 46  1  0
 45 20  1  0
 47 45  1  0
 48 49  1  0
 48 52  1  0
 49 51  1  0
 50 48  2  0
 53 52  1  0
 54 65  2  0
 55 53  1  0
 55 60  1  0
 56 64  1  0
 56 66  1  0
 57 63  1  0
 57 59  1  0
 58 64  1  0
 59 60  2  0
 59 58  1  0
 61 55  2  0
 62 61  1  0
 62 57  2  0
 63 56  1  0
 64 54  1  0
 66 68  2  0
 67 66  1  0
 69 67  1  0
 70 79  2  0
 70 75  1  0
 71 67  1  0
 71 75  1  0
 72 71  1  0
 73 74  1  0
 73 72  1  0
 74 70  1  0
 75 76  2  0
 76 77  1  0
 78 77  2  0
 79 78  1  0
 80 54  1  0
 80 85  1  0
 80 81  1  0
 81 84  1  1
 81 82  1  0
 83 81  1  0
 85 88  1  0
 86 90  1  0
 86 85  1  0
 87 86  2  0
 90 89  1  0
 92 90  1  0
 92 93  1  0
 92 91  1  0
M  ISO  4  10 100  18 100  52 101  53 101
M  END
>  <TORSDO>  (15) 
F 20

>  <SCORE>  (15) 
-13.850

>  <name>  (15) 
14

>  <ligand_id>  (15) 
14

>  <original_smiles>  (15) 
[H]c1c([H])c([H])c2c(c1[H])C([H])([H])C([H])([H])C([H])([H])C2([H])N([H])C(=O)C1([H])N(C(=O)C([H])(N([H])C(=O)C([H])(N([H])C([H])([H])[H])C([H])([H])[H])C(C([H])([H])[H])(C([H])([H])[H])C([H])([H])[H])C([H])([H])c2c([H])c(OC([H])([H])C(=O)N([H])C([H])([H])c3c([H])c(C([H])([H])N([H])C(=O)N4C([H])([H])C([H])([H])C([H])([H])C([H])(n5nc(-c6c([H])c([H])c(Oc7c([H])c([H])c(F)c([H])c7F)c([H])c6[H])c(C(=O)N([H])[H])c5N([H])[H])C4([H])[H])c([H])c([H])c3C([H])([H])[H])c([H])c([H])c2C1([H])[H]

>  <smiles>  (15) 
[H]c1c([H])c([H])c2c(c1[H])C([H])([H])C([H])([H])C([H])([H])C2([H])N([H])C(=O)C1([H])N(C(=O)C([H])(N([H])C(=O)C([H])(N([H])C([H])([H])[H])C([H])([H])[H])C(C([H])([H])[H])(C([H])([H])[H])C([H])([H])[H])C([H])([H])c2c([H])c(OC([H])([H])C(=O)N([H])C([H])([H])c3c([H])c(C([H])([H])N([H])C(=O)N4C([H])([H])C([H])([H])C([H])([H])C([H])(n5nc(-c6c([H])c([H])c(Oc7c([H])c([H])c(F)c([H])c7F)c([H])c6[H])c(C(=O)N([H])[H])c5N([H])[H])C4([H])[H])c([H])c([H])c3C([H])([H])[H])c([H])c([H])c2C1([H])[H]

$$$$
15:0:0
     RDKit          3D

 94103  0  0  1  0  0  0  0  0999 V2000
  -28.2150  -23.9230   20.2000 C   0  0  0  0  0  0  0  0  0  0  0  0
  -30.9430  -24.1450   19.4960 C   0  0  0  0  0  2  0  0  0  0  0  0
  -30.0480  -25.2350   18.8810 C   0  0  0  0  0  2  0  0  0  0  0  0
  -30.2680  -22.7660   19.4020 C   0  0  0  0  0  2  0  0  0  0  0  0
  -28.5910  -25.2590   19.4150 C   0  0  0  0  0  3  0  0  0  0  0  0
  -28.9560  -22.7540   20.0570 N   0  0  0  0  0  0  0  0  0  0  0  0
  -27.1970  -23.9400   20.8990 O   0  0  0  0  0  0  0  0  0  0  0  0
  -28.4070  -26.5470   20.1390 O   0  0  0  0  0  0  0  0  0  0  0  0
  -24.6510  -31.8750   23.2040 C   0  0  0  0  0  0  0  0  0  0  0  0
  -27.2540  -27.3510   20.0720 C   0  0  0  0  0  0  0  0  0  0  0  0
  -23.4360  -30.4930   21.5550 C   0  0  0  0  0  3  0  0  0  0  0  0
  -24.8760  -28.9550   20.1000 C   0  0  0  0  0  0  0  0  0  0  0  0
  -25.9720  -30.8130   21.3590 C   0  0  0  0  0  2  0  0  0  0  0  0
  -26.0450  -29.4410   20.6960 C   0  0  0  0  0  0  0  0  0  0  0  0
  -27.2300  -28.6480   20.6770 C   0  0  0  0  0  3  0  0  0  0  0  0
  -26.0580  -26.9100   19.4640 C   0  0  0  0  0  3  0  0  0  0  0  0
  -24.8840  -27.6940   19.4780 C   0  0  0  0  0  3  0  0  0  0  0  0
  -23.6400  -29.8280   20.1660 C   0  0  0  0  0  2  0  0  0  0  0  0
  -24.7050  -31.0790   22.0950 N   0  0  0  0  0  0  0  0  0  0  0  0
  -23.5730  -32.1480   23.7490 O   0  0  0  0  0  0  0  0  0  0  0  0
  -22.7800  -29.4690   22.5100 C   0  0  0  0  0  0  0  0  0  0  0  0
  -21.4530  -29.2940   22.3910 N   0  0  0  0  0  0  0  0  0  0  0  0
  -23.4640  -28.8360   23.3190 O   0  0  0  0  0  0  0  0  0  0  0  0
  -20.9600  -29.8570   21.7110 H   0  0  0  0  0  0  0  0  0  0  0  0
  -18.0780  -28.0950   22.8980 C   0  0  0  0  0  0  0  0  0  0  0  0
  -20.6380  -28.3490   23.1580 C   0  0  0  0  0  3  0  0  0  0  0  0
  -20.7360  -26.9230   22.5690 C   0  0  0  0  0  2  0  0  0  0  0  0
  -19.6290  -26.6120   21.5560 C   0  0  0  0  0  2  0  0  0  0  0  0
  -18.2500  -26.7520   22.2090 C   0  0  0  0  0  2  0  0  0  0  0  0
  -19.1990  -28.8520   23.3300 C   0  0  0  0  0  0  0  0  0  0  0  0
  -18.9850  -30.1100   23.9350 C   0  0  0  0  0  3  0  0  0  0  0  0
  -17.6810  -30.6100   24.1130 C   0  0  0  0  0  3  0  0  0  0  0  0
  -16.5740  -29.8490   23.6980 C   0  0  0  0  0  3  0  0  0  0  0  0
  -16.7740  -28.5940   23.0960 C   0  0  0  0  0  3  0  0  0  0  0  0
  -25.9400  -32.5000   23.8220 C   0  0  0  0  0  3  0  0  0  0  0  0
  -25.6320  -33.8930   24.1780 N   0  0  0  0  0  0  0  0  0  0  0  0
  -25.9430  -34.9580   23.4280 C   0  0  0  0  0  0  0  0  0  0  0  0
  -26.5890  -34.8720   22.3790 O   0  0  0  0  0  0  0  0  0  0  0  0
  -25.0540  -34.0330   24.9940 H   0  0  0  0  0  0  0  0  0  0  0  0
  -24.1950  -36.7440   23.1450 C   0  0  0  0  0  1  0  0  0  0  0  0
  -25.4600  -36.3370   23.9150 C   0  0  0  0  0  3  0  0  0  0  0  0
  -27.6070  -37.2300   24.7030 C   0  0  0  0  0  1  0  0  0  0  0  0
  -26.4820  -37.3990   23.7880 N   0  0  0  0  0  0  0  0  0  0  0  0
  -26.0730  -38.3140   23.9540 H   0  0  0  0  0  0  0  0  0  0  0  0
  -26.4690  -31.7120   25.0840 C   0  0  1  0  0  0  0  0  0  0  0  0
  -25.3870  -31.4560   26.1590 C   0  0  0  0  0  1  0  0  0  0  0  0
  -27.0520  -30.3410   24.6680 C   0  0  0  0  0  1  0  0  0  0  0  0
  -27.6220  -32.5000   25.7500 C   0  0  0  0  0  1  0  0  0  0  0  0
  -28.4700  -21.4260   20.6050 C   0  0  0  0  0  2  0  0  0  0  0  0
  -29.7090  -19.3530   21.5390 C   0  0  0  0  0  3  0  0  0  0  0  0
  -30.0380  -17.9660   21.5560 C   0  0  0  0  0  3  0  0  0  0  0  0
  -29.3940  -17.7900   19.2510 C   0  0  0  0  0  3  0  0  0  0  0  0
  -29.1480  -20.0010   20.4060 C   0  0  0  0  0  0  0  0  0  0  0  0
  -29.0320  -19.1820   19.2370 C   0  0  0  0  0  0  0  0  0  0  0  0
  -29.8640  -17.1330   20.4220 C   0  0  0  0  0  0  0  0  0  0  0  0
  -28.4440  -19.7490   17.9570 C   0  0  0  0  0  1  0  0  0  0  0  0
  -30.6710  -14.6880   19.9860 C   0  0  0  0  0  0  0  0  0  0  0  0
  -30.4440  -12.4530   18.9070 C   0  0  0  0  0  2  0  0  0  0  0  0
  -29.4160  -12.5850   17.7590 C   0  0  0  0  0  2  0  0  0  0  0  0
  -27.9730  -12.4100   18.2770 C   0  0  0  0  0  2  0  0  0  0  0  0
  -27.6930  -13.2480   19.5520 C   0  0  0  0  0  3  0  0  0  0  0  0
  -28.8210  -13.0650   20.5910 C   0  0  0  0  0  2  0  0  0  0  0  0
  -30.0900  -13.4440   19.9440 N   0  0  0  0  0  0  0  0  0  0  0  0
  -31.7650  -14.9020   19.4530 O   0  0  0  0  0  0  0  0  0  0  0  0
  -29.9310  -15.6760   20.5810 N   0  0  0  0  0  0  0  0  0  0  0  0
  -29.1850  -15.2980   21.1480 H   0  0  0  0  0  0  0  0  0  0  0  0
  -25.3590  -13.8320   20.4640 C   0  0  0  0  0  0  0  0  0  0  0  0
  -24.3140  -13.0500   20.8750 C   0  0  0  0  0  0  0  0  0  0  0  0
  -24.7610  -11.6990   20.7550 C   0  0  0  0  0  0  0  0  0  0  0  0
  -26.3770  -12.9560   20.1180 N   0  0  0  0  0  0  0  0  0  0  0  0
  -26.0250  -11.6650   20.3500 N   0  0  0  0  0  0  0  0  0  0  0  0
  -24.0380  -10.4340   20.9470 C   0  0  0  0  0  0  0  0  0  0  0  0
  -24.4690   -9.4730   21.8870 C   0  0  0  0  0  3  0  0  0  0  0  0
  -23.7490   -8.2720   22.0660 C   0  0  0  0  0  3  0  0  0  0  0  0
  -22.5830   -8.0250   21.3050 C   0  0  0  0  0  0  0  0  0  0  0  0
  -22.1700   -8.9740   20.3540 C   0  0  0  0  0  3  0  0  0  0  0  0
  -22.8910  -10.1650   20.1730 C   0  0  0  0  0  3  0  0  0  0  0  0
  -21.8340   -6.8760   21.3940 O   0  0  0  0  0  0  0  0  0  0  0  0
  -21.7030   -6.1890   22.5740 C   0  0  0  0  0  0  0  0  0  0  0  0
  -21.1650   -6.7940   23.7300 C   0  0  0  0  0  3  0  0  0  0  0  0
  -20.9830   -6.0320   24.9030 C   0  0  0  0  0  3  0  0  0  0  0  0
  -21.3310   -4.6680   24.9190 C   0  0  0  0  0  0  0  0  0  0  0  0
  -21.8630   -4.0640   23.7660 C   0  0  0  0  0  3  0  0  0  0  0  0
  -22.0460   -4.8230   22.5960 C   0  0  0  0  0  0  0  0  0  0  0  0
  -22.5390   -4.2300   21.4820 F   0  0  0  0  0  0  0  0  0  0  0  0
  -21.1500   -3.9350   26.0420 F   0  0  0  0  0  0  0  0  0  0  0  0
  -22.9440  -13.5240   21.2690 C   0  0  0  0  0  0  0  0  0  0  0  0
  -22.2840  -12.8080   22.1730 N   0  0  0  0  0  0  0  0  0  0  0  0
  -22.4700  -14.5610   20.8100 O   0  0  0  0  0  0  0  0  0  0  0  0
  -22.6850  -11.9700   22.5700 H   0  0  0  0  0  0  0  0  0  0  0  0
  -21.3660  -13.1020   22.4740 H   0  0  0  0  0  0  0  0  0  0  0  0
  -25.5230  -15.2080   20.3350 N   0  0  0  0  0  0  0  0  0  0  0  0
  -24.7760  -15.8630   20.5370 H   0  0  0  0  0  0  0  0  0  0  0  0
  -26.3600  -15.6570   19.9840 H   0  0  0  0  0  0  0  0  0  0  0  0
  1  7  2  0
  3  5  1  0
  3  2  1  0
  4  2  1  0
  4  6  1  0
  5  8  1  0
  5  1  1  0
  6  1  1  0
  6 49  1  0
  9 20  2  0
 10  8  1  0
 10 15  1  0
 11 19  1  0
 11 21  1  0
 12 18  1  0
 12 14  1  0
 13 19  1  0
 14 13  1  0
 15 14  2  0
 16 17  1  0
 16 10  2  0
 17 12  2  0
 18 11  1  0
 19  9  1  0
 21 23  2  0
 22 21  1  0
 24 22  1  0
 25 34  2  0
 25 30  1  0
 26 22  1  0
 26 30  1  0
 27 26  1  0
 28 29  1  0
 28 27  1  0
 29 25  1  0
 30 31  2  0
 31 32  1  0
 33 32  2  0
 34 33  1  0
 35  9  1  0
 35 36  1  0
 35 45  1  0
 36 39  1  0
 37 41  1  0
 37 36  1  0
 38 37  2  0
 41 40  1  0
 43 41  1  0
 43 44  1  0
 43 42  1  0
 45 48  1  1
 45 46  1  0
 47 45  1  0
 50 51  1  0
 52 55  1  0
 53 49  1  0
 53 50  2  0
 54 52  2  0
 54 53  1  0
 55 65  1  0
 55 51  2  0
 56 54  1  0
 57 65  1  0
 58 63  1  0
 59 60  1  0
 59 58  1  0
 61 60  1  0
 61 70  1  0
 61 62  1  0
 63 57  1  0
 63 62  1  0
 64 57  2  0
 65 66  1  0
 67 68  2  0
 68 87  1  0
 69 68  1  0
 69 72  1  0
 70 71  1  0
 70 67  1  0
 71 69  2  0
 72 73  1  0
 73 74  2  0
 75 78  1  0
 75 74  1  0
 76 75  2  0
 77 76  1  0
 77 72  2  0
 78 79  1  0
 79 84  2  0
 79 80  1  0
 80 81  2  0
 81 82  1  0
 82 86  1  0
 83 82  2  0
 84 83  1  0
 85 84  1  0
 87 88  1  0
 88 91  1  0
 88 90  1  0
 89 87  2  0
 92 67  1  0
 92 93  1  0
 94 92  1  0
M  ISO  4   5 101   8 101  57 100  65 100
M  END
>  <TORSDO>  (16) 
F 18

>  <SCORE>  (16) 
-14.208

>  <name>  (16) 
15

>  <ligand_id>  (16) 
15

>  <original_smiles>  (16) 
[H]c1c([H])c([H])c2c(c1[H])C([H])([H])C([H])([H])C([H])([H])C2([H])N([H])C(=O)C1([H])N(C(=O)C([H])(N([H])C(=O)C([H])(N([H])C([H])([H])[H])C([H])([H])[H])C(C([H])([H])[H])(C([H])([H])[H])C([H])([H])[H])C([H])([H])c2c([H])c(OC3([H])C(=O)N(C([H])([H])c4c([H])c([H])c(N([H])C(=O)N5C([H])([H])C([H])([H])C([H])([H])C([H])(n6nc(-c7c([H])c([H])c(Oc8c([H])c([H])c(F)c([H])c8F)c([H])c7[H])c(C(=O)N([H])[H])c6N([H])[H])C5([H])[H])c([H])c4C([H])([H])[H])C([H])([H])C([H])([H])C3([H])[H])c([H])c([H])c2C1([H])[H]

>  <smiles>  (16) 
[H]c1c([H])c([H])c2c(c1[H])C([H])([H])C([H])([H])C([H])([H])C2([H])N([H])C(=O)C1([H])N(C(=O)C([H])(N([H])C(=O)C([H])(N([H])C([H])([H])[H])C([H])([H])[H])C(C([H])([H])[H])(C([H])([H])[H])C([H])([H])[H])C([H])([H])c2c([H])c(OC3([H])C(=O)N(C([H])([H])c4c([H])c([H])c(N([H])C(=O)N5C([H])([H])C([H])([H])C([H])([H])C([H])(n6nc(-c7c([H])c([H])c(Oc8c([H])c([H])c(F)c([H])c8F)c([H])c7[H])c(C(=O)N([H])[H])c6N([H])[H])C5([H])[H])c([H])c4C([H])([H])[H])C([H])([H])C([H])([H])C3([H])[H])c([H])c([H])c2C1([H])[H]

$$$$
16:0:0
     RDKit          3D

 94103  0  0  1  0  0  0  0  0999 V2000
  -28.8780  -24.0190   20.7480 C   0  0  0  0  0  0  0  0  0  0  0  0
  -28.2570  -23.4700   17.9630 C   0  0  0  0  0  2  0  0  0  0  0  0
  -28.4940  -24.9210   18.3960 C   0  0  0  0  0  2  0  0  0  0  0  0
  -29.0660  -22.4640   18.8100 C   0  0  0  0  0  2  0  0  0  0  0  0
  -28.1150  -25.0910   19.8710 C   0  0  0  0  0  3  0  0  0  0  0  0
  -29.0950  -22.7390   20.2580 N   0  0  0  0  0  0  0  0  0  0  0  0
  -29.2050  -24.3320   21.8990 O   0  0  0  0  0  0  0  0  0  0  0  0
  -28.2500  -26.5190   20.2700 O   0  0  0  0  0  0  0  0  0  0  0  0
  -24.5820  -31.9440   23.2680 C   0  0  0  0  0  0  0  0  0  0  0  0
  -27.1350  -27.3750   20.1860 C   0  0  0  0  0  0  0  0  0  0  0  0
  -23.3510  -30.5520   21.6440 C   0  0  0  0  0  3  0  0  0  0  0  0
  -24.7760  -29.0020   20.1980 C   0  0  0  0  0  0  0  0  0  0  0  0
  -25.8880  -30.8600   21.4290 C   0  0  0  0  0  2  0  0  0  0  0  0
  -25.9530  -29.4810   20.7840 C   0  0  0  0  0  0  0  0  0  0  0  0
  -27.1330  -28.6770   20.7730 C   0  0  0  0  0  3  0  0  0  0  0  0
  -25.9370  -26.9640   19.5500 C   0  0  0  0  0  3  0  0  0  0  0  0
  -24.7690  -27.7470   19.5720 C   0  0  0  0  0  3  0  0  0  0  0  0
  -23.5440  -29.8790   20.2590 C   0  0  0  0  0  2  0  0  0  0  0  0
  -24.6270  -31.1360   22.1690 N   0  0  0  0  0  0  0  0  0  0  0  0
  -23.5070  -32.2270   23.8170 O   0  0  0  0  0  0  0  0  0  0  0  0
  -22.6970  -29.5370   22.6100 C   0  0  0  0  0  0  0  0  0  0  0  0
  -21.3730  -29.3490   22.4850 N   0  0  0  0  0  0  0  0  0  0  0  0
  -23.3790  -28.9210   23.4330 O   0  0  0  0  0  0  0  0  0  0  0  0
  -20.8800  -29.8940   21.7920 H   0  0  0  0  0  0  0  0  0  0  0  0
  -18.0080  -28.1100   22.9700 C   0  0  0  0  0  0  0  0  0  0  0  0
  -20.5600  -28.4140   23.2640 C   0  0  0  0  0  3  0  0  0  0  0  0
  -20.6880  -26.9730   22.7190 C   0  0  0  0  0  2  0  0  0  0  0  0
  -19.6040  -26.6140   21.6980 C   0  0  0  0  0  2  0  0  0  0  0  0
  -18.2130  -26.7510   22.3230 C   0  0  0  0  0  2  0  0  0  0  0  0
  -19.1110  -28.8980   23.3980 C   0  0  0  0  0  0  0  0  0  0  0  0
  -18.8650  -30.1680   23.9630 C   0  0  0  0  0  3  0  0  0  0  0  0
  -17.5510  -30.6520   24.1050 C   0  0  0  0  0  3  0  0  0  0  0  0
  -16.4630  -29.8620   23.6930 C   0  0  0  0  0  3  0  0  0  0  0  0
  -16.6930  -28.5940   23.1320 C   0  0  0  0  0  3  0  0  0  0  0  0
  -25.8750  -32.5710   23.8730 C   0  0  0  0  0  3  0  0  0  0  0  0
  -25.5820  -33.9770   24.1870 N   0  0  0  0  0  0  0  0  0  0  0  0
  -25.9080  -35.0160   23.4050 C   0  0  0  0  0  0  0  0  0  0  0  0
  -26.5570  -34.8900   22.3630 O   0  0  0  0  0  0  0  0  0  0  0  0
  -25.0050  -34.1500   24.9960 H   0  0  0  0  0  0  0  0  0  0  0  0
  -24.1780  -36.8100   23.0680 C   0  0  0  0  0  1  0  0  0  0  0  0
  -25.4420  -36.4150   23.8500 C   0  0  0  0  0  3  0  0  0  0  0  0
  -27.6030  -37.3050   24.6020 C   0  0  0  0  0  1  0  0  0  0  0  0
  -26.4760  -37.4590   23.6850 N   0  0  0  0  0  0  0  0  0  0  0  0
  -26.0780  -38.3850   23.8230 H   0  0  0  0  0  0  0  0  0  0  0  0
  -26.3920  -31.8120   25.1570 C   0  0  1  0  0  0  0  0  0  0  0  0
  -25.3020  -31.6030   26.2340 C   0  0  0  0  0  1  0  0  0  0  0  0
  -26.9560  -30.4220   24.7820 C   0  0  0  0  0  1  0  0  0  0  0  0
  -27.5530  -32.6040   25.8030 C   0  0  0  0  0  1  0  0  0  0  0  0
  -29.6970  -21.6550   21.1240 C   0  0  0  0  0  2  0  0  0  0  0  0
  -28.5950  -19.3560   20.3650 C   0  0  0  0  0  3  0  0  0  0  0  0
  -28.6450  -17.9330   20.2500 C   0  0  0  0  0  3  0  0  0  0  0  0
  -30.8820  -19.3420   21.0880 C   0  0  0  0  0  3  0  0  0  0  0  0
  -29.7200  -20.1080   20.7900 C   0  0  0  0  0  0  0  0  0  0  0  0
  -30.9380  -17.9170   20.9910 C   0  0  0  0  0  0  0  0  0  0  0  0
  -29.8070  -17.1670   20.5520 C   0  0  0  0  0  0  0  0  0  0  0  0
  -32.2070  -17.2190   21.4460 C   0  0  0  0  0  1  0  0  0  0  0  0
  -30.4710  -14.6870   20.0510 C   0  0  0  0  0  0  0  0  0  0  0  0
  -30.1990  -12.4850   18.9250 C   0  0  0  0  0  2  0  0  0  0  0  0
  -29.1760  -12.6330   17.7770 C   0  0  0  0  0  2  0  0  0  0  0  0
  -27.7340  -12.4660   18.2980 C   0  0  0  0  0  2  0  0  0  0  0  0
  -27.4550  -13.3050   19.5730 C   0  0  0  0  0  3  0  0  0  0  0  0
  -28.5780  -13.1070   20.6160 C   0  0  0  0  0  2  0  0  0  0  0  0
  -29.8500  -13.4690   19.9700 N   0  0  0  0  0  0  0  0  0  0  0  0
  -31.5890  -14.8630   19.5600 O   0  0  0  0  0  0  0  0  0  0  0  0
  -29.6980  -15.7060   20.5500 N   0  0  0  0  0  0  0  0  0  0  0  0
  -28.7870  -15.3690   20.8220 H   0  0  0  0  0  0  0  0  0  0  0  0
  -25.1150  -13.9040   20.4520 C   0  0  0  0  0  0  0  0  0  0  0  0
  -24.0670  -13.1270   20.8700 C   0  0  0  0  0  0  0  0  0  0  0  0
  -24.5180  -11.7750   20.7790 C   0  0  0  0  0  0  0  0  0  0  0  0
  -26.1360  -13.0230   20.1310 N   0  0  0  0  0  0  0  0  0  0  0  0
  -25.7870  -11.7370   20.3880 N   0  0  0  0  0  0  0  0  0  0  0  0
  -23.7990  -10.5120   20.9840 C   0  0  0  0  0  0  0  0  0  0  0  0
  -24.2580   -9.5400   21.8980 C   0  0  0  0  0  3  0  0  0  0  0  0
  -23.5390   -8.3400   22.0890 C   0  0  0  0  0  3  0  0  0  0  0  0
  -22.3450   -8.1060   21.3660 C   0  0  0  0  0  0  0  0  0  0  0  0
  -21.9030   -9.0680   20.4410 C   0  0  0  0  0  3  0  0  0  0  0  0
  -22.6240  -10.2580   20.2480 C   0  0  0  0  0  3  0  0  0  0  0  0
  -21.5940   -6.9600   21.4680 O   0  0  0  0  0  0  0  0  0  0  0  0
  -21.5590   -6.2240   22.6260 C   0  0  0  0  0  0  0  0  0  0  0  0
  -21.1410   -6.7870   23.8530 C   0  0  0  0  0  3  0  0  0  0  0  0
  -21.0510   -5.9780   25.0030 C   0  0  0  0  0  3  0  0  0  0  0  0
  -21.3690   -4.6080   24.9290 C   0  0  0  0  0  0  0  0  0  0  0  0
  -21.7770   -4.0460   23.7080 C   0  0  0  0  0  3  0  0  0  0  0  0
  -21.8690   -4.8520   22.5590 C   0  0  0  0  0  0  0  0  0  0  0  0
  -22.2440   -4.3000   21.3790 F   0  0  0  0  0  0  0  0  0  0  0  0
  -21.2750   -3.8300   26.0320 F   0  0  0  0  0  0  0  0  0  0  0  0
  -22.6930  -13.6060   21.2400 C   0  0  0  0  0  0  0  0  0  0  0  0
  -22.0130  -12.8900   22.1290 N   0  0  0  0  0  0  0  0  0  0  0  0
  -22.2330  -14.6480   20.7770 O   0  0  0  0  0  0  0  0  0  0  0  0
  -22.3980  -12.0470   22.5270 H   0  0  0  0  0  0  0  0  0  0  0  0
  -21.0940  -13.1930   22.4190 H   0  0  0  0  0  0  0  0  0  0  0  0
  -25.2770  -15.2770   20.2960 N   0  0  0  0  0  0  0  0  0  0  0  0
  -24.5170  -15.9280   20.4630 H   0  0  0  0  0  0  0  0  0  0  0  0
  -26.0860  -15.7150   19.8770 H   0  0  0  0  0  0  0  0  0  0  0  0
  1  7  2  0
  2  3  1  0
  2  4  1  0
  3  5  1  0
  4  6  1  0
  5  8  1  0
  5  1  1  0
  6  1  1  0
  6 49  1  0
  9 20  2  0
 10  8  1  0
 10 15  1  0
 11 19  1  0
 11 21  1  0
 12 18  1  0
 12 14  1  0
 13 19  1  0
 14 13  1  0
 15 14  2  0
 16 17  1  0
 16 10  2  0
 17 12  2  0
 18 11  1  0
 19  9  1  0
 21 23  2  0
 22 21  1  0
 24 22  1  0
 25 34  2  0
 25 30  1  0
 26 22  1  0
 26 30  1  0
 27 26  1  0
 28 29  1  0
 28 27  1  0
 29 25  1  0
 30 31  2  0
 31 32  1  0
 33 32  2  0
 34 33  1  0
 35  9  1  0
 35 36  1  0
 35 45  1  0
 36 39  1  0
 37 41  1  0
 37 36  1  0
 38 37  2  0
 41 40  1  0
 43 44  1  0
 43 41  1  0
 43 42  1  0
 45 48  1  1
 45 46  1  0
 47 45  1  0
 50 53  1  0
 51 50  2  0
 51 55  1  0
 53 52  2  0
 53 49  1  0
 54 52  1  0
 54 56  1  0
 55 54  2  0
 57 65  1  0
 58 63  1  0
 59 60  1  0
 59 58  1  0
 61 60  1  0
 61 70  1  0
 61 62  1  0
 63 57  1  0
 63 62  1  0
 64 57  2  0
 65 55  1  0
 65 66  1  0
 67 68  2  0
 68 87  1  0
 69 68  1  0
 69 72  1  0
 70 71  1  0
 70 67  1  0
 71 69  2  0
 72 73  1  0
 73 74  2  0
 75 78  1  0
 75 74  1  0
 76 75  2  0
 77 76  1  0
 77 72  2  0
 78 79  1  0
 79 80  1  0
 80 81  2  0
 82 81  1  0
 82 86  1  0
 83 82  2  0
 84 79  2  0
 84 83  1  0
 85 84  1  0
 87 88  1  0
 88 91  1  0
 88 90  1  0
 89 87  2  0
 92 67  1  0
 92 93  1  0
 94 92  1  0
M  ISO  4   5 101   8 101  57 100  65 100
M  END
>  <TORSDO>  (17) 
F 18

>  <SCORE>  (17) 
-14.268

>  <name>  (17) 
16

>  <ligand_id>  (17) 
16

>  <original_smiles>  (17) 
[H]c1c([H])c([H])c2c(c1[H])C([H])([H])C([H])([H])C([H])([H])C2([H])N([H])C(=O)C1([H])N(C(=O)C([H])(N([H])C(=O)C([H])(N([H])C([H])([H])[H])C([H])([H])[H])C(C([H])([H])[H])(C([H])([H])[H])C([H])([H])[H])C([H])([H])c2c([H])c(OC3([H])C(=O)N(C([H])([H])c4c([H])c([H])c(N([H])C(=O)N5C([H])([H])C([H])([H])C([H])([H])C([H])(n6nc(-c7c([H])c([H])c(Oc8c([H])c([H])c(F)c([H])c8F)c([H])c7[H])c(C(=O)N([H])[H])c6N([H])[H])C5([H])[H])c(C([H])([H])[H])c4[H])C([H])([H])C([H])([H])C3([H])[H])c([H])c([H])c2C1([H])[H]

>  <smiles>  (17) 
[H]c1c([H])c([H])c2c(c1[H])C([H])([H])C([H])([H])C([H])([H])C2([H])N([H])C(=O)C1([H])N(C(=O)C([H])(N([H])C(=O)C([H])(N([H])C([H])([H])[H])C([H])([H])[H])C(C([H])([H])[H])(C([H])([H])[H])C([H])([H])[H])C([H])([H])c2c([H])c(OC3([H])C(=O)N(C([H])([H])c4c([H])c([H])c(N([H])C(=O)N5C([H])([H])C([H])([H])C([H])([H])C([H])(n6nc(-c7c([H])c([H])c(Oc8c([H])c([H])c(F)c([H])c8F)c([H])c7[H])c(C(=O)N([H])[H])c6N([H])[H])C5([H])[H])c(C([H])([H])[H])c4[H])C([H])([H])C([H])([H])C3([H])[H])c([H])c([H])c2C1([H])[H]

$$$$
17:0:0
     RDKit          3D

 95104  0  0  1  0  0  0  0  0999 V2000
  -29.0550  -24.0490   19.7120 C   0  0  0  0  0  0  0  0  0  0  0  0
  -29.3740  -23.7390   22.5060 C   0  0  0  0  0  2  0  0  0  0  0  0
  -28.5250  -24.9610   22.1030 C   0  0  0  0  0  2  0  0  0  0  0  0
  -29.0620  -22.5050   21.6370 C   0  0  0  0  0  2  0  0  0  0  0  0
  -28.2610  -25.1120   20.5830 C   0  0  0  0  0  3  0  0  0  0  0  0
  -29.3030  -22.7800   20.2170 N   0  0  0  0  0  0  0  0  0  0  0  0
  -29.3990  -24.3650   18.5700 O   0  0  0  0  0  0  0  0  0  0  0  0
  -28.4250  -26.5410   20.1930 O   0  0  0  0  0  0  0  0  0  0  0  0
  -24.6480  -31.9120   23.2320 C   0  0  0  0  0  0  0  0  0  0  0  0
  -27.2890  -27.3680   20.1860 C   0  0  0  0  0  0  0  0  0  0  0  0
  -23.4490  -30.4950   21.6050 C   0  0  0  0  0  3  0  0  0  0  0  0
  -24.9070  -28.9530   20.1760 C   0  0  0  0  0  0  0  0  0  0  0  0
  -25.9850  -30.8330   21.4130 C   0  0  0  0  0  2  0  0  0  0  0  0
  -26.0730  -29.4560   20.7670 C   0  0  0  0  0  0  0  0  0  0  0  0
  -27.2670  -28.6760   20.7590 C   0  0  0  0  0  3  0  0  0  0  0  0
  -26.1040  -26.9190   19.5630 C   0  0  0  0  0  3  0  0  0  0  0  0
  -24.9240  -27.6900   19.5620 C   0  0  0  0  0  3  0  0  0  0  0  0
  -23.6620  -29.8150   20.2270 C   0  0  0  0  0  2  0  0  0  0  0  0
  -24.7120  -31.1000   22.1380 N   0  0  0  0  0  0  0  0  0  0  0  0
  -23.5640  -32.1830   23.7690 O   0  0  0  0  0  0  0  0  0  0  0  0
  -22.7980  -29.4790   22.5720 C   0  0  0  0  0  0  0  0  0  0  0  0
  -21.4720  -29.2950   22.4540 N   0  0  0  0  0  0  0  0  0  0  0  0
  -23.4860  -28.8560   23.3870 O   0  0  0  0  0  0  0  0  0  0  0  0
  -20.9770  -29.8460   21.7660 H   0  0  0  0  0  0  0  0  0  0  0  0
  -18.1030  -28.0830   22.9700 C   0  0  0  0  0  0  0  0  0  0  0  0
  -20.6600  -28.3580   23.2300 C   0  0  0  0  0  3  0  0  0  0  0  0
  -20.7700  -26.9250   22.6620 C   0  0  0  0  0  2  0  0  0  0  0  0
  -19.6650  -26.5910   21.6530 C   0  0  0  0  0  2  0  0  0  0  0  0
  -18.2840  -26.7330   22.3000 C   0  0  0  0  0  2  0  0  0  0  0  0
  -19.2180  -28.8540   23.3920 C   0  0  0  0  0  0  0  0  0  0  0  0
  -18.9930  -30.1190   23.9770 C   0  0  0  0  0  3  0  0  0  0  0  0
  -17.6860  -30.6120   24.1480 C   0  0  0  0  0  3  0  0  0  0  0  0
  -16.5850  -29.8390   23.7430 C   0  0  0  0  0  3  0  0  0  0  0  0
  -16.7950  -28.5770   23.1590 C   0  0  0  0  0  3  0  0  0  0  0  0
  -25.9290  -32.5550   23.8450 C   0  0  0  0  0  3  0  0  0  0  0  0
  -25.6070  -33.9510   24.1810 N   0  0  0  0  0  0  0  0  0  0  0  0
  -25.9220  -35.0090   23.4240 C   0  0  0  0  0  0  0  0  0  0  0  0
  -26.5840  -34.9160   22.3860 O   0  0  0  0  0  0  0  0  0  0  0  0
  -25.0210  -34.0970   24.9900 H   0  0  0  0  0  0  0  0  0  0  0  0
  -24.1710  -36.7830   23.0950 C   0  0  0  0  0  1  0  0  0  0  0  0
  -25.4250  -36.3910   23.8920 C   0  0  0  0  0  3  0  0  0  0  0  0
  -27.5580  -37.2950   24.7030 C   0  0  0  0  0  1  0  0  0  0  0  0
  -26.4450  -37.4550   23.7720 N   0  0  0  0  0  0  0  0  0  0  0  0
  -26.0300  -38.3710   23.9280 H   0  0  0  0  0  0  0  0  0  0  0  0
  -26.4610  -31.7880   25.1190 C   0  0  1  0  0  0  0  0  0  0  0  0
  -25.3760  -31.5370   26.1920 C   0  0  0  0  0  1  0  0  0  0  0  0
  -27.0570  -30.4170   24.7230 C   0  0  0  0  0  1  0  0  0  0  0  0
  -27.6070  -32.5960   25.7740 C   0  0  0  0  0  1  0  0  0  0  0  0
  -29.9750  -21.6930   19.4090 C   0  0  0  0  0  2  0  0  0  0  0  0
  -31.2790  -19.5420   20.1470 C   0  0  0  0  0  3  0  0  0  0  0  0
  -28.9350  -19.3070   19.7670 C   0  0  0  0  0  3  0  0  0  0  0  0
  -30.0460  -20.1730   19.8390 C   0  0  0  0  0  0  0  0  0  0  0  0
  -31.4080  -18.1330   20.3710 C   0  0  0  0  0  0  0  0  0  0  0  0
  -29.0440  -17.8970   19.9800 C   0  0  0  0  0  0  0  0  0  0  0  0
  -30.2820  -17.2450   20.2830 C   0  0  0  0  0  0  0  0  0  0  0  0
  -32.8010  -17.6310   20.7180 C   0  0  0  0  0  1  0  0  0  0  0  0
  -27.7780  -17.0900   19.8870 C   0  0  0  0  0  1  0  0  0  0  0  0
  -30.7680  -14.7340   19.9340 C   0  0  0  0  0  0  0  0  0  0  0  0
  -30.3630  -12.5250   18.8300 C   0  0  0  0  0  2  0  0  0  0  0  0
  -29.3450  -12.6670   17.6800 C   0  0  0  0  0  2  0  0  0  0  0  0
  -27.9100  -12.4790   18.2060 C   0  0  0  0  0  2  0  0  0  0  0  0
  -27.6350  -13.3110   19.4850 C   0  0  0  0  0  3  0  0  0  0  0  0
  -28.7790  -13.1990   20.5180 C   0  0  0  0  0  2  0  0  0  0  0  0
  -30.0500  -13.5540   19.8550 N   0  0  0  0  0  0  0  0  0  0  0  0
  -31.8140  -14.8390   19.2910 O   0  0  0  0  0  0  0  0  0  0  0  0
  -30.3900  -15.6390   22.1440 C   0  0  0  0  0  1  0  0  0  0  0  0
  -30.3140  -15.8110   20.6870 N   0  0  0  0  0  0  0  0  0  0  0  0
  -25.2920  -13.8510   20.4070 C   0  0  0  0  0  0  0  0  0  0  0  0
  -24.2700  -13.0590   20.8430 C   0  0  0  0  0  0  0  0  0  0  0  0
  -24.7430  -11.7180   20.7400 C   0  0  0  0  0  0  0  0  0  0  0  0
  -26.3320  -12.9960   20.0700 N   0  0  0  0  0  0  0  0  0  0  0  0
  -26.0080  -11.7030   20.3300 N   0  0  0  0  0  0  0  0  0  0  0  0
  -24.0410  -10.4460   20.9500 C   0  0  0  0  0  0  0  0  0  0  0  0
  -24.5010   -9.4950   21.8860 C   0  0  0  0  0  3  0  0  0  0  0  0
  -23.7960   -8.2890   22.0880 C   0  0  0  0  0  3  0  0  0  0  0  0
  -22.6140   -8.0280   21.3540 C   0  0  0  0  0  0  0  0  0  0  0  0
  -22.1710   -8.9690   20.4070 C   0  0  0  0  0  3  0  0  0  0  0  0
  -22.8780  -10.1650   20.2030 C   0  0  0  0  0  3  0  0  0  0  0  0
  -21.8770   -6.8740   21.4630 O   0  0  0  0  0  0  0  0  0  0  0  0
  -21.8000   -6.1790   22.6430 C   0  0  0  0  0  0  0  0  0  0  0  0
  -21.3270   -6.7780   23.8310 C   0  0  0  0  0  3  0  0  0  0  0  0
  -21.1950   -6.0070   25.0040 C   0  0  0  0  0  3  0  0  0  0  0  0
  -21.5300   -4.6410   24.9890 C   0  0  0  0  0  0  0  0  0  0  0  0
  -22.0010   -4.0420   23.8070 C   0  0  0  0  0  3  0  0  0  0  0  0
  -22.1310   -4.8100   22.6370 C   0  0  0  0  0  0  0  0  0  0  0  0
  -22.5640   -4.2230   21.4940 F   0  0  0  0  0  0  0  0  0  0  0  0
  -21.3970   -3.8990   26.1140 F   0  0  0  0  0  0  0  0  0  0  0  0
  -22.8960  -13.5220   21.2350 C   0  0  0  0  0  0  0  0  0  0  0  0
  -22.2460  -12.8100   22.1500 N   0  0  0  0  0  0  0  0  0  0  0  0
  -22.4090  -14.5520   20.7680 O   0  0  0  0  0  0  0  0  0  0  0  0
  -22.6530  -11.9790   22.5510 H   0  0  0  0  0  0  0  0  0  0  0  0
  -21.3280  -13.1030   22.4530 H   0  0  0  0  0  0  0  0  0  0  0  0
  -25.3920  -15.2240   20.2470 N   0  0  0  0  0  0  0  0  0  0  0  0
  -24.6030  -15.8340   20.4330 H   0  0  0  0  0  0  0  0  0  0  0  0
  -26.1850  -15.7050   19.8440 H   0  0  0  0  0  0  0  0  0  0  0  0
  1  6  1  0
  1  5  1  0
  3  2  1  0
  4  2  1  0
  5  8  1  0
  5  3  1  0
  6  4  1  0
  7  1  2  0
  9 20  2  0
 10  8  1  0
 10 15  1  0
 11 19  1  0
 11 21  1  0
 12 18  1  0
 12 14  1  0
 13 19  1  0
 14 13  1  0
 15 14  2  0
 16 10  2  0
 17 16  1  0
 17 12  2  0
 18 11  1  0
 19  9  1  0
 21 23  2  0
 22 21  1  0
 24 22  1  0
 25 34  2  0
 25 30  1  0
 26 22  1  0
 26 30  1  0
 27 26  1  0
 28 29  1  0
 28 27  1  0
 29 25  1  0
 30 31  2  0
 31 32  1  0
 33 32  2  0
 34 33  1  0
 35  9  1  0
 35 36  1  0
 35 45  1  0
 36 39  1  0
 37 41  1  0
 37 36  1  0
 38 37  2  0
 41 40  1  0
 43 41  1  0
 43 44  1  0
 43 42  1  0
 45 48  1  1
 45 46  1  0
 47 45  1  0
 49 52  1  0
 49  6  1  0
 50 53  1  0
 51 52  1  0
 51 54  2  0
 52 50  2  0
 53 56  1  0
 54 55  1  0
 55 53  2  0
 55 67  1  0
 57 54  1  0
 58 67  1  0
 59 64  1  0
 60 61  1  0
 60 59  1  0
 62 61  1  0
 62 71  1  0
 62 63  1  0
 64 58  1  0
 64 63  1  0
 65 58  2  0
 67 66  1  0
 68 69  2  0
 69 88  1  0
 70 69  1  0
 70 73  1  0
 71 72  1  0
 71 68  1  0
 72 70  2  0
 73 74  1  0
 74 75  2  0
 76 79  1  0
 76 75  1  0
 77 76  2  0
 78 77  1  0
 78 73  2  0
 79 80  1  0
 80 81  1  0
 81 82  2  0
 83 82  1  0
 83 87  1  0
 84 83  2  0
 85 80  2  0
 85 84  1  0
 86 85  1  0
 88 89  1  0
 89 92  1  0
 89 91  1  0
 90 88  2  0
 93 68  1  0
 93 94  1  0
 95 93  1  0
M  ISO  4   5 101   8 101  58 100  67 100
M  END
>  <TORSDO>  (18) 
F 18

>  <SCORE>  (18) 
-14.249

>  <name>  (18) 
17

>  <ligand_id>  (18) 
17

>  <original_smiles>  (18) 
[H]c1c([H])c([H])c2c(c1[H])C([H])([H])C([H])([H])C([H])([H])C2([H])N([H])C(=O)C1([H])N(C(=O)C([H])(N([H])C(=O)C([H])(N([H])C([H])([H])[H])C([H])([H])[H])C(C([H])([H])[H])(C([H])([H])[H])C([H])([H])[H])C([H])([H])c2c([H])c(OC3([H])C(=O)N(C([H])([H])c4c([H])c(C([H])([H])[H])c(N(C(=O)N5C([H])([H])C([H])([H])C([H])([H])C([H])(n6nc(-c7c([H])c([H])c(Oc8c([H])c([H])c(F)c([H])c8F)c([H])c7[H])c(C(=O)N([H])[H])c6N([H])[H])C5([H])[H])C([H])([H])[H])c(C([H])([H])[H])c4[H])C([H])([H])C([H])([H])C3([H])[H])c([H])c([H])c2C1([H])[H]

>  <smiles>  (18) 
[H]c1c([H])c([H])c2c(c1[H])C([H])([H])C([H])([H])C([H])([H])C2([H])N([H])C(=O)C1([H])N(C(=O)C([H])(N([H])C(=O)C([H])(N([H])C([H])([H])[H])C([H])([H])[H])C(C([H])([H])[H])(C([H])([H])[H])C([H])([H])[H])C([H])([H])c2c([H])c(OC3([H])C(=O)N(C([H])([H])c4c([H])c(C([H])([H])[H])c(N(C(=O)N5C([H])([H])C([H])([H])C([H])([H])C([H])(n6nc(-c7c([H])c([H])c(Oc8c([H])c([H])c(F)c([H])c8F)c([H])c7[H])c(C(=O)N([H])[H])c6N([H])[H])C5([H])[H])C([H])([H])[H])c(C([H])([H])[H])c4[H])C([H])([H])C([H])([H])C3([H])[H])c([H])c([H])c2C1([H])[H]

$$$$
18:0:0
     RDKit          3D

105106  0  0  1  0  0  0  0  0999 V2000
  -22.7550  -27.7200   20.2660 C   0  0  0  0  0  2  0  0  0  0  0  0
  -25.2980  -31.4220   21.9410 C   0  0  0  0  0 15  0  0  0  0  0  0
  -27.0150  -30.0610   21.0050 C   0  0  0  0  0  1  0  0  0  0  0  0
  -23.3500  -30.6020   22.7290 C   0  0  0  0  0 15  0  0  0  0  0  0
  -26.4410  -27.9840   20.3450 C   0  0  0  0  0 15  0  0  0  0  0  0
  -22.3990  -28.5730   22.7710 C   0  0  0  0  0 15  0  0  0  0  0  0
  -20.3120  -27.8650   18.7250 C   0  0  0  0  0  1  0  0  0  0  0  0
  -24.6000  -27.4010   19.4550 N   0  0  0  0  0  2  0  0  0  0  0  0
  -21.2760  -27.6800   19.8450 N   0  0  0  0  0  0  0  0  0  0  0  0
  -20.7170  -27.6260   20.6850 H   0  0  0  0  0  0  0  0  0  0  0  0
  -22.8250  -26.7100   24.0730 C   0  0  0  0  0  3  0  0  0  0  0  0
  -23.6500  -25.1890   23.5830 N   0  0  0  0  0  2  0  0  0  0  0  0
  -22.3460  -26.7200   25.2060 O   0  0  0  0  0  0  0  0  0  0  0  0
  -23.4410  -24.5770   24.3620 H   0  0  0  0  0  0  0  0  0  0  0  0
  -25.0370  -24.1170   22.4770 C   0  0  0  0  0  1  0  0  0  0  0  0
  -27.1810  -22.0960   20.1530 C   0  0  0  0  0  3  0  0  0  0  0  0
  -25.0530  -23.0010   19.6120 C   0  0  0  0  0  3  0  0  0  0  0  0
  -26.5330  -21.5550   17.9420 C   0  0  0  0  0  3  0  0  0  0  0  0
  -25.8340  -23.0360   20.8070 C   0  0  0  0  0  3  0  0  0  0  0  0
  -27.7100  -21.2550   18.6930 C   0  0  0  0  0  3  0  0  0  0  0  0
  -25.3690  -22.3390   18.3470 C   0  0  0  0  0  0  0  0  0  0  0  0
  -24.1610  -22.5160   17.1290 Cl  0  0  0  0  0  0  0  0  0  0  0  0
  -29.2420  -20.1270   17.6980 C   0  0  0  0  0 15  0  0  0  0  0  0
  -31.2960  -18.3680   15.1580 C   0  0  0  0  0  0  0  0  0  0  0  0
  -32.8300  -17.4720   12.8710 C   0  0  0  0  0  2  0  0  0  0  0  0
  -33.4830  -18.4020   11.7560 C   0  0  0  0  0  2  0  0  0  0  0  0
  -32.4270  -19.0130   10.8290 C   0  0  0  0  0  2  0  0  0  0  0  0
  -31.1880  -19.3060   11.6850 C   0  0  0  0  0  3  0  0  0  0  0  0
  -30.6720  -18.1340   12.5360 C   0  0  0  0  0  2  0  0  0  0  0  0
  -31.5780  -18.0670   13.6780 N   0  0  0  0  0  0  0  0  0  0  0  0
  -32.2600  -17.6530   15.6100 O   0  0  0  0  0  0  0  0  0  0  0  0
  -30.1770  -19.3780   16.0370 N   0  0  0  0  0  2  0  0  0  0  0  0
  -29.6730  -19.8270   15.2840 H   0  0  0  0  0  0  0  0  0  0  0  0
  -29.6380  -21.1740   11.1380 C   0  0  0  0  0  0  0  0  0  0  0  0
  -28.5820  -21.2790   10.2880 C   0  0  0  0  0  0  0  0  0  0  0  0
  -28.4380  -19.9960    9.6700 C   0  0  0  0  0  0  0  0  0  0  0  0
  -30.0870  -19.8820   10.9870 N   0  0  0  0  0  0  0  0  0  0  0  0
  -29.3220  -19.1370   10.1580 N   0  0  0  0  0  0  0  0  0  0  0  0
  -27.5500  -19.5580    8.5940 C   0  0  0  0  0  0  0  0  0  0  0  0
  -26.5190  -18.6190    8.8200 C   0  0  0  0  0  3  0  0  0  0  0  0
  -25.6640  -18.2350    7.7650 C   0  0  0  0  0  3  0  0  0  0  0  0
  -25.8350  -18.7940    6.4760 C   0  0  0  0  0  0  0  0  0  0  0  0
  -26.8780  -19.7080    6.2540 C   0  0  0  0  0  3  0  0  0  0  0  0
  -27.7310  -20.0860    7.3020 C   0  0  0  0  0  3  0  0  0  0  0  0
  -25.0660  -18.4650    5.3860 O   0  0  0  0  0  0  0  0  0  0  0  0
  -23.7460  -18.1230    5.5150 C   0  0  0  0  0  0  0  0  0  0  0  0
  -22.7620  -19.0670    5.8820 C   0  0  0  0  0  3  0  0  0  0  0  0
  -21.4070  -18.6880    5.9340 C   0  0  0  0  0  3  0  0  0  0  0  0
  -21.0310  -17.3700    5.6120 C   0  0  0  0  0  0  0  0  0  0  0  0
  -22.0070  -16.4300    5.2410 C   0  0  0  0  0  3  0  0  0  0  0  0
  -23.3610  -16.8070    5.1910 C   0  0  0  0  0  0  0  0  0  0  0  0
  -24.2970  -15.9030    4.8130 F   0  0  0  0  0  0  0  0  0  0  0  0
  -19.7270  -17.0070    5.6540 F   0  0  0  0  0  0  0  0  0  0  0  0
  -27.8250  -22.5330    9.9930 C   0  0  0  0  0  0  0  0  0  0  0  0
  -26.5050  -22.4410    9.9090 N   0  0  0  0  0  0  0  0  0  0  0  0
  -28.4040  -23.6140    9.8900 O   0  0  0  0  0  0  0  0  0  0  0  0
  -26.0360  -21.5540   10.0130 H   0  0  0  0  0  0  0  0  0  0  0  0
  -25.9530  -23.2690    9.7380 H   0  0  0  0  0  0  0  0  0  0  0  0
  -30.2750  -22.0610   12.0080 N   0  0  0  0  0  0  0  0  0  0  0  0
  -30.0190  -23.0430   12.0350 H   0  0  0  0  0  0  0  0  0  0  0  0
  -31.1910  -21.8810   12.3990 H   0  0  0  0  0  0  0  0  0  0  0  0
  -24.5230  -27.9810   16.6200 C   0  0  0  0  0  1  0  0  0  0  0  0
  -25.8260  -27.5320   14.3480 C   0  0  0  0  0  1  0  0  0  0  0  0
  -25.9850  -27.7630   15.8650 C   0  0  0  0  0  3  0  0  0  0  0  0
  -26.7900  -26.6950   16.4820 O   0  0  0  0  0  0  0  0  0  0  0  0
  -25.8120  -28.3770   23.3090 C   0  0  0  0  0  0  0  0  0  0  0  0
  -26.2380  -26.8510   17.6640 C   0  0  0  0  0  3  0  0  0  0  0  0
  -24.2060  -28.2150   21.5340 C   0  0  0  0  0  3  0  0  0  0  0  0
  -23.5680  -28.8230   18.8220 C   0  0  1  0  0  0  0  0  0  0  0  0
  -25.2290  -29.8350   20.4220 C   0  0  0  0  0  3  0  0  0  0  0  0
  -25.2100  -29.3990   18.9510 C   0  0  0  0  0  3  0  0  0  0  0  0
  -26.5740  -28.4520   18.2970 C   0  0  0  0  0  2  0  0  0  0  0  0
  -24.6400  -26.1690   17.5770 C   0  0  0  0  0  2  0  0  0  0  0  0
  -23.2990  -27.1610   18.0670 C   0  0  0  0  0  3  0  0  0  0  0  0
  -23.0790  -29.1710   20.3650 C   0  0  0  0  0  3  0  0  0  0  0  0
  -25.1440  -28.7100   21.9010 N   0  0  0  0  0  0  0  0  0  0  0  0
  -25.1360  -27.9590   24.2450 O   0  0  0  0  0  0  0  0  0  0  0  0
  -24.1660  -26.2680   21.6720 C   0  0  0  0  0  3  0  0  0  0  0  0
  -22.7690  -25.6410   21.2730 N   0  0  0  0  0  0  0  0  0  0  0  0
  -25.1050  -25.6630   22.1220 O   0  0  0  0  0  0  0  0  0  0  0  0
  -23.0040  -24.6870   21.0260 H   0  0  0  0  0  0  0  0  0  0  0  0
  -18.4070  -25.6570   22.0330 C   0  0  0  0  0  0  0  0  0  0  0  0
  -21.1120  -25.4900   21.7660 C   0  0  0  0  0  3  0  0  0  0  0  0
  -20.8370  -24.1010   21.3390 C   0  0  0  0  0  2  0  0  0  0  0  0
  -19.5570  -24.0020   20.5770 C   0  0  0  0  0  2  0  0  0  0  0  0
  -18.3940  -24.2490   21.5140 C   0  0  0  0  0  2  0  0  0  0  0  0
  -19.6590  -26.3640   22.1450 C   0  0  0  0  0  0  0  0  0  0  0  0
  -19.4090  -27.6960   22.6940 C   0  0  0  0  0  3  0  0  0  0  0  0
  -18.1180  -28.2460   22.9780 C   0  0  0  0  0  3  0  0  0  0  0  0
  -16.9550  -27.4810   22.8150 C   0  0  0  0  0  3  0  0  0  0  0  0
  -17.1210  -26.1730   22.3600 C   0  0  0  0  0  3  0  0  0  0  0  0
  -27.2070  -28.9030   23.9730 C   0  0  0  0  0  0  0  0  0  0  0  0
  -27.2270  -30.1250   24.8620 N   0  0  0  0  0  4  0  0  0  0  0  0
  -27.9860  -31.2670   24.7530 C   0  0  0  0  0  0  0  0  0  0  0  0
  -28.7130  -31.5330   23.7840 O   0  0  0  0  0  0  0  0  0  0  0  0
  -26.6030  -30.0780   25.6540 H   0  0  0  0  0  0  0  0  0  0  0  0
  -26.9450  -33.5400   25.2660 C   0  0  0  0  0  1  0  0  0  0  0  0
  -27.8040  -32.3810   25.8120 C   0  0  0  0  0  3  0  0  0  0  0  0
  -29.8200  -32.0000   27.1580 C   0  0  0  0  0  1  0  0  0  0  0  0
  -29.0860  -32.9320   26.3090 N   0  0  0  0  0  0  0  0  0  0  0  0
  -28.9290  -33.7870   26.8340 H   0  0  0  0  0  0  0  0  0  0  0  0
  -28.0730  -27.7090   24.3930 C   0  0  1  0  0  0  0  0  0  0  0  0
  -27.6110  -27.1640   25.7450 C   0  0  0  0  0  1  0  0  0  0  0  0
  -28.0040  -26.5650   23.3470 C   0  0  0  0  0  1  0  0  0  0  0  0
  -29.5770  -28.0980   24.4630 C   0  0  0  0  0  1  0  0  0  0  0  0
  7  9  1  0
  9  1  1  0
  9 10  1  0
 11 13  2  0
 12 11  1  0
 12 14  1  0
 16 19  1  0
 17 19  2  0
 18 21  2  0
 18 20  1  0
 20 16  2  0
 21 17  1  0
 22 21  1  0
 24 31  2  0
 24 32  1  0
 25 30  1  0
 26 25  1  0
 27 26  1  0
 28 27  1  0
 28 29  1  0
 29 30  1  0
 30 24  1  0
 33 32  1  0
 34 59  1  0
 35 34  2  0
 36 38  2  0
 36 35  1  0
 37 34  1  0
 37 28  1  0
 38 37  1  0
 39 40  1  0
 39 36  1  0
 41 40  2  0
 42 41  1  0
 43 42  2  0
 43 44  1  0
 44 39  2  0
 45 46  1  0
 45 42  1  0
 46 47  1  0
 47 48  2  0
 49 53  1  0
 49 48  1  0
 50 49  2  0
 51 50  1  0
 51 46  2  0
 52 51  1  0
 54 35  1  0
 55 54  1  0
 55 57  1  0
 56 54  2  0
 58 55  1  0
 59 60  1  0
 59 61  1  0
 63 64  1  0
 64 65  1  0
 64 62  1  0
 66 92  1  0
 66 77  2  0
 67 65  1  0
 67 72  1  0
 68 78  1  0
 68 76  1  0
 69 71  1  0
 69  8  1  1
 69 75  1  0
 70  3  1  0
 70 76  1  0
 71 72  1  0
 71 70  1  0
 73 67  1  0
 74 73  1  0
 74 69  1  0
 74  8  1  0
 75  1  1  0
 75 68  1  0
 76 66  1  0
 78 80  1  0
 79 78  1  0
 80 15  1  0
 81 79  1  0
 82 87  2  0
 82 91  1  0
 83 79  1  0
 83 87  1  0
 84 83  1  0
 85 84  1  0
 85 86  1  0
 86 82  1  0
 87 88  1  0
 88 89  2  0
 90 89  1  0
 91 90  2  0
 92102  1  0
 92 93  2  3
 93 96  1  0
 94 93  1  0
 94 98  1  0
 95 94  2  0
 98 97  1  0
 98100  1  0
100101  1  0
100 99  1  0
102105  1  1
102103  1  0
104102  1  0
M  ISO  4  24 100  32 100  64 101  65 101
M  END
>  <TORSDO>  (19) 
F 22

>  <SCORE>  (19) 
-9.189

>  <name>  (19) 
18

>  <ligand_id>  (19) 
18

>  <original_smiles>  (19) 
[H]c1c([H])c([H])c2c(c1[H])C([H])([H])C([H])([H])C([H])([H])C2([H])N([H])C(=O)C1([H])N(C(=O)C([H])(N([H])C(=O)C([H])(N([H])C([H])([H])[H])C([H])([H])[H])C(C([H])([H])[H])(C([H])([H])[H])C([H])([H])[H])C([H])([H])c2c([H])c(OC([H])(C([H])([H])[H])C([H])([H])N3C(=[N+]([H])C([H])([H])[H])C([H])(C(=O)N([H])C([H])([H])c4c([H])c(Cl)c([H])c(C([H])([H])N([H])C(=O)N5C([H])([H])C([H])([H])C([H])([H])C([H])(n6nc(-c7c([H])c([H])c(Oc8c([H])c([H])c(F)c([H])c8F)c([H])c7[H])c(C(=O)N([H])[H])c6N([H])[H])C5([H])[H])c4[H])C([H])([H])C([H])([H])C([H])([H])C3([H])[H])c([H])c([H])c2C1([H])[H]

>  <smiles>  (19) 
[H]c1c([H])c([H])c2c(c1[H])C([H])([H])C([H])([H])C([H])([H])C2([H])N([H])C(=O)C1([H])N(C(=O)C([H])(N([H])C(=O)C([H])(N([H])C([H])([H])[H])C([H])([H])[H])C(C([H])([H])[H])(C([H])([H])[H])C([H])([H])[H])C([H])([H])c2c([H])c(OC([H])(C([H])([H])[H])C([H])([H])N3C(=[N+]([H])C([H])([H])[H])C([H])(C(=O)N([H])C([H])([H])c4c([H])c(Cl)c([H])c(C([H])([H])N([H])C(=O)N5C([H])([H])C([H])([H])C([H])([H])C([H])(n6nc(-c7c([H])c([H])c(Oc8c([H])c([H])c(F)c([H])c8F)c([H])c7[H])c(C(=O)N([H])[H])c6N([H])[H])C5([H])[H])c4[H])C([H])([H])C([H])([H])C([H])([H])C3([H])[H])c([H])c([H])c2C1([H])[H]

$$$$
19:0:0
     RDKit          3D

 95104  0  0  1  0  0  0  0  0999 V2000
  -28.3750  -23.1980   20.4780 C   0  0  0  0  0  0  0  0  0  0  0  0
  -28.6870  -23.3260   17.6230 C   0  0  0  0  0  2  0  0  0  0  0  0
  -27.8530  -24.4630   18.2460 C   0  0  0  0  0  2  0  0  0  0  0  0
  -28.5120  -21.9610   18.3340 C   0  0  0  0  0  2  0  0  0  0  0  0
  -28.3080  -24.6980   19.6860 C   0  0  0  0  0  3  0  0  0  0  0  0
  -28.6140  -21.9290   19.8080 N   0  0  0  0  0  0  0  0  0  0  0  0
  -28.2330  -23.2090   21.7030 O   0  0  0  0  0  0  0  0  0  0  0  0
  -28.1190  -26.1690   20.2980 O   0  0  0  0  0  0  0  0  0  0  0  0
  -24.5480  -31.9480   23.2400 C   0  0  0  0  0  0  0  0  0  0  0  0
  -27.0630  -27.1740   20.1680 C   0  0  0  0  0  0  0  0  0  0  0  0
  -23.3250  -30.5610   21.6120 C   0  0  0  0  0  3  0  0  0  0  0  0
  -24.7490  -28.9800   20.1570 C   0  0  0  0  0  0  0  0  0  0  0  0
  -25.8800  -30.8020   21.4210 C   0  0  0  0  0  2  0  0  0  0  0  0
  -25.9380  -29.4060   20.7600 C   0  0  0  0  0  0  0  0  0  0  0  0
  -27.0880  -28.5180   20.7490 C   0  0  0  0  0  3  0  0  0  0  0  0
  -25.8500  -26.8720   19.5140 C   0  0  0  0  0  3  0  0  0  0  0  0
  -24.7230  -27.7310   19.5140 C   0  0  0  0  0  3  0  0  0  0  0  0
  -23.5280  -29.8900   20.2270 C   0  0  0  0  0  2  0  0  0  0  0  0
  -24.6060  -31.1280   22.1450 N   0  0  0  0  0  0  0  0  0  0  0  0
  -23.4690  -32.2330   23.7840 O   0  0  0  0  0  0  0  0  0  0  0  0
  -22.6550  -29.5540   22.5820 C   0  0  0  0  0  0  0  0  0  0  0  0
  -21.3280  -29.3660   22.4600 N   0  0  0  0  0  0  0  0  0  0  0  0
  -23.3350  -28.9420   23.4100 O   0  0  0  0  0  0  0  0  0  0  0  0
  -20.8340  -29.9140   21.7700 H   0  0  0  0  0  0  0  0  0  0  0  0
  -17.9690  -28.0990   22.9580 C   0  0  0  0  0  0  0  0  0  0  0  0
  -20.5210  -28.4220   23.2380 C   0  0  0  0  0  3  0  0  0  0  0  0
  -20.6570  -26.9850   22.6820 C   0  0  0  0  0  2  0  0  0  0  0  0
  -19.5700  -26.6240   21.6660 C   0  0  0  0  0  2  0  0  0  0  0  0
  -18.1790  -26.7470   22.2970 C   0  0  0  0  0  2  0  0  0  0  0  0
  -19.0680  -28.8910   23.3860 C   0  0  0  0  0  0  0  0  0  0  0  0
  -18.8170  -30.1530   23.9650 C   0  0  0  0  0  3  0  0  0  0  0  0
  -17.5000  -30.6260   24.1190 C   0  0  0  0  0  3  0  0  0  0  0  0
  -16.4150  -29.8320   23.7090 C   0  0  0  0  0  3  0  0  0  0  0  0
  -16.6510  -28.5700   23.1340 C   0  0  0  0  0  3  0  0  0  0  0  0
  -25.8330  -32.5840   23.8520 C   0  0  0  0  0  3  0  0  0  0  0  0
  -25.5320  -33.9880   24.1750 N   0  0  0  0  0  0  0  0  0  0  0  0
  -25.8470  -35.0370   23.4020 C   0  0  0  0  0  0  0  0  0  0  0  0
  -26.4870  -34.9240   22.3540 O   0  0  0  0  0  0  0  0  0  0  0  0
  -24.9660  -34.1510   24.9950 H   0  0  0  0  0  0  0  0  0  0  0  0
  -24.1100  -36.8330   23.0930 C   0  0  0  0  0  1  0  0  0  0  0  0
  -25.3770  -36.4310   23.8640 C   0  0  0  0  0  3  0  0  0  0  0  0
  -27.5370  -37.3250   24.6180 C   0  0  0  0  0  1  0  0  0  0  0  0
  -26.4060  -37.4830   23.7090 N   0  0  0  0  0  0  0  0  0  0  0  0
  -26.0040  -38.4040   23.8620 H   0  0  0  0  0  0  0  0  0  0  0  0
  -26.3470  -31.8290   25.1400 C   0  0  1  0  0  0  0  0  0  0  0  0
  -25.2530  -31.6080   26.2130 C   0  0  0  0  0  1  0  0  0  0  0  0
  -26.9270  -30.4440   24.7720 C   0  0  0  0  0  1  0  0  0  0  0  0
  -27.5030  -32.6280   25.7890 C   0  0  0  0  0  1  0  0  0  0  0  0
  -28.5900  -20.3490   20.2300 C   0  0  0  0  0  2  0  0  0  0  0  0
  -32.0420  -18.5380   22.2740 C   0  0  0  0  0  3  0  0  0  0  0  0
  -30.8990  -20.2160   21.0050 C   0  0  0  0  0  3  0  0  0  0  0  0
  -31.9910  -19.8380   21.7880 C   0  0  0  0  0  0  0  0  0  0  0  0
  -31.1080  -17.5720   21.8690 C   0  0  0  0  0  0  0  0  0  0  0  0
  -29.8570  -19.3340   20.6160 C   0  0  0  0  0  0  0  0  0  0  0  0
  -30.1170  -17.8130   20.8490 C   0  0  0  0  0  0  0  0  0  0  0  0
  -33.0260  -20.8630   22.2180 C   0  0  0  0  0  1  0  0  0  0  0  0
  -31.1980  -16.2830   22.6910 C   0  0  0  0  0  1  0  0  0  0  0  0
  -30.2700  -15.2040   19.9730 C   0  0  0  0  0  0  0  0  0  0  0  0
  -30.1160  -12.8630   18.9360 C   0  0  0  0  0  2  0  0  0  0  0  0
  -29.1020  -12.7940   17.7700 C   0  0  0  0  0  2  0  0  0  0  0  0
  -27.6910  -12.5020   18.3090 C   0  0  0  0  0  2  0  0  0  0  0  0
  -27.3420  -13.3910   19.5300 C   0  0  0  0  0  3  0  0  0  0  0  0
  -28.4720  -13.4430   20.5780 C   0  0  0  0  0  2  0  0  0  0  0  0
  -29.6670  -13.9370   19.8810 N   0  0  0  0  0  0  0  0  0  0  0  0
  -31.4420  -15.2380   19.5720 O   0  0  0  0  0  0  0  0  0  0  0  0
  -29.5750  -16.4390   20.3220 N   0  0  0  0  0  0  0  0  0  0  0  0
  -28.5700  -16.3470   20.3510 H   0  0  0  0  0  0  0  0  0  0  0  0
  -25.0240  -13.8860   20.4770 C   0  0  0  0  0  0  0  0  0  0  0  0
  -24.0070  -13.0750   20.8960 C   0  0  0  0  0  0  0  0  0  0  0  0
  -24.4920  -11.7350   20.7760 C   0  0  0  0  0  0  0  0  0  0  0  0
  -26.0590  -13.0390   20.1210 N   0  0  0  0  0  0  0  0  0  0  0  0
  -25.7570  -11.7380   20.3690 N   0  0  0  0  0  0  0  0  0  0  0  0
  -23.8040  -10.4520   20.9680 C   0  0  0  0  0  0  0  0  0  0  0  0
  -24.2820   -9.4870   21.8820 C   0  0  0  0  0  3  0  0  0  0  0  0
  -23.5890   -8.2710   22.0680 C   0  0  0  0  0  3  0  0  0  0  0  0
  -22.4050   -8.0120   21.3380 C   0  0  0  0  0  0  0  0  0  0  0  0
  -21.9440   -8.9670   20.4130 C   0  0  0  0  0  3  0  0  0  0  0  0
  -22.6380  -10.1740   20.2270 C   0  0  0  0  0  3  0  0  0  0  0  0
  -21.6770   -6.8500   21.4330 O   0  0  0  0  0  0  0  0  0  0  0  0
  -21.6380   -6.1170   22.5910 C   0  0  0  0  0  0  0  0  0  0  0  0
  -21.1760   -6.6700   23.8060 C   0  0  0  0  0  3  0  0  0  0  0  0
  -21.0880   -5.8630   24.9570 C   0  0  0  0  0  3  0  0  0  0  0  0
  -21.4520   -4.5040   24.8960 C   0  0  0  0  0  0  0  0  0  0  0  0
  -21.9080   -3.9520   23.6860 C   0  0  0  0  0  3  0  0  0  0  0  0
  -21.9980   -4.7550   22.5360 C   0  0  0  0  0  0  0  0  0  0  0  0
  -22.4160   -4.2130   21.3680 F   0  0  0  0  0  0  0  0  0  0  0  0
  -21.3600   -3.7270   26.0010 F   0  0  0  0  0  0  0  0  0  0  0  0
  -22.6270  -13.5130   21.2880 C   0  0  0  0  0  0  0  0  0  0  0  0
  -21.9820  -12.7760   22.1830 N   0  0  0  0  0  0  0  0  0  0  0  0
  -22.1330  -14.5450   20.8370 O   0  0  0  0  0  0  0  0  0  0  0  0
  -22.3980  -11.9410   22.5690 H   0  0  0  0  0  0  0  0  0  0  0  0
  -21.0580  -13.0480   22.4880 H   0  0  0  0  0  0  0  0  0  0  0  0
  -25.1510  -15.2660   20.3400 N   0  0  0  0  0  0  0  0  0  0  0  0
  -24.3830  -15.9010   20.5320 H   0  0  0  0  0  0  0  0  0  0  0  0
  -25.9460  -15.7270   19.9180 H   0  0  0  0  0  0  0  0  0  0  0  0
  1  7  2  0
  2  3  1  0
  2  4  1  0
  3  5  1  0
  4  6  1  0
  5  8  1  0
  5  1  1  0
  6 49  1  0
  6  1  1  0
  9 20  2  0
 10  8  1  0
 10 15  1  0
 11 19  1  0
 11 21  1  0
 12 18  1  0
 12 14  1  0
 13 19  1  0
 14 13  1  0
 15 14  2  0
 16 10  2  0
 17 16  1  0
 17 12  2  0
 18 11  1  0
 19  9  1  0
 21 23  2  0
 22 21  1  0
 24 22  1  0
 25 34  2  0
 25 30  1  0
 26 22  1  0
 26 30  1  0
 27 26  1  0
 28 29  1  0
 28 27  1  0
 29 25  1  0
 30 31  2  0
 31 32  1  0
 33 32  2  0
 34 33  1  0
 35  9  1  0
 35 36  1  0
 35 45  1  0
 36 39  1  0
 37 41  1  0
 37 36  1  0
 38 37  2  0
 41 40  1  0
 43 44  1  0
 43 41  1  0
 43 42  1  0
 45 48  1  1
 45 46  1  0
 47 45  1  0
 49 54  1  0
 51 52  1  0
 52 56  1  0
 52 50  2  0
 53 50  1  0
 53 57  1  0
 54 55  1  0
 54 51  2  0
 55 53  2  0
 58 66  1  0
 59 64  1  0
 60 61  1  0
 60 59  1  0
 62 61  1  0
 62 71  1  0
 62 63  1  0
 64 58  1  0
 64 63  1  0
 65 58  2  0
 66 67  1  0
 66 55  1  0
 68 69  2  0
 69 88  1  0
 70 69  1  0
 70 73  1  0
 71 72  1  0
 71 68  1  0
 72 70  2  0
 73 74  1  0
 74 75  2  0
 76 79  1  0
 76 75  1  0
 77 76  2  0
 78 77  1  0
 78 73  2  0
 79 80  1  0
 80 81  1  0
 81 82  2  0
 83 82  1  0
 83 87  1  0
 84 83  2  0
 85 80  2  0
 85 84  1  0
 86 85  1  0
 88 89  1  0
 89 92  1  0
 89 91  1  0
 90 88  2  0
 93 68  1  0
 93 94  1  0
 95 93  1  0
M  ISO  4   5 101   8 101  58 100  66 100
M  END
>  <TORSDO>  (20) 
F 18

>  <SCORE>  (20) 
-13.991

>  <name>  (20) 
19

>  <ligand_id>  (20) 
19

>  <original_smiles>  (20) 
[H]c1c([H])c([H])c2c(c1[H])C([H])([H])C([H])([H])C([H])([H])C2([H])N([H])C(=O)C1([H])N(C(=O)C([H])(N([H])C(=O)C([H])(N([H])C([H])([H])[H])C([H])([H])[H])C(C([H])([H])[H])(C([H])([H])[H])C([H])([H])[H])C([H])([H])c2c([H])c(OC3([H])C(=O)N(C([H])([H])c4c([H])c(C([H])([H])[H])c([H])c(C([H])([H])[H])c4N([H])C(=O)N4C([H])([H])C([H])([H])C([H])([H])C([H])(n5nc(-c6c([H])c([H])c(Oc7c([H])c([H])c(F)c([H])c7F)c([H])c6[H])c(C(=O)N([H])[H])c5N([H])[H])C4([H])[H])C([H])([H])C([H])([H])C3([H])[H])c([H])c([H])c2C1([H])[H]

>  <smiles>  (20) 
[H]c1c([H])c([H])c2c(c1[H])C([H])([H])C([H])([H])C([H])([H])C2([H])N([H])C(=O)C1([H])N(C(=O)C([H])(N([H])C(=O)C([H])(N([H])C([H])([H])[H])C([H])([H])[H])C(C([H])([H])[H])(C([H])([H])[H])C([H])([H])[H])C([H])([H])c2c([H])c(OC3([H])C(=O)N(C([H])([H])c4c([H])c(C([H])([H])[H])c([H])c(C([H])([H])[H])c4N([H])C(=O)N4C([H])([H])C([H])([H])C([H])([H])C([H])(n5nc(-c6c([H])c([H])c(Oc7c([H])c([H])c(F)c([H])c7F)c([H])c6[H])c(C(=O)N([H])[H])c5N([H])[H])C4([H])[H])C([H])([H])C([H])([H])C3([H])[H])c([H])c([H])c2C1([H])[H]

$$$$
20:0:0
     RDKit          3D

 96104  0  0  1  0  0  0  0  0999 V2000
  -27.6330  -21.6520   19.7310 C   0  0  0  0  0  0  0  0  0  0  0  0
  -26.6030  -21.6310   18.8940 N   0  0  0  0  0  4  0  0  0  0  0  0
  -27.8910  -22.8550   20.2790 N   0  0  0  0  0  0  0  0  0  0  0  0
  -26.4920  -20.7930   18.3420 H   0  0  0  0  0  0  0  0  0  0  0  0
  -26.1160  -22.4540   18.5930 H   0  0  0  0  0  0  0  0  0  0  0  0
  -27.0670  -23.3850   20.5450 H   0  0  0  0  0  0  0  0  0  0  0  0
  -29.7620  -20.3780   19.8500 C   0  0  0  0  0  3  0  0  0  0  0  0
  -30.4660  -19.1640   19.7510 C   0  0  0  0  0  3  0  0  0  0  0  0
  -28.3600  -20.3710   19.9030 C   0  0  0  0  0  0  0  0  0  0  0  0
  -29.8120  -17.9150   19.7560 C   0  0  0  0  0  0  0  0  0  0  0  0
  -27.6610  -19.1170   19.9910 C   0  0  0  0  0  0  0  0  0  0  0  0
  -28.3940  -17.8820   19.9380 C   0  0  0  0  0  0  0  0  0  0  0  0
  -26.1310  -19.0890   20.1790 C   0  0  0  0  0  1  0  0  0  0  0  0
  -27.6480  -16.5450   20.0320 C   0  0  0  0  0  1  0  0  0  0  0  0
  -30.7330  -16.6990   19.5210 C   0  0  0  0  0  2  0  0  0  0  0  0
  -30.9710  -14.2420   19.7980 C   0  0  0  0  0  0  0  0  0  0  0  0
  -30.5610  -11.9730   19.0010 C   0  0  0  0  0  2  0  0  0  0  0  0
  -29.5800  -12.1060   17.8180 C   0  0  0  0  0  2  0  0  0  0  0  0
  -28.1250  -12.0140   18.3290 C   0  0  0  0  0  2  0  0  0  0  0  0
  -27.8380  -12.9520   19.5410 C   0  0  0  0  0  3  0  0  0  0  0  0
  -28.9720  -12.8950   20.5990 C   0  0  0  0  0  2  0  0  0  0  0  0
  -30.2650  -13.0850   19.9200 N   0  0  0  0  0  0  0  0  0  0  0  0
  -32.1010  -14.3100   19.3220 O   0  0  0  0  0  0  0  0  0  0  0  0
  -30.2800  -15.3710   19.9810 N   0  0  0  0  0  0  0  0  0  0  0  0
  -29.3690  -15.3010   20.4070 H   0  0  0  0  0  0  0  0  0  0  0  0
  -25.5520  -13.5940   20.5440 C   0  0  0  0  0  0  0  0  0  0  0  0
  -24.4830  -12.8420   20.9390 C   0  0  0  0  0  0  0  0  0  0  0  0
  -24.8540  -11.4820   20.7230 C   0  0  0  0  0  0  0  0  0  0  0  0
  -26.5210  -12.6950   20.1240 N   0  0  0  0  0  0  0  0  0  0  0  0
  -26.1100  -11.4110   20.2950 N   0  0  0  0  0  0  0  0  0  0  0  0
  -24.0750  -10.2480   20.8590 C   0  0  0  0  0  0  0  0  0  0  0  0
  -24.4100   -9.2750   21.8280 C   0  0  0  0  0  3  0  0  0  0  0  0
  -23.6290   -8.1080   21.9590 C   0  0  0  0  0  3  0  0  0  0  0  0
  -22.5070   -7.9100   21.1210 C   0  0  0  0  0  0  0  0  0  0  0  0
  -22.1880   -8.8750   20.1540 C   0  0  0  0  0  3  0  0  0  0  0  0
  -22.9660  -10.0340   20.0150 C   0  0  0  0  0  3  0  0  0  0  0  0
  -21.7030   -6.8000   21.1490 O   0  0  0  0  0  0  0  0  0  0  0  0
  -21.3940   -6.1640   22.3230 C   0  0  0  0  0  0  0  0  0  0  0  0
  -20.7670   -6.8390   23.3920 C   0  0  0  0  0  3  0  0  0  0  0  0
  -20.3960   -6.1300   24.5510 C   0  0  0  0  0  3  0  0  0  0  0  0
  -20.6550   -4.7500   24.6490 C   0  0  0  0  0  0  0  0  0  0  0  0
  -21.2870   -4.0790   23.5870 C   0  0  0  0  0  3  0  0  0  0  0  0
  -21.6490   -4.7830   22.4260 C   0  0  0  0  0  0  0  0  0  0  0  0
  -22.2320   -4.1210   21.3970 F   0  0  0  0  0  0  0  0  0  0  0  0
  -20.3000   -4.0680   25.7640 F   0  0  0  0  0  0  0  0  0  0  0  0
  -23.1480  -13.3610   21.3940 C   0  0  0  0  0  0  0  0  0  0  0  0
  -22.4830  -12.6500   22.2960 N   0  0  0  0  0  0  0  0  0  0  0  0
  -22.7100  -14.4330   20.9890 O   0  0  0  0  0  0  0  0  0  0  0  0
  -22.8450  -11.7760   22.6470 H   0  0  0  0  0  0  0  0  0  0  0  0
  -21.6020  -12.9920   22.6460 H   0  0  0  0  0  0  0  0  0  0  0  0
  -25.7640  -14.9660   20.5070 N   0  0  0  0  0  0  0  0  0  0  0  0
  -25.0280  -15.6130   20.7730 H   0  0  0  0  0  0  0  0  0  0  0  0
  -26.6280  -15.4140   20.2310 H   0  0  0  0  0  0  0  0  0  0  0  0
  -29.1260  -23.6750   20.4710 C   0  0  0  0  0  2  0  0  0  0  0  0
  -28.9230  -24.9780   19.6230 C   0  0  0  0  0  2  0  0  0  0  0  0
  -29.0440  -26.3350   20.1640 O   0  0  0  0  0  0  0  0  0  0  0  0
  -24.8350  -31.3710   23.0380 C   0  0  0  0  0  0  0  0  0  0  0  0
  -27.9040  -27.1330   20.0180 C   0  0  0  0  0  0  0  0  0  0  0  0
  -23.8180  -29.9500   21.2980 C   0  0  0  0  0  3  0  0  0  0  0  0
  -25.4520  -28.5730   19.9060 C   0  0  0  0  0  0  0  0  0  0  0  0
  -26.3350  -30.4420   21.2810 C   0  0  0  0  0  2  0  0  0  0  0  0
  -26.5440  -29.1090   20.6010 C   0  0  0  0  0  0  0  0  0  0  0  0
  -27.7770  -28.4010   20.6490 C   0  0  0  0  0  3  0  0  0  0  0  0
  -26.7960  -26.6770   19.2500 C   0  0  0  0  0  3  0  0  0  0  0  0
  -25.5770  -27.3580   19.2290 C   0  0  0  0  0  3  0  0  0  0  0  0
  -24.1630  -29.3640   19.9080 C   0  0  0  0  0  2  0  0  0  0  0  0
  -25.0080  -30.5990   21.9290 N   0  0  0  0  0  0  0  0  0  0  0  0
  -23.7060  -31.5610   23.5130 O   0  0  0  0  0  0  0  0  0  0  0  0
  -23.1720  -28.8570   22.1810 C   0  0  0  0  0  0  0  0  0  0  0  0
  -21.8590  -28.6440   22.0090 N   0  0  0  0  0  0  0  0  0  0  0  0
  -23.8510  -28.2150   22.9840 O   0  0  0  0  0  0  0  0  0  0  0  0
  -21.3660  -29.2530   21.3700 H   0  0  0  0  0  0  0  0  0  0  0  0
  -18.4910  -27.3450   22.4090 C   0  0  0  0  0  0  0  0  0  0  0  0
  -21.0560  -27.6240   22.6900 C   0  0  0  0  0  3  0  0  0  0  0  0
  -21.1830  -26.2440   21.9950 C   0  0  0  0  0  2  0  0  0  0  0  0
  -20.0630  -25.9610   20.9830 C   0  0  0  0  0  2  0  0  0  0  0  0
  -18.6760  -26.0480   21.6330 C   0  0  0  0  0  2  0  0  0  0  0  0
  -19.6030  -28.0880   22.8950 C   0  0  0  0  0  0  0  0  0  0  0  0
  -19.3700  -29.2930   23.5970 C   0  0  0  0  0  3  0  0  0  0  0  0
  -18.0640  -29.7700   23.8070 C   0  0  0  0  0  3  0  0  0  0  0  0
  -16.9740  -29.0270   23.3270 C   0  0  0  0  0  3  0  0  0  0  0  0
  -17.1830  -27.8160   22.6410 C   0  0  0  0  0  3  0  0  0  0  0  0
  -26.0350  -32.0700   23.7470 C   0  0  0  0  0  3  0  0  0  0  0  0
  -26.4790  -31.3350   25.0740 C   0  0  1  0  0  0  0  0  0  0  0  0
  -25.3080  -31.0550   26.0450 C   0  0  0  0  0  1  0  0  0  0  0  0
  -27.1580  -29.9820   24.7500 C   0  0  0  0  0  1  0  0  0  0  0  0
  -27.5310  -32.1910   25.8170 C   0  0  0  0  0  1  0  0  0  0  0  0
  -25.6430  -33.4570   24.0280 N   0  0  0  0  0  0  0  0  0  0  0  0
  -25.9530  -34.5040   23.2560 C   0  0  0  0  0  0  0  0  0  0  0  0
  -26.6760  -34.4070   22.2610 O   0  0  0  0  0  0  0  0  0  0  0  0
  -25.0110  -33.6000   24.8020 H   0  0  0  0  0  0  0  0  0  0  0  0
  -24.1450  -36.1810   22.7880 C   0  0  0  0  0  1  0  0  0  0  0  0
  -25.3790  -35.8710   23.6510 C   0  0  0  0  0  3  0  0  0  0  0  0
  -27.4240  -36.9080   24.5290 C   0  0  0  0  0  1  0  0  0  0  0  0
  -26.3510  -36.9780   23.5400 N   0  0  0  0  0  0  0  0  0  0  0  0
  -25.8880  -37.8790   23.6410 H   0  0  0  0  0  0  0  0  0  0  0  0
  1  9  1  0
  1  3  1  0
  2  1  2  0
  3 54  1  0
  3  6  1  0
  4  2  1  0
  5  2  1  0
  7  9  1  0
  8 10  1  0
  8  7  2  0
  9 11  2  0
 10 12  2  0
 11 13  1  0
 12 11  1  0
 12 14  1  0
 15 10  1  0
 15 24  1  0
 16 22  1  0
 16 24  1  0
 17 22  1  0
 18 19  1  0
 18 17  1  0
 20 19  1  0
 20 29  1  0
 20 21  1  0
 22 21  1  0
 23 16  2  0
 24 25  1  0
 26 27  2  0
 27 46  1  0
 28 31  1  0
 28 27  1  0
 29 30  1  0
 29 26  1  0
 30 28  2  0
 31 32  1  0
 32 33  2  0
 34 37  1  0
 34 33  1  0
 35 34  2  0
 36 35  1  0
 36 31  2  0
 37 38  1  0
 38 43  2  0
 38 39  1  0
 39 40  2  0
 40 41  1  0
 41 45  1  0
 42 41  2  0
 43 42  1  0
 44 43  1  0
 46 47  1  0
 47 50  1  0
 47 49  1  0
 48 46  2  0
 51 26  1  0
 51 52  1  0
 53 51  1  0
 55 56  1  0
 55 54  1  0
 57 68  2  0
 58 56  1  0
 58 63  1  0
 59 67  1  0
 59 69  1  0
 60 66  1  0
 60 62  1  0
 61 67  1  0
 62 63  2  0
 62 61  1  0
 64 58  2  0
 65 64  1  0
 65 60  2  0
 66 59  1  0
 67 57  1  0
 69 71  2  0
 70 69  1  0
 72 70  1  0
 73 82  2  0
 73 78  1  0
 74 70  1  0
 74 78  1  0
 75 74  1  0
 76 77  1  0
 76 75  1  0
 77 73  1  0
 78 79  2  0
 79 80  1  0
 81 80  2  0
 82 81  1  0
 83 57  1  0
 83 88  1  0
 83 84  1  0
 84 87  1  1
 84 85  1  0
 86 84  1  0
 88 91  1  0
 89 93  1  0
 89 88  1  0
 90 89  2  0
 93 92  1  0
 95 96  1  0
 95 93  1  0
 95 94  1  0
M  ISO  4  16 100  24 100  55 101  56 101
M  END
>  <TORSDO>  (21) 
F 20

>  <SCORE>  (21) 
-10.708

>  <name>  (21) 
20

>  <ligand_id>  (21) 
20

>  <original_smiles>  (21) 
[H]c1c([H])c([H])c2c(c1[H])C([H])([H])C([H])([H])C([H])([H])C2([H])N([H])C(=O)C1([H])N(C(=O)C([H])(N([H])C(=O)C([H])(N([H])C([H])([H])[H])C([H])([H])[H])C(C([H])([H])[H])(C([H])([H])[H])C([H])([H])[H])C([H])([H])c2c([H])c(OC([H])([H])C([H])([H])[N+]([H])=C(c3c([H])c([H])c(C([H])([H])N([H])C(=O)N4C([H])([H])C([H])([H])C([H])([H])C([H])(n5nc(-c6c([H])c([H])c(Oc7c([H])c([H])c(F)c([H])c7F)c([H])c6[H])c(C(=O)N([H])[H])c5N([H])[H])C4([H])[H])c(C([H])([H])[H])c3C([H])([H])[H])N([H])[H])c([H])c([H])c2C1([H])[H]

>  <smiles>  (21) 
[H]c1c([H])c([H])c2c(c1[H])C([H])([H])C([H])([H])C([H])([H])C2([H])N([H])C(=O)C1([H])N(C(=O)C([H])(N([H])C(=O)C([H])(N([H])C([H])([H])[H])C([H])([H])[H])C(C([H])([H])[H])(C([H])([H])[H])C([H])([H])[H])C([H])([H])c2c([H])c(OC([H])([H])C([H])([H])[N+]([H])=C(c3c([H])c([H])c(C([H])([H])N([H])C(=O)N4C([H])([H])C([H])([H])C([H])([H])C([H])(n5nc(-c6c([H])c([H])c(Oc7c([H])c([H])c(F)c([H])c7F)c([H])c6[H])c(C(=O)N([H])[H])c5N([H])[H])C4([H])[H])c(C([H])([H])[H])c3C([H])([H])[H])N([H])[H])c([H])c([H])c2C1([H])[H]

$$$$
21:0:0
     RDKit          3D

 95104  0  0  1  0  0  0  0  0999 V2000
  -28.6540  -23.9890   19.6110 C   0  0  0  0  0  0  0  0  0  0  0  0
  -29.9110  -23.7710   22.2200 C   0  0  0  0  0  2  0  0  0  0  0  0
  -29.9070  -25.1200   21.4940 C   0  0  0  0  0  2  0  0  0  0  0  0
  -29.8660  -22.5530   21.2630 C   0  0  0  0  0  2  0  0  0  0  0  0
  -28.6570  -25.2140   20.6190 C   0  0  0  0  0  3  0  0  0  0  0  0
  -29.0760  -22.7330   20.0290 N   0  0  0  0  0  0  0  0  0  0  0  0
  -28.2190  -24.1770   18.4700 O   0  0  0  0  0  0  0  0  0  0  0  0
  -28.6290  -26.5750   20.0470 O   0  0  0  0  0  0  0  0  0  0  0  0
  -24.4500  -31.6540   23.0750 C   0  0  0  0  0  0  0  0  0  0  0  0
  -27.4340  -27.3000   20.0840 C   0  0  0  0  0  0  0  0  0  0  0  0
  -23.3790  -30.2010   21.3860 C   0  0  0  0  0  3  0  0  0  0  0  0
  -24.9640  -28.7270   20.0240 C   0  0  0  0  0  0  0  0  0  0  0  0
  -25.8960  -30.6730   21.2820 C   0  0  0  0  0  2  0  0  0  0  0  0
  -26.0810  -29.3010   20.6480 C   0  0  0  0  0  0  0  0  0  0  0  0
  -27.3190  -28.5960   20.6710 C   0  0  0  0  0  3  0  0  0  0  0  0
  -26.2930  -26.7560   19.4640 C   0  0  0  0  0  3  0  0  0  0  0  0
  -25.0660  -27.4570   19.4340 C   0  0  0  0  0  3  0  0  0  0  0  0
  -23.6760  -29.5270   20.0190 C   0  0  0  0  0  2  0  0  0  0  0  0
  -24.5900  -30.8600   21.9730 N   0  0  0  0  0  0  0  0  0  0  0  0
  -23.3380  -31.8650   23.5790 O   0  0  0  0  0  0  0  0  0  0  0  0
  -22.7380  -29.1510   22.3260 C   0  0  0  0  0  0  0  0  0  0  0  0
  -21.4240  -28.9200   22.1700 N   0  0  0  0  0  0  0  0  0  0  0  0
  -23.4260  -28.5420   23.1480 O   0  0  0  0  0  0  0  0  0  0  0  0
  -20.9210  -29.4630   21.4830 H   0  0  0  0  0  0  0  0  0  0  0  0
  -18.0940  -27.5850   22.5980 C   0  0  0  0  0  0  0  0  0  0  0  0
  -20.6340  -27.9370   22.9150 C   0  0  0  0  0  3  0  0  0  0  0  0
  -20.8040  -26.5200   22.3190 C   0  0  0  0  0  2  0  0  0  0  0  0
  -19.7320  -26.1740   21.2820 C   0  0  0  0  0  2  0  0  0  0  0  0
  -18.3340  -26.2570   21.9000 C   0  0  0  0  0  2  0  0  0  0  0  0
  -19.1740  -28.3800   23.0600 C   0  0  0  0  0  0  0  0  0  0  0  0
  -18.8990  -29.6270   23.6630 C   0  0  0  0  0  3  0  0  0  0  0  0
  -17.5730  -30.0760   23.8130 C   0  0  0  0  0  3  0  0  0  0  0  0
  -16.5050  -29.2780   23.3680 C   0  0  0  0  0  3  0  0  0  0  0  0
  -16.7660  -28.0340   22.7650 C   0  0  0  0  0  3  0  0  0  0  0  0
  -25.6760  -32.3510   23.7420 C   0  0  0  0  0  3  0  0  0  0  0  0
  -25.2860  -33.7330   24.0550 N   0  0  0  0  0  0  0  0  0  0  0  0
  -25.5900  -34.7990   23.3020 C   0  0  0  0  0  0  0  0  0  0  0  0
  -26.2980  -34.7260   22.2940 O   0  0  0  0  0  0  0  0  0  0  0  0
  -24.6590  -33.8610   24.8360 H   0  0  0  0  0  0  0  0  0  0  0  0
  -23.7870  -36.4980   22.8890 C   0  0  0  0  0  1  0  0  0  0  0  0
  -25.0210  -36.1610   23.7400 C   0  0  0  0  0  3  0  0  0  0  0  0
  -27.0790  -37.1540   24.6350 C   0  0  0  0  0  1  0  0  0  0  0  0
  -26.0010  -37.2650   23.6560 N   0  0  0  0  0  0  0  0  0  0  0  0
  -25.5420  -38.1610   23.7910 H   0  0  0  0  0  0  0  0  0  0  0  0
  -26.1800  -31.6100   25.0410 C   0  0  1  0  0  0  0  0  0  0  0  0
  -25.0610  -31.3270   26.0660 C   0  0  0  0  0  1  0  0  0  0  0  0
  -26.8450  -30.2640   24.6750 C   0  0  0  0  0  1  0  0  0  0  0  0
  -27.2590  -32.4650   25.7470 C   0  0  0  0  0  1  0  0  0  0  0  0
  -28.8720  -21.5050   19.1520 C   0  0  0  0  0  2  0  0  0  0  0  0
  -29.5850  -19.4840   20.7380 C   0  0  0  0  0  3  0  0  0  0  0  0
  -29.7620  -17.6660   18.6240 C   0  0  0  0  0  3  0  0  0  0  0  0
  -29.3860  -20.0190   19.4340 C   0  0  0  0  0  0  0  0  0  0  0  0
  -29.9420  -17.1460   19.9290 C   0  0  0  0  0  0  0  0  0  0  0  0
  -29.8740  -18.1060   20.9780 C   0  0  0  0  0  0  0  0  0  0  0  0
  -29.4970  -19.0510   18.3800 C   0  0  0  0  0  0  0  0  0  0  0  0
  -30.1220  -17.6020   22.6150 Cl  0  0  0  0  0  0  0  0  0  0  0  0
  -29.2340  -19.4940   16.7300 Cl  0  0  0  0  0  0  0  0  0  0  0  0
  -30.7630  -14.6830   19.6820 C   0  0  0  0  0  0  0  0  0  0  0  0
  -30.4850  -12.4230   18.6830 C   0  0  0  0  0  2  0  0  0  0  0  0
  -29.4120  -12.5100   17.5720 C   0  0  0  0  0  2  0  0  0  0  0  0
  -27.9850  -12.3860   18.1520 C   0  0  0  0  0  2  0  0  0  0  0  0
  -27.7680  -13.2610   19.4160 C   0  0  0  0  0  3  0  0  0  0  0  0
  -28.9360  -13.0910   20.4130 C   0  0  0  0  0  2  0  0  0  0  0  0
  -30.1740  -13.4460   19.7030 N   0  0  0  0  0  0  0  0  0  0  0  0
  -31.8430  -14.8700   19.1140 O   0  0  0  0  0  0  0  0  0  0  0  0
  -30.0370  -15.7090   20.2350 N   0  0  0  0  0  0  0  0  0  0  0  0
  -29.3260  -15.3900   20.8760 H   0  0  0  0  0  0  0  0  0  0  0  0
  -25.5120  -13.9020   20.4640 C   0  0  0  0  0  0  0  0  0  0  0  0
  -24.4620  -13.1470   20.9130 C   0  0  0  0  0  0  0  0  0  0  0  0
  -24.8490  -11.7840   20.7310 C   0  0  0  0  0  0  0  0  0  0  0  0
  -26.4750  -12.9980   20.0410 N   0  0  0  0  0  0  0  0  0  0  0  0
  -26.0890  -11.7150   20.2600 N   0  0  0  0  0  0  0  0  0  0  0  0
  -24.0900  -10.5420   20.9230 C   0  0  0  0  0  0  0  0  0  0  0  0
  -24.4970   -9.5680   21.8620 C   0  0  0  0  0  3  0  0  0  0  0  0
  -23.7440   -8.3880   22.0420 C   0  0  0  0  0  3  0  0  0  0  0  0
  -22.5680   -8.1770   21.2830 C   0  0  0  0  0  0  0  0  0  0  0  0
  -22.1790   -9.1380   20.3350 C   0  0  0  0  0  3  0  0  0  0  0  0
  -22.9320  -10.3090   20.1530 C   0  0  0  0  0  3  0  0  0  0  0  0
  -21.7870   -7.0490   21.3710 O   0  0  0  0  0  0  0  0  0  0  0  0
  -21.5870   -6.4030   22.5640 C   0  0  0  0  0  0  0  0  0  0  0  0
  -21.0220   -7.0570   23.6800 C   0  0  0  0  0  3  0  0  0  0  0  0
  -20.7680   -6.3340   24.8630 C   0  0  0  0  0  3  0  0  0  0  0  0
  -21.0720   -4.9610   24.9300 C   0  0  0  0  0  0  0  0  0  0  0  0
  -21.6310   -4.3090   23.8180 C   0  0  0  0  0  3  0  0  0  0  0  0
  -21.8840   -5.0270   22.6360 C   0  0  0  0  0  0  0  0  0  0  0  0
  -22.4010   -4.3880   21.5590 F   0  0  0  0  0  0  0  0  0  0  0  0
  -20.8220   -4.2640   26.0650 F   0  0  0  0  0  0  0  0  0  0  0  0
  -23.1350  -13.6580   21.3940 C   0  0  0  0  0  0  0  0  0  0  0  0
  -22.5020  -12.9440   22.3170 N   0  0  0  0  0  0  0  0  0  0  0  0
  -22.6760  -14.7240   20.9870 O   0  0  0  0  0  0  0  0  0  0  0  0
  -22.8930  -12.0820   22.6650 H   0  0  0  0  0  0  0  0  0  0  0  0
  -21.6180  -13.2660   22.6820 H   0  0  0  0  0  0  0  0  0  0  0  0
  -25.7220  -15.2730   20.3590 N   0  0  0  0  0  0  0  0  0  0  0  0
  -25.0080  -15.9500   20.6010 H   0  0  0  0  0  0  0  0  0  0  0  0
  -26.5280  -15.6930   19.9140 H   0  0  0  0  0  0  0  0  0  0  0  0
  1  6  1  0
  1  5  1  0
  3  2  1  0
  4  2  1  0
  5  8  1  0
  5  3  1  0
  6  4  1  0
  7  1  2  0
  8 10  1  0
  9 20  2  0
 10 15  1  0
 11 19  1  0
 11 21  1  0
 12 14  1  0
 13 19  1  0
 14 15  2  0
 14 13  1  0
 16 10  2  0
 17 16  1  0
 17 12  2  0
 18 12  1  0
 18 11  1  0
 19  9  1  0
 21 23  2  0
 22 21  1  0
 24 22  1  0
 25 34  2  0
 25 30  1  0
 26 22  1  0
 26 30  1  0
 27 26  1  0
 28 29  1  0
 28 27  1  0
 29 25  1  0
 30 31  2  0
 31 32  1  0
 33 32  2  0
 34 33  1  0
 35  9  1  0
 35 36  1  0
 35 45  1  0
 36 39  1  0
 37 41  1  0
 37 36  1  0
 38 37  2  0
 41 40  1  0
 43 41  1  0
 43 44  1  0
 43 42  1  0
 45 48  1  1
 45 46  1  0
 47 45  1  0
 49 52  1  0
 49  6  1  0
 50 54  1  0
 51 53  1  0
 52 50  2  0
 53 66  1  0
 53 54  2  0
 54 56  1  0
 55 51  2  0
 55 52  1  0
 57 55  1  0
 58 64  1  0
 58 66  1  0
 59 64  1  0
 60 61  1  0
 60 59  1  0
 62 61  1  0
 62 71  1  0
 62 63  1  0
 64 63  1  0
 65 58  2  0
 66 67  1  0
 68 69  2  0
 69 88  1  0
 70 69  1  0
 70 73  1  0
 71 72  1  0
 71 68  1  0
 72 70  2  0
 73 74  1  0
 74 75  2  0
 76 79  1  0
 76 75  1  0
 77 76  2  0
 78 77  1  0
 78 73  2  0
 79 80  1  0
 80 85  2  0
 80 81  1  0
 81 82  2  0
 82 83  1  0
 83 87  1  0
 84 83  2  0
 85 84  1  0
 86 85  1  0
 88 89  1  0
 89 91  1  0
 89 92  1  0
 90 88  2  0
 93 68  1  0
 93 94  1  0
 95 93  1  0
M  ISO  4   5 101   8 101  58 100  66 100
M  END
>  <TORSDO>  (22) 
F 18

>  <SCORE>  (22) 
-13.511

>  <name>  (22) 
21

>  <ligand_id>  (22) 
21

>  <original_smiles>  (22) 
[H]c1c([H])c([H])c2c(c1[H])C([H])([H])C([H])([H])C([H])([H])C2([H])N([H])C(=O)C1([H])N(C(=O)C([H])(N([H])C(=O)C([H])(N([H])C([H])([H])[H])C([H])([H])[H])C(C([H])([H])[H])(C([H])([H])[H])C([H])([H])[H])C([H])([H])c2c([H])c(OC3([H])C(=O)N(C([H])([H])c4c([H])c(Cl)c(N([H])C(=O)N5C([H])([H])C([H])([H])C([H])([H])C([H])(n6nc(-c7c([H])c([H])c(Oc8c([H])c([H])c(F)c([H])c8F)c([H])c7[H])c(C(=O)N([H])[H])c6N([H])[H])C5([H])[H])c([H])c4Cl)C([H])([H])C([H])([H])C3([H])[H])c([H])c([H])c2C1([H])[H]

>  <smiles>  (22) 
[H]c1c([H])c([H])c2c(c1[H])C([H])([H])C([H])([H])C([H])([H])C2([H])N([H])C(=O)C1([H])N(C(=O)C([H])(N([H])C(=O)C([H])(N([H])C([H])([H])[H])C([H])([H])[H])C(C([H])([H])[H])(C([H])([H])[H])C([H])([H])[H])C([H])([H])c2c([H])c(OC3([H])C(=O)N(C([H])([H])c4c([H])c(Cl)c(N([H])C(=O)N5C([H])([H])C([H])([H])C([H])([H])C([H])(n6nc(-c7c([H])c([H])c(Oc8c([H])c([H])c(F)c([H])c8F)c([H])c7[H])c(C(=O)N([H])[H])c6N([H])[H])C5([H])[H])c([H])c4Cl)C([H])([H])C([H])([H])C3([H])[H])c([H])c([H])c2C1([H])[H]

$$$$
22:0:0
     RDKit          3D

 97106  0  0  1  0  0  0  0  0999 V2000
  -27.3170  -24.1940   20.5990 C   0  0  0  0  0  2  0  0  0  0  0  0
  -29.6230  -24.4860   19.6460 C   0  0  0  0  0  2  0  0  0  0  0  0
  -27.5120  -22.6620   20.3000 C   0  0  0  0  0  2  0  0  0  0  0  0
  -28.2010  -25.1360   19.7280 C   0  0  0  0  0  3  0  0  0  0  0  0
  -29.9010  -23.2510   20.5890 C   0  0  0  0  0  3  0  0  0  0  0  0
  -30.0530  -23.7700   22.0470 C   0  0  0  0  0  1  0  0  0  0  0  0
  -28.9160  -22.1190   20.4010 N   0  0  1  0  0  4  0  0  0  0  0  0
  -29.0960  -21.7780   19.4670 H   0  0  0  0  0  0  0  0  0  0  0  0
  -28.2520  -26.5660   20.1120 O   0  0  0  0  0  0  0  0  0  0  0  0
  -24.5470  -31.8840   23.2240 C   0  0  0  0  0  0  0  0  0  0  0  0
  -27.1160  -27.3840   20.0640 C   0  0  0  0  0  0  0  0  0  0  0  0
  -23.3190  -30.5090   21.5810 C   0  0  0  0  0  3  0  0  0  0  0  0
  -24.7480  -28.9850   20.1090 C   0  0  0  0  0  0  0  0  0  0  0  0
  -25.8540  -30.8350   21.3660 C   0  0  0  0  0  2  0  0  0  0  0  0
  -25.9210  -29.4670   20.7020 C   0  0  0  0  0  0  0  0  0  0  0  0
  -27.1060  -28.6740   20.6740 C   0  0  0  0  0  3  0  0  0  0  0  0
  -25.9250  -26.9610   19.4330 C   0  0  0  0  0  3  0  0  0  0  0  0
  -24.7520  -27.7380   19.4660 C   0  0  0  0  0  3  0  0  0  0  0  0
  -23.5130  -29.8560   20.1860 C   0  0  0  0  0  2  0  0  0  0  0  0
  -24.5940  -31.0930   22.1140 N   0  0  0  0  0  0  0  0  0  0  0  0
  -23.4720  -32.1540   23.7790 O   0  0  0  0  0  0  0  0  0  0  0  0
  -22.6750  -29.4770   22.5350 C   0  0  0  0  0  0  0  0  0  0  0  0
  -21.3490  -29.2920   22.4170 N   0  0  0  0  0  0  0  0  0  0  0  0
  -23.3650  -28.8460   23.3410 O   0  0  0  0  0  0  0  0  0  0  0  0
  -20.8520  -29.8530   21.7390 H   0  0  0  0  0  0  0  0  0  0  0  0
  -17.9850  -28.0700   22.9250 C   0  0  0  0  0  0  0  0  0  0  0  0
  -20.5430  -28.3430   23.1850 C   0  0  0  0  0  3  0  0  0  0  0  0
  -20.6510  -26.9170   22.5970 C   0  0  0  0  0  2  0  0  0  0  0  0
  -19.5460  -26.5950   21.5860 C   0  0  0  0  0  2  0  0  0  0  0  0
  -18.1670  -26.7260   22.2390 C   0  0  0  0  0  2  0  0  0  0  0  0
  -19.1010  -28.8360   23.3540 C   0  0  0  0  0  0  0  0  0  0  0  0
  -18.8760  -30.0930   23.9580 C   0  0  0  0  0  3  0  0  0  0  0  0
  -17.5690  -30.5850   24.1340 C   0  0  0  0  0  3  0  0  0  0  0  0
  -16.4690  -29.8160   23.7190 C   0  0  0  0  0  3  0  0  0  0  0  0
  -16.6770  -28.5610   23.1200 C   0  0  0  0  0  3  0  0  0  0  0  0
  -25.8400  -32.5080   23.8350 C   0  0  0  0  0  3  0  0  0  0  0  0
  -26.3660  -31.7270   25.1020 C   0  0  1  0  0  0  0  0  0  0  0  0
  -25.2820  -31.4870   26.1790 C   0  0  0  0  0  1  0  0  0  0  0  0
  -26.9420  -30.3510   24.6960 C   0  0  0  0  0  1  0  0  0  0  0  0
  -27.5240  -32.5160   25.7590 C   0  0  0  0  0  1  0  0  0  0  0  0
  -25.5390  -33.9050   24.1770 N   0  0  0  0  0  0  0  0  0  0  0  0
  -25.8700  -34.9620   23.4220 C   0  0  0  0  0  0  0  0  0  0  0  0
  -26.5310  -34.8620   22.3850 O   0  0  0  0  0  0  0  0  0  0  0  0
  -24.9510  -34.0570   24.9830 H   0  0  0  0  0  0  0  0  0  0  0  0
  -24.1490  -36.7670   23.0890 C   0  0  0  0  0  1  0  0  0  0  0  0
  -25.3910  -36.3490   23.8930 C   0  0  0  0  0  3  0  0  0  0  0  0
  -27.5310  -37.2180   24.7270 C   0  0  0  0  0  1  0  0  0  0  0  0
  -26.4280  -37.3980   23.7860 N   0  0  0  0  0  0  0  0  0  0  0  0
  -26.0270  -38.3180   23.9400 H   0  0  0  0  0  0  0  0  0  0  0  0
  -29.0190  -20.8320   21.2430 C   0  0  0  0  0  2  0  0  0  0  0  0
  -32.2820  -18.6410   21.1930 C   0  0  0  0  0  3  0  0  0  0  0  0
  -31.8090  -17.3760   20.8250 C   0  0  0  0  0  3  0  0  0  0  0  0
  -29.5830  -18.3220   20.6090 C   0  0  0  0  0  3  0  0  0  0  0  0
  -31.4230  -19.7490   21.3400 C   0  0  0  0  0  0  0  0  0  0  0  0
  -30.0430  -19.6460   20.9840 C   0  0  0  0  0  0  0  0  0  0  0  0
  -30.4410  -17.1610   20.5570 C   0  0  0  0  0  0  0  0  0  0  0  0
  -30.6600  -14.6640   19.9800 C   0  0  0  0  0  0  0  0  0  0  0  0
  -30.3250  -12.4280   18.9500 C   0  0  0  0  0  2  0  0  0  0  0  0
  -29.3320  -12.5550   17.7770 C   0  0  0  0  0  2  0  0  0  0  0  0
  -27.8830  -12.4150   18.2810 C   0  0  0  0  0  2  0  0  0  0  0  0
  -27.5920  -13.3010   19.5220 C   0  0  0  0  0  3  0  0  0  0  0  0
  -28.7020  -13.1710   20.5880 C   0  0  0  0  0  2  0  0  0  0  0  0
  -29.9800  -13.4760   19.9330 N   0  0  0  0  0  0  0  0  0  0  0  0
  -31.8020  -14.7400   19.5210 O   0  0  0  0  0  0  0  0  0  0  0  0
  -29.9570  -15.7920   20.3340 N   0  0  0  0  0  0  0  0  0  0  0  0
  -28.9740  -15.6410   20.4970 H   0  0  0  0  0  0  0  0  0  0  0  0
  -25.2580  -13.9270   20.3900 C   0  0  0  0  0  0  0  0  0  0  0  0
  -24.1980  -13.1650   20.8030 C   0  0  0  0  0  0  0  0  0  0  0  0
  -24.6310  -11.8060   20.7160 C   0  0  0  0  0  0  0  0  0  0  0  0
  -26.2690  -13.0330   20.0790 N   0  0  0  0  0  0  0  0  0  0  0  0
  -25.9010  -11.7510   20.3350 N   0  0  0  0  0  0  0  0  0  0  0  0
  -23.8910  -10.5540   20.9180 C   0  0  0  0  0  0  0  0  0  0  0  0
  -24.3160   -9.5870   21.8560 C   0  0  0  0  0  3  0  0  0  0  0  0
  -23.5760   -8.4000   22.0460 C   0  0  0  0  0  3  0  0  0  0  0  0
  -22.3970   -8.1720   21.2970 C   0  0  0  0  0  0  0  0  0  0  0  0
  -21.9920   -9.1260   20.3490 C   0  0  0  0  0  3  0  0  0  0  0  0
  -22.7320  -10.3050   20.1570 C   0  0  0  0  0  3  0  0  0  0  0  0
  -21.6280   -7.0370   21.3970 O   0  0  0  0  0  0  0  0  0  0  0  0
  -21.5350   -6.3300   22.5690 C   0  0  0  0  0  0  0  0  0  0  0  0
  -21.0600   -6.9230   23.7600 C   0  0  0  0  0  3  0  0  0  0  0  0
  -20.9150   -6.1430   24.9240 C   0  0  0  0  0  3  0  0  0  0  0  0
  -21.2350   -4.7720   24.9000 C   0  0  0  0  0  0  0  0  0  0  0  0
  -21.7030   -4.1790   23.7130 C   0  0  0  0  0  3  0  0  0  0  0  0
  -21.8490   -4.9570   22.5510 C   0  0  0  0  0  0  0  0  0  0  0  0
  -22.2810   -4.3770   21.4050 F   0  0  0  0  0  0  0  0  0  0  0  0
  -21.0870   -4.0210   26.0160 F   0  0  0  0  0  0  0  0  0  0  0  0
  -22.8280  -13.6620   21.1620 C   0  0  0  0  0  0  0  0  0  0  0  0
  -22.1320  -12.9570   22.0450 N   0  0  0  0  0  0  0  0  0  0  0  0
  -22.3870  -14.7120   20.6950 O   0  0  0  0  0  0  0  0  0  0  0  0
  -22.5030  -12.1070   22.4440 H   0  0  0  0  0  0  0  0  0  0  0  0
  -21.2140  -13.2700   22.3270 H   0  0  0  0  0  0  0  0  0  0  0  0
  -25.4390  -15.2980   20.2310 N   0  0  0  0  0  0  0  0  0  0  0  0
  -24.6870  -15.9600   20.3890 H   0  0  0  0  0  0  0  0  0  0  0  0
  -26.2630  -15.7270   19.8310 H   0  0  0  0  0  0  0  0  0  0  0  0
  -32.0510  -20.9720   21.9950 C   0  0  0  0  0  3  0  0  0  0  0  0
  -32.7190  -21.6960   21.1000 F   0  0  0  0  0  0  0  0  0  0  0  0
  -32.8960  -20.6090   22.9610 F   0  0  0  0  0  0  0  0  0  0  0  0
  2  4  1  0
  2  5  1  0
  3  7  1  0
  3  1  1  0
  4  9  1  0
  4  1  1  0
  5  6  1  0
  7  5  1  0
  7 50  1  0
  7  8  1  6
 10 21  2  0
 11  9  1  0
 11 16  1  0
 12 20  1  0
 12 22  1  0
 13 19  1  0
 13 15  1  0
 14 20  1  0
 15 14  1  0
 16 15  2  0
 17 18  1  0
 17 11  2  0
 18 13  2  0
 19 12  1  0
 20 10  1  0
 22 24  2  0
 23 22  1  0
 25 23  1  0
 26 35  2  0
 26 31  1  0
 27 23  1  0
 27 31  1  0
 28 27  1  0
 29 30  1  0
 29 28  1  0
 30 26  1  0
 31 32  2  0
 32 33  1  0
 34 33  2  0
 35 34  1  0
 36 10  1  0
 36 41  1  0
 36 37  1  0
 37 40  1  1
 37 38  1  0
 39 37  1  0
 41 44  1  0
 42 46  1  0
 42 41  1  0
 43 42  2  0
 46 45  1  0
 48 46  1  0
 48 49  1  0
 48 47  1  0
 51 54  1  0
 52 51  2  0
 53 55  1  0
 54 95  1  0
 55 50  1  0
 55 54  2  0
 56 53  2  0
 56 52  1  0
 57 65  1  0
 58 63  1  0
 59 60  1  0
 59 58  1  0
 61 60  1  0
 61 70  1  0
 61 62  1  0
 63 57  1  0
 63 62  1  0
 64 57  2  0
 65 66  1  0
 65 56  1  0
 67 68  2  0
 68 87  1  0
 69 68  1  0
 69 72  1  0
 70 71  1  0
 70 67  1  0
 71 69  2  0
 72 73  1  0
 73 74  2  0
 75 78  1  0
 75 74  1  0
 76 75  2  0
 77 76  1  0
 77 72  2  0
 78 79  1  0
 79 80  1  0
 80 81  2  0
 82 81  1  0
 82 86  1  0
 83 82  2  0
 84 79  2  0
 84 83  1  0
 85 84  1  0
 87 88  1  0
 88 91  1  0
 88 90  1  0
 89 87  2  0
 92 93  1  0
 92 67  1  0
 94 92  1  0
 95 97  1  0
 96 95  1  0
M  ISO  4   4 101   9 101  57 100  65 100
M  END
>  <TORSDO>  (23) 
F 19

>  <SCORE>  (23) 
-14.756

>  <name>  (23) 
22

>  <ligand_id>  (23) 
22

>  <original_smiles>  (23) 
[H]c1c([H])c([H])c2c(c1[H])C([H])([H])C([H])([H])C([H])([H])C2([H])N([H])C(=O)C1([H])N(C(=O)C([H])(N([H])C(=O)C([H])(N([H])C([H])([H])[H])C([H])([H])[H])C(C([H])([H])[H])(C([H])([H])[H])C([H])([H])[H])C([H])([H])c2c([H])c(OC3([H])C([H])([H])C([H])([H])[N+]([H])(C([H])([H])c4c([H])c(N([H])C(=O)N5C([H])([H])C([H])([H])C([H])([H])C([H])(n6nc(-c7c([H])c([H])c(Oc8c([H])c([H])c(F)c([H])c8F)c([H])c7[H])c(C(=O)N([H])[H])c6N([H])[H])C5([H])[H])c([H])c([H])c4C([H])(F)F)C([H])(C([H])([H])[H])C3([H])[H])c([H])c([H])c2C1([H])[H]

>  <smiles>  (23) 
[H]c1c([H])c([H])c2c(c1[H])C([H])([H])C([H])([H])C([H])([H])C2([H])N([H])C(=O)C1([H])N(C(=O)C([H])(N([H])C(=O)C([H])(N([H])C([H])([H])[H])C([H])([H])[H])C(C([H])([H])[H])(C([H])([H])[H])C([H])([H])[H])C([H])([H])c2c([H])c(OC3([H])C([H])([H])C([H])([H])[N+]([H])(C([H])([H])c4c([H])c(N([H])C(=O)N5C([H])([H])C([H])([H])C([H])([H])C([H])(n6nc(-c7c([H])c([H])c(Oc8c([H])c([H])c(F)c([H])c8F)c([H])c7[H])c(C(=O)N([H])[H])c6N([H])[H])C5([H])[H])c([H])c([H])c4C([H])(F)F)C([H])(C([H])([H])[H])C3([H])[H])c([H])c([H])c2C1([H])[H]

$$$$
23:0:0
     RDKit          3D

 95104  0  0  1  0  0  0  0  0999 V2000
  -28.4230  -23.7540   20.0140 C   0  0  0  0  0  0  0  0  0  0  0  0
  -30.2580  -24.0610   22.2140 C   0  0  0  0  0  2  0  0  0  0  0  0
  -29.7880  -25.3630   21.5520 C   0  0  0  0  0  2  0  0  0  0  0  0
  -30.4350  -22.9570   21.1550 C   0  0  0  0  0  2  0  0  0  0  0  0
  -28.4880  -25.2000   20.7400 C   0  0  0  0  0  3  0  0  0  0  0  0
  -29.1790  -22.6560   20.4560 N   0  0  0  0  0  0  0  0  0  0  0  0
  -27.5990  -23.6110   19.1060 O   0  0  0  0  0  0  0  0  0  0  0  0
  -28.3850  -26.4590   19.9240 O   0  0  0  0  0  0  0  0  0  0  0  0
  -24.6400  -31.8270   23.1450 C   0  0  0  0  0  0  0  0  0  0  0  0
  -27.2600  -27.3030   20.0130 C   0  0  0  0  0  0  0  0  0  0  0  0
  -23.4330  -30.4360   21.5010 C   0  0  0  0  0  3  0  0  0  0  0  0
  -24.8850  -28.9110   20.0430 C   0  0  0  0  0  0  0  0  0  0  0  0
  -25.9690  -30.7790   21.2910 C   0  0  0  0  0  2  0  0  0  0  0  0
  -26.0580  -29.4040   20.6310 C   0  0  0  0  0  0  0  0  0  0  0  0
  -27.2520  -28.6150   20.5980 C   0  0  0  0  0  3  0  0  0  0  0  0
  -26.0650  -26.8680   19.4110 C   0  0  0  0  0  3  0  0  0  0  0  0
  -24.8910  -27.6500   19.4230 C   0  0  0  0  0  3  0  0  0  0  0  0
  -23.6400  -29.7760   20.1110 C   0  0  0  0  0  2  0  0  0  0  0  0
  -24.7010  -31.0330   22.0360 N   0  0  0  0  0  0  0  0  0  0  0  0
  -23.5600  -32.0840   23.6970 O   0  0  0  0  0  0  0  0  0  0  0  0
  -22.7920  -29.4020   22.4570 C   0  0  0  0  0  0  0  0  0  0  0  0
  -21.4710  -29.1910   22.3280 N   0  0  0  0  0  0  0  0  0  0  0  0
  -23.4850  -28.7910   23.2750 O   0  0  0  0  0  0  0  0  0  0  0  0
  -20.9700  -29.7370   21.6410 H   0  0  0  0  0  0  0  0  0  0  0  0
  -18.1400  -27.8460   22.7630 C   0  0  0  0  0  0  0  0  0  0  0  0
  -20.6770  -28.2280   23.0920 C   0  0  0  0  0  3  0  0  0  0  0  0
  -20.8580  -26.7940   22.5420 C   0  0  0  0  0  2  0  0  0  0  0  0
  -19.7980  -26.4060   21.5060 C   0  0  0  0  0  2  0  0  0  0  0  0
  -18.3950  -26.4970   22.1130 C   0  0  0  0  0  2  0  0  0  0  0  0
  -19.2120  -28.6650   23.2080 C   0  0  0  0  0  0  0  0  0  0  0  0
  -18.9190  -29.9250   23.7770 C   0  0  0  0  0  3  0  0  0  0  0  0
  -17.5890  -30.3670   23.9020 C   0  0  0  0  0  3  0  0  0  0  0  0
  -16.5320  -29.5460   23.4720 C   0  0  0  0  0  3  0  0  0  0  0  0
  -16.8080  -28.2870   22.9090 C   0  0  0  0  0  3  0  0  0  0  0  0
  -25.9210  -32.4680   23.7620 C   0  0  0  0  0  3  0  0  0  0  0  0
  -25.5960  -33.8550   24.1220 N   0  0  0  0  0  0  0  0  0  0  0  0
  -25.9190  -34.9300   23.3900 C   0  0  0  0  0  0  0  0  0  0  0  0
  -26.5920  -34.8560   22.3580 O   0  0  0  0  0  0  0  0  0  0  0  0
  -24.9960  -33.9840   24.9240 H   0  0  0  0  0  0  0  0  0  0  0  0
  -24.1710  -36.7120   23.0830 C   0  0  0  0  0  1  0  0  0  0  0  0
  -25.4200  -36.3030   23.8810 C   0  0  0  0  0  3  0  0  0  0  0  0
  -27.5500  -37.1900   24.7180 C   0  0  0  0  0  1  0  0  0  0  0  0
  -26.4410  -37.3680   23.7850 N   0  0  0  0  0  0  0  0  0  0  0  0
  -26.0270  -38.2810   23.9560 H   0  0  0  0  0  0  0  0  0  0  0  0
  -26.4650  -31.6830   25.0180 C   0  0  1  0  0  0  0  0  0  0  0  0
  -25.3910  -31.4160   26.0990 C   0  0  0  0  0  1  0  0  0  0  0  0
  -27.0600  -30.3190   24.5980 C   0  0  0  0  0  1  0  0  0  0  0  0
  -27.6160  -32.4810   25.6760 C   0  0  0  0  0  1  0  0  0  0  0  0
  -28.9710  -21.1810   20.0310 C   0  0  0  0  0  2  0  0  0  0  0  0
  -29.7760  -18.6030   19.9400 C   0  0  0  0  0  3  0  0  0  0  0  0
  -30.9580  -17.4970   21.7440 C   0  0  0  0  0  3  0  0  0  0  0  0
  -29.6750  -19.8700   20.6680 C   0  0  0  0  0  0  0  0  0  0  0  0
  -30.1220  -19.8130   22.0230 C   0  0  0  0  0  0  0  0  0  0  0  0
  -30.3850  -17.3850   20.4650 C   0  0  0  0  0  0  0  0  0  0  0  0
  -30.8160  -18.6710   22.5110 C   0  0  0  0  0  0  0  0  0  0  0  0
  -29.8000  -20.9130   23.0290 C   0  0  0  0  0  1  0  0  0  0  0  0
  -31.4640  -18.6500   24.1160 Cl  0  0  0  0  0  0  0  0  0  0  0  0
  -31.0610  -14.8830   19.9540 C   0  0  0  0  0  0  0  0  0  0  0  0
  -30.7910  -12.5920   18.9710 C   0  0  0  0  0  2  0  0  0  0  0  0
  -29.8100  -12.6480   17.7780 C   0  0  0  0  0  2  0  0  0  0  0  0
  -28.3490  -12.5270   18.2620 C   0  0  0  0  0  2  0  0  0  0  0  0
  -28.0360  -13.4610   19.4620 C   0  0  0  0  0  3  0  0  0  0  0  0
  -29.1270  -13.3690   20.5490 C   0  0  0  0  0  2  0  0  0  0  0  0
  -30.4050  -13.6770   19.8960 N   0  0  0  0  0  0  0  0  0  0  0  0
  -32.2710  -14.9430   19.7200 O   0  0  0  0  0  0  0  0  0  0  0  0
  -30.2700  -16.0240   19.8830 N   0  0  0  0  0  0  0  0  0  0  0  0
  -29.3370  -15.8070   19.5710 H   0  0  0  0  0  0  0  0  0  0  0  0
  -25.7100  -14.1590   20.2850 C   0  0  0  0  0  0  0  0  0  0  0  0
  -24.6210  -13.4340   20.6820 C   0  0  0  0  0  0  0  0  0  0  0  0
  -25.0190  -12.0630   20.6260 C   0  0  0  0  0  0  0  0  0  0  0  0
  -26.7010  -13.2330   20.0030 N   0  0  0  0  0  0  0  0  0  0  0  0
  -26.2940  -11.9660   20.2730 N   0  0  0  0  0  0  0  0  0  0  0  0
  -24.2400  -10.8340   20.8290 C   0  0  0  0  0  0  0  0  0  0  0  0
  -24.6440   -9.8490   21.7580 C   0  0  0  0  0  3  0  0  0  0  0  0
  -23.8690   -8.6860   21.9490 C   0  0  0  0  0  3  0  0  0  0  0  0
  -22.6760   -8.4980   21.2120 C   0  0  0  0  0  0  0  0  0  0  0  0
  -22.2910   -9.4710   20.2710 C   0  0  0  0  0  3  0  0  0  0  0  0
  -23.0660  -10.6270   20.0780 C   0  0  0  0  0  3  0  0  0  0  0  0
  -21.8740   -7.3880   21.3120 O   0  0  0  0  0  0  0  0  0  0  0  0
  -21.7850   -6.6680   22.4750 C   0  0  0  0  0  0  0  0  0  0  0  0
  -21.3930   -7.2660   23.6940 C   0  0  0  0  0  3  0  0  0  0  0  0
  -21.2470   -6.4750   24.8500 C   0  0  0  0  0  3  0  0  0  0  0  0
  -21.4820   -5.0880   24.7910 C   0  0  0  0  0  0  0  0  0  0  0  0
  -21.8670   -4.4900   23.5780 C   0  0  0  0  0  3  0  0  0  0  0  0
  -22.0150   -5.2790   22.4230 C   0  0  0  0  0  0  0  0  0  0  0  0
  -22.3650   -4.6940   21.2520 F   0  0  0  0  0  0  0  0  0  0  0  0
  -21.3350   -4.3270   25.9000 F   0  0  0  0  0  0  0  0  0  0  0  0
  -23.2570  -13.9740   21.0010 C   0  0  0  0  0  0  0  0  0  0  0  0
  -22.5300  -13.3140   21.8950 N   0  0  0  0  0  0  0  0  0  0  0  0
  -22.8470  -15.0170   20.4920 O   0  0  0  0  0  0  0  0  0  0  0  0
  -22.8750  -12.4710   22.3300 H   0  0  0  0  0  0  0  0  0  0  0  0
  -21.6160  -13.6590   22.1520 H   0  0  0  0  0  0  0  0  0  0  0  0
  -25.9290  -15.5230   20.1140 N   0  0  0  0  0  0  0  0  0  0  0  0
  -25.1950  -16.2060   20.2650 H   0  0  0  0  0  0  0  0  0  0  0  0
  -26.7800  -15.9350   19.7530 H   0  0  0  0  0  0  0  0  0  0  0  0
  1  6  1  0
  1  5  1  0
  3  2  1  0
  4  2  1  0
  5  8  1  0
  5  3  1  0
  6  4  1  0
  7  1  2  0
  8 10  1  0
  9 20  2  0
 10 15  1  0
 11 19  1  0
 11 21  1  0
 12 18  1  0
 12 14  1  0
 13 19  1  0
 14 13  1  0
 15 14  2  0
 16 17  1  0
 16 10  2  0
 17 12  2  0
 18 11  1  0
 19  9  1  0
 21 23  2  0
 22 21  1  0
 24 22  1  0
 25 34  2  0
 25 30  1  0
 26 22  1  0
 26 30  1  0
 27 26  1  0
 28 29  1  0
 28 27  1  0
 29 25  1  0
 30 31  2  0
 31 32  1  0
 33 32  2  0
 34 33  1  0
 35  9  1  0
 35 36  1  0
 35 45  1  0
 36 39  1  0
 37 41  1  0
 37 36  1  0
 38 37  2  0
 41 40  1  0
 43 41  1  0
 43 44  1  0
 43 42  1  0
 45 48  1  1
 45 46  1  0
 47 45  1  0
 49  6  1  0
 49 52  1  0
 50 54  2  0
 50 52  1  0
 51 55  2  0
 52 53  2  0
 53 55  1  0
 53 56  1  0
 54 51  1  0
 55 57  1  0
 59 64  1  0
 60 61  1  0
 60 59  1  0
 62 61  1  0
 62 71  1  0
 62 63  1  0
 64 58  1  0
 64 63  1  0
 65 58  2  0
 66 58  1  0
 66 54  1  0
 67 66  1  0
 68 69  2  0
 69 88  1  0
 70 69  1  0
 70 73  1  0
 71 72  1  0
 71 68  1  0
 72 70  2  0
 73 74  1  0
 74 75  2  0
 76 79  1  0
 76 75  1  0
 77 76  2  0
 78 77  1  0
 78 73  2  0
 79 80  1  0
 80 81  1  0
 81 82  2  0
 83 82  1  0
 83 87  1  0
 84 83  2  0
 85 80  2  0
 85 84  1  0
 86 85  1  0
 88 89  1  0
 89 92  1  0
 89 91  1  0
 90 88  2  0
 93 94  1  0
 93 68  1  0
 95 93  1  0
M  ISO  4   5 101   8 101  58 100  66 100
M  END
>  <TORSDO>  (24) 
F 18

>  <SCORE>  (24) 
-12.956

>  <name>  (24) 
23

>  <ligand_id>  (24) 
23

>  <original_smiles>  (24) 
[H]c1c([H])c([H])c2c(c1[H])C([H])([H])C([H])([H])C([H])([H])C2([H])N([H])C(=O)C1([H])N(C(=O)C([H])(N([H])C(=O)C([H])(N([H])C([H])([H])[H])C([H])([H])[H])C(C([H])([H])[H])(C([H])([H])[H])C([H])([H])[H])C([H])([H])c2c([H])c(OC3([H])C(=O)N(C([H])([H])c4c([H])c(N([H])C(=O)N5C([H])([H])C([H])([H])C([H])([H])C([H])(n6nc(-c7c([H])c([H])c(Oc8c([H])c([H])c(F)c([H])c8F)c([H])c7[H])c(C(=O)N([H])[H])c6N([H])[H])C5([H])[H])c([H])c(Cl)c4C([H])([H])[H])C([H])([H])C([H])([H])C3([H])[H])c([H])c([H])c2C1([H])[H]

>  <smiles>  (24) 
[H]c1c([H])c([H])c2c(c1[H])C([H])([H])C([H])([H])C([H])([H])C2([H])N([H])C(=O)C1([H])N(C(=O)C([H])(N([H])C(=O)C([H])(N([H])C([H])([H])[H])C([H])([H])[H])C(C([H])([H])[H])(C([H])([H])[H])C([H])([H])[H])C([H])([H])c2c([H])c(OC3([H])C(=O)N(C([H])([H])c4c([H])c(N([H])C(=O)N5C([H])([H])C([H])([H])C([H])([H])C([H])(n6nc(-c7c([H])c([H])c(Oc8c([H])c([H])c(F)c([H])c8F)c([H])c7[H])c(C(=O)N([H])[H])c6N([H])[H])C5([H])[H])c([H])c(Cl)c4C([H])([H])[H])C([H])([H])C([H])([H])C3([H])[H])c([H])c([H])c2C1([H])[H]

$$$$
24:0:0
     RDKit          3D

 92100  0  0  1  0  0  0  0  0999 V2000
  -30.1610  -22.2240   20.1670 C   0  0  0  0  0  3  0  0  0  0  0  0
  -29.4900  -23.1910   19.6680 N   0  0  0  0  0  0  0  0  0  0  0  0
  -29.4030  -24.3950   20.3540 C   0  0  0  0  0  0  0  0  0  0  0  0
  -30.0670  -24.7720   21.3250 O   0  0  0  0  0  0  0  0  0  0  0  0
  -28.2850  -25.2800   19.7820 C   0  0  0  0  0  2  0  0  0  0  0  0
  -28.3990  -26.6690   20.1510 O   0  0  0  0  0  0  0  0  0  0  0  0
  -24.5870  -31.8630   23.1890 C   0  0  0  0  0  0  0  0  0  0  0  0
  -27.2330  -27.4160   20.1030 C   0  0  0  0  0  0  0  0  0  0  0  0
  -23.3850  -30.4700   21.5390 C   0  0  0  0  0  3  0  0  0  0  0  0
  -24.8400  -28.9420   20.1120 C   0  0  0  0  0  0  0  0  0  0  0  0
  -25.9150  -30.8200   21.3550 C   0  0  0  0  0  2  0  0  0  0  0  0
  -25.9990  -29.4530   20.7090 C   0  0  0  0  0  0  0  0  0  0  0  0
  -27.1960  -28.6980   20.7030 C   0  0  0  0  0  3  0  0  0  0  0  0
  -26.0520  -26.9360   19.4820 C   0  0  0  0  0  3  0  0  0  0  0  0
  -24.8610  -27.6820   19.4970 C   0  0  0  0  0  3  0  0  0  0  0  0
  -23.5980  -29.8020   20.1570 C   0  0  0  0  0  2  0  0  0  0  0  0
  -24.6460  -31.0660   22.0850 N   0  0  0  0  0  0  0  0  0  0  0  0
  -23.5040  -32.1340   23.7250 O   0  0  0  0  0  0  0  0  0  0  0  0
  -22.7290  -29.4430   22.4920 C   0  0  0  0  0  0  0  0  0  0  0  0
  -21.4030  -29.2670   22.3620 N   0  0  0  0  0  0  0  0  0  0  0  0
  -23.4090  -28.8090   23.3020 O   0  0  0  0  0  0  0  0  0  0  0  0
  -20.9160  -29.8310   21.6800 H   0  0  0  0  0  0  0  0  0  0  0  0
  -18.0200  -28.0980   22.8620 C   0  0  0  0  0  0  0  0  0  0  0  0
  -20.5820  -28.3300   23.1270 C   0  0  0  0  0  3  0  0  0  0  0  0
  -20.6700  -26.9030   22.5380 C   0  0  0  0  0  2  0  0  0  0  0  0
  -19.5600  -26.5990   21.5240 C   0  0  0  0  0  2  0  0  0  0  0  0
  -18.1820  -26.7520   22.1750 C   0  0  0  0  0  2  0  0  0  0  0  0
  -19.1480  -28.8450   23.2940 C   0  0  0  0  0  0  0  0  0  0  0  0
  -18.9430  -30.1070   23.8950 C   0  0  0  0  0  3  0  0  0  0  0  0
  -17.6430  -30.6190   24.0700 C   0  0  0  0  0  3  0  0  0  0  0  0
  -16.5320  -29.8670   23.6530 C   0  0  0  0  0  3  0  0  0  0  0  0
  -16.7210  -28.6090   23.0550 C   0  0  0  0  0  3  0  0  0  0  0  0
  -25.8720  -32.4910   23.8120 C   0  0  0  0  0  3  0  0  0  0  0  0
  -26.3860  -31.7130   25.0860 C   0  0  1  0  0  0  0  0  0  0  0  0
  -25.2930  -31.4680   26.1510 C   0  0  0  0  0  1  0  0  0  0  0  0
  -26.9720  -30.3390   24.6850 C   0  0  0  0  0  1  0  0  0  0  0  0
  -27.5360  -32.5040   25.7520 C   0  0  0  0  0  1  0  0  0  0  0  0
  -25.5610  -33.8860   24.1480 N   0  0  0  0  0  0  0  0  0  0  0  0
  -25.9020  -34.9440   23.3970 C   0  0  0  0  0  0  0  0  0  0  0  0
  -26.5820  -34.8450   22.3720 O   0  0  0  0  0  0  0  0  0  0  0  0
  -24.9580  -34.0360   24.9420 H   0  0  0  0  0  0  0  0  0  0  0  0
  -24.1850  -36.7440   23.0240 C   0  0  0  0  0  1  0  0  0  0  0  0
  -25.4100  -36.3290   23.8560 C   0  0  0  0  0  3  0  0  0  0  0  0
  -27.5330  -37.1970   24.7300 C   0  0  0  0  0  1  0  0  0  0  0  0
  -26.4460  -37.3810   23.7730 N   0  0  0  0  0  0  0  0  0  0  0  0
  -26.0390  -38.3000   23.9290 H   0  0  0  0  0  0  0  0  0  0  0  0
  -30.3910  -20.9470   19.3620 C   0  0  0  0  0  2  0  0  0  0  0  0
  -31.4790  -18.8510   20.2850 C   0  0  0  0  0  3  0  0  0  0  0  0
  -31.4340  -17.4960   20.6720 C   0  0  0  0  0  3  0  0  0  0  0  0
  -29.0090  -17.5960   20.7240 C   0  0  0  0  0  3  0  0  0  0  0  0
  -30.2910  -19.5840   20.0610 C   0  0  0  0  0  0  0  0  0  0  0  0
  -29.0460  -18.9580   20.3360 C   0  0  0  0  0  0  0  0  0  0  0  0
  -30.1940  -16.8340   20.8300 C   0  0  0  0  0  0  0  0  0  0  0  0
  -27.7350  -19.7080   20.1630 C   0  0  0  0  0  1  0  0  0  0  0  0
  -30.7190  -14.4550   20.3770 C   0  0  0  0  0  0  0  0  0  0  0  0
  -30.3670  -12.3380   19.1610 C   0  0  0  0  0  2  0  0  0  0  0  0
  -29.4120  -12.6000   17.9780 C   0  0  0  0  0  2  0  0  0  0  0  0
  -27.9440  -12.4620   18.4230 C   0  0  0  0  0  2  0  0  0  0  0  0
  -27.6360  -13.2590   19.7190 C   0  0  0  0  0  3  0  0  0  0  0  0
  -28.7040  -12.9920   20.8050 C   0  0  0  0  0  2  0  0  0  0  0  0
  -30.0280  -13.2910   20.2310 N   0  0  0  0  0  0  0  0  0  0  0  0
  -31.8150  -14.6390   19.8410 O   0  0  0  0  0  0  0  0  0  0  0  0
  -30.0850  -15.4270   21.0680 N   0  0  0  0  0  0  0  0  0  0  0  0
  -29.2230  -15.1200   21.4920 H   0  0  0  0  0  0  0  0  0  0  0  0
  -25.2410  -13.8610   20.4490 C   0  0  0  0  0  0  0  0  0  0  0  0
  -24.1790  -13.0870   20.8310 C   0  0  0  0  0  0  0  0  0  0  0  0
  -24.6430  -11.7370   20.7970 C   0  0  0  0  0  0  0  0  0  0  0  0
  -26.2870  -12.9820   20.2090 N   0  0  0  0  0  0  0  0  0  0  0  0
  -25.9280  -11.6980   20.4720 N   0  0  0  0  0  0  0  0  0  0  0  0
  -23.9210  -10.4730   20.9980 C   0  0  0  0  0  0  0  0  0  0  0  0
  -24.3620   -9.5100   21.9330 C   0  0  0  0  0  3  0  0  0  0  0  0
  -23.6410   -8.3120   22.1210 C   0  0  0  0  0  3  0  0  0  0  0  0
  -22.4640   -8.0680   21.3750 C   0  0  0  0  0  0  0  0  0  0  0  0
  -22.0410   -9.0180   20.4300 C   0  0  0  0  0  3  0  0  0  0  0  0
  -22.7630  -10.2070   20.2390 C   0  0  0  0  0  3  0  0  0  0  0  0
  -21.7140   -6.9200   21.4720 O   0  0  0  0  0  0  0  0  0  0  0  0
  -21.6720   -6.1830   22.6300 C   0  0  0  0  0  0  0  0  0  0  0  0
  -21.2440   -6.7430   23.8540 C   0  0  0  0  0  3  0  0  0  0  0  0
  -21.1490   -5.9320   25.0030 C   0  0  0  0  0  3  0  0  0  0  0  0
  -21.4700   -4.5630   24.9300 C   0  0  0  0  0  0  0  0  0  0  0  0
  -21.8930   -4.0040   23.7110 C   0  0  0  0  0  3  0  0  0  0  0  0
  -21.9900   -4.8120   22.5630 C   0  0  0  0  0  0  0  0  0  0  0  0
  -22.3750   -4.2620   21.3860 F   0  0  0  0  0  0  0  0  0  0  0  0
  -21.3730   -3.7840   26.0310 F   0  0  0  0  0  0  0  0  0  0  0  0
  -22.7830  -13.5620   21.1190 C   0  0  0  0  0  0  0  0  0  0  0  0
  -22.0670  -12.8660   21.9950 N   0  0  0  0  0  0  0  0  0  0  0  0
  -22.3380  -14.5870   20.6040 O   0  0  0  0  0  0  0  0  0  0  0  0
  -22.4400  -12.0370   22.4340 H   0  0  0  0  0  0  0  0  0  0  0  0
  -21.1320  -13.1670   22.2290 H   0  0  0  0  0  0  0  0  0  0  0  0
  -25.4030  -15.2310   20.2650 N   0  0  0  0  0  0  0  0  0  0  0  0
  -24.6370  -15.8860   20.3770 H   0  0  0  0  0  0  0  0  0  0  0  0
  -26.2410  -15.6630   19.9010 H   0  0  0  0  0  0  0  0  0  0  0  0
  2  1  2  0
  2  3  1  0
  3  4  2  0
  5  6  1  0
  5  3  1  0
  7 18  2  0
  8  6  1  0
  8 13  1  0
  9 17  1  0
  9 19  1  0
 10 16  1  0
 10 12  1  0
 11 17  1  0
 12 11  1  0
 13 12  2  0
 14 15  1  0
 14  8  2  0
 15 10  2  0
 16  9  1  0
 17  7  1  0
 19 21  2  0
 20 19  1  0
 22 20  1  0
 23 32  2  0
 23 28  1  0
 24 20  1  0
 24 28  1  0
 25 24  1  0
 26 27  1  0
 26 25  1  0
 27 23  1  0
 28 29  2  0
 29 30  1  0
 31 30  2  0
 32 31  1  0
 33  7  1  0
 33 38  1  0
 33 34  1  0
 34 37  1  1
 34 35  1  0
 36 34  1  0
 38 41  1  0
 39 43  1  0
 39 38  1  0
 40 39  2  0
 43 42  1  0
 45 43  1  0
 45 46  1  0
 45 44  1  0
 47 51  1  0
 47  1  1  0
 48 49  1  0
 49 53  2  0
 50 53  1  0
 51 48  2  0
 51 52  1  0
 52 50  2  0
 53 63  1  0
 54 52  1  0
 55 63  1  0
 56 61  1  0
 57 58  1  0
 57 56  1  0
 59 58  1  0
 59 68  1  0
 59 60  1  0
 61 55  1  0
 61 60  1  0
 62 55  2  0
 63 64  1  0
 65 66  2  0
 66 85  1  0
 67 66  1  0
 67 70  1  0
 68 65  1  0
 68 69  1  0
 69 67  2  0
 70 71  1  0
 71 72  2  0
 73 76  1  0
 73 72  1  0
 74 73  2  0
 75 74  1  0
 75 70  2  0
 76 77  1  0
 77 78  1  0
 78 79  2  0
 80 79  1  0
 80 84  1  0
 81 80  2  0
 82 77  2  0
 82 81  1  0
 83 82  1  0
 85 86  1  0
 86 89  1  0
 86 88  1  0
 87 85  2  0
 90 91  1  0
 90 65  1  0
 92 90  1  0
M  ISO  4   5 101   6 101  55 100  63 100
M  END
>  <TORSDO>  (25) 
F 20

>  <SCORE>  (25) 
-14.020

>  <name>  (25) 
24

>  <ligand_id>  (25) 
24

>  <original_smiles>  (25) 
[H]C(=NC(=O)C([H])([H])Oc1c([H])c([H])c2c(c1[H])C([H])([H])N(C(=O)C([H])(N([H])C(=O)C([H])(N([H])C([H])([H])[H])C([H])([H])[H])C(C([H])([H])[H])(C([H])([H])[H])C([H])([H])[H])C([H])(C(=O)N([H])C1([H])c3c([H])c([H])c([H])c([H])c3C([H])([H])C([H])([H])C1([H])[H])C2([H])[H])C([H])([H])c1c([H])c([H])c(N([H])C(=O)N2C([H])([H])C([H])([H])C([H])([H])C([H])(n3nc(-c4c([H])c([H])c(Oc5c([H])c([H])c(F)c([H])c5F)c([H])c4[H])c(C(=O)N([H])[H])c3N([H])[H])C2([H])[H])c([H])c1C([H])([H])[H]

>  <smiles>  (25) 
[H]C(=NC(=O)C([H])([H])Oc1c([H])c([H])c2c(c1[H])C([H])([H])N(C(=O)C([H])(N([H])C(=O)C([H])(N([H])C([H])([H])[H])C([H])([H])[H])C(C([H])([H])[H])(C([H])([H])[H])C([H])([H])[H])C([H])(C(=O)N([H])C1([H])c3c([H])c([H])c([H])c([H])c3C([H])([H])C([H])([H])C1([H])[H])C2([H])[H])C([H])([H])c1c([H])c([H])c(N([H])C(=O)N2C([H])([H])C([H])([H])C([H])([H])C([H])(n3nc(-c4c([H])c([H])c(Oc5c([H])c([H])c(F)c([H])c5F)c([H])c4[H])c(C(=O)N([H])[H])c3N([H])[H])C2([H])[H])c([H])c1C([H])([H])[H]

$$$$
25:0:0
     RDKit          3D

 95103  0  0  1  0  0  0  0  0999 V2000
  -30.0170  -22.6510   20.2810 C   0  0  0  0  0  0  0  0  0  0  0  0
  -29.7870  -21.4420   20.8200 N   0  0  0  0  0  0  0  0  0  0  0  0
  -30.9160  -22.8360   19.4590 O   0  0  0  0  0  0  0  0  0  0  0  0
  -29.0370  -21.3520   21.4900 H   0  0  0  0  0  0  0  0  0  0  0  0
  -29.1000  -23.6840   20.7550 C   0  0  0  0  0  3  0  0  0  0  0  0
  -29.3920  -24.9940   20.5900 C   0  0  0  0  0  3  0  0  0  0  0  0
  -28.5150  -26.1570   21.0340 C   0  0  0  0  0  2  0  0  0  0  0  0
  -28.3630  -27.1290   19.9980 O   0  0  0  0  0  0  0  0  0  0  0  0
  -24.5470  -32.1320   23.3680 C   0  0  0  0  0  0  0  0  0  0  0  0
  -27.1990  -27.8550   20.0810 C   0  0  0  0  0  0  0  0  0  0  0  0
  -23.3300  -30.7650   21.7010 C   0  0  0  0  0  3  0  0  0  0  0  0
  -24.7800  -29.3040   20.1930 C   0  0  0  0  0  0  0  0  0  0  0  0
  -25.8400  -31.1760   21.4640 C   0  0  0  0  0  2  0  0  0  0  0  0
  -25.9370  -29.8280   20.7840 C   0  0  0  0  0  0  0  0  0  0  0  0
  -27.1510  -29.1070   20.7340 C   0  0  0  0  0  3  0  0  0  0  0  0
  -26.0320  -27.3410   19.4810 C   0  0  0  0  0  3  0  0  0  0  0  0
  -24.8200  -28.0570   19.5420 C   0  0  0  0  0  3  0  0  0  0  0  0
  -23.5240  -30.1390   20.2940 C   0  0  0  0  0  2  0  0  0  0  0  0
  -24.5920  -31.3710   22.2370 N   0  0  0  0  0  0  0  0  0  0  0  0
  -23.4750  -32.3650   23.9420 O   0  0  0  0  0  0  0  0  0  0  0  0
  -22.7170  -29.7000   22.6390 C   0  0  0  0  0  0  0  0  0  0  0  0
  -21.4050  -29.4550   22.4910 N   0  0  0  0  0  0  0  0  0  0  0  0
  -23.4200  -29.0990   23.4550 O   0  0  0  0  0  0  0  0  0  0  0  0
  -20.8940  -30.0040   21.8130 H   0  0  0  0  0  0  0  0  0  0  0  0
  -18.1110  -28.0130   22.8510 C   0  0  0  0  0  0  0  0  0  0  0  0
  -20.6260  -28.4660   23.2360 C   0  0  0  0  0  3  0  0  0  0  0  0
  -20.8620  -27.0400   22.6860 C   0  0  0  0  0  2  0  0  0  0  0  0
  -19.8350  -26.6220   21.6280 C   0  0  0  0  0  2  0  0  0  0  0  0
  -18.4170  -26.6730   22.2040 C   0  0  0  0  0  2  0  0  0  0  0  0
  -19.1480  -28.8620   23.3210 C   0  0  0  0  0  0  0  0  0  0  0  0
  -18.8080  -30.1120   23.8820 C   0  0  0  0  0  3  0  0  0  0  0  0
  -17.4650  -30.5170   23.9800 C   0  0  0  0  0  3  0  0  0  0  0  0
  -16.4400  -29.6680   23.5250 C   0  0  0  0  0  3  0  0  0  0  0  0
  -16.7640  -28.4190   22.9680 C   0  0  0  0  0  3  0  0  0  0  0  0
  -25.8360  -32.7640   23.9790 C   0  0  0  0  0  3  0  0  0  0  0  0
  -25.5400  -34.1710   24.2840 N   0  0  0  0  0  0  0  0  0  0  0  0
  -25.8660  -35.2030   23.4980 C   0  0  0  0  0  0  0  0  0  0  0  0
  -26.5220  -35.0760   22.4590 O   0  0  0  0  0  0  0  0  0  0  0  0
  -24.9610  -34.3470   25.0920 H   0  0  0  0  0  0  0  0  0  0  0  0
  -24.1280  -36.9850   23.1410 C   0  0  0  0  0  1  0  0  0  0  0  0
  -25.3900  -36.6020   23.9310 C   0  0  0  0  0  3  0  0  0  0  0  0
  -27.5440  -37.5090   24.6820 C   0  0  0  0  0  1  0  0  0  0  0  0
  -26.4190  -37.6520   23.7640 N   0  0  0  0  0  0  0  0  0  0  0  0
  -26.0150  -38.5740   23.9010 H   0  0  0  0  0  0  0  0  0  0  0  0
  -26.3480  -32.0110   25.2690 C   0  0  1  0  0  0  0  0  0  0  0  0
  -25.2530  -31.7870   26.3350 C   0  0  0  0  0  1  0  0  0  0  0  0
  -26.9330  -30.6300   24.8920 C   0  0  0  0  0  1  0  0  0  0  0  0
  -27.4960  -32.8150   25.9250 C   0  0  0  0  0  1  0  0  0  0  0  0
  -30.5310  -20.2180   20.4830 C   0  0  0  0  0  2  0  0  0  0  0  0
  -31.1590  -19.8600   22.9140 C   0  0  0  0  0  3  0  0  0  0  0  0
  -31.4210  -19.0580   24.0390 C   0  0  0  0  0  3  0  0  0  0  0  0
  -30.9650  -17.0680   22.7190 C   0  0  0  0  0  3  0  0  0  0  0  0
  -30.7930  -19.2830   21.6750 C   0  0  0  0  0  0  0  0  0  0  0  0
  -30.7190  -17.8610   21.5690 C   0  0  0  0  0  0  0  0  0  0  0  0
  -31.3090  -17.6610   23.9460 C   0  0  0  0  0  0  0  0  0  0  0  0
  -31.5920  -16.6750   25.3330 Cl  0  0  0  0  0  0  0  0  0  0  0  0
  -30.3920  -17.1790   20.2350 C   0  0  0  0  0  2  0  0  0  0  0  0
  -30.7220  -14.7670   19.6230 C   0  0  0  0  0  0  0  0  0  0  0  0
  -30.2860  -12.6280   18.4800 C   0  0  0  0  0  2  0  0  0  0  0  0
  -29.2220  -12.8630   17.3880 C   0  0  0  0  0  2  0  0  0  0  0  0
  -27.8030  -12.7230   17.9680 C   0  0  0  0  0  2  0  0  0  0  0  0
  -27.6070  -13.5580   19.2610 C   0  0  0  0  0  3  0  0  0  0  0  0
  -28.7670  -13.3050   20.2520 C   0  0  0  0  0  2  0  0  0  0  0  0
  -30.0350  -13.5960   19.5580 N   0  0  0  0  0  0  0  0  0  0  0  0
  -31.7600  -14.9770   18.9910 O   0  0  0  0  0  0  0  0  0  0  0  0
  -30.1040  -15.7420   20.3070 N   0  0  0  0  0  0  0  0  0  0  0  0
  -29.2550  -15.4840   20.7860 H   0  0  0  0  0  0  0  0  0  0  0  0
  -25.3220  -14.1980   20.2610 C   0  0  0  0  0  0  0  0  0  0  0  0
  -24.2760  -13.4370   20.7130 C   0  0  0  0  0  0  0  0  0  0  0  0
  -24.6860  -12.0770   20.5620 C   0  0  0  0  0  0  0  0  0  0  0  0
  -26.3060  -13.3010   19.8730 N   0  0  0  0  0  0  0  0  0  0  0  0
  -25.9320  -12.0170   20.1090 N   0  0  0  0  0  0  0  0  0  0  0  0
  -23.9450  -10.8260   20.7700 C   0  0  0  0  0  0  0  0  0  0  0  0
  -24.4410   -9.8050   21.6100 C   0  0  0  0  0  3  0  0  0  0  0  0
  -23.7010   -8.6190   21.8080 C   0  0  0  0  0  3  0  0  0  0  0  0
  -22.4520   -8.4460   21.1660 C   0  0  0  0  0  0  0  0  0  0  0  0
  -21.9750   -9.4570   20.3110 C   0  0  0  0  0  3  0  0  0  0  0  0
  -22.7150  -10.6330   20.1120 C   0  0  0  0  0  3  0  0  0  0  0  0
  -21.6770   -7.3170   21.2780 O   0  0  0  0  0  0  0  0  0  0  0  0
  -21.6930   -6.5440   22.4110 C   0  0  0  0  0  0  0  0  0  0  0  0
  -21.3740   -7.0740   23.6810 C   0  0  0  0  0  3  0  0  0  0  0  0
  -21.3310   -6.2290   24.8080 C   0  0  0  0  0  3  0  0  0  0  0  0
  -21.5990   -4.8540   24.6670 C   0  0  0  0  0  0  0  0  0  0  0  0
  -21.9130   -4.3230   23.4030 C   0  0  0  0  0  3  0  0  0  0  0  0
  -21.9550   -5.1660   22.2790 C   0  0  0  0  0  0  0  0  0  0  0  0
  -22.2350   -4.6440   21.0600 F   0  0  0  0  0  0  0  0  0  0  0  0
  -21.5530   -4.0400   25.7470 F   0  0  0  0  0  0  0  0  0  0  0  0
  -22.9360  -13.9380   21.1670 C   0  0  0  0  0  0  0  0  0  0  0  0
  -22.2920  -13.2280   22.0880 N   0  0  0  0  0  0  0  0  0  0  0  0
  -22.4720  -14.9940   20.7410 O   0  0  0  0  0  0  0  0  0  0  0  0
  -22.6820  -12.3740   22.4570 H   0  0  0  0  0  0  0  0  0  0  0  0
  -21.3970  -13.5500   22.4300 H   0  0  0  0  0  0  0  0  0  0  0  0
  -25.5110  -15.5700   20.1340 N   0  0  0  0  0  0  0  0  0  0  0  0
  -24.7810  -16.2390   20.3570 H   0  0  0  0  0  0  0  0  0  0  0  0
  -26.3370  -16.0030   19.7440 H   0  0  0  0  0  0  0  0  0  0  0  0
  1  5  1  0
  1  2  1  0
  2  4  1  0
  3  1  2  0
  6  5  2  0
  6  7  1  0
  8 10  1  0
  8  7  1  0
  9 20  2  0
 10 15  1  0
 11 19  1  0
 11 21  1  0
 12 18  1  0
 12 14  1  0
 13 19  1  0
 14 13  1  0
 15 14  2  0
 16 17  1  0
 16 10  2  0
 17 12  2  0
 18 11  1  0
 19  9  1  0
 21 23  2  0
 22 21  1  0
 24 22  1  0
 25 34  2  0
 25 30  1  0
 26 22  1  0
 26 30  1  0
 27 26  1  0
 28 29  1  0
 28 27  1  0
 29 25  1  0
 30 31  2  0
 31 32  1  0
 33 32  2  0
 34 33  1  0
 35  9  1  0
 35 36  1  0
 35 45  1  0
 36 39  1  0
 37 41  1  0
 37 36  1  0
 38 37  2  0
 41 40  1  0
 43 44  1  0
 43 41  1  0
 43 42  1  0
 45 48  1  1
 45 46  1  0
 47 45  1  0
 49  2  1  0
 49 53  1  0
 50 51  1  0
 52 55  1  0
 53 50  2  0
 54 53  1  0
 54 52  2  0
 55 51  2  0
 55 56  1  0
 57 66  1  0
 57 54  1  0
 58 66  1  0
 59 64  1  0
 60 61  1  0
 60 59  1  0
 62 61  1  0
 62 71  1  0
 62 63  1  0
 64 58  1  0
 64 63  1  0
 65 58  2  0
 66 67  1  0
 68 69  2  0
 69 88  1  0
 70 69  1  0
 70 73  1  0
 71 72  1  0
 71 68  1  0
 72 70  2  0
 73 74  1  0
 74 75  2  0
 76 79  1  0
 76 75  1  0
 77 76  2  0
 78 77  1  0
 78 73  2  0
 79 80  1  0
 80 81  1  0
 81 82  2  0
 83 82  1  0
 83 87  1  0
 84 83  2  0
 85 80  2  0
 85 84  1  0
 86 85  1  0
 88 89  1  0
 89 92  1  0
 89 91  1  0
 90 88  2  0
 93 68  1  0
 93 94  1  0
 95 93  1  0
M  ISO  4   7 101   8 101  58 100  66 100
M  END
>  <TORSDO>  (26) 
F 21

>  <SCORE>  (26) 
-6.052

>  <name>  (26) 
25

>  <ligand_id>  (26) 
25

>  <original_smiles>  (26) 
[H]C(C(=O)N([H])C([H])([H])c1c([H])c([H])c(Cl)c([H])c1C([H])([H])N([H])C(=O)N1C([H])([H])C([H])([H])C([H])([H])C([H])(n2nc(-c3c([H])c([H])c(Oc4c([H])c([H])c(F)c([H])c4F)c([H])c3[H])c(C(=O)N([H])[H])c2N([H])[H])C1([H])[H])=C([H])C([H])([H])Oc1c([H])c([H])c2c(c1[H])C([H])([H])N(C(=O)C([H])(N([H])C(=O)C([H])(N([H])C([H])([H])[H])C([H])([H])[H])C(C([H])([H])[H])(C([H])([H])[H])C([H])([H])[H])C([H])(C(=O)N([H])C1([H])c3c([H])c([H])c([H])c([H])c3C([H])([H])C([H])([H])C1([H])[H])C2([H])[H]

>  <smiles>  (26) 
[H]C(C(=O)N([H])C([H])([H])c1c([H])c([H])c(Cl)c([H])c1C([H])([H])N([H])C(=O)N1C([H])([H])C([H])([H])C([H])([H])C([H])(n2nc(-c3c([H])c([H])c(Oc4c([H])c([H])c(F)c([H])c4F)c([H])c3[H])c(C(=O)N([H])[H])c2N([H])[H])C1([H])[H])=C([H])C([H])([H])Oc1c([H])c([H])c2c(c1[H])C([H])([H])N(C(=O)C([H])(N([H])C(=O)C([H])(N([H])C([H])([H])[H])C([H])([H])[H])C(C([H])([H])[H])(C([H])([H])[H])C([H])([H])[H])C([H])(C(=O)N([H])C1([H])c3c([H])c([H])c([H])c([H])c3C([H])([H])C([H])([H])C1([H])[H])C2([H])[H]

$$$$
26:0:0
     RDKit          3D

 94102  0  0  1  0  0  0  0  0999 V2000
  -30.8220  -22.4580   19.7340 C   0  0  0  0  0  0  0  0  0  0  0  0
  -30.5870  -21.1470   19.5610 N   0  0  0  0  0  0  0  0  0  0  0  0
  -31.9530  -22.9190   19.8950 O   0  0  0  0  0  0  0  0  0  0  0  0
  -29.6270  -20.8690   19.4150 H   0  0  0  0  0  0  0  0  0  0  0  0
  -29.5930  -23.2340   19.6850 C   0  0  0  0  0  3  0  0  0  0  0  0
  -29.5790  -24.5830   19.5950 C   0  0  0  0  0  3  0  0  0  0  0  0
  -28.2860  -25.3800   19.4990 C   0  0  0  0  0  2  0  0  0  0  0  0
  -28.3010  -26.6340   20.2000 O   0  0  0  0  0  0  0  0  0  0  0  0
  -24.5930  -31.9300   23.2500 C   0  0  0  0  0  0  0  0  0  0  0  0
  -27.1270  -27.3790   20.1990 C   0  0  0  0  0  0  0  0  0  0  0  0
  -23.3420  -30.5180   21.6530 C   0  0  0  0  0  3  0  0  0  0  0  0
  -24.7520  -28.9370   20.2360 C   0  0  0  0  0  0  0  0  0  0  0  0
  -25.8730  -30.8280   21.4160 C   0  0  0  0  0  2  0  0  0  0  0  0
  -25.9270  -29.4420   20.8020 C   0  0  0  0  0  0  0  0  0  0  0  0
  -27.1140  -28.6690   20.7880 C   0  0  0  0  0  3  0  0  0  0  0  0
  -25.9200  -26.8990   19.6290 C   0  0  0  0  0  3  0  0  0  0  0  0
  -24.7420  -27.6620   19.6550 C   0  0  0  0  0  3  0  0  0  0  0  0
  -23.5220  -29.8160   20.2830 C   0  0  0  0  0  2  0  0  0  0  0  0
  -24.6220  -31.1080   22.1640 N   0  0  0  0  0  0  0  0  0  0  0  0
  -23.5230  -32.2320   23.7970 O   0  0  0  0  0  0  0  0  0  0  0  0
  -22.6890  -29.5230   22.6400 C   0  0  0  0  0  0  0  0  0  0  0  0
  -21.3680  -29.3250   22.5040 N   0  0  0  0  0  0  0  0  0  0  0  0
  -23.3680  -28.9320   23.4840 O   0  0  0  0  0  0  0  0  0  0  0  0
  -20.8810  -29.8590   21.7970 H   0  0  0  0  0  0  0  0  0  0  0  0
  -18.0080  -28.0720   22.9580 C   0  0  0  0  0  0  0  0  0  0  0  0
  -20.5480  -28.4070   23.2950 C   0  0  0  0  0  3  0  0  0  0  0  0
  -20.7020  -26.9510   22.7980 C   0  0  0  0  0  2  0  0  0  0  0  0
  -19.6420  -26.5490   21.7700 C   0  0  0  0  0  2  0  0  0  0  0  0
  -18.2370  -26.6940   22.3620 C   0  0  0  0  0  2  0  0  0  0  0  0
  -19.0940  -28.8830   23.3830 C   0  0  0  0  0  0  0  0  0  0  0  0
  -18.8280  -30.1700   23.8970 C   0  0  0  0  0  3  0  0  0  0  0  0
  -17.5090  -30.6480   23.9950 C   0  0  0  0  0  3  0  0  0  0  0  0
  -16.4360  -29.8350   23.5890 C   0  0  0  0  0  3  0  0  0  0  0  0
  -16.6870  -28.5500   23.0740 C   0  0  0  0  0  3  0  0  0  0  0  0
  -25.8960  -32.5530   23.8380 C   0  0  0  0  0  3  0  0  0  0  0  0
  -26.4480  -31.7700   25.0920 C   0  0  1  0  0  0  0  0  0  0  0  0
  -25.3840  -31.5200   26.1860 C   0  0  0  0  0  1  0  0  0  0  0  0
  -27.0230  -30.3990   24.6670 C   0  0  0  0  0  1  0  0  0  0  0  0
  -27.6140  -32.5600   25.7310 C   0  0  0  0  0  1  0  0  0  0  0  0
  -25.6000  -33.9490   24.1880 N   0  0  0  0  0  0  0  0  0  0  0  0
  -25.9090  -35.0070   23.4250 C   0  0  0  0  0  0  0  0  0  0  0  0
  -26.5480  -34.9110   22.3740 O   0  0  0  0  0  0  0  0  0  0  0  0
  -25.0350  -34.1000   25.0110 H   0  0  0  0  0  0  0  0  0  0  0  0
  -24.1680  -36.7970   23.1370 C   0  0  0  0  0  1  0  0  0  0  0  0
  -25.4350  -36.3920   23.9060 C   0  0  0  0  0  3  0  0  0  0  0  0
  -27.5980  -37.2700   24.6670 C   0  0  0  0  0  1  0  0  0  0  0  0
  -26.4620  -37.4470   23.7660 N   0  0  0  0  0  0  0  0  0  0  0  0
  -26.0610  -38.3640   23.9410 H   0  0  0  0  0  0  0  0  0  0  0  0
  -31.5780  -20.0690   19.5000 C   0  0  0  0  0  2  0  0  0  0  0  0
  -31.4540  -19.4780   21.9710 C   0  0  0  0  0  3  0  0  0  0  0  0
  -31.3080  -18.5460   23.0160 C   0  0  0  0  0  3  0  0  0  0  0  0
  -31.2780  -17.6710   20.3430 C   0  0  0  0  0  3  0  0  0  0  0  0
  -31.4310  -19.0490   20.6280 C   0  0  0  0  0  0  0  0  0  0  0  0
  -31.1260  -17.1760   22.7340 C   0  0  0  0  0  0  0  0  0  0  0  0
  -31.1220  -16.7260   21.3910 C   0  0  0  0  0  0  0  0  0  0  0  0
  -30.9370  -16.2050   23.8890 C   0  0  0  0  0  1  0  0  0  0  0  0
  -31.3590  -14.5060   20.2280 C   0  0  0  0  0  0  0  0  0  0  0  0
  -30.9300  -12.4060   18.9910 C   0  0  0  0  0  2  0  0  0  0  0  0
  -29.9760  -12.6620   17.8060 C   0  0  0  0  0  2  0  0  0  0  0  0
  -28.5030  -12.6010   18.2540 C   0  0  0  0  0  2  0  0  0  0  0  0
  -28.2300  -13.4510   19.5220 C   0  0  0  0  0  3  0  0  0  0  0  0
  -29.2750  -13.1360   20.6140 C   0  0  0  0  0  2  0  0  0  0  0  0
  -30.6200  -13.3760   20.0530 N   0  0  0  0  0  0  0  0  0  0  0  0
  -32.4050  -14.7320   19.6090 O   0  0  0  0  0  0  0  0  0  0  0  0
  -30.8710  -15.3410   21.1580 N   0  0  0  0  0  0  0  0  0  0  0  0
  -30.1410  -14.9370   21.7240 H   0  0  0  0  0  0  0  0  0  0  0  0
  -25.8720  -14.2040   20.2410 C   0  0  0  0  0  0  0  0  0  0  0  0
  -24.7630  -13.4950   20.6210 C   0  0  0  0  0  0  0  0  0  0  0  0
  -25.1450  -12.1190   20.5900 C   0  0  0  0  0  0  0  0  0  0  0  0
  -26.8640  -13.2620   20.0090 N   0  0  0  0  0  0  0  0  0  0  0  0
  -26.4280  -12.0040   20.2710 N   0  0  0  0  0  0  0  0  0  0  0  0
  -24.3510  -10.9000   20.7910 C   0  0  0  0  0  0  0  0  0  0  0  0
  -24.7180   -9.9280   21.7470 C   0  0  0  0  0  3  0  0  0  0  0  0
  -23.9280   -8.7730   21.9350 C   0  0  0  0  0  3  0  0  0  0  0  0
  -22.7550   -8.5830   21.1650 C   0  0  0  0  0  0  0  0  0  0  0  0
  -22.4060   -9.5430   20.1990 C   0  0  0  0  0  3  0  0  0  0  0  0
  -23.1960  -10.6900   20.0100 C   0  0  0  0  0  3  0  0  0  0  0  0
  -21.9420   -7.4790   21.2590 O   0  0  0  0  0  0  0  0  0  0  0  0
  -21.8000   -6.7880   22.4350 C   0  0  0  0  0  0  0  0  0  0  0  0
  -21.3640   -7.4180   23.6210 C   0  0  0  0  0  3  0  0  0  0  0  0
  -21.1660   -6.6570   24.7910 C   0  0  0  0  0  3  0  0  0  0  0  0
  -21.3920   -5.2670   24.7730 C   0  0  0  0  0  0  0  0  0  0  0  0
  -21.8210   -4.6380   23.5910 C   0  0  0  0  0  3  0  0  0  0  0  0
  -22.0210   -5.3960   22.4250 C   0  0  0  0  0  0  0  0  0  0  0  0
  -22.4140   -4.7820   21.2830 F   0  0  0  0  0  0  0  0  0  0  0  0
  -21.1950   -4.5340   25.8940 F   0  0  0  0  0  0  0  0  0  0  0  0
  -23.3980  -14.0510   20.9060 C   0  0  0  0  0  0  0  0  0  0  0  0
  -22.6530  -13.4160   21.8050 N   0  0  0  0  0  0  0  0  0  0  0  0
  -23.0030  -15.0850   20.3690 O   0  0  0  0  0  0  0  0  0  0  0  0
  -22.9850  -12.5800   22.2620 H   0  0  0  0  0  0  0  0  0  0  0  0
  -21.7360  -13.7720   22.0410 H   0  0  0  0  0  0  0  0  0  0  0  0
  -26.1150  -15.5610   20.0600 N   0  0  0  0  0  0  0  0  0  0  0  0
  -25.3920  -16.2630   20.1760 H   0  0  0  0  0  0  0  0  0  0  0  0
  -26.9990  -15.9500   19.7560 H   0  0  0  0  0  0  0  0  0  0  0  0
  1  3  2  0
  2  1  1  0
  4  2  1  0
  5  1  1  0
  6  5  2  0
  7  6  1  0
  7  8  1  0
  9 20  2  0
 10  8  1  0
 10 15  1  0
 11 19  1  0
 11 21  1  0
 12 18  1  0
 12 14  1  0
 13 19  1  0
 14 13  1  0
 15 14  2  0
 16 17  1  0
 16 10  2  0
 17 12  2  0
 18 11  1  0
 19  9  1  0
 21 23  2  0
 22 21  1  0
 24 22  1  0
 25 34  2  0
 25 30  1  0
 26 22  1  0
 26 30  1  0
 27 26  1  0
 28 29  1  0
 28 27  1  0
 29 25  1  0
 30 31  2  0
 31 32  1  0
 33 32  2  0
 34 33  1  0
 35  9  1  0
 35 40  1  0
 35 36  1  0
 36 39  1  1
 36 37  1  0
 38 36  1  0
 40 43  1  0
 41 45  1  0
 41 40  1  0
 42 41  2  0
 45 44  1  0
 47 45  1  0
 47 48  1  0
 47 46  1  0
 49  2  1  0
 49 53  1  0
 50 51  1  0
 52 53  1  0
 52 55  2  0
 53 50  2  0
 54 51  2  0
 54 56  1  0
 55 54  1  0
 57 65  1  0
 58 63  1  0
 59 60  1  0
 59 58  1  0
 61 60  1  0
 61 70  1  0
 61 62  1  0
 63 57  1  0
 63 62  1  0
 64 57  2  0
 65 55  1  0
 65 66  1  0
 67 68  2  0
 68 87  1  0
 69 68  1  0
 69 72  1  0
 70 67  1  0
 70 71  1  0
 71 69  2  0
 72 73  1  0
 73 74  2  0
 75 78  1  0
 75 74  1  0
 76 75  2  0
 77 76  1  0
 77 72  2  0
 78 79  1  0
 79 80  1  0
 80 81  2  0
 82 81  1  0
 82 86  1  0
 83 82  2  0
 84 79  2  0
 84 83  1  0
 85 84  1  0
 87 88  1  0
 88 91  1  0
 88 90  1  0
 89 87  2  0
 92 93  1  0
 92 67  1  0
 94 92  1  0
M  ISO  4   7 101   8 101  57 100  65 100
M  END
>  <TORSDO>  (27) 
F 20

>  <SCORE>  (27) 
-10.234

>  <name>  (27) 
26

>  <ligand_id>  (27) 
26

>  <original_smiles>  (27) 
[H]C(C(=O)N([H])C([H])([H])c1c([H])c([H])c(C([H])([H])[H])c(N([H])C(=O)N2C([H])([H])C([H])([H])C([H])([H])C([H])(n3nc(-c4c([H])c([H])c(Oc5c([H])c([H])c(F)c([H])c5F)c([H])c4[H])c(C(=O)N([H])[H])c3N([H])[H])C2([H])[H])c1[H])=C([H])C([H])([H])Oc1c([H])c([H])c2c(c1[H])C([H])([H])N(C(=O)C([H])(N([H])C(=O)C([H])(N([H])C([H])([H])[H])C([H])([H])[H])C(C([H])([H])[H])(C([H])([H])[H])C([H])([H])[H])C([H])(C(=O)N([H])C1([H])c3c([H])c([H])c([H])c([H])c3C([H])([H])C([H])([H])C1([H])[H])C2([H])[H]

>  <smiles>  (27) 
[H]C(C(=O)N([H])C([H])([H])c1c([H])c([H])c(C([H])([H])[H])c(N([H])C(=O)N2C([H])([H])C([H])([H])C([H])([H])C([H])(n3nc(-c4c([H])c([H])c(Oc5c([H])c([H])c(F)c([H])c5F)c([H])c4[H])c(C(=O)N([H])[H])c3N([H])[H])C2([H])[H])c1[H])=C([H])C([H])([H])Oc1c([H])c([H])c2c(c1[H])C([H])([H])N(C(=O)C([H])(N([H])C(=O)C([H])(N([H])C([H])([H])[H])C([H])([H])[H])C(C([H])([H])[H])(C([H])([H])[H])C([H])([H])[H])C([H])(C(=O)N([H])C1([H])c3c([H])c([H])c([H])c([H])c3C([H])([H])C([H])([H])C1([H])[H])C2([H])[H]

$$$$
27:0:0
     RDKit          3D

 94102  0  0  1  0  0  0  0  0999 V2000
  -29.1720  -21.5310   18.8550 C   0  0  0  0  0  2  0  0  0  0  0  0
  -30.4050  -19.2900   18.5140 C   0  0  0  0  0  3  0  0  0  0  0  0
  -30.6350  -17.8950   18.7060 C   0  0  0  0  0  3  0  0  0  0  0  0
  -29.5000  -20.0500   19.3060 C   0  0  0  0  0  0  0  0  0  0  0  0
  -28.8230  -19.3270   20.3360 C   0  0  0  0  0  0  0  0  0  0  0  0
  -29.1030  -17.9320   20.5700 C   0  0  0  0  0  0  0  0  0  0  0  0
  -29.9840  -17.1730   19.7370 C   0  0  0  0  0  0  0  0  0  0  0  0
  -27.7230  -20.0160   21.1480 C   0  0  0  0  0  1  0  0  0  0  0  0
  -28.4200  -17.2360   21.7430 C   0  0  0  0  0  1  0  0  0  0  0  0
  -30.8330  -14.6950   19.4470 C   0  0  0  0  0  0  0  0  0  0  0  0
  -30.4900  -12.4530   18.4360 C   0  0  0  0  0  2  0  0  0  0  0  0
  -29.3980  -12.6210   17.3550 C   0  0  0  0  0  2  0  0  0  0  0  0
  -27.9830  -12.4990   17.9580 C   0  0  0  0  0  2  0  0  0  0  0  0
  -27.8110  -13.3370   19.2520 C   0  0  0  0  0  3  0  0  0  0  0  0
  -29.0040  -13.1290   20.2150 C   0  0  0  0  0  2  0  0  0  0  0  0
  -30.2340  -13.4630   19.4790 N   0  0  0  0  0  0  0  0  0  0  0  0
  -31.9330  -14.8650   18.9140 O   0  0  0  0  0  0  0  0  0  0  0  0
  -30.0460  -15.7180   19.9090 N   0  0  0  0  0  0  0  0  0  0  0  0
  -29.2440  -15.3560   20.4000 H   0  0  0  0  0  0  0  0  0  0  0  0
  -25.5760  -13.9860   20.3400 C   0  0  0  0  0  0  0  0  0  0  0  0
  -24.5290  -13.2310   20.8000 C   0  0  0  0  0  0  0  0  0  0  0  0
  -24.9110  -11.8690   20.6080 C   0  0  0  0  0  0  0  0  0  0  0  0
  -26.5310  -13.0800   19.9020 N   0  0  0  0  0  0  0  0  0  0  0  0
  -26.1430  -11.7970   20.1210 N   0  0  0  0  0  0  0  0  0  0  0  0
  -24.1490  -10.6300   20.8040 C   0  0  0  0  0  0  0  0  0  0  0  0
  -24.5710   -9.6430   21.7190 C   0  0  0  0  0  3  0  0  0  0  0  0
  -23.8120   -8.4660   21.9040 C   0  0  0  0  0  3  0  0  0  0  0  0
  -22.6150   -8.2720   21.1720 C   0  0  0  0  0  0  0  0  0  0  0  0
  -22.2140   -9.2470   20.2420 C   0  0  0  0  0  3  0  0  0  0  0  0
  -22.9740  -10.4140   20.0570 C   0  0  0  0  0  3  0  0  0  0  0  0
  -21.8280   -7.1490   21.2640 O   0  0  0  0  0  0  0  0  0  0  0  0
  -21.6690   -6.4800   22.4500 C   0  0  0  0  0  0  0  0  0  0  0  0
  -21.1480   -7.1100   23.6010 C   0  0  0  0  0  3  0  0  0  0  0  0
  -20.9380   -6.3640   24.7770 C   0  0  0  0  0  3  0  0  0  0  0  0
  -21.2380   -4.9890   24.8030 C   0  0  0  0  0  0  0  0  0  0  0  0
  -21.7550   -4.3580   23.6580 C   0  0  0  0  0  3  0  0  0  0  0  0
  -21.9670   -5.1020   22.4830 C   0  0  0  0  0  0  0  0  0  0  0  0
  -22.4420   -4.4840   21.3750 F   0  0  0  0  0  0  0  0  0  0  0  0
  -21.0310   -4.2700   25.9330 F   0  0  0  0  0  0  0  0  0  0  0  0
  -23.2110  -13.7490   21.2960 C   0  0  0  0  0  0  0  0  0  0  0  0
  -22.5930  -13.0430   22.2390 N   0  0  0  0  0  0  0  0  0  0  0  0
  -22.7410  -14.8090   20.8850 O   0  0  0  0  0  0  0  0  0  0  0  0
  -22.9900  -12.1830   22.5850 H   0  0  0  0  0  0  0  0  0  0  0  0
  -21.7150  -13.3690   22.6180 H   0  0  0  0  0  0  0  0  0  0  0  0
  -25.7890  -15.3570   20.2400 N   0  0  0  0  0  0  0  0  0  0  0  0
  -25.0670  -16.0270   20.4850 H   0  0  0  0  0  0  0  0  0  0  0  0
  -26.5930  -15.7900   19.8040 H   0  0  0  0  0  0  0  0  0  0  0  0
  -28.7170  -23.9660   19.3430 C   0  0  0  0  0  0  0  0  0  0  0  0
  -29.2790  -22.7590   19.7410 N   0  0  0  0  0  0  0  0  0  0  0  0
  -28.2460  -24.0870   18.2060 O   0  0  0  0  0  0  0  0  0  0  0  0
  -30.0140  -22.4730   22.1690 C   0  0  0  0  0  1  0  0  0  0  0  0
  -30.3960  -22.7650   20.7030 C   0  0  0  0  0  2  0  0  0  0  0  0
  -28.5720  -25.2040   20.3260 C   0  0  0  0  0  2  0  0  0  0  0  0
  -28.6610  -26.5470   19.7180 O   0  0  0  0  0  0  0  0  0  0  0  0
  -24.5690  -31.5800   22.8710 C   0  0  0  0  0  0  0  0  0  0  0  0
  -27.5010  -27.3130   19.7220 C   0  0  0  0  0  0  0  0  0  0  0  0
  -23.4810  -30.1570   21.1740 C   0  0  0  0  0  3  0  0  0  0  0  0
  -25.0440  -28.7550   19.7180 C   0  0  0  0  0  0  0  0  0  0  0  0
  -25.9940  -30.6510   21.0340 C   0  0  0  0  0  2  0  0  0  0  0  0
  -26.1720  -29.3050   20.3450 C   0  0  0  0  0  0  0  0  0  0  0  0
  -27.4040  -28.5960   20.3340 C   0  0  0  0  0  3  0  0  0  0  0  0
  -26.3520  -26.8010   19.0820 C   0  0  0  0  0  3  0  0  0  0  0  0
  -25.1390  -27.5110   19.0730 C   0  0  0  0  0  3  0  0  0  0  0  0
  -23.7510  -29.5420   19.7760 C   0  0  0  0  0  2  0  0  0  0  0  0
  -24.7010  -30.8100   21.7530 N   0  0  0  0  0  0  0  0  0  0  0  0
  -23.4600  -31.7720   23.3910 O   0  0  0  0  0  0  0  0  0  0  0  0
  -22.8770  -29.0650   22.0910 C   0  0  0  0  0  0  0  0  0  0  0  0
  -21.5600  -28.8300   21.9550 N   0  0  0  0  0  0  0  0  0  0  0  0
  -23.5890  -28.4410   22.8780 O   0  0  0  0  0  0  0  0  0  0  0  0
  -21.0390  -29.3890   21.2930 H   0  0  0  0  0  0  0  0  0  0  0  0
  -18.2340  -27.5130   22.4490 C   0  0  0  0  0  0  0  0  0  0  0  0
  -20.7890  -27.8250   22.6890 C   0  0  0  0  0  3  0  0  0  0  0  0
  -20.9210  -26.4320   22.0290 C   0  0  0  0  0  2  0  0  0  0  0  0
  -19.8080  -26.1370   21.0220 C   0  0  0  0  0  2  0  0  0  0  0  0
  -18.4360  -26.2100   21.6970 C   0  0  0  0  0  2  0  0  0  0  0  0
  -19.3410  -28.2790   22.9030 C   0  0  0  0  0  0  0  0  0  0  0  0
  -19.0990  -29.5030   23.5620 C   0  0  0  0  0  3  0  0  0  0  0  0
  -17.7860  -29.9540   23.7850 C   0  0  0  0  0  3  0  0  0  0  0  0
  -16.6920  -29.1810   23.3530 C   0  0  0  0  0  3  0  0  0  0  0  0
  -16.9190  -27.9650   22.6850 C   0  0  0  0  0  3  0  0  0  0  0  0
  -25.7980  -32.2750   23.5330 C   0  0  0  0  0  3  0  0  0  0  0  0
  -26.3900  -31.4590   24.7450 C   0  0  1  0  0  0  0  0  0  0  0  0
  -25.3330  -31.0420   25.7940 C   0  0  0  0  0  1  0  0  0  0  0  0
  -27.0900  -30.1740   24.2400 C   0  0  0  0  0  1  0  0  0  0  0  0
  -27.4640  -32.3030   25.4700 C   0  0  0  0  0  1  0  0  0  0  0  0
  -25.3690  -33.6110   23.9700 N   0  0  0  0  0  0  0  0  0  0  0  0
  -25.6050  -34.7430   23.2950 C   0  0  0  0  0  0  0  0  0  0  0  0
  -26.2760  -34.7770   22.2600 O   0  0  0  0  0  0  0  0  0  0  0  0
  -24.7670  -33.6570   24.7790 H   0  0  0  0  0  0  0  0  0  0  0  0
  -23.7370  -36.4070   23.0740 C   0  0  0  0  0  1  0  0  0  0  0  0
  -25.0050  -36.0430   23.8620 C   0  0  0  0  0  3  0  0  0  0  0  0
  -27.0530  -37.0330   24.7810 C   0  0  0  0  0  1  0  0  0  0  0  0
  -25.9460  -37.1830   23.8430 N   0  0  0  0  0  0  0  0  0  0  0  0
  -25.4630  -38.0500   24.0610 H   0  0  0  0  0  0  0  0  0  0  0  0
  1  4  1  0
  1 49  1  0
  2  3  2  0
  2  4  1  0
  3  7  1  0
  4  5  2  0
  5  6  1  0
  5  8  1  0
  6  9  1  0
  7 18  1  0
  7  6  2  0
 10 16  1  0
 10 18  1  0
 11 16  1  0
 12 13  1  0
 12 11  1  0
 14 13  1  0
 14 23  1  0
 14 15  1  0
 16 15  1  0
 17 10  2  0
 18 19  1  0
 20 21  2  0
 21 40  1  0
 22 21  1  0
 22 25  1  0
 23 24  1  0
 23 20  1  0
 24 22  2  0
 25 26  1  0
 26 27  2  0
 28 31  1  0
 28 27  1  0
 29 28  2  0
 30 29  1  0
 30 25  2  0
 31 32  1  0
 32 37  2  0
 32 33  1  0
 33 34  2  0
 34 35  1  0
 35 39  1  0
 36 35  2  0
 37 36  1  0
 38 37  1  0
 40 41  1  0
 41 43  1  0
 41 44  1  0
 42 40  2  0
 45 20  1  0
 45 46  1  0
 47 45  1  0
 48 49  1  0
 48 53  1  0
 49 52  1  0
 50 48  2  0
 52 51  1  0
 54 56  1  0
 54 53  1  0
 55 66  2  0
 56 61  1  0
 57 65  1  0
 57 67  1  0
 58 64  1  0
 58 60  1  0
 59 65  1  0
 60 59  1  0
 61 60  2  0
 62 56  2  0
 63 62  1  0
 63 58  2  0
 64 57  1  0
 65 55  1  0
 67 69  2  0
 68 67  1  0
 70 68  1  0
 71 80  2  0
 71 76  1  0
 72 68  1  0
 72 76  1  0
 73 72  1  0
 74 75  1  0
 74 73  1  0
 75 71  1  0
 76 77  2  0
 77 78  1  0
 79 78  2  0
 80 79  1  0
 81 55  1  0
 81 86  1  0
 81 82  1  0
 82 85  1  1
 82 83  1  0
 84 82  1  0
 86 89  1  0
 87 91  1  0
 87 86  1  0
 88 87  2  0
 91 90  1  0
 93 91  1  0
 93 94  1  0
 93 92  1  0
M  ISO  4  10 100  18 100  53 101  54 101
M  END
>  <TORSDO>  (28) 
F 20

>  <SCORE>  (28) 
-9.661

>  <name>  (28) 
27

>  <ligand_id>  (28) 
27

>  <original_smiles>  (28) 
[H]c1c([H])c([H])c2c(c1[H])C([H])([H])C([H])([H])C([H])([H])C2([H])N([H])C(=O)C1([H])N(C(=O)C([H])(N([H])C(=O)C([H])(N([H])C([H])([H])[H])C([H])([H])[H])C(C([H])([H])[H])(C([H])([H])[H])C([H])([H])[H])C([H])([H])c2c([H])c(OC([H])([H])C(=O)N(C([H])([H])c3c([H])c([H])c(N([H])C(=O)N4C([H])([H])C([H])([H])C([H])([H])C([H])(n5nc(-c6c([H])c([H])c(Oc7c([H])c([H])c(F)c([H])c7F)c([H])c6[H])c(C(=O)N([H])[H])c5N([H])[H])C4([H])[H])c(C([H])([H])[H])c3C([H])([H])[H])C([H])([H])C([H])([H])[H])c([H])c([H])c2C1([H])[H]

>  <smiles>  (28) 
[H]c1c([H])c([H])c2c(c1[H])C([H])([H])C([H])([H])C([H])([H])C2([H])N([H])C(=O)C1([H])N(C(=O)C([H])(N([H])C(=O)C([H])(N([H])C([H])([H])[H])C([H])([H])[H])C(C([H])([H])[H])(C([H])([H])[H])C([H])([H])[H])C([H])([H])c2c([H])c(OC([H])([H])C(=O)N(C([H])([H])c3c([H])c([H])c(N([H])C(=O)N4C([H])([H])C([H])([H])C([H])([H])C([H])(n5nc(-c6c([H])c([H])c(Oc7c([H])c([H])c(F)c([H])c7F)c([H])c6[H])c(C(=O)N([H])[H])c5N([H])[H])C4([H])[H])c(C([H])([H])[H])c3C([H])([H])[H])C([H])([H])C([H])([H])[H])c([H])c([H])c2C1([H])[H]

$$$$
28:0:0
     RDKit          3D

 94103  0  0  1  0  0  0  0  0999 V2000
  -28.7040  -23.7280   19.8990 C   0  0  0  0  0  0  0  0  0  0  0  0
  -28.2760  -23.5630   22.7660 C   0  0  0  0  0  2  0  0  0  0  0  0
  -28.4910  -24.9610   22.1650 C   0  0  0  0  0  2  0  0  0  0  0  0
  -29.0950  -22.4940   22.0150 C   0  0  0  0  0  2  0  0  0  0  0  0
  -28.1030  -25.0000   20.6790 C   0  0  0  0  0  3  0  0  0  0  0  0
  -28.9060  -22.5070   20.5530 N   0  0  0  0  0  0  0  0  0  0  0  0
  -28.8570  -23.8250   18.6780 O   0  0  0  0  0  0  0  0  0  0  0  0
  -28.3470  -26.3930   20.1470 O   0  0  0  0  0  0  0  0  0  0  0  0
  -24.6610  -31.8750   23.2110 C   0  0  0  0  0  0  0  0  0  0  0  0
  -27.2570  -27.2950   20.1380 C   0  0  0  0  0  0  0  0  0  0  0  0
  -23.4520  -30.4730   21.5790 C   0  0  0  0  0  3  0  0  0  0  0  0
  -24.8990  -28.9310   20.1350 C   0  0  0  0  0  0  0  0  0  0  0  0
  -25.9900  -30.7920   21.3790 C   0  0  0  0  0  2  0  0  0  0  0  0
  -26.0720  -29.4100   20.7320 C   0  0  0  0  0  0  0  0  0  0  0  0
  -27.2560  -28.6030   20.7250 C   0  0  0  0  0  3  0  0  0  0  0  0
  -26.0670  -26.8860   19.5020 C   0  0  0  0  0  3  0  0  0  0  0  0
  -24.9000  -27.6730   19.5100 C   0  0  0  0  0  3  0  0  0  0  0  0
  -23.6610  -29.8050   20.1950 C   0  0  0  0  0  2  0  0  0  0  0  0
  -24.7210  -31.0650   22.1130 N   0  0  0  0  0  0  0  0  0  0  0  0
  -23.5800  -32.1480   23.7550 O   0  0  0  0  0  0  0  0  0  0  0  0
  -22.7980  -29.4530   22.5410 C   0  0  0  0  0  0  0  0  0  0  0  0
  -21.4700  -29.2750   22.4260 N   0  0  0  0  0  0  0  0  0  0  0  0
  -23.4820  -28.8270   23.3550 O   0  0  0  0  0  0  0  0  0  0  0  0
  -20.9750  -29.8280   21.7390 H   0  0  0  0  0  0  0  0  0  0  0  0
  -18.1020  -28.0650   22.9460 C   0  0  0  0  0  0  0  0  0  0  0  0
  -20.6600  -28.3330   23.2010 C   0  0  0  0  0  3  0  0  0  0  0  0
  -20.7670  -26.9050   22.6200 C   0  0  0  0  0  2  0  0  0  0  0  0
  -19.6590  -26.5800   21.6120 C   0  0  0  0  0  2  0  0  0  0  0  0
  -18.2810  -26.7190   22.2660 C   0  0  0  0  0  2  0  0  0  0  0  0
  -19.2200  -28.8300   23.3710 C   0  0  0  0  0  0  0  0  0  0  0  0
  -18.9990  -30.0930   23.9650 C   0  0  0  0  0  3  0  0  0  0  0  0
  -17.6930  -30.5860   24.1420 C   0  0  0  0  0  3  0  0  0  0  0  0
  -16.5890  -29.8160   23.7360 C   0  0  0  0  0  3  0  0  0  0  0  0
  -16.7950  -28.5580   23.1410 C   0  0  0  0  0  3  0  0  0  0  0  0
  -25.9460  -32.5100   23.8260 C   0  0  0  0  0  3  0  0  0  0  0  0
  -25.6300  -33.9040   24.1710 N   0  0  0  0  0  0  0  0  0  0  0  0
  -25.9490  -34.9650   23.4180 C   0  0  0  0  0  0  0  0  0  0  0  0
  -26.6050  -34.8740   22.3780 O   0  0  0  0  0  0  0  0  0  0  0  0
  -25.0420  -34.0480   24.9780 H   0  0  0  0  0  0  0  0  0  0  0  0
  -24.2060  -36.7540   23.1020 C   0  0  0  0  0  1  0  0  0  0  0  0
  -25.4590  -36.3450   23.8940 C   0  0  0  0  0  3  0  0  0  0  0  0
  -27.5950  -37.2370   24.7130 C   0  0  0  0  0  1  0  0  0  0  0  0
  -26.4830  -37.4050   23.7810 N   0  0  0  0  0  0  0  0  0  0  0  0
  -26.0720  -38.3200   23.9410 H   0  0  0  0  0  0  0  0  0  0  0  0
  -26.4780  -31.7320   25.0920 C   0  0  1  0  0  0  0  0  0  0  0  0
  -25.3980  -31.4840   26.1700 C   0  0  0  0  0  1  0  0  0  0  0  0
  -27.0620  -30.3590   24.6870 C   0  0  0  0  0  1  0  0  0  0  0  0
  -27.6310  -32.5260   25.7500 C   0  0  0  0  0  1  0  0  0  0  0  0
  -28.8660  -21.1080   19.9100 C   0  0  0  0  0  2  0  0  0  0  0  0
  -31.7110  -17.7140   20.6310 C   0  0  0  0  0  3  0  0  0  0  0  0
  -32.1460  -19.0530   20.5710 C   0  0  0  0  0  3  0  0  0  0  0  0
  -29.4400  -18.4960   20.3090 C   0  0  0  0  0  3  0  0  0  0  0  0
  -29.8600  -19.8960   20.2440 C   0  0  0  0  0  0  0  0  0  0  0  0
  -30.3460  -17.3640   20.4730 C   0  0  0  0  0  0  0  0  0  0  0  0
  -31.2540  -20.1210   20.3480 C   0  0  0  0  0  0  0  0  0  0  0  0
  -31.9360  -21.6950   20.1340 Cl  0  0  0  0  0  0  0  0  0  0  0  0
  -30.6410  -14.7580   20.2850 C   0  0  0  0  0  0  0  0  0  0  0  0
  -30.3750  -12.4820   19.2890 C   0  0  0  0  0  2  0  0  0  0  0  0
  -29.4490  -12.5770   18.0600 C   0  0  0  0  0  2  0  0  0  0  0  0
  -27.9790  -12.4070   18.4850 C   0  0  0  0  0  2  0  0  0  0  0  0
  -27.6090  -13.2960   19.7040 C   0  0  0  0  0  3  0  0  0  0  0  0
  -28.6670  -13.2320   20.8280 C   0  0  0  0  0  2  0  0  0  0  0  0
  -29.9670  -13.5560   20.2260 N   0  0  0  0  0  0  0  0  0  0  0  0
  -31.8250  -14.7940   19.9460 O   0  0  0  0  0  0  0  0  0  0  0  0
  -29.9230  -15.9330   20.4980 N   0  0  0  0  0  0  0  0  0  0  0  0
  -28.9350  -15.7800   20.6330 H   0  0  0  0  0  0  0  0  0  0  0  0
  -25.2180  -13.8950   20.4100 C   0  0  0  0  0  0  0  0  0  0  0  0
  -24.1520  -13.1260   20.7850 C   0  0  0  0  0  0  0  0  0  0  0  0
  -24.6160  -11.7740   20.7730 C   0  0  0  0  0  0  0  0  0  0  0  0
  -26.2650  -13.0140   20.1930 N   0  0  0  0  0  0  0  0  0  0  0  0
  -25.9080  -11.7340   20.4730 N   0  0  0  0  0  0  0  0  0  0  0  0
  -23.8880  -10.5130   20.9720 C   0  0  0  0  0  0  0  0  0  0  0  0
  -24.3140   -9.5560   21.9200 C   0  0  0  0  0  3  0  0  0  0  0  0
  -23.5840   -8.3620   22.1080 C   0  0  0  0  0  3  0  0  0  0  0  0
  -22.4130   -8.1170   21.3490 C   0  0  0  0  0  0  0  0  0  0  0  0
  -22.0100   -9.0620   20.3890 C   0  0  0  0  0  3  0  0  0  0  0  0
  -22.7400  -10.2480   20.2010 C   0  0  0  0  0  3  0  0  0  0  0  0
  -21.6570   -6.9730   21.4460 O   0  0  0  0  0  0  0  0  0  0  0  0
  -21.5980   -6.2460   22.6060 C   0  0  0  0  0  0  0  0  0  0  0  0
  -21.1560   -6.8150   23.8220 C   0  0  0  0  0  3  0  0  0  0  0  0
  -21.0480   -6.0140   24.9760 C   0  0  0  0  0  3  0  0  0  0  0  0
  -21.3630   -4.6430   24.9150 C   0  0  0  0  0  0  0  0  0  0  0  0
  -21.7950   -4.0730   23.7040 C   0  0  0  0  0  3  0  0  0  0  0  0
  -21.9090   -4.8730   22.5530 C   0  0  0  0  0  0  0  0  0  0  0  0
  -22.3060   -4.3140   21.3830 F   0  0  0  0  0  0  0  0  0  0  0  0
  -21.2510   -3.8730   26.0230 F   0  0  0  0  0  0  0  0  0  0  0  0
  -22.7520  -13.6070   21.0420 C   0  0  0  0  0  0  0  0  0  0  0  0
  -22.0200  -12.9200   21.9110 N   0  0  0  0  0  0  0  0  0  0  0  0
  -22.3160  -14.6290   20.5130 O   0  0  0  0  0  0  0  0  0  0  0  0
  -22.3870  -12.0910   22.3570 H   0  0  0  0  0  0  0  0  0  0  0  0
  -21.0800  -13.2210   22.1290 H   0  0  0  0  0  0  0  0  0  0  0  0
  -25.3780  -15.2630   20.2070 N   0  0  0  0  0  0  0  0  0  0  0  0
  -24.5940  -15.9030   20.2620 H   0  0  0  0  0  0  0  0  0  0  0  0
  -26.2120  -15.6970   19.8350 H   0  0  0  0  0  0  0  0  0  0  0  0
  1  6  1  0
  1  5  1  0
  3  2  1  0
  4  2  1  0
  5  8  1  0
  5  3  1  0
  6  4  1  0
  7  1  2  0
  9 20  2  0
 10  8  1  0
 10 15  1  0
 11 19  1  0
 11 21  1  0
 12 18  1  0
 12 14  1  0
 13 19  1  0
 14 13  1  0
 15 14  2  0
 16 17  1  0
 16 10  2  0
 17 12  2  0
 18 11  1  0
 19  9  1  0
 21 23  2  0
 22 21  1  0
 24 22  1  0
 25 34  2  0
 25 30  1  0
 26 22  1  0
 26 30  1  0
 27 26  1  0
 28 29  1  0
 28 27  1  0
 29 25  1  0
 30 31  2  0
 31 32  1  0
 33 32  2  0
 34 33  1  0
 35  9  1  0
 35 36  1  0
 35 45  1  0
 36 39  1  0
 37 41  1  0
 37 36  1  0
 38 37  2  0
 41 40  1  0
 43 41  1  0
 43 44  1  0
 43 42  1  0
 45 48  1  1
 45 46  1  0
 47 45  1  0
 49 53  1  0
 49  6  1  0
 51 50  1  0
 52 54  1  0
 53 52  2  0
 53 55  1  0
 54 65  1  0
 54 50  2  0
 55 51  2  0
 56 55  1  0
 57 65  1  0
 58 63  1  0
 59 60  1  0
 59 58  1  0
 61 60  1  0
 61 70  1  0
 61 62  1  0
 63 57  1  0
 63 62  1  0
 64 57  2  0
 65 66  1  0
 67 68  2  0
 68 87  1  0
 69 68  1  0
 69 72  1  0
 70 67  1  0
 70 71  1  0
 71 69  2  0
 72 73  1  0
 73 74  2  0
 75 78  1  0
 75 74  1  0
 76 75  2  0
 77 76  1  0
 77 72  2  0
 78 79  1  0
 79 80  1  0
 80 81  2  0
 82 81  1  0
 82 86  1  0
 83 82  2  0
 84 79  2  0
 84 83  1  0
 85 84  1  0
 87 88  1  0
 88 91  1  0
 88 90  1  0
 89 87  2  0
 92 93  1  0
 92 67  1  0
 94 92  1  0
M  ISO  4   5 101   8 101  57 100  65 100
M  END
>  <TORSDO>  (29) 
F 18

>  <SCORE>  (29) 
-14.435

>  <name>  (29) 
28

>  <ligand_id>  (29) 
28

>  <original_smiles>  (29) 
[H]c1c([H])c([H])c2c(c1[H])C([H])([H])C([H])([H])C([H])([H])C2([H])N([H])C(=O)C1([H])N(C(=O)C([H])(N([H])C(=O)C([H])(N([H])C([H])([H])[H])C([H])([H])[H])C(C([H])([H])[H])(C([H])([H])[H])C([H])([H])[H])C([H])([H])c2c([H])c(OC3([H])C(=O)N(C([H])([H])c4c([H])c(N([H])C(=O)N5C([H])([H])C([H])([H])C([H])([H])C([H])(n6nc(-c7c([H])c([H])c(Oc8c([H])c([H])c(F)c([H])c8F)c([H])c7[H])c(C(=O)N([H])[H])c6N([H])[H])C5([H])[H])c([H])c([H])c4Cl)C([H])([H])C([H])([H])C3([H])[H])c([H])c([H])c2C1([H])[H]

>  <smiles>  (29) 
[H]c1c([H])c([H])c2c(c1[H])C([H])([H])C([H])([H])C([H])([H])C2([H])N([H])C(=O)C1([H])N(C(=O)C([H])(N([H])C(=O)C([H])(N([H])C([H])([H])[H])C([H])([H])[H])C(C([H])([H])[H])(C([H])([H])[H])C([H])([H])[H])C([H])([H])c2c([H])c(OC3([H])C(=O)N(C([H])([H])c4c([H])c(N([H])C(=O)N5C([H])([H])C([H])([H])C([H])([H])C([H])(n6nc(-c7c([H])c([H])c(Oc8c([H])c([H])c(F)c([H])c8F)c([H])c7[H])c(C(=O)N([H])[H])c6N([H])[H])C5([H])[H])c([H])c([H])c4Cl)C([H])([H])C([H])([H])C3([H])[H])c([H])c([H])c2C1([H])[H]

$$$$
29:0:0
     RDKit          3D

 93102  0  0  1  0  0  0  0  0999 V2000
  -29.1460  -23.7980   20.2220 C   0  0  0  0  0  0  0  0  0  0  0  0
  -28.4830  -23.9420   17.3750 C   0  0  0  0  0  3  0  0  0  0  0  0
  -28.7590  -25.2170   18.1910 C   0  0  0  0  0  2  0  0  0  0  0  0
  -28.7570  -22.5890   18.0670 C   0  0  0  0  0  3  0  0  0  0  0  0
  -28.3350  -25.0760   19.6570 C   0  0  0  0  0  3  0  0  0  0  0  0
  -29.2710  -22.6370   19.4380 N   0  0  0  0  0  0  0  0  0  0  0  0
  -29.6340  -23.8670   21.3560 O   0  0  0  0  0  0  0  0  0  0  0  0
  -28.4410  -26.4330   20.3510 O   0  0  0  0  0  0  0  0  0  0  0  0
  -24.8220  -31.8620   23.5230 C   0  0  0  0  0  0  0  0  0  0  0  0
  -27.3810  -27.3840   20.2640 C   0  0  0  0  0  0  0  0  0  0  0  0
  -23.6210  -30.5940   21.7720 C   0  0  0  0  0  3  0  0  0  0  0  0
  -25.0610  -29.1040   20.2790 C   0  0  0  0  0  0  0  0  0  0  0  0
  -26.1680  -30.8640   21.6550 C   0  0  0  0  0  2  0  0  0  0  0  0
  -26.2300  -29.5160   20.9340 C   0  0  0  0  0  0  0  0  0  0  0  0
  -27.3880  -28.6680   20.9240 C   0  0  0  0  0  3  0  0  0  0  0  0
  -26.1950  -27.0670   19.5550 C   0  0  0  0  0  3  0  0  0  0  0  0
  -25.0540  -27.8910   19.5780 C   0  0  0  0  0  3  0  0  0  0  0  0
  -23.8400  -29.9990   20.3570 C   0  0  0  0  0  2  0  0  0  0  0  0
  -24.8880  -31.1270   22.3730 N   0  0  0  0  0  0  0  0  0  0  0  0
  -23.7360  -32.1260   24.0580 O   0  0  0  0  0  0  0  0  0  0  0  0
  -22.9210  -29.5480   22.6680 C   0  0  0  0  0  0  0  0  0  0  0  0
  -21.6010  -29.3700   22.4840 N   0  0  0  0  0  0  0  0  0  0  0  0
  -23.5710  -28.9070   23.4960 O   0  0  0  0  0  0  0  0  0  0  0  0
  -21.1530  -29.8950   21.7420 H   0  0  0  0  0  0  0  0  0  0  0  0
  -18.2430  -28.0460   22.7670 C   0  0  0  0  0  0  0  0  0  0  0  0
  -20.7710  -28.3880   23.1810 C   0  0  0  0  0  3  0  0  0  0  0  0
  -20.9540  -27.0020   22.5190 C   0  0  0  0  0  2  0  0  0  0  0  0
  -19.9140  -26.7570   21.4180 C   0  0  0  0  0  2  0  0  0  0  0  0
  -18.5160  -26.7460   22.0340 C   0  0  0  0  0  2  0  0  0  0  0  0
  -19.3040  -28.8390   23.2880 C   0  0  0  0  0  0  0  0  0  0  0  0
  -18.9870  -30.0660   23.9250 C   0  0  0  0  0  3  0  0  0  0  0  0
  -17.6470  -30.5000   24.0160 C   0  0  0  0  0  3  0  0  0  0  0  0
  -16.6130  -29.7180   23.4770 C   0  0  0  0  0  3  0  0  0  0  0  0
  -16.9130  -28.4940   22.8620 C   0  0  0  0  0  3  0  0  0  0  0  0
  -26.1050  -32.4320   24.2000 C   0  0  0  0  0  3  0  0  0  0  0  0
  -25.8740  -33.8610   24.4610 N   0  0  0  0  0  0  0  0  0  0  0  0
  -26.2450  -34.8570   23.6450 C   0  0  0  0  0  0  0  0  0  0  0  0
  -26.8880  -34.6700   22.6100 O   0  0  0  0  0  0  0  0  0  0  0  0
  -25.2950  -34.0850   25.2570 H   0  0  0  0  0  0  0  0  0  0  0  0
  -24.5950  -36.7160   23.2440 C   0  0  0  0  0  1  0  0  0  0  0  0
  -25.8380  -36.2900   24.0400 C   0  0  0  0  0  3  0  0  0  0  0  0
  -28.0340  -37.1210   24.7710 C   0  0  0  0  0  1  0  0  0  0  0  0
  -26.9190  -37.2820   23.8420 N   0  0  0  0  0  0  0  0  0  0  0  0
  -26.5580  -38.2280   23.9410 H   0  0  0  0  0  0  0  0  0  0  0  0
  -26.4910  -31.6830   25.5340 C   0  0  1  0  0  0  0  0  0  0  0  0
  -25.3200  -31.5480   26.5350 C   0  0  0  0  0  1  0  0  0  0  0  0
  -27.0230  -30.2640   25.2350 C   0  0  0  0  0  1  0  0  0  0  0  0
  -27.6400  -32.4380   26.2440 C   0  0  0  0  0  1  0  0  0  0  0  0
  -30.0760  -21.3590   19.7110 C   0  0  0  0  0  2  0  0  0  0  0  0
  -27.5220  -18.4830   20.3960 C   0  0  0  0  0  3  0  0  0  0  0  0
  -28.1010  -19.7500   20.1750 C   0  0  0  0  0  3  0  0  0  0  0  0
  -28.2420  -17.2850   20.1760 C   0  0  0  0  0  3  0  0  0  0  0  0
  -30.1430  -18.6360   19.4970 C   0  0  0  0  0  3  0  0  0  0  0  0
  -29.4360  -19.8880   19.7510 C   0  0  0  0  0  0  0  0  0  0  0  0
  -29.5680  -17.3130   19.6940 C   0  0  0  0  0  0  0  0  0  0  0  0
  -30.9480  -15.0300   19.7410 C   0  0  0  0  0  0  0  0  0  0  0  0
  -30.9040  -12.5720   19.2440 C   0  0  0  0  0  2  0  0  0  0  0  0
  -29.9680  -12.2460   18.0570 C   0  0  0  0  0  2  0  0  0  0  0  0
  -28.5180  -12.0660   18.5520 C   0  0  0  0  0  2  0  0  0  0  0  0
  -28.0590  -13.2120   19.4900 C   0  0  0  0  0  3  0  0  0  0  0  0
  -29.1120  -13.4850   20.5790 C   0  0  0  0  0  2  0  0  0  0  0  0
  -30.3710  -13.7930   19.9010 N   0  0  0  0  0  0  0  0  0  0  0  0
  -32.1550  -15.0910   19.4960 O   0  0  0  0  0  0  0  0  0  0  0  0
  -30.1730  -16.0530   19.2020 N   0  0  0  0  0  0  0  0  0  0  0  0
  -30.6630  -16.2900   18.3550 H   0  0  0  0  0  0  0  0  0  0  0  0
  -25.7550  -13.8700   20.4180 C   0  0  0  0  0  0  0  0  0  0  0  0
  -24.6830  -13.1160   20.8240 C   0  0  0  0  0  0  0  0  0  0  0  0
  -25.0880  -11.7570   20.7130 C   0  0  0  0  0  0  0  0  0  0  0  0
  -26.7410  -12.9570   20.0690 N   0  0  0  0  0  0  0  0  0  0  0  0
  -26.3540  -11.6770   20.3180 N   0  0  0  0  0  0  0  0  0  0  0  0
  -24.3220  -10.5180   20.9010 C   0  0  0  0  0  0  0  0  0  0  0  0
  -24.7210   -9.5450   21.8450 C   0  0  0  0  0  3  0  0  0  0  0  0
  -23.9650   -8.3660   22.0180 C   0  0  0  0  0  3  0  0  0  0  0  0
  -22.7950   -8.1550   21.2500 C   0  0  0  0  0  0  0  0  0  0  0  0
  -22.4220   -9.1110   20.2920 C   0  0  0  0  0  3  0  0  0  0  0  0
  -23.1770  -10.2810   20.1140 C   0  0  0  0  0  3  0  0  0  0  0  0
  -22.0070   -7.0320   21.3350 O   0  0  0  0  0  0  0  0  0  0  0  0
  -21.8120   -6.3790   22.5290 C   0  0  0  0  0  0  0  0  0  0  0  0
  -21.2690   -7.0340   23.6550 C   0  0  0  0  0  3  0  0  0  0  0  0
  -21.0160   -6.3070   24.8360 C   0  0  0  0  0  3  0  0  0  0  0  0
  -21.2970   -4.9280   24.8890 C   0  0  0  0  0  0  0  0  0  0  0  0
  -21.8400   -4.2740   23.7680 C   0  0  0  0  0  3  0  0  0  0  0  0
  -22.0940   -5.0010   22.5900 C   0  0  0  0  0  0  0  0  0  0  0  0
  -22.5900   -4.3600   21.5040 F   0  0  0  0  0  0  0  0  0  0  0  0
  -21.0540   -4.2320   26.0240 F   0  0  0  0  0  0  0  0  0  0  0  0
  -23.3280  -13.6380   21.2040 C   0  0  0  0  0  0  0  0  0  0  0  0
  -22.6410  -12.9550   22.1170 N   0  0  0  0  0  0  0  0  0  0  0  0
  -22.8860  -14.6750   20.7220 O   0  0  0  0  0  0  0  0  0  0  0  0
  -23.0080  -12.1110   22.5370 H   0  0  0  0  0  0  0  0  0  0  0  0
  -21.7330  -13.2960   22.4080 H   0  0  0  0  0  0  0  0  0  0  0  0
  -25.9590  -15.2350   20.2980 N   0  0  0  0  0  0  0  0  0  0  0  0
  -25.2270  -15.9010   20.5260 H   0  0  0  0  0  0  0  0  0  0  0  0
  -26.8070  -15.6830   19.9680 H   0  0  0  0  0  0  0  0  0  0  0  0
  1  7  2  0
  2  4  2  0
  2  3  1  0
  3  5  1  0
  4  6  1  0
  5  1  1  0
  5  8  1  0
  6 49  1  0
  6  1  1  0
  9 20  2  0
 10  8  1  0
 10 15  1  0
 11 19  1  0
 11 21  1  0
 12 18  1  0
 12 14  1  0
 13 19  1  0
 14 13  1  0
 15 14  2  0
 16 17  1  0
 16 10  2  0
 17 12  2  0
 18 11  1  0
 19  9  1  0
 21 23  2  0
 22 21  1  0
 24 22  1  0
 25 34  2  0
 25 30  1  0
 26 22  1  0
 26 30  1  0
 27 26  1  0
 28 29  1  0
 28 27  1  0
 29 25  1  0
 30 31  2  0
 31 32  1  0
 33 32  2  0
 34 33  1  0
 35  9  1  0
 35 36  1  0
 35 45  1  0
 36 39  1  0
 37 41  1  0
 37 36  1  0
 38 37  2  0
 41 40  1  0
 43 44  1  0
 43 41  1  0
 43 42  1  0
 45 48  1  1
 45 46  1  0
 47 45  1  0
 49 54  1  0
 51 50  2  0
 52 50  1  0
 53 55  1  0
 53 54  2  0
 54 51  1  0
 55 52  2  0
 56 62  1  0
 57 62  1  0
 58 59  1  0
 58 57  1  0
 60 59  1  0
 60 69  1  0
 60 61  1  0
 62 61  1  0
 63 56  2  0
 64 55  1  0
 64 56  1  0
 65 64  1  0
 66 67  2  0
 67 86  1  0
 68 67  1  0
 68 71  1  0
 69 70  1  0
 69 66  1  0
 70 68  2  0
 71 72  1  0
 72 73  2  0
 74 77  1  0
 74 73  1  0
 75 74  2  0
 76 75  1  0
 76 71  2  0
 77 78  1  0
 78 83  2  0
 78 79  1  0
 79 80  2  0
 80 81  1  0
 81 85  1  0
 82 81  2  0
 83 82  1  0
 84 83  1  0
 86 87  1  0
 87 90  1  0
 87 89  1  0
 88 86  2  0
 91 66  1  0
 91 92  1  0
 93 91  1  0
M  ISO  4   5 101   8 101  56 100  64 100
M  END
>  <TORSDO>  (30) 
F 18

>  <SCORE>  (30) 
-14.037

>  <name>  (30) 
29

>  <ligand_id>  (30) 
29

>  <original_smiles>  (30) 
[H]c1c([H])c(N([H])C(=O)N2C([H])([H])C([H])([H])C([H])([H])C([H])(n3nc(-c4c([H])c([H])c(Oc5c([H])c([H])c(F)c([H])c5F)c([H])c4[H])c(C(=O)N([H])[H])c3N([H])[H])C2([H])[H])c([H])c(C([H])([H])N2C(=O)C([H])(Oc3c([H])c([H])c4c(c3[H])C([H])([H])N(C(=O)C([H])(N([H])C(=O)C([H])(N([H])C([H])([H])[H])C([H])([H])[H])C(C([H])([H])[H])(C([H])([H])[H])C([H])([H])[H])C([H])(C(=O)N([H])C3([H])c5c([H])c([H])c([H])c([H])c5C([H])([H])C([H])([H])C3([H])[H])C4([H])[H])C([H])([H])C([H])([H])C2([H])[H])c1[H]

>  <smiles>  (30) 
[H]c1c([H])c(N([H])C(=O)N2C([H])([H])C([H])([H])C([H])([H])C([H])(n3nc(-c4c([H])c([H])c(Oc5c([H])c([H])c(F)c([H])c5F)c([H])c4[H])c(C(=O)N([H])[H])c3N([H])[H])C2([H])[H])c([H])c(C([H])([H])N2C(=O)C([H])(Oc3c([H])c([H])c4c(c3[H])C([H])([H])N(C(=O)C([H])(N([H])C(=O)C([H])(N([H])C([H])([H])[H])C([H])([H])[H])C(C([H])([H])[H])(C([H])([H])[H])C([H])([H])[H])C([H])(C(=O)N([H])C3([H])c5c([H])c([H])c([H])c([H])c5C([H])([H])C([H])([H])C3([H])[H])C4([H])[H])C([H])([H])C([H])([H])C2([H])[H])c1[H]

$$$$
30:0:0
     RDKit          3D

 98106  0  0  1  0  0  0  0  0999 V2000
  -28.8870  -21.8280   20.3560 C   0  0  0  0  0  3  0  0  0  0  0  0
  -29.3890  -20.1040   22.0590 C   0  0  0  0  0  1  0  0  0  0  0  0
  -29.6590  -20.5430   20.6600 N   0  0  1  0  0  4  0  0  0  0  0  0
  -30.6180  -20.8500   20.6800 H   0  0  0  0  0  0  0  0  0  0  0  0
  -29.6810  -19.3420   19.7110 C   0  0  0  0  0  2  0  0  0  0  0  0
  -32.8780  -17.0190   19.9920 C   0  0  0  0  0  3  0  0  0  0  0  0
  -33.8720  -17.9960   19.8240 C   0  0  0  0  0  3  0  0  0  0  0  0
  -32.1410  -19.6210   19.3790 C   0  0  0  0  0  3  0  0  0  0  0  0
  -31.1010  -18.6820   19.6260 C   0  0  0  0  0  0  0  0  0  0  0  0
  -31.4900  -17.2840   19.7960 C   0  0  0  0  0  0  0  0  0  0  0  0
  -33.5020  -19.2940   19.4700 C   0  0  0  0  0  0  0  0  0  0  0  0
  -34.7100  -20.4950   19.1940 Cl  0  0  0  0  0  0  0  0  0  0  0  0
  -31.1930  -14.8500   19.3920 C   0  0  0  0  0  0  0  0  0  0  0  0
  -30.9130  -12.4360   18.8960 C   0  0  0  0  0  2  0  0  0  0  0  0
  -29.9430  -12.2230   17.7210 C   0  0  0  0  0  2  0  0  0  0  0  0
  -28.5070  -12.0940   18.2510 C   0  0  0  0  0  2  0  0  0  0  0  0
  -28.1370  -13.2310   19.2430 C   0  0  0  0  0  3  0  0  0  0  0  0
  -29.2390  -13.4730   20.3050 C   0  0  0  0  0  2  0  0  0  0  0  0
  -30.5110  -13.6760   19.6010 N   0  0  0  0  0  0  0  0  0  0  0  0
  -32.2690  -14.8220   18.7890 O   0  0  0  0  0  0  0  0  0  0  0  0
  -30.6630  -16.0750   19.7310 N   0  0  0  0  0  0  0  0  0  0  0  0
  -29.7130  -16.1210   20.0700 H   0  0  0  0  0  0  0  0  0  0  0  0
  -25.8570  -13.9250   20.1900 C   0  0  0  0  0  0  0  0  0  0  0  0
  -24.7910  -13.1970   20.6430 C   0  0  0  0  0  0  0  0  0  0  0  0
  -25.1810  -11.8250   20.5540 C   0  0  0  0  0  0  0  0  0  0  0  0
  -26.8320  -13.0000   19.8520 N   0  0  0  0  0  0  0  0  0  0  0  0
  -26.4360  -11.7310   20.1310 N   0  0  0  0  0  0  0  0  0  0  0  0
  -24.4120  -10.5970   20.7960 C   0  0  0  0  0  0  0  0  0  0  0  0
  -24.7800   -9.6820   21.8080 C   0  0  0  0  0  3  0  0  0  0  0  0
  -24.0140   -8.5180   22.0330 C   0  0  0  0  0  3  0  0  0  0  0  0
  -22.8650   -8.2600   21.2490 C   0  0  0  0  0  0  0  0  0  0  0  0
  -22.5160   -9.1620   20.2280 C   0  0  0  0  0  3  0  0  0  0  0  0
  -23.2820  -10.3190   20.0010 C   0  0  0  0  0  3  0  0  0  0  0  0
  -22.0750   -7.1440   21.3800 O   0  0  0  0  0  0  0  0  0  0  0  0
  -21.8530   -6.5600   22.6000 C   0  0  0  0  0  0  0  0  0  0  0  0
  -21.2550   -7.2680   23.6660 C   0  0  0  0  0  3  0  0  0  0  0  0
  -20.9790   -6.6120   24.8800 C   0  0  0  0  0  3  0  0  0  0  0  0
  -21.2890   -5.2460   25.0300 C   0  0  0  0  0  0  0  0  0  0  0  0
  -21.8770   -4.5370   23.9690 C   0  0  0  0  0  3  0  0  0  0  0  0
  -22.1530   -5.1930   22.7550 C   0  0  0  0  0  0  0  0  0  0  0  0
  -22.7010   -4.5000   21.7280 F   0  0  0  0  0  0  0  0  0  0  0  0
  -21.0160   -4.6120   26.1950 F   0  0  0  0  0  0  0  0  0  0  0  0
  -23.4500  -13.7390   21.0480 C   0  0  0  0  0  0  0  0  0  0  0  0
  -22.7810  -13.0770   21.9860 N   0  0  0  0  0  0  0  0  0  0  0  0
  -23.0080  -14.7810   20.5690 O   0  0  0  0  0  0  0  0  0  0  0  0
  -23.1510  -12.2320   22.3930 H   0  0  0  0  0  0  0  0  0  0  0  0
  -21.8840  -13.4180   22.2990 H   0  0  0  0  0  0  0  0  0  0  0  0
  -26.0720  -15.2880   20.0080 N   0  0  0  0  0  0  0  0  0  0  0  0
  -25.3500  -15.9770   20.1860 H   0  0  0  0  0  0  0  0  0  0  0  0
  -26.9100  -15.6860   19.6040 H   0  0  0  0  0  0  0  0  0  0  0  0
  -27.9550  -21.7590   19.1520 C   0  0  0  0  0  3  0  0  0  0  0  0
  -25.9040  -21.3100   18.1030 C   0  0  0  0  0  1  0  0  0  0  0  0
  -26.7860  -21.2640   19.2540 N   0  0  0  0  0  0  0  0  0  0  0  0
  -29.6760  -23.0980   20.4280 N   0  0  0  0  0  0  0  0  0  0  0  0
  -30.2750  -23.2440   19.6200 H   0  0  0  0  0  0  0  0  0  0  0  0
  -28.9950  -24.3540   20.8890 C   0  0  0  0  0  2  0  0  0  0  0  0
  -28.7740  -25.5230   19.8460 C   0  0  0  0  0  2  0  0  0  0  0  0
  -28.6040  -26.8690   20.4190 O   0  0  0  0  0  0  0  0  0  0  0  0
  -24.5950  -32.0450   23.3530 C   0  0  0  0  0  0  0  0  0  0  0  0
  -27.4230  -27.6140   20.3230 C   0  0  0  0  0  0  0  0  0  0  0  0
  -23.4760  -30.6300   21.6660 C   0  0  0  0  0  3  0  0  0  0  0  0
  -25.0090  -29.1430   20.2640 C   0  0  0  0  0  0  0  0  0  0  0  0
  -26.0080  -31.0270   21.5600 C   0  0  0  0  0  2  0  0  0  0  0  0
  -26.1430  -29.6630   20.8970 C   0  0  0  0  0  0  0  0  0  0  0  0
  -27.3440  -28.9050   20.9220 C   0  0  0  0  0  3  0  0  0  0  0  0
  -26.2640  -27.1430   19.6590 C   0  0  0  0  0  3  0  0  0  0  0  0
  -25.0730  -27.8920   19.6380 C   0  0  0  0  0  3  0  0  0  0  0  0
  -23.7470  -29.9780   20.2860 C   0  0  0  0  0  2  0  0  0  0  0  0
  -24.7100  -31.2480   22.2510 N   0  0  0  0  0  0  0  0  0  0  0  0
  -23.4900  -32.2910   23.8570 O   0  0  0  0  0  0  0  0  0  0  0  0
  -22.8150  -29.5850   22.5940 C   0  0  0  0  0  0  0  0  0  0  0  0
  -21.5050  -29.3520   22.4080 N   0  0  0  0  0  0  0  0  0  0  0  0
  -23.4790  -28.9860   23.4420 O   0  0  0  0  0  0  0  0  0  0  0  0
  -21.0280  -29.8860   21.6960 H   0  0  0  0  0  0  0  0  0  0  0  0
  -18.1570  -28.0290   22.7550 C   0  0  0  0  0  0  0  0  0  0  0  0
  -20.6890  -28.3830   23.1440 C   0  0  0  0  0  3  0  0  0  0  0  0
  -20.8750  -26.9590   22.5730 C   0  0  0  0  0  2  0  0  0  0  0  0
  -19.8340  -26.5960   21.5110 C   0  0  0  0  0  2  0  0  0  0  0  0
  -18.4180  -26.6860   22.0900 C   0  0  0  0  0  2  0  0  0  0  0  0
  -19.2270  -28.8300   23.2370 C   0  0  0  0  0  0  0  0  0  0  0  0
  -18.9360  -30.0810   23.8210 C   0  0  0  0  0  3  0  0  0  0  0  0
  -17.6080  -30.5350   23.9260 C   0  0  0  0  0  3  0  0  0  0  0  0
  -16.5510  -29.7290   23.4710 C   0  0  0  0  0  3  0  0  0  0  0  0
  -16.8260  -28.4770   22.8890 C   0  0  0  0  0  3  0  0  0  0  0  0
  -25.8440  -32.7060   24.0160 C   0  0  0  0  0  3  0  0  0  0  0  0
  -25.5090  -34.1080   24.2940 N   0  0  0  0  0  0  0  0  0  0  0  0
  -25.8640  -35.1450   23.5250 C   0  0  0  0  0  0  0  0  0  0  0  0
  -26.5800  -35.0220   22.5270 O   0  0  0  0  0  0  0  0  0  0  0  0
  -24.8830  -34.2760   25.0670 H   0  0  0  0  0  0  0  0  0  0  0  0
  -24.1370  -36.9120   23.0540 C   0  0  0  0  0  1  0  0  0  0  0  0
  -25.3460  -36.5400   23.9260 C   0  0  0  0  0  3  0  0  0  0  0  0
  -27.4370  -37.4610   24.8230 C   0  0  0  0  0  1  0  0  0  0  0  0
  -26.3700  -37.6020   23.8330 N   0  0  0  0  0  0  0  0  0  0  0  0
  -25.9520  -38.5200   23.9490 H   0  0  0  0  0  0  0  0  0  0  0  0
  -26.3110  -31.9730   25.3350 C   0  0  1  0  0  0  0  0  0  0  0  0
  -25.1620  -31.7110   26.3360 C   0  0  0  0  0  1  0  0  0  0  0  0
  -26.9630  -30.6100   25.0050 C   0  0  0  0  0  1  0  0  0  0  0  0
  -27.3870  -32.8190   26.0540 C   0  0  0  0  0  1  0  0  0  0  0  0
  1 51  1  0
  1 54  1  0
  1  3  1  0
  3  4  1  1
  3  2  1  0
  5  3  1  0
  7  6  1  0
  8 11  1  0
  8  9  2  0
  9  5  1  0
  9 10  1  0
 10  6  2  0
 11  7  2  0
 12 11  1  0
 13 19  1  0
 13 21  1  0
 14 19  1  0
 15 16  1  0
 15 14  1  0
 17 16  1  0
 17 26  1  0
 17 18  1  0
 19 18  1  0
 20 13  2  0
 21 10  1  0
 21 22  1  0
 23 24  2  0
 24 43  1  0
 25 24  1  0
 25 28  1  0
 26 27  1  0
 26 23  1  0
 27 25  2  0
 28 29  1  0
 29 30  2  0
 31 34  1  0
 31 30  1  0
 32 31  2  0
 33 32  1  0
 33 28  2  0
 34 35  1  0
 35 40  2  0
 35 36  1  0
 36 37  2  0
 37 38  1  0
 38 42  1  0
 39 38  2  0
 40 39  1  0
 41 40  1  0
 43 44  1  0
 44 47  1  0
 44 46  1  0
 45 43  2  0
 48 49  1  0
 48 23  1  0
 50 48  1  0
 51 53  2  0
 52 53  1  0
 54 56  1  0
 55 54  1  0
 57 58  1  0
 57 56  1  0
 59 70  2  0
 60 58  1  0
 60 65  1  0
 61 69  1  0
 61 71  1  0
 62 68  1  0
 62 64  1  0
 63 69  1  0
 64 65  2  0
 64 63  1  0
 66 60  2  0
 67 66  1  0
 67 62  2  0
 68 61  1  0
 69 59  1  0
 71 73  2  0
 72 71  1  0
 74 72  1  0
 75 84  2  0
 75 80  1  0
 76 72  1  0
 76 80  1  0
 77 76  1  0
 78 79  1  0
 78 77  1  0
 79 75  1  0
 80 81  2  0
 81 82  1  0
 83 82  2  0
 84 83  1  0
 85 59  1  0
 85 86  1  0
 85 95  1  0
 86 89  1  0
 87 91  1  0
 87 86  1  0
 88 87  2  0
 91 90  1  0
 93 91  1  0
 93 94  1  0
 93 92  1  0
 95 98  1  1
 95 96  1  0
 97 95  1  0
M  ISO  4  13 100  21 100  57 101  58 101
M  END
>  <TORSDO>  (31) 
F 23

>  <SCORE>  (31) 
-11.281

>  <name>  (31) 
30

>  <ligand_id>  (31) 
30

>  <original_smiles>  (31) 
[H]C(=NC([H])([H])[H])C([H])(N([H])C([H])([H])C([H])([H])Oc1c([H])c([H])c2c(c1[H])C([H])([H])N(C(=O)C([H])(N([H])C(=O)C([H])(N([H])C([H])([H])[H])C([H])([H])[H])C(C([H])([H])[H])(C([H])([H])[H])C([H])([H])[H])C([H])(C(=O)N([H])C1([H])c3c([H])c([H])c([H])c([H])c3C([H])([H])C([H])([H])C1([H])[H])C2([H])[H])[N+]([H])(C([H])([H])[H])C([H])([H])c1c([H])c(Cl)c([H])c([H])c1N([H])C(=O)N1C([H])([H])C([H])([H])C([H])([H])C([H])(n2nc(-c3c([H])c([H])c(Oc4c([H])c([H])c(F)c([H])c4F)c([H])c3[H])c(C(=O)N([H])[H])c2N([H])[H])C1([H])[H]

>  <smiles>  (31) 
[H]C(=NC([H])([H])[H])C([H])(N([H])C([H])([H])C([H])([H])Oc1c([H])c([H])c2c(c1[H])C([H])([H])N(C(=O)C([H])(N([H])C(=O)C([H])(N([H])C([H])([H])[H])C([H])([H])[H])C(C([H])([H])[H])(C([H])([H])[H])C([H])([H])[H])C([H])(C(=O)N([H])C1([H])c3c([H])c([H])c([H])c([H])c3C([H])([H])C([H])([H])C1([H])[H])C2([H])[H])[N+]([H])(C([H])([H])[H])C([H])([H])c1c([H])c(Cl)c([H])c([H])c1N([H])C(=O)N1C([H])([H])C([H])([H])C([H])([H])C([H])(n2nc(-c3c([H])c([H])c(Oc4c([H])c([H])c(F)c([H])c4F)c([H])c3[H])c(C(=O)N([H])[H])c2N([H])[H])C1([H])[H]

$$$$
31:0:0
     RDKit          3D

 93101  0  0  1  0  0  0  0  0999 V2000
  -30.3420  -22.0570   20.9730 C   0  0  0  0  0  2  0  0  0  0  0  0
  -30.5700  -19.4580   20.9860 C   0  0  0  0  0  3  0  0  0  0  0  0
  -28.5770  -20.4620   20.0180 C   0  0  0  0  0  3  0  0  0  0  0  0
  -28.8670  -18.0270   19.9920 C   0  0  0  0  0  3  0  0  0  0  0  0
  -29.8310  -20.6330   20.6450 C   0  0  0  0  0  0  0  0  0  0  0  0
  -30.0980  -18.1440   20.6700 C   0  0  0  0  0  0  0  0  0  0  0  0
  -28.1100  -19.1750   19.6890 C   0  0  0  0  0  0  0  0  0  0  0  0
  -26.5840  -19.0100   18.9050 Cl  0  0  0  0  0  0  0  0  0  0  0  0
  -30.8980  -16.8960   21.1110 C   0  0  0  0  0  2  0  0  0  0  0  0
  -30.9190  -14.4590   20.4220 C   0  0  0  0  0  0  0  0  0  0  0  0
  -30.5990  -12.2090   19.4070 C   0  0  0  0  0  2  0  0  0  0  0  0
  -29.6900  -12.3010   18.1650 C   0  0  0  0  0  2  0  0  0  0  0  0
  -28.2070  -12.2040   18.5730 C   0  0  0  0  0  2  0  0  0  0  0  0
  -27.8470  -13.1480   19.7490 C   0  0  0  0  0  3  0  0  0  0  0  0
  -28.8740  -13.0300   20.8970 C   0  0  0  0  0  2  0  0  0  0  0  0
  -30.2120  -13.2890   20.3400 N   0  0  0  0  0  0  0  0  0  0  0  0
  -32.0490  -14.5640   19.9380 O   0  0  0  0  0  0  0  0  0  0  0  0
  -30.2990  -15.5380   20.9670 N   0  0  0  0  0  0  0  0  0  0  0  0
  -29.3800  -15.3860   21.3580 H   0  0  0  0  0  0  0  0  0  0  0  0
  -25.4530  -13.8360   20.4000 C   0  0  0  0  0  0  0  0  0  0  0  0
  -24.3590  -13.1060   20.7740 C   0  0  0  0  0  0  0  0  0  0  0  0
  -24.7780  -11.7400   20.7800 C   0  0  0  0  0  0  0  0  0  0  0  0
  -26.4780  -12.9220   20.2120 N   0  0  0  0  0  0  0  0  0  0  0  0
  -26.0730  -11.6570   20.4970 N   0  0  0  0  0  0  0  0  0  0  0  0
  -24.0110  -10.5040   20.9820 C   0  0  0  0  0  0  0  0  0  0  0  0
  -24.4120   -9.5310   21.9230 C   0  0  0  0  0  3  0  0  0  0  0  0
  -23.6450   -8.3610   22.1130 C   0  0  0  0  0  3  0  0  0  0  0  0
  -22.4660   -8.1550   21.3600 C   0  0  0  0  0  0  0  0  0  0  0  0
  -22.0850   -9.1160   20.4060 C   0  0  0  0  0  3  0  0  0  0  0  0
  -22.8530  -10.2760   20.2140 C   0  0  0  0  0  3  0  0  0  0  0  0
  -21.6740   -7.0370   21.4600 O   0  0  0  0  0  0  0  0  0  0  0  0
  -21.6040   -6.3030   22.6170 C   0  0  0  0  0  0  0  0  0  0  0  0
  -21.2160   -6.8850   23.8420 C   0  0  0  0  0  3  0  0  0  0  0  0
  -21.0910   -6.0830   24.9940 C   0  0  0  0  0  3  0  0  0  0  0  0
  -21.3420   -4.6990   24.9190 C   0  0  0  0  0  0  0  0  0  0  0  0
  -21.7240   -4.1170   23.6980 C   0  0  0  0  0  3  0  0  0  0  0  0
  -21.8500   -4.9170   22.5490 C   0  0  0  0  0  0  0  0  0  0  0  0
  -22.1980   -4.3500   21.3680 F   0  0  0  0  0  0  0  0  0  0  0  0
  -21.2160   -3.9250   26.0220 F   0  0  0  0  0  0  0  0  0  0  0  0
  -22.9730  -13.6320   21.0090 C   0  0  0  0  0  0  0  0  0  0  0  0
  -22.2130  -12.9850   21.8850 N   0  0  0  0  0  0  0  0  0  0  0  0
  -22.5720  -14.6510   20.4480 O   0  0  0  0  0  0  0  0  0  0  0  0
  -22.5540  -12.1670   22.3670 H   0  0  0  0  0  0  0  0  0  0  0  0
  -21.2810  -13.3140   22.0870 H   0  0  0  0  0  0  0  0  0  0  0  0
  -25.6570  -15.1970   20.1840 N   0  0  0  0  0  0  0  0  0  0  0  0
  -24.8920  -15.8580   20.2370 H   0  0  0  0  0  0  0  0  0  0  0  0
  -26.4910  -15.5930   19.7670 H   0  0  0  0  0  0  0  0  0  0  0  0
  -29.6620  -24.4860   20.5110 C   0  0  0  0  0  0  0  0  0  0  0  0
  -29.5380  -23.1450   20.3730 N   0  0  0  0  0  0  0  0  0  0  0  0
  -30.5610  -25.0030   21.1830 O   0  0  0  0  0  0  0  0  0  0  0  0
  -28.7590  -22.8360   19.8130 H   0  0  0  0  0  0  0  0  0  0  0  0
  -28.6070  -25.3610   19.7760 C   0  0  0  0  0  2  0  0  0  0  0  0
  -28.5940  -26.7380   20.2290 O   0  0  0  0  0  0  0  0  0  0  0  0
  -24.6360  -31.8500   23.2230 C   0  0  0  0  0  0  0  0  0  0  0  0
  -27.4030  -27.4530   20.1620 C   0  0  0  0  0  0  0  0  0  0  0  0
  -23.4740  -30.4480   21.5490 C   0  0  0  0  0  3  0  0  0  0  0  0
  -24.9760  -28.9400   20.1360 C   0  0  0  0  0  0  0  0  0  0  0  0
  -25.9970  -30.8390   21.3970 C   0  0  0  0  0  2  0  0  0  0  0  0
  -26.1170  -29.4740   20.7450 C   0  0  0  0  0  0  0  0  0  0  0  0
  -27.3300  -28.7390   20.7520 C   0  0  0  0  0  3  0  0  0  0  0  0
  -26.2410  -26.9520   19.5260 C   0  0  0  0  0  3  0  0  0  0  0  0
  -25.0380  -27.6800   19.5150 C   0  0  0  0  0  3  0  0  0  0  0  0
  -23.7150  -29.7770   20.1700 C   0  0  0  0  0  2  0  0  0  0  0  0
  -24.7200  -31.0620   22.1140 N   0  0  0  0  0  0  0  0  0  0  0  0
  -23.5460  -32.1050   23.7490 O   0  0  0  0  0  0  0  0  0  0  0  0
  -22.8210  -29.4160   22.4900 C   0  0  0  0  0  0  0  0  0  0  0  0
  -21.4950  -29.2400   22.3560 N   0  0  0  0  0  0  0  0  0  0  0  0
  -23.4990  -28.7750   23.2980 O   0  0  0  0  0  0  0  0  0  0  0  0
  -21.0110  -29.7870   21.6580 H   0  0  0  0  0  0  0  0  0  0  0  0
  -18.1120  -28.0890   22.8600 C   0  0  0  0  0  0  0  0  0  0  0  0
  -20.6730  -28.3000   23.1170 C   0  0  0  0  0  3  0  0  0  0  0  0
  -20.7490  -26.8810   22.5090 C   0  0  0  0  0  2  0  0  0  0  0  0
  -19.6390  -26.6060   21.4890 C   0  0  0  0  0  2  0  0  0  0  0  0
  -18.2650  -26.7540   22.1470 C   0  0  0  0  0  2  0  0  0  0  0  0
  -19.2450  -28.8190   23.3020 C   0  0  0  0  0  0  0  0  0  0  0  0
  -19.0540  -30.0670   23.9320 C   0  0  0  0  0  3  0  0  0  0  0  0
  -17.7620  -30.5820   24.1290 C   0  0  0  0  0  3  0  0  0  0  0  0
  -16.6420  -29.8440   23.7090 C   0  0  0  0  0  3  0  0  0  0  0  0
  -16.8170  -28.5990   23.0810 C   0  0  0  0  0  3  0  0  0  0  0  0
  -25.9060  -32.4940   23.8670 C   0  0  0  0  0  3  0  0  0  0  0  0
  -26.4040  -31.7280   25.1520 C   0  0  1  0  0  0  0  0  0  0  0  0
  -25.2880  -31.4830   26.1930 C   0  0  0  0  0  1  0  0  0  0  0  0
  -27.0040  -30.3540   24.7700 C   0  0  0  0  0  1  0  0  0  0  0  0
  -27.5380  -32.5280   25.8340 C   0  0  0  0  0  1  0  0  0  0  0  0
  -25.5790  -33.8890   24.1850 N   0  0  0  0  0  0  0  0  0  0  0  0
  -25.9170  -34.9430   23.4300 C   0  0  0  0  0  0  0  0  0  0  0  0
  -26.6060  -34.8410   22.4110 O   0  0  0  0  0  0  0  0  0  0  0  0
  -24.9670  -34.0410   24.9740 H   0  0  0  0  0  0  0  0  0  0  0  0
  -24.1750  -36.7150   23.0490 C   0  0  0  0  0  1  0  0  0  0  0  0
  -25.4110  -36.3260   23.8750 C   0  0  0  0  0  3  0  0  0  0  0  0
  -27.5270  -37.2370   24.7260 C   0  0  0  0  0  1  0  0  0  0  0  0
  -26.4340  -37.3890   23.7690 N   0  0  0  0  0  0  0  0  0  0  0  0
  -26.0170  -38.3060   23.9040 H   0  0  0  0  0  0  0  0  0  0  0  0
  3  5  1  0
  4  6  2  0
  5  1  1  0
  5  2  2  0
  6  2  1  0
  6  9  1  0
  7  4  1  0
  7  3  2  0
  8  7  1  0
 10 18  1  0
 11 16  1  0
 12 13  1  0
 12 11  1  0
 14 13  1  0
 14 23  1  0
 14 15  1  0
 16 10  1  0
 16 15  1  0
 17 10  2  0
 18  9  1  0
 18 19  1  0
 20 21  2  0
 21 22  1  0
 21 40  1  0
 22 25  1  0
 23 20  1  0
 23 24  1  0
 24 22  2  0
 25 26  1  0
 26 27  2  0
 28 31  1  0
 28 27  1  0
 29 28  2  0
 30 29  1  0
 30 25  2  0
 31 32  1  0
 32 33  1  0
 33 34  2  0
 35 34  1  0
 35 39  1  0
 36 35  2  0
 37 32  2  0
 37 36  1  0
 38 37  1  0
 40 41  1  0
 41 44  1  0
 41 43  1  0
 42 40  2  0
 45 46  1  0
 45 20  1  0
 47 45  1  0
 48 50  2  0
 49 48  1  0
 49  1  1  0
 51 49  1  0
 52 53  1  0
 52 48  1  0
 54 65  2  0
 55 53  1  0
 55 60  1  0
 56 64  1  0
 56 66  1  0
 57 63  1  0
 57 59  1  0
 58 64  1  0
 59 60  2  0
 59 58  1  0
 61 55  2  0
 62 61  1  0
 62 57  2  0
 63 56  1  0
 64 54  1  0
 66 68  2  0
 67 66  1  0
 69 67  1  0
 70 79  2  0
 70 75  1  0
 71 67  1  0
 71 75  1  0
 72 71  1  0
 73 74  1  0
 73 72  1  0
 74 70  1  0
 75 76  2  0
 76 77  1  0
 78 77  2  0
 79 78  1  0
 80 54  1  0
 80 85  1  0
 80 81  1  0
 81 84  1  1
 81 82  1  0
 83 81  1  0
 85 88  1  0
 86 90  1  0
 86 85  1  0
 87 86  2  0
 90 89  1  0
 92 90  1  0
 92 93  1  0
 92 91  1  0
M  ISO  4  10 100  18 100  52 101  53 101
M  END
>  <TORSDO>  (32) 
F 20

>  <SCORE>  (32) 
-13.961

>  <name>  (32) 
31

>  <ligand_id>  (32) 
31

>  <original_smiles>  (32) 
[H]c1c([H])c([H])c2c(c1[H])C([H])([H])C([H])([H])C([H])([H])C2([H])N([H])C(=O)C1([H])N(C(=O)C([H])(N([H])C(=O)C([H])(N([H])C([H])([H])[H])C([H])([H])[H])C(C([H])([H])[H])(C([H])([H])[H])C([H])([H])[H])C([H])([H])c2c([H])c(OC([H])([H])C(=O)N([H])C([H])([H])c3c([H])c(Cl)c([H])c(C([H])([H])N([H])C(=O)N4C([H])([H])C([H])([H])C([H])([H])C([H])(n5nc(-c6c([H])c([H])c(Oc7c([H])c([H])c(F)c([H])c7F)c([H])c6[H])c(C(=O)N([H])[H])c5N([H])[H])C4([H])[H])c3[H])c([H])c([H])c2C1([H])[H]

>  <smiles>  (32) 
[H]c1c([H])c([H])c2c(c1[H])C([H])([H])C([H])([H])C([H])([H])C2([H])N([H])C(=O)C1([H])N(C(=O)C([H])(N([H])C(=O)C([H])(N([H])C([H])([H])[H])C([H])([H])[H])C(C([H])([H])[H])(C([H])([H])[H])C([H])([H])[H])C([H])([H])c2c([H])c(OC([H])([H])C(=O)N([H])C([H])([H])c3c([H])c(Cl)c([H])c(C([H])([H])N([H])C(=O)N4C([H])([H])C([H])([H])C([H])([H])C([H])(n5nc(-c6c([H])c([H])c(Oc7c([H])c([H])c(F)c([H])c7F)c([H])c6[H])c(C(=O)N([H])[H])c5N([H])[H])C4([H])[H])c3[H])c([H])c([H])c2C1([H])[H]

$$$$
32:0:0
     RDKit          3D

100109  0  0  1  0  0  0  0  0999 V2000
  -31.1370  -20.1940   18.9720 C   0  0  0  0  0  3  0  0  0  0  0  0
  -30.2870  -21.3090   19.0860 C   0  0  0  0  0  3  0  0  0  0  0  0
  -31.0440  -19.0770   19.8320 C   0  0  0  0  0  0  0  0  0  0  0  0
  -29.9820  -18.9570   20.7780 C   0  0  0  0  0  0  0  0  0  0  0  0
  -29.1940  -20.1890   20.9580 C   0  0  0  0  0  0  0  0  0  0  0  0
  -29.3480  -21.3890   20.1260 C   0  0  0  0  0  0  0  0  0  0  0  0
  -32.1620  -18.0500   19.7180 C   0  0  0  0  0  1  0  0  0  0  0  0
  -28.2070  -20.2490   22.1170 C   0  0  0  0  0  1  0  0  0  0  0  0
  -28.7460  -22.6900   20.3640 N   0  0  0  0  0  0  0  0  0  0  0  0
  -28.3330  -22.7590   21.2900 H   0  0  0  0  0  0  0  0  0  0  0  0
  -28.0480  -23.6210   19.3820 C   0  0  0  0  0  2  0  0  0  0  0  0
  -28.6540  -25.0440   18.8830 C   0  0  0  0  0  2  0  0  0  0  0  0
  -28.4910  -26.3960   19.5150 O   0  0  0  0  0  0  0  0  0  0  0  0
  -24.7200  -31.5390   22.8960 C   0  0  0  0  0  0  0  0  0  0  0  0
  -27.3450  -27.2210   19.4760 C   0  0  0  0  0  0  0  0  0  0  0  0
  -23.5050  -30.2360   21.1870 C   0  0  0  0  0  3  0  0  0  0  0  0
  -24.9500  -28.8070   19.6180 C   0  0  0  0  0  0  0  0  0  0  0  0
  -26.0330  -30.6050   20.9730 C   0  0  0  0  0  2  0  0  0  0  0  0
  -26.1200  -29.2720   20.2280 C   0  0  0  0  0  0  0  0  0  0  0  0
  -27.3130  -28.4890   20.1490 C   0  0  0  0  0  3  0  0  0  0  0  0
  -26.1520  -26.8150   18.8400 C   0  0  0  0  0  3  0  0  0  0  0  0
  -24.9710  -27.5890   18.9140 C   0  0  0  0  0  3  0  0  0  0  0  0
  -23.6990  -29.6550   19.7570 C   0  0  0  0  0  2  0  0  0  0  0  0
  -24.7720  -30.8090   21.7430 N   0  0  0  0  0  0  0  0  0  0  0  0
  -23.6450  -31.7600   23.4730 O   0  0  0  0  0  0  0  0  0  0  0  0
  -22.8780  -29.1480   22.0920 C   0  0  0  0  0  0  0  0  0  0  0  0
  -21.5450  -28.9960   22.0260 N   0  0  0  0  0  0  0  0  0  0  0  0
  -23.5910  -28.4450   22.8140 O   0  0  0  0  0  0  0  0  0  0  0  0
  -21.0280  -29.6180   21.4180 H   0  0  0  0  0  0  0  0  0  0  0  0
  -18.1800  -27.8040   22.6230 C   0  0  0  0  0  0  0  0  0  0  0  0
  -20.7550  -28.0010   22.7530 C   0  0  0  0  0  3  0  0  0  0  0  0
  -20.7920  -26.6310   22.0380 C   0  0  0  0  0  2  0  0  0  0  0  0
  -19.6230  -26.4240   21.0690 C   0  0  0  0  0  2  0  0  0  0  0  0
  -18.2870  -26.5260   21.8110 C   0  0  0  0  0  2  0  0  0  0  0  0
  -19.3380  -28.5060   23.0530 C   0  0  0  0  0  0  0  0  0  0  0  0
  -19.1820  -29.7070   23.7770 C   0  0  0  0  0  3  0  0  0  0  0  0
  -17.8990  -30.2080   24.0720 C   0  0  0  0  0  3  0  0  0  0  0  0
  -16.7560  -29.5020   23.6570 C   0  0  0  0  0  3  0  0  0  0  0  0
  -16.8980  -28.3020   22.9390 C   0  0  0  0  0  3  0  0  0  0  0  0
  -26.0050  -32.1520   23.5360 C   0  0  0  0  0  3  0  0  0  0  0  0
  -25.6830  -33.5210   23.9640 N   0  0  0  0  0  0  0  0  0  0  0  0
  -26.0210  -34.6300   23.2930 C   0  0  0  0  0  0  0  0  0  0  0  0
  -26.7080  -34.6070   22.2670 O   0  0  0  0  0  0  0  0  0  0  0  0
  -25.0740  -33.6120   24.7640 H   0  0  0  0  0  0  0  0  0  0  0  0
  -24.2920  -36.4410   23.0490 C   0  0  0  0  0  1  0  0  0  0  0  0
  -25.5220  -35.9790   23.8470 C   0  0  0  0  0  3  0  0  0  0  0  0
  -27.6410  -36.8050   24.7730 C   0  0  0  0  0  1  0  0  0  0  0  0
  -26.5520  -37.0420   23.8300 N   0  0  0  0  0  0  0  0  0  0  0  0
  -26.1400  -37.9470   24.0410 H   0  0  0  0  0  0  0  0  0  0  0  0
  -26.5570  -31.3090   24.7510 C   0  0  1  0  0  0  0  0  0  0  0  0
  -25.4920  -31.0010   25.8300 C   0  0  0  0  0  1  0  0  0  0  0  0
  -27.1380  -29.9610   24.2650 C   0  0  0  0  0  1  0  0  0  0  0  0
  -27.7190  -32.0710   25.4330 C   0  0  0  0  0  1  0  0  0  0  0  0
  -29.8260  -17.5910   21.6620 C   0  0  0  0  0  2  0  0  0  0  0  0
  -30.6270  -15.1080   21.9440 C   0  0  0  0  0  0  0  0  0  0  0  0
  -30.7140  -12.6130   21.7300 C   0  0  0  0  0  2  0  0  0  0  0  0
  -30.1830  -12.1870   20.3510 C   0  0  0  0  0  2  0  0  0  0  0  0
  -28.6410  -12.0690   20.3480 C   0  0  0  0  0  2  0  0  0  0  0  0
  -27.9180  -13.2180   21.1060 C   0  0  0  0  0  3  0  0  0  0  0  0
  -28.6220  -13.5930   22.4220 C   0  0  0  0  0  2  0  0  0  0  0  0
  -30.0210  -13.8730   22.0820 N   0  0  0  0  0  0  0  0  0  0  0  0
  -31.8350  -15.1920   22.1900 O   0  0  0  0  0  0  0  0  0  0  0  0
  -30.0150  -16.1230   21.1720 N   0  0  0  0  0  0  0  0  0  0  0  0
  -25.4450  -13.8530   21.3370 C   0  0  0  0  0  0  0  0  0  0  0  0
  -24.3060  -13.1030   21.4020 C   0  0  0  0  0  0  0  0  0  0  0  0
  -24.7340  -11.7410   21.4080 C   0  0  0  0  0  0  0  0  0  0  0  0
  -26.4960  -12.9520   21.2850 N   0  0  0  0  0  0  0  0  0  0  0  0
  -26.0600  -11.6720   21.4000 N   0  0  0  0  0  0  0  0  0  0  0  0
  -23.9540  -10.5000   21.3640 C   0  0  0  0  0  0  0  0  0  0  0  0
  -24.1300   -9.4850   22.3290 C   0  0  0  0  0  3  0  0  0  0  0  0
  -23.3520   -8.3080   22.2790 C   0  0  0  0  0  3  0  0  0  0  0  0
  -22.3860   -8.1400   21.2590 C   0  0  0  0  0  0  0  0  0  0  0  0
  -22.2310   -9.1460   20.2870 C   0  0  0  0  0  3  0  0  0  0  0  0
  -23.0110  -10.3130   20.3360 C   0  0  0  0  0  3  0  0  0  0  0  0
  -21.6040   -7.0200   21.1140 O   0  0  0  0  0  0  0  0  0  0  0  0
  -21.2240   -6.2660   22.1950 C   0  0  0  0  0  0  0  0  0  0  0  0
  -20.5040   -6.8210   23.2760 C   0  0  0  0  0  3  0  0  0  0  0  0
  -20.0720   -5.9940   24.3320 C   0  0  0  0  0  3  0  0  0  0  0  0
  -20.3510   -4.6150   24.3070 C   0  0  0  0  0  0  0  0  0  0  0  0
  -21.0630   -4.0590   23.2290 C   0  0  0  0  0  3  0  0  0  0  0  0
  -21.4950   -4.8830   22.1750 C   0  0  0  0  0  0  0  0  0  0  0  0
  -22.1620   -4.3390   21.1290 F   0  0  0  0  0  0  0  0  0  0  0  0
  -19.9300   -3.8190   25.3170 F   0  0  0  0  0  0  0  0  0  0  0  0
  -22.8980  -13.6200   21.3690 C   0  0  0  0  0  0  0  0  0  0  0  0
  -21.9780  -12.9320   22.0360 N   0  0  0  0  0  0  0  0  0  0  0  0
  -22.6130  -14.6680   20.7900 O   0  0  0  0  0  0  0  0  0  0  0  0
  -22.2170  -12.0850   22.5290 H   0  0  0  0  0  0  0  0  0  0  0  0
  -21.0220  -13.2590   22.0560 H   0  0  0  0  0  0  0  0  0  0  0  0
  -25.6630  -15.2210   21.2990 N   0  0  0  0  0  0  0  0  0  0  0  0
  -24.8970  -15.8840   21.3010 H   0  0  0  0  0  0  0  0  0  0  0  0
  -26.5700  -15.6700   21.2710 H   0  0  0  0  0  0  0  0  0  0  0  0
  -30.3020  -16.0500   19.7020 C   0  0  0  0  0  2  0  0  0  0  0  0
  -31.0290  -14.0590   18.3160 C   0  0  0  0  0  3  0  0  0  0  0  0
  -30.7880  -12.9010   17.5540 C   0  0  0  0  0  3  0  0  0  0  0  0
  -28.4000  -13.2510   17.8000 C   0  0  0  0  0  3  0  0  0  0  0  0
  -29.9660  -14.7950   18.8890 C   0  0  0  0  0  0  0  0  0  0  0  0
  -29.4690  -12.4840   17.3110 C   0  0  0  0  0  0  0  0  0  0  0  0
  -28.6400  -14.4100   18.5630 C   0  0  0  0  0  0  0  0  0  0  0  0
  -29.1640  -11.0580   16.3890 Cl  0  0  0  0  0  0  0  0  0  0  0  0
  -27.2790  -15.3510   19.0350 Cl  0  0  0  0  0  0  0  0  0  0  0  0
  1  2  2  0
  1  3  1  0
  2  6  1  0
  3  4  2  0
  4  5  1  0
  4 54  1  0
  5  8  1  0
  6  9  1  0
  6  5  2  0
  7  3  1  0
  9 10  1  0
 11  9  1  0
 12 11  1  0
 12 13  1  0
 14 25  2  0
 15 13  1  0
 15 20  1  0
 16 24  1  0
 16 26  1  0
 17 23  1  0
 17 19  1  0
 18 24  1  0
 19 18  1  0
 20 19  2  0
 21 22  1  0
 21 15  2  0
 22 17  2  0
 23 16  1  0
 24 14  1  0
 26 28  2  0
 27 26  1  0
 29 27  1  0
 30 39  2  0
 30 35  1  0
 31 27  1  0
 31 35  1  0
 32 31  1  0
 33 34  1  0
 33 32  1  0
 34 30  1  0
 35 36  2  0
 36 37  1  0
 38 37  2  0
 39 38  1  0
 40 14  1  0
 40 41  1  0
 40 50  1  0
 41 44  1  0
 42 46  1  0
 42 41  1  0
 43 42  2  0
 46 45  1  0
 48 46  1  0
 48 49  1  0
 48 47  1  0
 50 53  1  1
 50 51  1  0
 52 50  1  0
 55 61  1  0
 55 62  2  0
 56 61  1  0
 57 56  1  0
 58 57  1  0
 59 58  1  0
 59 67  1  0
 59 60  1  0
 61 60  1  0
 63 54  1  0
 63 55  1  0
 64 65  2  0
 65 66  1  0
 67 64  1  0
 67 68  1  0
 68 66  2  0
 69 66  1  0
 69 70  1  0
 71 70  2  0
 72 71  1  0
 73 74  1  0
 73 72  2  0
 74 69  2  0
 75 72  1  0
 75 76  1  0
 76 77  1  0
 77 78  2  0
 79 78  1  0
 79 83  1  0
 80 79  2  0
 81 76  2  0
 81 80  1  0
 82 81  1  0
 84 65  1  0
 84 85  1  0
 85 88  1  0
 85 87  1  0
 86 84  2  0
 89 90  1  0
 89 64  1  0
 91 89  1  0
 92 63  1  0
 93 96  1  0
 94 93  2  0
 95 98  1  0
 96 92  1  0
 97 94  1  0
 97 95  2  0
 98 96  2  0
 98100  1  0
 99 97  1  0
M  ISO  4  12 101  13 101  55 100  63 100
M  END
>  <TORSDO>  (33) 
F 22

>  <SCORE>  (33) 
-2.341

>  <name>  (33) 
32

>  <ligand_id>  (33) 
32

>  <original_smiles>  (33) 
[H]c1c([H])c([H])c2c(c1[H])C([H])([H])C([H])([H])C([H])([H])C2([H])N([H])C(=O)C1([H])N(C(=O)C([H])(N([H])C(=O)C([H])(N([H])C([H])([H])[H])C([H])([H])[H])C(C([H])([H])[H])(C([H])([H])[H])C([H])([H])[H])C([H])([H])c2c([H])c(OC([H])([H])C([H])([H])N([H])c3c([H])c([H])c(C([H])([H])[H])c(C([H])([H])N(C(=O)N4C([H])([H])C([H])([H])C([H])([H])C([H])(n5nc(-c6c([H])c([H])c(Oc7c([H])c([H])c(F)c([H])c7F)c([H])c6[H])c(C(=O)N([H])[H])c5N([H])[H])C4([H])[H])C([H])([H])c4c([H])c([H])c(Cl)c([H])c4Cl)c3C([H])([H])[H])c([H])c([H])c2C1([H])[H]

>  <smiles>  (33) 
[H]c1c([H])c([H])c2c(c1[H])C([H])([H])C([H])([H])C([H])([H])C2([H])N([H])C(=O)C1([H])N(C(=O)C([H])(N([H])C(=O)C([H])(N([H])C([H])([H])[H])C([H])([H])[H])C(C([H])([H])[H])(C([H])([H])[H])C([H])([H])[H])C([H])([H])c2c([H])c(OC([H])([H])C([H])([H])N([H])c3c([H])c([H])c(C([H])([H])[H])c(C([H])([H])N(C(=O)N4C([H])([H])C([H])([H])C([H])([H])C([H])(n5nc(-c6c([H])c([H])c(Oc7c([H])c([H])c(F)c([H])c7F)c([H])c6[H])c(C(=O)N([H])[H])c5N([H])[H])C4([H])[H])C([H])([H])c4c([H])c([H])c(Cl)c([H])c4Cl)c3C([H])([H])[H])c([H])c([H])c2C1([H])[H]

$$$$
33:0:0
     RDKit          3D

 92100  0  0  1  0  0  0  0  0999 V2000
  -28.6620  -21.1480   20.0020 C   0  0  0  0  0  2  0  0  0  0  0  0
  -29.2480  -18.5150   20.2850 C   0  0  0  0  0  3  0  0  0  0  0  0
  -30.8770  -20.1940   20.9560 C   0  0  0  0  0  3  0  0  0  0  0  0
  -31.4090  -17.7910   21.1130 C   0  0  0  0  0  3  0  0  0  0  0  0
  -29.5920  -19.9270   20.4450 C   0  0  0  0  0  0  0  0  0  0  0  0
  -30.1470  -17.4110   20.6030 C   0  0  0  0  0  0  0  0  0  0  0  0
  -31.7650  -19.1470   21.2870 C   0  0  0  0  0  0  0  0  0  0  0  0
  -33.3270  -19.5320   21.9120 Cl  0  0  0  0  0  0  0  0  0  0  0  0
  -30.5950  -14.8290   20.3140 C   0  0  0  0  0  0  0  0  0  0  0  0
  -30.4040  -12.5500   19.2970 C   0  0  0  0  0  2  0  0  0  0  0  0
  -29.4490  -12.6000   18.0850 C   0  0  0  0  0  2  0  0  0  0  0  0
  -27.9870  -12.4130   18.5360 C   0  0  0  0  0  2  0  0  0  0  0  0
  -27.6180  -13.3090   19.7490 C   0  0  0  0  0  3  0  0  0  0  0  0
  -28.6900  -13.2380   20.8580 C   0  0  0  0  0  2  0  0  0  0  0  0
  -29.9720  -13.6040   20.2430 N   0  0  0  0  0  0  0  0  0  0  0  0
  -31.7860  -14.9210   20.0000 O   0  0  0  0  0  0  0  0  0  0  0  0
  -29.8020  -15.9630   20.4840 N   0  0  0  0  0  0  0  0  0  0  0  0
  -28.8160  -15.7550   20.5200 H   0  0  0  0  0  0  0  0  0  0  0  0
  -25.2410  -13.8880   20.5160 C   0  0  0  0  0  0  0  0  0  0  0  0
  -24.1830  -13.1070   20.8960 C   0  0  0  0  0  0  0  0  0  0  0  0
  -24.6500  -11.7580   20.8480 C   0  0  0  0  0  0  0  0  0  0  0  0
  -26.2830  -13.0130   20.2580 N   0  0  0  0  0  0  0  0  0  0  0  0
  -25.9360  -11.7270   20.5210 N   0  0  0  0  0  0  0  0  0  0  0  0
  -23.9300  -10.4920   21.0360 C   0  0  0  0  0  0  0  0  0  0  0  0
  -24.3690   -9.5240   21.9640 C   0  0  0  0  0  3  0  0  0  0  0  0
  -23.6480   -8.3220   22.1400 C   0  0  0  0  0  3  0  0  0  0  0  0
  -22.4740   -8.0820   21.3870 C   0  0  0  0  0  0  0  0  0  0  0  0
  -22.0550   -9.0390   20.4460 C   0  0  0  0  0  3  0  0  0  0  0  0
  -22.7760  -10.2320   20.2690 C   0  0  0  0  0  3  0  0  0  0  0  0
  -21.7250   -6.9340   21.4730 O   0  0  0  0  0  0  0  0  0  0  0  0
  -21.6690   -6.1960   22.6280 C   0  0  0  0  0  0  0  0  0  0  0  0
  -21.2030   -6.7460   23.8430 C   0  0  0  0  0  3  0  0  0  0  0  0
  -21.0970   -5.9320   24.9890 C   0  0  0  0  0  3  0  0  0  0  0  0
  -21.4470   -4.5700   24.9210 C   0  0  0  0  0  0  0  0  0  0  0  0
  -21.9050   -4.0200   23.7110 C   0  0  0  0  0  3  0  0  0  0  0  0
  -22.0130   -4.8300   22.5670 C   0  0  0  0  0  0  0  0  0  0  0  0
  -22.4350   -4.2890   21.3990 F   0  0  0  0  0  0  0  0  0  0  0  0
  -21.3370   -3.7870   26.0190 F   0  0  0  0  0  0  0  0  0  0  0  0
  -22.7870  -13.5790   21.1860 C   0  0  0  0  0  0  0  0  0  0  0  0
  -22.0690  -12.8690   22.0500 N   0  0  0  0  0  0  0  0  0  0  0  0
  -22.3430  -14.6100   20.6850 O   0  0  0  0  0  0  0  0  0  0  0  0
  -22.4410  -12.0340   22.4780 H   0  0  0  0  0  0  0  0  0  0  0  0
  -21.1330  -13.1650   22.2880 H   0  0  0  0  0  0  0  0  0  0  0  0
  -25.3960  -15.2610   20.3440 N   0  0  0  0  0  0  0  0  0  0  0  0
  -24.6210  -15.9040   20.4630 H   0  0  0  0  0  0  0  0  0  0  0  0
  -26.2200  -15.7030   19.9600 H   0  0  0  0  0  0  0  0  0  0  0  0
  -28.4200  -23.7790   20.0000 C   0  0  0  0  0  0  0  0  0  0  0  0
  -28.7830  -22.5650   20.5780 N   0  0  0  0  0  0  0  0  0  0  0  0
  -28.1760  -23.8340   18.7940 O   0  0  0  0  0  0  0  0  0  0  0  0
  -28.9990  -22.6070   21.5650 H   0  0  0  0  0  0  0  0  0  0  0  0
  -28.2200  -25.1170   20.8690 C   0  0  0  0  0  2  0  0  0  0  0  0
  -28.3240  -26.4640   20.2060 O   0  0  0  0  0  0  0  0  0  0  0  0
  -24.5520  -31.9170   23.2110 C   0  0  0  0  0  0  0  0  0  0  0  0
  -27.2100  -27.3270   20.2080 C   0  0  0  0  0  0  0  0  0  0  0  0
  -23.3720  -30.5060   21.5650 C   0  0  0  0  0  3  0  0  0  0  0  0
  -24.8430  -28.9470   20.1620 C   0  0  0  0  0  0  0  0  0  0  0  0
  -25.9110  -30.8310   21.4020 C   0  0  0  0  0  2  0  0  0  0  0  0
  -26.0050  -29.4450   20.7640 C   0  0  0  0  0  0  0  0  0  0  0  0
  -27.1960  -28.6490   20.7700 C   0  0  0  0  0  3  0  0  0  0  0  0
  -26.0250  -26.8890   19.5850 C   0  0  0  0  0  3  0  0  0  0  0  0
  -24.8550  -27.6770   19.5620 C   0  0  0  0  0  3  0  0  0  0  0  0
  -23.6020  -29.8220   20.1920 C   0  0  0  0  0  2  0  0  0  0  0  0
  -24.6300  -31.1040   22.1160 N   0  0  0  0  0  0  0  0  0  0  0  0
  -23.4630  -32.1910   23.7350 O   0  0  0  0  0  0  0  0  0  0  0  0
  -22.7030  -29.4930   22.5250 C   0  0  0  0  0  0  0  0  0  0  0  0
  -21.3770  -29.3170   22.3950 N   0  0  0  0  0  0  0  0  0  0  0  0
  -23.3780  -28.8670   23.3480 O   0  0  0  0  0  0  0  0  0  0  0  0
  -20.8900  -29.8760   21.7070 H   0  0  0  0  0  0  0  0  0  0  0  0
  -17.9930  -28.1370   22.9030 C   0  0  0  0  0  0  0  0  0  0  0  0
  -20.5550  -28.3770   23.1600 C   0  0  0  0  0  3  0  0  0  0  0  0
  -20.6430  -26.9500   22.5740 C   0  0  0  0  0  2  0  0  0  0  0  0
  -19.5350  -26.6420   21.5620 C   0  0  0  0  0  2  0  0  0  0  0  0
  -18.1580  -26.7920   22.2150 C   0  0  0  0  0  2  0  0  0  0  0  0
  -19.1190  -28.8880   23.3330 C   0  0  0  0  0  0  0  0  0  0  0  0
  -18.9130  -30.1470   23.9370 C   0  0  0  0  0  3  0  0  0  0  0  0
  -17.6130  -30.6550   24.1160 C   0  0  0  0  0  3  0  0  0  0  0  0
  -16.5010  -29.9010   23.7020 C   0  0  0  0  0  3  0  0  0  0  0  0
  -16.6920  -28.6440   23.1020 C   0  0  0  0  0  3  0  0  0  0  0  0
  -25.8250  -32.5600   23.8440 C   0  0  0  0  0  3  0  0  0  0  0  0
  -26.3320  -31.7990   25.1310 C   0  0  1  0  0  0  0  0  0  0  0  0
  -25.2280  -31.5640   26.1880 C   0  0  0  0  0  1  0  0  0  0  0  0
  -26.9250  -30.4210   24.7540 C   0  0  0  0  0  1  0  0  0  0  0  0
  -27.4710  -32.6030   25.8000 C   0  0  0  0  0  1  0  0  0  0  0  0
  -25.5070  -33.9590   24.1650 N   0  0  0  0  0  0  0  0  0  0  0  0
  -25.8480  -35.0100   23.4080 C   0  0  0  0  0  0  0  0  0  0  0  0
  -26.5320  -34.9060   22.3860 O   0  0  0  0  0  0  0  0  0  0  0  0
  -24.9020  -34.1130   24.9580 H   0  0  0  0  0  0  0  0  0  0  0  0
  -24.1320  -36.8090   23.0160 C   0  0  0  0  0  1  0  0  0  0  0  0
  -25.3530  -36.3990   23.8550 C   0  0  0  0  0  3  0  0  0  0  0  0
  -27.4660  -37.2850   24.7420 C   0  0  0  0  0  1  0  0  0  0  0  0
  -26.3890  -37.4510   23.7670 N   0  0  0  0  0  0  0  0  0  0  0  0
  -25.9800  -38.3720   23.9020 H   0  0  0  0  0  0  0  0  0  0  0  0
  1  5  1  0
  1 48  1  0
  2  5  2  0
  2  6  1  0
  3  7  2  0
  4  7  1  0
  5  3  1  0
  6  4  2  0
  7  8  1  0
  9 17  1  0
 10 15  1  0
 11 12  1  0
 11 10  1  0
 13 12  1  0
 13 22  1  0
 13 14  1  0
 15  9  1  0
 15 14  1  0
 16  9  2  0
 17 18  1  0
 17  6  1  0
 19 20  2  0
 20 39  1  0
 21 20  1  0
 21 24  1  0
 22 19  1  0
 22 23  1  0
 23 21  2  0
 24 25  1  0
 25 26  2  0
 27 30  1  0
 27 26  1  0
 28 27  2  0
 29 28  1  0
 29 24  2  0
 30 31  1  0
 31 32  1  0
 32 33  2  0
 34 33  1  0
 34 38  1  0
 35 34  2  0
 36 31  2  0
 36 35  1  0
 37 36  1  0
 39 40  1  0
 40 43  1  0
 40 42  1  0
 41 39  2  0
 44 45  1  0
 44 19  1  0
 46 44  1  0
 47 48  1  0
 47 51  1  0
 48 50  1  0
 49 47  2  0
 52 54  1  0
 52 51  1  0
 53 64  2  0
 54 59  1  0
 55 63  1  0
 55 65  1  0
 56 62  1  0
 56 58  1  0
 57 63  1  0
 58 59  2  0
 58 57  1  0
 60 54  2  0
 61 60  1  0
 61 56  2  0
 62 55  1  0
 63 53  1  0
 65 67  2  0
 66 65  1  0
 68 66  1  0
 69 78  2  0
 69 74  1  0
 70 66  1  0
 70 74  1  0
 71 70  1  0
 72 73  1  0
 72 71  1  0
 73 69  1  0
 74 75  2  0
 75 76  1  0
 77 76  2  0
 78 77  1  0
 79 53  1  0
 79 84  1  0
 79 80  1  0
 80 83  1  1
 80 81  1  0
 82 80  1  0
 84 87  1  0
 85 89  1  0
 85 84  1  0
 86 85  2  0
 89 88  1  0
 91 89  1  0
 91 92  1  0
 91 90  1  0
M  ISO  4   9 100  17 100  51 101  52 101
M  END
>  <TORSDO>  (34) 
F 19

>  <SCORE>  (34) 
-14.524

>  <name>  (34) 
33

>  <ligand_id>  (34) 
33

>  <original_smiles>  (34) 
[H]c1c([H])c([H])c2c(c1[H])C([H])([H])C([H])([H])C([H])([H])C2([H])N([H])C(=O)C1([H])N(C(=O)C([H])(N([H])C(=O)C([H])(N([H])C([H])([H])[H])C([H])([H])[H])C(C([H])([H])[H])(C([H])([H])[H])C([H])([H])[H])C([H])([H])c2c([H])c(OC([H])([H])C(=O)N([H])C([H])([H])c3c([H])c(Cl)c([H])c(N([H])C(=O)N4C([H])([H])C([H])([H])C([H])([H])C([H])(n5nc(-c6c([H])c([H])c(Oc7c([H])c([H])c(F)c([H])c7F)c([H])c6[H])c(C(=O)N([H])[H])c5N([H])[H])C4([H])[H])c3[H])c([H])c([H])c2C1([H])[H]

>  <smiles>  (34) 
[H]c1c([H])c([H])c2c(c1[H])C([H])([H])C([H])([H])C([H])([H])C2([H])N([H])C(=O)C1([H])N(C(=O)C([H])(N([H])C(=O)C([H])(N([H])C([H])([H])[H])C([H])([H])[H])C(C([H])([H])[H])(C([H])([H])[H])C([H])([H])[H])C([H])([H])c2c([H])c(OC([H])([H])C(=O)N([H])C([H])([H])c3c([H])c(Cl)c([H])c(N([H])C(=O)N4C([H])([H])C([H])([H])C([H])([H])C([H])(n5nc(-c6c([H])c([H])c(Oc7c([H])c([H])c(F)c([H])c7F)c([H])c6[H])c(C(=O)N([H])[H])c5N([H])[H])C4([H])[H])c3[H])c([H])c([H])c2C1([H])[H]

$$$$
34:0:0
     RDKit          3D

 96105  0  0  1  0  0  0  0  0999 V2000
  -29.2490  -23.7860   20.1650 C   0  0  0  0  0  0  0  0  0  0  0  0
  -27.9080  -23.5240   17.4250 C   0  0  0  0  0  2  0  0  0  0  0  0
  -27.0320  -22.5270   18.2070 C   0  0  0  0  0  2  0  0  0  0  0  0
  -27.9520  -24.9380   18.0380 C   0  0  0  0  0  3  0  0  0  0  0  0
  -27.5530  -22.0960   19.5980 C   0  0  0  0  0  2  0  0  0  0  0  0
  -28.5270  -25.0780   19.4900 C   0  0  0  0  0  0  0  0  0  0  0  0
  -28.9460  -22.4550   19.8580 N   0  0  0  0  0  0  0  0  0  0  0  0
  -30.2350  -24.0180   20.8730 O   0  0  0  0  0  0  0  0  0  0  0  0
  -28.3140  -26.3610   20.2750 O   0  0  0  0  0  0  0  0  0  0  0  0
  -24.6380  -31.8760   23.3050 C   0  0  0  0  0  0  0  0  0  0  0  0
  -27.1730  -27.2090   20.2490 C   0  0  0  0  0  0  0  0  0  0  0  0
  -23.4260  -30.4730   21.7060 C   0  0  0  0  0  3  0  0  0  0  0  0
  -24.8200  -28.8790   20.2730 C   0  0  0  0  0  0  0  0  0  0  0  0
  -25.9590  -30.7480   21.4800 C   0  0  0  0  0  2  0  0  0  0  0  0
  -26.0110  -29.3590   20.8360 C   0  0  0  0  0  0  0  0  0  0  0  0
  -27.1870  -28.5410   20.8000 C   0  0  0  0  0  3  0  0  0  0  0  0
  -25.9310  -26.7710   19.7370 C   0  0  0  0  0  3  0  0  0  0  0  0
  -24.7850  -27.5920   19.7160 C   0  0  0  0  0  3  0  0  0  0  0  0
  -23.5970  -29.7740   20.3300 C   0  0  0  0  0  2  0  0  0  0  0  0
  -24.6980  -31.0520   22.2180 N   0  0  0  0  0  0  0  0  0  0  0  0
  -23.5560  -32.1680   23.8380 O   0  0  0  0  0  0  0  0  0  0  0  0
  -22.7580  -29.4870   22.6900 C   0  0  0  0  0  0  0  0  0  0  0  0
  -21.4360  -29.4400   22.5680 N   0  0  0  0  0  0  0  0  0  0  0  0
  -23.4050  -28.7900   23.4710 O   0  0  0  0  0  0  0  0  0  0  0  0
  -21.0500  -30.1420   21.9500 H   0  0  0  0  0  0  0  0  0  0  0  0
  -17.9870  -28.0610   23.0420 C   0  0  0  0  0  0  0  0  0  0  0  0
  -20.4660  -28.4500   22.9650 C   0  0  0  0  0  3  0  0  0  0  0  0
  -20.7160  -26.9490   22.7870 C   0  0  0  0  0  2  0  0  0  0  0  0
  -19.6000  -26.3780   21.8860 C   0  0  0  0  0  2  0  0  0  0  0  0
  -18.1890  -26.6650   22.4520 C   0  0  0  0  0  2  0  0  0  0  0  0
  -19.0850  -28.8800   23.3960 C   0  0  0  0  0  0  0  0  0  0  0  0
  -18.8690  -30.1560   23.9550 C   0  0  0  0  0  3  0  0  0  0  0  0
  -17.5580  -30.6400   24.1160 C   0  0  0  0  0  3  0  0  0  0  0  0
  -16.4640  -29.8440   23.7340 C   0  0  0  0  0  3  0  0  0  0  0  0
  -16.6780  -28.5530   23.2160 C   0  0  0  0  0  3  0  0  0  0  0  0
  -25.9250  -32.5040   23.9140 C   0  0  0  0  0  3  0  0  0  0  0  0
  -25.6250  -33.9070   24.2340 N   0  0  0  0  0  0  0  0  0  0  0  0
  -25.9500  -34.9500   23.4610 C   0  0  0  0  0  0  0  0  0  0  0  0
  -26.6040  -34.8320   22.4220 O   0  0  0  0  0  0  0  0  0  0  0  0
  -25.0480  -34.0710   25.0460 H   0  0  0  0  0  0  0  0  0  0  0  0
  -24.2280  -36.7500   23.1120 C   0  0  0  0  0  1  0  0  0  0  0  0
  -25.4780  -36.3460   23.9100 C   0  0  0  0  0  3  0  0  0  0  0  0
  -27.6320  -37.2190   24.7020 C   0  0  0  0  0  1  0  0  0  0  0  0
  -26.5170  -37.3910   23.7740 N   0  0  0  0  0  0  0  0  0  0  0  0
  -26.1200  -38.3150   23.9200 H   0  0  0  0  0  0  0  0  0  0  0  0
  -26.4350  -31.7390   25.1960 C   0  0  1  0  0  0  0  0  0  0  0  0
  -25.3420  -31.5230   26.2690 C   0  0  0  0  0  1  0  0  0  0  0  0
  -27.0070  -30.3540   24.8150 C   0  0  0  0  0  1  0  0  0  0  0  0
  -27.5970  -32.5300   25.8410 C   0  0  0  0  0  1  0  0  0  0  0  0
  -29.9480  -21.3070   19.6050 C   0  0  0  0  0  2  0  0  0  0  0  0
  -30.0930  -18.6050   19.7610 C   0  0  0  0  0  3  0  0  0  0  0  0
  -30.6870  -17.4740   21.8210 C   0  0  0  0  0  3  0  0  0  0  0  0
  -30.0710  -19.9180   20.4080 C   0  0  0  0  0  0  0  0  0  0  0  0
  -30.3400  -19.9280   21.8030 C   0  0  0  0  0  0  0  0  0  0  0  0
  -30.4200  -17.3560   20.4430 C   0  0  0  0  0  0  0  0  0  0  0  0
  -30.6330  -18.7160   22.4910 C   0  0  0  0  0  0  0  0  0  0  0  0
  -30.3600  -21.2590   22.5460 C   0  0  0  0  0  1  0  0  0  0  0  0
  -30.9410  -18.6990   24.1920 Cl  0  0  0  0  0  0  0  0  0  0  0  0
  -31.0810  -14.8380   19.9640 C   0  0  0  0  0  0  0  0  0  0  0  0
  -30.8030  -12.5580   18.9600 C   0  0  0  0  0  2  0  0  0  0  0  0
  -29.8200  -12.6350   17.7730 C   0  0  0  0  0  2  0  0  0  0  0  0
  -28.3570  -12.5200   18.2510 C   0  0  0  0  0  2  0  0  0  0  0  0
  -28.0500  -13.4370   19.4660 C   0  0  0  0  0  3  0  0  0  0  0  0
  -29.1420  -13.3200   20.5500 C   0  0  0  0  0  2  0  0  0  0  0  0
  -30.4240  -13.6310   19.9040 N   0  0  0  0  0  0  0  0  0  0  0  0
  -32.2930  -14.8960   19.7320 O   0  0  0  0  0  0  0  0  0  0  0  0
  -30.2870  -15.9790   19.8990 N   0  0  0  0  0  0  0  0  0  0  0  0
  -29.3350  -15.7400   19.6790 H   0  0  0  0  0  0  0  0  0  0  0  0
  -25.7260  -14.1360   20.2950 C   0  0  0  0  0  0  0  0  0  0  0  0
  -24.6350  -13.4120   20.6900 C   0  0  0  0  0  0  0  0  0  0  0  0
  -25.0270  -12.0400   20.6210 C   0  0  0  0  0  0  0  0  0  0  0  0
  -26.7140  -13.2090   20.0040 N   0  0  0  0  0  0  0  0  0  0  0  0
  -26.3040  -11.9420   20.2680 N   0  0  0  0  0  0  0  0  0  0  0  0
  -24.2440  -10.8140   20.8160 C   0  0  0  0  0  0  0  0  0  0  0  0
  -24.6510   -9.8160   21.7280 C   0  0  0  0  0  3  0  0  0  0  0  0
  -23.8720   -8.6530   21.9130 C   0  0  0  0  0  3  0  0  0  0  0  0
  -22.6710   -8.4800   21.1850 C   0  0  0  0  0  0  0  0  0  0  0  0
  -22.2810   -9.4660   20.2620 C   0  0  0  0  0  3  0  0  0  0  0  0
  -23.0610  -10.6220   20.0750 C   0  0  0  0  0  3  0  0  0  0  0  0
  -21.8620   -7.3740   21.2780 O   0  0  0  0  0  0  0  0  0  0  0  0
  -21.7920   -6.6310   22.4290 C   0  0  0  0  0  0  0  0  0  0  0  0
  -21.4340   -7.2080   23.6680 C   0  0  0  0  0  3  0  0  0  0  0  0
  -21.3050   -6.3950   24.8120 C   0  0  0  0  0  3  0  0  0  0  0  0
  -21.5240   -5.0080   24.7170 C   0  0  0  0  0  0  0  0  0  0  0  0
  -21.8760   -4.4320   23.4840 C   0  0  0  0  0  3  0  0  0  0  0  0
  -22.0060   -5.2410   22.3430 C   0  0  0  0  0  0  0  0  0  0  0  0
  -22.3230   -4.6790   21.1510 F   0  0  0  0  0  0  0  0  0  0  0  0
  -21.3920   -4.2250   25.8150 F   0  0  0  0  0  0  0  0  0  0  0  0
  -23.2730  -13.9550   21.0110 C   0  0  0  0  0  0  0  0  0  0  0  0
  -22.5420  -13.2910   21.8980 N   0  0  0  0  0  0  0  0  0  0  0  0
  -22.8700  -15.0050   20.5110 O   0  0  0  0  0  0  0  0  0  0  0  0
  -22.8850  -12.4430   22.3280 H   0  0  0  0  0  0  0  0  0  0  0  0
  -21.6280  -13.6360   22.1520 H   0  0  0  0  0  0  0  0  0  0  0  0
  -25.9500  -15.5000   20.1310 N   0  0  0  0  0  0  0  0  0  0  0  0
  -25.2120  -16.1790   20.2800 H   0  0  0  0  0  0  0  0  0  0  0  0
  -26.7980  -15.9150   19.7720 H   0  0  0  0  0  0  0  0  0  0  0  0
  1  8  2  0
  2  4  1  0
  2  3  1  0
  3  5  1  0
  4  6  2  0
  5  7  1  0
  6  1  1  0
  6  9  1  0
  7  1  1  0
 10 21  2  0
 11  9  1  0
 11 16  1  0
 12 20  1  0
 12 22  1  0
 13 19  1  0
 13 15  1  0
 14 20  1  0
 15 14  1  0
 16 15  2  0
 17 11  2  0
 18 17  1  0
 18 13  2  0
 19 12  1  0
 20 10  1  0
 22 24  2  0
 23 22  1  0
 25 23  1  0
 26 35  2  0
 26 31  1  0
 27 23  1  0
 27 31  1  0
 28 27  1  0
 29 30  1  0
 29 28  1  0
 30 26  1  0
 31 32  2  0
 32 33  1  0
 34 33  2  0
 35 34  1  0
 36 10  1  0
 36 37  1  0
 36 46  1  0
 37 40  1  0
 38 42  1  0
 38 37  1  0
 39 38  2  0
 42 41  1  0
 44 42  1  0
 44 45  1  0
 44 43  1  0
 46 49  1  1
 46 47  1  0
 48 46  1  0
 50  7  1  0
 50 53  1  0
 51 53  2  0
 51 55  1  0
 52 56  1  0
 53 54  1  0
 54 56  2  0
 54 57  1  0
 55 52  2  0
 56 58  1  0
 60 65  1  0
 61 62  1  0
 61 60  1  0
 63 62  1  0
 63 72  1  0
 63 64  1  0
 65 59  1  0
 65 64  1  0
 66 59  2  0
 67 59  1  0
 67 55  1  0
 68 67  1  0
 69 70  2  0
 70 89  1  0
 71 70  1  0
 71 74  1  0
 72 73  1  0
 72 69  1  0
 73 71  2  0
 74 75  1  0
 75 76  2  0
 77 80  1  0
 77 76  1  0
 78 77  2  0
 79 78  1  0
 79 74  2  0
 80 81  1  0
 81 82  1  0
 82 83  2  0
 84 83  1  0
 84 88  1  0
 85 84  2  0
 86 81  2  0
 86 85  1  0
 87 86  1  0
 89 90  1  0
 90 93  1  0
 90 92  1  0
 91 89  2  0
 94 95  1  0
 94 69  1  0
 96 94  1  0
M  ISO  4   6 101   9 101  59 100  67 100
M  END
>  <TORSDO>  (35) 
F 18

>  <SCORE>  (35) 
-13.815

>  <name>  (35) 
34

>  <ligand_id>  (35) 
34

>  <original_smiles>  (35) 
[H]c1c([H])c([H])c2c(c1[H])C([H])([H])C([H])([H])C([H])([H])C2([H])N([H])C(=O)C1([H])N(C(=O)C([H])(N([H])C(=O)C([H])(N([H])C([H])([H])[H])C([H])([H])[H])C(C([H])([H])[H])(C([H])([H])[H])C([H])([H])[H])C([H])([H])c2c([H])c(OC3([H])C(=O)N(C([H])([H])c4c([H])c(N([H])C(=O)N5C([H])([H])C([H])([H])C([H])([H])C([H])(n6nc(-c7c([H])c([H])c(Oc8c([H])c([H])c(F)c([H])c8F)c([H])c7[H])c(C(=O)N([H])[H])c6N([H])[H])C5([H])[H])c([H])c(Cl)c4C([H])([H])[H])C([H])([H])C([H])([H])C([H])([H])C3([H])[H])c([H])c([H])c2C1([H])[H]

>  <smiles>  (35) 
[H]c1c([H])c([H])c2c(c1[H])C([H])([H])C([H])([H])C([H])([H])C2([H])N([H])C(=O)C1([H])N(C(=O)C([H])(N([H])C(=O)C([H])(N([H])C([H])([H])[H])C([H])([H])[H])C(C([H])([H])[H])(C([H])([H])[H])C([H])([H])[H])C([H])([H])c2c([H])c(OC3([H])C(=O)N(C([H])([H])c4c([H])c(N([H])C(=O)N5C([H])([H])C([H])([H])C([H])([H])C([H])(n6nc(-c7c([H])c([H])c(Oc8c([H])c([H])c(F)c([H])c8F)c([H])c7[H])c(C(=O)N([H])[H])c6N([H])[H])C5([H])[H])c([H])c(Cl)c4C([H])([H])[H])C([H])([H])C([H])([H])C([H])([H])C3([H])[H])c([H])c([H])c2C1([H])[H]

$$$$
35:0:0
     RDKit          3D

 96105  0  0  1  0  0  0  0  0999 V2000
  -28.3870  -21.0870   20.3850 C   0  0  0  0  0  2  0  0  0  0  0  0
  -28.2560  -23.7180   20.1450 C   0  0  0  0  0  0  0  0  0  0  0  0
  -29.7700  -23.8460   22.6080 C   0  0  0  0  0  2  0  0  0  0  0  0
  -29.6070  -25.1550   21.8250 C   0  0  0  0  0  2  0  0  0  0  0  0
  -29.9080  -22.6370   21.6580 C   0  0  0  0  0  2  0  0  0  0  0  0
  -28.3560  -25.1280   20.9310 C   0  0  0  0  0  3  0  0  0  0  0  0
  -28.8380  -22.5430   20.6500 N   0  0  0  0  0  0  0  0  0  0  0  0
  -27.5450  -23.6830   19.1370 O   0  0  0  0  0  0  0  0  0  0  0  0
  -28.3520  -26.4250   20.1710 O   0  0  0  0  0  0  0  0  0  0  0  0
  -24.6150  -31.8810   23.2370 C   0  0  0  0  0  0  0  0  0  0  0  0
  -27.2360  -27.2850   20.2210 C   0  0  0  0  0  0  0  0  0  0  0  0
  -23.4140  -30.4720   21.6040 C   0  0  0  0  0  3  0  0  0  0  0  0
  -24.8690  -28.9080   20.1890 C   0  0  0  0  0  0  0  0  0  0  0  0
  -25.9520  -30.7930   21.4140 C   0  0  0  0  0  2  0  0  0  0  0  0
  -26.0380  -29.4030   20.7840 C   0  0  0  0  0  0  0  0  0  0  0  0
  -27.2270  -28.6040   20.7880 C   0  0  0  0  0  3  0  0  0  0  0  0
  -26.0450  -26.8470   19.6110 C   0  0  0  0  0  3  0  0  0  0  0  0
  -24.8770  -27.6340   19.5940 C   0  0  0  0  0  3  0  0  0  0  0  0
  -23.6320  -29.7850   20.2290 C   0  0  0  0  0  2  0  0  0  0  0  0
  -24.6800  -31.0680   22.1410 N   0  0  0  0  0  0  0  0  0  0  0  0
  -23.5320  -32.1600   23.7680 O   0  0  0  0  0  0  0  0  0  0  0  0
  -22.7490  -29.4640   22.5730 C   0  0  0  0  0  0  0  0  0  0  0  0
  -21.4230  -29.2840   22.4450 N   0  0  0  0  0  0  0  0  0  0  0  0
  -23.4260  -28.8430   23.3940 O   0  0  0  0  0  0  0  0  0  0  0  0
  -20.9310  -29.8360   21.7570 H   0  0  0  0  0  0  0  0  0  0  0  0
  -18.0480  -28.0840   22.9470 C   0  0  0  0  0  0  0  0  0  0  0  0
  -20.6050  -28.3500   23.2200 C   0  0  0  0  0  3  0  0  0  0  0  0
  -20.7110  -26.9160   22.6490 C   0  0  0  0  0  2  0  0  0  0  0  0
  -19.6110  -26.5870   21.6350 C   0  0  0  0  0  2  0  0  0  0  0  0
  -18.2280  -26.7310   22.2780 C   0  0  0  0  0  2  0  0  0  0  0  0
  -19.1640  -28.8500   23.3750 C   0  0  0  0  0  0  0  0  0  0  0  0
  -18.9440  -30.1160   23.9580 C   0  0  0  0  0  3  0  0  0  0  0  0
  -17.6380  -30.6130   24.1260 C   0  0  0  0  0  3  0  0  0  0  0  0
  -16.5360  -29.8460   23.7150 C   0  0  0  0  0  3  0  0  0  0  0  0
  -16.7410  -28.5850   23.1270 C   0  0  0  0  0  3  0  0  0  0  0  0
  -25.8960  -32.5190   23.8570 C   0  0  0  0  0  3  0  0  0  0  0  0
  -26.4130  -31.7470   25.1330 C   0  0  1  0  0  0  0  0  0  0  0  0
  -25.3210  -31.5160   26.2030 C   0  0  0  0  0  1  0  0  0  0  0  0
  -26.9960  -30.3680   24.7450 C   0  0  0  0  0  1  0  0  0  0  0  0
  -27.5640  -32.5420   25.7940 C   0  0  0  0  0  1  0  0  0  0  0  0
  -25.5820  -33.9160   24.1870 N   0  0  0  0  0  0  0  0  0  0  0  0
  -25.9120  -34.9730   23.4310 C   0  0  0  0  0  0  0  0  0  0  0  0
  -26.5830  -34.8710   22.3990 O   0  0  0  0  0  0  0  0  0  0  0  0
  -24.9830  -34.0680   24.9860 H   0  0  0  0  0  0  0  0  0  0  0  0
  -24.1810  -36.7640   23.0830 C   0  0  0  0  0  1  0  0  0  0  0  0
  -25.4250  -36.3600   23.8900 C   0  0  0  0  0  3  0  0  0  0  0  0
  -27.5600  -37.2510   24.7130 C   0  0  0  0  0  1  0  0  0  0  0  0
  -26.4540  -37.4160   23.7730 N   0  0  0  0  0  0  0  0  0  0  0  0
  -26.0460  -38.3360   23.9170 H   0  0  0  0  0  0  0  0  0  0  0  0
  -30.9280  -18.8100   18.4110 C   0  0  0  0  0  3  0  0  0  0  0  0
  -30.8560  -17.5640   19.0560 C   0  0  0  0  0  3  0  0  0  0  0  0
  -29.2460  -18.5190   20.5860 C   0  0  0  0  0  3  0  0  0  0  0  0
  -30.1540  -19.9330   18.8010 C   0  0  0  0  0  0  0  0  0  0  0  0
  -29.3260  -19.8460   19.9590 C   0  0  0  0  0  0  0  0  0  0  0  0
  -29.9820  -17.3320   20.1340 C   0  0  0  0  0  0  0  0  0  0  0  0
  -30.5740  -14.7750   20.3780 C   0  0  0  0  0  0  0  0  0  0  0  0
  -30.3870  -12.4900   19.3860 C   0  0  0  0  0  2  0  0  0  0  0  0
  -29.4730  -12.5860   18.1440 C   0  0  0  0  0  2  0  0  0  0  0  0
  -27.9920  -12.4250   18.5490 C   0  0  0  0  0  2  0  0  0  0  0  0
  -27.6090  -13.2950   19.7770 C   0  0  0  0  0  3  0  0  0  0  0  0
  -28.6520  -13.1840   20.9100 C   0  0  0  0  0  2  0  0  0  0  0  0
  -29.9530  -13.5430   20.3370 N   0  0  0  0  0  0  0  0  0  0  0  0
  -31.7640  -14.8470   20.0600 O   0  0  0  0  0  0  0  0  0  0  0  0
  -29.8110  -15.9240   20.6220 N   0  0  0  0  0  0  0  0  0  0  0  0
  -28.9060  -15.7360   21.0270 H   0  0  0  0  0  0  0  0  0  0  0  0
  -25.2160  -13.8880   20.4810 C   0  0  0  0  0  0  0  0  0  0  0  0
  -24.1450  -13.1180   20.8460 C   0  0  0  0  0  0  0  0  0  0  0  0
  -24.6070  -11.7650   20.8260 C   0  0  0  0  0  0  0  0  0  0  0  0
  -26.2600  -13.0070   20.2550 N   0  0  0  0  0  0  0  0  0  0  0  0
  -25.8990  -11.7240   20.5250 N   0  0  0  0  0  0  0  0  0  0  0  0
  -23.8780  -10.5040   21.0190 C   0  0  0  0  0  0  0  0  0  0  0  0
  -24.3040   -9.5430   21.9610 C   0  0  0  0  0  3  0  0  0  0  0  0
  -23.5760   -8.3480   22.1430 C   0  0  0  0  0  3  0  0  0  0  0  0
  -22.4080   -8.1060   21.3810 C   0  0  0  0  0  0  0  0  0  0  0  0
  -22.0020   -9.0560   20.4280 C   0  0  0  0  0  3  0  0  0  0  0  0
  -22.7320  -10.2430   20.2430 C   0  0  0  0  0  3  0  0  0  0  0  0
  -21.6530   -6.9620   21.4680 O   0  0  0  0  0  0  0  0  0  0  0  0
  -21.5930   -6.2260   22.6240 C   0  0  0  0  0  0  0  0  0  0  0  0
  -21.1600   -6.7880   23.8450 C   0  0  0  0  0  3  0  0  0  0  0  0
  -21.0460   -5.9780   24.9920 C   0  0  0  0  0  3  0  0  0  0  0  0
  -21.3570   -4.6060   24.9210 C   0  0  0  0  0  0  0  0  0  0  0  0
  -21.7840   -4.0450   23.7040 C   0  0  0  0  0  3  0  0  0  0  0  0
  -21.8980   -4.8520   22.5590 C   0  0  0  0  0  0  0  0  0  0  0  0
  -22.2880   -4.3010   21.3850 F   0  0  0  0  0  0  0  0  0  0  0  0
  -21.2410   -3.8260   26.0210 F   0  0  0  0  0  0  0  0  0  0  0  0
  -22.7460  -13.5980   21.1000 C   0  0  0  0  0  0  0  0  0  0  0  0
  -22.0040  -12.9100   21.9610 N   0  0  0  0  0  0  0  0  0  0  0  0
  -22.3160  -14.6210   20.5690 O   0  0  0  0  0  0  0  0  0  0  0  0
  -22.3620  -12.0890   22.4230 H   0  0  0  0  0  0  0  0  0  0  0  0
  -21.0620  -13.2140   22.1640 H   0  0  0  0  0  0  0  0  0  0  0  0
  -25.3840  -15.2590   20.2960 N   0  0  0  0  0  0  0  0  0  0  0  0
  -24.6230  -15.9200   20.4110 H   0  0  0  0  0  0  0  0  0  0  0  0
  -26.2310  -15.6930   19.9500 H   0  0  0  0  0  0  0  0  0  0  0  0
  -29.0710  -21.1510   16.8310 C   0  0  0  0  0  1  0  0  0  0  0  0
  -31.5410  -21.4330   17.2190 C   0  0  0  0  0  1  0  0  0  0  0  0
  -30.1820  -21.1800   17.8980 C   0  0  0  0  0  3  0  0  0  0  0  0
  1  7  1  0
  2  7  1  0
  2  6  1  0
  4  3  1  0
  5  3  1  0
  6  9  1  0
  6  4  1  0
  7  5  1  0
  8  2  2  0
  9 11  1  0
 10 21  2  0
 11 16  1  0
 12 20  1  0
 12 22  1  0
 13 19  1  0
 13 15  1  0
 14 20  1  0
 15 16  2  0
 15 14  1  0
 17 11  2  0
 18 17  1  0
 18 13  2  0
 19 12  1  0
 20 10  1  0
 22 24  2  0
 23 22  1  0
 25 23  1  0
 26 35  2  0
 26 31  1  0
 27 23  1  0
 27 31  1  0
 28 27  1  0
 29 30  1  0
 29 28  1  0
 30 26  1  0
 31 32  2  0
 32 33  1  0
 34 33  2  0
 35 34  1  0
 36 10  1  0
 36 41  1  0
 36 37  1  0
 37 40  1  1
 37 38  1  0
 39 37  1  0
 41 44  1  0
 42 46  1  0
 42 41  1  0
 43 42  2  0
 46 45  1  0
 48 46  1  0
 48 49  1  0
 48 47  1  0
 50 53  2  0
 50 51  1  0
 51 55  2  0
 53 54  1  0
 54  1  1  0
 54 52  2  0
 55 52  1  0
 55 64  1  0
 56 64  1  0
 57 62  1  0
 58 59  1  0
 58 57  1  0
 60 59  1  0
 60 69  1  0
 60 61  1  0
 62 56  1  0
 62 61  1  0
 63 56  2  0
 64 65  1  0
 66 67  2  0
 67 86  1  0
 68 67  1  0
 68 71  1  0
 69 66  1  0
 69 70  1  0
 70 68  2  0
 71 72  1  0
 72 73  2  0
 74 77  1  0
 74 73  1  0
 75 74  2  0
 76 75  1  0
 76 71  2  0
 77 78  1  0
 78 79  1  0
 79 80  2  0
 81 80  1  0
 81 85  1  0
 82 81  2  0
 83 78  2  0
 83 82  1  0
 84 83  1  0
 86 87  1  0
 87 90  1  0
 87 89  1  0
 88 86  2  0
 91 92  1  0
 91 66  1  0
 93 91  1  0
 94 96  1  0
 95 96  1  0
 96 53  1  0
M  ISO  4   6 101   9 101  56 100  64 100
M  END
>  <TORSDO>  (36) 
F 19

>  <SCORE>  (36) 
-14.568

>  <name>  (36) 
35

>  <ligand_id>  (36) 
35

>  <original_smiles>  (36) 
[H]c1c([H])c([H])c2c(c1[H])C([H])([H])C([H])([H])C([H])([H])C2([H])N([H])C(=O)C1([H])N(C(=O)C([H])(N([H])C(=O)C([H])(N([H])C([H])([H])[H])C([H])([H])[H])C(C([H])([H])[H])(C([H])([H])[H])C([H])([H])[H])C([H])([H])c2c([H])c(OC3([H])C(=O)N(C([H])([H])c4c([H])c(N([H])C(=O)N5C([H])([H])C([H])([H])C([H])([H])C([H])(n6nc(-c7c([H])c([H])c(Oc8c([H])c([H])c(F)c([H])c8F)c([H])c7[H])c(C(=O)N([H])[H])c6N([H])[H])C5([H])[H])c([H])c([H])c4C([H])(C([H])([H])[H])C([H])([H])[H])C([H])([H])C([H])([H])C3([H])[H])c([H])c([H])c2C1([H])[H]

>  <smiles>  (36) 
[H]c1c([H])c([H])c2c(c1[H])C([H])([H])C([H])([H])C([H])([H])C2([H])N([H])C(=O)C1([H])N(C(=O)C([H])(N([H])C(=O)C([H])(N([H])C([H])([H])[H])C([H])([H])[H])C(C([H])([H])[H])(C([H])([H])[H])C([H])([H])[H])C([H])([H])c2c([H])c(OC3([H])C(=O)N(C([H])([H])c4c([H])c(N([H])C(=O)N5C([H])([H])C([H])([H])C([H])([H])C([H])(n6nc(-c7c([H])c([H])c(Oc8c([H])c([H])c(F)c([H])c8F)c([H])c7[H])c(C(=O)N([H])[H])c6N([H])[H])C5([H])[H])c([H])c([H])c4C([H])(C([H])([H])[H])C([H])([H])[H])C([H])([H])C([H])([H])C3([H])[H])c([H])c([H])c2C1([H])[H]

$$$$
36:0:0
     RDKit          3D

 95103  0  0  1  0  0  0  0  0999 V2000
  -31.0170  -19.0240   18.3270 C   0  0  0  0  0  3  0  0  0  0  0  0
  -30.8290  -17.9060   19.1640 C   0  0  0  0  0  3  0  0  0  0  0  0
  -30.4160  -19.4110   21.0180 C   0  0  0  0  0  3  0  0  0  0  0  0
  -30.9220  -20.3540   18.8130 C   0  0  0  0  0  0  0  0  0  0  0  0
  -30.5550  -18.0800   20.5310 C   0  0  0  0  0  0  0  0  0  0  0  0
  -30.5730  -20.5590   20.1810 C   0  0  0  0  0  0  0  0  0  0  0  0
  -31.2170  -21.4830   17.8900 C   0  0  0  0  0  3  0  0  0  0  0  0
  -31.4570  -21.3810   16.6520 N   0  0  0  0  0  0  0  0  0  0  0  0
  -31.4150  -20.4160   16.3420 H   0  0  0  0  0  0  0  0  0  0  0  0
  -30.5100  -16.8740   21.4960 C   0  0  0  0  0  2  0  0  0  0  0  0
  -30.6610  -14.5230   20.5150 C   0  0  0  0  0  0  0  0  0  0  0  0
  -30.3480  -12.3540   19.3640 C   0  0  0  0  0  2  0  0  0  0  0  0
  -29.4100  -12.5340   18.1540 C   0  0  0  0  0  2  0  0  0  0  0  0
  -27.9360  -12.3960   18.5810 C   0  0  0  0  0  2  0  0  0  0  0  0
  -27.5920  -13.2490   19.8320 C   0  0  0  0  0  3  0  0  0  0  0  0
  -28.6460  -13.0550   20.9450 C   0  0  0  0  0  2  0  0  0  0  0  0
  -29.9670  -13.3570   20.3710 N   0  0  0  0  0  0  0  0  0  0  0  0
  -31.8130  -14.6630   20.0980 O   0  0  0  0  0  0  0  0  0  0  0  0
  -29.9750  -15.5700   21.0250 N   0  0  0  0  0  0  0  0  0  0  0  0
  -29.0110  -15.3810   21.2550 H   0  0  0  0  0  0  0  0  0  0  0  0
  -25.1960  -13.8700   20.5260 C   0  0  0  0  0  0  0  0  0  0  0  0
  -24.1200  -13.1070   20.8910 C   0  0  0  0  0  0  0  0  0  0  0  0
  -24.5740  -11.7530   20.8680 C   0  0  0  0  0  0  0  0  0  0  0  0
  -26.2360  -12.9820   20.3060 N   0  0  0  0  0  0  0  0  0  0  0  0
  -25.8660  -11.7030   20.5710 N   0  0  0  0  0  0  0  0  0  0  0  0
  -23.8370  -10.4960   21.0570 C   0  0  0  0  0  0  0  0  0  0  0  0
  -24.2610   -9.5230   21.9900 C   0  0  0  0  0  3  0  0  0  0  0  0
  -23.5280   -8.3300   22.1670 C   0  0  0  0  0  3  0  0  0  0  0  0
  -22.3530   -8.1020   21.4090 C   0  0  0  0  0  0  0  0  0  0  0  0
  -21.9480   -9.0620   20.4630 C   0  0  0  0  0  3  0  0  0  0  0  0
  -22.6850  -10.2450   20.2850 C   0  0  0  0  0  3  0  0  0  0  0  0
  -21.5910   -6.9630   21.4950 O   0  0  0  0  0  0  0  0  0  0  0  0
  -21.5390   -6.2150   22.6450 C   0  0  0  0  0  0  0  0  0  0  0  0
  -21.1240   -6.7700   23.8750 C   0  0  0  0  0  3  0  0  0  0  0  0
  -21.0180   -5.9500   25.0160 C   0  0  0  0  0  3  0  0  0  0  0  0
  -21.3170   -4.5780   24.9290 C   0  0  0  0  0  0  0  0  0  0  0  0
  -21.7250   -4.0230   23.7040 C   0  0  0  0  0  3  0  0  0  0  0  0
  -21.8320   -4.8390   22.5640 C   0  0  0  0  0  0  0  0  0  0  0  0
  -22.2040   -4.2950   21.3800 F   0  0  0  0  0  0  0  0  0  0  0  0
  -21.2090   -3.7890   26.0230 F   0  0  0  0  0  0  0  0  0  0  0  0
  -22.7230  -13.5920   21.1510 C   0  0  0  0  0  0  0  0  0  0  0  0
  -21.9840  -12.8990   22.0090 N   0  0  0  0  0  0  0  0  0  0  0  0
  -22.2950  -14.6230   20.6310 O   0  0  0  0  0  0  0  0  0  0  0  0
  -22.3400  -12.0630   22.4470 H   0  0  0  0  0  0  0  0  0  0  0  0
  -21.0460  -13.2060   22.2310 H   0  0  0  0  0  0  0  0  0  0  0  0
  -25.3730  -15.2390   20.3450 N   0  0  0  0  0  0  0  0  0  0  0  0
  -24.6150  -15.9070   20.4480 H   0  0  0  0  0  0  0  0  0  0  0  0
  -26.2290  -15.6640   20.0090 H   0  0  0  0  0  0  0  0  0  0  0  0
  -30.4210  -21.9850   20.7980 C   0  0  0  0  0  2  0  0  0  0  0  0
  -29.4090  -24.2620   20.4280 C   0  0  0  0  0  0  0  0  0  0  0  0
  -28.1180  -22.2500   19.8060 C   0  0  0  0  0  1  0  0  0  0  0  0
  -29.3380  -22.8960   20.3080 N   0  0  0  0  0  0  0  0  0  0  0  0
  -30.4220  -24.8240   20.8590 O   0  0  0  0  0  0  0  0  0  0  0  0
  -28.1810  -25.1400   20.0310 C   0  0  0  0  0  2  0  0  0  0  0  0
  -28.3470  -26.5750   20.2480 O   0  0  0  0  0  0  0  0  0  0  0  0
  -24.5660  -31.8790   23.2440 C   0  0  0  0  0  0  0  0  0  0  0  0
  -27.1940  -27.3600   20.2000 C   0  0  0  0  0  0  0  0  0  0  0  0
  -23.3580  -30.4760   21.6070 C   0  0  0  0  0  3  0  0  0  0  0  0
  -24.8090  -28.9240   20.1910 C   0  0  0  0  0  0  0  0  0  0  0  0
  -25.8950  -30.8040   21.4220 C   0  0  0  0  0  2  0  0  0  0  0  0
  -25.9750  -29.4290   20.7820 C   0  0  0  0  0  0  0  0  0  0  0  0
  -27.1670  -28.6560   20.7780 C   0  0  0  0  0  3  0  0  0  0  0  0
  -26.0030  -26.8910   19.5930 C   0  0  0  0  0  3  0  0  0  0  0  0
  -24.8230  -27.6560   19.5930 C   0  0  0  0  0  3  0  0  0  0  0  0
  -23.5690  -29.7900   20.2320 C   0  0  0  0  0  2  0  0  0  0  0  0
  -24.6250  -31.0700   22.1480 N   0  0  0  0  0  0  0  0  0  0  0  0
  -23.4840  -32.1630   23.7780 O   0  0  0  0  0  0  0  0  0  0  0  0
  -22.6950  -29.4640   22.5710 C   0  0  0  0  0  0  0  0  0  0  0  0
  -21.3700  -29.2890   22.4380 N   0  0  0  0  0  0  0  0  0  0  0  0
  -23.3690  -28.8380   23.3900 O   0  0  0  0  0  0  0  0  0  0  0  0
  -20.8860  -29.8470   21.7500 H   0  0  0  0  0  0  0  0  0  0  0  0
  -17.9840  -28.1140   22.9270 C   0  0  0  0  0  0  0  0  0  0  0  0
  -20.5430  -28.3590   23.2080 C   0  0  0  0  0  3  0  0  0  0  0  0
  -20.6400  -26.9240   22.6400 C   0  0  0  0  0  2  0  0  0  0  0  0
  -19.5420  -26.6030   21.6250 C   0  0  0  0  0  2  0  0  0  0  0  0
  -18.1540  -26.7600   22.2590 C   0  0  0  0  0  2  0  0  0  0  0  0
  -19.1050  -28.8720   23.3560 C   0  0  0  0  0  0  0  0  0  0  0  0
  -18.8910  -30.1410   23.9380 C   0  0  0  0  0  3  0  0  0  0  0  0
  -17.5890  -30.6490   24.0960 C   0  0  0  0  0  3  0  0  0  0  0  0
  -16.4820  -29.8880   23.6850 C   0  0  0  0  0  3  0  0  0  0  0  0
  -16.6810  -28.6230   23.1050 C   0  0  0  0  0  3  0  0  0  0  0  0
  -25.8510  -32.5070   23.8650 C   0  0  0  0  0  3  0  0  0  0  0  0
  -25.5490  -33.9060   24.1940 N   0  0  0  0  0  0  0  0  0  0  0  0
  -25.8860  -34.9570   23.4320 C   0  0  0  0  0  0  0  0  0  0  0  0
  -26.5510  -34.8480   22.3990 O   0  0  0  0  0  0  0  0  0  0  0  0
  -24.9670  -34.0640   25.0040 H   0  0  0  0  0  0  0  0  0  0  0  0
  -24.1660  -36.7540   23.0690 C   0  0  0  0  0  1  0  0  0  0  0  0
  -25.4020  -36.3480   23.8880 C   0  0  0  0  0  3  0  0  0  0  0  0
  -27.5370  -37.2200   24.7280 C   0  0  0  0  0  1  0  0  0  0  0  0
  -26.4420  -37.3940   23.7790 N   0  0  0  0  0  0  0  0  0  0  0  0
  -26.0410  -38.3160   23.9250 H   0  0  0  0  0  0  0  0  0  0  0  0
  -26.3670  -31.7360   25.1420 C   0  0  1  0  0  0  0  0  0  0  0  0
  -25.2740  -31.5010   26.2120 C   0  0  0  0  0  1  0  0  0  0  0  0
  -26.9510  -30.3600   24.7480 C   0  0  0  0  0  1  0  0  0  0  0  0
  -27.5190  -32.5330   25.8040 C   0  0  0  0  0  1  0  0  0  0  0  0
  1  4  2  0
  1  2  1  0
  2  5  2  0
  4  6  1  0
  5  3  1  0
  5 10  1  0
  6 49  1  0
  6  3  2  0
  7  4  1  0
  8  7  2  0
  9  8  1  0
 11 19  1  0
 12 17  1  0
 13 14  1  0
 13 12  1  0
 15 14  1  0
 15 24  1  0
 15 16  1  0
 17 11  1  0
 17 16  1  0
 18 11  2  0
 19 20  1  0
 19 10  1  0
 21 22  2  0
 22 41  1  0
 23 22  1  0
 23 26  1  0
 24 21  1  0
 24 25  1  0
 25 23  2  0
 26 27  1  0
 27 28  2  0
 29 32  1  0
 29 28  1  0
 30 29  2  0
 31 30  1  0
 31 26  2  0
 32 33  1  0
 33 34  1  0
 34 35  2  0
 36 35  1  0
 36 40  1  0
 37 36  2  0
 38 33  2  0
 38 37  1  0
 39 38  1  0
 41 42  1  0
 42 45  1  0
 42 44  1  0
 43 41  2  0
 46 47  1  0
 46 21  1  0
 48 46  1  0
 50 53  2  0
 51 52  1  0
 52 50  1  0
 52 49  1  0
 54 55  1  0
 54 50  1  0
 56 67  2  0
 57 55  1  0
 57 62  1  0
 58 66  1  0
 58 68  1  0
 59 65  1  0
 59 61  1  0
 60 66  1  0
 61 60  1  0
 62 61  2  0
 63 57  2  0
 64 63  1  0
 64 59  2  0
 65 58  1  0
 66 56  1  0
 68 70  2  0
 69 68  1  0
 71 69  1  0
 72 81  2  0
 72 77  1  0
 73 69  1  0
 73 77  1  0
 74 73  1  0
 75 76  1  0
 75 74  1  0
 76 72  1  0
 77 78  2  0
 78 79  1  0
 80 79  2  0
 81 80  1  0
 82 56  1  0
 82 83  1  0
 82 92  1  0
 83 86  1  0
 84 88  1  0
 84 83  1  0
 85 84  2  0
 88 87  1  0
 90 88  1  0
 90 91  1  0
 90 89  1  0
 92 95  1  1
 92 93  1  0
 94 92  1  0
M  ISO  4  11 100  19 100  54 101  55 101
M  END
>  <TORSDO>  (37) 
F 21

>  <SCORE>  (37) 
-13.702

>  <name>  (37) 
36

>  <ligand_id>  (37) 
36

>  <original_smiles>  (37) 
[H]N=C([H])c1c([H])c([H])c(C([H])([H])N([H])C(=O)N2C([H])([H])C([H])([H])C([H])([H])C([H])(n3nc(-c4c([H])c([H])c(Oc5c([H])c([H])c(F)c([H])c5F)c([H])c4[H])c(C(=O)N([H])[H])c3N([H])[H])C2([H])[H])c([H])c1C([H])([H])N(C(=O)C([H])([H])Oc1c([H])c([H])c2c(c1[H])C([H])([H])N(C(=O)C([H])(N([H])C(=O)C([H])(N([H])C([H])([H])[H])C([H])([H])[H])C(C([H])([H])[H])(C([H])([H])[H])C([H])([H])[H])C([H])(C(=O)N([H])C1([H])c3c([H])c([H])c([H])c([H])c3C([H])([H])C([H])([H])C1([H])[H])C2([H])[H])C([H])([H])[H]

>  <smiles>  (37) 
[H]N=C([H])c1c([H])c([H])c(C([H])([H])N([H])C(=O)N2C([H])([H])C([H])([H])C([H])([H])C([H])(n3nc(-c4c([H])c([H])c(Oc5c([H])c([H])c(F)c([H])c5F)c([H])c4[H])c(C(=O)N([H])[H])c3N([H])[H])C2([H])[H])c([H])c1C([H])([H])N(C(=O)C([H])([H])Oc1c([H])c([H])c2c(c1[H])C([H])([H])N(C(=O)C([H])(N([H])C(=O)C([H])(N([H])C([H])([H])[H])C([H])([H])[H])C(C([H])([H])[H])(C([H])([H])[H])C([H])([H])[H])C([H])(C(=O)N([H])C1([H])c3c([H])c([H])c([H])c([H])c3C([H])([H])C([H])([H])C1([H])[H])C2([H])[H])C([H])([H])[H]

$$$$
37:0:0
     RDKit          3D

 94102  0  0  1  0  0  0  0  0999 V2000
  -30.5730  -18.0240   21.6550 C   0  0  0  0  0  3  0  0  0  0  0  0
  -30.5800  -19.4490   21.5390 C   0  0  0  0  0  0  0  0  0  0  0  0
  -29.9130  -20.1250   20.4710 C   0  0  0  0  0  0  0  0  0  0  0  0
  -29.1940  -19.2860   19.5600 C   0  0  0  0  0  0  0  0  0  0  0  0
  -29.9080  -17.1890   20.7260 C   0  0  0  0  0  0  0  0  0  0  0  0
  -29.1980  -17.8540   19.6870 C   0  0  0  0  0  0  0  0  0  0  0  0
  -31.3490  -20.2380   22.5850 C   0  0  0  0  0  1  0  0  0  0  0  0
  -28.4260  -19.9110   18.4010 C   0  0  0  0  0  1  0  0  0  0  0  0
  -28.3210  -16.8840   18.5490 Cl  0  0  0  0  0  0  0  0  0  0  0  0
  -30.5810  -14.7100   20.5180 C   0  0  0  0  0  0  0  0  0  0  0  0
  -30.3980  -12.4820   19.4230 C   0  0  0  0  0  2  0  0  0  0  0  0
  -29.4790  -12.6210   18.1880 C   0  0  0  0  0  2  0  0  0  0  0  0
  -27.9970  -12.4550   18.5830 C   0  0  0  0  0  2  0  0  0  0  0  0
  -27.6120  -13.3060   19.8220 C   0  0  0  0  0  3  0  0  0  0  0  0
  -28.6450  -13.1380   20.9590 C   0  0  0  0  0  2  0  0  0  0  0  0
  -29.9680  -13.4880   20.4160 N   0  0  0  0  0  0  0  0  0  0  0  0
  -31.7420  -14.8800   20.1360 O   0  0  0  0  0  0  0  0  0  0  0  0
  -29.7910  -15.7450   20.9380 N   0  0  0  0  0  0  0  0  0  0  0  0
  -28.8670  -15.4410   21.2050 H   0  0  0  0  0  0  0  0  0  0  0  0
  -25.1970  -13.9070   20.4640 C   0  0  0  0  0  0  0  0  0  0  0  0
  -24.1230  -13.1360   20.8170 C   0  0  0  0  0  0  0  0  0  0  0  0
  -24.5910  -11.7850   20.8190 C   0  0  0  0  0  0  0  0  0  0  0  0
  -26.2510  -13.0280   20.2720 N   0  0  0  0  0  0  0  0  0  0  0  0
  -25.8900  -11.7480   20.5450 N   0  0  0  0  0  0  0  0  0  0  0  0
  -23.8660  -10.5230   21.0090 C   0  0  0  0  0  0  0  0  0  0  0  0
  -24.2770   -9.5720   21.9690 C   0  0  0  0  0  3  0  0  0  0  0  0
  -23.5520   -8.3740   22.1460 C   0  0  0  0  0  3  0  0  0  0  0  0
  -22.4010   -8.1190   21.3630 C   0  0  0  0  0  0  0  0  0  0  0  0
  -22.0100   -9.0580   20.3930 C   0  0  0  0  0  3  0  0  0  0  0  0
  -22.7350  -10.2480   20.2140 C   0  0  0  0  0  3  0  0  0  0  0  0
  -21.6510   -6.9720   21.4470 O   0  0  0  0  0  0  0  0  0  0  0  0
  -21.5730   -6.2450   22.6090 C   0  0  0  0  0  0  0  0  0  0  0  0
  -21.1110   -6.8160   23.8140 C   0  0  0  0  0  3  0  0  0  0  0  0
  -20.9810   -6.0150   24.9670 C   0  0  0  0  0  3  0  0  0  0  0  0
  -21.3040   -4.6460   24.9150 C   0  0  0  0  0  0  0  0  0  0  0  0
  -21.7610   -4.0760   23.7130 C   0  0  0  0  0  3  0  0  0  0  0  0
  -21.8920   -4.8730   22.5630 C   0  0  0  0  0  0  0  0  0  0  0  0
  -22.3120   -4.3140   21.4030 F   0  0  0  0  0  0  0  0  0  0  0  0
  -21.1740   -3.8750   26.0190 F   0  0  0  0  0  0  0  0  0  0  0  0
  -22.7170  -13.6110   21.0430 C   0  0  0  0  0  0  0  0  0  0  0  0
  -21.9670  -12.9220   21.8970 N   0  0  0  0  0  0  0  0  0  0  0  0
  -22.2900  -14.6270   20.4980 O   0  0  0  0  0  0  0  0  0  0  0  0
  -22.3250  -12.1010   22.3630 H   0  0  0  0  0  0  0  0  0  0  0  0
  -21.0220  -13.2240   22.0900 H   0  0  0  0  0  0  0  0  0  0  0  0
  -25.3610  -15.2750   20.2670 N   0  0  0  0  0  0  0  0  0  0  0  0
  -24.5840  -15.9230   20.3380 H   0  0  0  0  0  0  0  0  0  0  0  0
  -26.2020  -15.7050   19.9020 H   0  0  0  0  0  0  0  0  0  0  0  0
  -30.1370  -21.6740   20.2030 C   0  0  0  0  0  2  0  0  0  0  0  0
  -29.2730  -24.0780   20.3140 C   0  0  0  0  0  0  0  0  0  0  0  0
  -29.1260  -22.7300   20.5560 N   0  0  0  0  0  0  0  0  0  0  0  0
  -30.3030  -24.5080   19.7870 O   0  0  0  0  0  0  0  0  0  0  0  0
  -28.2720  -22.4210   21.0010 H   0  0  0  0  0  0  0  0  0  0  0  0
  -28.1350  -25.1050   20.6920 C   0  0  0  0  0  2  0  0  0  0  0  0
  -28.3740  -26.5310   20.3240 O   0  0  0  0  0  0  0  0  0  0  0  0
  -24.6140  -31.9660   23.2560 C   0  0  0  0  0  0  0  0  0  0  0  0
  -27.2540  -27.3770   20.2780 C   0  0  0  0  0  0  0  0  0  0  0  0
  -23.4210  -30.5390   21.6330 C   0  0  0  0  0  3  0  0  0  0  0  0
  -24.8820  -28.9770   20.2340 C   0  0  0  0  0  0  0  0  0  0  0  0
  -25.9580  -30.8660   21.4540 C   0  0  0  0  0  2  0  0  0  0  0  0
  -26.0470  -29.4790   20.8290 C   0  0  0  0  0  0  0  0  0  0  0  0
  -27.2370  -28.6910   20.8390 C   0  0  0  0  0  3  0  0  0  0  0  0
  -26.0700  -26.9360   19.6440 C   0  0  0  0  0  3  0  0  0  0  0  0
  -24.8950  -27.7110   19.6330 C   0  0  0  0  0  3  0  0  0  0  0  0
  -23.6410  -29.8460   20.2640 C   0  0  0  0  0  2  0  0  0  0  0  0
  -24.6830  -31.1420   22.1710 N   0  0  0  0  0  0  0  0  0  0  0  0
  -23.5280  -32.2460   23.7840 O   0  0  0  0  0  0  0  0  0  0  0  0
  -22.7590  -29.5330   22.6060 C   0  0  0  0  0  0  0  0  0  0  0  0
  -21.4350  -29.3430   22.4710 N   0  0  0  0  0  0  0  0  0  0  0  0
  -23.4360  -28.9260   23.4400 O   0  0  0  0  0  0  0  0  0  0  0  0
  -20.9480  -29.8830   21.7700 H   0  0  0  0  0  0  0  0  0  0  0  0
  -18.0630  -28.1340   22.9670 C   0  0  0  0  0  0  0  0  0  0  0  0
  -20.6170  -28.4140   23.2520 C   0  0  0  0  0  3  0  0  0  0  0  0
  -20.7330  -26.9730   22.7040 C   0  0  0  0  0  2  0  0  0  0  0  0
  -19.6410  -26.6260   21.6860 C   0  0  0  0  0  2  0  0  0  0  0  0
  -18.2520  -26.7740   22.3170 C   0  0  0  0  0  2  0  0  0  0  0  0
  -19.1730  -28.9100   23.3930 C   0  0  0  0  0  0  0  0  0  0  0  0
  -18.9420  -30.1820   23.9600 C   0  0  0  0  0  3  0  0  0  0  0  0
  -17.6330  -30.6780   24.1080 C   0  0  0  0  0  3  0  0  0  0  0  0
  -16.5360  -29.8980   23.7000 C   0  0  0  0  0  3  0  0  0  0  0  0
  -16.7520  -28.6280   23.1360 C   0  0  0  0  0  3  0  0  0  0  0  0
  -25.8930  -32.6110   23.8720 C   0  0  0  0  0  3  0  0  0  0  0  0
  -26.4130  -31.8540   25.1570 C   0  0  1  0  0  0  0  0  0  0  0  0
  -25.3190  -31.6170   26.2230 C   0  0  0  0  0  1  0  0  0  0  0  0
  -27.0080  -30.4780   24.7780 C   0  0  0  0  0  1  0  0  0  0  0  0
  -27.5550  -32.6640   25.8140 C   0  0  0  0  0  1  0  0  0  0  0  0
  -25.5740  -34.0100   24.1900 N   0  0  0  0  0  0  0  0  0  0  0  0
  -25.9070  -35.0600   23.4270 C   0  0  0  0  0  0  0  0  0  0  0  0
  -26.5850  -34.9530   22.4020 O   0  0  0  0  0  0  0  0  0  0  0  0
  -24.9740  -34.1670   24.9860 H   0  0  0  0  0  0  0  0  0  0  0  0
  -24.1810  -36.8480   23.0410 C   0  0  0  0  0  1  0  0  0  0  0  0
  -25.4100  -36.4490   23.8720 C   0  0  0  0  0  3  0  0  0  0  0  0
  -27.5320  -37.3390   24.7290 C   0  0  0  0  0  1  0  0  0  0  0  0
  -26.4420  -37.5040   23.7710 N   0  0  0  0  0  0  0  0  0  0  0  0
  -26.0310  -38.4230   23.9130 H   0  0  0  0  0  0  0  0  0  0  0  0
  2  1  1  0
  2  7  1  0
  3  2  2  0
  4  6  2  0
  4  3  1  0
  5 18  1  0
  5  1  2  0
  6  5  1  0
  8  4  1  0
  9  6  1  0
 10 18  1  0
 11 16  1  0
 12 13  1  0
 12 11  1  0
 14 13  1  0
 14 23  1  0
 14 15  1  0
 16 10  1  0
 16 15  1  0
 17 10  2  0
 18 19  1  0
 20 21  2  0
 21 22  1  0
 21 40  1  0
 22 25  1  0
 23 20  1  0
 23 24  1  0
 24 22  2  0
 25 26  1  0
 26 27  2  0
 28 31  1  0
 28 27  1  0
 29 28  2  0
 30 29  1  0
 30 25  2  0
 31 32  1  0
 32 33  1  0
 33 34  2  0
 35 34  1  0
 35 39  1  0
 36 35  2  0
 37 32  2  0
 37 36  1  0
 38 37  1  0
 40 41  1  0
 41 44  1  0
 41 43  1  0
 42 40  2  0
 45 46  1  0
 45 20  1  0
 47 45  1  0
 48  3  1  0
 48 50  1  0
 49 50  1  0
 49 53  1  0
 50 52  1  0
 51 49  2  0
 54 53  1  0
 55 66  2  0
 56 54  1  0
 56 61  1  0
 57 65  1  0
 57 67  1  0
 58 64  1  0
 58 60  1  0
 59 65  1  0
 60 61  2  0
 60 59  1  0
 62 56  2  0
 63 62  1  0
 63 58  2  0
 64 57  1  0
 65 55  1  0
 67 69  2  0
 68 67  1  0
 70 68  1  0
 71 80  2  0
 71 76  1  0
 72 68  1  0
 72 76  1  0
 73 72  1  0
 74 75  1  0
 74 73  1  0
 75 71  1  0
 76 77  2  0
 77 78  1  0
 79 78  2  0
 80 79  1  0
 81 55  1  0
 81 86  1  0
 81 82  1  0
 82 85  1  1
 82 83  1  0
 84 82  1  0
 86 89  1  0
 87 91  1  0
 87 86  1  0
 88 87  2  0
 91 90  1  0
 93 91  1  0
 93 94  1  0
 93 92  1  0
M  ISO  4  10 100  18 100  53 101  54 101
M  END
>  <TORSDO>  (38) 
F 19

>  <SCORE>  (38) 
-14.505

>  <name>  (38) 
37

>  <ligand_id>  (38) 
37

>  <original_smiles>  (38) 
[H]c1c([H])c([H])c2c(c1[H])C([H])([H])C([H])([H])C([H])([H])C2([H])N([H])C(=O)C1([H])N(C(=O)C([H])(N([H])C(=O)C([H])(N([H])C([H])([H])[H])C([H])([H])[H])C(C([H])([H])[H])(C([H])([H])[H])C([H])([H])[H])C([H])([H])c2c([H])c(OC([H])([H])C(=O)N([H])C([H])([H])c3c(C([H])([H])[H])c([H])c(N([H])C(=O)N4C([H])([H])C([H])([H])C([H])([H])C([H])(n5nc(-c6c([H])c([H])c(Oc7c([H])c([H])c(F)c([H])c7F)c([H])c6[H])c(C(=O)N([H])[H])c5N([H])[H])C4([H])[H])c(Cl)c3C([H])([H])[H])c([H])c([H])c2C1([H])[H]

>  <smiles>  (38) 
[H]c1c([H])c([H])c2c(c1[H])C([H])([H])C([H])([H])C([H])([H])C2([H])N([H])C(=O)C1([H])N(C(=O)C([H])(N([H])C(=O)C([H])(N([H])C([H])([H])[H])C([H])([H])[H])C(C([H])([H])[H])(C([H])([H])[H])C([H])([H])[H])C([H])([H])c2c([H])c(OC([H])([H])C(=O)N([H])C([H])([H])c3c(C([H])([H])[H])c([H])c(N([H])C(=O)N4C([H])([H])C([H])([H])C([H])([H])C([H])(n5nc(-c6c([H])c([H])c(Oc7c([H])c([H])c(F)c([H])c7F)c([H])c6[H])c(C(=O)N([H])[H])c5N([H])[H])C4([H])[H])c(Cl)c3C([H])([H])[H])c([H])c([H])c2C1([H])[H]

$$$$
38:0:0
     RDKit          3D

 97106  0  0  1  0  0  0  0  0999 V2000
  -28.5900  -22.8160   19.6430 C   0  0  0  0  0  0  0  0  0  0  0  0
  -27.3460  -22.4410   19.2880 C   0  0  0  0  0  2  0  0  0  0  0  0
  -31.4310  -23.5980   19.5970 C   0  0  0  0  0  2  0  0  0  0  0  0
  -30.3550  -24.6790   19.4460 C   0  0  0  0  0  2  0  0  0  0  0  0
  -30.9630  -22.2920   18.9380 C   0  0  0  0  0  2  0  0  0  0  0  0
  -29.0350  -24.2430   20.1010 C   0  0  0  0  0  3  0  0  0  0  0  0
  -29.6960  -21.7800   19.5220 N   0  0  1  0  0  4  0  0  0  0  0  0
  -29.3900  -21.1400   18.8050 H   0  0  0  0  0  0  0  0  0  0  0  0
  -29.8370  -20.8610   20.7000 C   0  0  0  0  0  2  0  0  0  0  0  0
  -32.0710  -19.6860   20.5880 C   0  0  0  0  0  3  0  0  0  0  0  0
  -32.3580  -17.2810   20.3880 C   0  0  0  0  0  3  0  0  0  0  0  0
  -30.6680  -19.5600   20.5080 C   0  0  0  0  0  0  0  0  0  0  0  0
  -30.1060  -18.2430   20.3650 C   0  0  0  0  0  0  0  0  0  0  0  0
  -30.9590  -17.0900   20.3040 C   0  0  0  0  0  0  0  0  0  0  0  0
  -32.9100  -18.5630   20.5210 C   0  0  0  0  0  0  0  0  0  0  0  0
  -28.5960  -18.0550   20.2990 C   0  0  0  0  0  1  0  0  0  0  0  0
  -34.6220  -18.7610   20.6260 Cl  0  0  0  0  0  0  0  0  0  0  0  0
  -31.0820  -14.6350   19.7950 C   0  0  0  0  0  0  0  0  0  0  0  0
  -30.7410  -12.3380   18.9450 C   0  0  0  0  0  2  0  0  0  0  0  0
  -29.7410  -12.3580   17.7720 C   0  0  0  0  0  2  0  0  0  0  0  0
  -28.2960  -12.2490   18.2950 C   0  0  0  0  0  2  0  0  0  0  0  0
  -27.9990  -13.2430   19.4490 C   0  0  0  0  0  3  0  0  0  0  0  0
  -29.1140  -13.2150   20.5190 C   0  0  0  0  0  2  0  0  0  0  0  0
  -30.3970  -13.4570   19.8420 N   0  0  0  0  0  0  0  0  0  0  0  0
  -32.1830  -14.7220   19.2430 O   0  0  0  0  0  0  0  0  0  0  0  0
  -30.4340  -15.7440   20.2310 N   0  0  0  0  0  0  0  0  0  0  0  0
  -29.4730  -15.6130   20.5060 H   0  0  0  0  0  0  0  0  0  0  0  0
  -25.7000  -13.9230   20.3790 C   0  0  0  0  0  0  0  0  0  0  0  0
  -24.6300  -13.1860   20.8070 C   0  0  0  0  0  0  0  0  0  0  0  0
  -25.0210  -11.8170   20.6880 C   0  0  0  0  0  0  0  0  0  0  0  0
  -26.6800  -13.0080   20.0300 N   0  0  0  0  0  0  0  0  0  0  0  0
  -26.2790  -11.7320   20.2730 N   0  0  0  0  0  0  0  0  0  0  0  0
  -24.2520  -10.5820   20.8890 C   0  0  0  0  0  0  0  0  0  0  0  0
  -24.6560   -9.6030   21.8230 C   0  0  0  0  0  3  0  0  0  0  0  0
  -23.8890   -8.4340   22.0130 C   0  0  0  0  0  3  0  0  0  0  0  0
  -22.7020   -8.2340   21.2670 C   0  0  0  0  0  0  0  0  0  0  0  0
  -22.3160   -9.2020   20.3230 C   0  0  0  0  0  3  0  0  0  0  0  0
  -23.0830  -10.3630   20.1320 C   0  0  0  0  0  3  0  0  0  0  0  0
  -21.9080   -7.1180   21.3670 O   0  0  0  0  0  0  0  0  0  0  0  0
  -21.7690   -6.4360   22.5490 C   0  0  0  0  0  0  0  0  0  0  0  0
  -21.2740   -7.0590   23.7150 C   0  0  0  0  0  3  0  0  0  0  0  0
  -21.0830   -6.3040   24.8890 C   0  0  0  0  0  3  0  0  0  0  0  0
  -21.3740   -4.9270   24.8970 C   0  0  0  0  0  0  0  0  0  0  0  0
  -21.8620   -4.3030   23.7350 C   0  0  0  0  0  3  0  0  0  0  0  0
  -22.0560   -5.0560   22.5640 C   0  0  0  0  0  0  0  0  0  0  0  0
  -22.5060   -4.4450   21.4410 F   0  0  0  0  0  0  0  0  0  0  0  0
  -21.1830   -4.1990   26.0230 F   0  0  0  0  0  0  0  0  0  0  0  0
  -23.2840  -13.7150   21.2100 C   0  0  0  0  0  0  0  0  0  0  0  0
  -22.6000  -13.0240   22.1160 N   0  0  0  0  0  0  0  0  0  0  0  0
  -22.8510  -14.7740   20.7580 O   0  0  0  0  0  0  0  0  0  0  0  0
  -22.9640  -12.1650   22.5020 H   0  0  0  0  0  0  0  0  0  0  0  0
  -21.7000  -13.3600   22.4290 H   0  0  0  0  0  0  0  0  0  0  0  0
  -25.9160  -15.2910   20.2370 N   0  0  0  0  0  0  0  0  0  0  0  0
  -25.1870  -15.9710   20.4240 H   0  0  0  0  0  0  0  0  0  0  0  0
  -26.7430  -15.7000   19.8240 H   0  0  0  0  0  0  0  0  0  0  0  0
  -27.9090  -25.3130   19.8960 C   0  0  0  0  0  2  0  0  0  0  0  0
  -28.1450  -26.7160   20.2120 O   0  0  0  0  0  0  0  0  0  0  0  0
  -24.5640  -32.0410   23.4000 C   0  0  0  0  0  0  0  0  0  0  0  0
  -27.0230  -27.5460   20.1900 C   0  0  0  0  0  0  0  0  0  0  0  0
  -23.2890  -30.6850   21.7770 C   0  0  0  0  0  3  0  0  0  0  0  0
  -24.6720  -29.1510   20.2830 C   0  0  0  0  0  0  0  0  0  0  0  0
  -25.8230  -30.9850   21.5180 C   0  0  0  0  0  2  0  0  0  0  0  0
  -25.8620  -29.6210   20.8520 C   0  0  0  0  0  0  0  0  0  0  0  0
  -27.0390  -28.8270   20.8050 C   0  0  0  0  0  3  0  0  0  0  0  0
  -25.8100  -27.1280   19.5840 C   0  0  0  0  0  3  0  0  0  0  0  0
  -24.6440  -27.9060   19.6440 C   0  0  0  0  0  3  0  0  0  0  0  0
  -23.4480  -30.0330   20.3800 C   0  0  0  0  0  2  0  0  0  0  0  0
  -24.5790  -31.2510   22.2880 N   0  0  0  0  0  0  0  0  0  0  0  0
  -23.5020  -32.3260   23.9710 O   0  0  0  0  0  0  0  0  0  0  0  0
  -22.6460  -29.6590   22.7380 C   0  0  0  0  0  0  0  0  0  0  0  0
  -21.3320  -29.4280   22.5790 N   0  0  0  0  0  0  0  0  0  0  0  0
  -23.3260  -29.0740   23.5850 O   0  0  0  0  0  0  0  0  0  0  0  0
  -20.8410  -29.9530   21.8680 H   0  0  0  0  0  0  0  0  0  0  0  0
  -18.0130  -28.0400   22.9350 C   0  0  0  0  0  0  0  0  0  0  0  0
  -20.5260  -28.4790   23.3490 C   0  0  0  0  0  3  0  0  0  0  0  0
  -20.7550  -27.0300   22.8600 C   0  0  0  0  0  2  0  0  0  0  0  0
  -19.7430  -26.5840   21.8000 C   0  0  0  0  0  2  0  0  0  0  0  0
  -18.3160  -26.6720   22.3490 C   0  0  0  0  0  2  0  0  0  0  0  0
  -19.0510  -28.8950   23.3900 C   0  0  0  0  0  0  0  0  0  0  0  0
  -18.7170  -30.1700   23.8950 C   0  0  0  0  0  3  0  0  0  0  0  0
  -17.3750  -30.5930   23.9510 C   0  0  0  0  0  3  0  0  0  0  0  0
  -16.3500  -29.7370   23.5130 C   0  0  0  0  0  3  0  0  0  0  0  0
  -16.6690  -28.4620   23.0120 C   0  0  0  0  0  3  0  0  0  0  0  0
  -25.8760  -32.6430   23.9890 C   0  0  0  0  0  3  0  0  0  0  0  0
  -26.4100  -31.8560   25.2480 C   0  0  1  0  0  0  0  0  0  0  0  0
  -25.3350  -31.6150   26.3330 C   0  0  0  0  0  1  0  0  0  0  0  0
  -26.9760  -30.4790   24.8330 C   0  0  0  0  0  1  0  0  0  0  0  0
  -27.5780  -32.6350   25.8960 C   0  0  0  0  0  1  0  0  0  0  0  0
  -25.6040  -34.0460   24.3300 N   0  0  0  0  0  0  0  0  0  0  0  0
  -25.9300  -35.0930   23.5610 C   0  0  0  0  0  0  0  0  0  0  0  0
  -26.5640  -34.9780   22.5080 O   0  0  0  0  0  0  0  0  0  0  0  0
  -25.0390  -34.2110   25.1500 H   0  0  0  0  0  0  0  0  0  0  0  0
  -24.2180  -36.9120   23.2710 C   0  0  0  0  0  1  0  0  0  0  0  0
  -25.4830  -36.4900   24.0350 C   0  0  0  0  0  3  0  0  0  0  0  0
  -27.6590  -37.3420   24.7840 C   0  0  0  0  0  1  0  0  0  0  0  0
  -26.5260  -37.5260   23.8800 N   0  0  0  0  0  0  0  0  0  0  0  0
  -26.1400  -38.4520   24.0410 H   0  0  0  0  0  0  0  0  0  0  0  0
  1  6  1  0
  2  1  2  0
  4  3  1  0
  4  6  1  0
  5  7  1  0
  5  3  1  0
  6 56  1  0
  7  1  1  0
  7  9  1  0
  7  8  1  6
 11 15  2  0
 12 10  2  0
 12  9  1  0
 13 12  1  0
 14 13  2  0
 14 11  1  0
 15 10  1  0
 15 17  1  0
 16 13  1  0
 18 24  1  0
 18 26  1  0
 19 24  1  0
 20 21  1  0
 20 19  1  0
 22 21  1  0
 22 31  1  0
 22 23  1  0
 24 23  1  0
 25 18  2  0
 26 14  1  0
 26 27  1  0
 28 29  2  0
 29 48  1  0
 30 29  1  0
 30 33  1  0
 31 32  1  0
 31 28  1  0
 32 30  2  0
 33 34  1  0
 34 35  2  0
 36 39  1  0
 36 35  1  0
 37 36  2  0
 38 37  1  0
 38 33  2  0
 39 40  1  0
 40 45  2  0
 40 41  1  0
 41 42  2  0
 42 43  1  0
 43 47  1  0
 44 43  2  0
 45 44  1  0
 46 45  1  0
 48 49  1  0
 49 52  1  0
 49 51  1  0
 50 48  2  0
 53 28  1  0
 53 54  1  0
 55 53  1  0
 56 57  1  0
 58 69  2  0
 59 57  1  0
 59 64  1  0
 60 68  1  0
 60 70  1  0
 61 67  1  0
 61 63  1  0
 62 68  1  0
 63 62  1  0
 64 63  2  0
 65 66  1  0
 65 59  2  0
 66 61  2  0
 67 60  1  0
 68 58  1  0
 70 72  2  0
 71 70  1  0
 73 71  1  0
 74 83  2  0
 74 79  1  0
 75 71  1  0
 75 79  1  0
 76 75  1  0
 77 78  1  0
 77 76  1  0
 78 74  1  0
 79 80  2  0
 80 81  1  0
 82 81  2  0
 83 82  1  0
 84 58  1  0
 84 89  1  0
 84 85  1  0
 85 88  1  1
 85 86  1  0
 87 85  1  0
 89 92  1  0
 90 94  1  0
 90 89  1  0
 91 90  2  0
 94 93  1  0
 96 94  1  0
 96 97  1  0
 96 95  1  0
M  ISO  4  18 100  26 100  56 101  57 101
M  END
>  <TORSDO>  (39) 
F 19

>  <SCORE>  (39) 
-14.055

>  <name>  (39) 
38

>  <ligand_id>  (39) 
38

>  <original_smiles>  (39) 
[H]C([H])=C1C([H])(C([H])([H])Oc2c([H])c([H])c3c(c2[H])C([H])([H])N(C(=O)C([H])(N([H])C(=O)C([H])(N([H])C([H])([H])[H])C([H])([H])[H])C(C([H])([H])[H])(C([H])([H])[H])C([H])([H])[H])C([H])(C(=O)N([H])C2([H])c4c([H])c([H])c([H])c([H])c4C([H])([H])C([H])([H])C2([H])[H])C3([H])[H])C([H])([H])C([H])([H])C([H])([H])[N+]1([H])C([H])([H])c1c([H])c(Cl)c([H])c(N([H])C(=O)N2C([H])([H])C([H])([H])C([H])([H])C([H])(n3nc(-c4c([H])c([H])c(Oc5c([H])c([H])c(F)c([H])c5F)c([H])c4[H])c(C(=O)N([H])[H])c3N([H])[H])C2([H])[H])c1C([H])([H])[H]

>  <smiles>  (39) 
[H]C([H])=C1C([H])(C([H])([H])Oc2c([H])c([H])c3c(c2[H])C([H])([H])N(C(=O)C([H])(N([H])C(=O)C([H])(N([H])C([H])([H])[H])C([H])([H])[H])C(C([H])([H])[H])(C([H])([H])[H])C([H])([H])[H])C([H])(C(=O)N([H])C2([H])c4c([H])c([H])c([H])c([H])c4C([H])([H])C([H])([H])C2([H])[H])C3([H])[H])C([H])([H])C([H])([H])C([H])([H])[N+]1([H])C([H])([H])c1c([H])c(Cl)c([H])c(N([H])C(=O)N2C([H])([H])C([H])([H])C([H])([H])C([H])(n3nc(-c4c([H])c([H])c(Oc5c([H])c([H])c(F)c([H])c5F)c([H])c4[H])c(C(=O)N([H])[H])c3N([H])[H])C2([H])[H])c1C([H])([H])[H]

$$$$
39:0:0
     RDKit          3D

 94103  0  0  1  0  0  0  0  0999 V2000
  -28.2720  -23.7040   19.9270 C   0  0  0  0  0  0  0  0  0  0  0  0
  -29.7010  -23.7390   22.4530 C   0  0  0  0  0  2  0  0  0  0  0  0
  -29.5900  -25.0480   21.6680 C   0  0  0  0  0  2  0  0  0  0  0  0
  -29.7610  -22.5080   21.5340 C   0  0  0  0  0  2  0  0  0  0  0  0
  -28.3380  -25.0700   20.7810 C   0  0  0  0  0  3  0  0  0  0  0  0
  -28.7680  -22.5000   20.4510 N   0  0  0  0  0  0  0  0  0  0  0  0
  -27.6810  -23.7260   18.8430 O   0  0  0  0  0  0  0  0  0  0  0  0
  -28.3420  -26.4080   20.0940 O   0  0  0  0  0  0  0  0  0  0  0  0
  -24.6180  -31.8650   23.2200 C   0  0  0  0  0  0  0  0  0  0  0  0
  -27.2260  -27.2660   20.1730 C   0  0  0  0  0  0  0  0  0  0  0  0
  -23.4180  -30.4630   21.5840 C   0  0  0  0  0  3  0  0  0  0  0  0
  -24.8660  -28.8970   20.1670 C   0  0  0  0  0  0  0  0  0  0  0  0
  -25.9570  -30.7770   21.3890 C   0  0  0  0  0  2  0  0  0  0  0  0
  -26.0410  -29.3850   20.7600 C   0  0  0  0  0  0  0  0  0  0  0  0
  -27.2250  -28.5830   20.7470 C   0  0  0  0  0  3  0  0  0  0  0  0
  -26.0320  -26.8360   19.5650 C   0  0  0  0  0  3  0  0  0  0  0  0
  -24.8670  -27.6300   19.5590 C   0  0  0  0  0  3  0  0  0  0  0  0
  -23.6330  -29.7810   20.2070 C   0  0  0  0  0  2  0  0  0  0  0  0
  -24.6860  -31.0520   22.1230 N   0  0  0  0  0  0  0  0  0  0  0  0
  -23.5330  -32.1410   23.7520 O   0  0  0  0  0  0  0  0  0  0  0  0
  -22.7500  -29.4490   22.5470 C   0  0  0  0  0  0  0  0  0  0  0  0
  -21.4250  -29.2740   22.4150 N   0  0  0  0  0  0  0  0  0  0  0  0
  -23.4250  -28.8250   23.3690 O   0  0  0  0  0  0  0  0  0  0  0  0
  -20.9390  -29.8260   21.7230 H   0  0  0  0  0  0  0  0  0  0  0  0
  -18.0440  -28.0770   22.9040 C   0  0  0  0  0  0  0  0  0  0  0  0
  -20.6030  -28.3370   23.1830 C   0  0  0  0  0  3  0  0  0  0  0  0
  -20.7070  -26.9060   22.6070 C   0  0  0  0  0  2  0  0  0  0  0  0
  -19.6090  -26.5850   21.5900 C   0  0  0  0  0  2  0  0  0  0  0  0
  -18.2250  -26.7270   22.2290 C   0  0  0  0  0  2  0  0  0  0  0  0
  -19.1620  -28.8400   23.3370 C   0  0  0  0  0  0  0  0  0  0  0  0
  -18.9390  -30.1040   23.9250 C   0  0  0  0  0  3  0  0  0  0  0  0
  -17.6340  -30.6000   24.0950 C   0  0  0  0  0  3  0  0  0  0  0  0
  -16.5310  -29.8350   23.6770 C   0  0  0  0  0  3  0  0  0  0  0  0
  -16.7380  -28.5770   23.0830 C   0  0  0  0  0  3  0  0  0  0  0  0
  -25.8940  -32.4990   23.8480 C   0  0  0  0  0  3  0  0  0  0  0  0
  -25.5800  -33.8970   24.1840 N   0  0  0  0  0  0  0  0  0  0  0  0
  -25.9140  -34.9550   23.4310 C   0  0  0  0  0  0  0  0  0  0  0  0
  -26.5860  -34.8530   22.4010 O   0  0  0  0  0  0  0  0  0  0  0  0
  -24.9790  -34.0460   24.9820 H   0  0  0  0  0  0  0  0  0  0  0  0
  -24.1840  -36.7500   23.0810 C   0  0  0  0  0  1  0  0  0  0  0  0
  -25.4270  -36.3430   23.8900 C   0  0  0  0  0  3  0  0  0  0  0  0
  -27.5660  -37.2280   24.7110 C   0  0  0  0  0  1  0  0  0  0  0  0
  -26.4600  -37.3960   23.7730 N   0  0  0  0  0  0  0  0  0  0  0  0
  -26.0570  -38.3190   23.9150 H   0  0  0  0  0  0  0  0  0  0  0  0
  -26.4030  -31.7220   25.1240 C   0  0  1  0  0  0  0  0  0  0  0  0
  -25.3070  -31.4830   26.1910 C   0  0  0  0  0  1  0  0  0  0  0  0
  -26.9840  -30.3450   24.7260 C   0  0  0  0  0  1  0  0  0  0  0  0
  -27.5570  -32.5090   25.7890 C   0  0  0  0  0  1  0  0  0  0  0  0
  -28.3310  -21.0700   20.1050 C   0  0  0  0  0  2  0  0  0  0  0  0
  -31.1110  -18.9160   18.4090 C   0  0  0  0  0  3  0  0  0  0  0  0
  -30.9340  -17.6230   18.9460 C   0  0  0  0  0  3  0  0  0  0  0  0
  -29.2000  -18.5130   20.3770 C   0  0  0  0  0  3  0  0  0  0  0  0
  -30.3280  -20.0190   18.8170 C   0  0  0  0  0  0  0  0  0  0  0  0
  -29.3350  -19.8560   19.8130 C   0  0  0  0  0  0  0  0  0  0  0  0
  -29.9840  -17.3520   19.9610 C   0  0  0  0  0  0  0  0  0  0  0  0
  -30.5390  -21.3560   18.1200 C   0  0  0  0  0  1  0  0  0  0  0  0
  -30.5590  -14.7890   20.2850 C   0  0  0  0  0  0  0  0  0  0  0  0
  -30.3620  -12.4740   19.3750 C   0  0  0  0  0  2  0  0  0  0  0  0
  -29.4390  -12.5360   18.1380 C   0  0  0  0  0  2  0  0  0  0  0  0
  -27.9700  -12.3640   18.5700 C   0  0  0  0  0  2  0  0  0  0  0  0
  -27.5840  -13.2670   19.7740 C   0  0  0  0  0  3  0  0  0  0  0  0
  -28.6400  -13.2210   20.8970 C   0  0  0  0  0  2  0  0  0  0  0  0
  -29.9370  -13.5570   20.2940 N   0  0  0  0  0  0  0  0  0  0  0  0
  -31.7550  -14.8420   19.9800 O   0  0  0  0  0  0  0  0  0  0  0  0
  -29.7910  -15.9460   20.4460 N   0  0  0  0  0  0  0  0  0  0  0  0
  -28.8840  -15.7690   20.8500 H   0  0  0  0  0  0  0  0  0  0  0  0
  -25.1930  -13.8510   20.5050 C   0  0  0  0  0  0  0  0  0  0  0  0
  -24.1300  -13.0750   20.8790 C   0  0  0  0  0  0  0  0  0  0  0  0
  -24.5930  -11.7250   20.8490 C   0  0  0  0  0  0  0  0  0  0  0  0
  -26.2400  -12.9730   20.2690 N   0  0  0  0  0  0  0  0  0  0  0  0
  -25.8860  -11.6900   20.5390 N   0  0  0  0  0  0  0  0  0  0  0  0
  -23.8670  -10.4620   21.0420 C   0  0  0  0  0  0  0  0  0  0  0  0
  -24.3000   -9.4940   21.9720 C   0  0  0  0  0  3  0  0  0  0  0  0
  -23.5750   -8.2970   22.1530 C   0  0  0  0  0  3  0  0  0  0  0  0
  -22.4020   -8.0580   21.4000 C   0  0  0  0  0  0  0  0  0  0  0  0
  -21.9860   -9.0150   20.4580 C   0  0  0  0  0  3  0  0  0  0  0  0
  -22.7110  -10.2030   20.2760 C   0  0  0  0  0  3  0  0  0  0  0  0
  -21.6460   -6.9140   21.4890 O   0  0  0  0  0  0  0  0  0  0  0  0
  -21.6000   -6.1700   22.6410 C   0  0  0  0  0  0  0  0  0  0  0  0
  -21.1820   -6.7260   23.8710 C   0  0  0  0  0  3  0  0  0  0  0  0
  -21.0810   -5.9070   25.0130 C   0  0  0  0  0  3  0  0  0  0  0  0
  -21.3920   -4.5360   24.9270 C   0  0  0  0  0  0  0  0  0  0  0  0
  -21.8020   -3.9810   23.7030 C   0  0  0  0  0  3  0  0  0  0  0  0
  -21.9040   -4.7960   22.5630 C   0  0  0  0  0  0  0  0  0  0  0  0
  -22.2810   -4.2520   21.3810 F   0  0  0  0  0  0  0  0  0  0  0  0
  -21.2860   -3.7490   26.0230 F   0  0  0  0  0  0  0  0  0  0  0  0
  -22.7330  -13.5520   21.1490 C   0  0  0  0  0  0  0  0  0  0  0  0
  -22.0010  -12.8620   22.0140 N   0  0  0  0  0  0  0  0  0  0  0  0
  -22.2960  -14.5770   20.6200 O   0  0  0  0  0  0  0  0  0  0  0  0
  -22.3700  -12.0440   22.4780 H   0  0  0  0  0  0  0  0  0  0  0  0
  -21.0570  -13.1630   22.2220 H   0  0  0  0  0  0  0  0  0  0  0  0
  -25.3550  -15.2210   20.3230 N   0  0  0  0  0  0  0  0  0  0  0  0
  -24.5730  -15.8640   20.3850 H   0  0  0  0  0  0  0  0  0  0  0  0
  -26.1990  -15.6540   19.9700 H   0  0  0  0  0  0  0  0  0  0  0  0
  1  6  1  0
  1  5  1  0
  3  2  1  0
  4  2  1  0
  5  8  1  0
  5  3  1  0
  6  4  1  0
  7  1  2  0
  8 10  1  0
  9 20  2  0
 10 15  1  0
 11 19  1  0
 11 21  1  0
 12 18  1  0
 12 14  1  0
 13 19  1  0
 14 13  1  0
 15 14  2  0
 16 10  2  0
 17 16  1  0
 17 12  2  0
 18 11  1  0
 19  9  1  0
 21 23  2  0
 22 21  1  0
 24 22  1  0
 25 34  2  0
 25 30  1  0
 26 22  1  0
 26 30  1  0
 27 26  1  0
 28 29  1  0
 28 27  1  0
 29 25  1  0
 30 31  2  0
 31 32  1  0
 33 32  2  0
 34 33  1  0
 35  9  1  0
 35 36  1  0
 35 45  1  0
 36 39  1  0
 37 41  1  0
 37 36  1  0
 38 37  2  0
 41 40  1  0
 43 41  1  0
 43 44  1  0
 43 42  1  0
 45 48  1  1
 45 46  1  0
 47 45  1  0
 49  6  1  0
 50 53  2  0
 50 51  1  0
 51 55  2  0
 53 54  1  0
 54 49  1  0
 54 52  2  0
 55 52  1  0
 55 65  1  0
 56 53  1  0
 57 63  1  0
 57 65  1  0
 58 63  1  0
 59 60  1  0
 59 58  1  0
 61 60  1  0
 61 70  1  0
 61 62  1  0
 63 62  1  0
 64 57  2  0
 65 66  1  0
 67 68  2  0
 68 87  1  0
 69 68  1  0
 69 72  1  0
 70 67  1  0
 70 71  1  0
 71 69  2  0
 72 73  1  0
 73 74  2  0
 75 78  1  0
 75 74  1  0
 76 75  2  0
 77 76  1  0
 77 72  2  0
 78 79  1  0
 79 80  1  0
 80 81  2  0
 82 81  1  0
 82 86  1  0
 83 82  2  0
 84 79  2  0
 84 83  1  0
 85 84  1  0
 87 88  1  0
 88 91  1  0
 88 90  1  0
 89 87  2  0
 92 93  1  0
 92 67  1  0
 94 92  1  0
M  ISO  4   5 101   8 101  57 100  65 100
M  END
>  <TORSDO>  (40) 
F 18

>  <SCORE>  (40) 
-14.953

>  <name>  (40) 
39

>  <ligand_id>  (40) 
39

>  <original_smiles>  (40) 
[H]c1c([H])c([H])c2c(c1[H])C([H])([H])C([H])([H])C([H])([H])C2([H])N([H])C(=O)C1([H])N(C(=O)C([H])(N([H])C(=O)C([H])(N([H])C([H])([H])[H])C([H])([H])[H])C(C([H])([H])[H])(C([H])([H])[H])C([H])([H])[H])C([H])([H])c2c([H])c(OC3([H])C(=O)N(C([H])([H])c4c([H])c(N([H])C(=O)N5C([H])([H])C([H])([H])C([H])([H])C([H])(n6nc(-c7c([H])c([H])c(Oc8c([H])c([H])c(F)c([H])c8F)c([H])c7[H])c(C(=O)N([H])[H])c6N([H])[H])C5([H])[H])c([H])c([H])c4C([H])([H])[H])C([H])([H])C([H])([H])C3([H])[H])c([H])c([H])c2C1([H])[H]

>  <smiles>  (40) 
[H]c1c([H])c([H])c2c(c1[H])C([H])([H])C([H])([H])C([H])([H])C2([H])N([H])C(=O)C1([H])N(C(=O)C([H])(N([H])C(=O)C([H])(N([H])C([H])([H])[H])C([H])([H])[H])C(C([H])([H])[H])(C([H])([H])[H])C([H])([H])[H])C([H])([H])c2c([H])c(OC3([H])C(=O)N(C([H])([H])c4c([H])c(N([H])C(=O)N5C([H])([H])C([H])([H])C([H])([H])C([H])(n6nc(-c7c([H])c([H])c(Oc8c([H])c([H])c(F)c([H])c8F)c([H])c7[H])c(C(=O)N([H])[H])c6N([H])[H])C5([H])[H])c([H])c([H])c4C([H])([H])[H])C([H])([H])C([H])([H])C3([H])[H])c([H])c([H])c2C1([H])[H]

$$$$
40:0:0
     RDKit          3D

100108  0  0  1  0  0  0  0  0999 V2000
  -28.3900  -20.9020   19.6330 C   0  0  0  0  0  2  0  0  0  0  0  0
  -27.6290  -19.6920   20.0380 N   0  0  0  0  0  4  0  0  0  0  0  0
  -27.3600  -19.7170   21.0090 H   0  0  0  0  0  0  0  0  0  0  0  0
  -26.7790  -19.6860   19.4950 H   0  0  0  0  0  0  0  0  0  0  0  0
  -28.3080  -18.3990   19.7710 C   0  0  0  0  0  2  0  0  0  0  0  0
  -32.0970  -18.0990   21.9240 C   0  0  0  0  0  3  0  0  0  0  0  0
  -30.3630  -19.4320   20.8780 C   0  0  0  0  0  3  0  0  0  0  0  0
  -31.4570  -16.9200   21.4910 C   0  0  0  0  0  0  0  0  0  0  0  0
  -29.6820  -18.2670   20.4500 C   0  0  0  0  0  0  0  0  0  0  0  0
  -30.2880  -16.9970   20.6860 C   0  0  0  0  0  0  0  0  0  0  0  0
  -31.5630  -19.3540   21.6020 C   0  0  0  0  0  0  0  0  0  0  0  0
  -32.0180  -15.5850   21.9460 C   0  0  0  0  0  1  0  0  0  0  0  0
  -32.3420  -20.8000   22.1270 Cl  0  0  0  0  0  0  0  0  0  0  0  0
  -30.3010  -14.8830   19.4030 C   0  0  0  0  0  0  0  0  0  0  0  0
  -30.0400  -12.6220   18.4190 C   0  0  0  0  0  2  0  0  0  0  0  0
  -28.9260  -12.6460   17.3520 C   0  0  0  0  0  2  0  0  0  0  0  0
  -27.5410  -12.4360   18.0020 C   0  0  0  0  0  2  0  0  0  0  0  0
  -27.3120  -13.3590   19.2290 C   0  0  0  0  0  3  0  0  0  0  0  0
  -28.5230  -13.2840   20.1850 C   0  0  0  0  0  2  0  0  0  0  0  0
  -29.7200  -13.6520   19.4160 N   0  0  0  0  0  0  0  0  0  0  0  0
  -31.2540  -15.1690   18.6720 O   0  0  0  0  0  0  0  0  0  0  0  0
  -29.6970  -15.7960   20.1960 N   0  0  0  0  0  0  0  0  0  0  0  0
  -28.8490  -15.4900   20.6530 H   0  0  0  0  0  0  0  0  0  0  0  0
  -25.0700  -13.8860   20.3850 C   0  0  0  0  0  0  0  0  0  0  0  0
  -24.0990  -13.0740   20.9120 C   0  0  0  0  0  0  0  0  0  0  0  0
  -24.5660  -11.7360   20.7330 C   0  0  0  0  0  0  0  0  0  0  0  0
  -26.0670  -13.0380   19.9260 N   0  0  0  0  0  0  0  0  0  0  0  0
  -25.7770  -11.7390   20.1900 N   0  0  0  0  0  0  0  0  0  0  0  0
  -23.9080  -10.4510   20.9960 C   0  0  0  0  0  0  0  0  0  0  0  0
  -24.3980   -9.5590   21.9760 C   0  0  0  0  0  3  0  0  0  0  0  0
  -23.7390   -8.3350   22.2200 C   0  0  0  0  0  3  0  0  0  0  0  0
  -22.5770   -7.9940   21.4890 C   0  0  0  0  0  0  0  0  0  0  0  0
  -22.1090   -8.8760   20.4990 C   0  0  0  0  0  3  0  0  0  0  0  0
  -22.7670  -10.0910   20.2510 C   0  0  0  0  0  3  0  0  0  0  0  0
  -21.8860   -6.8160   21.6400 O   0  0  0  0  0  0  0  0  0  0  0  0
  -21.7650   -6.2050   22.8650 C   0  0  0  0  0  0  0  0  0  0  0  0
  -21.1490   -6.8490   23.9590 C   0  0  0  0  0  3  0  0  0  0  0  0
  -20.9830   -6.1590   25.1770 C   0  0  0  0  0  3  0  0  0  0  0  0
  -21.4230   -4.8280   25.2990 C   0  0  0  0  0  0  0  0  0  0  0  0
  -22.0360   -4.1860   24.2100 C   0  0  0  0  0  3  0  0  0  0  0  0
  -22.2060   -4.8740   22.9940 C   0  0  0  0  0  0  0  0  0  0  0  0
  -22.7770   -4.2430   21.9390 F   0  0  0  0  0  0  0  0  0  0  0  0
  -21.2570   -4.1640   26.4680 F   0  0  0  0  0  0  0  0  0  0  0  0
  -22.7670  -13.5070   21.4510 C   0  0  0  0  0  0  0  0  0  0  0  0
  -22.2290  -12.7800   22.4220 N   0  0  0  0  0  0  0  0  0  0  0  0
  -22.2170  -14.5320   21.0430 O   0  0  0  0  0  0  0  0  0  0  0  0
  -22.6920  -11.9570   22.7790 H   0  0  0  0  0  0  0  0  0  0  0  0
  -21.3410  -13.0530   22.8180 H   0  0  0  0  0  0  0  0  0  0  0  0
  -25.1760  -15.2650   20.2460 N   0  0  0  0  0  0  0  0  0  0  0  0
  -24.4090  -15.8760   20.4940 H   0  0  0  0  0  0  0  0  0  0  0  0
  -25.8870  -15.7240   19.6940 H   0  0  0  0  0  0  0  0  0  0  0  0
  -28.6350  -22.2150   21.8100 C   0  0  0  0  0  1  0  0  0  0  0  0
  -26.4830  -22.3740   20.5140 C   0  0  0  0  0  1  0  0  0  0  0  0
  -28.0220  -22.2210   20.3920 C   0  0  2  0  0  0  0  0  0  0  0  0
  -28.6630  -23.3940   19.5810 C   0  0  0  0  0  2  0  0  0  0  0  0
  -28.4620  -24.7350   20.1760 N   0  0  0  0  0  4  0  0  0  0  0  0
  -28.9310  -24.7360   21.0670 H   0  0  0  0  0  0  0  0  0  0  0  0
  -27.4770  -24.8710   20.3420 H   0  0  0  0  0  0  0  0  0  0  0  0
  -29.0410  -25.9220   19.2810 C   0  0  0  0  0  2  0  0  0  0  0  0
  -28.8850  -27.1150   20.0120 O   0  0  0  0  0  0  0  0  0  0  0  0
  -24.9180  -31.9200   23.4370 C   0  0  0  0  0  0  0  0  0  0  0  0
  -27.6640  -27.7650   20.0420 C   0  0  0  0  0  0  0  0  0  0  0  0
  -23.7450  -30.6300   21.6770 C   0  0  0  0  0  3  0  0  0  0  0  0
  -25.2350  -29.2190   20.1580 C   0  0  0  0  0  0  0  0  0  0  0  0
  -26.2640  -31.0380   21.5330 C   0  0  0  0  0  2  0  0  0  0  0  0
  -26.3730  -29.7130   20.8020 C   0  0  0  0  0  0  0  0  0  0  0  0
  -27.5850  -28.9920   20.7440 C   0  0  0  0  0  3  0  0  0  0  0  0
  -26.4990  -27.2780   19.4030 C   0  0  0  0  0  3  0  0  0  0  0  0
  -25.2930  -28.0020   19.4570 C   0  0  0  0  0  3  0  0  0  0  0  0
  -23.9780  -30.0510   20.2540 C   0  0  0  0  0  2  0  0  0  0  0  0
  -24.9930  -31.2070   22.2780 N   0  0  0  0  0  0  0  0  0  0  0  0
  -23.8260  -32.1410   23.9830 O   0  0  0  0  0  0  0  0  0  0  0  0
  -23.0970  -29.5350   22.5510 C   0  0  0  0  0  0  0  0  0  0  0  0
  -21.7820  -29.3280   22.3730 N   0  0  0  0  0  0  0  0  0  0  0  0
  -23.7780  -28.8710   23.3370 O   0  0  0  0  0  0  0  0  0  0  0  0
  -21.2990  -29.9170   21.7080 H   0  0  0  0  0  0  0  0  0  0  0  0
  -18.4310  -28.0210   22.7120 C   0  0  0  0  0  0  0  0  0  0  0  0
  -20.9740  -28.3210   23.0570 C   0  0  0  0  0  3  0  0  0  0  0  0
  -21.1240  -26.9370   22.3850 C   0  0  0  0  0  2  0  0  0  0  0  0
  -20.0550  -26.6620   21.3220 C   0  0  0  0  0  2  0  0  0  0  0  0
  -18.6570  -26.7300   21.9440 C   0  0  0  0  0  2  0  0  0  0  0  0
  -19.5220  -28.7760   23.2210 C   0  0  0  0  0  0  0  0  0  0  0  0
  -19.2630  -29.9850   23.8990 C   0  0  0  0  0  3  0  0  0  0  0  0
  -17.9460  -30.4460   24.0690 C   0  0  0  0  0  3  0  0  0  0  0  0
  -16.8670  -29.6930   23.5740 C   0  0  0  0  0  3  0  0  0  0  0  0
  -17.1110  -28.4800   22.9040 C   0  0  0  0  0  3  0  0  0  0  0  0
  -26.1890  -32.5160   24.1200 C   0  0  0  0  0  3  0  0  0  0  0  0
  -25.8770  -33.8980   24.5060 N   0  0  0  0  0  0  0  0  0  0  0  0
  -26.2280  -34.9810   23.7980 C   0  0  0  0  0  0  0  0  0  0  0  0
  -26.9240  -34.9220   22.7810 O   0  0  0  0  0  0  0  0  0  0  0  0
  -25.2590  -34.0170   25.2940 H   0  0  0  0  0  0  0  0  0  0  0  0
  -24.5150  -36.7910   23.4730 C   0  0  0  0  0  1  0  0  0  0  0  0
  -25.7290  -36.3480   24.3040 C   0  0  0  0  0  3  0  0  0  0  0  0
  -27.8370  -37.1880   25.2390 C   0  0  0  0  0  1  0  0  0  0  0  0
  -26.7670  -37.4010   24.2690 N   0  0  0  0  0  0  0  0  0  0  0  0
  -26.3580  -38.3150   24.4430 H   0  0  0  0  0  0  0  0  0  0  0  0
  -26.6680  -31.6860   25.3730 C   0  0  1  0  0  0  0  0  0  0  0  0
  -25.5330  -31.3800   26.3770 C   0  0  0  0  0  1  0  0  0  0  0  0
  -27.2940  -30.3420   24.9320 C   0  0  0  0  0  1  0  0  0  0  0  0
  -27.7720  -32.4650   26.1270 C   0  0  0  0  0  1  0  0  0  0  0  0
  1  2  1  0
  1 54  1  0
  2  3  1  0
  4  2  1  0
  5  2  1  0
  5  9  1  0
  7 11  2  0
  8  6  2  0
  8 12  1  0
  9 10  2  0
  9  7  1  0
 10  8  1  0
 11  6  1  0
 11 13  1  0
 14 20  1  0
 14 22  1  0
 15 20  1  0
 16 17  1  0
 16 15  1  0
 18 17  1  0
 18 27  1  0
 18 19  1  0
 20 19  1  0
 21 14  2  0
 22 23  1  0
 22 10  1  0
 24 25  2  0
 25 44  1  0
 26 25  1  0
 26 29  1  0
 27 28  1  0
 27 24  1  0
 28 26  2  0
 29 30  1  0
 30 31  2  0
 32 35  1  0
 32 31  1  0
 33 32  2  0
 34 33  1  0
 34 29  2  0
 35 36  1  0
 36 41  2  0
 36 37  1  0
 37 38  2  0
 38 39  1  0
 39 43  1  0
 40 39  2  0
 41 40  1  0
 42 41  1  0
 44 45  1  0
 45 47  1  0
 45 48  1  0
 46 44  2  0
 49 24  1  0
 49 50  1  0
 51 49  1  0
 54 53  1  1
 54 52  1  0
 55 56  1  0
 55 54  1  0
 56 58  1  0
 56 57  1  0
 59 60  1  0
 59 56  1  0
 60 62  1  0
 61 72  2  0
 62 67  1  0
 63 71  1  0
 63 73  1  0
 64 70  1  0
 64 66  1  0
 65 71  1  0
 66 65  1  0
 67 66  2  0
 68 69  1  0
 68 62  2  0
 69 64  2  0
 70 63  1  0
 71 61  1  0
 73 75  2  0
 74 73  1  0
 76 74  1  0
 77 86  2  0
 77 82  1  0
 78 74  1  0
 78 82  1  0
 79 78  1  0
 80 81  1  0
 80 79  1  0
 81 77  1  0
 82 83  2  0
 83 84  1  0
 85 84  2  0
 86 85  1  0
 87 61  1  0
 87 88  1  0
 87 97  1  0
 88 91  1  0
 89 93  1  0
 89 88  1  0
 90 89  2  0
 93 92  1  0
 95 93  1  0
 95 96  1  0
 95 94  1  0
 97100  1  1
 97 98  1  0
 99 97  1  0
M  ISO  4  14 100  22 100  59 101  60 101
M  END
>  <TORSDO>  (41) 
F 23

>  <SCORE>  (41) 
-9.961

>  <name>  (41) 
40

>  <ligand_id>  (41) 
40

>  <original_smiles>  (41) 
[H]c1c([H])c([H])c2c(c1[H])C([H])([H])C([H])([H])C([H])([H])C2([H])N([H])C(=O)C1([H])N(C(=O)C([H])(N([H])C(=O)C([H])(N([H])C([H])([H])[H])C([H])([H])[H])C(C([H])([H])[H])(C([H])([H])[H])C([H])([H])[H])C([H])([H])c2c([H])c(OC([H])([H])[N+]([H])([H])C([H])([H])C(C([H])([H])[H])(C([H])([H])[H])C([H])([H])[N+]([H])([H])C([H])([H])c3c([H])c(Cl)c([H])c(C([H])([H])[H])c3N([H])C(=O)N3C([H])([H])C([H])([H])C([H])([H])C([H])(n4nc(-c5c([H])c([H])c(Oc6c([H])c([H])c(F)c([H])c6F)c([H])c5[H])c(C(=O)N([H])[H])c4N([H])[H])C3([H])[H])c([H])c([H])c2C1([H])[H]

>  <smiles>  (41) 
[H]c1c([H])c([H])c2c(c1[H])C([H])([H])C([H])([H])C([H])([H])C2([H])N([H])C(=O)C1([H])N(C(=O)C([H])(N([H])C(=O)C([H])(N([H])C([H])([H])[H])C([H])([H])[H])C(C([H])([H])[H])(C([H])([H])[H])C([H])([H])[H])C([H])([H])c2c([H])c(OC([H])([H])[N+]([H])([H])C([H])([H])C(C([H])([H])[H])(C([H])([H])[H])C([H])([H])[N+]([H])([H])C([H])([H])c3c([H])c(Cl)c([H])c(C([H])([H])[H])c3N([H])C(=O)N3C([H])([H])C([H])([H])C([H])([H])C([H])(n4nc(-c5c([H])c([H])c(Oc6c([H])c([H])c(F)c([H])c6F)c([H])c5[H])c(C(=O)N([H])[H])c4N([H])[H])C3([H])[H])c([H])c([H])c2C1([H])[H]

$$$$
41:0:0
     RDKit          3D

 94103  0  0  1  0  0  0  0  0999 V2000
  -28.6180  -23.7610   19.8380 C   0  0  0  0  0  0  0  0  0  0  0  0
  -28.1750  -23.5640   22.6950 C   0  0  0  0  0  2  0  0  0  0  0  0
  -28.4950  -24.9540   22.1260 C   0  0  0  0  0  2  0  0  0  0  0  0
  -28.9320  -22.4550   21.9400 C   0  0  0  0  0  2  0  0  0  0  0  0
  -28.0790  -25.0400   20.6510 C   0  0  0  0  0  3  0  0  0  0  0  0
  -28.8220  -22.5290   20.4710 N   0  0  0  0  0  0  0  0  0  0  0  0
  -28.7270  -23.8690   18.6130 O   0  0  0  0  0  0  0  0  0  0  0  0
  -28.3490  -26.4300   20.1290 O   0  0  0  0  0  0  0  0  0  0  0  0
  -24.6500  -31.8910   23.1910 C   0  0  0  0  0  0  0  0  0  0  0  0
  -27.2640  -27.3350   20.1030 C   0  0  0  0  0  0  0  0  0  0  0  0
  -23.4510  -30.4980   21.5450 C   0  0  0  0  0  3  0  0  0  0  0  0
  -24.9050  -28.9660   20.1000 C   0  0  0  0  0  0  0  0  0  0  0  0
  -25.9920  -30.8240   21.3580 C   0  0  0  0  0  2  0  0  0  0  0  0
  -26.0770  -29.4470   20.7000 C   0  0  0  0  0  0  0  0  0  0  0  0
  -27.2630  -28.6440   20.6890 C   0  0  0  0  0  3  0  0  0  0  0  0
  -26.0780  -26.9280   19.4580 C   0  0  0  0  0  3  0  0  0  0  0  0
  -24.9100  -27.7140   19.4670 C   0  0  0  0  0  3  0  0  0  0  0  0
  -23.6650  -29.8350   20.1590 C   0  0  0  0  0  2  0  0  0  0  0  0
  -24.7160  -31.0900   22.0870 N   0  0  0  0  0  0  0  0  0  0  0  0
  -23.5670  -32.1590   23.7300 O   0  0  0  0  0  0  0  0  0  0  0  0
  -22.7970  -29.4700   22.5010 C   0  0  0  0  0  0  0  0  0  0  0  0
  -21.4700  -29.2940   22.3880 N   0  0  0  0  0  0  0  0  0  0  0  0
  -23.4840  -28.8360   23.3060 O   0  0  0  0  0  0  0  0  0  0  0  0
  -20.9730  -29.8590   21.7130 H   0  0  0  0  0  0  0  0  0  0  0  0
  -18.0970  -28.0940   22.9200 C   0  0  0  0  0  0  0  0  0  0  0  0
  -20.6600  -28.3480   23.1580 C   0  0  0  0  0  3  0  0  0  0  0  0
  -20.7520  -26.9230   22.5650 C   0  0  0  0  0  2  0  0  0  0  0  0
  -19.6370  -26.6140   21.5620 C   0  0  0  0  0  2  0  0  0  0  0  0
  -18.2640  -26.7520   22.2260 C   0  0  0  0  0  2  0  0  0  0  0  0
  -19.2230  -28.8490   23.3440 C   0  0  0  0  0  0  0  0  0  0  0  0
  -19.0120  -30.1050   23.9560 C   0  0  0  0  0  3  0  0  0  0  0  0
  -17.7100  -30.6040   24.1460 C   0  0  0  0  0  3  0  0  0  0  0  0
  -16.6000  -29.8470   23.7380 C   0  0  0  0  0  3  0  0  0  0  0  0
  -16.7940  -28.5920   23.1310 C   0  0  0  0  0  3  0  0  0  0  0  0
  -25.9310  -32.5300   23.8110 C   0  0  0  0  0  3  0  0  0  0  0  0
  -25.6140  -33.9250   24.1480 N   0  0  0  0  0  0  0  0  0  0  0  0
  -25.9290  -34.9840   23.3890 C   0  0  0  0  0  0  0  0  0  0  0  0
  -26.5880  -34.8880   22.3500 O   0  0  0  0  0  0  0  0  0  0  0  0
  -25.0230  -34.0740   24.9540 H   0  0  0  0  0  0  0  0  0  0  0  0
  -24.1910  -36.7720   23.0550 C   0  0  0  0  0  1  0  0  0  0  0  0
  -25.4370  -36.3670   23.8570 C   0  0  0  0  0  3  0  0  0  0  0  0
  -27.5700  -37.2610   24.6850 C   0  0  0  0  0  1  0  0  0  0  0  0
  -26.4640  -37.4270   23.7450 N   0  0  0  0  0  0  0  0  0  0  0  0
  -26.0520  -38.3430   23.8980 H   0  0  0  0  0  0  0  0  0  0  0  0
  -26.4560  -31.7580   25.0850 C   0  0  1  0  0  0  0  0  0  0  0  0
  -25.3680  -31.5100   26.1540 C   0  0  0  0  0  1  0  0  0  0  0  0
  -27.0470  -30.3840   24.6900 C   0  0  0  0  0  1  0  0  0  0  0  0
  -27.6010  -32.5600   25.7480 C   0  0  0  0  0  1  0  0  0  0  0  0
  -28.8190  -21.1490   19.7940 C   0  0  0  0  0  2  0  0  0  0  0  0
  -31.5840  -17.7720   20.8090 C   0  0  0  0  0  3  0  0  0  0  0  0
  -31.9810  -19.1240   20.8880 C   0  0  0  0  0  3  0  0  0  0  0  0
  -29.3740  -18.5180   20.1390 C   0  0  0  0  0  3  0  0  0  0  0  0
  -29.7600  -19.9240   20.2150 C   0  0  0  0  0  0  0  0  0  0  0  0
  -30.2770  -17.4060   20.4150 C   0  0  0  0  0  0  0  0  0  0  0  0
  -31.0990  -20.1800   20.5830 C   0  0  0  0  0  0  0  0  0  0  0  0
  -31.5650  -21.4510   20.6210 F   0  0  0  0  0  0  0  0  0  0  0  0
  -30.6600  -14.8200   20.1490 C   0  0  0  0  0  0  0  0  0  0  0  0
  -30.4160  -12.5450   19.1390 C   0  0  0  0  0  2  0  0  0  0  0  0
  -29.4480  -12.6150   17.9390 C   0  0  0  0  0  2  0  0  0  0  0  0
  -27.9950  -12.4260   18.4150 C   0  0  0  0  0  2  0  0  0  0  0  0
  -27.6470  -13.3260   19.6320 C   0  0  0  0  0  3  0  0  0  0  0  0
  -28.7370  -13.2560   20.7260 C   0  0  0  0  0  2  0  0  0  0  0  0
  -30.0140  -13.6040   20.0920 N   0  0  0  0  0  0  0  0  0  0  0  0
  -31.8410  -14.8930   19.7950 O   0  0  0  0  0  0  0  0  0  0  0  0
  -29.9000  -15.9660   20.3590 N   0  0  0  0  0  0  0  0  0  0  0  0
  -28.9140  -15.7790   20.4590 H   0  0  0  0  0  0  0  0  0  0  0  0
  -25.2810  -13.9130   20.4310 C   0  0  0  0  0  0  0  0  0  0  0  0
  -24.2260  -13.1370   20.8270 C   0  0  0  0  0  0  0  0  0  0  0  0
  -24.6880  -11.7860   20.7740 C   0  0  0  0  0  0  0  0  0  0  0  0
  -26.3180  -13.0360   20.1600 N   0  0  0  0  0  0  0  0  0  0  0  0
  -25.9690  -11.7510   20.4290 N   0  0  0  0  0  0  0  0  0  0  0  0
  -23.9660  -10.5230   20.9760 C   0  0  0  0  0  0  0  0  0  0  0  0
  -24.4100   -9.5590   21.9080 C   0  0  0  0  0  3  0  0  0  0  0  0
  -23.6890   -8.3600   22.0950 C   0  0  0  0  0  3  0  0  0  0  0  0
  -22.5100   -8.1170   21.3520 C   0  0  0  0  0  0  0  0  0  0  0  0
  -22.0860   -9.0690   20.4070 C   0  0  0  0  0  3  0  0  0  0  0  0
  -22.8080  -10.2600   20.2190 C   0  0  0  0  0  3  0  0  0  0  0  0
  -21.7590   -6.9700   21.4490 O   0  0  0  0  0  0  0  0  0  0  0  0
  -21.7030   -6.2430   22.6110 C   0  0  0  0  0  0  0  0  0  0  0  0
  -21.2420   -6.8060   23.8210 C   0  0  0  0  0  3  0  0  0  0  0  0
  -21.1370   -6.0050   24.9750 C   0  0  0  0  0  3  0  0  0  0  0  0
  -21.4810   -4.6410   24.9210 C   0  0  0  0  0  0  0  0  0  0  0  0
  -21.9340   -4.0770   23.7150 C   0  0  0  0  0  3  0  0  0  0  0  0
  -22.0420   -4.8750   22.5640 C   0  0  0  0  0  0  0  0  0  0  0  0
  -22.4600   -4.3220   21.4000 F   0  0  0  0  0  0  0  0  0  0  0  0
  -21.3710   -3.8700   26.0280 F   0  0  0  0  0  0  0  0  0  0  0  0
  -22.8380  -13.6140   21.1430 C   0  0  0  0  0  0  0  0  0  0  0  0
  -22.1320  -12.9060   22.0180 N   0  0  0  0  0  0  0  0  0  0  0  0
  -22.3930  -14.6480   20.6480 O   0  0  0  0  0  0  0  0  0  0  0  0
  -22.5100  -12.0720   22.4420 H   0  0  0  0  0  0  0  0  0  0  0  0
  -21.2030  -13.2080   22.2730 H   0  0  0  0  0  0  0  0  0  0  0  0
  -25.4430  -15.2850   20.2530 N   0  0  0  0  0  0  0  0  0  0  0  0
  -24.6720  -15.9350   20.3670 H   0  0  0  0  0  0  0  0  0  0  0  0
  -26.2650  -15.7150   19.8550 H   0  0  0  0  0  0  0  0  0  0  0  0
  1  6  1  0
  1  5  1  0
  3  2  1  0
  4  2  1  0
  5  8  1  0
  5  3  1  0
  6  4  1  0
  7  1  2  0
  9 20  2  0
 10  8  1  0
 10 15  1  0
 11 19  1  0
 11 21  1  0
 12 18  1  0
 12 14  1  0
 13 19  1  0
 14 13  1  0
 15 14  2  0
 16 17  1  0
 16 10  2  0
 17 12  2  0
 18 11  1  0
 19  9  1  0
 21 23  2  0
 22 21  1  0
 24 22  1  0
 25 34  2  0
 25 30  1  0
 26 22  1  0
 26 30  1  0
 27 26  1  0
 28 29  1  0
 28 27  1  0
 29 25  1  0
 30 31  2  0
 31 32  1  0
 33 32  2  0
 34 33  1  0
 35  9  1  0
 35 36  1  0
 35 45  1  0
 36 39  1  0
 37 41  1  0
 37 36  1  0
 38 37  2  0
 41 40  1  0
 43 41  1  0
 43 44  1  0
 43 42  1  0
 45 48  1  1
 45 46  1  0
 47 45  1  0
 49 53  1  0
 49  6  1  0
 50 51  1  0
 52 53  2  0
 52 54  1  0
 53 55  1  0
 54 50  2  0
 55 56  1  0
 55 51  2  0
 57 65  1  0
 58 63  1  0
 59 60  1  0
 59 58  1  0
 61 60  1  0
 61 70  1  0
 61 62  1  0
 63 57  1  0
 63 62  1  0
 64 57  2  0
 65 54  1  0
 65 66  1  0
 67 68  2  0
 68 87  1  0
 69 68  1  0
 69 72  1  0
 70 71  1  0
 70 67  1  0
 71 69  2  0
 72 73  1  0
 73 74  2  0
 75 78  1  0
 75 74  1  0
 76 75  2  0
 77 76  1  0
 77 72  2  0
 78 79  1  0
 79 80  1  0
 80 81  2  0
 82 81  1  0
 82 86  1  0
 83 82  2  0
 84 79  2  0
 84 83  1  0
 85 84  1  0
 87 88  1  0
 88 91  1  0
 88 90  1  0
 89 87  2  0
 92 93  1  0
 92 67  1  0
 94 92  1  0
M  ISO  4   5 101   8 101  57 100  65 100
M  END
>  <TORSDO>  (42) 
F 18

>  <SCORE>  (42) 
-14.543

>  <name>  (42) 
41

>  <ligand_id>  (42) 
41

>  <original_smiles>  (42) 
[H]c1c([H])c([H])c2c(c1[H])C([H])([H])C([H])([H])C([H])([H])C2([H])N([H])C(=O)C1([H])N(C(=O)C([H])(N([H])C(=O)C([H])(N([H])C([H])([H])[H])C([H])([H])[H])C(C([H])([H])[H])(C([H])([H])[H])C([H])([H])[H])C([H])([H])c2c([H])c(OC3([H])C(=O)N(C([H])([H])c4c([H])c(N([H])C(=O)N5C([H])([H])C([H])([H])C([H])([H])C([H])(n6nc(-c7c([H])c([H])c(Oc8c([H])c([H])c(F)c([H])c8F)c([H])c7[H])c(C(=O)N([H])[H])c6N([H])[H])C5([H])[H])c([H])c([H])c4F)C([H])([H])C([H])([H])C3([H])[H])c([H])c([H])c2C1([H])[H]

>  <smiles>  (42) 
[H]c1c([H])c([H])c2c(c1[H])C([H])([H])C([H])([H])C([H])([H])C2([H])N([H])C(=O)C1([H])N(C(=O)C([H])(N([H])C(=O)C([H])(N([H])C([H])([H])[H])C([H])([H])[H])C(C([H])([H])[H])(C([H])([H])[H])C([H])([H])[H])C([H])([H])c2c([H])c(OC3([H])C(=O)N(C([H])([H])c4c([H])c(N([H])C(=O)N5C([H])([H])C([H])([H])C([H])([H])C([H])(n6nc(-c7c([H])c([H])c(Oc8c([H])c([H])c(F)c([H])c8F)c([H])c7[H])c(C(=O)N([H])[H])c6N([H])[H])C5([H])[H])c([H])c([H])c4F)C([H])([H])C([H])([H])C3([H])[H])c([H])c([H])c2C1([H])[H]

$$$$
42:0:0
     RDKit          3D

103111  0  0  1  0  0  0  0  0999 V2000
  -27.4690  -19.6190   19.4870 C   0  0  0  0  0  0  0  0  0  0  0  0
  -26.4860  -18.9910   20.1290 N   0  0  0  0  0  4  0  0  0  0  0  0
  -27.3130  -20.9030   19.1140 N   0  0  0  0  0  0  0  0  0  0  0  0
  -26.5870  -18.0040   20.3480 H   0  0  0  0  0  0  0  0  0  0  0  0
  -25.6830  -19.4820   20.4860 H   0  0  0  0  0  0  0  0  0  0  0  0
  -28.1100  -21.1900   18.5660 H   0  0  0  0  0  0  0  0  0  0  0  0
  -31.1220  -17.6650   18.3190 C   0  0  0  0  0  3  0  0  0  0  0  0
  -30.5050  -18.5950   17.4680 C   0  0  0  0  0  3  0  0  0  0  0  0
  -28.7110  -18.9290   19.1110 C   0  0  0  0  0  0  0  0  0  0  0  0
  -30.5210  -17.3360   19.5570 C   0  0  0  0  0  0  0  0  0  0  0  0
  -29.3140  -19.2290   17.8640 C   0  0  0  0  0  0  0  0  0  0  0  0
  -29.3190  -17.9600   19.9480 C   0  0  0  0  0  0  0  0  0  0  0  0
  -28.7740  -20.1570   17.0340 F   0  0  0  0  0  0  0  0  0  0  0  0
  -28.7520  -17.5950   21.1260 F   0  0  0  0  0  0  0  0  0  0  0  0
  -31.7120  -15.2790   20.0310 C   0  0  0  0  0  0  0  0  0  0  0  0
  -31.4810  -12.8790   19.5390 C   0  0  0  0  0  2  0  0  0  0  0  0
  -30.6350  -12.7320   18.2610 C   0  0  0  0  0  2  0  0  0  0  0  0
  -29.1300  -12.7110   18.6010 C   0  0  0  0  0  2  0  0  0  0  0  0
  -28.7150  -13.8620   19.5610 C   0  0  0  0  0  3  0  0  0  0  0  0
  -29.6880  -13.9720   20.7570 C   0  0  0  0  0  2  0  0  0  0  0  0
  -31.0580  -14.1070   20.2240 N   0  0  0  0  0  0  0  0  0  0  0  0
  -32.8110  -15.3750   19.4730 O   0  0  0  0  0  0  0  0  0  0  0  0
  -31.0370  -16.3560   20.4350 N   0  0  0  0  0  0  0  0  0  0  0  0
  -30.3930  -16.1540   21.1870 H   0  0  0  0  0  0  0  0  0  0  0  0
  -26.3640  -14.6870   20.2110 C   0  0  0  0  0  0  0  0  0  0  0  0
  -25.2250  -14.0120   20.5570 C   0  0  0  0  0  0  0  0  0  0  0  0
  -25.5600  -12.6230   20.5280 C   0  0  0  0  0  0  0  0  0  0  0  0
  -27.3300  -13.7130   20.0010 N   0  0  0  0  0  0  0  0  0  0  0  0
  -26.8460  -12.4670   20.2370 N   0  0  0  0  0  0  0  0  0  0  0  0
  -24.7160  -11.4320   20.6970 C   0  0  0  0  0  0  0  0  0  0  0  0
  -25.0400  -10.4300   21.6360 C   0  0  0  0  0  3  0  0  0  0  0  0
  -24.2050   -9.3030   21.8000 C   0  0  0  0  0  3  0  0  0  0  0  0
  -23.0280   -9.1740   21.0250 C   0  0  0  0  0  0  0  0  0  0  0  0
  -22.7230  -10.1630   20.0720 C   0  0  0  0  0  3  0  0  0  0  0  0
  -23.5570  -11.2810   19.9080 C   0  0  0  0  0  3  0  0  0  0  0  0
  -22.1730   -8.1000   21.0930 O   0  0  0  0  0  0  0  0  0  0  0  0
  -22.0130   -7.3810   22.2510 C   0  0  0  0  0  0  0  0  0  0  0  0
  -21.6030   -7.9870   23.4590 C   0  0  0  0  0  3  0  0  0  0  0  0
  -21.3880   -7.1970   24.6050 C   0  0  0  0  0  3  0  0  0  0  0  0
  -21.5700   -5.8030   24.5460 C   0  0  0  0  0  0  0  0  0  0  0  0
  -21.9750   -5.1980   23.3440 C   0  0  0  0  0  3  0  0  0  0  0  0
  -22.1940   -5.9840   22.1990 C   0  0  0  0  0  0  0  0  0  0  0  0
  -22.5610   -5.3910   21.0380 F   0  0  0  0  0  0  0  0  0  0  0  0
  -21.3560   -5.0450   25.6470 F   0  0  0  0  0  0  0  0  0  0  0  0
  -23.8720  -14.6120   20.8090 C   0  0  0  0  0  0  0  0  0  0  0  0
  -23.0780  -13.9860   21.6700 N   0  0  0  0  0  0  0  0  0  0  0  0
  -23.5320  -15.6690   20.2780 O   0  0  0  0  0  0  0  0  0  0  0  0
  -23.3670  -13.1310   22.1230 H   0  0  0  0  0  0  0  0  0  0  0  0
  -22.1690  -14.3730   21.8820 H   0  0  0  0  0  0  0  0  0  0  0  0
  -26.6550  -16.0400   20.0330 N   0  0  0  0  0  0  0  0  0  0  0  0
  -25.8420  -16.6210   19.8620 H   0  0  0  0  0  0  0  0  0  0  0  0
  -27.4060  -16.2570   19.3950 H   0  0  0  0  0  0  0  0  0  0  0  0
  -26.0650  -21.6440   18.8520 C   0  0  0  0  0  2  0  0  0  0  0  0
  -26.1830  -23.5100   20.5320 C   0  0  0  0  0  1  0  0  0  0  0  0
  -24.8890  -23.8250   18.4430 C   0  0  0  0  0  1  0  0  0  0  0  0
  -26.1640  -23.1870   19.0260 C   0  0  2  0  0  0  0  0  0  0  0  0
  -27.4100  -23.8630   18.3620 C   0  0  0  0  0  2  0  0  0  0  0  0
  -27.2060  -24.4470   17.0080 N   0  0  0  0  0  4  0  0  0  0  0  0
  -27.5980  -23.8240   16.3220 H   0  0  0  0  0  0  0  0  0  0  0  0
  -26.2170  -24.5220   16.8260 H   0  0  0  0  0  0  0  0  0  0  0  0
  -27.7940  -25.8080   16.8390 C   0  0  0  0  0  2  0  0  0  0  0  0
  -27.4020  -26.5230   15.5090 C   0  0  0  0  0  2  0  0  0  0  0  0
  -27.1430  -27.9310   15.6910 O   0  0  0  0  0  0  0  0  0  0  0  0
  -25.0960  -28.3670   22.4750 C   0  0  0  0  0  0  0  0  0  0  0  0
  -26.1170  -28.2680   16.5460 C   0  0  0  0  0  0  0  0  0  0  0  0
  -23.2880  -28.4940   20.7900 C   0  0  0  0  0  3  0  0  0  0  0  0
  -24.0430  -28.8310   18.3800 C   0  0  0  0  0  0  0  0  0  0  0  0
  -25.6540  -29.2970   20.2290 C   0  0  0  0  0  2  0  0  0  0  0  0
  -25.3780  -28.9160   18.7890 C   0  0  0  0  0  0  0  0  0  0  0  0
  -26.4200  -28.6510   17.8710 C   0  0  0  0  0  3  0  0  0  0  0  0
  -24.7590  -28.2110   16.1470 C   0  0  0  0  0  3  0  0  0  0  0  0
  -23.7290  -28.4840   17.0590 C   0  0  0  0  0  3  0  0  0  0  0  0
  -22.9860  -29.1400   19.4130 C   0  0  0  0  0  2  0  0  0  0  0  0
  -24.7150  -28.6860   21.2040 N   0  0  0  0  0  0  0  0  0  0  0  0
  -24.2750  -27.9510   23.3020 O   0  0  0  0  0  0  0  0  0  0  0  0
  -22.8560  -27.0090   20.7550 C   0  0  0  0  0  0  0  0  0  0  0  0
  -21.5400  -26.7700   20.6260 N   0  0  0  0  0  0  0  0  0  0  0  0
  -23.6960  -26.1080   20.8230 O   0  0  0  0  0  0  0  0  0  0  0  0
  -20.9160  -27.5630   20.6250 H   0  0  0  0  0  0  0  0  0  0  0  0
  -18.4150  -25.0790   19.9460 C   0  0  0  0  0  0  0  0  0  0  0  0
  -20.9110  -25.4530   20.5220 C   0  0  0  0  0  3  0  0  0  0  0  0
  -21.2290  -24.7800   19.1670 C   0  0  0  0  0  2  0  0  0  0  0  0
  -20.1530  -25.0400   18.1000 C   0  0  0  0  0  2  0  0  0  0  0  0
  -18.7860  -24.5330   18.5790 C   0  0  0  0  0  2  0  0  0  0  0  0
  -19.4170  -25.5240   20.8490 C   0  0  0  0  0  0  0  0  0  0  0  0
  -19.0210  -26.0530   22.0970 C   0  0  0  0  0  3  0  0  0  0  0  0
  -17.6590  -26.1330   22.4470 C   0  0  0  0  0  3  0  0  0  0  0  0
  -16.6750  -25.6800   21.5540 C   0  0  0  0  0  3  0  0  0  0  0  0
  -17.0530  -25.1500   20.3060 C   0  0  0  0  0  3  0  0  0  0  0  0
  -26.5730  -28.5290   22.9510 C   0  0  0  0  0  3  0  0  0  0  0  0
  -26.5430  -29.1020   24.3030 N   0  0  0  0  0  0  0  0  0  0  0  0
  -26.8500  -30.3710   24.5950 C   0  0  0  0  0  0  0  0  0  0  0  0
  -27.2640  -31.1720   23.7520 O   0  0  0  0  0  0  0  0  0  0  0  0
  -26.1560  -28.5190   25.0320 H   0  0  0  0  0  0  0  0  0  0  0  0
  -25.3820  -31.6650   26.1790 C   0  0  0  0  0  1  0  0  0  0  0  0
  -26.6660  -30.8290   26.0540 C   0  0  0  0  0  3  0  0  0  0  0  0
  -29.0190  -30.7960   26.7570 C   0  0  0  0  0  1  0  0  0  0  0  0
  -27.8140  -31.6030   26.5760 N   0  0  0  0  0  0  0  0  0  0  0  0
  -27.5840  -32.0330   27.4690 H   0  0  0  0  0  0  0  0  0  0  0  0
  -27.3780  -27.1700   22.9400 C   0  0  1  0  0  0  0  0  0  0  0  0
  -26.6610  -26.0190   23.6840 C   0  0  0  0  0  1  0  0  0  0  0  0
  -27.6460  -26.7050   21.4890 C   0  0  0  0  0  1  0  0  0  0  0  0
  -28.7610  -27.3760   23.6010 C   0  0  0  0  0  1  0  0  0  0  0  0
  1  2  2  0
  2  4  1  0
  2  5  1  0
  3  1  1  0
  6  3  1  0
  7 10  1  0
  8 11  1  0
  8  7  2  0
  9  1  1  0
  9 12  1  0
 10 12  2  0
 10 23  1  0
 11  9  2  0
 12 14  1  0
 13 11  1  0
 15 21  1  0
 15 23  1  0
 16 21  1  0
 17 18  1  0
 17 16  1  0
 19 18  1  0
 19 28  1  0
 19 20  1  0
 21 20  1  0
 22 15  2  0
 23 24  1  0
 25 26  2  0
 26 45  1  0
 27 26  1  0
 27 30  1  0
 28 25  1  0
 28 29  1  0
 29 27  2  0
 30 31  1  0
 31 32  2  0
 33 36  1  0
 33 32  1  0
 34 33  2  0
 35 34  1  0
 35 30  2  0
 36 37  1  0
 37 38  1  0
 38 39  2  0
 40 39  1  0
 40 44  1  0
 41 40  2  0
 42 37  2  0
 42 41  1  0
 43 42  1  0
 45 46  1  0
 46 49  1  0
 46 48  1  0
 47 45  2  0
 50 25  1  0
 51 50  1  0
 52 50  1  0
 53 56  1  0
 53  3  1  0
 56 55  1  6
 56 54  1  0
 57 56  1  0
 58 57  1  0
 59 58  1  0
 60 58  1  0
 61 58  1  0
 62 63  1  0
 62 61  1  0
 63 65  1  0
 64 75  2  0
 65 70  1  0
 66 76  1  0
 66 74  1  0
 67 69  1  0
 67 73  1  0
 68 74  1  0
 69 68  1  0
 70 69  2  0
 71 65  2  0
 71 72  1  0
 72 67  2  0
 73 66  1  0
 74 64  1  0
 76 78  2  0
 77 76  1  0
 79 77  1  0
 80 89  2  0
 80 85  1  0
 81 77  1  0
 81 85  1  0
 82 81  1  0
 83 84  1  0
 83 82  1  0
 84 80  1  0
 85 86  2  0
 86 87  1  0
 88 87  2  0
 89 88  1  0
 90 64  1  0
 90 91  1  0
 91 92  1  0
 91 94  1  0
 92 96  1  0
 93 92  2  0
 96 95  1  0
 96 98  1  0
 98 97  1  0
 98 99  1  0
100 90  1  0
100103  1  1
100101  1  0
102100  1  0
M  ISO  4  15 100  23 100  62 101  63 101
M  END
>  <TORSDO>  (43) 
F 23

>  <SCORE>  (43) 
-8.484

>  <name>  (43) 
42

>  <ligand_id>  (43) 
42

>  <original_smiles>  (43) 
[H]c1c([H])c([H])c2c(c1[H])C([H])([H])C([H])([H])C([H])([H])C2([H])N([H])C(=O)C1([H])N(C(=O)C([H])(N([H])C(=O)C([H])(N([H])C([H])([H])[H])C([H])([H])[H])C(C([H])([H])[H])(C([H])([H])[H])C([H])([H])[H])C([H])([H])c2c([H])c(OC([H])([H])C([H])([H])[N+]([H])([H])C([H])([H])C(C([H])([H])[H])(C([H])([H])[H])C([H])([H])[N+]([H])=C(c3c(F)c([H])c([H])c(N([H])C(=O)N4C([H])([H])C([H])([H])C([H])([H])C([H])(n5nc(-c6c([H])c([H])c(Oc7c([H])c([H])c(F)c([H])c7F)c([H])c6[H])c(C(=O)N([H])[H])c5N([H])[H])C4([H])[H])c3F)N([H])[H])c([H])c([H])c2C1([H])[H]

>  <smiles>  (43) 
[H]c1c([H])c([H])c2c(c1[H])C([H])([H])C([H])([H])C([H])([H])C2([H])N([H])C(=O)C1([H])N(C(=O)C([H])(N([H])C(=O)C([H])(N([H])C([H])([H])[H])C([H])([H])[H])C(C([H])([H])[H])(C([H])([H])[H])C([H])([H])[H])C([H])([H])c2c([H])c(OC([H])([H])C([H])([H])[N+]([H])([H])C([H])([H])C(C([H])([H])[H])(C([H])([H])[H])C([H])([H])[N+]([H])=C(c3c(F)c([H])c([H])c(N([H])C(=O)N4C([H])([H])C([H])([H])C([H])([H])C([H])(n5nc(-c6c([H])c([H])c(Oc7c([H])c([H])c(F)c([H])c7F)c([H])c6[H])c(C(=O)N([H])[H])c5N([H])[H])C4([H])[H])c3F)N([H])[H])c([H])c([H])c2C1([H])[H]

$$$$
43:0:0
     RDKit          3D

 94102  0  0  1  0  0  0  0  0999 V2000
  -29.4060  -18.7900   21.6500 C   0  0  0  0  0  3  0  0  0  0  0  0
  -29.7540  -17.5400   21.1040 C   0  0  0  0  0  3  0  0  0  0  0  0
  -30.2810  -18.6590   19.0200 C   0  0  0  0  0  3  0  0  0  0  0  0
  -29.4800  -19.9950   20.9090 C   0  0  0  0  0  0  0  0  0  0  0  0
  -29.9380  -19.9750   19.5610 C   0  0  0  0  0  0  0  0  0  0  0  0
  -30.2030  -17.4170   19.7770 C   0  0  0  0  0  0  0  0  0  0  0  0
  -31.1100  -14.9560   19.4440 C   0  0  0  0  0  0  0  0  0  0  0  0
  -30.8360  -12.5980   18.6500 C   0  0  0  0  0  2  0  0  0  0  0  0
  -29.7800  -12.5660   17.5230 C   0  0  0  0  0  2  0  0  0  0  0  0
  -28.3560  -12.4550   18.1080 C   0  0  0  0  0  2  0  0  0  0  0  0
  -28.0990  -13.4670   19.2550 C   0  0  0  0  0  3  0  0  0  0  0  0
  -29.2550  -13.4630   20.2750 C   0  0  0  0  0  2  0  0  0  0  0  0
  -30.4890  -13.7340   19.5260 N   0  0  0  0  0  0  0  0  0  0  0  0
  -32.3070  -15.0350   19.1550 O   0  0  0  0  0  0  0  0  0  0  0  0
  -30.2600  -16.0360   19.2510 N   0  0  0  0  0  0  0  0  0  0  0  0
  -29.3350  -15.6790   19.0790 H   0  0  0  0  0  0  0  0  0  0  0  0
  -25.8820  -14.2120   20.3110 C   0  0  0  0  0  0  0  0  0  0  0  0
  -24.7960  -13.5070   20.7520 C   0  0  0  0  0  0  0  0  0  0  0  0
  -25.1220  -12.1280   20.5760 C   0  0  0  0  0  0  0  0  0  0  0  0
  -26.8030  -13.2650   19.8910 N   0  0  0  0  0  0  0  0  0  0  0  0
  -26.3600  -12.0020   20.1130 N   0  0  0  0  0  0  0  0  0  0  0  0
  -24.3060  -10.9230   20.7640 C   0  0  0  0  0  0  0  0  0  0  0  0
  -24.7160   -9.8800   21.6230 C   0  0  0  0  0  3  0  0  0  0  0  0
  -23.9040   -8.7390   21.8020 C   0  0  0  0  0  3  0  0  0  0  0  0
  -22.6680   -8.6340   21.1210 C   0  0  0  0  0  0  0  0  0  0  0  0
  -22.2760   -9.6640   20.2490 C   0  0  0  0  0  3  0  0  0  0  0  0
  -23.0880  -10.7970   20.0670 C   0  0  0  0  0  3  0  0  0  0  0  0
  -21.8270   -7.5520   21.2150 O   0  0  0  0  0  0  0  0  0  0  0  0
  -21.7500   -6.7950   22.3560 C   0  0  0  0  0  0  0  0  0  0  0  0
  -21.3790   -7.3520   23.5980 C   0  0  0  0  0  3  0  0  0  0  0  0
  -21.2470   -6.5240   24.7300 C   0  0  0  0  0  3  0  0  0  0  0  0
  -21.4770   -5.1400   24.6220 C   0  0  0  0  0  0  0  0  0  0  0  0
  -21.8410   -4.5810   23.3840 C   0  0  0  0  0  3  0  0  0  0  0  0
  -21.9740   -5.4060   22.2540 C   0  0  0  0  0  0  0  0  0  0  0  0
  -22.3050   -4.8600   21.0590 F   0  0  0  0  0  0  0  0  0  0  0  0
  -21.3420   -4.3420   25.7070 F   0  0  0  0  0  0  0  0  0  0  0  0
  -23.4900  -14.0800   21.2200 C   0  0  0  0  0  0  0  0  0  0  0  0
  -22.8050  -13.3860   22.1230 N   0  0  0  0  0  0  0  0  0  0  0  0
  -23.0920  -15.1730   20.8210 O   0  0  0  0  0  0  0  0  0  0  0  0
  -23.1420  -12.4980   22.4660 H   0  0  0  0  0  0  0  0  0  0  0  0
  -21.9320  -13.7480   22.4780 H   0  0  0  0  0  0  0  0  0  0  0  0
  -26.1530  -15.5740   20.2100 N   0  0  0  0  0  0  0  0  0  0  0  0
  -25.4660  -16.2750   20.4660 H   0  0  0  0  0  0  0  0  0  0  0  0
  -26.9980  -15.9770   19.8290 H   0  0  0  0  0  0  0  0  0  0  0  0
  -29.0710  -21.2950   21.6040 C   0  0  0  0  0  3  0  0  0  0  0  0
  -30.0610  -22.1850   21.5490 F   0  0  0  0  0  0  0  0  0  0  0  0
  -28.7400  -21.1100   22.8830 F   0  0  0  0  0  0  0  0  0  0  0  0
  -30.1530  -21.3400   18.7480 C   0  0  0  0  0  2  0  0  0  0  0  0
  -29.4700  -23.9020   18.8610 C   0  0  0  0  0  0  0  0  0  0  0  0
  -29.1990  -22.5380   18.7840 N   0  0  0  0  0  0  0  0  0  0  0  0
  -30.6110  -24.3030   19.1050 O   0  0  0  0  0  0  0  0  0  0  0  0
  -28.2390  -22.3120   18.5620 H   0  0  0  0  0  0  0  0  0  0  0  0
  -28.3240  -24.9850   18.5870 C   0  0  0  0  0  2  0  0  0  0  0  0
  -28.5340  -26.4380   18.9500 O   0  0  0  0  0  0  0  0  0  0  0  0
  -24.5260  -31.1420   22.8070 C   0  0  0  0  0  0  0  0  0  0  0  0
  -27.3810  -27.2630   19.0460 C   0  0  0  0  0  0  0  0  0  0  0  0
  -23.3890  -29.9170   20.9920 C   0  0  0  0  0  3  0  0  0  0  0  0
  -24.9130  -28.7200   19.3240 C   0  0  0  0  0  0  0  0  0  0  0  0
  -25.9010  -30.4400   20.8270 C   0  0  0  0  0  2  0  0  0  0  0  0
  -26.0650  -29.1840   19.9710 C   0  0  0  0  0  0  0  0  0  0  0  0
  -27.3000  -28.4700   19.8240 C   0  0  0  0  0  3  0  0  0  0  0  0
  -26.1960  -26.8790   18.3760 C   0  0  0  0  0  3  0  0  0  0  0  0
  -24.9850  -27.5770   18.5170 C   0  0  0  0  0  3  0  0  0  0  0  0
  -23.6170  -29.4810   19.5240 C   0  0  0  0  0  2  0  0  0  0  0  0
  -24.6250  -30.5110   21.6000 N   0  0  0  0  0  0  0  0  0  0  0  0
  -23.4360  -31.2530   23.3910 O   0  0  0  0  0  0  0  0  0  0  0  0
  -22.8260  -28.7190   21.7950 C   0  0  0  0  0  0  0  0  0  0  0  0
  -21.5100  -28.4730   21.6750 N   0  0  0  0  0  0  0  0  0  0  0  0
  -23.5710  -28.0230   22.4880 O   0  0  0  0  0  0  0  0  0  0  0  0
  -20.9620  -29.0930   21.0950 H   0  0  0  0  0  0  0  0  0  0  0  0
  -18.2300  -27.0030   22.0970 C   0  0  0  0  0  0  0  0  0  0  0  0
  -20.7820  -27.3720   22.3070 C   0  0  0  0  0  3  0  0  0  0  0  0
  -20.9330  -26.0660   21.4920 C   0  0  0  0  0  2  0  0  0  0  0  0
  -19.8020  -25.8490   20.4830 C   0  0  0  0  0  2  0  0  0  0  0  0
  -18.4460  -25.7990   21.1950 C   0  0  0  0  0  2  0  0  0  0  0  0
  -19.3250  -27.7500   22.6070 C   0  0  0  0  0  0  0  0  0  0  0  0
  -19.0680  -28.8790   23.4120 C   0  0  0  0  0  3  0  0  0  0  0  0
  -17.7480  -29.2640   23.7120 C   0  0  0  0  0  3  0  0  0  0  0  0
  -16.6680  -28.5130   23.2190 C   0  0  0  0  0  3  0  0  0  0  0  0
  -16.9100  -27.3830   22.4170 C   0  0  0  0  0  3  0  0  0  0  0  0
  -25.7710  -31.7700   23.5040 C   0  0  0  0  0  3  0  0  0  0  0  0
  -26.3050  -30.9100   24.7140 C   0  0  1  0  0  0  0  0  0  0  0  0
  -25.2110  -30.5410   25.7430 C   0  0  0  0  0  1  0  0  0  0  0  0
  -26.9410  -29.5930   24.2140 C   0  0  0  0  0  1  0  0  0  0  0  0
  -27.4170  -31.6860   25.4570 C   0  0  0  0  0  1  0  0  0  0  0  0
  -25.3950  -33.1190   23.9550 N   0  0  0  0  0  0  0  0  0  0  0  0
  -25.6900  -34.2510   23.3020 C   0  0  0  0  0  0  0  0  0  0  0  0
  -26.3760  -34.2710   22.2750 O   0  0  0  0  0  0  0  0  0  0  0  0
  -24.7820  -33.1730   24.7550 H   0  0  0  0  0  0  0  0  0  0  0  0
  -23.8810  -35.9870   23.1000 C   0  0  0  0  0  1  0  0  0  0  0  0
  -25.1380  -35.5700   23.8780 C   0  0  0  0  0  3  0  0  0  0  0  0
  -27.2220  -36.4820   24.8020 C   0  0  0  0  0  1  0  0  0  0  0  0
  -26.1200  -36.6760   23.8620 N   0  0  0  0  0  0  0  0  0  0  0  0
  -25.6700  -37.5610   24.0780 H   0  0  0  0  0  0  0  0  0  0  0  0
  2  1  1  0
  3  5  2  0
  3  6  1  0
  4 45  1  0
  4  1  2  0
  5  4  1  0
  6  2  2  0
  7 13  1  0
  8 13  1  0
  9 10  1  0
  9  8  1  0
 11 10  1  0
 11 20  1  0
 11 12  1  0
 13 12  1  0
 14  7  2  0
 15  7  1  0
 15  6  1  0
 16 15  1  0
 17 18  2  0
 18 37  1  0
 19 18  1  0
 19 22  1  0
 20 21  1  0
 20 17  1  0
 21 19  2  0
 22 23  1  0
 23 24  2  0
 25 28  1  0
 25 24  1  0
 26 25  2  0
 27 26  1  0
 27 22  2  0
 28 29  1  0
 29 30  1  0
 30 31  2  0
 32 31  1  0
 32 36  1  0
 33 32  2  0
 34 29  2  0
 34 33  1  0
 35 34  1  0
 37 38  1  0
 38 40  1  0
 38 41  1  0
 39 37  2  0
 42 17  1  0
 42 43  1  0
 44 42  1  0
 45 47  1  0
 46 45  1  0
 48 50  1  0
 48  5  1  0
 49 51  2  0
 50 49  1  0
 52 50  1  0
 53 49  1  0
 53 54  1  0
 54 56  1  0
 55 66  2  0
 56 61  1  0
 57 65  1  0
 57 67  1  0
 58 64  1  0
 58 60  1  0
 59 65  1  0
 60 59  1  0
 61 60  2  0
 62 63  1  0
 62 56  2  0
 63 58  2  0
 64 57  1  0
 65 55  1  0
 67 69  2  0
 68 67  1  0
 70 68  1  0
 71 80  2  0
 71 76  1  0
 72 68  1  0
 72 76  1  0
 73 72  1  0
 74 75  1  0
 74 73  1  0
 75 71  1  0
 76 77  2  0
 77 78  1  0
 79 78  2  0
 80 79  1  0
 81 55  1  0
 81 86  1  0
 81 82  1  0
 82 85  1  1
 82 83  1  0
 84 82  1  0
 86 89  1  0
 87 91  1  0
 87 86  1  0
 88 87  2  0
 91 90  1  0
 93 91  1  0
 93 94  1  0
 93 92  1  0
M  ISO  4   7 100  15 100  53 101  54 101
M  END
>  <TORSDO>  (44) 
F 20

>  <SCORE>  (44) 
-10.213

>  <name>  (44) 
43

>  <ligand_id>  (44) 
43

>  <original_smiles>  (44) 
[H]c1c([H])c([H])c2c(c1[H])C([H])([H])C([H])([H])C([H])([H])C2([H])N([H])C(=O)C1([H])N(C(=O)C([H])(N([H])C(=O)C([H])(N([H])C([H])([H])[H])C([H])([H])[H])C(C([H])([H])[H])(C([H])([H])[H])C([H])([H])[H])C([H])([H])c2c([H])c(OC([H])([H])C(=O)N([H])C([H])([H])c3c([H])c(N([H])C(=O)N4C([H])([H])C([H])([H])C([H])([H])C([H])(n5nc(-c6c([H])c([H])c(Oc7c([H])c([H])c(F)c([H])c7F)c([H])c6[H])c(C(=O)N([H])[H])c5N([H])[H])C4([H])[H])c([H])c([H])c3C([H])(F)F)c([H])c([H])c2C1([H])[H]

>  <smiles>  (44) 
[H]c1c([H])c([H])c2c(c1[H])C([H])([H])C([H])([H])C([H])([H])C2([H])N([H])C(=O)C1([H])N(C(=O)C([H])(N([H])C(=O)C([H])(N([H])C([H])([H])[H])C([H])([H])[H])C(C([H])([H])[H])(C([H])([H])[H])C([H])([H])[H])C([H])([H])c2c([H])c(OC([H])([H])C(=O)N([H])C([H])([H])c3c([H])c(N([H])C(=O)N4C([H])([H])C([H])([H])C([H])([H])C([H])(n5nc(-c6c([H])c([H])c(Oc7c([H])c([H])c(F)c([H])c7F)c([H])c6[H])c(C(=O)N([H])[H])c5N([H])[H])C4([H])[H])c([H])c([H])c3C([H])(F)F)c([H])c([H])c2C1([H])[H]

$$$$
44:0:0
     RDKit          3D

 92100  0  0  1  0  0  0  0  0999 V2000
  -28.5890  -21.1330   20.5330 C   0  0  0  0  0  2  0  0  0  0  0  0
  -31.7890  -19.1730   19.5220 C   0  0  0  0  0  3  0  0  0  0  0  0
  -30.8610  -20.1960   19.7860 C   0  0  0  0  0  3  0  0  0  0  0  0
  -31.4580  -17.8120   19.6880 C   0  0  0  0  0  3  0  0  0  0  0  0
  -29.5600  -19.8990   20.2300 C   0  0  0  0  0  0  0  0  0  0  0  0
  -29.2390  -18.4810   20.4210 C   0  0  0  0  0  0  0  0  0  0  0  0
  -30.1840  -17.3930   20.1470 C   0  0  0  0  0  0  0  0  0  0  0  0
  -27.8540  -18.1250   20.9410 C   0  0  0  0  0  1  0  0  0  0  0  0
  -30.6100  -14.7780   20.0270 C   0  0  0  0  0  0  0  0  0  0  0  0
  -30.3010  -12.5490   18.9480 C   0  0  0  0  0  2  0  0  0  0  0  0
  -29.2990  -12.6920   17.7830 C   0  0  0  0  0  2  0  0  0  0  0  0
  -27.8550  -12.5170   18.2880 C   0  0  0  0  0  2  0  0  0  0  0  0
  -27.5630  -13.3550   19.5620 C   0  0  0  0  0  3  0  0  0  0  0  0
  -28.6830  -13.2180   20.6160 C   0  0  0  0  0  2  0  0  0  0  0  0
  -29.9480  -13.5730   19.9600 N   0  0  0  0  0  0  0  0  0  0  0  0
  -31.7880  -14.8240   19.6690 O   0  0  0  0  0  0  0  0  0  0  0  0
  -29.8760  -15.9340   20.3030 N   0  0  0  0  0  0  0  0  0  0  0  0
  -28.9320  -15.7330   20.5940 H   0  0  0  0  0  0  0  0  0  0  0  0
  -25.2130  -13.9280   20.4110 C   0  0  0  0  0  0  0  0  0  0  0  0
  -24.1680  -13.1470   20.8210 C   0  0  0  0  0  0  0  0  0  0  0  0
  -24.6320  -11.7980   20.7490 C   0  0  0  0  0  0  0  0  0  0  0  0
  -26.2460  -13.0550   20.1150 N   0  0  0  0  0  0  0  0  0  0  0  0
  -25.9070  -11.7680   20.3820 N   0  0  0  0  0  0  0  0  0  0  0  0
  -23.9170  -10.5310   20.9540 C   0  0  0  0  0  0  0  0  0  0  0  0
  -24.3810   -9.5600   21.8690 C   0  0  0  0  0  3  0  0  0  0  0  0
  -23.6660   -8.3580   22.0620 C   0  0  0  0  0  3  0  0  0  0  0  0
  -22.4710   -8.1200   21.3420 C   0  0  0  0  0  0  0  0  0  0  0  0
  -22.0260   -9.0790   20.4160 C   0  0  0  0  0  3  0  0  0  0  0  0
  -22.7420  -10.2710   20.2200 C   0  0  0  0  0  3  0  0  0  0  0  0
  -21.7230   -6.9720   21.4470 O   0  0  0  0  0  0  0  0  0  0  0  0
  -21.6970   -6.2330   22.6020 C   0  0  0  0  0  0  0  0  0  0  0  0
  -21.2910   -6.7920   23.8330 C   0  0  0  0  0  3  0  0  0  0  0  0
  -21.2110   -5.9800   24.9830 C   0  0  0  0  0  3  0  0  0  0  0  0
  -21.5270   -4.6100   24.9010 C   0  0  0  0  0  0  0  0  0  0  0  0
  -21.9250   -4.0500   23.6740 C   0  0  0  0  0  3  0  0  0  0  0  0
  -22.0060   -4.8600   22.5280 C   0  0  0  0  0  0  0  0  0  0  0  0
  -22.3700   -4.3110   21.3440 F   0  0  0  0  0  0  0  0  0  0  0  0
  -21.4430   -3.8280   26.0020 F   0  0  0  0  0  0  0  0  0  0  0  0
  -22.7840  -13.6170   21.1610 C   0  0  0  0  0  0  0  0  0  0  0  0
  -22.0970  -12.9060   22.0480 N   0  0  0  0  0  0  0  0  0  0  0  0
  -22.3210  -14.6490   20.6750 O   0  0  0  0  0  0  0  0  0  0  0  0
  -22.4850  -12.0710   22.4600 H   0  0  0  0  0  0  0  0  0  0  0  0
  -21.1700  -13.2010   22.3210 H   0  0  0  0  0  0  0  0  0  0  0  0
  -25.3640  -15.3010   20.2380 N   0  0  0  0  0  0  0  0  0  0  0  0
  -24.5910  -15.9450   20.3700 H   0  0  0  0  0  0  0  0  0  0  0  0
  -26.1680  -15.7340   19.8020 H   0  0  0  0  0  0  0  0  0  0  0  0
  -28.3630  -23.7620   20.4330 C   0  0  0  0  0  0  0  0  0  0  0  0
  -28.8380  -22.5390   19.9770 N   0  0  0  0  0  0  0  0  0  0  0  0
  -27.7800  -23.8270   21.5180 O   0  0  0  0  0  0  0  0  0  0  0  0
  -29.3050  -22.5670   19.0800 H   0  0  0  0  0  0  0  0  0  0  0  0
  -28.4980  -25.1030   19.5620 C   0  0  0  0  0  2  0  0  0  0  0  0
  -28.3740  -26.4420   20.2370 O   0  0  0  0  0  0  0  0  0  0  0  0
  -24.6190  -31.8610   23.2360 C   0  0  0  0  0  0  0  0  0  0  0  0
  -27.2450  -27.2900   20.1550 C   0  0  0  0  0  0  0  0  0  0  0  0
  -23.4260  -30.4750   21.5780 C   0  0  0  0  0  3  0  0  0  0  0  0
  -24.8840  -28.9310   20.1440 C   0  0  0  0  0  0  0  0  0  0  0  0
  -25.9700  -30.7820   21.4170 C   0  0  0  0  0  2  0  0  0  0  0  0
  -26.0490  -29.4080   20.7540 C   0  0  0  0  0  0  0  0  0  0  0  0
  -27.2300  -28.5990   20.7480 C   0  0  0  0  0  3  0  0  0  0  0  0
  -26.0490  -26.8710   19.5300 C   0  0  0  0  0  3  0  0  0  0  0  0
  -24.8890  -27.6710   19.5230 C   0  0  0  0  0  3  0  0  0  0  0  0
  -23.6480  -29.8090   20.1940 C   0  0  0  0  0  2  0  0  0  0  0  0
  -24.6900  -31.0600   22.1320 N   0  0  0  0  0  0  0  0  0  0  0  0
  -23.5330  -32.1330   23.7680 O   0  0  0  0  0  0  0  0  0  0  0  0
  -22.7590  -29.4530   22.5300 C   0  0  0  0  0  0  0  0  0  0  0  0
  -21.4340  -29.2740   22.3950 N   0  0  0  0  0  0  0  0  0  0  0  0
  -23.4330  -28.8220   23.3470 O   0  0  0  0  0  0  0  0  0  0  0  0
  -20.9490  -29.8360   21.7100 H   0  0  0  0  0  0  0  0  0  0  0  0
  -18.0560  -28.0680   22.8790 C   0  0  0  0  0  0  0  0  0  0  0  0
  -20.6140  -28.3320   23.1580 C   0  0  0  0  0  3  0  0  0  0  0  0
  -20.7190  -26.9040   22.5740 C   0  0  0  0  0  2  0  0  0  0  0  0
  -19.6210  -26.5850   21.5540 C   0  0  0  0  0  2  0  0  0  0  0  0
  -18.2370  -26.7240   22.1940 C   0  0  0  0  0  2  0  0  0  0  0  0
  -19.1720  -28.8300   23.3180 C   0  0  0  0  0  0  0  0  0  0  0  0
  -18.9500  -30.0860   23.9200 C   0  0  0  0  0  3  0  0  0  0  0  0
  -17.6430  -30.5840   24.0890 C   0  0  0  0  0  3  0  0  0  0  0  0
  -16.5420  -29.8200   23.6650 C   0  0  0  0  0  3  0  0  0  0  0  0
  -16.7490  -28.5640   23.0670 C   0  0  0  0  0  3  0  0  0  0  0  0
  -25.8960  -32.4930   23.8690 C   0  0  0  0  0  3  0  0  0  0  0  0
  -26.4050  -31.7190   25.1480 C   0  0  1  0  0  0  0  0  0  0  0  0
  -25.3060  -31.4770   26.2100 C   0  0  0  0  0  1  0  0  0  0  0  0
  -26.9920  -30.3430   24.7570 C   0  0  0  0  0  1  0  0  0  0  0  0
  -27.5500  -32.5130   25.8190 C   0  0  0  0  0  1  0  0  0  0  0  0
  -25.5820  -33.8900   24.2060 N   0  0  0  0  0  0  0  0  0  0  0  0
  -25.9130  -34.9490   23.4550 C   0  0  0  0  0  0  0  0  0  0  0  0
  -26.5820  -34.8520   22.4230 O   0  0  0  0  0  0  0  0  0  0  0  0
  -24.9890  -34.0360   25.0090 H   0  0  0  0  0  0  0  0  0  0  0  0
  -24.1800  -36.7410   23.1130 C   0  0  0  0  0  1  0  0  0  0  0  0
  -25.4230  -36.3350   23.9210 C   0  0  0  0  0  3  0  0  0  0  0  0
  -27.5570  -37.2200   24.7520 C   0  0  0  0  0  1  0  0  0  0  0  0
  -26.4530  -37.3900   23.8110 N   0  0  0  0  0  0  0  0  0  0  0  0
  -26.0460  -38.3100   23.9620 H   0  0  0  0  0  0  0  0  0  0  0  0
  2  4  2  0
  2  3  1  0
  3  5  2  0
  4  7  1  0
  5  6  1  0
  5  1  1  0
  6  8  1  0
  7 17  1  0
  7  6  2  0
  9 17  1  0
 10 15  1  0
 11 12  1  0
 11 10  1  0
 13 12  1  0
 13 22  1  0
 13 14  1  0
 15  9  1  0
 15 14  1  0
 16  9  2  0
 17 18  1  0
 19 20  2  0
 20 39  1  0
 21 20  1  0
 21 24  1  0
 22 23  1  0
 22 19  1  0
 23 21  2  0
 24 25  1  0
 25 26  2  0
 27 30  1  0
 27 26  1  0
 28 27  2  0
 29 28  1  0
 29 24  2  0
 30 31  1  0
 31 32  1  0
 32 33  2  0
 34 33  1  0
 34 38  1  0
 35 34  2  0
 36 31  2  0
 36 35  1  0
 37 36  1  0
 39 40  1  0
 40 43  1  0
 40 42  1  0
 41 39  2  0
 44 45  1  0
 44 19  1  0
 46 44  1  0
 47 49  2  0
 48 47  1  0
 48  1  1  0
 50 48  1  0
 51 52  1  0
 51 47  1  0
 53 64  2  0
 54 52  1  0
 54 59  1  0
 55 63  1  0
 55 65  1  0
 56 62  1  0
 56 58  1  0
 57 63  1  0
 58 57  1  0
 59 58  2  0
 60 54  2  0
 61 60  1  0
 61 56  2  0
 62 55  1  0
 63 53  1  0
 65 67  2  0
 66 65  1  0
 68 66  1  0
 69 78  2  0
 69 74  1  0
 70 66  1  0
 70 74  1  0
 71 70  1  0
 72 73  1  0
 72 71  1  0
 73 69  1  0
 74 75  2  0
 75 76  1  0
 77 76  2  0
 78 77  1  0
 79 53  1  0
 79 84  1  0
 79 80  1  0
 80 83  1  1
 80 81  1  0
 82 80  1  0
 84 87  1  0
 85 89  1  0
 85 84  1  0
 86 85  2  0
 89 88  1  0
 91 89  1  0
 91 92  1  0
 91 90  1  0
M  ISO  4   9 100  17 100  51 101  52 101
M  END
>  <TORSDO>  (45) 
F 19

>  <SCORE>  (45) 
-13.664

>  <name>  (45) 
44

>  <ligand_id>  (45) 
44

>  <original_smiles>  (45) 
[H]c1c([H])c(N([H])C(=O)N2C([H])([H])C([H])([H])C([H])([H])C([H])(n3nc(-c4c([H])c([H])c(Oc5c([H])c([H])c(F)c([H])c5F)c([H])c4[H])c(C(=O)N([H])[H])c3N([H])[H])C2([H])[H])c(C([H])([H])[H])c(C([H])([H])N([H])C(=O)C([H])([H])Oc2c([H])c([H])c3c(c2[H])C([H])([H])N(C(=O)C([H])(N([H])C(=O)C([H])(N([H])C([H])([H])[H])C([H])([H])[H])C(C([H])([H])[H])(C([H])([H])[H])C([H])([H])[H])C([H])(C(=O)N([H])C2([H])c4c([H])c([H])c([H])c([H])c4C([H])([H])C([H])([H])C2([H])[H])C3([H])[H])c1[H]

>  <smiles>  (45) 
[H]c1c([H])c(N([H])C(=O)N2C([H])([H])C([H])([H])C([H])([H])C([H])(n3nc(-c4c([H])c([H])c(Oc5c([H])c([H])c(F)c([H])c5F)c([H])c4[H])c(C(=O)N([H])[H])c3N([H])[H])C2([H])[H])c(C([H])([H])[H])c(C([H])([H])N([H])C(=O)C([H])([H])Oc2c([H])c([H])c3c(c2[H])C([H])([H])N(C(=O)C([H])(N([H])C(=O)C([H])(N([H])C([H])([H])[H])C([H])([H])[H])C(C([H])([H])[H])(C([H])([H])[H])C([H])([H])[H])C([H])(C(=O)N([H])C2([H])c4c([H])c([H])c([H])c([H])c4C([H])([H])C([H])([H])C2([H])[H])C3([H])[H])c1[H]

$$$$
45:0:0
     RDKit          3D

 94102  0  0  1  0  0  0  0  0999 V2000
  -28.8090  -22.6360   20.8950 C   0  0  0  0  0  2  0  0  0  0  0  0
  -29.4910  -20.0330   20.7760 C   0  0  0  0  0  3  0  0  0  0  0  0
  -28.9760  -18.6360   18.8600 C   0  0  0  0  0  3  0  0  0  0  0  0
  -28.4320  -21.0510   18.8460 C   0  0  0  0  0  3  0  0  0  0  0  0
  -29.5240  -18.7140   20.1560 C   0  0  0  0  0  0  0  0  0  0  0  0
  -28.9450  -21.2290   20.1490 C   0  0  0  0  0  0  0  0  0  0  0  0
  -28.4470  -19.7820   18.2190 C   0  0  0  0  0  0  0  0  0  0  0  0
  -27.8030  -19.6270   16.6250 Cl  0  0  0  0  0  0  0  0  0  0  0  0
  -30.2280  -17.4340   20.8030 C   0  0  0  0  0  2  0  0  0  0  0  0
  -30.6040  -14.8630   20.3120 C   0  0  0  0  0  0  0  0  0  0  0  0
  -30.4450  -12.5820   19.2960 C   0  0  0  0  0  2  0  0  0  0  0  0
  -29.5060  -12.6310   18.0710 C   0  0  0  0  0  2  0  0  0  0  0  0
  -28.0360  -12.4390   18.5000 C   0  0  0  0  0  2  0  0  0  0  0  0
  -27.6490  -13.3250   19.7140 C   0  0  0  0  0  3  0  0  0  0  0  0
  -28.7060  -13.2540   20.8350 C   0  0  0  0  0  2  0  0  0  0  0  0
  -29.9930  -13.6300   20.2370 N   0  0  0  0  0  0  0  0  0  0  0  0
  -31.7980  -14.9730   20.0210 O   0  0  0  0  0  0  0  0  0  0  0  0
  -29.8170  -15.9850   20.5310 N   0  0  0  0  0  0  0  0  0  0  0  0
  -28.8370  -15.7900   20.6710 H   0  0  0  0  0  0  0  0  0  0  0  0
  -25.2510  -13.8860   20.4300 C   0  0  0  0  0  0  0  0  0  0  0  0
  -24.1970  -13.0980   20.8040 C   0  0  0  0  0  0  0  0  0  0  0  0
  -24.6800  -11.7540   20.7870 C   0  0  0  0  0  0  0  0  0  0  0  0
  -26.3090  -13.0200   20.2050 N   0  0  0  0  0  0  0  0  0  0  0  0
  -25.9720  -11.7330   20.4840 N   0  0  0  0  0  0  0  0  0  0  0  0
  -23.9720  -10.4830   20.9860 C   0  0  0  0  0  0  0  0  0  0  0  0
  -24.4040   -9.5390   21.9420 C   0  0  0  0  0  3  0  0  0  0  0  0
  -23.6950   -8.3320   22.1270 C   0  0  0  0  0  3  0  0  0  0  0  0
  -22.5400   -8.0620   21.3550 C   0  0  0  0  0  0  0  0  0  0  0  0
  -22.1280   -8.9950   20.3870 C   0  0  0  0  0  3  0  0  0  0  0  0
  -22.8390  -10.1930   20.2000 C   0  0  0  0  0  3  0  0  0  0  0  0
  -21.8030   -6.9060   21.4480 O   0  0  0  0  0  0  0  0  0  0  0  0
  -21.7340   -6.1900   22.6150 C   0  0  0  0  0  0  0  0  0  0  0  0
  -21.2360   -6.7560   23.8090 C   0  0  0  0  0  3  0  0  0  0  0  0
  -21.1170   -5.9630   24.9690 C   0  0  0  0  0  3  0  0  0  0  0  0
  -21.4830   -4.6050   24.9340 C   0  0  0  0  0  0  0  0  0  0  0  0
  -21.9720   -4.0370   23.7440 C   0  0  0  0  0  3  0  0  0  0  0  0
  -22.0940   -4.8270   22.5880 C   0  0  0  0  0  0  0  0  0  0  0  0
  -22.5460   -4.2700   21.4380 F   0  0  0  0  0  0  0  0  0  0  0  0
  -21.3620   -3.8410   26.0450 F   0  0  0  0  0  0  0  0  0  0  0  0
  -22.7910  -13.5570   21.0650 C   0  0  0  0  0  0  0  0  0  0  0  0
  -22.0670  -12.8540   21.9280 N   0  0  0  0  0  0  0  0  0  0  0  0
  -22.3420  -14.5750   20.5370 O   0  0  0  0  0  0  0  0  0  0  0  0
  -22.4420  -12.0320   22.3770 H   0  0  0  0  0  0  0  0  0  0  0  0
  -21.1230  -13.1420   22.1440 H   0  0  0  0  0  0  0  0  0  0  0  0
  -25.3920  -15.2560   20.2360 N   0  0  0  0  0  0  0  0  0  0  0  0
  -24.6050  -15.8910   20.3230 H   0  0  0  0  0  0  0  0  0  0  0  0
  -26.2180  -15.7020   19.8600 H   0  0  0  0  0  0  0  0  0  0  0  0
  -28.1920  -25.2400   20.7880 C   0  0  0  0  0  3  0  0  0  0  0  0
  -27.5060  -24.4300   23.1230 C   0  0  0  0  0  1  0  0  0  0  0  0
  -28.6260  -24.0250   20.2310 N   0  0  0  0  0  0  0  0  0  0  0  0
  -27.7220  -25.4030   22.0450 N   0  0  0  0  0  0  0  0  0  0  0  0
  -28.9550  -24.0750   19.2790 H   0  0  0  0  0  0  0  0  0  0  0  0
  -27.4810  -26.3510   22.2960 H   0  0  0  0  0  0  0  0  0  0  0  0
  -28.2810  -26.4490   20.0760 O   0  0  0  0  0  0  0  0  0  0  0  0
  -24.6180  -31.9160   23.2220 C   0  0  0  0  0  0  0  0  0  0  0  0
  -27.2060  -27.3680   20.0960 C   0  0  0  0  0  0  0  0  0  0  0  0
  -23.4040  -30.5320   21.5790 C   0  0  0  0  0  3  0  0  0  0  0  0
  -24.8470  -28.9950   20.1240 C   0  0  0  0  0  0  0  0  0  0  0  0
  -25.9430  -30.8530   21.3750 C   0  0  0  0  0  2  0  0  0  0  0  0
  -26.0230  -29.4770   20.7140 C   0  0  0  0  0  0  0  0  0  0  0  0
  -27.2110  -28.6760   20.6880 C   0  0  0  0  0  3  0  0  0  0  0  0
  -26.0090  -26.9460   19.4880 C   0  0  0  0  0  3  0  0  0  0  0  0
  -24.8420  -27.7380   19.5000 C   0  0  0  0  0  3  0  0  0  0  0  0
  -23.6100  -29.8710   20.1890 C   0  0  0  0  0  2  0  0  0  0  0  0
  -24.6740  -31.1180   22.1150 N   0  0  0  0  0  0  0  0  0  0  0  0
  -23.5400  -32.1840   23.7700 O   0  0  0  0  0  0  0  0  0  0  0  0
  -22.7510  -29.5050   22.5340 C   0  0  0  0  0  0  0  0  0  0  0  0
  -21.4270  -29.3140   22.4100 N   0  0  0  0  0  0  0  0  0  0  0  0
  -23.4380  -28.8800   23.3480 O   0  0  0  0  0  0  0  0  0  0  0  0
  -20.9310  -29.8700   21.7270 H   0  0  0  0  0  0  0  0  0  0  0  0
  -18.0640  -28.0750   22.9080 C   0  0  0  0  0  0  0  0  0  0  0  0
  -20.6190  -28.3630   23.1760 C   0  0  0  0  0  3  0  0  0  0  0  0
  -20.7380  -26.9360   22.5930 C   0  0  0  0  0  2  0  0  0  0  0  0
  -19.6380  -26.6060   21.5790 C   0  0  0  0  0  2  0  0  0  0  0  0
  -18.2550  -26.7310   22.2250 C   0  0  0  0  0  2  0  0  0  0  0  0
  -19.1740  -28.8470   23.3410 C   0  0  0  0  0  0  0  0  0  0  0  0
  -18.9400  -30.1050   23.9400 C   0  0  0  0  0  3  0  0  0  0  0  0
  -17.6290  -30.5880   24.1120 C   0  0  0  0  0  3  0  0  0  0  0  0
  -16.5340  -29.8120   23.6940 C   0  0  0  0  0  3  0  0  0  0  0  0
  -16.7530  -28.5570   23.0980 C   0  0  0  0  0  3  0  0  0  0  0  0
  -25.9050  -32.5460   23.8400 C   0  0  0  0  0  3  0  0  0  0  0  0
  -26.4210  -31.7760   25.1190 C   0  0  1  0  0  0  0  0  0  0  0  0
  -25.3270  -31.5440   26.1870 C   0  0  0  0  0  1  0  0  0  0  0  0
  -26.9990  -30.3970   24.7320 C   0  0  0  0  0  1  0  0  0  0  0  0
  -27.5710  -32.5710   25.7800 C   0  0  0  0  0  1  0  0  0  0  0  0
  -25.6000  -33.9470   24.1680 N   0  0  0  0  0  0  0  0  0  0  0  0
  -25.9240  -34.9970   23.4020 C   0  0  0  0  0  0  0  0  0  0  0  0
  -26.5810  -34.8890   22.3630 O   0  0  0  0  0  0  0  0  0  0  0  0
  -25.0200  -34.1040   24.9780 H   0  0  0  0  0  0  0  0  0  0  0  0
  -24.2010  -36.7960   23.0600 C   0  0  0  0  0  1  0  0  0  0  0  0
  -25.4460  -36.3870   23.8620 C   0  0  0  0  0  3  0  0  0  0  0  0
  -27.5870  -37.2700   24.6820 C   0  0  0  0  0  1  0  0  0  0  0  0
  -26.4820  -37.4370   23.7400 N   0  0  0  0  0  0  0  0  0  0  0  0
  -26.0790  -38.3580   23.8870 H   0  0  0  0  0  0  0  0  0  0  0  0
  3  5  2  0
  4  6  1  0
  5  2  1  0
  5  9  1  0
  6  2  2  0
  6  1  1  0
  7  4  2  0
  7  3  1  0
  8  7  1  0
 10 18  1  0
 11 16  1  0
 12 13  1  0
 12 11  1  0
 14 13  1  0
 14 23  1  0
 14 15  1  0
 16 10  1  0
 16 15  1  0
 17 10  2  0
 18 19  1  0
 18  9  1  0
 20 21  2  0
 21 40  1  0
 22 21  1  0
 22 25  1  0
 23 20  1  0
 23 24  1  0
 24 22  2  0
 25 26  1  0
 26 27  2  0
 28 31  1  0
 28 27  1  0
 29 28  2  0
 30 29  1  0
 30 25  2  0
 31 32  1  0
 32 33  1  0
 33 34  2  0
 35 34  1  0
 35 39  1  0
 36 35  2  0
 37 32  2  0
 37 36  1  0
 38 37  1  0
 40 41  1  0
 41 44  1  0
 41 43  1  0
 42 40  2  0
 45 46  1  0
 45 20  1  0
 47 45  1  0
 48 54  1  0
 48 51  1  0
 50 48  1  0
 50  1  1  0
 51 53  1  0
 51 49  1  0
 52 50  1  0
 54 56  1  0
 55 66  2  0
 56 61  1  0
 57 65  1  0
 57 67  1  0
 58 64  1  0
 58 60  1  0
 59 65  1  0
 60 59  1  0
 61 60  2  0
 62 63  1  0
 62 56  2  0
 63 58  2  0
 64 57  1  0
 65 55  1  0
 67 69  2  0
 68 67  1  0
 70 68  1  0
 71 80  2  0
 71 76  1  0
 72 68  1  0
 72 76  1  0
 73 72  1  0
 74 75  1  0
 74 73  1  0
 75 71  1  0
 76 77  2  0
 77 78  1  0
 79 78  2  0
 80 79  1  0
 81 55  1  0
 81 86  1  0
 81 82  1  0
 82 85  1  1
 82 83  1  0
 84 82  1  0
 86 89  1  0
 87 91  1  0
 87 86  1  0
 88 87  2  0
 91 90  1  0
 93 91  1  0
 93 94  1  0
 93 92  1  0
M  ISO  4  10 100  18 100  48 101  54 101
M  END
>  <TORSDO>  (46) 
F 19

>  <SCORE>  (46) 
-13.664

>  <name>  (46) 
45

>  <ligand_id>  (46) 
45

>  <original_smiles>  (46) 
[H]c1c([H])c([H])c2c(c1[H])C([H])([H])C([H])([H])C([H])([H])C2([H])N([H])C(=O)C1([H])N(C(=O)C([H])(N([H])C(=O)C([H])(N([H])C([H])([H])[H])C([H])([H])[H])C(C([H])([H])[H])(C([H])([H])[H])C([H])([H])[H])C([H])([H])c2c([H])c(OC(N([H])C([H])([H])c3c([H])c(Cl)c([H])c(C([H])([H])N([H])C(=O)N4C([H])([H])C([H])([H])C([H])([H])C([H])(n5nc(-c6c([H])c([H])c(Oc7c([H])c([H])c(F)c([H])c7F)c([H])c6[H])c(C(=O)N([H])[H])c5N([H])[H])C4([H])[H])c3[H])=[N+]([H])C([H])([H])[H])c([H])c([H])c2C1([H])[H]

>  <smiles>  (46) 
[H]c1c([H])c([H])c2c(c1[H])C([H])([H])C([H])([H])C([H])([H])C2([H])N([H])C(=O)C1([H])N(C(=O)C([H])(N([H])C(=O)C([H])(N([H])C([H])([H])[H])C([H])([H])[H])C(C([H])([H])[H])(C([H])([H])[H])C([H])([H])[H])C([H])([H])c2c([H])c(OC(N([H])C([H])([H])c3c([H])c(Cl)c([H])c(C([H])([H])N([H])C(=O)N4C([H])([H])C([H])([H])C([H])([H])C([H])(n5nc(-c6c([H])c([H])c(Oc7c([H])c([H])c(F)c([H])c7F)c([H])c6[H])c(C(=O)N([H])[H])c5N([H])[H])C4([H])[H])c3[H])=[N+]([H])C([H])([H])[H])c([H])c([H])c2C1([H])[H]

$$$$
46:0:0
     RDKit          3D

 93101  0  0  1  0  0  0  0  0999 V2000
  -29.5960  -21.2350   20.8960 C   0  0  0  0  0  2  0  0  0  0  0  0
  -29.6560  -18.5430   20.9890 C   0  0  0  0  0  3  0  0  0  0  0  0
  -29.1870  -18.3610   18.2640 C   0  0  0  0  0  3  0  0  0  0  0  0
  -29.4990  -19.7850   20.2330 C   0  0  0  0  0  0  0  0  0  0  0  0
  -29.3380  -19.6440   18.8300 C   0  0  0  0  0  0  0  0  0  0  0  0
  -29.6000  -17.2070   20.4080 C   0  0  0  0  0  0  0  0  0  0  0  0
  -29.2810  -17.1780   19.0200 C   0  0  0  0  0  0  0  0  0  0  0  0
  -29.3570  -20.8400   17.8830 C   0  0  0  0  0  1  0  0  0  0  0  0
  -28.9200  -15.7190   18.1760 Cl  0  0  0  0  0  0  0  0  0  0  0  0
  -30.5250  -14.8340   20.9990 C   0  0  0  0  0  0  0  0  0  0  0  0
  -30.5420  -12.4430   20.2730 C   0  0  0  0  0  2  0  0  0  0  0  0
  -29.7730  -12.3690   18.9380 C   0  0  0  0  0  2  0  0  0  0  0  0
  -28.2540  -12.2460   19.1820 C   0  0  0  0  0  2  0  0  0  0  0  0
  -27.7190  -13.2000   20.2840 C   0  0  0  0  0  3  0  0  0  0  0  0
  -28.6360  -13.2170   21.5260 C   0  0  0  0  0  2  0  0  0  0  0  0
  -29.9820  -13.5670   21.0600 N   0  0  0  0  0  0  0  0  0  0  0  0
  -31.7130  -14.9790   20.6940 O   0  0  0  0  0  0  0  0  0  0  0  0
  -29.6860  -15.9300   21.1720 N   0  0  0  0  0  0  0  0  0  0  0  0
  -28.8490  -15.7140   21.6910 H   0  0  0  0  0  0  0  0  0  0  0  0
  -25.2530  -13.7610   20.7350 C   0  0  0  0  0  0  0  0  0  0  0  0
  -24.1720  -12.9730   21.0210 C   0  0  0  0  0  0  0  0  0  0  0  0
  -24.6600  -11.6330   21.0740 C   0  0  0  0  0  0  0  0  0  0  0  0
  -26.3340  -12.8980   20.6320 N   0  0  0  0  0  0  0  0  0  0  0  0
  -25.9760  -11.6150   20.8970 N   0  0  0  0  0  0  0  0  0  0  0  0
  -23.9460  -10.3590   21.2210 C   0  0  0  0  0  0  0  0  0  0  0  0
  -24.3220   -9.4060   22.1920 C   0  0  0  0  0  3  0  0  0  0  0  0
  -23.6030   -8.1970   22.3220 C   0  0  0  0  0  3  0  0  0  0  0  0
  -22.4950   -7.9340   21.4810 C   0  0  0  0  0  0  0  0  0  0  0  0
  -22.1390   -8.8790   20.5030 C   0  0  0  0  0  3  0  0  0  0  0  0
  -22.8590  -10.0780   20.3700 C   0  0  0  0  0  3  0  0  0  0  0  0
  -21.7500   -6.7780   21.5230 O   0  0  0  0  0  0  0  0  0  0  0  0
  -21.6490   -6.0300   22.6690 C   0  0  0  0  0  0  0  0  0  0  0  0
  -21.1520   -6.5730   23.8760 C   0  0  0  0  0  3  0  0  0  0  0  0
  -21.0010   -5.7490   25.0070 C   0  0  0  0  0  3  0  0  0  0  0  0
  -21.3360   -4.3820   24.9360 C   0  0  0  0  0  0  0  0  0  0  0  0
  -21.8270   -3.8400   23.7350 C   0  0  0  0  0  3  0  0  0  0  0  0
  -21.9820   -4.6620   22.6050 C   0  0  0  0  0  0  0  0  0  0  0  0
  -22.4350   -4.1290   21.4430 F   0  0  0  0  0  0  0  0  0  0  0  0
  -21.1860   -3.5880   26.0220 F   0  0  0  0  0  0  0  0  0  0  0  0
  -22.7440  -13.4310   21.1390 C   0  0  0  0  0  0  0  0  0  0  0  0
  -21.9400  -12.7440   21.9440 N   0  0  0  0  0  0  0  0  0  0  0  0
  -22.3450  -14.4340   20.5520 O   0  0  0  0  0  0  0  0  0  0  0  0
  -22.2530  -11.9230   22.4370 H   0  0  0  0  0  0  0  0  0  0  0  0
  -20.9840  -13.0530   22.0700 H   0  0  0  0  0  0  0  0  0  0  0  0
  -25.4070  -15.1280   20.5290 N   0  0  0  0  0  0  0  0  0  0  0  0
  -24.6160  -15.7600   20.5320 H   0  0  0  0  0  0  0  0  0  0  0  0
  -26.2700  -15.5650   20.2290 H   0  0  0  0  0  0  0  0  0  0  0  0
  -29.0680  -23.7960   20.4440 C   0  0  0  0  0  0  0  0  0  0  0  0
  -28.7720  -22.4370   20.4200 N   0  0  0  0  0  0  0  0  0  0  0  0
  -30.1710  -24.1800   20.8390 O   0  0  0  0  0  0  0  0  0  0  0  0
  -27.8350  -22.2100   20.1170 H   0  0  0  0  0  0  0  0  0  0  0  0
  -28.0070  -24.8960   19.9550 C   0  0  0  0  0  2  0  0  0  0  0  0
  -28.3180  -26.3680   20.1200 O   0  0  0  0  0  0  0  0  0  0  0  0
  -24.6340  -31.8470   23.1890 C   0  0  0  0  0  0  0  0  0  0  0  0
  -27.2380  -27.2870   20.0610 C   0  0  0  0  0  0  0  0  0  0  0  0
  -23.4370  -30.4700   21.5280 C   0  0  0  0  0  3  0  0  0  0  0  0
  -24.8920  -28.9530   20.0700 C   0  0  0  0  0  0  0  0  0  0  0  0
  -25.9840  -30.7820   21.3580 C   0  0  0  0  0  2  0  0  0  0  0  0
  -26.0650  -29.4110   20.6830 C   0  0  0  0  0  0  0  0  0  0  0  0
  -27.2420  -28.5920   20.6700 C   0  0  0  0  0  3  0  0  0  0  0  0
  -26.0410  -26.9110   19.4070 C   0  0  0  0  0  3  0  0  0  0  0  0
  -24.8870  -27.7150   19.4150 C   0  0  0  0  0  3  0  0  0  0  0  0
  -23.6580  -29.8290   20.1340 C   0  0  0  0  0  2  0  0  0  0  0  0
  -24.7040  -31.0510   22.0820 N   0  0  0  0  0  0  0  0  0  0  0  0
  -23.5480  -32.1130   23.7250 O   0  0  0  0  0  0  0  0  0  0  0  0
  -22.7760  -29.4350   22.4720 C   0  0  0  0  0  0  0  0  0  0  0  0
  -21.4440  -29.2770   22.3650 N   0  0  0  0  0  0  0  0  0  0  0  0
  -23.4620  -28.7770   23.2600 O   0  0  0  0  0  0  0  0  0  0  0  0
  -20.9540  -29.8600   21.7020 H   0  0  0  0  0  0  0  0  0  0  0  0
  -18.0530  -28.1260   22.9050 C   0  0  0  0  0  0  0  0  0  0  0  0
  -20.6230  -28.3310   23.1260 C   0  0  0  0  0  3  0  0  0  0  0  0
  -20.6870  -26.9180   22.5010 C   0  0  0  0  0  2  0  0  0  0  0  0
  -19.5550  -26.6470   21.5050 C   0  0  0  0  0  2  0  0  0  0  0  0
  -18.1910  -26.7960   22.1830 C   0  0  0  0  0  2  0  0  0  0  0  0
  -19.1960  -28.8550   23.3320 C   0  0  0  0  0  0  0  0  0  0  0  0
  -19.0110  -30.1020   23.9690 C   0  0  0  0  0  3  0  0  0  0  0  0
  -17.7180  -30.6180   24.1830 C   0  0  0  0  0  3  0  0  0  0  0  0
  -16.5920  -29.8850   23.7710 C   0  0  0  0  0  3  0  0  0  0  0  0
  -16.7600  -28.6400   23.1370 C   0  0  0  0  0  3  0  0  0  0  0  0
  -25.9140  -32.4760   23.8230 C   0  0  0  0  0  3  0  0  0  0  0  0
  -26.4530  -31.6640   25.0640 C   0  0  1  0  0  0  0  0  0  0  0  0
  -25.3750  -31.3700   26.1340 C   0  0  0  0  0  1  0  0  0  0  0  0
  -27.0470  -30.3080   24.6160 C   0  0  0  0  0  1  0  0  0  0  0  0
  -27.6050  -32.4460   25.7390 C   0  0  0  0  0  1  0  0  0  0  0  0
  -25.5890  -33.8560   24.2080 N   0  0  0  0  0  0  0  0  0  0  0  0
  -25.9170  -34.9420   23.4960 C   0  0  0  0  0  0  0  0  0  0  0  0
  -26.5930  -34.8870   22.4650 O   0  0  0  0  0  0  0  0  0  0  0  0
  -24.9930  -33.9740   25.0140 H   0  0  0  0  0  0  0  0  0  0  0  0
  -24.1840  -36.7410   23.1930 C   0  0  0  0  0  1  0  0  0  0  0  0
  -25.4140  -36.3070   24.0080 C   0  0  0  0  0  3  0  0  0  0  0  0
  -27.5290  -37.1610   24.9170 C   0  0  0  0  0  1  0  0  0  0  0  0
  -26.4440  -37.3690   23.9620 N   0  0  0  0  0  0  0  0  0  0  0  0
  -26.0310  -38.2800   24.1430 H   0  0  0  0  0  0  0  0  0  0  0  0
  3  5  2  0
  3  7  1  0
  4  1  1  0
  4  2  2  0
  5  4  1  0
  6  2  1  0
  6 18  1  0
  7  6  2  0
  8  5  1  0
  9  7  1  0
 10 16  1  0
 10 18  1  0
 11 16  1  0
 12 13  1  0
 12 11  1  0
 14 13  1  0
 14 23  1  0
 14 15  1  0
 16 15  1  0
 17 10  2  0
 18 19  1  0
 20 21  2  0
 21 22  1  0
 21 40  1  0
 22 25  1  0
 23 20  1  0
 23 24  1  0
 24 22  2  0
 25 26  1  0
 26 27  2  0
 28 31  1  0
 28 27  1  0
 29 28  2  0
 30 29  1  0
 30 25  2  0
 31 32  1  0
 32 33  1  0
 33 34  2  0
 35 34  1  0
 35 39  1  0
 36 35  2  0
 37 32  2  0
 37 36  1  0
 38 37  1  0
 40 41  1  0
 41 44  1  0
 41 43  1  0
 42 40  2  0
 45 46  1  0
 45 20  1  0
 47 45  1  0
 48 50  2  0
 49 48  1  0
 49  1  1  0
 51 49  1  0
 52 53  1  0
 52 48  1  0
 54 65  2  0
 55 53  1  0
 55 60  1  0
 56 64  1  0
 56 66  1  0
 57 63  1  0
 57 59  1  0
 58 64  1  0
 59 58  1  0
 60 59  2  0
 61 62  1  0
 61 55  2  0
 62 57  2  0
 63 56  1  0
 64 54  1  0
 66 68  2  0
 67 66  1  0
 69 67  1  0
 70 79  2  0
 70 75  1  0
 71 67  1  0
 71 75  1  0
 72 71  1  0
 73 74  1  0
 73 72  1  0
 74 70  1  0
 75 76  2  0
 76 77  1  0
 78 77  2  0
 79 78  1  0
 80 54  1  0
 80 85  1  0
 80 81  1  0
 81 84  1  1
 81 82  1  0
 83 81  1  0
 85 88  1  0
 86 90  1  0
 86 85  1  0
 87 86  2  0
 90 89  1  0
 92 90  1  0
 92 93  1  0
 92 91  1  0
M  ISO  4  10 100  18 100  52 101  53 101
M  END
>  <TORSDO>  (47) 
F 19

>  <SCORE>  (47) 
-13.002

>  <name>  (47) 
46

>  <ligand_id>  (47) 
46

>  <original_smiles>  (47) 
[H]c1c([H])c([H])c2c(c1[H])C([H])([H])C([H])([H])C([H])([H])C2([H])N([H])C(=O)C1([H])N(C(=O)C([H])(N([H])C(=O)C([H])(N([H])C([H])([H])[H])C([H])([H])[H])C(C([H])([H])[H])(C([H])([H])[H])C([H])([H])[H])C([H])([H])c2c([H])c(OC([H])([H])C(=O)N([H])C([H])([H])c3c([H])c(N([H])C(=O)N4C([H])([H])C([H])([H])C([H])([H])C([H])(n5nc(-c6c([H])c([H])c(Oc7c([H])c([H])c(F)c([H])c7F)c([H])c6[H])c(C(=O)N([H])[H])c5N([H])[H])C4([H])[H])c(Cl)c([H])c3C([H])([H])[H])c([H])c([H])c2C1([H])[H]

>  <smiles>  (47) 
[H]c1c([H])c([H])c2c(c1[H])C([H])([H])C([H])([H])C([H])([H])C2([H])N([H])C(=O)C1([H])N(C(=O)C([H])(N([H])C(=O)C([H])(N([H])C([H])([H])[H])C([H])([H])[H])C(C([H])([H])[H])(C([H])([H])[H])C([H])([H])[H])C([H])([H])c2c([H])c(OC([H])([H])C(=O)N([H])C([H])([H])c3c([H])c(N([H])C(=O)N4C([H])([H])C([H])([H])C([H])([H])C([H])(n5nc(-c6c([H])c([H])c(Oc7c([H])c([H])c(F)c([H])c7F)c([H])c6[H])c(C(=O)N([H])[H])c5N([H])[H])C4([H])[H])c(Cl)c([H])c3C([H])([H])[H])c([H])c([H])c2C1([H])[H]

$$$$
47:0:0
     RDKit          3D

 95104  0  0  1  0  0  0  0  0999 V2000
  -28.5180  -22.4930   18.6420 C   0  0  0  0  0  0  0  0  0  0  0  0
  -28.0340  -21.9330   17.5080 C   0  0  0  0  0  3  0  0  0  0  0  0
  -28.5690  -24.0790   18.6350 C   0  0  0  0  0  2  0  0  0  0  0  0
  -28.1010  -23.9350   21.0700 C   0  0  0  0  0  2  0  0  0  0  0  0
  -28.8190  -22.5150   21.0970 C   0  0  0  0  0  2  0  0  0  0  0  0
  -28.6630  -24.8820   19.9790 C   0  0  0  0  0  3  0  0  0  0  0  0
  -27.6990  -20.4830   17.2050 C   0  0  0  0  0  1  0  0  0  0  0  0
  -28.8510  -21.7510   19.8200 N   0  0  0  0  0  0  0  0  0  0  0  0
  -28.4200  -19.3940   20.6700 C   0  0  0  0  0  3  0  0  0  0  0  0
  -30.5920  -18.2440   19.3720 C   0  0  0  0  0  3  0  0  0  0  0  0
  -28.6680  -17.9760   20.7480 C   0  0  0  0  0  0  0  0  0  0  0  0
  -30.3460  -19.6740   19.3060 C   0  0  0  0  0  0  0  0  0  0  0  0
  -29.2100  -20.3180   19.9240 C   0  0  0  0  0  0  0  0  0  0  0  0
  -29.7540  -17.3240   20.0770 C   0  0  0  0  0  0  0  0  0  0  0  0
  -27.7180  -17.1420   21.5920 C   0  0  0  0  0  1  0  0  0  0  0  0
  -31.3640  -20.5160   18.5540 C   0  0  0  0  0  1  0  0  0  0  0  0
  -30.6250  -14.8030   19.5650 C   0  0  0  0  0  0  0  0  0  0  0  0
  -30.3620  -12.5570   18.4680 C   0  0  0  0  0  2  0  0  0  0  0  0
  -29.2450  -12.6630   17.4020 C   0  0  0  0  0  2  0  0  0  0  0  0
  -27.8560  -12.4420   18.0320 C   0  0  0  0  0  2  0  0  0  0  0  0
  -27.6610  -13.2580   19.3370 C   0  0  0  0  0  3  0  0  0  0  0  0
  -28.8730  -13.1050   20.2830 C   0  0  0  0  0  2  0  0  0  0  0  0
  -30.0650  -13.5380   19.5390 N   0  0  0  0  0  0  0  0  0  0  0  0
  -31.7160  -14.9970   19.0160 O   0  0  0  0  0  0  0  0  0  0  0  0
  -29.8500  -15.8230   20.1210 N   0  0  0  0  0  0  0  0  0  0  0  0
  -29.0880  -15.4140   20.6380 H   0  0  0  0  0  0  0  0  0  0  0  0
  -25.4270  -13.7940   20.4800 C   0  0  0  0  0  0  0  0  0  0  0  0
  -24.4170  -12.9970   20.9430 C   0  0  0  0  0  0  0  0  0  0  0  0
  -24.8380  -11.6520   20.7090 C   0  0  0  0  0  0  0  0  0  0  0  0
  -26.4020  -12.9340   20.0010 N   0  0  0  0  0  0  0  0  0  0  0  0
  -26.0620  -11.6340   20.1980 N   0  0  0  0  0  0  0  0  0  0  0  0
  -24.1190  -10.3840   20.8890 C   0  0  0  0  0  0  0  0  0  0  0  0
  -24.5810   -9.3940   21.7830 C   0  0  0  0  0  3  0  0  0  0  0  0
  -23.8610   -8.1910   21.9530 C   0  0  0  0  0  3  0  0  0  0  0  0
  -22.6660   -7.9710   21.2290 C   0  0  0  0  0  0  0  0  0  0  0  0
  -22.2220   -8.9500   20.3220 C   0  0  0  0  0  3  0  0  0  0  0  0
  -22.9420  -10.1450   20.1510 C   0  0  0  0  0  3  0  0  0  0  0  0
  -21.9150   -6.8230   21.3090 O   0  0  0  0  0  0  0  0  0  0  0  0
  -21.7690   -6.1420   22.4910 C   0  0  0  0  0  0  0  0  0  0  0  0
  -21.2220   -6.7510   23.6400 C   0  0  0  0  0  3  0  0  0  0  0  0
  -21.0250   -5.9950   24.8130 C   0  0  0  0  0  3  0  0  0  0  0  0
  -21.3640   -4.6290   24.8350 C   0  0  0  0  0  0  0  0  0  0  0  0
  -21.9040   -4.0190   23.6900 C   0  0  0  0  0  3  0  0  0  0  0  0
  -22.1030   -4.7720   22.5200 C   0  0  0  0  0  0  0  0  0  0  0  0
  -22.6040   -4.1740   21.4120 F   0  0  0  0  0  0  0  0  0  0  0  0
  -21.1680   -3.9000   25.9590 F   0  0  0  0  0  0  0  0  0  0  0  0
  -23.0920  -13.4580   21.4770 C   0  0  0  0  0  0  0  0  0  0  0  0
  -22.5010  -12.6980   22.3920 N   0  0  0  0  0  0  0  0  0  0  0  0
  -22.5950  -14.5260   21.1200 O   0  0  0  0  0  0  0  0  0  0  0  0
  -22.9200  -11.8330   22.7010 H   0  0  0  0  0  0  0  0  0  0  0  0
  -21.6190  -12.9850   22.7920 H   0  0  0  0  0  0  0  0  0  0  0  0
  -25.5870  -15.1740   20.4000 N   0  0  0  0  0  0  0  0  0  0  0  0
  -24.8440  -15.8100   20.6700 H   0  0  0  0  0  0  0  0  0  0  0  0
  -26.3460  -15.6360   19.9190 H   0  0  0  0  0  0  0  0  0  0  0  0
  -28.5230  -26.4000   20.0420 O   0  0  0  0  0  0  0  0  0  0  0  0
  -24.7600  -31.7660   23.1830 C   0  0  0  0  0  0  0  0  0  0  0  0
  -27.3640  -27.2160   20.0310 C   0  0  0  0  0  0  0  0  0  0  0  0
  -23.5600  -30.4210   21.4940 C   0  0  0  0  0  3  0  0  0  0  0  0
  -25.0080  -28.8790   20.0400 C   0  0  0  0  0  0  0  0  0  0  0  0
  -26.1040  -30.7110   21.3380 C   0  0  0  0  0  2  0  0  0  0  0  0
  -26.1770  -29.3430   20.6550 C   0  0  0  0  0  0  0  0  0  0  0  0
  -27.3530  -28.5270   20.6270 C   0  0  0  0  0  3  0  0  0  0  0  0
  -26.1680  -26.8070   19.4070 C   0  0  0  0  0  3  0  0  0  0  0  0
  -25.0110  -27.6210   19.4070 C   0  0  0  0  0  3  0  0  0  0  0  0
  -23.7790  -29.7700   20.1010 C   0  0  0  0  0  2  0  0  0  0  0  0
  -24.8270  -30.9850   22.0630 N   0  0  0  0  0  0  0  0  0  0  0  0
  -23.6750  -32.0370   23.7170 O   0  0  0  0  0  0  0  0  0  0  0  0
  -22.8770  -29.3910   22.4270 C   0  0  0  0  0  0  0  0  0  0  0  0
  -21.5480  -29.2370   22.2930 N   0  0  0  0  0  0  0  0  0  0  0  0
  -23.5440  -28.7330   23.2290 O   0  0  0  0  0  0  0  0  0  0  0  0
  -21.0690  -29.8190   21.6210 H   0  0  0  0  0  0  0  0  0  0  0  0
  -18.1490  -28.0940   22.7790 C   0  0  0  0  0  0  0  0  0  0  0  0
  -20.7170  -28.2850   23.0310 C   0  0  0  0  0  3  0  0  0  0  0  0
  -20.7800  -26.8780   22.3920 C   0  0  0  0  0  2  0  0  0  0  0  0
  -19.6610  -26.6260   21.3770 C   0  0  0  0  0  2  0  0  0  0  0  0
  -18.2890  -26.7720   22.0420 C   0  0  0  0  0  2  0  0  0  0  0  0
  -19.2900  -28.8120   23.2300 C   0  0  0  0  0  0  0  0  0  0  0  0
  -19.1050  -30.0510   23.8790 C   0  0  0  0  0  3  0  0  0  0  0  0
  -17.8140  -30.5720   24.0840 C   0  0  0  0  0  3  0  0  0  0  0  0
  -16.6880  -29.8500   23.6490 C   0  0  0  0  0  3  0  0  0  0  0  0
  -16.8570  -28.6120   23.0030 C   0  0  0  0  0  3  0  0  0  0  0  0
  -26.0410  -32.3730   23.8350 C   0  0  0  0  0  3  0  0  0  0  0  0
  -25.7340  -33.7580   24.2200 N   0  0  0  0  0  0  0  0  0  0  0  0
  -26.0400  -34.8390   23.4900 C   0  0  0  0  0  0  0  0  0  0  0  0
  -26.6810  -34.7740   22.4380 O   0  0  0  0  0  0  0  0  0  0  0  0
  -25.1620  -33.8830   25.0430 H   0  0  0  0  0  0  0  0  0  0  0  0
  -24.2850  -36.6280   23.2630 C   0  0  0  0  0  1  0  0  0  0  0  0
  -25.5620  -36.2100   24.0100 C   0  0  0  0  0  3  0  0  0  0  0  0
  -27.7190  -37.0950   24.7830 C   0  0  0  0  0  1  0  0  0  0  0  0
  -26.5810  -37.2750   23.8850 N   0  0  0  0  0  0  0  0  0  0  0  0
  -26.1730  -38.1870   24.0700 H   0  0  0  0  0  0  0  0  0  0  0  0
  -26.5490  -31.5530   25.0860 C   0  0  1  0  0  0  0  0  0  0  0  0
  -25.4500  -31.2800   26.1390 C   0  0  0  0  0  1  0  0  0  0  0  0
  -27.1300  -30.1900   24.6470 C   0  0  0  0  0  1  0  0  0  0  0  0
  -27.6980  -32.3190   25.7830 C   0  0  0  0  0  1  0  0  0  0  0  0
  1  8  1  0
  2  1  2  0
  3  1  1  0
  3  6  1  0
  4  5  1  0
  6 55  1  0
  6  4  1  0
  7  2  1  0
  8 13  1  0
  8  5  1  0
  9 11  1  0
 10 14  1  0
 11 15  1  0
 12 10  2  0
 12 13  1  0
 13  9  2  0
 14 25  1  0
 14 11  2  0
 16 12  1  0
 17 25  1  0
 18 23  1  0
 19 20  1  0
 19 18  1  0
 21 20  1  0
 21 30  1  0
 21 22  1  0
 23 17  1  0
 23 22  1  0
 24 17  2  0
 25 26  1  0
 27 28  2  0
 28 47  1  0
 29 32  1  0
 29 28  1  0
 30 31  1  0
 30 27  1  0
 31 29  2  0
 32 33  1  0
 33 34  2  0
 35 38  1  0
 35 34  1  0
 36 35  2  0
 37 36  1  0
 37 32  2  0
 38 39  1  0
 39 44  2  0
 39 40  1  0
 40 41  2  0
 41 42  1  0
 42 46  1  0
 43 42  2  0
 44 43  1  0
 45 44  1  0
 47 48  1  0
 48 50  1  0
 48 51  1  0
 49 47  2  0
 52 27  1  0
 52 53  1  0
 54 52  1  0
 56 67  2  0
 57 55  1  0
 57 62  1  0
 58 66  1  0
 58 68  1  0
 59 65  1  0
 59 61  1  0
 60 66  1  0
 61 60  1  0
 62 61  2  0
 63 64  1  0
 63 57  2  0
 64 59  2  0
 65 58  1  0
 66 56  1  0
 68 70  2  0
 69 68  1  0
 71 69  1  0
 72 81  2  0
 72 77  1  0
 73 69  1  0
 73 77  1  0
 74 73  1  0
 75 76  1  0
 75 74  1  0
 76 72  1  0
 77 78  2  0
 78 79  1  0
 80 79  2  0
 81 80  1  0
 82 56  1  0
 82 83  1  0
 82 92  1  0
 83 86  1  0
 84 88  1  0
 84 83  1  0
 85 84  2  0
 88 87  1  0
 90 88  1  0
 90 91  1  0
 90 89  1  0
 92 95  1  1
 92 93  1  0
 94 92  1  0
M  ISO  4   6 101  17 100  25 100  55 101
M  END
>  <TORSDO>  (48) 
F 17

>  <SCORE>  (48) 
-11.355

>  <name>  (48) 
47

>  <ligand_id>  (48) 
47

>  <original_smiles>  (48) 
[H]C(=C1N(c2c([H])c(C([H])([H])[H])c(N([H])C(=O)N3C([H])([H])C([H])([H])C([H])([H])C([H])(n4nc(-c5c([H])c([H])c(Oc6c([H])c([H])c(F)c([H])c6F)c([H])c5[H])c(C(=O)N([H])[H])c4N([H])[H])C3([H])[H])c([H])c2C([H])([H])[H])C([H])([H])C([H])([H])C([H])(Oc2c([H])c([H])c3c(c2[H])C([H])([H])N(C(=O)C([H])(N([H])C(=O)C([H])(N([H])C([H])([H])[H])C([H])([H])[H])C(C([H])([H])[H])(C([H])([H])[H])C([H])([H])[H])C([H])(C(=O)N([H])C2([H])c4c([H])c([H])c([H])c([H])c4C([H])([H])C([H])([H])C2([H])[H])C3([H])[H])C1([H])[H])C([H])([H])[H]

>  <smiles>  (48) 
[H]C(=C1N(c2c([H])c(C([H])([H])[H])c(N([H])C(=O)N3C([H])([H])C([H])([H])C([H])([H])C([H])(n4nc(-c5c([H])c([H])c(Oc6c([H])c([H])c(F)c([H])c6F)c([H])c5[H])c(C(=O)N([H])[H])c4N([H])[H])C3([H])[H])c([H])c2C([H])([H])[H])C([H])([H])C([H])([H])C([H])(Oc2c([H])c([H])c3c(c2[H])C([H])([H])N(C(=O)C([H])(N([H])C(=O)C([H])(N([H])C([H])([H])[H])C([H])([H])[H])C(C([H])([H])[H])(C([H])([H])[H])C([H])([H])[H])C([H])(C(=O)N([H])C2([H])c4c([H])c([H])c([H])c([H])c4C([H])([H])C([H])([H])C2([H])[H])C3([H])[H])C1([H])[H])C([H])([H])[H]

$$$$
48:0:0
     RDKit          3D

 97105  0  0  1  0  0  0  0  0999 V2000
  -30.0460  -21.8340   20.4220 N   0  0  0  0  0  4  0  0  0  0  0  0
  -30.9330  -21.8700   19.9440 H   0  0  0  0  0  0  0  0  0  0  0  0
  -30.2160  -22.0250   21.3980 H   0  0  0  0  0  0  0  0  0  0  0  0
  -29.5050  -20.4220   20.3640 C   0  0  0  0  0  2  0  0  0  0  0  0
  -30.7310  -17.3100   22.4490 C   0  0  0  0  0  3  0  0  0  0  0  0
  -30.7090  -19.2780   23.8520 C   0  0  0  0  0  3  0  0  0  0  0  0
  -30.1750  -18.0280   21.3630 C   0  0  0  0  0  0  0  0  0  0  0  0
  -29.9900  -19.4620   21.4940 C   0  0  0  0  0  0  0  0  0  0  0  0
  -31.0080  -17.9230   23.6780 C   0  0  0  0  0  0  0  0  0  0  0  0
  -30.1950  -20.0360   22.7860 C   0  0  0  0  0  0  0  0  0  0  0  0
  -31.6850  -16.9990   24.9690 Cl  0  0  0  0  0  0  0  0  0  0  0  0
  -29.8070  -21.6830   23.1410 Cl  0  0  0  0  0  0  0  0  0  0  0  0
  -29.8090  -17.1610   20.1330 C   0  0  0  0  0  2  0  0  0  0  0  0
  -30.3650  -14.6500   20.0740 C   0  0  0  0  0  0  0  0  0  0  0  0
  -30.1820  -12.3730   19.1260 C   0  0  0  0  0  2  0  0  0  0  0  0
  -29.2170  -12.4200   17.9230 C   0  0  0  0  0  2  0  0  0  0  0  0
  -27.7630  -12.2240   18.3940 C   0  0  0  0  0  2  0  0  0  0  0  0
  -27.3910  -13.1430   19.5900 C   0  0  0  0  0  3  0  0  0  0  0  0
  -28.4730  -13.0880   20.6920 C   0  0  0  0  0  2  0  0  0  0  0  0
  -29.7640  -13.4240   20.0720 N   0  0  0  0  0  0  0  0  0  0  0  0
  -31.4950  -14.8240   19.6090 O   0  0  0  0  0  0  0  0  0  0  0  0
  -29.5780  -15.7060   20.4100 N   0  0  0  0  0  0  0  0  0  0  0  0
  -28.6640  -15.4610   20.7600 H   0  0  0  0  0  0  0  0  0  0  0  0
  -25.0120  -13.6970   20.4000 C   0  0  0  0  0  0  0  0  0  0  0  0
  -23.9680  -12.8990   20.7910 C   0  0  0  0  0  0  0  0  0  0  0  0
  -24.4460  -11.5560   20.7160 C   0  0  0  0  0  0  0  0  0  0  0  0
  -26.0610  -12.8350   20.1150 N   0  0  0  0  0  0  0  0  0  0  0  0
  -25.7250  -11.5430   20.3600 N   0  0  0  0  0  0  0  0  0  0  0  0
  -23.7470  -10.2790   20.9060 C   0  0  0  0  0  0  0  0  0  0  0  0
  -24.1610   -9.3490   21.8840 C   0  0  0  0  0  3  0  0  0  0  0  0
  -23.4600   -8.1360   22.0600 C   0  0  0  0  0  3  0  0  0  0  0  0
  -22.3320   -7.8450   21.2570 C   0  0  0  0  0  0  0  0  0  0  0  0
  -21.9380   -8.7650   20.2680 C   0  0  0  0  0  3  0  0  0  0  0  0
  -22.6390   -9.9690   20.0910 C   0  0  0  0  0  3  0  0  0  0  0  0
  -21.6040   -6.6820   21.3410 O   0  0  0  0  0  0  0  0  0  0  0  0
  -21.4460   -6.0160   22.5290 C   0  0  0  0  0  0  0  0  0  0  0  0
  -20.8430   -6.6270   23.6510 C   0  0  0  0  0  3  0  0  0  0  0  0
  -20.6370   -5.8850   24.8310 C   0  0  0  0  0  3  0  0  0  0  0  0
  -21.0220   -4.5330   24.8880 C   0  0  0  0  0  0  0  0  0  0  0  0
  -21.6160   -3.9200   23.7710 C   0  0  0  0  0  3  0  0  0  0  0  0
  -21.8240   -4.6600   22.5940 C   0  0  0  0  0  0  0  0  0  0  0  0
  -22.3790   -4.0600   21.5130 F   0  0  0  0  0  0  0  0  0  0  0  0
  -20.8150   -3.8160   26.0190 F   0  0  0  0  0  0  0  0  0  0  0  0
  -22.5740  -13.3510   21.1220 C   0  0  0  0  0  0  0  0  0  0  0  0
  -21.8940  -12.6360   22.0120 N   0  0  0  0  0  0  0  0  0  0  0  0
  -22.0990  -14.3720   20.6270 O   0  0  0  0  0  0  0  0  0  0  0  0
  -22.2910  -11.8110   22.4360 H   0  0  0  0  0  0  0  0  0  0  0  0
  -20.9590  -12.9190   22.2720 H   0  0  0  0  0  0  0  0  0  0  0  0
  -25.1480  -15.0710   20.2430 N   0  0  0  0  0  0  0  0  0  0  0  0
  -24.3720  -15.7080   20.3840 H   0  0  0  0  0  0  0  0  0  0  0  0
  -25.9770  -15.5310   19.8880 H   0  0  0  0  0  0  0  0  0  0  0  0
  -29.1350  -22.9320   19.9310 C   0  0  0  0  0  2  0  0  0  0  0  0
  -29.9800  -24.6840   21.6410 C   0  0  0  0  0  1  0  0  0  0  0  0
  -30.7780  -24.8310   19.2740 C   0  0  0  0  0  1  0  0  0  0  0  0
  -29.5840  -24.4410   20.1680 C   0  0  1  0  0  0  0  0  0  0  0  0
  -28.3770  -25.3840   19.8070 C   0  0  0  0  0  2  0  0  0  0  0  0
  -28.5550  -26.8170   19.9920 O   0  0  0  0  0  0  0  0  0  0  0  0
  -24.8120  -31.8980   23.3730 C   0  0  0  0  0  0  0  0  0  0  0  0
  -27.4000  -27.5960   20.0060 C   0  0  0  0  0  0  0  0  0  0  0  0
  -23.5810  -30.6000   21.6690 C   0  0  0  0  0  3  0  0  0  0  0  0
  -25.0130  -29.1460   20.1350 C   0  0  0  0  0  0  0  0  0  0  0  0
  -26.1120  -30.9520   21.4630 C   0  0  0  0  0  2  0  0  0  0  0  0
  -26.1860  -29.6200   20.7360 C   0  0  0  0  0  0  0  0  0  0  0  0
  -27.3810  -28.8540   20.6660 C   0  0  0  0  0  3  0  0  0  0  0  0
  -26.2010  -27.1610   19.3860 C   0  0  0  0  0  3  0  0  0  0  0  0
  -25.0180  -27.9180   19.4560 C   0  0  0  0  0  3  0  0  0  0  0  0
  -23.7730  -30.0040   20.2510 C   0  0  0  0  0  2  0  0  0  0  0  0
  -24.8540  -31.1610   22.2250 N   0  0  0  0  0  0  0  0  0  0  0  0
  -23.7380  -32.1420   23.9380 O   0  0  0  0  0  0  0  0  0  0  0  0
  -22.9380  -29.5250   22.5750 C   0  0  0  0  0  0  0  0  0  0  0  0
  -21.6170  -29.3280   22.4300 N   0  0  0  0  0  0  0  0  0  0  0  0
  -23.6250  -28.8750   23.3660 O   0  0  0  0  0  0  0  0  0  0  0  0
  -21.1220  -29.9060   21.7630 H   0  0  0  0  0  0  0  0  0  0  0  0
  -18.2650  -28.0350   22.8220 C   0  0  0  0  0  0  0  0  0  0  0  0
  -20.8100  -28.3430   23.1490 C   0  0  0  0  0  3  0  0  0  0  0  0
  -20.9570  -26.9360   22.5260 C   0  0  0  0  0  2  0  0  0  0  0  0
  -19.8820  -26.6260   21.4800 C   0  0  0  0  0  2  0  0  0  0  0  0
  -18.4870  -26.7150   22.1010 C   0  0  0  0  0  2  0  0  0  0  0  0
  -19.3570  -28.8060   23.2990 C   0  0  0  0  0  0  0  0  0  0  0  0
  -19.0960  -30.0420   23.9300 C   0  0  0  0  0  3  0  0  0  0  0  0
  -17.7760  -30.5080   24.0870 C   0  0  0  0  0  3  0  0  0  0  0  0
  -16.6990  -29.7320   23.6240 C   0  0  0  0  0  3  0  0  0  0  0  0
  -16.9440  -28.4970   22.9990 C   0  0  0  0  0  3  0  0  0  0  0  0
  -26.1070  -32.4930   24.0120 C   0  0  0  0  0  3  0  0  0  0  0  0
  -25.8120  -33.8800   24.3940 N   0  0  0  0  0  0  0  0  0  0  0  0
  -26.1720  -34.9570   23.6830 C   0  0  0  0  0  0  0  0  0  0  0  0
  -26.8540  -34.8840   22.6580 O   0  0  0  0  0  0  0  0  0  0  0  0
  -25.2100  -34.0100   25.1940 H   0  0  0  0  0  0  0  0  0  0  0  0
  -24.4840  -36.7950   23.3680 C   0  0  0  0  0  1  0  0  0  0  0  0
  -25.6990  -36.3330   24.1900 C   0  0  0  0  0  3  0  0  0  0  0  0
  -27.8290  -37.1400   25.1040 C   0  0  0  0  0  1  0  0  0  0  0  0
  -26.7520  -37.3710   24.1460 N   0  0  0  0  0  0  0  0  0  0  0  0
  -26.3600  -38.2910   24.3260 H   0  0  0  0  0  0  0  0  0  0  0  0
  -26.6200  -31.6670   25.2530 C   0  0  1  0  0  0  0  0  0  0  0  0
  -25.5290  -31.3940   26.3150 C   0  0  0  0  0  1  0  0  0  0  0  0
  -27.1910  -30.3020   24.8040 C   0  0  0  0  0  1  0  0  0  0  0  0
  -27.7800  -32.4240   25.9430 C   0  0  0  0  0  1  0  0  0  0  0  0
  1  3  1  0
  2  1  1  0
  4  1  1  0
  4  8  1  0
  5  9  1  0
  7  8  1  0
  7  5  2  0
  8 10  2  0
  9  6  2  0
  9 11  1  0
 10 12  1  0
 10  6  1  0
 13 22  1  0
 13  7  1  0
 14 22  1  0
 15 20  1  0
 16 17  1  0
 16 15  1  0
 18 17  1  0
 18 27  1  0
 18 19  1  0
 20 14  1  0
 20 19  1  0
 21 14  2  0
 22 23  1  0
 24 25  2  0
 25 44  1  0
 26 25  1  0
 26 29  1  0
 27 28  1  0
 27 24  1  0
 28 26  2  0
 29 30  1  0
 30 31  2  0
 32 35  1  0
 32 31  1  0
 33 32  2  0
 34 33  1  0
 34 29  2  0
 35 36  1  0
 36 41  2  0
 36 37  1  0
 37 38  2  0
 38 39  1  0
 39 43  1  0
 40 39  2  0
 41 40  1  0
 42 41  1  0
 44 45  1  0
 45 48  1  0
 45 47  1  0
 46 44  2  0
 49 50  1  0
 49 24  1  0
 51 49  1  0
 52 55  1  0
 52  1  1  0
 55 54  1  6
 55 53  1  0
 56 57  1  0
 56 55  1  0
 57 59  1  0
 58 69  2  0
 59 64  1  0
 60 68  1  0
 60 70  1  0
 61 67  1  0
 61 63  1  0
 62 68  1  0
 63 62  1  0
 64 63  2  0
 65 66  1  0
 65 59  2  0
 66 61  2  0
 67 60  1  0
 68 58  1  0
 70 72  2  0
 71 70  1  0
 73 71  1  0
 74 83  2  0
 74 79  1  0
 75 71  1  0
 75 79  1  0
 76 75  1  0
 77 78  1  0
 77 76  1  0
 78 74  1  0
 79 80  2  0
 80 81  1  0
 82 81  2  0
 83 82  1  0
 84 58  1  0
 84 85  1  0
 84 94  1  0
 85 88  1  0
 86 90  1  0
 86 85  1  0
 87 86  2  0
 90 89  1  0
 92 90  1  0
 92 93  1  0
 92 91  1  0
 94 97  1  1
 94 95  1  0
 96 94  1  0
M  ISO  4  14 100  22 100  56 101  57 101
M  END
>  <TORSDO>  (49) 
F 22

>  <SCORE>  (49) 
-7.561

>  <name>  (49) 
48

>  <ligand_id>  (49) 
48

>  <original_smiles>  (49) 
[H]c1c([H])c([H])c2c(c1[H])C([H])([H])C([H])([H])C([H])([H])C2([H])N([H])C(=O)C1([H])N(C(=O)C([H])(N([H])C(=O)C([H])(N([H])C([H])([H])[H])C([H])([H])[H])C(C([H])([H])[H])(C([H])([H])[H])C([H])([H])[H])C([H])([H])c2c([H])c(OC([H])([H])C(C([H])([H])[H])(C([H])([H])[H])C([H])([H])[N+]([H])([H])C([H])([H])c3c(Cl)c([H])c(Cl)c([H])c3C([H])([H])N([H])C(=O)N3C([H])([H])C([H])([H])C([H])([H])C([H])(n4nc(-c5c([H])c([H])c(Oc6c([H])c([H])c(F)c([H])c6F)c([H])c5[H])c(C(=O)N([H])[H])c4N([H])[H])C3([H])[H])c([H])c([H])c2C1([H])[H]

>  <smiles>  (49) 
[H]c1c([H])c([H])c2c(c1[H])C([H])([H])C([H])([H])C([H])([H])C2([H])N([H])C(=O)C1([H])N(C(=O)C([H])(N([H])C(=O)C([H])(N([H])C([H])([H])[H])C([H])([H])[H])C(C([H])([H])[H])(C([H])([H])[H])C([H])([H])[H])C([H])([H])c2c([H])c(OC([H])([H])C(C([H])([H])[H])(C([H])([H])[H])C([H])([H])[N+]([H])([H])C([H])([H])c3c(Cl)c([H])c(Cl)c([H])c3C([H])([H])N([H])C(=O)N3C([H])([H])C([H])([H])C([H])([H])C([H])(n4nc(-c5c([H])c([H])c(Oc6c([H])c([H])c(F)c([H])c6F)c([H])c5[H])c(C(=O)N([H])[H])c4N([H])[H])C3([H])[H])c([H])c([H])c2C1([H])[H]

$$$$
49:0:0
     RDKit          3D

 92100  0  0  1  0  0  0  0  0999 V2000
  -29.7700  -21.1350   19.6890 C   0  0  0  0  0  0  0  0  0  0  0  0
  -28.9890  -22.2310   20.0420 N   0  0  0  0  0  0  0  0  0  0  0  0
  -30.8820  -21.3300   19.1950 O   0  0  0  0  0  0  0  0  0  0  0  0
  -28.0980  -22.0000   20.4550 H   0  0  0  0  0  0  0  0  0  0  0  0
  -27.2500  -18.2400   19.9930 C   0  0  0  0  0  3  0  0  0  0  0  0
  -27.8540  -19.4950   19.8590 C   0  0  0  0  0  3  0  0  0  0  0  0
  -28.0240  -17.0840   20.1570 C   0  0  0  0  0  3  0  0  0  0  0  0
  -29.2570  -19.6600   19.8900 C   0  0  0  0  0  0  0  0  0  0  0  0
  -30.0600  -18.4230   20.0620 C   0  0  0  0  0  0  0  0  0  0  0  0
  -29.4360  -17.0980   20.1900 C   0  0  0  0  0  0  0  0  0  0  0  0
  -31.5750  -18.5070   20.1260 C   0  0  0  0  0  1  0  0  0  0  0  0
  -30.7190  -14.6950   19.8910 C   0  0  0  0  0  0  0  0  0  0  0  0
  -30.6270  -12.3130   19.0890 C   0  0  0  0  0  2  0  0  0  0  0  0
  -29.6380  -12.2340   17.9010 C   0  0  0  0  0  2  0  0  0  0  0  0
  -28.1860  -12.0720   18.3930 C   0  0  0  0  0  2  0  0  0  0  0  0
  -27.8300  -13.0640   19.5300 C   0  0  0  0  0  3  0  0  0  0  0  0
  -28.9220  -13.0550   20.6250 C   0  0  0  0  0  2  0  0  0  0  0  0
  -30.1970  -13.4180   19.9780 N   0  0  0  0  0  0  0  0  0  0  0  0
  -31.8280  -14.8760   19.3780 O   0  0  0  0  0  0  0  0  0  0  0  0
  -29.9100  -15.6950   20.4050 N   0  0  0  0  0  0  0  0  0  0  0  0
  -29.2290  -15.2080   20.9670 H   0  0  0  0  0  0  0  0  0  0  0  0
  -25.4870  -13.7170   20.3590 C   0  0  0  0  0  0  0  0  0  0  0  0
  -24.4200  -12.9680   20.7780 C   0  0  0  0  0  0  0  0  0  0  0  0
  -24.8500  -11.6070   20.7220 C   0  0  0  0  0  0  0  0  0  0  0  0
  -26.4980  -12.8120   20.0750 N   0  0  0  0  0  0  0  0  0  0  0  0
  -26.1230  -11.5380   20.3520 N   0  0  0  0  0  0  0  0  0  0  0  0
  -24.1040  -10.3610   20.9440 C   0  0  0  0  0  0  0  0  0  0  0  0
  -24.5250   -9.4060   21.8950 C   0  0  0  0  0  3  0  0  0  0  0  0
  -23.7790   -8.2250   22.1040 C   0  0  0  0  0  3  0  0  0  0  0  0
  -22.5970   -7.9920   21.3610 C   0  0  0  0  0  0  0  0  0  0  0  0
  -22.1950   -8.9340   20.3990 C   0  0  0  0  0  3  0  0  0  0  0  0
  -22.9410  -10.1070   20.1890 C   0  0  0  0  0  3  0  0  0  0  0  0
  -21.8250   -6.8610   21.4770 O   0  0  0  0  0  0  0  0  0  0  0  0
  -21.7260   -6.1760   22.6620 C   0  0  0  0  0  0  0  0  0  0  0  0
  -21.2600   -6.7930   23.8430 C   0  0  0  0  0  3  0  0  0  0  0  0
  -21.1080   -6.0350   25.0210 C   0  0  0  0  0  3  0  0  0  0  0  0
  -21.4120   -4.6600   25.0180 C   0  0  0  0  0  0  0  0  0  0  0  0
  -21.8720   -4.0430   23.8410 C   0  0  0  0  0  3  0  0  0  0  0  0
  -22.0250   -4.7990   22.6660 C   0  0  0  0  0  0  0  0  0  0  0  0
  -22.4470   -4.1940   21.5300 F   0  0  0  0  0  0  0  0  0  0  0  0
  -21.2600   -3.9300   26.1460 F   0  0  0  0  0  0  0  0  0  0  0  0
  -23.0500  -13.4770   21.1170 C   0  0  0  0  0  0  0  0  0  0  0  0
  -22.3580  -12.8080   22.0330 N   0  0  0  0  0  0  0  0  0  0  0  0
  -22.6020  -14.5020   20.6040 O   0  0  0  0  0  0  0  0  0  0  0  0
  -22.7340  -11.9780   22.4660 H   0  0  0  0  0  0  0  0  0  0  0  0
  -21.4390  -13.1300   22.3030 H   0  0  0  0  0  0  0  0  0  0  0  0
  -25.6740  -15.0840   20.1730 N   0  0  0  0  0  0  0  0  0  0  0  0
  -24.9280  -15.7530   20.3210 H   0  0  0  0  0  0  0  0  0  0  0  0
  -26.5110  -15.5040   19.7900 H   0  0  0  0  0  0  0  0  0  0  0  0
  -29.2940  -23.7320   19.9240 C   0  0  0  0  0  3  0  0  0  0  0  0
  -28.1440  -24.8310   20.2600 C   0  0  0  0  0  3  0  0  0  0  0  0
  -28.3640  -26.3240   20.1190 O   0  0  0  0  0  0  0  0  0  0  0  0
  -24.5430  -31.7280   23.1720 C   0  0  0  0  0  0  0  0  0  0  0  0
  -27.2490  -27.2000   20.0960 C   0  0  0  0  0  0  0  0  0  0  0  0
  -23.3790  -30.3350   21.5010 C   0  0  0  0  0  3  0  0  0  0  0  0
  -24.8670  -28.8180   20.0740 C   0  0  0  0  0  0  0  0  0  0  0  0
  -25.9190  -30.6770   21.3540 C   0  0  0  0  0  2  0  0  0  0  0  0
  -26.0260  -29.3030   20.6930 C   0  0  0  0  0  0  0  0  0  0  0  0
  -27.2200  -28.5070   20.6930 C   0  0  0  0  0  3  0  0  0  0  0  0
  -26.0670  -26.7920   19.4360 C   0  0  0  0  0  3  0  0  0  0  0  0
  -24.8930  -27.5700   19.4360 C   0  0  0  0  0  3  0  0  0  0  0  0
  -23.6200  -29.6800   20.1170 C   0  0  0  0  0  2  0  0  0  0  0  0
  -24.6320  -30.9320   22.0660 N   0  0  0  0  0  0  0  0  0  0  0  0
  -23.4490  -31.9830   23.6970 O   0  0  0  0  0  0  0  0  0  0  0  0
  -22.7160  -29.2990   22.4410 C   0  0  0  0  0  0  0  0  0  0  0  0
  -21.3940  -29.1070   22.3000 N   0  0  0  0  0  0  0  0  0  0  0  0
  -23.3930  -28.6710   23.2590 O   0  0  0  0  0  0  0  0  0  0  0  0
  -20.9050  -29.6610   21.6100 H   0  0  0  0  0  0  0  0  0  0  0  0
  -18.0250  -27.8830   22.7860 C   0  0  0  0  0  0  0  0  0  0  0  0
  -20.5820  -28.1500   23.0540 C   0  0  0  0  0  3  0  0  0  0  0  0
  -20.6880  -26.7300   22.4520 C   0  0  0  0  0  2  0  0  0  0  0  0
  -19.5870  -26.4270   21.4290 C   0  0  0  0  0  2  0  0  0  0  0  0
  -18.2070  -26.5500   22.0790 C   0  0  0  0  0  2  0  0  0  0  0  0
  -19.1420  -28.6410   23.2300 C   0  0  0  0  0  0  0  0  0  0  0  0
  -18.9180  -29.8880   23.8510 C   0  0  0  0  0  3  0  0  0  0  0  0
  -17.6120  -30.3780   24.0350 C   0  0  0  0  0  3  0  0  0  0  0  0
  -16.5090  -29.6180   23.6070 C   0  0  0  0  0  3  0  0  0  0  0  0
  -16.7170  -28.3710   22.9880 C   0  0  0  0  0  3  0  0  0  0  0  0
  -25.8080  -32.3740   23.8170 C   0  0  0  0  0  3  0  0  0  0  0  0
  -26.3160  -31.6010   25.0950 C   0  0  1  0  0  0  0  0  0  0  0  0
  -25.2100  -31.3390   26.1450 C   0  0  0  0  0  1  0  0  0  0  0  0
  -26.9250  -30.2340   24.7040 C   0  0  0  0  0  1  0  0  0  0  0  0
  -27.4430  -32.4070   25.7830 C   0  0  0  0  0  1  0  0  0  0  0  0
  -25.4740  -33.7650   24.1540 N   0  0  0  0  0  0  0  0  0  0  0  0
  -25.7930  -34.8300   23.4060 C   0  0  0  0  0  0  0  0  0  0  0  0
  -26.4700  -34.7440   22.3780 O   0  0  0  0  0  0  0  0  0  0  0  0
  -24.8710  -33.9030   24.9510 H   0  0  0  0  0  0  0  0  0  0  0  0
  -24.0350  -36.5970   23.0640 C   0  0  0  0  0  1  0  0  0  0  0  0
  -25.2840  -36.2080   23.8720 C   0  0  0  0  0  3  0  0  0  0  0  0
  -27.4000  -37.1270   24.7100 C   0  0  0  0  0  1  0  0  0  0  0  0
  -26.2980  -37.2780   23.7650 N   0  0  0  0  0  0  0  0  0  0  0  0
  -25.8760  -38.1910   23.9130 H   0  0  0  0  0  0  0  0  0  0  0  0
  1  8  1  0
  1  2  1  0
  2  4  1  0
  3  1  2  0
  5  7  1  0
  6  8  1  0
  6  5  2  0
  7 10  2  0
  8  9  2  0
  9 11  1  0
  9 10  1  0
 10 20  1  0
 12 18  1  0
 12 20  1  0
 13 18  1  0
 14 15  1  0
 14 13  1  0
 16 15  1  0
 16 25  1  0
 16 17  1  0
 18 17  1  0
 19 12  2  0
 20 21  1  0
 22 23  2  0
 23 42  1  0
 24 23  1  0
 24 27  1  0
 25 26  1  0
 25 22  1  0
 26 24  2  0
 27 28  1  0
 28 29  2  0
 30 33  1  0
 30 29  1  0
 31 30  2  0
 32 31  1  0
 32 27  2  0
 33 34  1  0
 34 39  2  0
 34 35  1  0
 35 36  2  0
 37 36  1  0
 37 41  1  0
 38 37  2  0
 39 38  1  0
 40 39  1  0
 42 43  1  0
 43 46  1  0
 43 45  1  0
 44 42  2  0
 47 48  1  0
 47 22  1  0
 49 47  1  0
 50  2  1  0
 50 51  2  0
 52 51  1  0
 53 64  2  0
 54 52  1  0
 54 59  1  0
 55 63  1  0
 55 65  1  0
 56 62  1  0
 56 58  1  0
 57 63  1  0
 58 57  1  0
 59 58  2  0
 60 61  1  0
 60 54  2  0
 61 56  2  0
 62 55  1  0
 63 53  1  0
 65 67  2  0
 66 65  1  0
 68 66  1  0
 69 78  2  0
 69 74  1  0
 70 66  1  0
 70 74  1  0
 71 70  1  0
 72 73  1  0
 72 71  1  0
 73 69  1  0
 74 75  2  0
 75 76  1  0
 77 76  2  0
 78 77  1  0
 79 53  1  0
 79 84  1  0
 79 80  1  0
 80 83  1  1
 80 81  1  0
 82 80  1  0
 84 87  1  0
 85 89  1  0
 85 84  1  0
 86 85  2  0
 89 88  1  0
 91 89  1  0
 91 92  1  0
 91 90  1  0
M  ISO  4  12 100  20 100  51 101  52 101
M  END
>  <TORSDO>  (50) 
F 19

>  <SCORE>  (50) 
-14.143

>  <name>  (50) 
49

>  <ligand_id>  (50) 
49

>  <original_smiles>  (50) 
[H]c1c([H])c(C(=O)N([H])C([H])([H])C([H])([H])Oc2c([H])c([H])c3c(c2[H])C([H])([H])N(C(=O)C([H])(N([H])C(=O)C([H])(N([H])C([H])([H])[H])C([H])([H])[H])C(C([H])([H])[H])(C([H])([H])[H])C([H])([H])[H])C([H])(C(=O)N([H])C2([H])c4c([H])c([H])c([H])c([H])c4C([H])([H])C([H])([H])C2([H])[H])C3([H])[H])c(C([H])([H])[H])c(N([H])C(=O)N2C([H])([H])C([H])([H])C([H])([H])C([H])(n3nc(-c4c([H])c([H])c(Oc5c([H])c([H])c(F)c([H])c5F)c([H])c4[H])c(C(=O)N([H])[H])c3N([H])[H])C2([H])[H])c1[H]

>  <smiles>  (50) 
[H]c1c([H])c(C(=O)N([H])C([H])([H])C([H])([H])Oc2c([H])c([H])c3c(c2[H])C([H])([H])N(C(=O)C([H])(N([H])C(=O)C([H])(N([H])C([H])([H])[H])C([H])([H])[H])C(C([H])([H])[H])(C([H])([H])[H])C([H])([H])[H])C([H])(C(=O)N([H])C2([H])c4c([H])c([H])c([H])c([H])c4C([H])([H])C([H])([H])C2([H])[H])C3([H])[H])c(C([H])([H])[H])c(N([H])C(=O)N2C([H])([H])C([H])([H])C([H])([H])C([H])(n3nc(-c4c([H])c([H])c(Oc5c([H])c([H])c(F)c([H])c5F)c([H])c4[H])c(C(=O)N([H])[H])c3N([H])[H])C2([H])[H])c1[H]

$$$$
50:0:0
     RDKit          3D

 94103  0  0  1  0  0  0  0  0999 V2000
  -28.4600  -23.7280   19.9280 C   0  0  0  0  0  0  0  0  0  0  0  0
  -29.8420  -23.8340   22.4550 C   0  0  0  0  0  2  0  0  0  0  0  0
  -29.3780  -25.1950   21.9130 C   0  0  0  0  0  2  0  0  0  0  0  0
  -30.2980  -22.9500   21.2840 C   0  0  0  0  0  2  0  0  0  0  0  0
  -28.3320  -25.0980   20.7800 C   0  0  0  0  0  3  0  0  0  0  0  0
  -29.1710  -22.6200   20.4030 N   0  0  0  0  0  0  0  0  0  0  0  0
  -27.8190  -23.6520   18.8740 O   0  0  0  0  0  0  0  0  0  0  0  0
  -28.3880  -26.4180   20.0670 O   0  0  0  0  0  0  0  0  0  0  0  0
  -24.6130  -31.8320   23.1510 C   0  0  0  0  0  0  0  0  0  0  0  0
  -27.2740  -27.2780   20.1010 C   0  0  0  0  0  0  0  0  0  0  0  0
  -23.4320  -30.4310   21.4970 C   0  0  0  0  0  3  0  0  0  0  0  0
  -24.9040  -28.8900   20.0770 C   0  0  0  0  0  0  0  0  0  0  0  0
  -25.9730  -30.7640   21.3330 C   0  0  0  0  0  2  0  0  0  0  0  0
  -26.0680  -29.3840   20.6810 C   0  0  0  0  0  0  0  0  0  0  0  0
  -27.2600  -28.5930   20.6750 C   0  0  0  0  0  3  0  0  0  0  0  0
  -26.0880  -26.8410   19.4810 C   0  0  0  0  0  3  0  0  0  0  0  0
  -24.9170  -27.6250   19.4660 C   0  0  0  0  0  3  0  0  0  0  0  0
  -23.6620  -29.7610   20.1170 C   0  0  0  0  0  2  0  0  0  0  0  0
  -24.6910  -31.0280   22.0490 N   0  0  0  0  0  0  0  0  0  0  0  0
  -23.5240  -32.0990   23.6800 O   0  0  0  0  0  0  0  0  0  0  0  0
  -22.7710  -29.4060   22.4510 C   0  0  0  0  0  0  0  0  0  0  0  0
  -21.4470  -29.2210   22.3180 N   0  0  0  0  0  0  0  0  0  0  0  0
  -23.4490  -28.7820   23.2700 O   0  0  0  0  0  0  0  0  0  0  0  0
  -20.9580  -29.7770   21.6310 H   0  0  0  0  0  0  0  0  0  0  0  0
  -18.0830  -27.9660   22.7710 C   0  0  0  0  0  0  0  0  0  0  0  0
  -20.6320  -28.2730   23.0810 C   0  0  0  0  0  3  0  0  0  0  0  0
  -20.7680  -26.8410   22.5140 C   0  0  0  0  0  2  0  0  0  0  0  0
  -19.6880  -26.4930   21.4840 C   0  0  0  0  0  2  0  0  0  0  0  0
  -18.2930  -26.6160   22.1050 C   0  0  0  0  0  2  0  0  0  0  0  0
  -19.1810  -28.7510   23.2150 C   0  0  0  0  0  0  0  0  0  0  0  0
  -18.9300  -30.0110   23.7990 C   0  0  0  0  0  3  0  0  0  0  0  0
  -17.6140  -30.4890   23.9430 C   0  0  0  0  0  3  0  0  0  0  0  0
  -16.5300  -29.7030   23.5150 C   0  0  0  0  0  3  0  0  0  0  0  0
  -16.7650  -28.4430   22.9350 C   0  0  0  0  0  3  0  0  0  0  0  0
  -25.8870  -32.4740   23.7840 C   0  0  0  0  0  3  0  0  0  0  0  0
  -25.5560  -33.8640   24.1320 N   0  0  0  0  0  0  0  0  0  0  0  0
  -25.8790  -34.9340   23.3930 C   0  0  0  0  0  0  0  0  0  0  0  0
  -26.5560  -34.8540   22.3640 O   0  0  0  0  0  0  0  0  0  0  0  0
  -24.9520  -33.9990   24.9310 H   0  0  0  0  0  0  0  0  0  0  0  0
  -24.1290  -36.7120   23.0650 C   0  0  0  0  0  1  0  0  0  0  0  0
  -25.3750  -36.3100   23.8710 C   0  0  0  0  0  3  0  0  0  0  0  0
  -27.4990  -37.2060   24.7160 C   0  0  0  0  0  1  0  0  0  0  0  0
  -26.3940  -37.3770   23.7770 N   0  0  0  0  0  0  0  0  0  0  0  0
  -25.9770  -38.2900   23.9410 H   0  0  0  0  0  0  0  0  0  0  0  0
  -26.4100  -31.6950   25.0540 C   0  0  1  0  0  0  0  0  0  0  0  0
  -25.3170  -31.4350   26.1170 C   0  0  0  0  0  1  0  0  0  0  0  0
  -27.0090  -30.3280   24.6510 C   0  0  0  0  0  1  0  0  0  0  0  0
  -27.5500  -32.4960   25.7250 C   0  0  0  0  0  1  0  0  0  0  0  0
  -29.1160  -21.1850   19.8240 C   0  0  0  0  0  2  0  0  0  0  0  0
  -29.6690  -18.5240   19.9090 C   0  0  0  0  0  3  0  0  0  0  0  0
  -30.1390  -19.8750   21.8640 C   0  0  0  0  0  3  0  0  0  0  0  0
  -30.7430  -17.4860   21.8270 C   0  0  0  0  0  3  0  0  0  0  0  0
  -29.6620  -19.8460   20.5350 C   0  0  0  0  0  0  0  0  0  0  0  0
  -30.2020  -17.3170   20.5370 C   0  0  0  0  0  0  0  0  0  0  0  0
  -30.6980  -18.7350   22.4800 C   0  0  0  0  0  0  0  0  0  0  0  0
  -31.3170  -18.8700   24.0850 Cl  0  0  0  0  0  0  0  0  0  0  0  0
  -30.8630  -14.8040   20.0520 C   0  0  0  0  0  0  0  0  0  0  0  0
  -30.6430  -12.5140   19.0560 C   0  0  0  0  0  2  0  0  0  0  0  0
  -29.6580  -12.5590   17.8660 C   0  0  0  0  0  2  0  0  0  0  0  0
  -28.2000  -12.4110   18.3490 C   0  0  0  0  0  2  0  0  0  0  0  0
  -27.8690  -13.3260   19.5570 C   0  0  0  0  0  3  0  0  0  0  0  0
  -28.9620  -13.2410   20.6420 C   0  0  0  0  0  2  0  0  0  0  0  0
  -30.2360  -13.5800   19.9950 N   0  0  0  0  0  0  0  0  0  0  0  0
  -32.0650  -14.8960   19.7910 O   0  0  0  0  0  0  0  0  0  0  0  0
  -30.0390  -15.9250   20.0420 N   0  0  0  0  0  0  0  0  0  0  0  0
  -29.0780  -15.6800   19.8700 H   0  0  0  0  0  0  0  0  0  0  0  0
  -25.5240  -13.9700   20.3780 C   0  0  0  0  0  0  0  0  0  0  0  0
  -24.4540  -13.2200   20.7780 C   0  0  0  0  0  0  0  0  0  0  0  0
  -24.8840  -11.8590   20.7230 C   0  0  0  0  0  0  0  0  0  0  0  0
  -26.5370  -13.0670   20.0970 N   0  0  0  0  0  0  0  0  0  0  0  0
  -26.1620  -11.7920   20.3720 N   0  0  0  0  0  0  0  0  0  0  0  0
  -24.1340  -10.6120   20.9280 C   0  0  0  0  0  0  0  0  0  0  0  0
  -24.5570   -9.6400   21.8600 C   0  0  0  0  0  3  0  0  0  0  0  0
  -23.8080   -8.4600   22.0550 C   0  0  0  0  0  3  0  0  0  0  0  0
  -22.6210   -8.2430   21.3170 C   0  0  0  0  0  0  0  0  0  0  0  0
  -22.2160   -9.2050   20.3730 C   0  0  0  0  0  3  0  0  0  0  0  0
  -22.9660  -10.3760   20.1780 C   0  0  0  0  0  3  0  0  0  0  0  0
  -21.8470   -7.1130   21.4180 O   0  0  0  0  0  0  0  0  0  0  0  0
  -21.7710   -6.3930   22.5830 C   0  0  0  0  0  0  0  0  0  0  0  0
  -21.3520   -6.9820   23.7950 C   0  0  0  0  0  3  0  0  0  0  0  0
  -21.2200   -6.1910   24.9540 C   0  0  0  0  0  3  0  0  0  0  0  0
  -21.5030   -4.8130   24.9010 C   0  0  0  0  0  0  0  0  0  0  0  0
  -21.9150   -4.2240   23.6930 C   0  0  0  0  0  3  0  0  0  0  0  0
  -22.0480   -5.0130   22.5370 C   0  0  0  0  0  0  0  0  0  0  0  0
  -22.4260   -4.4360   21.3700 F   0  0  0  0  0  0  0  0  0  0  0  0
  -21.3720   -4.0500   26.0120 F   0  0  0  0  0  0  0  0  0  0  0  0
  -23.0780  -13.7290   21.0960 C   0  0  0  0  0  0  0  0  0  0  0  0
  -22.3640  -13.0540   21.9900 N   0  0  0  0  0  0  0  0  0  0  0  0
  -22.6450  -14.7620   20.5890 O   0  0  0  0  0  0  0  0  0  0  0  0
  -22.7260  -12.2230   22.4310 H   0  0  0  0  0  0  0  0  0  0  0  0
  -21.4430  -13.3840   22.2430 H   0  0  0  0  0  0  0  0  0  0  0  0
  -25.7110  -15.3370   20.2050 N   0  0  0  0  0  0  0  0  0  0  0  0
  -24.9550  -15.9980   20.3440 H   0  0  0  0  0  0  0  0  0  0  0  0
  -26.5360  -15.7660   19.8090 H   0  0  0  0  0  0  0  0  0  0  0  0
  1  6  1  0
  1  5  1  0
  3  2  1  0
  4  2  1  0
  5  8  1  0
  5  3  1  0
  6  4  1  0
  7  1  2  0
  8 10  1  0
  9 20  2  0
 10 15  1  0
 11 19  1  0
 11 21  1  0
 12 18  1  0
 12 14  1  0
 13 19  1  0
 14 13  1  0
 15 14  2  0
 16 10  2  0
 17 16  1  0
 17 12  2  0
 18 11  1  0
 19  9  1  0
 21 23  2  0
 22 21  1  0
 24 22  1  0
 25 34  2  0
 25 30  1  0
 26 22  1  0
 26 30  1  0
 27 26  1  0
 28 29  1  0
 28 27  1  0
 29 25  1  0
 30 31  2  0
 31 32  1  0
 33 32  2  0
 34 33  1  0
 35  9  1  0
 35 36  1  0
 35 45  1  0
 36 39  1  0
 37 41  1  0
 37 36  1  0
 38 37  2  0
 41 40  1  0
 43 41  1  0
 43 44  1  0
 43 42  1  0
 45 48  1  1
 45 46  1  0
 47 45  1  0
 49  6  1  0
 49 53  1  0
 50 53  2  0
 50 54  1  0
 51 55  2  0
 52 55  1  0
 53 51  1  0
 54 52  2  0
 55 56  1  0
 58 63  1  0
 59 60  1  0
 59 58  1  0
 61 60  1  0
 61 70  1  0
 61 62  1  0
 63 57  1  0
 63 62  1  0
 64 57  2  0
 65 57  1  0
 65 54  1  0
 66 65  1  0
 67 68  2  0
 68 87  1  0
 69 68  1  0
 69 72  1  0
 70 71  1  0
 70 67  1  0
 71 69  2  0
 72 73  1  0
 73 74  2  0
 75 78  1  0
 75 74  1  0
 76 75  2  0
 77 76  1  0
 77 72  2  0
 78 79  1  0
 79 80  1  0
 80 81  2  0
 82 81  1  0
 82 86  1  0
 83 82  2  0
 84 79  2  0
 84 83  1  0
 85 84  1  0
 87 88  1  0
 88 91  1  0
 88 90  1  0
 89 87  2  0
 92 93  1  0
 92 67  1  0
 94 92  1  0
M  ISO  4   5 101   8 101  57 100  65 100
M  END
>  <TORSDO>  (51) 
F 18

>  <SCORE>  (51) 
-13.995

>  <name>  (51) 
50

>  <ligand_id>  (51) 
50

>  <original_smiles>  (51) 
[H]c1c([H])c([H])c2c(c1[H])C([H])([H])C([H])([H])C([H])([H])C2([H])N([H])C(=O)C1([H])N(C(=O)C([H])(N([H])C(=O)C([H])(N([H])C([H])([H])[H])C([H])([H])[H])C(C([H])([H])[H])(C([H])([H])[H])C([H])([H])[H])C([H])([H])c2c([H])c(OC3([H])C(=O)N(C([H])([H])c4c([H])c(Cl)c([H])c(N([H])C(=O)N5C([H])([H])C([H])([H])C([H])([H])C([H])(n6nc(-c7c([H])c([H])c(Oc8c([H])c([H])c(F)c([H])c8F)c([H])c7[H])c(C(=O)N([H])[H])c6N([H])[H])C5([H])[H])c4[H])C([H])([H])C([H])([H])C3([H])[H])c([H])c([H])c2C1([H])[H]

>  <smiles>  (51) 
[H]c1c([H])c([H])c2c(c1[H])C([H])([H])C([H])([H])C([H])([H])C2([H])N([H])C(=O)C1([H])N(C(=O)C([H])(N([H])C(=O)C([H])(N([H])C([H])([H])[H])C([H])([H])[H])C(C([H])([H])[H])(C([H])([H])[H])C([H])([H])[H])C([H])([H])c2c([H])c(OC3([H])C(=O)N(C([H])([H])c4c([H])c(Cl)c([H])c(N([H])C(=O)N5C([H])([H])C([H])([H])C([H])([H])C([H])(n6nc(-c7c([H])c([H])c(Oc8c([H])c([H])c(F)c([H])c8F)c([H])c7[H])c(C(=O)N([H])[H])c6N([H])[H])C5([H])[H])c4[H])C([H])([H])C([H])([H])C3([H])[H])c([H])c([H])c2C1([H])[H]

$$$$
51:0:0
     RDKit          3D

 91 99  0  0  1  0  0  0  0  0999 V2000
  -29.1670  -20.8620   20.0470 C   0  0  0  0  0  2  0  0  0  0  0  0
  -32.0540  -18.7050   21.5410 C   0  0  0  0  0  3  0  0  0  0  0  0
  -31.5820  -17.3910   21.3760 C   0  0  0  0  0  3  0  0  0  0  0  0
  -29.5280  -18.2790   20.4300 C   0  0  0  0  0  3  0  0  0  0  0  0
  -31.2920  -19.8190   21.1320 C   0  0  0  0  0  0  0  0  0  0  0  0
  -29.9940  -19.6370   20.5810 C   0  0  0  0  0  0  0  0  0  0  0  0
  -30.3240  -17.1370   20.7930 C   0  0  0  0  0  0  0  0  0  0  0  0
  -31.9230  -21.1960   21.2800 C   0  0  0  0  0  1  0  0  0  0  0  0
  -30.6040  -14.6590   20.2550 C   0  0  0  0  0  0  0  0  0  0  0  0
  -30.3100  -12.4670   19.1290 C   0  0  0  0  0  2  0  0  0  0  0  0
  -29.3300  -12.6250   17.9480 C   0  0  0  0  0  2  0  0  0  0  0  0
  -27.8750  -12.4530   18.4250 C   0  0  0  0  0  2  0  0  0  0  0  0
  -27.5570  -13.2920   19.6910 C   0  0  0  0  0  3  0  0  0  0  0  0
  -28.6520  -13.1300   20.7700 C   0  0  0  0  0  2  0  0  0  0  0  0
  -29.9390  -13.4690   20.1460 N   0  0  0  0  0  0  0  0  0  0  0  0
  -31.7600  -14.7760   19.8390 O   0  0  0  0  0  0  0  0  0  0  0  0
  -29.8720  -15.7590   20.6230 N   0  0  0  0  0  0  0  0  0  0  0  0
  -28.8860  -15.5920   20.7510 H   0  0  0  0  0  0  0  0  0  0  0  0
  -25.1820  -13.8610   20.4910 C   0  0  0  0  0  0  0  0  0  0  0  0
  -24.1340  -13.0740   20.8840 C   0  0  0  0  0  0  0  0  0  0  0  0
  -24.6060  -11.7270   20.8200 C   0  0  0  0  0  0  0  0  0  0  0  0
  -26.2270  -12.9930   20.2140 N   0  0  0  0  0  0  0  0  0  0  0  0
  -25.8870  -11.7040   20.4730 N   0  0  0  0  0  0  0  0  0  0  0  0
  -23.8970  -10.4560   21.0150 C   0  0  0  0  0  0  0  0  0  0  0  0
  -24.3500   -9.4910   21.9410 C   0  0  0  0  0  3  0  0  0  0  0  0
  -23.6390   -8.2850   22.1240 C   0  0  0  0  0  3  0  0  0  0  0  0
  -22.4620   -8.0350   21.3790 C   0  0  0  0  0  0  0  0  0  0  0  0
  -22.0280   -8.9890   20.4410 C   0  0  0  0  0  3  0  0  0  0  0  0
  -22.7400  -10.1860   20.2580 C   0  0  0  0  0  3  0  0  0  0  0  0
  -21.7220   -6.8810   21.4710 O   0  0  0  0  0  0  0  0  0  0  0  0
  -21.6810   -6.1430   22.6270 C   0  0  0  0  0  0  0  0  0  0  0  0
  -21.2220   -6.6910   23.8450 C   0  0  0  0  0  3  0  0  0  0  0  0
  -21.1290   -5.8780   24.9910 C   0  0  0  0  0  3  0  0  0  0  0  0
  -21.4850   -4.5180   24.9220 C   0  0  0  0  0  0  0  0  0  0  0  0
  -21.9370   -3.9690   23.7090 C   0  0  0  0  0  3  0  0  0  0  0  0
  -22.0310   -4.7800   22.5640 C   0  0  0  0  0  0  0  0  0  0  0  0
  -22.4470   -4.2400   21.3930 F   0  0  0  0  0  0  0  0  0  0  0  0
  -21.3890   -3.7350   26.0220 F   0  0  0  0  0  0  0  0  0  0  0  0
  -22.7420  -13.5350   21.2030 C   0  0  0  0  0  0  0  0  0  0  0  0
  -22.0430  -12.8170   22.0750 N   0  0  0  0  0  0  0  0  0  0  0  0
  -22.2830  -14.5670   20.7160 O   0  0  0  0  0  0  0  0  0  0  0  0
  -22.4300  -11.9820   22.4930 H   0  0  0  0  0  0  0  0  0  0  0  0
  -21.1110  -13.1060   22.3320 H   0  0  0  0  0  0  0  0  0  0  0  0
  -25.3280  -15.2350   20.3250 N   0  0  0  0  0  0  0  0  0  0  0  0
  -24.5520  -15.8740   20.4560 H   0  0  0  0  0  0  0  0  0  0  0  0
  -26.1500  -15.6870   19.9460 H   0  0  0  0  0  0  0  0  0  0  0  0
  -28.8200  -23.2230   20.5530 C   0  0  0  0  0  3  0  0  0  0  0  0
  -28.9830  -22.0070   20.9800 N   0  0  0  0  0  0  0  0  0  0  0  0
  -28.6180  -24.3690   21.5090 C   0  0  0  0  0  3  0  0  0  0  0  0
  -28.4300  -25.7230   21.3870 C   0  0  0  0  0  3  0  0  0  0  0  0
  -28.3700  -26.5600   20.2800 O   0  0  0  0  0  0  0  0  0  0  0  0
  -24.5720  -31.9120   23.2560 C   0  0  0  0  0  0  0  0  0  0  0  0
  -27.2780  -27.4190   20.2420 C   0  0  0  0  0  0  0  0  0  0  0  0
  -23.4060  -30.5020   21.5960 C   0  0  0  0  0  3  0  0  0  0  0  0
  -24.8950  -28.9670   20.1940 C   0  0  0  0  0  0  0  0  0  0  0  0
  -25.9390  -30.8560   21.4490 C   0  0  0  0  0  2  0  0  0  0  0  0
  -26.0450  -29.4800   20.8090 C   0  0  0  0  0  0  0  0  0  0  0  0
  -27.2440  -28.7140   20.8330 C   0  0  0  0  0  3  0  0  0  0  0  0
  -26.1140  -26.9420   19.6100 C   0  0  0  0  0  3  0  0  0  0  0  0
  -24.9280  -27.7010   19.5880 C   0  0  0  0  0  3  0  0  0  0  0  0
  -23.6460  -29.8240   20.2210 C   0  0  0  0  0  2  0  0  0  0  0  0
  -24.6560  -31.1070   22.1580 N   0  0  0  0  0  0  0  0  0  0  0  0
  -23.4790  -32.1810   23.7750 O   0  0  0  0  0  0  0  0  0  0  0  0
  -22.7390  -29.4800   22.5470 C   0  0  0  0  0  0  0  0  0  0  0  0
  -21.4160  -29.2970   22.4030 N   0  0  0  0  0  0  0  0  0  0  0  0
  -23.4110  -28.8550   23.3720 O   0  0  0  0  0  0  0  0  0  0  0  0
  -20.9350  -29.8510   21.7070 H   0  0  0  0  0  0  0  0  0  0  0  0
  -18.0340  -28.1030   22.8670 C   0  0  0  0  0  0  0  0  0  0  0  0
  -20.5900  -28.3560   23.1610 C   0  0  0  0  0  3  0  0  0  0  0  0
  -20.6950  -26.9280   22.5780 C   0  0  0  0  0  2  0  0  0  0  0  0
  -19.6020  -26.6130   21.5530 C   0  0  0  0  0  2  0  0  0  0  0  0
  -18.2150  -26.7560   22.1860 C   0  0  0  0  0  2  0  0  0  0  0  0
  -19.1500  -28.8610   23.3100 C   0  0  0  0  0  0  0  0  0  0  0  0
  -18.9270  -30.1220   23.9060 C   0  0  0  0  0  3  0  0  0  0  0  0
  -17.6220  -30.6230   24.0630 C   0  0  0  0  0  3  0  0  0  0  0  0
  -16.5200  -29.8620   23.6360 C   0  0  0  0  0  3  0  0  0  0  0  0
  -16.7270  -28.6030   23.0430 C   0  0  0  0  0  3  0  0  0  0  0  0
  -25.8420  -32.5540   23.8980 C   0  0  0  0  0  3  0  0  0  0  0  0
  -26.3360  -31.7940   25.1890 C   0  0  1  0  0  0  0  0  0  0  0  0
  -25.2230  -31.5590   26.2370 C   0  0  0  0  0  1  0  0  0  0  0  0
  -26.9320  -30.4160   24.8190 C   0  0  0  0  0  1  0  0  0  0  0  0
  -27.4700  -32.5980   25.8680 C   0  0  0  0  0  1  0  0  0  0  0  0
  -25.5220  -33.9530   24.2090 N   0  0  0  0  0  0  0  0  0  0  0  0
  -25.8630  -35.0000   23.4460 C   0  0  0  0  0  0  0  0  0  0  0  0
  -26.5490  -34.8910   22.4260 O   0  0  0  0  0  0  0  0  0  0  0  0
  -24.9130  -34.1130   24.9990 H   0  0  0  0  0  0  0  0  0  0  0  0
  -24.1360  -36.7850   23.0450 C   0  0  0  0  0  1  0  0  0  0  0  0
  -25.3640  -36.3920   23.8830 C   0  0  0  0  0  3  0  0  0  0  0  0
  -27.4770  -37.2930   24.7500 C   0  0  0  0  0  1  0  0  0  0  0  0
  -26.3950  -37.4470   23.7790 N   0  0  0  0  0  0  0  0  0  0  0  0
  -25.9840  -38.3660   23.9070 H   0  0  0  0  0  0  0  0  0  0  0  0
  1  6  1  0
  1 48  1  0
  3  2  1  0
  4  6  2  0
  4  7  1  0
  5  8  1  0
  5  2  2  0
  6  5  1  0
  7  3  2  0
  9 17  1  0
 10 15  1  0
 11 12  1  0
 11 10  1  0
 13 12  1  0
 13 22  1  0
 13 14  1  0
 15  9  1  0
 15 14  1  0
 16  9  2  0
 17 18  1  0
 17  7  1  0
 19 20  2  0
 20 39  1  0
 21 20  1  0
 21 24  1  0
 22 23  1  0
 22 19  1  0
 23 21  2  0
 24 25  1  0
 25 26  2  0
 27 30  1  0
 27 26  1  0
 28 27  2  0
 29 28  1  0
 29 24  2  0
 30 31  1  0
 31 32  1  0
 32 33  2  0
 34 33  1  0
 34 38  1  0
 35 34  2  0
 36 31  2  0
 36 35  1  0
 37 36  1  0
 39 40  1  0
 40 43  1  0
 40 42  1  0
 41 39  2  0
 44 45  1  0
 44 19  1  0
 46 44  1  0
 47 48  2  0
 47 49  1  0
 50 49  2  0
 51 50  1  0
 52 63  2  0
 53 51  1  0
 53 58  1  0
 54 62  1  0
 54 64  1  0
 55 61  1  0
 55 57  1  0
 56 62  1  0
 57 58  2  0
 57 56  1  0
 59 53  2  0
 60 59  1  0
 60 55  2  0
 61 54  1  0
 62 52  1  0
 64 66  2  0
 65 64  1  0
 67 65  1  0
 68 77  2  0
 68 73  1  0
 69 65  1  0
 69 73  1  0
 70 69  1  0
 71 72  1  0
 71 70  1  0
 72 68  1  0
 73 74  2  0
 74 75  1  0
 76 75  2  0
 77 76  1  0
 78 52  1  0
 78 83  1  0
 78 79  1  0
 79 82  1  1
 79 80  1  0
 81 79  1  0
 83 86  1  0
 84 88  1  0
 84 83  1  0
 85 84  2  0
 88 87  1  0
 90 88  1  0
 90 91  1  0
 90 89  1  0
M  ISO  4   9 100  17 100  50 101  51 101
M  END
>  <TORSDO>  (52) 
F 19

>  <SCORE>  (52) 
-14.469

>  <name>  (52) 
51

>  <ligand_id>  (52) 
51

>  <original_smiles>  (52) 
[H]C(=NC([H])([H])c1c([H])c(N([H])C(=O)N2C([H])([H])C([H])([H])C([H])([H])C([H])(n3nc(-c4c([H])c([H])c(Oc5c([H])c([H])c(F)c([H])c5F)c([H])c4[H])c(C(=O)N([H])[H])c3N([H])[H])C2([H])[H])c([H])c([H])c1C([H])([H])[H])C([H])=C([H])Oc1c([H])c([H])c2c(c1[H])C([H])([H])N(C(=O)C([H])(N([H])C(=O)C([H])(N([H])C([H])([H])[H])C([H])([H])[H])C(C([H])([H])[H])(C([H])([H])[H])C([H])([H])[H])C([H])(C(=O)N([H])C1([H])c3c([H])c([H])c([H])c([H])c3C([H])([H])C([H])([H])C1([H])[H])C2([H])[H]

>  <smiles>  (52) 
[H]C(=NC([H])([H])c1c([H])c(N([H])C(=O)N2C([H])([H])C([H])([H])C([H])([H])C([H])(n3nc(-c4c([H])c([H])c(Oc5c([H])c([H])c(F)c([H])c5F)c([H])c4[H])c(C(=O)N([H])[H])c3N([H])[H])C2([H])[H])c([H])c([H])c1C([H])([H])[H])C([H])=C([H])Oc1c([H])c([H])c2c(c1[H])C([H])([H])N(C(=O)C([H])(N([H])C(=O)C([H])(N([H])C([H])([H])[H])C([H])([H])[H])C(C([H])([H])[H])(C([H])([H])[H])C([H])([H])[H])C([H])(C(=O)N([H])C1([H])c3c([H])c([H])c([H])c([H])c3C([H])([H])C([H])([H])C1([H])[H])C2([H])[H]

$$$$
52:0:0
     RDKit          3D

106115  0  0  1  0  0  0  0  0999 V2000
  -32.1860  -24.6900   19.5920 C   0  0  0  0  0  3  0  0  0  0  0  0
  -30.3090  -25.4460   17.6480 C   0  0  0  0  0  3  0  0  0  0  0  0
  -32.0360  -23.9030   18.4250 C   0  0  0  0  0  0  0  0  0  0  0  0
  -31.3760  -25.8240   19.8160 C   0  0  0  0  0  0  0  0  0  0  0  0
  -31.1110  -24.3100   17.4260 C   0  0  0  0  0  0  0  0  0  0  0  0
  -30.4080  -26.1840   18.8440 C   0  0  0  0  0  0  0  0  0  0  0  0
  -30.8960  -23.5190   16.1420 C   0  0  0  0  0  1  0  0  0  0  0  0
  -32.8270  -22.6420   18.3080 C   0  0  0  0  0  0  0  0  0  0  0  0
  -33.5780  -22.3790   17.3660 O   0  0  0  0  0  0  0  0  0  0  0  0
  -32.5710  -21.6150   19.4150 C   0  0  0  0  0  2  0  0  0  0  0  0
  -31.1130  -21.3590   19.4390 N   0  0  0  0  0  4  0  0  0  0  0  0
  -30.6770  -22.2210   19.1560 H   0  0  0  0  0  0  0  0  0  0  0  0
  -30.8790  -20.6570   18.7560 H   0  0  0  0  0  0  0  0  0  0  0  0
  -30.5460  -20.9950   20.7500 C   0  0  0  0  0  2  0  0  0  0  0  0
  -31.5060  -18.7570   21.4240 C   0  0  0  0  0  3  0  0  0  0  0  0
  -31.4370  -17.3560   21.5530 C   0  0  0  0  0  3  0  0  0  0  0  0
  -29.1660  -17.3950   20.6680 C   0  0  0  0  0  3  0  0  0  0  0  0
  -30.4180  -19.4840   20.8930 C   0  0  0  0  0  0  0  0  0  0  0  0
  -29.2410  -18.7940   20.5050 C   0  0  0  0  0  0  0  0  0  0  0  0
  -30.2680  -16.6720   21.1620 C   0  0  0  0  0  0  0  0  0  0  0  0
  -28.0440  -19.5130   19.9000 C   0  0  0  0  0  1  0  0  0  0  0  0
  -30.6940  -14.4170   20.3820 C   0  0  0  0  0  0  0  0  0  0  0  0
  -30.3440  -12.3200   19.1360 C   0  0  0  0  0  2  0  0  0  0  0  0
  -29.3670  -12.5480   17.9660 C   0  0  0  0  0  2  0  0  0  0  0  0
  -27.9100  -12.3790   18.4340 C   0  0  0  0  0  2  0  0  0  0  0  0
  -27.5990  -13.2130   19.7030 C   0  0  0  0  0  3  0  0  0  0  0  0
  -28.6720  -12.9610   20.7870 C   0  0  0  0  0  2  0  0  0  0  0  0
  -29.9980  -13.2620   20.2110 N   0  0  0  0  0  0  0  0  0  0  0  0
  -31.7330  -14.6810   19.7680 O   0  0  0  0  0  0  0  0  0  0  0  0
  -30.1570  -15.2700   21.2640 N   0  0  0  0  0  0  0  0  0  0  0  0
  -29.3150  -14.9230   21.6960 H   0  0  0  0  0  0  0  0  0  0  0  0
  -25.2110  -13.8250   20.4590 C   0  0  0  0  0  0  0  0  0  0  0  0
  -24.1480  -13.0520   20.8440 C   0  0  0  0  0  0  0  0  0  0  0  0
  -24.6040  -11.7000   20.7870 C   0  0  0  0  0  0  0  0  0  0  0  0
  -26.2510  -12.9430   20.2010 N   0  0  0  0  0  0  0  0  0  0  0  0
  -25.8870  -11.6590   20.4520 N   0  0  0  0  0  0  0  0  0  0  0  0
  -23.8800  -10.4370   20.9790 C   0  0  0  0  0  0  0  0  0  0  0  0
  -24.3030   -9.4810   21.9290 C   0  0  0  0  0  3  0  0  0  0  0  0
  -23.5810   -8.2810   22.1080 C   0  0  0  0  0  3  0  0  0  0  0  0
  -22.4220   -8.0300   21.3370 C   0  0  0  0  0  0  0  0  0  0  0  0
  -22.0210   -8.9720   20.3740 C   0  0  0  0  0  3  0  0  0  0  0  0
  -22.7420  -10.1630   20.1940 C   0  0  0  0  0  3  0  0  0  0  0  0
  -21.6730   -6.8810   21.4240 O   0  0  0  0  0  0  0  0  0  0  0  0
  -21.5850   -6.1650   22.5900 C   0  0  0  0  0  0  0  0  0  0  0  0
  -21.0900   -6.7380   23.7820 C   0  0  0  0  0  3  0  0  0  0  0  0
  -20.9560   -5.9470   24.9400 C   0  0  0  0  0  3  0  0  0  0  0  0
  -21.3040   -4.5830   24.9070 C   0  0  0  0  0  0  0  0  0  0  0  0
  -21.7910   -4.0090   23.7190 C   0  0  0  0  0  3  0  0  0  0  0  0
  -21.9280   -4.7980   22.5630 C   0  0  0  0  0  0  0  0  0  0  0  0
  -22.3790   -4.2350   21.4150 F   0  0  0  0  0  0  0  0  0  0  0  0
  -21.1650   -3.8200   26.0160 F   0  0  0  0  0  0  0  0  0  0  0  0
  -22.7580  -13.5280   21.1530 C   0  0  0  0  0  0  0  0  0  0  0  0
  -22.0490  -12.8180   22.0240 N   0  0  0  0  0  0  0  0  0  0  0  0
  -22.3090  -14.5590   20.6530 O   0  0  0  0  0  0  0  0  0  0  0  0
  -22.4260  -11.9860   22.4510 H   0  0  0  0  0  0  0  0  0  0  0  0
  -21.1130  -13.1110   22.2670 H   0  0  0  0  0  0  0  0  0  0  0  0
  -25.3780  -15.1960   20.2910 N   0  0  0  0  0  0  0  0  0  0  0  0
  -24.6130  -15.8510   20.3980 H   0  0  0  0  0  0  0  0  0  0  0  0
  -26.2240  -15.6250   19.9390 H   0  0  0  0  0  0  0  0  0  0  0  0
  -31.5330  -26.6110   21.1130 C   0  0  0  0  0  2  0  0  0  0  0  0
  -30.3250  -27.2480   23.1800 C   0  0  0  0  0  1  0  0  0  0  0  0
  -30.4370  -26.3060   22.0500 N   0  0  0  0  0  4  0  0  0  0  0  0
  -29.5730  -26.3260   21.5280 H   0  0  0  0  0  0  0  0  0  0  0  0
  -30.5600  -25.3730   22.4080 H   0  0  0  0  0  0  0  0  0  0  0  0
  -29.3870  -27.2770   19.1030 C   0  0  0  0  0  2  0  0  0  0  0  0
  -28.4280  -26.7890   20.0320 O   0  0  0  0  0  0  0  0  0  0  0  0
  -24.5530  -31.8180   23.2190 C   0  0  0  0  0  0  0  0  0  0  0  0
  -27.2640  -27.5050   20.0650 C   0  0  0  0  0  0  0  0  0  0  0  0
  -23.3670  -30.4410   21.5360 C   0  0  0  0  0  3  0  0  0  0  0  0
  -24.8460  -28.9420   20.1000 C   0  0  0  0  0  0  0  0  0  0  0  0
  -25.8860  -30.8350   21.3630 C   0  0  0  0  0  2  0  0  0  0  0  0
  -25.9910  -29.4800   20.7030 C   0  0  0  0  0  0  0  0  0  0  0  0
  -27.2060  -28.7650   20.6890 C   0  0  0  0  0  3  0  0  0  0  0  0
  -26.1060  -26.9580   19.4770 C   0  0  0  0  0  3  0  0  0  0  0  0
  -24.8950  -27.6750   19.4880 C   0  0  0  0  0  3  0  0  0  0  0  0
  -23.5930  -29.7830   20.1480 C   0  0  0  0  0  2  0  0  0  0  0  0
  -24.6200  -31.0440   22.1000 N   0  0  0  0  0  0  0  0  0  0  0  0
  -23.4660  -32.0730   23.7560 O   0  0  0  0  0  0  0  0  0  0  0  0
  -22.7150  -29.3980   22.4730 C   0  0  0  0  0  0  0  0  0  0  0  0
  -21.3890  -29.2340   22.3470 N   0  0  0  0  0  0  0  0  0  0  0  0
  -23.3990  -28.7420   23.2620 O   0  0  0  0  0  0  0  0  0  0  0  0
  -20.9000  -29.8150   21.6810 H   0  0  0  0  0  0  0  0  0  0  0  0
  -18.0000  -28.0910   22.8560 C   0  0  0  0  0  0  0  0  0  0  0  0
  -20.5670  -28.2830   23.0940 C   0  0  0  0  0  3  0  0  0  0  0  0
  -20.6290  -26.8750   22.4570 C   0  0  0  0  0  2  0  0  0  0  0  0
  -19.5040  -26.6190   21.4500 C   0  0  0  0  0  2  0  0  0  0  0  0
  -18.1370  -26.7650   22.1240 C   0  0  0  0  0  2  0  0  0  0  0  0
  -19.1420  -28.8110   23.2960 C   0  0  0  0  0  0  0  0  0  0  0  0
  -18.9620  -30.0540   23.9400 C   0  0  0  0  0  3  0  0  0  0  0  0
  -17.6710  -30.5770   24.1470 C   0  0  0  0  0  3  0  0  0  0  0  0
  -16.5440  -29.8530   23.7220 C   0  0  0  0  0  3  0  0  0  0  0  0
  -16.7100  -28.6120   23.0830 C   0  0  0  0  0  3  0  0  0  0  0  0
  -25.8320  -32.4400   23.8620 C   0  0  0  0  0  3  0  0  0  0  0  0
  -25.5260  -33.8390   24.1900 N   0  0  0  0  0  0  0  0  0  0  0  0
  -25.8870  -34.8910   23.4430 C   0  0  0  0  0  0  0  0  0  0  0  0
  -26.5850  -34.7850   22.4300 O   0  0  0  0  0  0  0  0  0  0  0  0
  -24.9110  -33.9960   24.9750 H   0  0  0  0  0  0  0  0  0  0  0  0
  -24.1920  -36.7020   23.0320 C   0  0  0  0  0  1  0  0  0  0  0  0
  -25.3970  -36.2810   23.8890 C   0  0  0  0  0  3  0  0  0  0  0  0
  -27.5060  -37.1370   24.8080 C   0  0  0  0  0  1  0  0  0  0  0  0
  -26.4430  -37.3240   23.8250 N   0  0  0  0  0  0  0  0  0  0  0  0
  -26.0400  -38.2460   23.9660 H   0  0  0  0  0  0  0  0  0  0  0  0
  -26.3280  -31.6600   25.1410 C   0  0  1  0  0  0  0  0  0  0  0  0
  -25.2170  -31.4140   26.1890 C   0  0  0  0  0  1  0  0  0  0  0  0
  -26.9180  -30.2860   24.7450 C   0  0  0  0  0  1  0  0  0  0  0  0
  -27.4670  -32.4500   25.8290 C   0  0  0  0  0  1  0  0  0  0  0  0
  1  4  1  0
  2  6  1  0
  3  1  2  0
  4 60  1  0
  5  2  2  0
  5  3  1  0
  6 65  1  0
  6  4  2  0
  7  5  1  0
  8  3  1  0
  8 10  1  0
  9  8  2  0
 10 11  1  0
 11 14  1  0
 12 11  1  0
 13 11  1  0
 14 18  1  0
 15 16  1  0
 17 20  1  0
 18 15  2  0
 19 17  2  0
 19 18  1  0
 20 30  1  0
 20 16  2  0
 21 19  1  0
 22 30  1  0
 23 28  1  0
 24 25  1  0
 24 23  1  0
 26 25  1  0
 26 35  1  0
 26 27  1  0
 28 22  1  0
 28 27  1  0
 29 22  2  0
 30 31  1  0
 32 33  2  0
 33 52  1  0
 34 33  1  0
 34 37  1  0
 35 36  1  0
 35 32  1  0
 36 34  2  0
 37 38  1  0
 38 39  2  0
 40 43  1  0
 40 39  1  0
 41 40  2  0
 42 41  1  0
 42 37  2  0
 43 44  1  0
 44 45  1  0
 45 46  2  0
 47 46  1  0
 47 51  1  0
 48 47  2  0
 49 44  2  0
 49 48  1  0
 50 49  1  0
 52 53  1  0
 53 56  1  0
 53 55  1  0
 54 52  2  0
 57 58  1  0
 57 32  1  0
 59 57  1  0
 60 62  1  0
 62 64  1  0
 62 61  1  0
 63 62  1  0
 65 66  1  0
 66 68  1  0
 67 78  2  0
 68 73  1  0
 69 77  1  0
 69 79  1  0
 70 76  1  0
 70 72  1  0
 71 77  1  0
 72 71  1  0
 73 72  2  0
 74 75  1  0
 74 68  2  0
 75 70  2  0
 76 69  1  0
 77 67  1  0
 79 81  2  0
 80 79  1  0
 82 80  1  0
 83 92  2  0
 83 88  1  0
 84 80  1  0
 84 88  1  0
 85 84  1  0
 86 87  1  0
 86 85  1  0
 87 83  1  0
 88 89  2  0
 89 90  1  0
 91 90  2  0
 92 91  1  0
 93 67  1  0
 93 94  1  0
 93103  1  0
 94 97  1  0
 95 99  1  0
 95 94  1  0
 96 95  2  0
 99 98  1  0
101 99  1  0
101102  1  0
101100  1  0
103106  1  1
103104  1  0
105103  1  0
M  ISO  4  22 100  30 100  65 101  66 101
M  END
>  <TORSDO>  (53) 
F 24

>  <SCORE>  (53) 
-13.017

>  <name>  (53) 
52

>  <ligand_id>  (53) 
52

>  <original_smiles>  (53) 
[H]c1c([H])c([H])c2c(c1[H])C([H])([H])C([H])([H])C([H])([H])C2([H])N([H])C(=O)C1([H])N(C(=O)C([H])(N([H])C(=O)C([H])(N([H])C([H])([H])[H])C([H])([H])[H])C(C([H])([H])[H])(C([H])([H])[H])C([H])([H])[H])C([H])([H])c2c([H])c(OC([H])([H])c3c([H])c(C([H])([H])[H])c(C(=O)C([H])([H])[N+]([H])([H])C([H])([H])c4c([H])c([H])c(N([H])C(=O)N5C([H])([H])C([H])([H])C([H])([H])C([H])(n6nc(-c7c([H])c([H])c(Oc8c([H])c([H])c(F)c([H])c8F)c([H])c7[H])c(C(=O)N([H])[H])c6N([H])[H])C5([H])[H])c([H])c4C([H])([H])[H])c([H])c3C([H])([H])[N+]([H])([H])C([H])([H])[H])c([H])c([H])c2C1([H])[H]

>  <smiles>  (53) 
[H]c1c([H])c([H])c2c(c1[H])C([H])([H])C([H])([H])C([H])([H])C2([H])N([H])C(=O)C1([H])N(C(=O)C([H])(N([H])C(=O)C([H])(N([H])C([H])([H])[H])C([H])([H])[H])C(C([H])([H])[H])(C([H])([H])[H])C([H])([H])[H])C([H])([H])c2c([H])c(OC([H])([H])c3c([H])c(C([H])([H])[H])c(C(=O)C([H])([H])[N+]([H])([H])C([H])([H])c4c([H])c([H])c(N([H])C(=O)N5C([H])([H])C([H])([H])C([H])([H])C([H])(n6nc(-c7c([H])c([H])c(Oc8c([H])c([H])c(F)c([H])c8F)c([H])c7[H])c(C(=O)N([H])[H])c6N([H])[H])C5([H])[H])c([H])c4C([H])([H])[H])c([H])c3C([H])([H])[N+]([H])([H])C([H])([H])[H])c([H])c([H])c2C1([H])[H]

$$$$
53:0:0
     RDKit          3D

 96105  0  0  1  0  0  0  0  0999 V2000
  -28.7110  -24.4410   18.7130 C   0  0  0  0  0  0  0  0  0  0  0  0
  -28.0590  -24.1610   17.5640 C   0  0  0  0  0  2  0  0  0  0  0  0
  -30.3770  -24.7700   21.1700 C   0  0  0  0  0  2  0  0  0  0  0  0
  -30.5170  -25.7170   19.9280 C   0  0  0  0  0  2  0  0  0  0  0  0
  -29.2810  -23.7050   20.9680 C   0  0  0  0  0  2  0  0  0  0  0  0
  -29.1640  -25.8780   19.1810 C   0  0  0  0  0  3  0  0  0  0  0  0
  -29.3700  -23.3200   19.5510 N   0  0  1  0  0  4  0  0  0  0  0  0
  -30.3580  -23.4220   19.3810 H   0  0  0  0  0  0  0  0  0  0  0  0
  -28.4140  -26.5810   20.2160 O   0  0  0  0  0  0  0  0  0  0  0  0
  -24.6200  -31.8560   23.2280 C   0  0  0  0  0  0  0  0  0  0  0  0
  -27.2780  -27.3730   20.0710 C   0  0  0  0  0  0  0  0  0  0  0  0
  -23.4120  -30.4440   21.5920 C   0  0  0  0  0  3  0  0  0  0  0  0
  -24.8650  -28.8980   20.1470 C   0  0  0  0  0  0  0  0  0  0  0  0
  -25.9430  -30.7820   21.3960 C   0  0  0  0  0  2  0  0  0  0  0  0
  -26.0260  -29.4110   20.7390 C   0  0  0  0  0  0  0  0  0  0  0  0
  -27.2230  -28.6440   20.7140 C   0  0  0  0  0  3  0  0  0  0  0  0
  -26.0970  -26.8870   19.4780 C   0  0  0  0  0  3  0  0  0  0  0  0
  -24.8980  -27.6360   19.5180 C   0  0  0  0  0  3  0  0  0  0  0  0
  -23.6200  -29.7580   20.2130 C   0  0  0  0  0  2  0  0  0  0  0  0
  -24.6750  -31.0440   22.1300 N   0  0  0  0  0  0  0  0  0  0  0  0
  -23.5390  -32.1320   23.7720 O   0  0  0  0  0  0  0  0  0  0  0  0
  -22.7540  -29.4350   22.5620 C   0  0  0  0  0  0  0  0  0  0  0  0
  -21.4260  -29.2620   22.4470 N   0  0  0  0  0  0  0  0  0  0  0  0
  -23.4350  -28.8100   23.3780 O   0  0  0  0  0  0  0  0  0  0  0  0
  -20.9340  -29.8250   21.7660 H   0  0  0  0  0  0  0  0  0  0  0  0
  -18.0510  -28.0630   22.9500 C   0  0  0  0  0  0  0  0  0  0  0  0
  -20.6080  -28.3280   23.2210 C   0  0  0  0  0  3  0  0  0  0  0  0
  -20.7110  -26.8920   22.6520 C   0  0  0  0  0  2  0  0  0  0  0  0
  -19.6120  -26.5650   21.6370 C   0  0  0  0  0  2  0  0  0  0  0  0
  -18.2290  -26.7110   22.2790 C   0  0  0  0  0  2  0  0  0  0  0  0
  -19.1680  -28.8290   23.3780 C   0  0  0  0  0  0  0  0  0  0  0  0
  -18.9480  -30.0940   23.9640 C   0  0  0  0  0  3  0  0  0  0  0  0
  -17.6430  -30.5940   24.1280 C   0  0  0  0  0  3  0  0  0  0  0  0
  -16.5390  -29.8250   23.7170 C   0  0  0  0  0  3  0  0  0  0  0  0
  -16.7450  -28.5610   23.1360 C   0  0  0  0  0  3  0  0  0  0  0  0
  -25.9060  -32.4890   23.8420 C   0  0  0  0  0  3  0  0  0  0  0  0
  -26.4380  -31.7160   25.1120 C   0  0  1  0  0  0  0  0  0  0  0  0
  -25.3590  -31.4800   26.1950 C   0  0  0  0  0  1  0  0  0  0  0  0
  -27.0120  -30.3370   24.7130 C   0  0  0  0  0  1  0  0  0  0  0  0
  -27.5950  -32.5110   25.7640 C   0  0  0  0  0  1  0  0  0  0  0  0
  -25.5980  -33.8870   24.1800 N   0  0  0  0  0  0  0  0  0  0  0  0
  -25.9260  -34.9450   23.4230 C   0  0  0  0  0  0  0  0  0  0  0  0
  -26.5910  -34.8460   22.3880 O   0  0  0  0  0  0  0  0  0  0  0  0
  -25.0030  -34.0350   24.9820 H   0  0  0  0  0  0  0  0  0  0  0  0
  -24.1910  -36.7380   23.0930 C   0  0  0  0  0  1  0  0  0  0  0  0
  -25.4420  -36.3310   23.8900 C   0  0  0  0  0  3  0  0  0  0  0  0
  -27.5870  -37.2140   24.6980 C   0  0  0  0  0  1  0  0  0  0  0  0
  -26.4720  -37.3870   23.7690 N   0  0  0  0  0  0  0  0  0  0  0  0
  -26.0660  -38.3050   23.9310 H   0  0  0  0  0  0  0  0  0  0  0  0
  -29.2040  -21.8550   19.1850 C   0  0  0  0  0  2  0  0  0  0  0  0
  -31.5980  -18.3310   20.5500 C   0  0  0  0  0  3  0  0  0  0  0  0
  -32.1850  -19.6110   20.5670 C   0  0  0  0  0  3  0  0  0  0  0  0
  -29.5450  -19.3600   19.7540 C   0  0  0  0  0  3  0  0  0  0  0  0
  -30.2810  -18.1800   20.0850 C   0  0  0  0  0  0  0  0  0  0  0  0
  -31.4840  -20.7690   20.1350 C   0  0  0  0  0  0  0  0  0  0  0  0
  -30.1010  -20.6840   19.7700 C   0  0  0  0  0  0  0  0  0  0  0  0
  -32.3270  -22.0230   19.9910 C   0  0  0  0  0  1  0  0  0  0  0  0
  -29.7330  -16.7700   19.7360 C   0  0  0  0  0  2  0  0  0  0  0  0
  -30.6350  -14.5320   20.4110 C   0  0  0  0  0  0  0  0  0  0  0  0
  -30.3560  -12.3090   19.3830 C   0  0  0  0  0  2  0  0  0  0  0  0
  -29.4240  -12.4910   18.1650 C   0  0  0  0  0  2  0  0  0  0  0  0
  -27.9480  -12.3640   18.5870 C   0  0  0  0  0  2  0  0  0  0  0  0
  -27.6020  -13.2210   19.8350 C   0  0  0  0  0  3  0  0  0  0  0  0
  -28.6590  -13.0430   20.9530 C   0  0  0  0  0  2  0  0  0  0  0  0
  -29.9850  -13.3300   20.3800 N   0  0  0  0  0  0  0  0  0  0  0  0
  -31.7790  -14.6750   19.9780 O   0  0  0  0  0  0  0  0  0  0  0  0
  -29.8600  -15.6140   20.6640 N   0  0  0  0  0  0  0  0  0  0  0  0
  -29.0050  -15.3890   21.1500 H   0  0  0  0  0  0  0  0  0  0  0  0
  -25.2020  -13.8270   20.5290 C   0  0  0  0  0  0  0  0  0  0  0  0
  -24.1330  -13.0610   20.9000 C   0  0  0  0  0  0  0  0  0  0  0  0
  -24.5910  -11.7060   20.8750 C   0  0  0  0  0  0  0  0  0  0  0  0
  -26.2490  -12.9470   20.3100 N   0  0  0  0  0  0  0  0  0  0  0  0
  -25.8850  -11.6650   20.5760 N   0  0  0  0  0  0  0  0  0  0  0  0
  -23.8620  -10.4480   21.0680 C   0  0  0  0  0  0  0  0  0  0  0  0
  -24.3060   -9.4720   21.9880 C   0  0  0  0  0  3  0  0  0  0  0  0
  -23.5810   -8.2760   22.1680 C   0  0  0  0  0  3  0  0  0  0  0  0
  -22.3960   -8.0460   21.4300 C   0  0  0  0  0  0  0  0  0  0  0  0
  -21.9700   -9.0100   20.4980 C   0  0  0  0  0  3  0  0  0  0  0  0
  -22.6960  -10.2000   20.3170 C   0  0  0  0  0  3  0  0  0  0  0  0
  -21.6390   -6.9040   21.5220 O   0  0  0  0  0  0  0  0  0  0  0  0
  -21.6210   -6.1410   22.6640 C   0  0  0  0  0  0  0  0  0  0  0  0
  -21.2500   -6.6800   23.9150 C   0  0  0  0  0  3  0  0  0  0  0  0
  -21.1790   -5.8460   25.0490 C   0  0  0  0  0  3  0  0  0  0  0  0
  -21.4690   -4.4730   24.9320 C   0  0  0  0  0  0  0  0  0  0  0  0
  -21.8300   -3.9320   23.6840 C   0  0  0  0  0  3  0  0  0  0  0  0
  -21.9050   -4.7640   22.5540 C   0  0  0  0  0  0  0  0  0  0  0  0
  -22.2350   -4.2360   21.3510 F   0  0  0  0  0  0  0  0  0  0  0  0
  -21.3930   -3.6680   26.0180 F   0  0  0  0  0  0  0  0  0  0  0  0
  -22.7350  -13.5380   21.1680 C   0  0  0  0  0  0  0  0  0  0  0  0
  -22.0050  -12.8480   22.0340 N   0  0  0  0  0  0  0  0  0  0  0  0
  -22.2970  -14.5630   20.6440 O   0  0  0  0  0  0  0  0  0  0  0  0
  -22.3720  -12.0200   22.4810 H   0  0  0  0  0  0  0  0  0  0  0  0
  -21.0670  -13.1490   22.2570 H   0  0  0  0  0  0  0  0  0  0  0  0
  -25.3690  -15.1980   20.3310 N   0  0  0  0  0  0  0  0  0  0  0  0
  -24.5950  -15.8490   20.4080 H   0  0  0  0  0  0  0  0  0  0  0  0
  -26.2020  -15.6160   19.9420 H   0  0  0  0  0  0  0  0  0  0  0  0
  1  6  1  0
  1  7  1  0
  2  1  2  0
  4  3  1  0
  5  3  1  0
  6  4  1  0
  6  9  1  0
  7  5  1  0
  7  8  1  6
 10 21  2  0
 11  9  1  0
 11 16  1  0
 12 20  1  0
 12 22  1  0
 13 19  1  0
 13 15  1  0
 14 20  1  0
 15 14  1  0
 16 15  2  0
 17 18  1  0
 17 11  2  0
 18 13  2  0
 19 12  1  0
 20 10  1  0
 22 24  2  0
 23 22  1  0
 25 23  1  0
 26 35  2  0
 26 31  1  0
 27 23  1  0
 27 31  1  0
 28 27  1  0
 29 30  1  0
 29 28  1  0
 30 26  1  0
 31 32  2  0
 32 33  1  0
 34 33  2  0
 35 34  1  0
 36 10  1  0
 36 41  1  0
 36 37  1  0
 37 40  1  1
 37 38  1  0
 39 37  1  0
 41 44  1  0
 42 46  1  0
 42 41  1  0
 43 42  2  0
 46 45  1  0
 48 46  1  0
 48 49  1  0
 48 47  1  0
 50  7  1  0
 50 56  1  0
 51 52  1  0
 53 56  2  0
 53 54  1  0
 54 51  2  0
 55 52  2  0
 56 55  1  0
 57 55  1  0
 58 54  1  0
 58 67  1  0
 59 67  1  0
 60 65  1  0
 61 62  1  0
 61 60  1  0
 63 62  1  0
 63 72  1  0
 63 64  1  0
 65 59  1  0
 65 64  1  0
 66 59  2  0
 67 68  1  0
 69 70  2  0
 70 89  1  0
 71 70  1  0
 71 74  1  0
 72 69  1  0
 72 73  1  0
 73 71  2  0
 74 75  1  0
 75 76  2  0
 77 80  1  0
 77 76  1  0
 78 77  2  0
 79 78  1  0
 79 74  2  0
 80 81  1  0
 81 82  1  0
 82 83  2  0
 84 83  1  0
 84 88  1  0
 85 84  2  0
 86 81  2  0
 86 85  1  0
 87 86  1  0
 89 90  1  0
 90 93  1  0
 90 92  1  0
 91 89  2  0
 94 95  1  0
 94 69  1  0
 96 94  1  0
M  ISO  4   6 101   9 101  59 100  67 100
M  END
>  <TORSDO>  (54) 
F 19

>  <SCORE>  (54) 
-14.418

>  <name>  (54) 
53

>  <ligand_id>  (54) 
53

>  <original_smiles>  (54) 
[H]C([H])=C1C([H])(Oc2c([H])c([H])c3c(c2[H])C([H])([H])N(C(=O)C([H])(N([H])C(=O)C([H])(N([H])C([H])([H])[H])C([H])([H])[H])C(C([H])([H])[H])(C([H])([H])[H])C([H])([H])[H])C([H])(C(=O)N([H])C2([H])c4c([H])c([H])c([H])c([H])c4C([H])([H])C([H])([H])C2([H])[H])C3([H])[H])C([H])([H])C([H])([H])C([H])([H])[N+]1([H])C([H])([H])c1c([H])c(C([H])([H])N([H])C(=O)N2C([H])([H])C([H])([H])C([H])([H])C([H])(n3nc(-c4c([H])c([H])c(Oc5c([H])c([H])c(F)c([H])c5F)c([H])c4[H])c(C(=O)N([H])[H])c3N([H])[H])C2([H])[H])c([H])c([H])c1C([H])([H])[H]

>  <smiles>  (54) 
[H]C([H])=C1C([H])(Oc2c([H])c([H])c3c(c2[H])C([H])([H])N(C(=O)C([H])(N([H])C(=O)C([H])(N([H])C([H])([H])[H])C([H])([H])[H])C(C([H])([H])[H])(C([H])([H])[H])C([H])([H])[H])C([H])(C(=O)N([H])C2([H])c4c([H])c([H])c([H])c([H])c4C([H])([H])C([H])([H])C2([H])[H])C3([H])[H])C([H])([H])C([H])([H])C([H])([H])[N+]1([H])C([H])([H])c1c([H])c(C([H])([H])N([H])C(=O)N2C([H])([H])C([H])([H])C([H])([H])C([H])(n3nc(-c4c([H])c([H])c(Oc5c([H])c([H])c(F)c([H])c5F)c([H])c4[H])c(C(=O)N([H])[H])c3N([H])[H])C2([H])[H])c([H])c([H])c1C([H])([H])[H]

$$$$
54:0:0
     RDKit          3D

 95104  0  0  1  0  0  0  0  0999 V2000
  -28.2830  -23.6100   20.3840 C   0  0  0  0  0  0  0  0  0  0  0  0
  -30.5470  -23.7870   18.5910 C   0  0  0  0  0  2  0  0  0  0  0  0
  -29.5030  -24.9470   18.4530 C   0  0  0  0  0  2  0  0  0  0  0  0
  -29.7700  -22.4560   18.7780 C   0  0  0  0  0  2  0  0  0  0  0  0
  -28.3210  -24.9790   19.4880 C   0  0  0  0  0  3  0  0  0  0  0  0
  -28.9770  -22.4310   20.0240 N   0  0  0  0  0  0  0  0  0  0  0  0
  -27.5340  -23.6190   21.3650 O   0  0  0  0  0  0  0  0  0  0  0  0
  -28.2150  -26.3730   20.1540 O   0  0  0  0  0  0  0  0  0  0  0  0
  -24.5420  -31.9350   23.2220 C   0  0  0  0  0  0  0  0  0  0  0  0
  -27.1050  -27.2870   20.0970 C   0  0  0  0  0  0  0  0  0  0  0  0
  -23.3150  -30.5580   21.5860 C   0  0  0  0  0  3  0  0  0  0  0  0
  -24.7490  -29.0010   20.1230 C   0  0  0  0  0  0  0  0  0  0  0  0
  -25.8590  -30.8270   21.3850 C   0  0  0  0  0  2  0  0  0  0  0  0
  -25.9280  -29.4410   20.7330 C   0  0  0  0  0  0  0  0  0  0  0  0
  -27.0940  -28.5960   20.7200 C   0  0  0  0  0  3  0  0  0  0  0  0
  -25.8950  -26.9400   19.4430 C   0  0  0  0  0  3  0  0  0  0  0  0
  -24.7480  -27.7650   19.4610 C   0  0  0  0  0  3  0  0  0  0  0  0
  -23.5190  -29.8940   20.1970 C   0  0  0  0  0  2  0  0  0  0  0  0
  -24.5930  -31.1270   22.1210 N   0  0  0  0  0  0  0  0  0  0  0  0
  -23.4660  -32.2150   23.7690 O   0  0  0  0  0  0  0  0  0  0  0  0
  -22.6530  -29.5400   22.5460 C   0  0  0  0  0  0  0  0  0  0  0  0
  -21.3260  -29.3510   22.4210 N   0  0  0  0  0  0  0  0  0  0  0  0
  -23.3300  -28.9230   23.3720 O   0  0  0  0  0  0  0  0  0  0  0  0
  -20.8310  -29.9120   21.7410 H   0  0  0  0  0  0  0  0  0  0  0  0
  -17.9690  -28.0790   22.8900 C   0  0  0  0  0  0  0  0  0  0  0  0
  -20.5170  -28.4040   23.1950 C   0  0  0  0  0  3  0  0  0  0  0  0
  -20.6610  -26.9670   22.6470 C   0  0  0  0  0  2  0  0  0  0  0  0
  -19.5840  -26.5990   21.6200 C   0  0  0  0  0  2  0  0  0  0  0  0
  -18.1880  -26.7220   22.2390 C   0  0  0  0  0  2  0  0  0  0  0  0
  -19.0640  -28.8720   23.3260 C   0  0  0  0  0  0  0  0  0  0  0  0
  -18.8070  -30.1350   23.9020 C   0  0  0  0  0  3  0  0  0  0  0  0
  -17.4880  -30.6090   24.0430 C   0  0  0  0  0  3  0  0  0  0  0  0
  -16.4090  -29.8160   23.6190 C   0  0  0  0  0  3  0  0  0  0  0  0
  -16.6490  -28.5530   23.0490 C   0  0  0  0  0  3  0  0  0  0  0  0
  -25.8220  -32.5750   23.8380 C   0  0  0  0  0  3  0  0  0  0  0  0
  -26.3410  -31.8050   25.1160 C   0  0  1  0  0  0  0  0  0  0  0  0
  -25.2560  -31.5660   26.1930 C   0  0  0  0  0  1  0  0  0  0  0  0
  -26.9180  -30.4290   24.7190 C   0  0  0  0  0  1  0  0  0  0  0  0
  -27.5010  -32.5950   25.7720 C   0  0  0  0  0  1  0  0  0  0  0  0
  -25.5160  -33.9740   24.1810 N   0  0  0  0  0  0  0  0  0  0  0  0
  -25.8310  -35.0330   23.4210 C   0  0  0  0  0  0  0  0  0  0  0  0
  -26.4880  -34.9360   22.3830 O   0  0  0  0  0  0  0  0  0  0  0  0
  -24.9270  -34.1290   24.9870 H   0  0  0  0  0  0  0  0  0  0  0  0
  -24.0990  -36.8330   23.1040 C   0  0  0  0  0  1  0  0  0  0  0  0
  -25.3510  -36.4220   23.8960 C   0  0  0  0  0  3  0  0  0  0  0  0
  -27.4990  -37.3050   24.6880 C   0  0  0  0  0  1  0  0  0  0  0  0
  -26.3790  -37.4800   23.7670 N   0  0  0  0  0  0  0  0  0  0  0  0
  -25.9740  -38.3980   23.9330 H   0  0  0  0  0  0  0  0  0  0  0  0
  -28.7900  -20.9820   20.5980 C   0  0  0  0  0  2  0  0  0  0  0  0
  -32.1600  -18.6800   22.4860 C   0  0  0  0  0  3  0  0  0  0  0  0
  -31.4480  -18.0470   21.4720 C   0  0  0  0  0  3  0  0  0  0  0  0
  -31.7680  -19.9550   22.8960 C   0  0  0  0  0  3  0  0  0  0  0  0
  -30.2800  -18.5990   20.8900 C   0  0  0  0  0  0  0  0  0  0  0  0
  -29.9770  -20.0420   21.1570 C   0  0  0  0  0  0  0  0  0  0  0  0
  -30.7580  -20.6490   22.1970 C   0  0  0  0  0  0  0  0  0  0  0  0
  -30.4780  -22.2680   22.7330 Cl  0  0  0  0  0  0  0  0  0  0  0  0
  -29.5150  -17.4800   20.0680 C   0  0  0  0  0  2  0  0  0  0  0  0
  -30.4510  -14.8990   20.1320 C   0  0  0  0  0  0  0  0  0  0  0  0
  -30.3270  -12.5990   19.1640 C   0  0  0  0  0  2  0  0  0  0  0  0
  -29.3630  -12.6860   17.9690 C   0  0  0  0  0  2  0  0  0  0  0  0
  -27.9010  -12.5000   18.4150 C   0  0  0  0  0  2  0  0  0  0  0  0
  -27.5450  -13.3600   19.6600 C   0  0  0  0  0  3  0  0  0  0  0  0
  -28.6300  -13.2460   20.7530 C   0  0  0  0  0  2  0  0  0  0  0  0
  -29.9090  -13.6320   20.1440 N   0  0  0  0  0  0  0  0  0  0  0  0
  -31.5880  -15.0630   19.6780 O   0  0  0  0  0  0  0  0  0  0  0  0
  -29.6130  -15.9700   20.4400 N   0  0  0  0  0  0  0  0  0  0  0  0
  -28.7670  -15.6500   20.8870 H   0  0  0  0  0  0  0  0  0  0  0  0
  -25.1810  -13.9560   20.4610 C   0  0  0  0  0  0  0  0  0  0  0  0
  -24.1300  -13.1870   20.8620 C   0  0  0  0  0  0  0  0  0  0  0  0
  -24.5820  -11.8300   20.8030 C   0  0  0  0  0  0  0  0  0  0  0  0
  -26.2120  -13.0750   20.1780 N   0  0  0  0  0  0  0  0  0  0  0  0
  -25.8580  -11.7890   20.4390 N   0  0  0  0  0  0  0  0  0  0  0  0
  -23.8550  -10.5710   20.9950 C   0  0  0  0  0  0  0  0  0  0  0  0
  -24.2910   -9.6010   21.9240 C   0  0  0  0  0  3  0  0  0  0  0  0
  -23.5620   -8.4070   22.1100 C   0  0  0  0  0  3  0  0  0  0  0  0
  -22.3840   -8.1730   21.3600 C   0  0  0  0  0  0  0  0  0  0  0  0
  -21.9670   -9.1290   20.4150 C   0  0  0  0  0  3  0  0  0  0  0  0
  -22.6990  -10.3140   20.2310 C   0  0  0  0  0  3  0  0  0  0  0  0
  -21.6310   -7.0260   21.4510 O   0  0  0  0  0  0  0  0  0  0  0  0
  -21.5620   -6.2970   22.6120 C   0  0  0  0  0  0  0  0  0  0  0  0
  -21.1110   -6.8640   23.8250 C   0  0  0  0  0  3  0  0  0  0  0  0
  -20.9930   -6.0600   24.9760 C   0  0  0  0  0  3  0  0  0  0  0  0
  -21.3190   -4.6920   24.9140 C   0  0  0  0  0  0  0  0  0  0  0  0
  -21.7620   -4.1250   23.7060 C   0  0  0  0  0  3  0  0  0  0  0  0
  -21.8780   -4.9250   22.5550 C   0  0  0  0  0  0  0  0  0  0  0  0
  -22.2870   -4.3690   21.3880 F   0  0  0  0  0  0  0  0  0  0  0  0
  -21.2000   -3.9190   26.0180 F   0  0  0  0  0  0  0  0  0  0  0  0
  -22.7410  -13.6610   21.1880 C   0  0  0  0  0  0  0  0  0  0  0  0
  -22.0320  -12.9650   22.0640 N   0  0  0  0  0  0  0  0  0  0  0  0
  -22.2930  -14.6980   20.6910 O   0  0  0  0  0  0  0  0  0  0  0  0
  -22.3910  -12.1260   22.4970 H   0  0  0  0  0  0  0  0  0  0  0  0
  -21.1040  -13.2830   22.3030 H   0  0  0  0  0  0  0  0  0  0  0  0
  -25.3430  -15.3360   20.2970 N   0  0  0  0  0  0  0  0  0  0  0  0
  -24.5740  -15.9850   20.4340 H   0  0  0  0  0  0  0  0  0  0  0  0
  -26.1440  -15.7880   19.8810 H   0  0  0  0  0  0  0  0  0  0  0  0
  1  7  2  0
  2  4  1  0
  3  2  1  0
  3  5  1  0
  4  6  1  0
  5  8  1  0
  5  1  1  0
  6  1  1  0
  6 49  1  0
  9 20  2  0
 10  8  1  0
 10 15  1  0
 11 19  1  0
 11 21  1  0
 12 18  1  0
 12 14  1  0
 13 19  1  0
 14 13  1  0
 15 14  2  0
 16 17  1  0
 16 10  2  0
 17 12  2  0
 18 11  1  0
 19  9  1  0
 21 23  2  0
 22 21  1  0
 24 22  1  0
 25 34  2  0
 25 30  1  0
 26 22  1  0
 26 30  1  0
 27 26  1  0
 28 29  1  0
 28 27  1  0
 29 25  1  0
 30 31  2  0
 31 32  1  0
 33 32  2  0
 34 33  1  0
 35  9  1  0
 35 40  1  0
 35 36  1  0
 36 39  1  1
 36 37  1  0
 38 36  1  0
 40 43  1  0
 41 45  1  0
 41 40  1  0
 42 41  2  0
 45 44  1  0
 47 45  1  0
 47 48  1  0
 47 46  1  0
 49 54  1  0
 50 52  1  0
 51 50  2  0
 53 54  2  0
 53 51  1  0
 54 55  1  0
 55 56  1  0
 55 52  2  0
 57 66  1  0
 57 53  1  0
 58 64  1  0
 58 66  1  0
 59 64  1  0
 60 61  1  0
 60 59  1  0
 62 61  1  0
 62 71  1  0
 62 63  1  0
 64 63  1  0
 65 58  2  0
 66 67  1  0
 68 69  2  0
 69 88  1  0
 70 69  1  0
 70 73  1  0
 71 72  1  0
 71 68  1  0
 72 70  2  0
 73 74  1  0
 74 75  2  0
 76 79  1  0
 76 75  1  0
 77 76  2  0
 78 77  1  0
 78 73  2  0
 79 80  1  0
 80 81  1  0
 81 82  2  0
 83 82  1  0
 83 87  1  0
 84 83  2  0
 85 80  2  0
 85 84  1  0
 86 85  1  0
 88 89  1  0
 89 92  1  0
 89 91  1  0
 90 88  2  0
 93 94  1  0
 93 68  1  0
 95 93  1  0
M  ISO  4   5 101   8 101  58 100  66 100
M  END
>  <TORSDO>  (55) 
F 19

>  <SCORE>  (55) 
-14.350

>  <name>  (55) 
54

>  <ligand_id>  (55) 
54

>  <original_smiles>  (55) 
[H]c1c([H])c(Cl)c(C([H])([H])N2C(=O)C([H])(Oc3c([H])c([H])c4c(c3[H])C([H])([H])N(C(=O)C([H])(N([H])C(=O)C([H])(N([H])C([H])([H])[H])C([H])([H])[H])C(C([H])([H])[H])(C([H])([H])[H])C([H])([H])[H])C([H])(C(=O)N([H])C3([H])c5c([H])c([H])c([H])c([H])c5C([H])([H])C([H])([H])C3([H])[H])C4([H])[H])C([H])([H])C([H])([H])C2([H])[H])c(C([H])([H])N([H])C(=O)N2C([H])([H])C([H])([H])C([H])([H])C([H])(n3nc(-c4c([H])c([H])c(Oc5c([H])c([H])c(F)c([H])c5F)c([H])c4[H])c(C(=O)N([H])[H])c3N([H])[H])C2([H])[H])c1[H]

>  <smiles>  (55) 
[H]c1c([H])c(Cl)c(C([H])([H])N2C(=O)C([H])(Oc3c([H])c([H])c4c(c3[H])C([H])([H])N(C(=O)C([H])(N([H])C(=O)C([H])(N([H])C([H])([H])[H])C([H])([H])[H])C(C([H])([H])[H])(C([H])([H])[H])C([H])([H])[H])C([H])(C(=O)N([H])C3([H])c5c([H])c([H])c([H])c([H])c5C([H])([H])C([H])([H])C3([H])[H])C4([H])[H])C([H])([H])C([H])([H])C2([H])[H])c(C([H])([H])N([H])C(=O)N2C([H])([H])C([H])([H])C([H])([H])C([H])(n3nc(-c4c([H])c([H])c(Oc5c([H])c([H])c(F)c([H])c5F)c([H])c4[H])c(C(=O)N([H])[H])c3N([H])[H])C2([H])[H])c1[H]

$$$$
55:0:0
     RDKit          3D

 96105  0  0  1  0  0  0  0  0999 V2000
  -29.4810  -24.0100   19.9730 C   0  0  0  0  0  0  0  0  0  0  0  0
  -30.4430  -24.4360   19.1250 C   0  0  0  0  0  3  0  0  0  0  0  0
  -27.1320  -22.8890   21.3630 C   0  0  0  0  0  2  0  0  0  0  0  0
  -27.0470  -24.2660   20.6660 C   0  0  0  0  0  2  0  0  0  0  0  0
  -28.5630  -22.4310   21.7320 C   0  0  0  0  0  2  0  0  0  0  0  0
  -28.3960  -25.0110   20.5860 C   0  0  0  0  0  3  0  0  0  0  0  0
  -31.6390  -23.6660   18.5880 C   0  0  0  0  0  1  0  0  0  0  0  0
  -29.4850  -22.5400   20.5790 N   0  0  1  0  0  4  0  0  0  0  0  0
  -30.3960  -22.4390   21.0010 H   0  0  0  0  0  0  0  0  0  0  0  0
  -28.3830  -26.4520   20.1010 O   0  0  0  0  0  0  0  0  0  0  0  0
  -24.6280  -31.8950   23.2300 C   0  0  0  0  0  0  0  0  0  0  0  0
  -27.2430  -27.3010   20.1560 C   0  0  0  0  0  0  0  0  0  0  0  0
  -23.4180  -30.4920   21.6010 C   0  0  0  0  0  3  0  0  0  0  0  0
  -24.8670  -28.9340   20.1720 C   0  0  0  0  0  0  0  0  0  0  0  0
  -25.9630  -30.7980   21.4080 C   0  0  0  0  0  2  0  0  0  0  0  0
  -26.0400  -29.4160   20.7640 C   0  0  0  0  0  0  0  0  0  0  0  0
  -27.2270  -28.6110   20.7460 C   0  0  0  0  0  3  0  0  0  0  0  0
  -26.0480  -26.9040   19.5140 C   0  0  0  0  0  3  0  0  0  0  0  0
  -24.8760  -27.6830   19.5400 C   0  0  0  0  0  3  0  0  0  0  0  0
  -23.6280  -29.8110   20.2220 C   0  0  0  0  0  2  0  0  0  0  0  0
  -24.6900  -31.0800   22.1360 N   0  0  0  0  0  0  0  0  0  0  0  0
  -23.5450  -32.1790   23.7660 O   0  0  0  0  0  0  0  0  0  0  0  0
  -22.7560  -29.4790   22.5640 C   0  0  0  0  0  0  0  0  0  0  0  0
  -21.4280  -29.3040   22.4450 N   0  0  0  0  0  0  0  0  0  0  0  0
  -23.4370  -28.8550   23.3820 O   0  0  0  0  0  0  0  0  0  0  0  0
  -20.9380  -29.8600   21.7580 H   0  0  0  0  0  0  0  0  0  0  0  0
  -18.0510  -28.1040   22.9500 C   0  0  0  0  0  0  0  0  0  0  0  0
  -20.6100  -28.3670   23.2180 C   0  0  0  0  0  3  0  0  0  0  0  0
  -20.7130  -26.9340   22.6450 C   0  0  0  0  0  2  0  0  0  0  0  0
  -19.6120  -26.6090   21.6340 C   0  0  0  0  0  2  0  0  0  0  0  0
  -18.2290  -26.7530   22.2800 C   0  0  0  0  0  2  0  0  0  0  0  0
  -19.1710  -28.8690   23.3760 C   0  0  0  0  0  0  0  0  0  0  0  0
  -18.9530  -30.1320   23.9670 C   0  0  0  0  0  3  0  0  0  0  0  0
  -17.6470  -30.6300   24.1360 C   0  0  0  0  0  3  0  0  0  0  0  0
  -16.5420  -29.8630   23.7320 C   0  0  0  0  0  3  0  0  0  0  0  0
  -16.7450  -28.6020   23.1430 C   0  0  0  0  0  3  0  0  0  0  0  0
  -25.9100  -32.5320   23.8480 C   0  0  0  0  0  3  0  0  0  0  0  0
  -25.5980  -33.9300   24.1820 N   0  0  0  0  0  0  0  0  0  0  0  0
  -25.9180  -34.9860   23.4240 C   0  0  0  0  0  0  0  0  0  0  0  0
  -26.5760  -34.8870   22.3840 O   0  0  0  0  0  0  0  0  0  0  0  0
  -25.0100  -34.0820   24.9900 H   0  0  0  0  0  0  0  0  0  0  0  0
  -24.1730  -36.7720   23.1030 C   0  0  0  0  0  1  0  0  0  0  0  0
  -25.4320  -36.3730   23.8900 C   0  0  0  0  0  3  0  0  0  0  0  0
  -27.5770  -37.2660   24.6790 C   0  0  0  0  0  1  0  0  0  0  0  0
  -26.4550  -37.4330   23.7580 N   0  0  0  0  0  0  0  0  0  0  0  0
  -26.0490  -38.3500   23.9160 H   0  0  0  0  0  0  0  0  0  0  0  0
  -26.4330  -31.7620   25.1220 C   0  0  1  0  0  0  0  0  0  0  0  0
  -25.3450  -31.5240   26.1960 C   0  0  0  0  0  1  0  0  0  0  0  0
  -27.0180  -30.3860   24.7270 C   0  0  0  0  0  1  0  0  0  0  0  0
  -27.5870  -32.5580   25.7760 C   0  0  0  0  0  1  0  0  0  0  0  0
  -29.4030  -21.2560   19.7230 C   0  0  0  0  0  2  0  0  0  0  0  0
  -31.6200  -20.0670   20.2940 C   0  0  0  0  0  3  0  0  0  0  0  0
  -31.8920  -17.6490   20.6310 C   0  0  0  0  0  3  0  0  0  0  0  0
  -29.6950  -18.5760   20.1930 C   0  0  0  0  0  3  0  0  0  0  0  0
  -32.4390  -18.9450   20.5490 C   0  0  0  0  0  0  0  0  0  0  0  0
  -30.2230  -19.9380   20.1260 C   0  0  0  0  0  0  0  0  0  0  0  0
  -30.5120  -17.3920   20.4260 C   0  0  0  0  0  0  0  0  0  0  0  0
  -33.9390  -19.1240   20.7050 C   0  0  0  0  0  1  0  0  0  0  0  0
  -30.6700  -14.7740   20.3260 C   0  0  0  0  0  0  0  0  0  0  0  0
  -30.3710  -12.4980   19.3530 C   0  0  0  0  0  2  0  0  0  0  0  0
  -29.4320  -12.5560   18.1310 C   0  0  0  0  0  2  0  0  0  0  0  0
  -27.9690  -12.3950   18.5760 C   0  0  0  0  0  2  0  0  0  0  0  0
  -27.6000  -13.3020   19.7800 C   0  0  0  0  0  3  0  0  0  0  0  0
  -28.6740  -13.2670   20.8920 C   0  0  0  0  0  2  0  0  0  0  0  0
  -29.9660  -13.5880   20.2720 N   0  0  0  0  0  0  0  0  0  0  0  0
  -31.8630  -14.7560   20.0230 O   0  0  0  0  0  0  0  0  0  0  0  0
  -29.9990  -15.9850   20.4670 N   0  0  0  0  0  0  0  0  0  0  0  0
  -28.9970  -15.8930   20.5430 H   0  0  0  0  0  0  0  0  0  0  0  0
  -25.2100  -13.8810   20.5170 C   0  0  0  0  0  0  0  0  0  0  0  0
  -24.1480  -13.1030   20.8890 C   0  0  0  0  0  0  0  0  0  0  0  0
  -24.6160  -11.7530   20.8610 C   0  0  0  0  0  0  0  0  0  0  0  0
  -26.2590  -13.0070   20.2830 N   0  0  0  0  0  0  0  0  0  0  0  0
  -25.9090  -11.7230   20.5540 N   0  0  0  0  0  0  0  0  0  0  0  0
  -23.8920  -10.4880   21.0500 C   0  0  0  0  0  0  0  0  0  0  0  0
  -24.3340   -9.5140   21.9740 C   0  0  0  0  0  3  0  0  0  0  0  0
  -23.6090   -8.3170   22.1540 C   0  0  0  0  0  3  0  0  0  0  0  0
  -22.4270   -8.0830   21.4110 C   0  0  0  0  0  0  0  0  0  0  0  0
  -22.0050   -9.0450   20.4750 C   0  0  0  0  0  3  0  0  0  0  0  0
  -22.7300  -10.2330   20.2930 C   0  0  0  0  0  3  0  0  0  0  0  0
  -21.6740   -6.9380   21.5010 O   0  0  0  0  0  0  0  0  0  0  0  0
  -21.6470   -6.1810   22.6440 C   0  0  0  0  0  0  0  0  0  0  0  0
  -21.2550   -6.7250   23.8880 C   0  0  0  0  0  3  0  0  0  0  0  0
  -21.1750   -5.8960   25.0240 C   0  0  0  0  0  3  0  0  0  0  0  0
  -21.4760   -4.5250   24.9210 C   0  0  0  0  0  0  0  0  0  0  0  0
  -21.8630   -3.9810   23.6830 C   0  0  0  0  0  3  0  0  0  0  0  0
  -21.9440   -4.8060   22.5470 C   0  0  0  0  0  0  0  0  0  0  0  0
  -22.2950   -4.2730   21.3530 F   0  0  0  0  0  0  0  0  0  0  0  0
  -21.3930   -3.7270   26.0110 F   0  0  0  0  0  0  0  0  0  0  0  0
  -22.7480  -13.5750   21.1570 C   0  0  0  0  0  0  0  0  0  0  0  0
  -22.0250  -12.8780   22.0270 N   0  0  0  0  0  0  0  0  0  0  0  0
  -22.3050  -14.5960   20.6320 O   0  0  0  0  0  0  0  0  0  0  0  0
  -22.3960  -12.0510   22.4700 H   0  0  0  0  0  0  0  0  0  0  0  0
  -21.0860  -13.1750   22.2530 H   0  0  0  0  0  0  0  0  0  0  0  0
  -25.3670  -15.2510   20.3340 N   0  0  0  0  0  0  0  0  0  0  0  0
  -24.5960  -15.9030   20.4380 H   0  0  0  0  0  0  0  0  0  0  0  0
  -26.2090  -15.6910   19.9850 H   0  0  0  0  0  0  0  0  0  0  0  0
  1  8  1  0
  1  6  1  0
  2  1  2  0
  3  5  1  0
  4  3  1  0
  6 10  1  0
  6  4  1  0
  7  2  1  0
  8  9  1  1
  8  5  1  0
 10 12  1  0
 11 22  2  0
 12 17  1  0
 13 21  1  0
 13 23  1  0
 14 20  1  0
 14 16  1  0
 15 21  1  0
 16 15  1  0
 17 16  2  0
 18 19  1  0
 18 12  2  0
 19 14  2  0
 20 13  1  0
 21 11  1  0
 23 25  2  0
 24 23  1  0
 26 24  1  0
 27 36  2  0
 27 32  1  0
 28 24  1  0
 28 32  1  0
 29 28  1  0
 30 31  1  0
 30 29  1  0
 31 27  1  0
 32 33  2  0
 33 34  1  0
 35 34  2  0
 36 35  1  0
 37 11  1  0
 37 38  1  0
 37 47  1  0
 38 41  1  0
 39 43  1  0
 39 38  1  0
 40 39  2  0
 43 42  1  0
 45 43  1  0
 45 46  1  0
 45 44  1  0
 47 50  1  1
 47 48  1  0
 49 47  1  0
 51 56  1  0
 51  8  1  0
 52 55  1  0
 54 57  2  0
 55 53  2  0
 55 58  1  0
 56 54  1  0
 56 52  2  0
 57 67  1  0
 57 53  1  0
 59 67  1  0
 60 65  1  0
 61 62  1  0
 61 60  1  0
 63 62  1  0
 63 72  1  0
 63 64  1  0
 65 59  1  0
 65 64  1  0
 66 59  2  0
 67 68  1  0
 69 70  2  0
 70 89  1  0
 71 70  1  0
 71 74  1  0
 72 69  1  0
 72 73  1  0
 73 71  2  0
 74 75  1  0
 75 76  2  0
 77 80  1  0
 77 76  1  0
 78 77  2  0
 79 78  1  0
 79 74  2  0
 80 81  1  0
 81 82  1  0
 82 83  2  0
 84 83  1  0
 84 88  1  0
 85 84  2  0
 86 81  2  0
 86 85  1  0
 87 86  1  0
 89 90  1  0
 90 93  1  0
 90 92  1  0
 91 89  2  0
 94 95  1  0
 94 69  1  0
 96 94  1  0
M  ISO  4   6 101  10 101  59 100  67 100
M  END
>  <TORSDO>  (56) 
F 18

>  <SCORE>  (56) 
-15.094

>  <name>  (56) 
55

>  <ligand_id>  (56) 
55

>  <original_smiles>  (56) 
[H]C(=C1C([H])(Oc2c([H])c([H])c3c(c2[H])C([H])([H])N(C(=O)C([H])(N([H])C(=O)C([H])(N([H])C([H])([H])[H])C([H])([H])[H])C(C([H])([H])[H])(C([H])([H])[H])C([H])([H])[H])C([H])(C(=O)N([H])C2([H])c4c([H])c([H])c([H])c([H])c4C([H])([H])C([H])([H])C2([H])[H])C3([H])[H])C([H])([H])C([H])([H])C([H])([H])[N+]1([H])C([H])([H])c1c([H])c(N([H])C(=O)N2C([H])([H])C([H])([H])C([H])([H])C([H])(n3nc(-c4c([H])c([H])c(Oc5c([H])c([H])c(F)c([H])c5F)c([H])c4[H])c(C(=O)N([H])[H])c3N([H])[H])C2([H])[H])c([H])c(C([H])([H])[H])c1[H])C([H])([H])[H]

>  <smiles>  (56) 
[H]C(=C1C([H])(Oc2c([H])c([H])c3c(c2[H])C([H])([H])N(C(=O)C([H])(N([H])C(=O)C([H])(N([H])C([H])([H])[H])C([H])([H])[H])C(C([H])([H])[H])(C([H])([H])[H])C([H])([H])[H])C([H])(C(=O)N([H])C2([H])c4c([H])c([H])c([H])c([H])c4C([H])([H])C([H])([H])C2([H])[H])C3([H])[H])C([H])([H])C([H])([H])C([H])([H])[N+]1([H])C([H])([H])c1c([H])c(N([H])C(=O)N2C([H])([H])C([H])([H])C([H])([H])C([H])(n3nc(-c4c([H])c([H])c(Oc5c([H])c([H])c(F)c([H])c5F)c([H])c4[H])c(C(=O)N([H])[H])c3N([H])[H])C2([H])[H])c([H])c(C([H])([H])[H])c1[H])C([H])([H])[H]

$$$$
56:0:0
     RDKit          3D

 93101  0  0  1  0  0  0  0  0999 V2000
  -28.7680  -21.1970   20.4990 C   0  0  0  0  0  0  0  0  0  0  0  0
  -27.6780  -21.0900   21.1300 N   0  0  0  0  0  0  0  0  0  0  0  0
  -27.5550  -20.1480   21.4850 H   0  0  0  0  0  0  0  0  0  0  0  0
  -31.0660  -20.2210   20.1710 C   0  0  0  0  0  3  0  0  0  0  0  0
  -31.6870  -17.8510   20.2080 C   0  0  0  0  0  3  0  0  0  0  0  0
  -29.7000  -19.9380   20.3750 C   0  0  0  0  0  0  0  0  0  0  0  0
  -29.3560  -18.5050   20.4630 C   0  0  0  0  0  0  0  0  0  0  0  0
  -30.3470  -17.4280   20.3760 C   0  0  0  0  0  0  0  0  0  0  0  0
  -32.0360  -19.2080   20.1000 C   0  0  0  0  0  0  0  0  0  0  0  0
  -27.8960  -18.0980   20.6280 C   0  0  0  0  0  1  0  0  0  0  0  0
  -33.6940  -19.6410   19.8890 Cl  0  0  0  0  0  0  0  0  0  0  0  0
  -30.7480  -14.8240   20.0970 C   0  0  0  0  0  0  0  0  0  0  0  0
  -30.4420  -12.6140   18.9780 C   0  0  0  0  0  2  0  0  0  0  0  0
  -29.4400  -12.7700   17.8130 C   0  0  0  0  0  2  0  0  0  0  0  0
  -27.9970  -12.5780   18.3170 C   0  0  0  0  0  2  0  0  0  0  0  0
  -27.7000  -13.3950   19.6040 C   0  0  0  0  0  3  0  0  0  0  0  0
  -28.8230  -13.2500   20.6560 C   0  0  0  0  0  2  0  0  0  0  0  0
  -30.0850  -13.6200   20.0060 N   0  0  0  0  0  0  0  0  0  0  0  0
  -31.9100  -14.8890   19.6920 O   0  0  0  0  0  0  0  0  0  0  0  0
  -30.0270  -15.9650   20.4510 N   0  0  0  0  0  0  0  0  0  0  0  0
  -29.0860  -15.7530   20.7430 H   0  0  0  0  0  0  0  0  0  0  0  0
  -25.3510  -13.9380   20.4770 C   0  0  0  0  0  0  0  0  0  0  0  0
  -24.3150  -13.1430   20.8820 C   0  0  0  0  0  0  0  0  0  0  0  0
  -24.7830  -11.7980   20.7790 C   0  0  0  0  0  0  0  0  0  0  0  0
  -26.3870  -13.0760   20.1550 N   0  0  0  0  0  0  0  0  0  0  0  0
  -26.0560  -11.7810   20.4000 N   0  0  0  0  0  0  0  0  0  0  0  0
  -24.0750  -10.5240   20.9610 C   0  0  0  0  0  0  0  0  0  0  0  0
  -24.4990   -9.5720   21.9140 C   0  0  0  0  0  3  0  0  0  0  0  0
  -23.7890   -8.3650   22.0860 C   0  0  0  0  0  3  0  0  0  0  0  0
  -22.6410   -8.0990   21.3020 C   0  0  0  0  0  0  0  0  0  0  0  0
  -22.2370   -9.0390   20.3380 C   0  0  0  0  0  3  0  0  0  0  0  0
  -22.9470  -10.2390   20.1650 C   0  0  0  0  0  3  0  0  0  0  0  0
  -21.9040   -6.9420   21.3810 O   0  0  0  0  0  0  0  0  0  0  0  0
  -21.7590   -6.2590   22.5610 C   0  0  0  0  0  0  0  0  0  0  0  0
  -21.1770   -6.8560   23.7010 C   0  0  0  0  0  3  0  0  0  0  0  0
  -20.9840   -6.0990   24.8730 C   0  0  0  0  0  3  0  0  0  0  0  0
  -21.3630   -4.7430   24.9070 C   0  0  0  0  0  0  0  0  0  0  0  0
  -21.9380   -4.1450   23.7710 C   0  0  0  0  0  3  0  0  0  0  0  0
  -22.1330   -4.9010   22.6020 C   0  0  0  0  0  0  0  0  0  0  0  0
  -22.6680   -4.3130   21.5040 F   0  0  0  0  0  0  0  0  0  0  0  0
  -21.1710   -4.0130   26.0290 F   0  0  0  0  0  0  0  0  0  0  0  0
  -22.9300  -13.5990   21.2430 C   0  0  0  0  0  0  0  0  0  0  0  0
  -22.2510  -12.8620   22.1150 N   0  0  0  0  0  0  0  0  0  0  0  0
  -22.4630  -14.6420   20.7880 O   0  0  0  0  0  0  0  0  0  0  0  0
  -22.6440  -12.0180   22.5030 H   0  0  0  0  0  0  0  0  0  0  0  0
  -21.3250  -13.1470   22.3990 H   0  0  0  0  0  0  0  0  0  0  0  0
  -25.4920  -15.3150   20.3290 N   0  0  0  0  0  0  0  0  0  0  0  0
  -24.7080  -15.9420   20.4630 H   0  0  0  0  0  0  0  0  0  0  0  0
  -26.2680  -15.7500   19.8490 H   0  0  0  0  0  0  0  0  0  0  0  0
  -29.0420  -22.6150   19.9340 C   0  0  0  0  0  3  0  0  0  0  0  0
  -28.4050  -23.8210   20.2020 C   0  0  0  0  0  3  0  0  0  0  0  0
  -28.6360  -25.2130   19.4790 C   0  0  0  0  0  2  0  0  0  0  0  0
  -28.4890  -26.5170   20.1950 O   0  0  0  0  0  0  0  0  0  0  0  0
  -24.6510  -31.8460   23.2090 C   0  0  0  0  0  0  0  0  0  0  0  0
  -27.3520  -27.3490   20.1040 C   0  0  0  0  0  0  0  0  0  0  0  0
  -23.4870  -30.4710   21.5220 C   0  0  0  0  0  3  0  0  0  0  0  0
  -24.9740  -28.9590   20.0860 C   0  0  0  0  0  0  0  0  0  0  0  0
  -26.0270  -30.8090   21.3860 C   0  0  0  0  0  2  0  0  0  0  0  0
  -26.1280  -29.4420   20.7140 C   0  0  0  0  0  0  0  0  0  0  0  0
  -27.3150  -28.6470   20.7150 C   0  0  0  0  0  3  0  0  0  0  0  0
  -26.1710  -26.9210   19.4600 C   0  0  0  0  0  3  0  0  0  0  0  0
  -24.9990  -27.7070   19.4500 C   0  0  0  0  0  3  0  0  0  0  0  0
  -23.7300  -29.8220   20.1320 C   0  0  0  0  0  2  0  0  0  0  0  0
  -24.7400  -31.0590   22.0960 N   0  0  0  0  0  0  0  0  0  0  0  0
  -23.5560  -32.1060   23.7310 O   0  0  0  0  0  0  0  0  0  0  0  0
  -22.8150  -29.4320   22.4510 C   0  0  0  0  0  0  0  0  0  0  0  0
  -21.4900  -29.2580   22.3090 N   0  0  0  0  0  0  0  0  0  0  0  0
  -23.4870  -28.7860   23.2610 O   0  0  0  0  0  0  0  0  0  0  0  0
  -21.0060  -29.8330   21.6330 H   0  0  0  0  0  0  0  0  0  0  0  0
  -18.1070  -28.0590   22.7610 C   0  0  0  0  0  0  0  0  0  0  0  0
  -20.6650  -28.3000   23.0480 C   0  0  0  0  0  3  0  0  0  0  0  0
  -20.7630  -26.8870   22.4290 C   0  0  0  0  0  2  0  0  0  0  0  0
  -19.6630  -26.6000   21.4010 C   0  0  0  0  0  2  0  0  0  0  0  0
  -18.2800  -26.7300   22.0450 C   0  0  0  0  0  2  0  0  0  0  0  0
  -19.2280  -28.8030   23.2180 C   0  0  0  0  0  0  0  0  0  0  0  0
  -19.0100  -30.0490   23.8480 C   0  0  0  0  0  3  0  0  0  0  0  0
  -17.7060  -30.5490   24.0260 C   0  0  0  0  0  3  0  0  0  0  0  0
  -16.6020  -29.8020   23.5840 C   0  0  0  0  0  3  0  0  0  0  0  0
  -16.8020  -28.5580   22.9590 C   0  0  0  0  0  3  0  0  0  0  0  0
  -25.9170  -32.4770   23.8670 C   0  0  0  0  0  3  0  0  0  0  0  0
  -26.4110  -31.6890   25.1430 C   0  0  1  0  0  0  0  0  0  0  0  0
  -25.2970  -31.4270   26.1830 C   0  0  0  0  0  1  0  0  0  0  0  0
  -27.0120  -30.3210   24.7440 C   0  0  0  0  0  1  0  0  0  0  0  0
  -27.5410  -32.4810   25.8420 C   0  0  0  0  0  1  0  0  0  0  0  0
  -25.5920  -33.8680   24.2120 N   0  0  0  0  0  0  0  0  0  0  0  0
  -25.9360  -34.9350   23.4780 C   0  0  0  0  0  0  0  0  0  0  0  0
  -26.6270  -34.8510   22.4590 O   0  0  0  0  0  0  0  0  0  0  0  0
  -24.9750  -34.0080   24.9990 H   0  0  0  0  0  0  0  0  0  0  0  0
  -24.2130  -36.7340   23.1150 C   0  0  0  0  0  1  0  0  0  0  0  0
  -25.4340  -36.3150   23.9490 C   0  0  0  0  0  3  0  0  0  0  0  0
  -27.5400  -37.1920   24.8550 C   0  0  0  0  0  1  0  0  0  0  0  0
  -26.4670  -37.3710   23.8820 N   0  0  0  0  0  0  0  0  0  0  0  0
  -26.0550  -38.2890   24.0290 H   0  0  0  0  0  0  0  0  0  0  0  0
  1  2  2  0
  2  3  1  0
  4  6  1  0
  5  8  2  0
  6  7  2  0
  6  1  1  0
  7 10  1  0
  8 20  1  0
  8  7  1  0
  9  4  2  0
  9  5  1  0
 11  9  1  0
 12 20  1  0
 13 18  1  0
 14 15  1  0
 14 13  1  0
 16 15  1  0
 16 25  1  0
 16 17  1  0
 18 12  1  0
 18 17  1  0
 19 12  2  0
 20 21  1  0
 22 23  2  0
 23 42  1  0
 24 23  1  0
 24 27  1  0
 25 26  1  0
 25 22  1  0
 26 24  2  0
 27 28  1  0
 28 29  2  0
 30 33  1  0
 30 29  1  0
 31 30  2  0
 32 31  1  0
 32 27  2  0
 33 34  1  0
 34 39  2  0
 34 35  1  0
 35 36  2  0
 36 37  1  0
 37 41  1  0
 38 37  2  0
 39 38  1  0
 40 39  1  0
 42 43  1  0
 43 46  1  0
 43 45  1  0
 44 42  2  0
 47 48  1  0
 47 22  1  0
 49 47  1  0
 50 51  2  0
 50  1  1  0
 52 53  1  0
 52 51  1  0
 54 65  2  0
 55 53  1  0
 55 60  1  0
 56 64  1  0
 56 66  1  0
 57 63  1  0
 57 59  1  0
 58 64  1  0
 59 60  2  0
 59 58  1  0
 61 55  2  0
 62 61  1  0
 62 57  2  0
 63 56  1  0
 64 54  1  0
 66 68  2  0
 67 66  1  0
 69 67  1  0
 70 79  2  0
 70 75  1  0
 71 67  1  0
 71 75  1  0
 72 71  1  0
 73 74  1  0
 73 72  1  0
 74 70  1  0
 75 76  2  0
 76 77  1  0
 78 77  2  0
 79 78  1  0
 80 54  1  0
 80 85  1  0
 80 81  1  0
 81 84  1  1
 81 82  1  0
 83 81  1  0
 85 88  1  0
 86 90  1  0
 86 85  1  0
 87 86  2  0
 90 89  1  0
 92 90  1  0
 92 93  1  0
 92 91  1  0
M  ISO  4  12 100  20 100  52 101  53 101
M  END
>  <TORSDO>  (57) 
F 19

>  <SCORE>  (57) 
-14.115

>  <name>  (57) 
56

>  <ligand_id>  (57) 
56

>  <original_smiles>  (57) 
[H]N=C(C([H])=C([H])C([H])([H])Oc1c([H])c([H])c2c(c1[H])C([H])([H])N(C(=O)C([H])(N([H])C(=O)C([H])(N([H])C([H])([H])[H])C([H])([H])[H])C(C([H])([H])[H])(C([H])([H])[H])C([H])([H])[H])C([H])(C(=O)N([H])C1([H])c3c([H])c([H])c([H])c([H])c3C([H])([H])C([H])([H])C1([H])[H])C2([H])[H])c1c([H])c(Cl)c([H])c(N([H])C(=O)N2C([H])([H])C([H])([H])C([H])([H])C([H])(n3nc(-c4c([H])c([H])c(Oc5c([H])c([H])c(F)c([H])c5F)c([H])c4[H])c(C(=O)N([H])[H])c3N([H])[H])C2([H])[H])c1C([H])([H])[H]

>  <smiles>  (57) 
[H]N=C(C([H])=C([H])C([H])([H])Oc1c([H])c([H])c2c(c1[H])C([H])([H])N(C(=O)C([H])(N([H])C(=O)C([H])(N([H])C([H])([H])[H])C([H])([H])[H])C(C([H])([H])[H])(C([H])([H])[H])C([H])([H])[H])C([H])(C(=O)N([H])C1([H])c3c([H])c([H])c([H])c([H])c3C([H])([H])C([H])([H])C1([H])[H])C2([H])[H])c1c([H])c(Cl)c([H])c(N([H])C(=O)N2C([H])([H])C([H])([H])C([H])([H])C([H])(n3nc(-c4c([H])c([H])c(Oc5c([H])c([H])c(F)c([H])c5F)c([H])c4[H])c(C(=O)N([H])[H])c3N([H])[H])C2([H])[H])c1C([H])([H])[H]

$$$$
57:0:0
     RDKit          3D

 94102  0  0  1  0  0  0  0  0999 V2000
  -29.4560  -19.3900   20.0900 C   0  0  0  0  0  2  0  0  0  0  0  0
  -30.9440  -16.9140   23.4410 C   0  0  0  0  0  3  0  0  0  0  0  0
  -29.7690  -18.7700   22.4650 C   0  0  0  0  0  3  0  0  0  0  0  0
  -31.1580  -16.3550   22.1680 C   0  0  0  0  0  0  0  0  0  0  0  0
  -29.9570  -18.2910   21.1450 C   0  0  0  0  0  0  0  0  0  0  0  0
  -30.5630  -16.9290   20.9820 C   0  0  0  0  0  0  0  0  0  0  0  0
  -30.2140  -18.0880   23.5980 C   0  0  0  0  0  0  0  0  0  0  0  0
  -32.0940  -15.1470   22.1970 C   0  0  0  0  0  1  0  0  0  0  0  0
  -29.9070  -18.7160   25.1760 Cl  0  0  0  0  0  0  0  0  0  0  0  0
  -31.1110  -14.8470   19.4480 C   0  0  0  0  0  0  0  0  0  0  0  0
  -30.5550  -12.6980   18.2860 C   0  0  0  0  0  2  0  0  0  0  0  0
  -29.4530  -12.9210   17.2280 C   0  0  0  0  0  2  0  0  0  0  0  0
  -28.0570  -12.7890   17.8630 C   0  0  0  0  0  2  0  0  0  0  0  0
  -27.9320  -13.5810   19.1920 C   0  0  0  0  0  3  0  0  0  0  0  0
  -29.1390  -13.3640   20.1210 C   0  0  0  0  0  2  0  0  0  0  0  0
  -30.3460  -13.7000   19.3590 N   0  0  0  0  0  0  0  0  0  0  0  0
  -32.2380  -14.8530   18.9500 O   0  0  0  0  0  0  0  0  0  0  0  0
  -30.5220  -16.0710   19.7680 N   0  0  0  0  0  0  0  0  0  0  0  0
  -30.3680  -16.6060   18.9250 H   0  0  0  0  0  0  0  0  0  0  0  0
  -25.7390  -14.2090   20.3560 C   0  0  0  0  0  0  0  0  0  0  0  0
  -24.6930  -13.4580   20.8120 C   0  0  0  0  0  0  0  0  0  0  0  0
  -25.0540  -12.0930   20.5840 C   0  0  0  0  0  0  0  0  0  0  0  0
  -26.6700  -13.3060   19.8710 N   0  0  0  0  0  0  0  0  0  0  0  0
  -26.2760  -12.0220   20.0670 N   0  0  0  0  0  0  0  0  0  0  0  0
  -24.2810  -10.8590   20.7700 C   0  0  0  0  0  0  0  0  0  0  0  0
  -24.7580   -9.8070   21.5800 C   0  0  0  0  0  3  0  0  0  0  0  0
  -23.9860   -8.6400   21.7650 C   0  0  0  0  0  3  0  0  0  0  0  0
  -22.7220   -8.5180   21.1380 C   0  0  0  0  0  0  0  0  0  0  0  0
  -22.2610   -9.5620   20.3150 C   0  0  0  0  0  3  0  0  0  0  0  0
  -23.0350  -10.7190   20.1280 C   0  0  0  0  0  3  0  0  0  0  0  0
  -21.9160   -7.4090   21.2330 O   0  0  0  0  0  0  0  0  0  0  0  0
  -21.9290   -6.6070   22.3450 C   0  0  0  0  0  0  0  0  0  0  0  0
  -21.6750   -7.1170   23.6360 C   0  0  0  0  0  3  0  0  0  0  0  0
  -21.6270   -6.2450   24.7420 C   0  0  0  0  0  3  0  0  0  0  0  0
  -21.8220   -4.8620   24.5590 C   0  0  0  0  0  0  0  0  0  0  0  0
  -22.0690   -4.3510   23.2730 C   0  0  0  0  0  3  0  0  0  0  0  0
  -22.1200   -5.2200   22.1690 C   0  0  0  0  0  0  0  0  0  0  0  0
  -22.3360   -4.7160   20.9300 F   0  0  0  0  0  0  0  0  0  0  0  0
  -21.7680   -4.0230   25.6220 F   0  0  0  0  0  0  0  0  0  0  0  0
  -23.3900  -13.9770   21.3460 C   0  0  0  0  0  0  0  0  0  0  0  0
  -22.7860  -13.2620   22.2860 N   0  0  0  0  0  0  0  0  0  0  0  0
  -22.9290  -15.0520   20.9610 O   0  0  0  0  0  0  0  0  0  0  0  0
  -23.2000  -12.4070   22.6340 H   0  0  0  0  0  0  0  0  0  0  0  0
  -21.9200  -13.5830   22.6940 H   0  0  0  0  0  0  0  0  0  0  0  0
  -25.9780  -15.5800   20.2940 N   0  0  0  0  0  0  0  0  0  0  0  0
  -26.8420  -15.9990   19.9750 H   0  0  0  0  0  0  0  0  0  0  0  0
  -25.3030  -16.2560   20.6340 H   0  0  0  0  0  0  0  0  0  0  0  0
  -28.6360  -21.9460   20.4760 C   0  0  0  0  0  0  0  0  0  0  0  0
  -29.5590  -20.9030   20.4550 N   0  0  0  0  0  0  0  0  0  0  0  0
  -27.4590  -21.7090   20.2030 O   0  0  0  0  0  0  0  0  0  0  0  0
  -30.5030  -21.1930   20.6730 H   0  0  0  0  0  0  0  0  0  0  0  0
  -29.0320  -23.4830   20.8180 C   0  0  0  0  0  2  0  0  0  0  0  0
  -27.9040  -24.5940   21.2430 C   0  0  0  0  0  2  0  0  0  0  0  0
  -28.0790  -26.1060   21.1460 O   0  0  0  0  0  0  0  0  0  0  0  0
  -28.0120  -32.1280   25.2610 C   0  0  0  0  0  0  0  0  0  0  0  0
  -27.3810  -26.9550   22.0480 C   0  0  0  0  0  0  0  0  0  0  0  0
  -26.4400  -30.3260   25.8620 C   0  0  0  0  0  3  0  0  0  0  0  0
  -26.0790  -28.5120   24.0890 C   0  0  0  0  0  0  0  0  0  0  0  0
  -27.1730  -30.6440   23.4150 C   0  0  0  0  0  2  0  0  0  0  0  0
  -26.9480  -29.1460   23.1940 C   0  0  0  0  0  0  0  0  0  0  0  0
  -27.5870  -28.3760   22.1640 C   0  0  0  0  0  3  0  0  0  0  0  0
  -26.4420  -26.3910   22.9430 C   0  0  0  0  0  3  0  0  0  0  0  0
  -25.8160  -27.1430   23.9540 C   0  0  0  0  0  3  0  0  0  0  0  0
  -25.4490  -29.3410   25.1920 C   0  0  0  0  0  2  0  0  0  0  0  0
  -27.2610  -31.0650   24.8470 N   0  0  0  0  0  0  0  0  0  0  0  0
  -28.0080  -32.5000   26.4440 O   0  0  0  0  0  0  0  0  0  0  0  0
  -27.2950  -29.5620   26.9030 C   0  0  0  0  0  0  0  0  0  0  0  0
  -26.7900  -29.4520   28.1440 N   0  0  0  0  0  0  0  0  0  0  0  0
  -28.3760  -29.0620   26.5810 O   0  0  0  0  0  0  0  0  0  0  0  0
  -25.8990  -29.8880   28.3310 H   0  0  0  0  0  0  0  0  0  0  0  0
  -26.4640  -28.7030   31.6710 C   0  0  0  0  0  0  0  0  0  0  0  0
  -27.4070  -28.7380   29.2630 C   0  0  0  0  0  3  0  0  0  0  0  0
  -27.0690  -27.2300   29.2170 C   0  0  0  0  0  2  0  0  0  0  0  0
  -25.8330  -26.8650   30.0450 C   0  0  0  0  0  2  0  0  0  0  0  0
  -26.0370  -27.2520   31.5130 C   0  0  0  0  0  2  0  0  0  0  0  0
  -27.0930  -29.4040   30.6080 C   0  0  0  0  0  0  0  0  0  0  0  0
  -27.4380  -30.7610   30.7940 C   0  0  0  0  0  3  0  0  0  0  0  0
  -27.1660  -31.4130   32.0110 C   0  0  0  0  0  3  0  0  0  0  0  0
  -26.5600  -30.7100   33.0660 C   0  0  0  0  0  3  0  0  0  0  0  0
  -26.2140  -29.3570   32.8950 C   0  0  0  0  0  3  0  0  0  0  0  0
  -28.8920  -32.9410   24.2660 C   0  0  0  0  0  3  0  0  0  0  0  0
  -30.4190  -32.5500   24.3270 C   0  0  1  0  0  0  0  0  0  0  0  0
  -31.0000  -32.5500   25.7610 C   0  0  0  0  0  1  0  0  0  0  0  0
  -30.6540  -31.1450   23.7250 C   0  0  0  0  0  1  0  0  0  0  0  0
  -31.2490  -33.5360   23.4710 C   0  0  0  0  0  1  0  0  0  0  0  0
  -28.7140  -34.3680   24.5720 N   0  0  0  0  0  0  0  0  0  0  0  0
  -27.9390  -35.2080   23.8720 C   0  0  0  0  0  0  0  0  0  0  0  0
  -27.3410  -34.8680   22.8470 O   0  0  0  0  0  0  0  0  0  0  0  0
  -29.1300  -34.7020   25.4290 H   0  0  0  0  0  0  0  0  0  0  0  0
  -26.4630  -36.8100   25.1290 C   0  0  0  0  0  1  0  0  0  0  0  0
  -27.8030  -36.6520   24.3930 C   0  0  0  0  0  3  0  0  0  0  0  0
  -29.2530  -37.7710   22.7580 C   0  0  0  0  0  1  0  0  0  0  0  0
  -27.9120  -37.6730   23.3290 N   0  0  0  0  0  0  0  0  0  0  0  0
  -27.6520  -38.5910   23.6800 H   0  0  0  0  0  0  0  0  0  0  0  0
  1 49  1  0
  1  5  1  0
  2  7  1  0
  3  7  2  0
  4  8  1  0
  4  2  2  0
  5  3  1  0
  6  5  2  0
  6  4  1  0
  7  9  1  0
 10 18  1  0
 11 16  1  0
 12 13  1  0
 12 11  1  0
 14 13  1  0
 14 23  1  0
 14 15  1  0
 16 10  1  0
 16 15  1  0
 17 10  2  0
 18  6  1  0
 19 18  1  0
 20 21  2  0
 21 40  1  0
 22 25  1  0
 22 21  1  0
 23 24  1  0
 23 20  1  0
 24 22  2  0
 25 26  1  0
 26 27  2  0
 28 31  1  0
 28 27  1  0
 29 28  2  0
 30 29  1  0
 30 25  2  0
 31 32  1  0
 32 33  1  0
 33 34  2  0
 35 34  1  0
 35 39  1  0
 36 35  2  0
 37 32  2  0
 37 36  1  0
 38 37  1  0
 40 41  1  0
 41 43  1  0
 41 44  1  0
 42 40  2  0
 45 20  1  0
 45 47  1  0
 46 45  1  0
 48 52  1  0
 49 48  1  0
 49 51  1  0
 50 48  2  0
 52 53  1  0
 54 53  1  0
 54 56  1  0
 55 66  2  0
 56 61  2  0
 56 62  1  0
 57 67  1  0
 58 64  1  0
 59 65  1  0
 60 59  1  0
 60 58  2  0
 61 60  1  0
 62 63  2  0
 63 58  1  0
 64 57  1  0
 65 55  1  0
 65 57  1  0
 67 68  1  0
 68 70  1  0
 69 67  2  0
 71 80  1  0
 72 68  1  0
 72 76  1  0
 73 72  1  0
 73 74  1  0
 74 75  1  0
 75 71  1  0
 76 77  1  0
 76 71  2  0
 77 78  2  0
 78 79  1  0
 80 79  2  0
 81 82  1  0
 81 86  1  0
 81 55  1  0
 82 83  1  1
 84 82  1  0
 85 82  1  0
 86 89  1  0
 87 91  1  0
 87 86  1  0
 88 87  2  0
 91 90  1  0
 92 93  1  0
 93 94  1  0
 93 91  1  0
M  ISO  4  10 100  18 100  53 101  54 101
M  END
>  <TORSDO>  (58) 
F 20

>  <SCORE>  (58) 
-3.011

>  <name>  (58) 
57

>  <ligand_id>  (58) 
57

>  <original_smiles>  (58) 
[H]c1c([H])c([H])c2c(c1[H])C([H])([H])C([H])([H])C([H])([H])C2([H])N([H])C(=O)C1([H])N(C(=O)C([H])(N([H])C(=O)C([H])(N([H])C([H])([H])[H])C([H])([H])[H])C(C([H])([H])[H])(C([H])([H])[H])C([H])([H])[H])C([H])([H])c2c([H])c(OC([H])([H])C([H])([H])C(=O)N([H])C([H])([H])c3c([H])c(Cl)c([H])c(C([H])([H])[H])c3N([H])C(=O)N3C([H])([H])C([H])([H])C([H])([H])C([H])(n4nc(-c5c([H])c([H])c(Oc6c([H])c([H])c(F)c([H])c6F)c([H])c5[H])c(C(=O)N([H])[H])c4N([H])[H])C3([H])[H])c([H])c([H])c2C1([H])[H]

>  <smiles>  (58) 
[H]c1c([H])c([H])c2c(c1[H])C([H])([H])C([H])([H])C([H])([H])C2([H])N([H])C(=O)C1([H])N(C(=O)C([H])(N([H])C(=O)C([H])(N([H])C([H])([H])[H])C([H])([H])[H])C(C([H])([H])[H])(C([H])([H])[H])C([H])([H])[H])C([H])([H])c2c([H])c(OC([H])([H])C([H])([H])C(=O)N([H])C([H])([H])c3c([H])c(Cl)c([H])c(C([H])([H])[H])c3N([H])C(=O)N3C([H])([H])C([H])([H])C([H])([H])C([H])(n4nc(-c5c([H])c([H])c(Oc6c([H])c([H])c(F)c([H])c6F)c([H])c5[H])c(C(=O)N([H])[H])c4N([H])[H])C3([H])[H])c([H])c([H])c2C1([H])[H]

$$$$
58:0:0
     RDKit          3D

 94102  0  0  1  0  0  0  0  0999 V2000
  -29.7160  -20.8490   19.9020 C   0  0  0  0  0  2  0  0  0  0  0  0
  -31.1410  -18.3660   22.6450 C   0  0  0  0  0  3  0  0  0  0  0  0
  -31.3840  -19.2960   23.6680 C   0  0  0  0  0  3  0  0  0  0  0  0
  -30.5680  -21.0670   22.2320 C   0  0  0  0  0  3  0  0  0  0  0  0
  -30.6010  -18.7470   21.3910 C   0  0  0  0  0  0  0  0  0  0  0  0
  -30.3020  -20.1590   21.1760 C   0  0  0  0  0  0  0  0  0  0  0  0
  -31.0970  -20.6490   23.4610 C   0  0  0  0  0  0  0  0  0  0  0  0
  -31.3950  -21.8000   24.7110 Cl  0  0  0  0  0  0  0  0  0  0  0  0
  -30.4270  -17.5900   20.3660 C   0  0  0  0  0  2  0  0  0  0  0  0
  -31.0780  -15.1130   20.8200 C   0  0  0  0  0  0  0  0  0  0  0  0
  -31.0270  -12.7280   20.1380 C   0  0  0  0  0  2  0  0  0  0  0  0
  -30.2410  -12.6190   18.8120 C   0  0  0  0  0  2  0  0  0  0  0  0
  -28.7300  -12.4780   19.0820 C   0  0  0  0  0  2  0  0  0  0  0  0
  -28.2050  -13.5220   20.1030 C   0  0  0  0  0  3  0  0  0  0  0  0
  -29.1190  -13.6010   21.3480 C   0  0  0  0  0  2  0  0  0  0  0  0
  -30.4870  -13.8800   20.8850 N   0  0  0  0  0  0  0  0  0  0  0  0
  -32.2650  -15.2450   20.5130 O   0  0  0  0  0  0  0  0  0  0  0  0
  -30.2420  -16.1890   20.8940 N   0  0  0  0  0  0  0  0  0  0  0  0
  -29.2990  -15.9640   21.1670 H   0  0  0  0  0  0  0  0  0  0  0  0
  -25.7640  -14.1710   20.5790 C   0  0  0  0  0  0  0  0  0  0  0  0
  -24.6540  -13.4210   20.8580 C   0  0  0  0  0  0  0  0  0  0  0  0
  -25.0930  -12.0620   20.8900 C   0  0  0  0  0  0  0  0  0  0  0  0
  -26.8120  -13.2710   20.4600 N   0  0  0  0  0  0  0  0  0  0  0  0
  -26.4060  -11.9980   20.7070 N   0  0  0  0  0  0  0  0  0  0  0  0
  -24.3300  -10.8150   21.0280 C   0  0  0  0  0  0  0  0  0  0  0  0
  -24.6590   -9.8530   22.0090 C   0  0  0  0  0  3  0  0  0  0  0  0
  -23.8980   -8.6710   22.1360 C   0  0  0  0  0  3  0  0  0  0  0  0
  -22.7940   -8.4410   21.2810 C   0  0  0  0  0  0  0  0  0  0  0  0
  -22.4850   -9.3910   20.2920 C   0  0  0  0  0  3  0  0  0  0  0  0
  -23.2460  -10.5650   20.1640 C   0  0  0  0  0  3  0  0  0  0  0  0
  -22.0150   -7.3100   21.3140 O   0  0  0  0  0  0  0  0  0  0  0  0
  -21.8450   -6.5860   22.4670 C   0  0  0  0  0  0  0  0  0  0  0  0
  -21.2790   -7.1560   23.6280 C   0  0  0  0  0  3  0  0  0  0  0  0
  -21.0600   -6.3570   24.7680 C   0  0  0  0  0  3  0  0  0  0  0  0
  -21.3970   -4.9900   24.7480 C   0  0  0  0  0  0  0  0  0  0  0  0
  -21.9550   -4.4200   23.5900 C   0  0  0  0  0  3  0  0  0  0  0  0
  -22.1760   -5.2160   22.4520 C   0  0  0  0  0  0  0  0  0  0  0  0
  -22.6950   -4.6560   21.3320 F   0  0  0  0  0  0  0  0  0  0  0  0
  -21.1780   -4.2210   25.8400 F   0  0  0  0  0  0  0  0  0  0  0  0
  -23.2450  -13.9250   20.9900 C   0  0  0  0  0  0  0  0  0  0  0  0
  -22.4300  -13.2590   21.8020 N   0  0  0  0  0  0  0  0  0  0  0  0
  -22.8730  -14.9430   20.4080 O   0  0  0  0  0  0  0  0  0  0  0  0
  -22.7390  -12.4350   22.2960 H   0  0  0  0  0  0  0  0  0  0  0  0
  -21.4800  -13.5800   21.9330 H   0  0  0  0  0  0  0  0  0  0  0  0
  -25.9690  -15.5360   20.3970 N   0  0  0  0  0  0  0  0  0  0  0  0
  -25.2050  -16.2030   20.4200 H   0  0  0  0  0  0  0  0  0  0  0  0
  -26.8490  -15.9540   20.1290 H   0  0  0  0  0  0  0  0  0  0  0  0
  -28.2310  -22.9820   20.3680 C   0  0  0  0  0  0  0  0  0  0  0  0
  -27.3280  -20.7220   20.3640 C   0  0  0  0  0  1  0  0  0  0  0  0
  -28.4630  -21.6340   20.1510 N   0  0  0  0  0  0  0  0  0  0  0  0
  -27.2420  -23.3090   21.0340 O   0  0  0  0  0  0  0  0  0  0  0  0
  -29.0500  -24.1840   19.7710 C   0  0  0  0  0  2  0  0  0  0  0  0
  -28.1510  -25.3980   19.2430 C   0  0  0  0  0  2  0  0  0  0  0  0
  -28.3490  -26.8110   19.6500 O   0  0  0  0  0  0  0  0  0  0  0  0
  -24.5140  -31.7980   23.1770 C   0  0  0  0  0  0  0  0  0  0  0  0
  -27.2120  -27.6430   19.6640 C   0  0  0  0  0  0  0  0  0  0  0  0
  -23.3270  -30.5240   21.4300 C   0  0  0  0  0  3  0  0  0  0  0  0
  -24.7990  -29.1740   19.8380 C   0  0  0  0  0  0  0  0  0  0  0  0
  -25.8530  -30.9400   21.2450 C   0  0  0  0  0  2  0  0  0  0  0  0
  -25.9620  -29.6350   20.4670 C   0  0  0  0  0  0  0  0  0  0  0  0
  -27.1690  -28.8810   20.3770 C   0  0  0  0  0  3  0  0  0  0  0  0
  -26.0260  -27.2540   18.9930 C   0  0  0  0  0  3  0  0  0  0  0  0
  -24.8330  -27.9890   19.0910 C   0  0  0  0  0  3  0  0  0  0  0  0
  -23.5370  -29.9960   19.9880 C   0  0  0  0  0  2  0  0  0  0  0  0
  -24.5840  -31.0980   22.0080 N   0  0  0  0  0  0  0  0  0  0  0  0
  -23.4320  -31.9890   23.7500 O   0  0  0  0  0  0  0  0  0  0  0  0
  -22.7130  -29.3970   22.2950 C   0  0  0  0  0  0  0  0  0  0  0  0
  -21.3940  -29.1790   22.1580 N   0  0  0  0  0  0  0  0  0  0  0  0
  -23.4210  -28.7280   23.0520 O   0  0  0  0  0  0  0  0  0  0  0  0
  -20.8790  -29.7770   21.5280 H   0  0  0  0  0  0  0  0  0  0  0  0
  -18.0690  -27.8180   22.5730 C   0  0  0  0  0  0  0  0  0  0  0  0
  -20.6190  -28.1440   22.8440 C   0  0  0  0  0  3  0  0  0  0  0  0
  -20.7660  -26.7770   22.1380 C   0  0  0  0  0  2  0  0  0  0  0  0
  -19.6640  -26.5080   21.1090 C   0  0  0  0  0  2  0  0  0  0  0  0
  -18.2860  -26.5430   21.7750 C   0  0  0  0  0  2  0  0  0  0  0  0
  -19.1650  -28.5770   23.0610 C   0  0  0  0  0  0  0  0  0  0  0  0
  -18.9100  -29.7730   23.7670 C   0  0  0  0  0  3  0  0  0  0  0  0
  -17.5900  -30.2110   23.9880 C   0  0  0  0  0  3  0  0  0  0  0  0
  -16.5090  -29.4480   23.5130 C   0  0  0  0  0  3  0  0  0  0  0  0
  -16.7490  -28.2520   22.8140 C   0  0  0  0  0  3  0  0  0  0  0  0
  -25.7880  -32.4090   23.8380 C   0  0  0  0  0  3  0  0  0  0  0  0
  -25.4740  -33.7960   24.2050 N   0  0  0  0  0  0  0  0  0  0  0  0
  -25.8250  -34.8720   23.4880 C   0  0  0  0  0  0  0  0  0  0  0  0
  -26.5170  -34.8000   22.4680 O   0  0  0  0  0  0  0  0  0  0  0  0
  -24.8620  -33.9270   24.9980 H   0  0  0  0  0  0  0  0  0  0  0  0
  -24.1140  -36.6840   23.1460 C   0  0  0  0  0  1  0  0  0  0  0  0
  -25.3290  -36.2460   23.9770 C   0  0  0  0  0  3  0  0  0  0  0  0
  -27.4370  -37.0990   24.9050 C   0  0  0  0  0  1  0  0  0  0  0  0
  -26.3690  -37.2970   23.9300 N   0  0  0  0  0  0  0  0  0  0  0  0
  -25.9620  -38.2150   24.0870 H   0  0  0  0  0  0  0  0  0  0  0  0
  -26.2830  -31.5980   25.0980 C   0  0  1  0  0  0  0  0  0  0  0  0
  -25.1740  -31.3320   26.1420 C   0  0  0  0  0  1  0  0  0  0  0  0
  -26.8710  -30.2320   24.6750 C   0  0  0  0  0  1  0  0  0  0  0  0
  -27.4250  -32.3700   25.8010 C   0  0  0  0  0  1  0  0  0  0  0  0
  1 50  1  0
  1  6  1  0
  2  3  1  0
  4  7  1  0
  5  2  2  0
  6  5  1  0
  6  4  2  0
  7  3  2  0
  7  8  1  0
  9 18  1  0
  9  5  1  0
 10 16  1  0
 10 18  1  0
 11 16  1  0
 12 13  1  0
 12 11  1  0
 14 13  1  0
 14 23  1  0
 14 15  1  0
 16 15  1  0
 17 10  2  0
 18 19  1  0
 20 21  2  0
 21 22  1  0
 21 40  1  0
 22 25  1  0
 23 20  1  0
 23 24  1  0
 24 22  2  0
 25 26  1  0
 26 27  2  0
 28 31  1  0
 28 27  1  0
 29 28  2  0
 30 29  1  0
 30 25  2  0
 31 32  1  0
 32 33  1  0
 33 34  2  0
 35 34  1  0
 35 39  1  0
 36 35  2  0
 37 32  2  0
 37 36  1  0
 38 37  1  0
 40 41  1  0
 41 44  1  0
 41 43  1  0
 42 40  2  0
 45 46  1  0
 45 20  1  0
 47 45  1  0
 48 51  2  0
 50 49  1  0
 50 48  1  0
 52 48  1  0
 53 54  1  0
 53 52  1  0
 54 56  1  0
 55 66  2  0
 56 61  1  0
 57 65  1  0
 57 67  1  0
 58 64  1  0
 58 60  1  0
 59 65  1  0
 60 59  1  0
 61 60  2  0
 62 63  1  0
 62 56  2  0
 63 58  2  0
 64 57  1  0
 65 55  1  0
 67 69  2  0
 68 67  1  0
 70 68  1  0
 71 80  2  0
 71 76  1  0
 72 68  1  0
 72 76  1  0
 73 72  1  0
 74 75  1  0
 74 73  1  0
 75 71  1  0
 76 77  2  0
 77 78  1  0
 79 78  2  0
 80 79  1  0
 81 55  1  0
 81 82  1  0
 81 91  1  0
 82 85  1  0
 83 87  1  0
 83 82  1  0
 84 83  2  0
 87 86  1  0
 89 87  1  0
 89 90  1  0
 89 88  1  0
 91 94  1  1
 91 92  1  0
 93 91  1  0
M  ISO  4  10 100  18 100  53 101  54 101
M  END
>  <TORSDO>  (59) 
F 21

>  <SCORE>  (59) 
-12.427

>  <name>  (59) 
58

>  <ligand_id>  (59) 
58

>  <original_smiles>  (59) 
[H]c1c([H])c([H])c2c(c1[H])C([H])([H])C([H])([H])C([H])([H])C2([H])N([H])C(=O)C1([H])N(C(=O)C([H])(N([H])C(=O)C([H])(N([H])C([H])([H])[H])C([H])([H])[H])C(C([H])([H])[H])(C([H])([H])[H])C([H])([H])[H])C([H])([H])c2c([H])c(OC([H])([H])C([H])([H])C(=O)N(C([H])([H])[H])C([H])([H])c3c([H])c(Cl)c([H])c([H])c3C([H])([H])N([H])C(=O)N3C([H])([H])C([H])([H])C([H])([H])C([H])(n4nc(-c5c([H])c([H])c(Oc6c([H])c([H])c(F)c([H])c6F)c([H])c5[H])c(C(=O)N([H])[H])c4N([H])[H])C3([H])[H])c([H])c([H])c2C1([H])[H]

>  <smiles>  (59) 
[H]c1c([H])c([H])c2c(c1[H])C([H])([H])C([H])([H])C([H])([H])C2([H])N([H])C(=O)C1([H])N(C(=O)C([H])(N([H])C(=O)C([H])(N([H])C([H])([H])[H])C([H])([H])[H])C(C([H])([H])[H])(C([H])([H])[H])C([H])([H])[H])C([H])([H])c2c([H])c(OC([H])([H])C([H])([H])C(=O)N(C([H])([H])[H])C([H])([H])c3c([H])c(Cl)c([H])c([H])c3C([H])([H])N([H])C(=O)N3C([H])([H])C([H])([H])C([H])([H])C([H])(n4nc(-c5c([H])c([H])c(Oc6c([H])c([H])c(F)c([H])c6F)c([H])c5[H])c(C(=O)N([H])[H])c4N([H])[H])C3([H])[H])c([H])c([H])c2C1([H])[H]

$$$$
59:0:0
     RDKit          3D

 94103  0  0  1  0  0  0  0  0999 V2000
  -28.7040  -23.7280   19.8990 C   0  0  0  0  0  0  0  0  0  0  0  0
  -28.2760  -23.5630   22.7660 C   0  0  0  0  0  2  0  0  0  0  0  0
  -28.4910  -24.9610   22.1650 C   0  0  0  0  0  2  0  0  0  0  0  0
  -29.0950  -22.4940   22.0150 C   0  0  0  0  0  2  0  0  0  0  0  0
  -28.1030  -25.0000   20.6790 C   0  0  0  0  0  3  0  0  0  0  0  0
  -28.9060  -22.5070   20.5530 N   0  0  0  0  0  0  0  0  0  0  0  0
  -28.8570  -23.8250   18.6780 O   0  0  0  0  0  0  0  0  0  0  0  0
  -28.3470  -26.3930   20.1470 O   0  0  0  0  0  0  0  0  0  0  0  0
  -24.6610  -31.8750   23.2110 C   0  0  0  0  0  0  0  0  0  0  0  0
  -27.2570  -27.2950   20.1380 C   0  0  0  0  0  0  0  0  0  0  0  0
  -23.4520  -30.4730   21.5790 C   0  0  0  0  0  3  0  0  0  0  0  0
  -24.8990  -28.9310   20.1350 C   0  0  0  0  0  0  0  0  0  0  0  0
  -25.9900  -30.7920   21.3790 C   0  0  0  0  0  2  0  0  0  0  0  0
  -26.0720  -29.4100   20.7320 C   0  0  0  0  0  0  0  0  0  0  0  0
  -27.2560  -28.6030   20.7250 C   0  0  0  0  0  3  0  0  0  0  0  0
  -26.0670  -26.8860   19.5020 C   0  0  0  0  0  3  0  0  0  0  0  0
  -24.9000  -27.6730   19.5100 C   0  0  0  0  0  3  0  0  0  0  0  0
  -23.6610  -29.8050   20.1950 C   0  0  0  0  0  2  0  0  0  0  0  0
  -24.7210  -31.0650   22.1130 N   0  0  0  0  0  0  0  0  0  0  0  0
  -23.5800  -32.1480   23.7550 O   0  0  0  0  0  0  0  0  0  0  0  0
  -22.7980  -29.4530   22.5410 C   0  0  0  0  0  0  0  0  0  0  0  0
  -21.4700  -29.2750   22.4260 N   0  0  0  0  0  0  0  0  0  0  0  0
  -23.4820  -28.8270   23.3550 O   0  0  0  0  0  0  0  0  0  0  0  0
  -20.9750  -29.8280   21.7390 H   0  0  0  0  0  0  0  0  0  0  0  0
  -18.1020  -28.0650   22.9460 C   0  0  0  0  0  0  0  0  0  0  0  0
  -20.6600  -28.3330   23.2010 C   0  0  0  0  0  3  0  0  0  0  0  0
  -20.7670  -26.9050   22.6200 C   0  0  0  0  0  2  0  0  0  0  0  0
  -19.6590  -26.5800   21.6120 C   0  0  0  0  0  2  0  0  0  0  0  0
  -18.2810  -26.7190   22.2660 C   0  0  0  0  0  2  0  0  0  0  0  0
  -19.2200  -28.8300   23.3710 C   0  0  0  0  0  0  0  0  0  0  0  0
  -18.9990  -30.0930   23.9650 C   0  0  0  0  0  3  0  0  0  0  0  0
  -17.6930  -30.5860   24.1420 C   0  0  0  0  0  3  0  0  0  0  0  0
  -16.5890  -29.8160   23.7360 C   0  0  0  0  0  3  0  0  0  0  0  0
  -16.7950  -28.5580   23.1410 C   0  0  0  0  0  3  0  0  0  0  0  0
  -25.9460  -32.5100   23.8260 C   0  0  0  0  0  3  0  0  0  0  0  0
  -25.6300  -33.9040   24.1710 N   0  0  0  0  0  0  0  0  0  0  0  0
  -25.9490  -34.9650   23.4180 C   0  0  0  0  0  0  0  0  0  0  0  0
  -26.6050  -34.8740   22.3780 O   0  0  0  0  0  0  0  0  0  0  0  0
  -25.0420  -34.0480   24.9780 H   0  0  0  0  0  0  0  0  0  0  0  0
  -24.2060  -36.7540   23.1020 C   0  0  0  0  0  1  0  0  0  0  0  0
  -25.4590  -36.3450   23.8940 C   0  0  0  0  0  3  0  0  0  0  0  0
  -27.5950  -37.2370   24.7130 C   0  0  0  0  0  1  0  0  0  0  0  0
  -26.4830  -37.4050   23.7810 N   0  0  0  0  0  0  0  0  0  0  0  0
  -26.0720  -38.3200   23.9410 H   0  0  0  0  0  0  0  0  0  0  0  0
  -26.4780  -31.7320   25.0920 C   0  0  1  0  0  0  0  0  0  0  0  0
  -25.3980  -31.4840   26.1700 C   0  0  0  0  0  1  0  0  0  0  0  0
  -27.0620  -30.3590   24.6870 C   0  0  0  0  0  1  0  0  0  0  0  0
  -27.6310  -32.5260   25.7500 C   0  0  0  0  0  1  0  0  0  0  0  0
  -28.8660  -21.1080   19.9100 C   0  0  0  0  0  2  0  0  0  0  0  0
  -31.7110  -17.7140   20.6310 C   0  0  0  0  0  3  0  0  0  0  0  0
  -32.1460  -19.0530   20.5710 C   0  0  0  0  0  3  0  0  0  0  0  0
  -29.4400  -18.4960   20.3090 C   0  0  0  0  0  3  0  0  0  0  0  0
  -29.8600  -19.8960   20.2440 C   0  0  0  0  0  0  0  0  0  0  0  0
  -30.3460  -17.3640   20.4730 C   0  0  0  0  0  0  0  0  0  0  0  0
  -31.2540  -20.1210   20.3480 C   0  0  0  0  0  0  0  0  0  0  0  0
  -31.9360  -21.6950   20.1340 Cl  0  0  0  0  0  0  0  0  0  0  0  0
  -30.6410  -14.7580   20.2850 C   0  0  0  0  0  0  0  0  0  0  0  0
  -30.3750  -12.4820   19.2890 C   0  0  0  0  0  2  0  0  0  0  0  0
  -29.4490  -12.5770   18.0600 C   0  0  0  0  0  2  0  0  0  0  0  0
  -27.9790  -12.4070   18.4850 C   0  0  0  0  0  2  0  0  0  0  0  0
  -27.6090  -13.2960   19.7040 C   0  0  0  0  0  3  0  0  0  0  0  0
  -28.6670  -13.2320   20.8280 C   0  0  0  0  0  2  0  0  0  0  0  0
  -29.9670  -13.5560   20.2260 N   0  0  0  0  0  0  0  0  0  0  0  0
  -31.8250  -14.7940   19.9460 O   0  0  0  0  0  0  0  0  0  0  0  0
  -29.9230  -15.9330   20.4980 N   0  0  0  0  0  0  0  0  0  0  0  0
  -28.9350  -15.7800   20.6330 H   0  0  0  0  0  0  0  0  0  0  0  0
  -25.2180  -13.8950   20.4100 C   0  0  0  0  0  0  0  0  0  0  0  0
  -24.1520  -13.1260   20.7850 C   0  0  0  0  0  0  0  0  0  0  0  0
  -24.6160  -11.7740   20.7730 C   0  0  0  0  0  0  0  0  0  0  0  0
  -26.2650  -13.0140   20.1930 N   0  0  0  0  0  0  0  0  0  0  0  0
  -25.9080  -11.7340   20.4730 N   0  0  0  0  0  0  0  0  0  0  0  0
  -23.8880  -10.5130   20.9720 C   0  0  0  0  0  0  0  0  0  0  0  0
  -24.3140   -9.5560   21.9200 C   0  0  0  0  0  3  0  0  0  0  0  0
  -23.5840   -8.3620   22.1080 C   0  0  0  0  0  3  0  0  0  0  0  0
  -22.4130   -8.1170   21.3490 C   0  0  0  0  0  0  0  0  0  0  0  0
  -22.0100   -9.0620   20.3890 C   0  0  0  0  0  3  0  0  0  0  0  0
  -22.7400  -10.2480   20.2010 C   0  0  0  0  0  3  0  0  0  0  0  0
  -21.6570   -6.9730   21.4460 O   0  0  0  0  0  0  0  0  0  0  0  0
  -21.5980   -6.2460   22.6060 C   0  0  0  0  0  0  0  0  0  0  0  0
  -21.1560   -6.8150   23.8220 C   0  0  0  0  0  3  0  0  0  0  0  0
  -21.0480   -6.0140   24.9760 C   0  0  0  0  0  3  0  0  0  0  0  0
  -21.3630   -4.6430   24.9150 C   0  0  0  0  0  0  0  0  0  0  0  0
  -21.7950   -4.0730   23.7040 C   0  0  0  0  0  3  0  0  0  0  0  0
  -21.9090   -4.8730   22.5530 C   0  0  0  0  0  0  0  0  0  0  0  0
  -22.3060   -4.3140   21.3830 F   0  0  0  0  0  0  0  0  0  0  0  0
  -21.2510   -3.8730   26.0230 F   0  0  0  0  0  0  0  0  0  0  0  0
  -22.7520  -13.6070   21.0420 C   0  0  0  0  0  0  0  0  0  0  0  0
  -22.0200  -12.9200   21.9110 N   0  0  0  0  0  0  0  0  0  0  0  0
  -22.3160  -14.6290   20.5130 O   0  0  0  0  0  0  0  0  0  0  0  0
  -22.3870  -12.0910   22.3570 H   0  0  0  0  0  0  0  0  0  0  0  0
  -21.0800  -13.2210   22.1290 H   0  0  0  0  0  0  0  0  0  0  0  0
  -25.3780  -15.2630   20.2070 N   0  0  0  0  0  0  0  0  0  0  0  0
  -24.5940  -15.9030   20.2620 H   0  0  0  0  0  0  0  0  0  0  0  0
  -26.2120  -15.6970   19.8350 H   0  0  0  0  0  0  0  0  0  0  0  0
  1  6  1  0
  1  5  1  0
  3  2  1  0
  4  2  1  0
  5  8  1  0
  5  3  1  0
  6  4  1  0
  7  1  2  0
  9 20  2  0
 10  8  1  0
 10 15  1  0
 11 19  1  0
 11 21  1  0
 12 18  1  0
 12 14  1  0
 13 19  1  0
 14 13  1  0
 15 14  2  0
 16 17  1  0
 16 10  2  0
 17 12  2  0
 18 11  1  0
 19  9  1  0
 21 23  2  0
 22 21  1  0
 24 22  1  0
 25 34  2  0
 25 30  1  0
 26 22  1  0
 26 30  1  0
 27 26  1  0
 28 29  1  0
 28 27  1  0
 29 25  1  0
 30 31  2  0
 31 32  1  0
 33 32  2  0
 34 33  1  0
 35  9  1  0
 35 36  1  0
 35 45  1  0
 36 39  1  0
 37 41  1  0
 37 36  1  0
 38 37  2  0
 41 40  1  0
 43 41  1  0
 43 44  1  0
 43 42  1  0
 45 48  1  1
 45 46  1  0
 47 45  1  0
 49 53  1  0
 49  6  1  0
 51 50  1  0
 52 54  1  0
 53 52  2  0
 53 55  1  0
 54 65  1  0
 54 50  2  0
 55 51  2  0
 56 55  1  0
 57 65  1  0
 58 63  1  0
 59 60  1  0
 59 58  1  0
 61 60  1  0
 61 70  1  0
 61 62  1  0
 63 57  1  0
 63 62  1  0
 64 57  2  0
 65 66  1  0
 67 68  2  0
 68 87  1  0
 69 68  1  0
 69 72  1  0
 70 67  1  0
 70 71  1  0
 71 69  2  0
 72 73  1  0
 73 74  2  0
 75 78  1  0
 75 74  1  0
 76 75  2  0
 77 76  1  0
 77 72  2  0
 78 79  1  0
 79 80  1  0
 80 81  2  0
 82 81  1  0
 82 86  1  0
 83 82  2  0
 84 79  2  0
 84 83  1  0
 85 84  1  0
 87 88  1  0
 88 91  1  0
 88 90  1  0
 89 87  2  0
 92 93  1  0
 92 67  1  0
 94 92  1  0
M  ISO  4   5 101   8 101  57 100  65 100
M  END
>  <TORSDO>  (60) 
F 18

>  <SCORE>  (60) 
-14.435

>  <name>  (60) 
59

>  <ligand_id>  (60) 
59

>  <original_smiles>  (60) 
[H]c1c([H])c([H])c2c(c1[H])C([H])([H])C([H])([H])C([H])([H])C2([H])N([H])C(=O)C1([H])N(C(=O)C([H])(N([H])C(=O)C([H])(N([H])C([H])([H])[H])C([H])([H])[H])C(C([H])([H])[H])(C([H])([H])[H])C([H])([H])[H])C([H])([H])c2c([H])c(OC3([H])C(=O)N(C([H])([H])c4c([H])c(N([H])C(=O)N5C([H])([H])C([H])([H])C([H])([H])C([H])(n6nc(-c7c([H])c([H])c(Oc8c([H])c([H])c(F)c([H])c8F)c([H])c7[H])c(C(=O)N([H])[H])c6N([H])[H])C5([H])[H])c([H])c([H])c4Cl)C([H])([H])C([H])([H])C3([H])[H])c([H])c([H])c2C1([H])[H]

>  <smiles>  (60) 
[H]c1c([H])c([H])c2c(c1[H])C([H])([H])C([H])([H])C([H])([H])C2([H])N([H])C(=O)C1([H])N(C(=O)C([H])(N([H])C(=O)C([H])(N([H])C([H])([H])[H])C([H])([H])[H])C(C([H])([H])[H])(C([H])([H])[H])C([H])([H])[H])C([H])([H])c2c([H])c(OC3([H])C(=O)N(C([H])([H])c4c([H])c(N([H])C(=O)N5C([H])([H])C([H])([H])C([H])([H])C([H])(n6nc(-c7c([H])c([H])c(Oc8c([H])c([H])c(F)c([H])c8F)c([H])c7[H])c(C(=O)N([H])[H])c6N([H])[H])C5([H])[H])c([H])c([H])c4Cl)C([H])([H])C([H])([H])C3([H])[H])c([H])c([H])c2C1([H])[H]

$$$$
60:0:0
     RDKit          3D

 92100  0  0  1  0  0  0  0  0999 V2000
  -29.8380  -21.9320   21.0180 C   0  0  0  0  0  2  0  0  0  0  0  0
  -27.5070  -19.1040   19.8090 C   0  0  0  0  0  3  0  0  0  0  0  0
  -28.3070  -17.9590   19.9730 C   0  0  0  0  0  3  0  0  0  0  0  0
  -28.0100  -20.3700   20.1520 C   0  0  0  0  0  3  0  0  0  0  0  0
  -29.6140  -18.0540   20.4980 C   0  0  0  0  0  0  0  0  0  0  0  0
  -29.3160  -20.5180   20.6770 C   0  0  0  0  0  0  0  0  0  0  0  0
  -30.1040  -19.3440   20.8910 C   0  0  0  0  0  0  0  0  0  0  0  0
  -31.4780  -19.4640   21.5520 C   0  0  0  0  0  1  0  0  0  0  0  0
  -30.4470  -16.8060   20.5490 C   0  0  0  0  0  3  0  0  0  0  0  0
  -30.0260  -15.6220   20.8360 N   0  0  0  0  0  0  0  0  0  0  0  0
  -30.8840  -14.5390   20.6030 C   0  0  0  0  0  0  0  0  0  0  0  0
  -30.7300  -12.2130   19.7870 C   0  0  0  0  0  2  0  0  0  0  0  0
  -29.8810  -12.2500   18.5000 C   0  0  0  0  0  2  0  0  0  0  0  0
  -28.3790  -12.1100   18.8300 C   0  0  0  0  0  2  0  0  0  0  0  0
  -27.9290  -13.0960   19.9430 C   0  0  0  0  0  3  0  0  0  0  0  0
  -28.9070  -13.0620   21.1370 C   0  0  0  0  0  2  0  0  0  0  0  0
  -30.2670  -13.3240   20.6350 N   0  0  0  0  0  0  0  0  0  0  0  0
  -32.0580  -14.6300   20.2290 O   0  0  0  0  0  0  0  0  0  0  0  0
  -25.5150  -13.7650   20.5450 C   0  0  0  0  0  0  0  0  0  0  0  0
  -24.4160  -13.0220   20.8770 C   0  0  0  0  0  0  0  0  0  0  0  0
  -24.8450  -11.6620   20.8750 C   0  0  0  0  0  0  0  0  0  0  0  0
  -26.5470  -12.8560   20.3640 N   0  0  0  0  0  0  0  0  0  0  0  0
  -26.1440  -11.5850   20.6200 N   0  0  0  0  0  0  0  0  0  0  0  0
  -24.0800  -10.4190   21.0450 C   0  0  0  0  0  0  0  0  0  0  0  0
  -24.4480   -9.4520   22.0090 C   0  0  0  0  0  3  0  0  0  0  0  0
  -23.6890   -8.2740   22.1680 C   0  0  0  0  0  3  0  0  0  0  0  0
  -22.5440   -8.0540   21.3650 C   0  0  0  0  0  0  0  0  0  0  0  0
  -22.1930   -9.0080   20.3950 C   0  0  0  0  0  3  0  0  0  0  0  0
  -22.9530  -10.1780   20.2310 C   0  0  0  0  0  3  0  0  0  0  0  0
  -21.7590   -6.9270   21.4320 O   0  0  0  0  0  0  0  0  0  0  0  0
  -21.6290   -6.2080   22.5930 C   0  0  0  0  0  0  0  0  0  0  0  0
  -21.1400   -6.7900   23.7830 C   0  0  0  0  0  3  0  0  0  0  0  0
  -20.9570   -5.9970   24.9320 C   0  0  0  0  0  3  0  0  0  0  0  0
  -21.2530   -4.6210   24.8920 C   0  0  0  0  0  0  0  0  0  0  0  0
  -21.7310   -4.0360   23.7050 C   0  0  0  0  0  3  0  0  0  0  0  0
  -21.9140   -4.8290   22.5590 C   0  0  0  0  0  0  0  0  0  0  0  0
  -22.3570   -4.2560   21.4130 F   0  0  0  0  0  0  0  0  0  0  0  0
  -21.0710   -3.8540   25.9920 F   0  0  0  0  0  0  0  0  0  0  0  0
  -23.0200  -13.5340   21.0840 C   0  0  0  0  0  0  0  0  0  0  0  0
  -22.2450  -12.8730   21.9360 N   0  0  0  0  0  0  0  0  0  0  0  0
  -22.6240  -14.5570   20.5240 O   0  0  0  0  0  0  0  0  0  0  0  0
  -22.5770  -12.0490   22.4150 H   0  0  0  0  0  0  0  0  0  0  0  0
  -21.3030  -13.1960   22.1090 H   0  0  0  0  0  0  0  0  0  0  0  0
  -25.7250  -15.1260   20.3620 N   0  0  0  0  0  0  0  0  0  0  0  0
  -24.9840  -15.8170   20.4360 H   0  0  0  0  0  0  0  0  0  0  0  0
  -26.6070  -15.5160   20.0570 H   0  0  0  0  0  0  0  0  0  0  0  0
  -29.3090  -24.3530   20.6260 C   0  0  0  0  0  0  0  0  0  0  0  0
  -29.0920  -23.0420   20.4160 N   0  0  0  0  0  0  0  0  0  0  0  0
  -30.2220  -24.7770   21.3370 O   0  0  0  0  0  0  0  0  0  0  0  0
  -28.3500  -22.7900   19.7790 H   0  0  0  0  0  0  0  0  0  0  0  0
  -28.3240  -25.3140   19.9400 C   0  0  0  0  0  2  0  0  0  0  0  0
  -28.5220  -26.7100   20.2660 O   0  0  0  0  0  0  0  0  0  0  0  0
  -24.6180  -31.8670   23.2640 C   0  0  0  0  0  0  0  0  0  0  0  0
  -27.3790  -27.4890   20.1820 C   0  0  0  0  0  0  0  0  0  0  0  0
  -23.4750  -30.4890   21.5610 C   0  0  0  0  0  3  0  0  0  0  0  0
  -24.9810  -29.0060   20.1400 C   0  0  0  0  0  0  0  0  0  0  0  0
  -26.0050  -30.8680   21.4470 C   0  0  0  0  0  2  0  0  0  0  0  0
  -26.1220  -29.5120   20.7780 C   0  0  0  0  0  0  0  0  0  0  0  0
  -27.3250  -28.7640   20.7970 C   0  0  0  0  0  3  0  0  0  0  0  0
  -26.2200  -27.0230   19.5070 C   0  0  0  0  0  3  0  0  0  0  0  0
  -25.0300  -27.7620   19.4970 C   0  0  0  0  0  3  0  0  0  0  0  0
  -23.7290  -29.8490   20.1710 C   0  0  0  0  0  2  0  0  0  0  0  0
  -24.7160  -31.0880   22.1480 N   0  0  0  0  0  0  0  0  0  0  0  0
  -23.5190  -32.1160   23.7760 O   0  0  0  0  0  0  0  0  0  0  0  0
  -22.8060  -29.4380   22.4770 C   0  0  0  0  0  0  0  0  0  0  0  0
  -21.4810  -29.2720   22.3330 N   0  0  0  0  0  0  0  0  0  0  0  0
  -23.4780  -28.7780   23.2750 O   0  0  0  0  0  0  0  0  0  0  0  0
  -21.0040  -29.8580   21.6630 H   0  0  0  0  0  0  0  0  0  0  0  0
  -18.0800  -28.1480   22.8190 C   0  0  0  0  0  0  0  0  0  0  0  0
  -20.6480  -28.3180   23.0640 C   0  0  0  0  0  3  0  0  0  0  0  0
  -20.7020  -26.9190   22.4100 C   0  0  0  0  0  2  0  0  0  0  0  0
  -19.5770  -26.6800   21.3980 C   0  0  0  0  0  2  0  0  0  0  0  0
  -18.2080  -26.8330   22.0670 C   0  0  0  0  0  2  0  0  0  0  0  0
  -19.2260  -28.8520   23.2720 C   0  0  0  0  0  0  0  0  0  0  0  0
  -19.0520  -30.0880   23.9340 C   0  0  0  0  0  3  0  0  0  0  0  0
  -17.7660  -30.6190   24.1420 C   0  0  0  0  0  3  0  0  0  0  0  0
  -16.6340  -29.9080   23.7070 C   0  0  0  0  0  3  0  0  0  0  0  0
  -16.7910  -28.6740   23.0520 C   0  0  0  0  0  3  0  0  0  0  0  0
  -25.8780  -32.4960   23.9310 C   0  0  0  0  0  3  0  0  0  0  0  0
  -26.3330  -31.7360   25.2380 C   0  0  1  0  0  0  0  0  0  0  0  0
  -25.1890  -31.5050   26.2540 C   0  0  0  0  0  1  0  0  0  0  0  0
  -26.9300  -30.3530   24.8840 C   0  0  0  0  0  1  0  0  0  0  0  0
  -27.4530  -32.5350   25.9460 C   0  0  0  0  0  1  0  0  0  0  0  0
  -25.5650  -33.8990   24.2290 N   0  0  0  0  0  0  0  0  0  0  0  0
  -25.9200  -34.9390   23.4620 C   0  0  0  0  0  0  0  0  0  0  0  0
  -26.6190  -34.8180   22.4510 O   0  0  0  0  0  0  0  0  0  0  0  0
  -24.9460  -34.0670   25.0090 H   0  0  0  0  0  0  0  0  0  0  0  0
  -24.2010  -36.7230   23.0260 C   0  0  0  0  0  1  0  0  0  0  0  0
  -25.4190  -36.3350   23.8800 C   0  0  0  0  0  3  0  0  0  0  0  0
  -27.5310  -37.2350   24.7480 C   0  0  0  0  0  1  0  0  0  0  0  0
  -26.4530  -37.3880   23.7750 N   0  0  0  0  0  0  0  0  0  0  0  0
  -26.0460  -38.3110   23.8970 H   0  0  0  0  0  0  0  0  0  0  0  0
  2  3  2  0
  2  4  1  0
  3  5  1  0
  4  6  2  0
  5  9  1  0
  5  7  2  0
  6  7  1  0
  6  1  1  0
  7  8  1  0
  9 10  2  0
 11 17  1  0
 11 10  1  0
 12 17  1  0
 13 14  1  0
 13 12  1  0
 15 14  1  0
 15 22  1  0
 15 16  1  0
 17 16  1  0
 18 11  2  0
 19 20  2  0
 20 39  1  0
 21 20  1  0
 21 24  1  0
 22 19  1  0
 22 23  1  0
 23 21  2  0
 24 25  1  0
 25 26  2  0
 27 30  1  0
 27 26  1  0
 28 27  2  0
 29 28  1  0
 29 24  2  0
 30 31  1  0
 31 32  1  0
 32 33  2  0
 34 33  1  0
 34 38  1  0
 35 34  2  0
 36 31  2  0
 36 35  1  0
 37 36  1  0
 39 40  1  0
 40 43  1  0
 40 42  1  0
 41 39  2  0
 44 45  1  0
 44 19  1  0
 46 44  1  0
 47 49  2  0
 48 47  1  0
 48  1  1  0
 50 48  1  0
 51 52  1  0
 51 47  1  0
 53 64  2  0
 54 52  1  0
 54 59  1  0
 55 63  1  0
 55 65  1  0
 56 62  1  0
 56 58  1  0
 57 63  1  0
 58 59  2  0
 58 57  1  0
 60 54  2  0
 61 60  1  0
 61 56  2  0
 62 55  1  0
 63 53  1  0
 65 67  2  0
 66 65  1  0
 68 66  1  0
 69 78  2  0
 69 74  1  0
 70 66  1  0
 70 74  1  0
 71 70  1  0
 72 73  1  0
 72 71  1  0
 73 69  1  0
 74 75  2  0
 75 76  1  0
 77 76  2  0
 78 77  1  0
 79 53  1  0
 79 84  1  0
 79 80  1  0
 80 83  1  1
 80 81  1  0
 82 80  1  0
 84 87  1  0
 85 89  1  0
 85 84  1  0
 86 85  2  0
 89 88  1  0
 91 89  1  0
 91 92  1  0
 91 90  1  0
M  ISO  4  10 100  11 100  51 101  52 101
M  END
>  <TORSDO>  (61) 
F 20

>  <SCORE>  (61) 
-13.868

>  <name>  (61) 
60

>  <ligand_id>  (61) 
60

>  <original_smiles>  (61) 
[H]C(=NC(=O)N1C([H])([H])C([H])([H])C([H])([H])C([H])(n2nc(-c3c([H])c([H])c(Oc4c([H])c([H])c(F)c([H])c4F)c([H])c3[H])c(C(=O)N([H])[H])c2N([H])[H])C1([H])[H])c1c([H])c([H])c([H])c(C([H])([H])N([H])C(=O)C([H])([H])Oc2c([H])c([H])c3c(c2[H])C([H])([H])N(C(=O)C([H])(N([H])C(=O)C([H])(N([H])C([H])([H])[H])C([H])([H])[H])C(C([H])([H])[H])(C([H])([H])[H])C([H])([H])[H])C([H])(C(=O)N([H])C2([H])c4c([H])c([H])c([H])c([H])c4C([H])([H])C([H])([H])C2([H])[H])C3([H])[H])c1C([H])([H])[H]

>  <smiles>  (61) 
[H]C(=NC(=O)N1C([H])([H])C([H])([H])C([H])([H])C([H])(n2nc(-c3c([H])c([H])c(Oc4c([H])c([H])c(F)c([H])c4F)c([H])c3[H])c(C(=O)N([H])[H])c2N([H])[H])C1([H])[H])c1c([H])c([H])c([H])c(C([H])([H])N([H])C(=O)C([H])([H])Oc2c([H])c([H])c3c(c2[H])C([H])([H])N(C(=O)C([H])(N([H])C(=O)C([H])(N([H])C([H])([H])[H])C([H])([H])[H])C(C([H])([H])[H])(C([H])([H])[H])C([H])([H])[H])C([H])(C(=O)N([H])C2([H])c4c([H])c([H])c([H])c([H])c4C([H])([H])C([H])([H])C2([H])[H])C3([H])[H])c1C([H])([H])[H]

$$$$
61:0:0
     RDKit          3D

 96105  0  0  1  0  0  0  0  0999 V2000
  -31.0290  -22.0520   21.1280 C   0  0  0  0  0  0  0  0  0  0  0  0
  -30.2130  -22.9820   19.1920 C   0  0  0  0  0  0  0  0  0  0  0  0
  -30.6900  -22.3160   22.4020 C   0  0  0  0  0  2  0  0  0  0  0  0
  -29.5310  -24.1720   19.0850 C   0  0  0  0  0  3  0  0  0  0  0  0
  -32.4770  -21.9940   20.6420 C   0  0  0  0  0  2  0  0  0  0  0  0
  -31.5070  -22.8480   18.3940 C   0  0  0  0  0  2  0  0  0  0  0  0
  -32.6980  -22.8650   19.3780 C   0  0  0  0  0  2  0  0  0  0  0  0
  -30.0990  -21.8980   20.1040 N   0  0  0  0  0  0  0  0  0  0  0  0
  -30.0630  -20.4950   19.5540 C   0  0  0  0  0  2  0  0  0  0  0  0
  -30.4300  -19.4170   21.8350 C   0  0  0  0  0  3  0  0  0  0  0  0
  -30.6310  -18.3170   22.6830 C   0  0  0  0  0  3  0  0  0  0  0  0
  -30.5980  -17.9240   19.9010 C   0  0  0  0  0  3  0  0  0  0  0  0
  -30.4070  -19.2540   20.4370 C   0  0  0  0  0  0  0  0  0  0  0  0
  -30.7900  -17.0190   22.1630 C   0  0  0  0  0  0  0  0  0  0  0  0
  -30.7960  -16.7890   20.7620 C   0  0  0  0  0  0  0  0  0  0  0  0
  -30.8680  -15.8600   23.1480 C   0  0  0  0  0  1  0  0  0  0  0  0
  -31.5040  -14.4180   19.8200 C   0  0  0  0  0  0  0  0  0  0  0  0
  -31.0740  -12.2680   18.6270 C   0  0  0  0  0  2  0  0  0  0  0  0
  -30.0470  -12.5470   17.5030 C   0  0  0  0  0  2  0  0  0  0  0  0
  -28.5920  -12.5300   18.0280 C   0  0  0  0  0  2  0  0  0  0  0  0
  -28.4220  -13.3340   19.3440 C   0  0  0  0  0  3  0  0  0  0  0  0
  -29.5270  -12.9470   20.3540 C   0  0  0  0  0  2  0  0  0  0  0  0
  -30.8280  -13.2320   19.7140 N   0  0  0  0  0  0  0  0  0  0  0  0
  -32.6200  -14.5960   19.3170 O   0  0  0  0  0  0  0  0  0  0  0  0
  -30.7370  -15.3860   20.4000 N   0  0  0  0  0  0  0  0  0  0  0  0
  -29.9180  -14.9460   20.7890 H   0  0  0  0  0  0  0  0  0  0  0  0
  -26.1460  -14.1700   20.1970 C   0  0  0  0  0  0  0  0  0  0  0  0
  -25.0310  -13.5040   20.6290 C   0  0  0  0  0  0  0  0  0  0  0  0
  -25.3560  -12.1140   20.5720 C   0  0  0  0  0  0  0  0  0  0  0  0
  -27.0820  -13.1900   19.9050 N   0  0  0  0  0  0  0  0  0  0  0  0
  -26.6130  -11.9490   20.1810 N   0  0  0  0  0  0  0  0  0  0  0  0
  -24.5260  -10.9260   20.8080 C   0  0  0  0  0  0  0  0  0  0  0  0
  -24.8760   -9.9630   21.7810 C   0  0  0  0  0  3  0  0  0  0  0  0
  -24.0490   -8.8390   22.0040 C   0  0  0  0  0  3  0  0  0  0  0  0
  -22.8590   -8.6740   21.2550 C   0  0  0  0  0  0  0  0  0  0  0  0
  -22.5310   -9.6230   20.2700 C   0  0  0  0  0  3  0  0  0  0  0  0
  -23.3570  -10.7380   20.0460 C   0  0  0  0  0  3  0  0  0  0  0  0
  -22.0090   -7.6020   21.3850 O   0  0  0  0  0  0  0  0  0  0  0  0
  -21.8160   -6.9810   22.5920 C   0  0  0  0  0  0  0  0  0  0  0  0
  -21.3910   -7.6900   23.7390 C   0  0  0  0  0  3  0  0  0  0  0  0
  -21.1420   -6.9990   24.9410 C   0  0  0  0  0  3  0  0  0  0  0  0
  -21.3020   -5.6020   24.9970 C   0  0  0  0  0  0  0  0  0  0  0  0
  -21.7110   -4.8940   23.8530 C   0  0  0  0  0  3  0  0  0  0  0  0
  -21.9650   -5.5810   22.6550 C   0  0  0  0  0  0  0  0  0  0  0  0
  -22.3420   -4.8920   21.5510 F   0  0  0  0  0  0  0  0  0  0  0  0
  -21.0520   -4.9350   26.1480 F   0  0  0  0  0  0  0  0  0  0  0  0
  -23.7030  -14.1100   20.9810 C   0  0  0  0  0  0  0  0  0  0  0  0
  -22.9990  -13.5340   21.9500 N   0  0  0  0  0  0  0  0  0  0  0  0
  -23.3000  -15.1330   20.4260 O   0  0  0  0  0  0  0  0  0  0  0  0
  -23.3300  -12.7020   22.4190 H   0  0  0  0  0  0  0  0  0  0  0  0
  -22.1110  -13.9270   22.2260 H   0  0  0  0  0  0  0  0  0  0  0  0
  -26.4370  -15.5190   20.0110 N   0  0  0  0  0  0  0  0  0  0  0  0
  -25.7600  -16.2520   20.1860 H   0  0  0  0  0  0  0  0  0  0  0  0
  -27.3240  -15.8740   19.6780 H   0  0  0  0  0  0  0  0  0  0  0  0
  -28.3510  -24.8230   19.8350 C   0  0  0  0  0  2  0  0  0  0  0  0
  -28.4480  -26.3000   19.8900 O   0  0  0  0  0  0  0  0  0  0  0  0
  -24.6320  -31.5410   23.0200 C   0  0  0  0  0  0  0  0  0  0  0  0
  -27.2980  -27.0970   19.8710 C   0  0  0  0  0  0  0  0  0  0  0  0
  -23.4540  -30.1980   21.3120 C   0  0  0  0  0  3  0  0  0  0  0  0
  -24.9290  -28.6930   19.8640 C   0  0  0  0  0  0  0  0  0  0  0  0
  -25.9930  -30.5240   21.1880 C   0  0  0  0  0  2  0  0  0  0  0  0
  -26.0830  -29.1690   20.5000 C   0  0  0  0  0  0  0  0  0  0  0  0
  -27.2660  -28.3780   20.5000 C   0  0  0  0  0  3  0  0  0  0  0  0
  -26.1270  -26.6760   19.2010 C   0  0  0  0  0  3  0  0  0  0  0  0
  -24.9520  -27.4550   19.2060 C   0  0  0  0  0  3  0  0  0  0  0  0
  -23.6910  -29.5650   19.9160 C   0  0  0  0  0  2  0  0  0  0  0  0
  -24.7100  -30.7700   21.8980 N   0  0  0  0  0  0  0  0  0  0  0  0
  -23.5420  -31.8010   23.5460 O   0  0  0  0  0  0  0  0  0  0  0  0
  -22.7740  -29.1520   22.2280 C   0  0  0  0  0  0  0  0  0  0  0  0
  -21.4370  -29.0450   22.1390 N   0  0  0  0  0  0  0  0  0  0  0  0
  -23.4490  -28.4390   22.9760 O   0  0  0  0  0  0  0  0  0  0  0  0
  -20.9530  -29.6700   21.5110 H   0  0  0  0  0  0  0  0  0  0  0  0
  -18.0190  -28.0310   22.7430 C   0  0  0  0  0  0  0  0  0  0  0  0
  -20.6000  -28.1000   22.8810 C   0  0  0  0  0  3  0  0  0  0  0  0
  -20.5700  -26.7180   22.1850 C   0  0  0  0  0  2  0  0  0  0  0  0
  -19.3940  -26.5560   21.2160 C   0  0  0  0  0  2  0  0  0  0  0  0
  -18.0630  -26.7360   21.9510 C   0  0  0  0  0  2  0  0  0  0  0  0
  -19.2090  -28.6800   23.1650 C   0  0  0  0  0  0  0  0  0  0  0  0
  -19.1100  -29.9010   23.8680 C   0  0  0  0  0  3  0  0  0  0  0  0
  -17.8540  -30.4700   24.1470 C   0  0  0  0  0  3  0  0  0  0  0  0
  -16.6780  -29.8160   23.7390 C   0  0  0  0  0  3  0  0  0  0  0  0
  -16.7630  -28.5980   23.0430 C   0  0  0  0  0  3  0  0  0  0  0  0
  -25.9070  -32.1500   23.6830 C   0  0  0  0  0  3  0  0  0  0  0  0
  -26.4240  -31.3160   24.9200 C   0  0  1  0  0  0  0  0  0  0  0  0
  -25.3280  -31.0220   25.9700 C   0  0  0  0  0  1  0  0  0  0  0  0
  -27.0170  -29.9630   24.4660 C   0  0  0  0  0  1  0  0  0  0  0  0
  -27.5690  -32.0810   25.6240 C   0  0  0  0  0  1  0  0  0  0  0  0
  -25.5840  -33.5260   24.0830 N   0  0  0  0  0  0  0  0  0  0  0  0
  -25.9310  -34.6220   23.3930 C   0  0  0  0  0  0  0  0  0  0  0  0
  -26.6280  -34.5780   22.3750 O   0  0  0  0  0  0  0  0  0  0  0  0
  -24.9710  -33.6330   24.8780 H   0  0  0  0  0  0  0  0  0  0  0  0
  -24.2060  -36.4280   23.0970 C   0  0  0  0  0  1  0  0  0  0  0  0
  -25.4280  -35.9810   23.9160 C   0  0  0  0  0  3  0  0  0  0  0  0
  -27.5390  -36.8230   24.8470 C   0  0  0  0  0  1  0  0  0  0  0  0
  -26.4600  -37.0420   23.8870 N   0  0  0  0  0  0  0  0  0  0  0  0
  -26.0460  -37.9500   24.0780 H   0  0  0  0  0  0  0  0  0  0  0  0
  1  3  2  0
  2  8  1  0
  4  2  2  0
  4 55  1  0
  5  1  1  0
  6  2  1  0
  6  7  1  0
  7  5  1  0
  8  1  1  0
  9  8  1  0
  9 13  1  0
 10 11  1  0
 12 13  1  0
 12 15  2  0
 13 10  2  0
 14 11  2  0
 14 16  1  0
 15 14  1  0
 17 25  1  0
 18 23  1  0
 19 20  1  0
 19 18  1  0
 21 20  1  0
 21 30  1  0
 21 22  1  0
 23 17  1  0
 23 22  1  0
 24 17  2  0
 25 15  1  0
 25 26  1  0
 27 28  2  0
 28 47  1  0
 29 28  1  0
 29 32  1  0
 30 31  1  0
 30 27  1  0
 31 29  2  0
 32 33  1  0
 33 34  2  0
 35 38  1  0
 35 34  1  0
 36 35  2  0
 37 36  1  0
 37 32  2  0
 38 39  1  0
 39 44  2  0
 39 40  1  0
 40 41  2  0
 41 42  1  0
 42 46  1  0
 43 42  2  0
 44 43  1  0
 45 44  1  0
 47 48  1  0
 48 51  1  0
 48 50  1  0
 49 47  2  0
 52 53  1  0
 52 27  1  0
 54 52  1  0
 55 56  1  0
 57 68  2  0
 58 56  1  0
 58 63  1  0
 59 67  1  0
 59 69  1  0
 60 66  1  0
 60 62  1  0
 61 67  1  0
 62 63  2  0
 62 61  1  0
 64 65  1  0
 64 58  2  0
 65 60  2  0
 66 59  1  0
 67 57  1  0
 69 71  2  0
 70 69  1  0
 72 70  1  0
 73 82  2  0
 73 78  1  0
 74 70  1  0
 74 78  1  0
 75 74  1  0
 76 77  1  0
 76 75  1  0
 77 73  1  0
 78 79  2  0
 79 80  1  0
 81 80  2  0
 82 81  1  0
 83 57  1  0
 83 88  1  0
 83 84  1  0
 84 87  1  1
 84 85  1  0
 86 84  1  0
 88 91  1  0
 89 93  1  0
 89 88  1  0
 90 89  2  0
 93 92  1  0
 95 93  1  0
 95 96  1  0
 95 94  1  0
M  ISO  4  17 100  25 100  55 101  56 101
M  END
>  <TORSDO>  (62) 
F 19

>  <SCORE>  (62) 
-10.897

>  <name>  (62) 
61

>  <ligand_id>  (62) 
61

>  <original_smiles>  (62) 
[H]C([H])=C1N(C([H])([H])c2c([H])c([H])c(C([H])([H])[H])c(N([H])C(=O)N3C([H])([H])C([H])([H])C([H])([H])C([H])(n4nc(-c5c([H])c([H])c(Oc6c([H])c([H])c(F)c([H])c6F)c([H])c5[H])c(C(=O)N([H])[H])c4N([H])[H])C3([H])[H])c2[H])C(=C([H])C([H])([H])Oc2c([H])c([H])c3c(c2[H])C([H])([H])N(C(=O)C([H])(N([H])C(=O)C([H])(N([H])C([H])([H])[H])C([H])([H])[H])C(C([H])([H])[H])(C([H])([H])[H])C([H])([H])[H])C([H])(C(=O)N([H])C2([H])c4c([H])c([H])c([H])c([H])c4C([H])([H])C([H])([H])C2([H])[H])C3([H])[H])C([H])([H])C([H])([H])C1([H])[H]

>  <smiles>  (62) 
[H]C([H])=C1N(C([H])([H])c2c([H])c([H])c(C([H])([H])[H])c(N([H])C(=O)N3C([H])([H])C([H])([H])C([H])([H])C([H])(n4nc(-c5c([H])c([H])c(Oc6c([H])c([H])c(F)c([H])c6F)c([H])c5[H])c(C(=O)N([H])[H])c4N([H])[H])C3([H])[H])c2[H])C(=C([H])C([H])([H])Oc2c([H])c([H])c3c(c2[H])C([H])([H])N(C(=O)C([H])(N([H])C(=O)C([H])(N([H])C([H])([H])[H])C([H])([H])[H])C(C([H])([H])[H])(C([H])([H])[H])C([H])([H])[H])C([H])(C(=O)N([H])C2([H])c4c([H])c([H])c([H])c([H])c4C([H])([H])C([H])([H])C2([H])[H])C3([H])[H])C([H])([H])C([H])([H])C1([H])[H]

$$$$
62:0:0
     RDKit          3D

 92100  0  0  1  0  0  0  0  0999 V2000
  -28.6880  -21.5390   20.3700 C   0  0  0  0  0  3  0  0  0  0  0  0
  -29.1920  -22.7490   19.9470 C   0  0  0  0  0  0  0  0  0  0  0  0
  -30.7820  -22.9030   19.2820 Cl  0  0  0  0  0  0  0  0  0  0  0  0
  -28.2770  -19.1140   19.9340 C   0  0  0  0  0  3  0  0  0  0  0  0
  -28.4960  -17.7110   19.9950 C   0  0  0  0  0  3  0  0  0  0  0  0
  -30.6280  -18.0940   21.0120 C   0  0  0  0  0  3  0  0  0  0  0  0
  -29.1890  -20.0800   20.4330 C   0  0  0  0  0  0  0  0  0  0  0  0
  -30.4000  -19.5170   20.9730 C   0  0  0  0  0  0  0  0  0  0  0  0
  -29.6710  -17.1500   20.5480 C   0  0  0  0  0  0  0  0  0  0  0  0
  -31.4460  -20.3840   21.6510 C   0  0  0  0  0  1  0  0  0  0  0  0
  -30.5580  -14.6830   20.4290 C   0  0  0  0  0  0  0  0  0  0  0  0
  -30.3820  -12.4380   19.3620 C   0  0  0  0  0  2  0  0  0  0  0  0
  -29.4320  -12.5670   18.1500 C   0  0  0  0  0  2  0  0  0  0  0  0
  -27.9570  -12.4080   18.5780 C   0  0  0  0  0  2  0  0  0  0  0  0
  -27.6020  -13.2630   19.8230 C   0  0  0  0  0  3  0  0  0  0  0  0
  -28.6640  -13.0840   20.9340 C   0  0  0  0  0  2  0  0  0  0  0  0
  -29.9720  -13.4440   20.3600 N   0  0  0  0  0  0  0  0  0  0  0  0
  -31.7210  -14.8680   20.0550 O   0  0  0  0  0  0  0  0  0  0  0  0
  -29.7030  -15.7000   20.7740 N   0  0  0  0  0  0  0  0  0  0  0  0
  -28.8020  -15.3190   21.0120 H   0  0  0  0  0  0  0  0  0  0  0  0
  -25.2130  -13.8760   20.5470 C   0  0  0  0  0  0  0  0  0  0  0  0
  -24.1420  -13.1070   20.9140 C   0  0  0  0  0  0  0  0  0  0  0  0
  -24.5950  -11.7530   20.8730 C   0  0  0  0  0  0  0  0  0  0  0  0
  -26.2520  -12.9890   20.3070 N   0  0  0  0  0  0  0  0  0  0  0  0
  -25.8850  -11.7070   20.5640 N   0  0  0  0  0  0  0  0  0  0  0  0
  -23.8610  -10.4960   21.0570 C   0  0  0  0  0  0  0  0  0  0  0  0
  -24.2830   -9.5240   21.9920 C   0  0  0  0  0  3  0  0  0  0  0  0
  -23.5500   -8.3300   22.1610 C   0  0  0  0  0  3  0  0  0  0  0  0
  -22.3810   -8.1000   21.3980 C   0  0  0  0  0  0  0  0  0  0  0  0
  -21.9790   -9.0590   20.4530 C   0  0  0  0  0  3  0  0  0  0  0  0
  -22.7120  -10.2450   20.2800 C   0  0  0  0  0  3  0  0  0  0  0  0
  -21.6200   -6.9580   21.4790 O   0  0  0  0  0  0  0  0  0  0  0  0
  -21.5540   -6.2180   22.6320 C   0  0  0  0  0  0  0  0  0  0  0  0
  -21.0990   -6.7730   23.8480 C   0  0  0  0  0  3  0  0  0  0  0  0
  -20.9810   -5.9580   24.9930 C   0  0  0  0  0  3  0  0  0  0  0  0
  -21.3050   -4.5900   24.9210 C   0  0  0  0  0  0  0  0  0  0  0  0
  -21.7520   -4.0350   23.7090 C   0  0  0  0  0  3  0  0  0  0  0  0
  -21.8730   -4.8470   22.5680 C   0  0  0  0  0  0  0  0  0  0  0  0
  -22.2850   -4.3020   21.3960 F   0  0  0  0  0  0  0  0  0  0  0  0
  -21.1840   -3.8060   26.0170 F   0  0  0  0  0  0  0  0  0  0  0  0
  -22.7480  -13.5920   21.1900 C   0  0  0  0  0  0  0  0  0  0  0  0
  -22.0130  -12.8910   22.0470 N   0  0  0  0  0  0  0  0  0  0  0  0
  -22.3190  -14.6270   20.6810 O   0  0  0  0  0  0  0  0  0  0  0  0
  -22.3750  -12.0540   22.4790 H   0  0  0  0  0  0  0  0  0  0  0  0
  -21.0780  -13.1950   22.2730 H   0  0  0  0  0  0  0  0  0  0  0  0
  -25.3840  -15.2460   20.3760 N   0  0  0  0  0  0  0  0  0  0  0  0
  -24.6150  -15.8980   20.4870 H   0  0  0  0  0  0  0  0  0  0  0  0
  -26.2200  -15.6780   20.0100 H   0  0  0  0  0  0  0  0  0  0  0  0
  -28.4150  -24.1210   19.7540 C   0  0  0  0  0  2  0  0  0  0  0  0
  -29.5330  -25.2090   21.6500 C   0  0  0  0  0  1  0  0  0  0  0  0
  -28.3620  -25.2140   20.7870 N   0  0  0  0  0  0  0  0  0  0  0  0
  -28.4090  -26.5570   20.1070 O   0  0  0  0  0  0  0  0  0  0  0  0
  -24.6050  -31.8820   23.2410 C   0  0  0  0  0  0  0  0  0  0  0  0
  -27.2510  -27.3390   20.2000 C   0  0  0  0  0  0  0  0  0  0  0  0
  -23.4100  -30.4760   21.5980 C   0  0  0  0  0  3  0  0  0  0  0  0
  -24.8710  -28.9200   20.1870 C   0  0  0  0  0  0  0  0  0  0  0  0
  -25.9460  -30.8060   21.4200 C   0  0  0  0  0  2  0  0  0  0  0  0
  -26.0330  -29.4210   20.7890 C   0  0  0  0  0  0  0  0  0  0  0  0
  -27.2260  -28.6390   20.7900 C   0  0  0  0  0  3  0  0  0  0  0  0
  -26.0700  -26.8790   19.5860 C   0  0  0  0  0  3  0  0  0  0  0  0
  -24.8880  -27.6510   19.5820 C   0  0  0  0  0  3  0  0  0  0  0  0
  -23.6340  -29.7950   20.2210 C   0  0  0  0  0  2  0  0  0  0  0  0
  -24.6720  -31.0750   22.1430 N   0  0  0  0  0  0  0  0  0  0  0  0
  -23.5200  -32.1550   23.7760 O   0  0  0  0  0  0  0  0  0  0  0  0
  -22.7490  -29.4600   22.5600 C   0  0  0  0  0  0  0  0  0  0  0  0
  -21.4230  -29.2800   22.4350 N   0  0  0  0  0  0  0  0  0  0  0  0
  -23.4300  -28.8340   23.3770 O   0  0  0  0  0  0  0  0  0  0  0  0
  -20.9320  -29.8390   21.7510 H   0  0  0  0  0  0  0  0  0  0  0  0
  -18.0490  -28.0870   22.9450 C   0  0  0  0  0  0  0  0  0  0  0  0
  -20.6090  -28.3410   23.2050 C   0  0  0  0  0  3  0  0  0  0  0  0
  -20.7050  -26.9100   22.6240 C   0  0  0  0  0  2  0  0  0  0  0  0
  -19.5990  -26.5960   21.6130 C   0  0  0  0  0  2  0  0  0  0  0  0
  -18.2190  -26.7410   22.2620 C   0  0  0  0  0  2  0  0  0  0  0  0
  -19.1700  -28.8460   23.3740 C   0  0  0  0  0  0  0  0  0  0  0  0
  -18.9550  -30.1060   23.9700 C   0  0  0  0  0  3  0  0  0  0  0  0
  -17.6530  -30.6090   24.1440 C   0  0  0  0  0  3  0  0  0  0  0  0
  -16.5450  -29.8480   23.7290 C   0  0  0  0  0  3  0  0  0  0  0  0
  -16.7450  -28.5890   23.1340 C   0  0  0  0  0  3  0  0  0  0  0  0
  -25.8850  -32.5180   23.8660 C   0  0  0  0  0  3  0  0  0  0  0  0
  -26.3960  -31.7550   25.1500 C   0  0  1  0  0  0  0  0  0  0  0  0
  -25.2980  -31.5270   26.2150 C   0  0  0  0  0  1  0  0  0  0  0  0
  -26.9770  -30.3730   24.7690 C   0  0  0  0  0  1  0  0  0  0  0  0
  -27.5430  -32.5520   25.8120 C   0  0  0  0  0  1  0  0  0  0  0  0
  -25.5740  -33.9180   24.1870 N   0  0  0  0  0  0  0  0  0  0  0  0
  -25.9130  -34.9680   23.4250 C   0  0  0  0  0  0  0  0  0  0  0  0
  -26.5900  -34.8580   22.3980 O   0  0  0  0  0  0  0  0  0  0  0  0
  -24.9720  -34.0770   24.9810 H   0  0  0  0  0  0  0  0  0  0  0  0
  -24.1970  -36.7660   23.0410 C   0  0  0  0  0  1  0  0  0  0  0  0
  -25.4240  -36.3580   23.8710 C   0  0  0  0  0  3  0  0  0  0  0  0
  -27.5500  -37.2380   24.7330 C   0  0  0  0  0  1  0  0  0  0  0  0
  -26.4640  -37.4060   23.7720 N   0  0  0  0  0  0  0  0  0  0  0  0
  -26.0590  -38.3280   23.9100 H   0  0  0  0  0  0  0  0  0  0  0  0
  1  7  1  0
  2  1  2  0
  3  2  1  0
  4  5  2  0
  4  7  1  0
  5  9  1  0
  7  8  2  0
  8  6  1  0
  8 10  1  0
  9 19  1  0
  9  6  2  0
 11 19  1  0
 12 17  1  0
 13 14  1  0
 13 12  1  0
 15 14  1  0
 15 24  1  0
 15 16  1  0
 17 11  1  0
 17 16  1  0
 18 11  2  0
 19 20  1  0
 21 22  2  0
 22 41  1  0
 23 22  1  0
 23 26  1  0
 24 21  1  0
 24 25  1  0
 25 23  2  0
 26 27  1  0
 27 28  2  0
 29 32  1  0
 29 28  1  0
 30 29  2  0
 31 30  1  0
 31 26  2  0
 32 33  1  0
 33 34  1  0
 34 35  2  0
 36 35  1  0
 36 40  1  0
 37 36  2  0
 38 33  2  0
 38 37  1  0
 39 38  1  0
 41 42  1  0
 42 45  1  0
 42 44  1  0
 43 41  2  0
 46 47  1  0
 46 21  1  0
 48 46  1  0
 49  2  1  0
 49 51  1  0
 51 50  1  0
 52 54  1  0
 52 51  1  0
 53 64  2  0
 54 59  1  0
 55 63  1  0
 55 65  1  0
 56 62  1  0
 56 58  1  0
 57 63  1  0
 58 59  2  0
 58 57  1  0
 60 54  2  0
 61 60  1  0
 61 56  2  0
 62 55  1  0
 63 53  1  0
 65 67  2  0
 66 65  1  0
 68 66  1  0
 69 78  2  0
 69 74  1  0
 70 66  1  0
 70 74  1  0
 71 70  1  0
 72 73  1  0
 72 71  1  0
 73 69  1  0
 74 75  2  0
 75 76  1  0
 77 76  2  0
 78 77  1  0
 79 53  1  0
 79 84  1  0
 79 80  1  0
 80 83  1  1
 80 81  1  0
 82 80  1  0
 84 87  1  0
 85 89  1  0
 85 84  1  0
 86 85  2  0
 89 88  1  0
 91 89  1  0
 91 92  1  0
 91 90  1  0
M  ISO  4  11 100  19 100  51 101  52 101
M  END
>  <TORSDO>  (63) 
F 19

>  <SCORE>  (63) 
-14.622

>  <name>  (63) 
62

>  <ligand_id>  (63) 
62

>  <original_smiles>  (63) 
[H]C(=C(Cl)C([H])([H])N(Oc1c([H])c([H])c2c(c1[H])C([H])([H])N(C(=O)C([H])(N([H])C(=O)C([H])(N([H])C([H])([H])[H])C([H])([H])[H])C(C([H])([H])[H])(C([H])([H])[H])C([H])([H])[H])C([H])(C(=O)N([H])C1([H])c3c([H])c([H])c([H])c([H])c3C([H])([H])C([H])([H])C1([H])[H])C2([H])[H])C([H])([H])[H])c1c([H])c([H])c(N([H])C(=O)N2C([H])([H])C([H])([H])C([H])([H])C([H])(n3nc(-c4c([H])c([H])c(Oc5c([H])c([H])c(F)c([H])c5F)c([H])c4[H])c(C(=O)N([H])[H])c3N([H])[H])C2([H])[H])c([H])c1C([H])([H])[H]

>  <smiles>  (63) 
[H]C(=C(Cl)C([H])([H])N(Oc1c([H])c([H])c2c(c1[H])C([H])([H])N(C(=O)C([H])(N([H])C(=O)C([H])(N([H])C([H])([H])[H])C([H])([H])[H])C(C([H])([H])[H])(C([H])([H])[H])C([H])([H])[H])C([H])(C(=O)N([H])C1([H])c3c([H])c([H])c([H])c([H])c3C([H])([H])C([H])([H])C1([H])[H])C2([H])[H])C([H])([H])[H])c1c([H])c([H])c(N([H])C(=O)N2C([H])([H])C([H])([H])C([H])([H])C([H])(n3nc(-c4c([H])c([H])c(Oc5c([H])c([H])c(F)c([H])c5F)c([H])c4[H])c(C(=O)N([H])[H])c3N([H])[H])C2([H])[H])c([H])c1C([H])([H])[H]

$$$$
63:0:0
     RDKit          3D

 95103  0  0  1  0  0  0  0  0999 V2000
  -27.9790  -17.9920   19.8590 C   0  0  0  0  0  0  0  0  0  0  0  0
  -26.6690  -18.2230   19.9460 N   0  0  0  0  0  4  0  0  0  0  0  0
  -28.6490  -19.3970   19.6100 N   0  0  0  0  0  0  0  0  0  0  0  0
  -26.3070  -19.1600   19.9070 H   0  0  0  0  0  0  0  0  0  0  0  0
  -26.0420  -17.4650   20.1670 H   0  0  0  0  0  0  0  0  0  0  0  0
  -29.6540  -19.2790   19.7240 H   0  0  0  0  0  0  0  0  0  0  0  0
  -29.8490  -13.3930   19.1740 C   0  0  0  0  0  2  0  0  0  0  0  0
  -28.9780  -13.3410   21.0710 C   0  0  0  0  0  2  0  0  0  0  0  0
  -29.0550  -15.8560   18.7460 C   0  0  0  0  0  3  0  0  0  0  0  0
  -28.3770  -16.2320   20.0140 C   0  0  0  0  0  0  0  0  0  0  0  0
  -29.8000  -14.6250   18.3660 C   0  0  0  0  0  3  0  0  0  0  0  0
  -28.2230  -14.9690   21.1480 C   0  0  0  0  0  3  0  0  0  0  0  0
  -27.5610  -15.3510   22.4630 C   0  0  0  0  0  1  0  0  0  0  0  0
  -31.2120  -14.7500   17.8060 C   0  0  0  0  0  2  0  0  0  0  0  0
  -32.3930  -13.1630   19.6800 C   0  0  0  0  0  0  0  0  0  0  0  0
  -30.8610  -11.1370   19.6770 C   0  0  0  0  0  3  0  0  0  0  0  0
  -29.4250  -10.7460   18.6520 C   0  0  0  0  0  3  0  0  0  0  0  0
  -27.9780  -11.6990   18.2170 C   0  0  0  0  0  2  0  0  0  0  0  0
  -27.5790  -13.3390   19.0340 C   0  0  0  0  0  2  0  0  0  0  0  0
  -30.5270  -14.0270   20.6350 C   0  0  0  0  0  3  0  0  0  0  0  0
  -31.3880  -12.6010   20.3470 N   0  0  0  0  0  0  0  0  0  0  0  0
  -33.4890  -12.7900   19.9210 O   0  0  0  0  0  0  0  0  0  0  0  0
  -32.2830  -14.1320   18.6860 N   0  0  0  0  0  0  0  0  0  0  0  0
  -33.2060  -14.4470   18.4170 H   0  0  0  0  0  0  0  0  0  0  0  0
  -25.5030  -13.3050   20.3950 C   0  0  0  0  0  0  0  0  0  0  0  0
  -24.5920  -12.4430   20.8940 C   0  0  0  0  0  0  0  0  0  0  0  0
  -25.0770  -11.1070   20.7440 C   0  0  0  0  0  3  0  0  0  0  0  0
  -26.4570  -12.5810   19.8330 N   0  0  0  0  0  0  0  0  0  0  0  0
  -26.3140  -11.2150   20.2170 N   0  0  0  0  0  2  0  0  0  0  0  0
  -24.3290   -9.8240   20.9350 C   0  0  0  0  0  0  0  0  0  0  0  0
  -24.7570   -8.7380   21.7430 C   0  0  0  0  0  3  0  0  0  0  0  0
  -23.9300   -7.6000   21.9420 C   0  0  0  0  0  3  0  0  0  0  0  0
  -22.6500   -7.5270   21.3450 C   0  0  0  0  0  0  0  0  0  0  0  0
  -22.2390   -8.5830   20.5160 C   0  0  0  0  0  3  0  0  0  0  0  0
  -23.0640   -9.7040   20.3070 C   0  0  0  0  0  3  0  0  0  0  0  0
  -21.7840   -6.4540   21.4590 O   0  0  0  0  0  0  0  0  0  0  0  0
  -21.6800   -5.7060   22.6050 C   0  0  0  0  0  0  0  0  0  0  0  0
  -21.2140   -6.2530   23.8230 C   0  0  0  0  0  3  0  0  0  0  0  0
  -21.0590   -5.4310   24.9530 C   0  0  0  0  0  3  0  0  0  0  0  0
  -21.3560   -4.0590   24.8750 C   0  0  0  0  0  0  0  0  0  0  0  0
  -21.8060   -3.5040   23.6650 C   0  0  0  0  0  3  0  0  0  0  0  0
  -21.9630   -4.3240   22.5300 C   0  0  0  0  0  0  0  0  0  0  0  0
  -22.3700   -3.7750   21.3640 F   0  0  0  0  0  0  0  0  0  0  0  0
  -21.2070   -3.2690   25.9680 F   0  0  0  0  0  0  0  0  0  0  0  0
  -23.2400  -12.9180   21.2550 C   0  0  0  0  0  0  0  0  0  0  0  0
  -22.5740  -12.2380   22.1750 N   0  0  0  0  0  0  0  0  0  0  0  0
  -22.8010  -13.9470   20.7430 O   0  0  0  0  0  0  0  0  0  0  0  0
  -22.9760  -11.4140   22.5980 H   0  0  0  0  0  0  0  0  0  0  0  0
  -21.6580  -12.5470   22.4650 H   0  0  0  0  0  0  0  0  0  0  0  0
  -25.5560  -14.6750   20.2480 N   0  0  0  0  0  0  0  0  0  0  0  0
  -25.2090  -15.1230   21.0800 H   0  0  0  0  0  0  0  0  0  0  0  0
  -24.8100  -14.8820   19.5880 H   0  0  0  0  0  0  0  0  0  0  0  0
  -28.4420  -21.0760   18.9390 C   0  0  0  0  0  3  0  0  0  0  0  0
  -28.4460  -22.9740   19.3920 C   0  0  0  0  0  3  0  0  0  0  0  0
  -28.5290  -24.6610   18.8330 O   0  0  0  0  0  0  0  0  0  0  0  0
  -25.0280  -30.5860   22.3410 C   0  0  0  0  0  0  0  0  0  0  0  0
  -27.6410  -25.9120   18.9270 C   0  0  0  0  0  0  0  0  0  0  0  0
  -23.9220  -29.3390   20.5450 C   0  0  0  0  0  3  0  0  0  0  0  0
  -25.4310  -27.9370   18.9740 C   0  0  0  0  0  0  0  0  0  0  0  0
  -26.4930  -29.5880   20.4820 C   0  0  0  0  0  2  0  0  0  0  0  0
  -26.5990  -28.2350   19.6810 C   0  0  0  0  0  0  0  0  0  0  0  0
  -27.7120  -27.2540   19.6180 C   0  0  0  0  0  3  0  0  0  0  0  0
  -26.4780  -25.8520   18.1430 C   0  0  0  0  0  3  0  0  0  0  0  0
  -25.4150  -26.7910   18.1660 C   0  0  0  0  0  3  0  0  0  0  0  0
  -24.2000  -28.8350   19.1020 C   0  0  0  0  0  2  0  0  0  0  0  0
  -25.1720  -29.8680   21.1780 N   0  0  0  0  0  0  0  0  0  0  0  0
  -23.9170  -30.7800   22.8640 O   0  0  0  0  0  0  0  0  0  0  0  0
  -23.2530  -28.2100   21.3810 C   0  0  0  0  0  0  0  0  0  0  0  0
  -21.9270  -28.0330   21.2480 N   0  0  0  0  0  0  0  0  0  0  0  0
  -23.9390  -27.4990   22.1190 O   0  0  0  0  0  0  0  0  0  0  0  0
  -21.4230  -28.6610   20.6370 H   0  0  0  0  0  0  0  0  0  0  0  0
  -18.5620  -26.7630   21.7570 C   0  0  0  0  0  0  0  0  0  0  0  0
  -21.1350  -26.9820   21.9040 C   0  0  0  0  0  3  0  0  0  0  0  0
  -21.1850  -25.6660   21.0940 C   0  0  0  0  0  2  0  0  0  0  0  0
  -20.0200  -25.5180   20.1090 C   0  0  0  0  0  2  0  0  0  0  0  0
  -18.6830  -25.5500   20.8520 C   0  0  0  0  0  2  0  0  0  0  0  0
  -19.7110  -27.4470   22.2380 C   0  0  0  0  0  0  0  0  0  0  0  0
  -19.5380  -28.5870   23.0540 C   0  0  0  0  0  3  0  0  0  0  0  0
  -18.2500  -29.0450   23.3870 C   0  0  0  0  0  3  0  0  0  0  0  0
  -17.1170  -28.3610   22.9140 C   0  0  0  0  0  3  0  0  0  0  0  0
  -17.2740  -27.2200   22.1100 C   0  0  0  0  0  3  0  0  0  0  0  0
  -26.2530  -31.2180   23.0700 C   0  0  0  0  0  3  0  0  0  0  0  0
  -26.8530  -30.2810   24.1900 C   0  0  1  0  0  0  0  0  0  0  0  0
  -25.8110  -29.7940   25.2230 C   0  0  0  0  0  1  0  0  0  0  0  0
  -27.5080  -29.0260   23.5730 C   0  0  0  0  0  1  0  0  0  0  0  0
  -27.9740  -31.0290   24.9470 C   0  0  0  0  0  1  0  0  0  0  0  0
  -25.8170  -32.4990   23.6640 N   0  0  0  0  0  0  0  0  0  0  0  0
  -26.1740  -33.7140   23.2290 C   0  0  0  0  0  0  0  0  0  0  0  0
  -26.9620  -33.8770   22.2940 O   0  0  0  0  0  0  0  0  0  0  0  0
  -25.1250  -32.4380   24.3970 H   0  0  0  0  0  0  0  0  0  0  0  0
  -24.4550  -35.5510   23.0630 C   0  0  0  0  0  1  0  0  0  0  0  0
  -25.5650  -34.9460   23.9390 C   0  0  0  0  0  3  0  0  0  0  0  0
  -27.4730  -35.6020   25.3370 C   0  0  0  0  0  1  0  0  0  0  0  0
  -26.5590  -35.9910   24.2670 N   0  0  0  0  0  0  0  0  0  0  0  0
  -26.0970  -36.8530   24.5430 H   0  0  0  0  0  0  0  0  0  0  0  0
  1  2  2  0
  1 10  1  0
  2  5  1  0
  3  6  1  0
  3  1  1  0
  4  2  1  0
  8 12  1  0
  9 10  2  0
 10 12  1  0
 11 14  1  0
 11  9  1  0
 11  7  1  0
 12 13  1  0
 14 23  1  0
 15 22  2  0
 15 21  1  0
 16 21  1  0
 17 16  2  0
 18 17  1  0
 18 19  1  0
 19 28  1  0
 20  7  1  0
 20  8  1  0
 21 20  1  0
 23 15  1  0
 24 23  1  0
 25 26  2  0
 26 45  1  0
 27 26  1  0
 27 30  1  0
 28 29  1  0
 28 25  1  0
 29 27  1  0
 30 31  1  0
 31 32  2  0
 33 36  1  0
 33 32  1  0
 34 33  2  0
 35 34  1  0
 35 30  2  0
 36 37  1  0
 37 38  1  0
 38 39  2  0
 40 39  1  0
 40 44  1  0
 41 40  2  0
 42 37  2  0
 42 41  1  0
 43 42  1  0
 45 46  1  0
 46 49  1  0
 46 48  1  0
 47 45  2  0
 50 25  1  0
 50 51  1  0
 52 50  1  0
 53 54  2  0
 53  3  1  0
 55 57  1  0
 55 54  1  0
 56 67  2  0
 57 62  1  0
 58 66  1  0
 58 68  1  0
 59 65  1  0
 59 61  1  0
 60 66  1  0
 61 60  1  0
 62 61  2  0
 63 64  1  0
 63 57  2  0
 64 59  2  0
 65 58  1  0
 66 56  1  0
 68 70  2  0
 69 68  1  0
 71 69  1  0
 72 81  2  0
 72 77  1  0
 73 69  1  0
 73 77  1  0
 74 73  1  0
 75 76  1  0
 75 74  1  0
 76 72  1  0
 77 78  2  0
 78 79  1  0
 80 79  2  0
 81 80  1  0
 82 56  1  0
 82 87  1  0
 82 83  1  0
 83 86  1  1
 83 84  1  0
 85 83  1  0
 87 90  1  0
 88 87  1  0
 88 92  1  0
 89 88  2  0
 92 91  1  0
 92 94  1  0
 94 95  1  0
 94 93  1  0
M  ISO  4  15 100  23 100  54 101  55 101
M  END
>  <TORSDO>  (64) 
F 20

>  <SCORE>  (64) 
-5.849

>  <name>  (64) 
63

>  <ligand_id>  (64) 
63

>  <original_smiles>  (64) 
[H]c1c([H])c([H])c2c(c1[H])C([H])([H])C([H])([H])C([H])([H])C2([H])N([H])C(=O)C1([H])N(C(=O)C([H])(N([H])C(=O)C([H])(N([H])C([H])([H])[H])C([H])([H])[H])C(C([H])([H])[H])(C([H])([H])[H])C([H])([H])[H])C([H])([H])c2c([H])c(OC([H])([H])C([H])([H])[N+]([H])=C(c3c([H])c(C([H])([H])N([H])C(=O)N4C([H])([H])C([H])([H])C([H])([H])C([H])(n5nc(-c6c([H])c([H])c(Oc7c([H])c([H])c(F)c([H])c7F)c([H])c6[H])c(C(=O)N([H])[H])c5N([H])[H])C4([H])[H])c([H])c([H])c3C([H])([H])[H])N([H])[H])c([H])c([H])c2C1([H])[H]

>  <smiles>  (64) 
[H]c1c([H])c([H])c2c(c1[H])C([H])([H])C([H])([H])C([H])([H])C2([H])N([H])C(=O)C1([H])N(C(=O)C([H])(N([H])C(=O)C([H])(N([H])C([H])([H])[H])C([H])([H])[H])C(C([H])([H])[H])(C([H])([H])[H])C([H])([H])[H])C([H])([H])c2c([H])c(OC([H])([H])C([H])([H])[N+]([H])=C(c3c([H])c(C([H])([H])N([H])C(=O)N4C([H])([H])C([H])([H])C([H])([H])C([H])(n5nc(-c6c([H])c([H])c(Oc7c([H])c([H])c(F)c([H])c7F)c([H])c6[H])c(C(=O)N([H])[H])c5N([H])[H])C4([H])[H])c([H])c([H])c3C([H])([H])[H])N([H])[H])c([H])c([H])c2C1([H])[H]

$$$$
64:0:0
     RDKit          3D

 96104  0  0  1  0  0  0  0  0999 V2000
  -29.7250  -21.8740   20.0960 C   0  0  0  0  0  0  0  0  0  0  0  0
  -28.8410  -22.2900   20.9960 N   0  0  0  0  0  4  0  0  0  0  0  0
  -30.2120  -22.9250   19.3680 N   0  0  0  0  0  0  0  0  0  0  0  0
  -28.6360  -21.6610   21.7600 H   0  0  0  0  0  0  0  0  0  0  0  0
  -28.6280  -23.2610   21.1350 H   0  0  0  0  0  0  0  0  0  0  0  0
  -30.8870  -22.6940   18.6430 H   0  0  0  0  0  0  0  0  0  0  0  0
  -30.4310  -19.7340   18.7490 C   0  0  0  0  0  3  0  0  0  0  0  0
  -30.7000  -18.3170   18.6440 C   0  0  0  0  0  3  0  0  0  0  0  0
  -30.0840  -20.3730   19.9820 C   0  0  0  0  0  0  0  0  0  0  0  0
  -30.6310  -17.4480   19.7840 C   0  0  0  0  0  0  0  0  0  0  0  0
  -30.0800  -19.4900   21.1200 C   0  0  0  0  0  0  0  0  0  0  0  0
  -30.3320  -18.0880   21.0080 C   0  0  0  0  0  0  0  0  0  0  0  0
  -29.7630  -20.0450   22.7380 Cl  0  0  0  0  0  0  0  0  0  0  0  0
  -30.2730  -17.1120   22.4500 Cl  0  0  0  0  0  0  0  0  0  0  0  0
  -31.4260  -14.9590   19.2800 C   0  0  0  0  0  0  0  0  0  0  0  0
  -31.1460  -12.6340   18.4090 C   0  0  0  0  0  2  0  0  0  0  0  0
  -30.0000  -12.5870   17.3730 C   0  0  0  0  0  2  0  0  0  0  0  0
  -28.6390  -12.3870   18.0670 C   0  0  0  0  0  2  0  0  0  0  0  0
  -28.4410  -13.3370   19.2770 C   0  0  0  0  0  3  0  0  0  0  0  0
  -29.6840  -13.3480   20.1970 C   0  0  0  0  0  2  0  0  0  0  0  0
  -30.8570  -13.7080   19.3790 N   0  0  0  0  0  0  0  0  0  0  0  0
  -32.4490  -15.1470   18.6120 O   0  0  0  0  0  0  0  0  0  0  0  0
  -30.7400  -15.9780   19.8730 N   0  0  0  0  0  0  0  0  0  0  0  0
  -30.0680  -15.6150   20.5340 H   0  0  0  0  0  0  0  0  0  0  0  0
  -26.3240  -13.9060   20.6140 C   0  0  0  0  0  0  0  0  0  0  0  0
  -25.2970  -13.1300   21.0810 C   0  0  0  0  0  0  0  0  0  0  0  0
  -25.6190  -11.7870   20.7200 C   0  0  0  0  0  0  0  0  0  0  0  0
  -27.2130  -13.0330   20.0070 N   0  0  0  0  0  0  0  0  0  0  0  0
  -26.8060  -11.7410   20.1250 N   0  0  0  0  0  0  0  0  0  0  0  0
  -24.8390  -10.5480   20.8550 C   0  0  0  0  0  0  0  0  0  0  0  0
  -25.1910   -9.5500   21.7910 C   0  0  0  0  0  3  0  0  0  0  0  0
  -24.4110   -8.3790   21.9150 C   0  0  0  0  0  3  0  0  0  0  0  0
  -23.2660   -8.1990   21.1030 C   0  0  0  0  0  0  0  0  0  0  0  0
  -22.9330   -9.1850   20.1580 C   0  0  0  0  0  3  0  0  0  0  0  0
  -23.7120  -10.3480   20.0310 C   0  0  0  0  0  3  0  0  0  0  0  0
  -22.4640   -7.0850   21.1420 O   0  0  0  0  0  0  0  0  0  0  0  0
  -22.0370   -6.5440   22.3280 C   0  0  0  0  0  0  0  0  0  0  0  0
  -21.3010   -7.2970   23.2680 C   0  0  0  0  0  3  0  0  0  0  0  0
  -20.8180   -6.6820   24.4410 C   0  0  0  0  0  3  0  0  0  0  0  0
  -21.0630   -5.3160   24.6730 C   0  0  0  0  0  0  0  0  0  0  0  0
  -21.7900   -4.5620   23.7340 C   0  0  0  0  0  3  0  0  0  0  0  0
  -22.2710   -5.1740   22.5630 C   0  0  0  0  0  0  0  0  0  0  0  0
  -22.9540   -4.4370   21.6530 F   0  0  0  0  0  0  0  0  0  0  0  0
  -20.5920   -4.7230   25.7950 F   0  0  0  0  0  0  0  0  0  0  0  0
  -24.0390  -13.6210   21.7370 C   0  0  0  0  0  0  0  0  0  0  0  0
  -23.4830  -12.8370   22.6560 N   0  0  0  0  0  0  0  0  0  0  0  0
  -23.5650  -14.7240   21.4730 O   0  0  0  0  0  0  0  0  0  0  0  0
  -23.8860  -11.9430   22.8950 H   0  0  0  0  0  0  0  0  0  0  0  0
  -22.6430  -13.1340   23.1330 H   0  0  0  0  0  0  0  0  0  0  0  0
  -26.5620  -15.2750   20.6370 N   0  0  0  0  0  0  0  0  0  0  0  0
  -25.8700  -15.9210   21.0030 H   0  0  0  0  0  0  0  0  0  0  0  0
  -27.3630  -15.7430   20.2350 H   0  0  0  0  0  0  0  0  0  0  0  0
  -30.0780  -24.4320   19.6430 C   0  0  0  0  0  2  0  0  0  0  0  0
  -28.8870  -25.2520   17.5330 C   0  0  0  0  0  1  0  0  0  0  0  0
  -28.8300  -25.2380   19.0700 C   0  0  0  0  0  3  0  0  0  0  0  0
  -28.7050  -26.6410   19.5510 O   0  0  0  0  0  0  0  0  0  0  0  0
  -24.5940  -31.3010   23.1850 C   0  0  0  0  0  0  0  0  0  0  0  0
  -27.4740  -27.3230   19.6130 C   0  0  0  0  0  0  0  0  0  0  0  0
  -23.4350  -29.9260   21.4930 C   0  0  0  0  0  3  0  0  0  0  0  0
  -24.9520  -28.6530   19.8700 C   0  0  0  0  0  0  0  0  0  0  0  0
  -25.9090  -30.5410   21.1900 C   0  0  0  0  0  2  0  0  0  0  0  0
  -26.0980  -29.2390   20.4180 C   0  0  0  0  0  0  0  0  0  0  0  0
  -27.3630  -28.5970   20.2600 C   0  0  0  0  0  3  0  0  0  0  0  0
  -26.2840  -26.7720   19.0780 C   0  0  0  0  0  3  0  0  0  0  0  0
  -25.0430  -27.4290   19.1900 C   0  0  0  0  0  3  0  0  0  0  0  0
  -23.6410  -29.3940   20.0560 C   0  0  0  0  0  2  0  0  0  0  0  0
  -24.6670  -30.6020   22.0160 N   0  0  0  0  0  0  0  0  0  0  0  0
  -23.5250  -31.4140   23.8020 O   0  0  0  0  0  0  0  0  0  0  0  0
  -22.9340  -28.7750   22.3920 C   0  0  0  0  0  0  0  0  0  0  0  0
  -21.6830  -28.3400   22.1810 N   0  0  0  0  0  0  0  0  0  0  0  0
  -23.6740  -28.2750   23.2430 O   0  0  0  0  0  0  0  0  0  0  0  0
  -21.0980  -28.8950   21.5740 H   0  0  0  0  0  0  0  0  0  0  0  0
  -18.7170  -26.2460   22.2020 C   0  0  0  0  0  0  0  0  0  0  0  0
  -21.0460  -27.1920   22.8240 C   0  0  0  0  0  3  0  0  0  0  0  0
  -21.6410  -25.8570   22.3000 C   0  0  0  0  0  2  0  0  0  0  0  0
  -20.7910  -25.1770   21.2140 C   0  0  0  0  0  2  0  0  0  0  0  0
  -19.3470  -24.9600   21.6870 C   0  0  0  0  0  2  0  0  0  0  0  0
  -19.5160  -27.2920   22.7400 C   0  0  0  0  0  0  0  0  0  0  0  0
  -18.8890  -28.4640   23.2180 C   0  0  0  0  0  3  0  0  0  0  0  0
  -17.4870  -28.5950   23.1800 C   0  0  0  0  0  3  0  0  0  0  0  0
  -16.6990  -27.5550   22.6520 C   0  0  0  0  0  3  0  0  0  0  0  0
  -17.3120  -26.3850   22.1640 C   0  0  0  0  0  3  0  0  0  0  0  0
  -25.8440  -32.0150   23.7900 C   0  0  0  0  0  3  0  0  0  0  0  0
  -26.4130  -31.2850   25.0690 C   0  0  1  0  0  0  0  0  0  0  0  0
  -25.3370  -30.9600   26.1300 C   0  0  0  0  0  1  0  0  0  0  0  0
  -27.1060  -29.9600   24.6750 C   0  0  0  0  0  1  0  0  0  0  0  0
  -27.4900  -32.1680   25.7400 C   0  0  0  0  0  1  0  0  0  0  0  0
  -25.4560  -33.3940   24.1100 N   0  0  0  0  0  0  0  0  0  0  0  0
  -25.6810  -34.4560   23.3230 C   0  0  0  0  0  0  0  0  0  0  0  0
  -26.3040  -34.3810   22.2620 O   0  0  0  0  0  0  0  0  0  0  0  0
  -24.9020  -33.5200   24.9420 H   0  0  0  0  0  0  0  0  0  0  0  0
  -23.8180  -36.1280   23.0390 C   0  0  0  0  0  1  0  0  0  0  0  0
  -25.1250  -35.8160   23.7870 C   0  0  0  0  0  3  0  0  0  0  0  0
  -27.2220  -36.8740   24.5010 C   0  0  0  0  0  1  0  0  0  0  0  0
  -26.0740  -36.9360   23.6050 N   0  0  0  0  0  0  0  0  0  0  0  0
  -25.6080  -37.8250   23.7580 H   0  0  0  0  0  0  0  0  0  0  0  0
  1  2  2  0
  2  5  1  0
  2  4  1  0
  3 53  1  0
  3  1  1  0
  6  3  1  0
  7  9  1  0
  8  7  2  0
  8 10  1  0
  9  1  1  0
  9 11  2  0
 10 23  1  0
 10 12  2  0
 11 13  1  0
 12 11  1  0
 12 14  1  0
 15 21  1  0
 15 23  1  0
 16 21  1  0
 17 18  1  0
 17 16  1  0
 19 18  1  0
 19 28  1  0
 19 20  1  0
 21 20  1  0
 22 15  2  0
 23 24  1  0
 25 50  1  0
 25 26  2  0
 26 45  1  0
 27 30  1  0
 27 26  1  0
 28 29  1  0
 28 25  1  0
 29 27  2  0
 30 31  1  0
 31 32  2  0
 33 36  1  0
 33 32  1  0
 34 33  2  0
 35 34  1  0
 35 30  2  0
 36 37  1  0
 37 42  2  0
 37 38  1  0
 38 39  2  0
 39 40  1  0
 40 44  1  0
 41 40  2  0
 42 41  1  0
 43 42  1  0
 45 46  1  0
 46 48  1  0
 46 49  1  0
 47 45  2  0
 50 51  1  0
 52 50  1  0
 55 54  1  0
 55 56  1  0
 55 53  1  0
 56 58  1  0
 57 68  2  0
 58 63  1  0
 59 67  1  0
 59 69  1  0
 60 66  1  0
 60 62  1  0
 61 67  1  0
 62 61  1  0
 63 62  2  0
 64 65  1  0
 64 58  2  0
 65 60  2  0
 66 59  1  0
 67 57  1  0
 69 71  2  0
 70 69  1  0
 72 70  1  0
 73 78  1  0
 74 70  1  0
 75 74  1  0
 76 77  1  0
 76 75  1  0
 77 73  1  0
 78 74  1  0
 78 79  2  0
 80 79  1  0
 81 80  2  0
 82 73  2  0
 82 81  1  0
 83 57  1  0
 83 88  1  0
 83 84  1  0
 84 87  1  1
 84 85  1  0
 86 84  1  0
 88 91  1  0
 89 93  1  0
 89 88  1  0
 90 89  2  0
 93 92  1  0
 95 96  1  0
 95 93  1  0
 95 94  1  0
M  ISO  4  15 100  23 100  55 101  56 101
M  END
>  <TORSDO>  (65) 
F 19

>  <SCORE>  (65) 
-9.241

>  <name>  (65) 
64

>  <ligand_id>  (65) 
64

>  <original_smiles>  (65) 
[H]c1c([H])c([H])c2c(c1[H])C([H])([H])C([H])([H])C([H])([H])C2([H])N([H])C(=O)C1([H])N(C(=O)C([H])(N([H])C(=O)C([H])(N([H])C([H])([H])[H])C([H])([H])[H])C(C([H])([H])[H])(C([H])([H])[H])C([H])([H])[H])C([H])([H])c2c([H])c(OC([H])(C([H])([H])[H])C([H])([H])[N+]([H])=C(c3c([H])c([H])c(N([H])C(=O)N4C([H])([H])C([H])([H])C([H])([H])C([H])(n5nc(-c6c([H])c([H])c(Oc7c([H])c([H])c(F)c([H])c7F)c([H])c6[H])c(C(=O)N([H])[H])c5N([H])[H])C4([H])[H])c(Cl)c3Cl)N([H])[H])c([H])c([H])c2C1([H])[H]

>  <smiles>  (65) 
[H]c1c([H])c([H])c2c(c1[H])C([H])([H])C([H])([H])C([H])([H])C2([H])N([H])C(=O)C1([H])N(C(=O)C([H])(N([H])C(=O)C([H])(N([H])C([H])([H])[H])C([H])([H])[H])C(C([H])([H])[H])(C([H])([H])[H])C([H])([H])[H])C([H])([H])c2c([H])c(OC([H])(C([H])([H])[H])C([H])([H])[N+]([H])=C(c3c([H])c([H])c(N([H])C(=O)N4C([H])([H])C([H])([H])C([H])([H])C([H])(n5nc(-c6c([H])c([H])c(Oc7c([H])c([H])c(F)c([H])c7F)c([H])c6[H])c(C(=O)N([H])[H])c5N([H])[H])C4([H])[H])c(Cl)c3Cl)N([H])[H])c([H])c([H])c2C1([H])[H]

$$$$
65:0:0
     RDKit          3D

 91 99  0  0  1  0  0  0  0  0999 V2000
  -29.9970  -21.5430   20.3870 N   0  0  0  0  0  0  0  0  0  0  0  0
  -30.9370  -21.9170   20.2760 H   0  0  0  0  0  0  0  0  0  0  0  0
  -28.7090  -17.9500   20.5810 C   0  0  0  0  0  3  0  0  0  0  0  0
  -28.7150  -19.3750   20.5080 C   0  0  0  0  0  3  0  0  0  0  0  0
  -31.1100  -17.9070   20.4530 C   0  0  0  0  0  3  0  0  0  0  0  0
  -29.9000  -17.1740   20.5530 C   0  0  0  0  0  0  0  0  0  0  0  0
  -29.9240  -20.1090   20.4210 C   0  0  0  0  0  0  0  0  0  0  0  0
  -31.1220  -19.3330   20.3930 C   0  0  0  0  0  0  0  0  0  0  0  0
  -32.6520  -20.1350   20.2900 Cl  0  0  0  0  0  0  0  0  0  0  0  0
  -30.5890  -14.6850   20.2330 C   0  0  0  0  0  0  0  0  0  0  0  0
  -30.3350  -12.4780   19.1190 C   0  0  0  0  0  2  0  0  0  0  0  0
  -29.3450  -12.6430   17.9430 C   0  0  0  0  0  2  0  0  0  0  0  0
  -27.8880  -12.4790   18.4220 C   0  0  0  0  0  2  0  0  0  0  0  0
  -27.5800  -13.3110   19.6950 C   0  0  0  0  0  3  0  0  0  0  0  0
  -28.6780  -13.1150   20.7660 C   0  0  0  0  0  2  0  0  0  0  0  0
  -29.9690  -13.4660   20.1510 N   0  0  0  0  0  0  0  0  0  0  0  0
  -31.7330  -14.8550   19.8000 O   0  0  0  0  0  0  0  0  0  0  0  0
  -29.7940  -15.7180   20.6540 N   0  0  0  0  0  0  0  0  0  0  0  0
  -28.8950  -15.3880   20.9730 H   0  0  0  0  0  0  0  0  0  0  0  0
  -25.2170  -13.9060   20.5130 C   0  0  0  0  0  0  0  0  0  0  0  0
  -24.1590  -13.1300   20.9040 C   0  0  0  0  0  0  0  0  0  0  0  0
  -24.6130  -11.7760   20.8220 C   0  0  0  0  0  0  0  0  0  0  0  0
  -26.2480  -13.0260   20.2200 N   0  0  0  0  0  0  0  0  0  0  0  0
  -25.8900  -11.7390   20.4660 N   0  0  0  0  0  0  0  0  0  0  0  0
  -23.8870  -10.5130   21.0070 C   0  0  0  0  0  0  0  0  0  0  0  0
  -24.3210   -9.5420   21.9350 C   0  0  0  0  0  3  0  0  0  0  0  0
  -23.5960   -8.3430   22.1070 C   0  0  0  0  0  3  0  0  0  0  0  0
  -22.4220   -8.1080   21.3520 C   0  0  0  0  0  0  0  0  0  0  0  0
  -22.0080   -9.0680   20.4130 C   0  0  0  0  0  3  0  0  0  0  0  0
  -22.7340  -10.2580   20.2390 C   0  0  0  0  0  3  0  0  0  0  0  0
  -21.6690   -6.9620   21.4350 O   0  0  0  0  0  0  0  0  0  0  0  0
  -21.5860   -6.2370   22.5970 C   0  0  0  0  0  0  0  0  0  0  0  0
  -21.0720   -6.7950   23.7870 C   0  0  0  0  0  3  0  0  0  0  0  0
  -20.9390   -5.9950   24.9400 C   0  0  0  0  0  3  0  0  0  0  0  0
  -21.3100   -4.6380   24.9030 C   0  0  0  0  0  0  0  0  0  0  0  0
  -21.8180   -4.0800   23.7160 C   0  0  0  0  0  3  0  0  0  0  0  0
  -21.9520   -4.8760   22.5660 C   0  0  0  0  0  0  0  0  0  0  0  0
  -22.4210   -4.3280   21.4190 F   0  0  0  0  0  0  0  0  0  0  0  0
  -21.1760   -3.8670   26.0070 F   0  0  0  0  0  0  0  0  0  0  0  0
  -22.7760  -13.6050   21.2380 C   0  0  0  0  0  0  0  0  0  0  0  0
  -22.0740  -12.8890   22.1080 N   0  0  0  0  0  0  0  0  0  0  0  0
  -22.3260  -14.6480   20.7620 O   0  0  0  0  0  0  0  0  0  0  0  0
  -22.4510  -12.0450   22.5140 H   0  0  0  0  0  0  0  0  0  0  0  0
  -21.1460  -13.1890   22.3730 H   0  0  0  0  0  0  0  0  0  0  0  0
  -25.3810  -15.2790   20.3580 N   0  0  0  0  0  0  0  0  0  0  0  0
  -24.6130  -15.9270   20.4930 H   0  0  0  0  0  0  0  0  0  0  0  0
  -26.1950  -15.7140   19.9430 H   0  0  0  0  0  0  0  0  0  0  0  0
  -28.8740  -22.5050   20.1980 C   0  0  0  0  0  2  0  0  0  0  0  0
  -29.2490  -24.0500   20.3350 C   0  0  0  0  0  3  0  0  0  0  0  0
  -28.1060  -25.0950   19.9960 C   0  0  0  0  0  3  0  0  0  0  0  0
  -28.3230  -26.5430   20.2120 O   0  0  0  0  0  0  0  0  0  0  0  0
  -24.5890  -31.9120   23.2530 C   0  0  0  0  0  0  0  0  0  0  0  0
  -27.1950  -27.3800   20.1660 C   0  0  0  0  0  0  0  0  0  0  0  0
  -23.3780  -30.5170   21.6160 C   0  0  0  0  0  3  0  0  0  0  0  0
  -24.8230  -28.9780   20.1780 C   0  0  0  0  0  0  0  0  0  0  0  0
  -25.9150  -30.8450   21.4180 C   0  0  0  0  0  2  0  0  0  0  0  0
  -25.9950  -29.4700   20.7670 C   0  0  0  0  0  0  0  0  0  0  0  0
  -27.1840  -28.6830   20.7520 C   0  0  0  0  0  3  0  0  0  0  0  0
  -25.9970  -26.9410   19.5550 C   0  0  0  0  0  3  0  0  0  0  0  0
  -24.8250  -27.7180   19.5630 C   0  0  0  0  0  3  0  0  0  0  0  0
  -23.5850  -29.8470   20.2330 C   0  0  0  0  0  2  0  0  0  0  0  0
  -24.6470  -31.1080   22.1530 N   0  0  0  0  0  0  0  0  0  0  0  0
  -23.5090  -32.1860   23.7950 O   0  0  0  0  0  0  0  0  0  0  0  0
  -22.7230  -29.4950   22.5760 C   0  0  0  0  0  0  0  0  0  0  0  0
  -21.3990  -29.3090   22.4480 N   0  0  0  0  0  0  0  0  0  0  0  0
  -23.4060  -28.8740   23.3940 O   0  0  0  0  0  0  0  0  0  0  0  0
  -20.9080  -29.8640   21.7600 H   0  0  0  0  0  0  0  0  0  0  0  0
  -18.0260  -28.1070   22.9560 C   0  0  0  0  0  0  0  0  0  0  0  0
  -20.5840  -28.3690   23.2190 C   0  0  0  0  0  3  0  0  0  0  0  0
  -20.6870  -26.9390   22.6410 C   0  0  0  0  0  2  0  0  0  0  0  0
  -19.5820  -26.6170   21.6290 C   0  0  0  0  0  2  0  0  0  0  0  0
  -18.2010  -26.7590   22.2770 C   0  0  0  0  0  2  0  0  0  0  0  0
  -19.1440  -28.8700   23.3840 C   0  0  0  0  0  0  0  0  0  0  0  0
  -18.9250  -30.1310   23.9790 C   0  0  0  0  0  3  0  0  0  0  0  0
  -17.6200  -30.6310   24.1490 C   0  0  0  0  0  3  0  0  0  0  0  0
  -16.5160  -29.8660   23.7370 C   0  0  0  0  0  3  0  0  0  0  0  0
  -16.7190  -28.6050   23.1460 C   0  0  0  0  0  3  0  0  0  0  0  0
  -25.8760  -32.5440   23.8710 C   0  0  0  0  0  3  0  0  0  0  0  0
  -26.3840  -31.7840   25.1570 C   0  0  1  0  0  0  0  0  0  0  0  0
  -25.2850  -31.5600   26.2220 C   0  0  0  0  0  1  0  0  0  0  0  0
  -26.9660  -30.4020   24.7820 C   0  0  0  0  0  1  0  0  0  0  0  0
  -27.5330  -32.5830   25.8170 C   0  0  0  0  0  1  0  0  0  0  0  0
  -25.5750  -33.9480   24.1820 N   0  0  0  0  0  0  0  0  0  0  0  0
  -25.8930  -34.9870   23.3990 C   0  0  0  0  0  0  0  0  0  0  0  0
  -26.5410  -34.8650   22.3570 O   0  0  0  0  0  0  0  0  0  0  0  0
  -24.9970  -34.1160   24.9930 H   0  0  0  0  0  0  0  0  0  0  0  0
  -24.1570  -36.7740   23.0540 C   0  0  0  0  0  1  0  0  0  0  0  0
  -25.4160  -36.3840   23.8430 C   0  0  0  0  0  3  0  0  0  0  0  0
  -27.5640  -37.2890   24.6150 C   0  0  0  0  0  1  0  0  0  0  0  0
  -26.4460  -37.4340   23.6860 N   0  0  0  0  0  0  0  0  0  0  0  0
  -26.0430  -38.3570   23.8170 H   0  0  0  0  0  0  0  0  0  0  0  0
  1  7  1  0
  2  1  1  0
  4  3  2  0
  5  6  2  0
  6  3  1  0
  6 18  1  0
  7  4  1  0
  8  7  2  0
  8  5  1  0
  9  8  1  0
 10 18  1  0
 11 16  1  0
 12 13  1  0
 12 11  1  0
 14 13  1  0
 14 23  1  0
 14 15  1  0
 16 10  1  0
 16 15  1  0
 17 10  2  0
 18 19  1  0
 20 21  2  0
 21 40  1  0
 22 21  1  0
 22 25  1  0
 23 24  1  0
 23 20  1  0
 24 22  2  0
 25 26  1  0
 26 27  2  0
 28 31  1  0
 28 27  1  0
 29 28  2  0
 30 29  1  0
 30 25  2  0
 31 32  1  0
 32 33  1  0
 33 34  2  0
 35 34  1  0
 35 39  1  0
 36 35  2  0
 37 32  2  0
 37 36  1  0
 38 37  1  0
 40 41  1  0
 41 44  1  0
 41 43  1  0
 42 40  2  0
 45 46  1  0
 45 20  1  0
 47 45  1  0
 48 49  1  0
 48  1  1  0
 50 51  1  0
 50 49  2  0
 52 63  2  0
 53 51  1  0
 53 58  1  0
 54 62  1  0
 54 64  1  0
 55 61  1  0
 55 57  1  0
 56 62  1  0
 57 56  1  0
 58 57  2  0
 59 60  1  0
 59 53  2  0
 60 55  2  0
 61 54  1  0
 62 52  1  0
 64 66  2  0
 65 64  1  0
 67 65  1  0
 68 77  2  0
 68 73  1  0
 69 65  1  0
 69 73  1  0
 70 69  1  0
 71 72  1  0
 71 70  1  0
 72 68  1  0
 73 74  2  0
 74 75  1  0
 76 75  2  0
 77 76  1  0
 78 52  1  0
 78 83  1  0
 78 79  1  0
 79 82  1  1
 79 80  1  0
 81 79  1  0
 83 86  1  0
 84 88  1  0
 84 83  1  0
 85 84  2  0
 88 87  1  0
 90 91  1  0
 90 88  1  0
 90 89  1  0
M  ISO  4  10 100  18 100  50 101  51 101
M  END
>  <TORSDO>  (66) 
F 20

>  <SCORE>  (66) 
-13.911

>  <name>  (66) 
65

>  <ligand_id>  (66) 
65

>  <original_smiles>  (66) 
[H]c1c([H])c([H])c2c(c1[H])C([H])([H])C([H])([H])C([H])([H])C2([H])N([H])C(=O)C1([H])N(C(=O)C([H])(N([H])C(=O)C([H])(N([H])C([H])([H])[H])C([H])([H])[H])C(C([H])([H])[H])(C([H])([H])[H])C([H])([H])[H])C([H])([H])c2c([H])c(OC([H])([H])C([H])([H])C([H])([H])N([H])c3c([H])c([H])c(N([H])C(=O)N4C([H])([H])C([H])([H])C([H])([H])C([H])(n5nc(-c6c([H])c([H])c(Oc7c([H])c([H])c(F)c([H])c7F)c([H])c6[H])c(C(=O)N([H])[H])c5N([H])[H])C4([H])[H])c([H])c3Cl)c([H])c([H])c2C1([H])[H]

>  <smiles>  (66) 
[H]c1c([H])c([H])c2c(c1[H])C([H])([H])C([H])([H])C([H])([H])C2([H])N([H])C(=O)C1([H])N(C(=O)C([H])(N([H])C(=O)C([H])(N([H])C([H])([H])[H])C([H])([H])[H])C(C([H])([H])[H])(C([H])([H])[H])C([H])([H])[H])C([H])([H])c2c([H])c(OC([H])([H])C([H])([H])C([H])([H])N([H])c3c([H])c([H])c(N([H])C(=O)N4C([H])([H])C([H])([H])C([H])([H])C([H])(n5nc(-c6c([H])c([H])c(Oc7c([H])c([H])c(F)c([H])c7F)c([H])c6[H])c(C(=O)N([H])[H])c5N([H])[H])C4([H])[H])c([H])c3Cl)c([H])c([H])c2C1([H])[H]

$$$$
66:0:0
     RDKit          3D

 94101  0  0  1  0  0  0  0  0999 V2000
  -30.3660  -20.6880   19.9440 C   0  0  0  0  0  2  0  0  0  0  0  0
  -27.1760  -19.5530   18.1800 C   0  0  0  0  0  3  0  0  0  0  0  0
  -28.3850  -20.1980   18.4660 C   0  0  0  0  0  3  0  0  0  0  0  0
  -26.8360  -18.4080   18.9150 C   0  0  0  0  0  3  0  0  0  0  0  0
  -29.3280  -19.6560   19.3750 C   0  0  0  0  0  0  0  0  0  0  0  0
  -29.1460  -18.2620   19.7650 C   0  0  0  0  0  0  0  0  0  0  0  0
  -27.8050  -17.7850   19.7250 C   0  0  0  0  0  3  0  0  0  0  0  0
  -27.2890  -16.5120   20.7720 Cl  0  0  0  0  0 15  0  0  0  0  0  0
  -30.2870  -17.2330   20.1460 C   0  0  0  0  0  2  0  0  0  0  0  0
  -30.6900  -14.6200   19.9920 C   0  0  0  0  0  0  0  0  0  0  0  0
  -30.4000  -12.3540   18.9840 C   0  0  0  0  0  2  0  0  0  0  0  0
  -29.3870  -12.4460   17.8130 C   0  0  0  0  0  2  0  0  0  0  0  0
  -27.9280  -12.3720   18.3100 C   0  0  0  0  0  2  0  0  0  0  0  0
  -27.6580  -13.2240   19.5830 C   0  0  0  0  0  3  0  0  0  0  0  0
  -28.7840  -13.0600   20.6290 C   0  0  0  0  0  2  0  0  0  0  0  0
  -30.0440  -13.4050   19.9630 N   0  0  0  0  0  0  0  0  0  0  0  0
  -31.8560  -14.7120   19.6060 O   0  0  0  0  0  0  0  0  0  0  0  0
  -29.9380  -15.7460   20.2480 N   0  0  0  0  0  0  0  0  0  0  0  0
  -28.9790  -15.5700   20.5150 H   0  0  0  0  0  0  0  0  0  0  0  0
  -25.2910  -13.8460   20.3650 C   0  0  0  0  0  0  0  0  0  0  0  0
  -24.2370  -13.0940   20.7870 C   0  0  0  0  0  0  0  0  0  0  0  0
  -24.6730  -11.7380   20.7450 C   0  0  0  0  0  0  0  0  0  0  0  0
  -26.3280  -12.9580   20.1280 N   0  0  0  0  0  0  0  0  0  0  0  0
  -25.9560  -11.6800   20.4090 N   0  0  0  0  0  0  0  0  0  0  0  0
  -23.9230  -10.4960   20.9500 C   0  0  0  0  0  0  0  0  0  0  0  0
  -24.3750   -9.5110   21.8540 C   0  0  0  0  0  3  0  0  0  0  0  0
  -23.6290   -8.3320   22.0640 C   0  0  0  0  0  3  0  0  0  0  0  0
  -22.4140   -8.1320   21.3620 C   0  0  0  0  0  0  0  0  0  0  0  0
  -21.9850   -9.1040   20.4390 C   0  0  0  0  0  3  0  0  0  0  0  0
  -22.7340  -10.2730   20.2320 C   0  0  0  0  0  3  0  0  0  0  0  0
  -21.6320   -7.0060   21.4750 O   0  0  0  0  0  0  0  0  0  0  0  0
  -21.6080   -6.2560   22.6210 C   0  0  0  0  0  0  0  0  0  0  0  0
  -21.2560   -6.8140   23.8670 C   0  0  0  0  0  3  0  0  0  0  0  0
  -21.1860   -5.9940   25.0100 C   0  0  0  0  0  3  0  0  0  0  0  0
  -21.4550   -4.6170   24.9050 C   0  0  0  0  0  0  0  0  0  0  0  0
  -21.7970   -4.0590   23.6620 C   0  0  0  0  0  3  0  0  0  0  0  0
  -21.8720   -4.8730   22.5200 C   0  0  0  0  0  0  0  0  0  0  0  0
  -22.1880   -4.3290   21.3200 F   0  0  0  0  0  0  0  0  0  0  0  0
  -21.3720   -3.8240   26.0010 F   0  0  0  0  0  0  0  0  0  0  0  0
  -22.8670  -13.6030   21.1250 C   0  0  0  0  0  0  0  0  0  0  0  0
  -22.1880  -12.9190   22.0340 N   0  0  0  0  0  0  0  0  0  0  0  0
  -22.4220  -14.6350   20.6250 O   0  0  0  0  0  0  0  0  0  0  0  0
  -22.5910  -12.0880   22.4430 H   0  0  0  0  0  0  0  0  0  0  0  0
  -21.2630  -13.2140   22.3090 H   0  0  0  0  0  0  0  0  0  0  0  0
  -25.4280  -15.2080   20.1400 N   0  0  0  0  0  0  0  0  0  0  0  0
  -24.6350  -15.8330   20.2060 H   0  0  0  0  0  0  0  0  0  0  0  0
  -26.3150  -15.6840   20.0800 H   0  0  0  0  0  0  0  0  0  0  0  0
  -29.5380  -23.0820   20.4660 C   0  0  0  0  0  0  0  0  0  0  0  0
  -30.0730  -22.1400   19.6450 N   0  0  0  0  0  0  0  0  0  0  0  0
  -29.3290  -22.8250   21.6570 O   0  0  0  0  0  0  0  0  0  0  0  0
  -30.2720  -22.4340   18.6940 H   0  0  0  0  0  0  0  0  0  0  0  0
  -29.2670  -24.4090   19.8710 C   0  0  0  0  0  3  0  0  0  0  0  0
  -28.6330  -25.3970   20.5690 C   0  0  0  0  0  3  0  0  0  0  0  0
  -28.4800  -26.7040   20.1250 O   0  0  0  0  0  0  0  0  0  0  0  0
  -24.5810  -31.9070   23.2770 C   0  0  0  0  0  0  0  0  0  0  0  0
  -27.2850  -27.3940   20.2760 C   0  0  0  0  0  0  0  0  0  0  0  0
  -23.3940  -30.4860   21.6310 C   0  0  0  0  0  3  0  0  0  0  0  0
  -24.8750  -28.9100   20.2640 C   0  0  0  0  0  0  0  0  0  0  0  0
  -25.9300  -30.8210   21.4800 C   0  0  0  0  0  2  0  0  0  0  0  0
  -26.0260  -29.4330   20.8690 C   0  0  0  0  0  0  0  0  0  0  0  0
  -27.2280  -28.6830   20.8790 C   0  0  0  0  0  3  0  0  0  0  0  0
  -26.1130  -26.8940   19.6760 C   0  0  0  0  0  3  0  0  0  0  0  0
  -24.9130  -27.6330   19.6730 C   0  0  0  0  0  3  0  0  0  0  0  0
  -23.6350  -29.7760   20.2690 C   0  0  0  0  0  2  0  0  0  0  0  0
  -24.6530  -31.0880   22.1900 N   0  0  0  0  0  0  0  0  0  0  0  0
  -23.4910  -32.1910   23.7940 O   0  0  0  0  0  0  0  0  0  0  0  0
  -22.7190  -29.4810   22.5920 C   0  0  0  0  0  0  0  0  0  0  0  0
  -21.3940  -29.3180   22.4580 N   0  0  0  0  0  0  0  0  0  0  0  0
  -23.3890  -28.8450   23.4080 O   0  0  0  0  0  0  0  0  0  0  0  0
  -20.9090  -29.8990   21.7870 H   0  0  0  0  0  0  0  0  0  0  0  0
  -17.9980  -28.1860   22.9470 C   0  0  0  0  0  0  0  0  0  0  0  0
  -20.5640  -28.3900   23.2220 C   0  0  0  0  0  3  0  0  0  0  0  0
  -20.6350  -26.9600   22.6360 C   0  0  0  0  0  2  0  0  0  0  0  0
  -19.5260  -26.6660   21.6220 C   0  0  0  0  0  2  0  0  0  0  0  0
  -18.1470  -26.8380   22.2650 C   0  0  0  0  0  2  0  0  0  0  0  0
  -19.1340  -28.9230   23.3850 C   0  0  0  0  0  0  0  0  0  0  0  0
  -18.9420  -30.1910   23.9760 C   0  0  0  0  0  3  0  0  0  0  0  0
  -17.6480  -30.7180   24.1420 C   0  0  0  0  0  3  0  0  0  0  0  0
  -16.5270  -29.9820   23.7230 C   0  0  0  0  0  3  0  0  0  0  0  0
  -16.7060  -28.7180   23.1300 C   0  0  0  0  0  3  0  0  0  0  0  0
  -25.8590  -32.5350   23.9120 C   0  0  0  0  0  3  0  0  0  0  0  0
  -26.3530  -31.7710   25.1990 C   0  0  1  0  0  0  0  0  0  0  0  0
  -25.2400  -31.5500   26.2500 C   0  0  0  0  0  1  0  0  0  0  0  0
  -26.9440  -30.3870   24.8320 C   0  0  0  0  0  1  0  0  0  0  0  0
  -27.4940  -32.5650   25.8760 C   0  0  0  0  0  1  0  0  0  0  0  0
  -25.5590  -33.9390   24.2240 N   0  0  0  0  0  0  0  0  0  0  0  0
  -25.9020  -34.9770   23.4480 C   0  0  0  0  0  0  0  0  0  0  0  0
  -26.5760  -34.8530   22.4220 O   0  0  0  0  0  0  0  0  0  0  0  0
  -24.9770  -34.1130   25.0270 H   0  0  0  0  0  0  0  0  0  0  0  0
  -24.1850  -36.7680   23.0480 C   0  0  0  0  0  1  0  0  0  0  0  0
  -25.4170  -36.3740   23.8780 C   0  0  0  0  0  3  0  0  0  0  0  0
  -27.5500  -37.2650   24.7060 C   0  0  0  0  0  1  0  0  0  0  0  0
  -26.4540  -37.4210   23.7560 N   0  0  0  0  0  0  0  0  0  0  0  0
  -26.0510  -38.3470   23.8790 H   0  0  0  0  0  0  0  0  0  0  0  0
  2  3  2  0
  2  4  1  0
  3  5  1  0
  4  7  2  0
  5  6  2  0
  5  1  1  0
  6  9  1  0
  7  6  1  0
  9 18  1  0
 10 18  1  0
 11 16  1  0
 12 13  1  0
 12 11  1  0
 14 13  1  0
 14 23  1  0
 14 15  1  0
 16 10  1  0
 16 15  1  0
 17 10  2  0
 18 19  1  0
 20 21  2  0
 21 40  1  0
 22 21  1  0
 22 25  1  0
 23 20  1  0
 23 24  1  0
 24 22  2  0
 25 26  1  0
 26 27  2  0
 28 31  1  0
 28 27  1  0
 29 28  2  0
 30 29  1  0
 30 25  2  0
 31 32  1  0
 32 33  1  0
 33 34  2  0
 35 34  1  0
 35 39  1  0
 36 35  2  0
 37 32  2  0
 37 36  1  0
 38 37  1  0
 40 41  1  0
 41 44  1  0
 41 43  1  0
 42 40  2  0
 45 46  1  0
 45 20  1  0
 47 45  1  0
 48 50  2  0
 49  1  1  0
 49 48  1  0
 51 49  1  0
 52 48  1  0
 52 53  2  0
 54 56  1  0
 54 53  1  0
 55 66  2  0
 56 61  1  0
 57 65  1  0
 57 67  1  0
 58 64  1  0
 58 60  1  0
 59 65  1  0
 60 61  2  0
 60 59  1  0
 62 56  2  0
 63 62  1  0
 63 58  2  0
 64 57  1  0
 65 55  1  0
 67 69  2  0
 68 67  1  0
 70 68  1  0
 71 80  2  0
 71 76  1  0
 72 68  1  0
 72 76  1  0
 73 72  1  0
 74 75  1  0
 74 73  1  0
 75 71  1  0
 76 77  2  0
 77 78  1  0
 79 78  2  0
 80 79  1  0
 81 55  1  0
 81 86  1  0
 81 82  1  0
 82 85  1  1
 82 83  1  0
 84 82  1  0
 86 89  1  0
 87 91  1  0
 87 86  1  0
 88 87  2  0
 91 90  1  0
 93 91  1  0
 93 94  1  0
 93 92  1  0
M  ISO  4  10 100  18 100  53 101  54 101
M  END
>  <TORSDO>  (67) 
F 20

>  <SCORE>  (67) 
-13.444

>  <name>  (67) 
66

>  <ligand_id>  (67) 
66

>  <original_smiles>  (67) 
[H]C(Oc1c([H])c([H])c2c(c1[H])C([H])([H])N(C(=O)C([H])(N([H])C(=O)C([H])(N([H])C([H])([H])[H])C([H])([H])[H])C(C([H])([H])[H])(C([H])([H])[H])C([H])([H])[H])C([H])(C(=O)N([H])C1([H])c3c([H])c([H])c([H])c([H])c3C([H])([H])C([H])([H])C1([H])[H])C2([H])[H])=C([H])C(=O)N([H])C([H])([H])c1c([H])c([H])c([H])c(Cl)c1C([H])([H])N([H])C(=O)N1C([H])([H])C([H])([H])C([H])([H])C([H])(n2nc(-c3c([H])c([H])c(Oc4c([H])c([H])c(F)c([H])c4F)c([H])c3[H])c(C(=O)N([H])[H])c2N([H])[H])C1([H])[H]

>  <smiles>  (67) 
[H]C(Oc1c([H])c([H])c2c(c1[H])C([H])([H])N(C(=O)C([H])(N([H])C(=O)C([H])(N([H])C([H])([H])[H])C([H])([H])[H])C(C([H])([H])[H])(C([H])([H])[H])C([H])([H])[H])C([H])(C(=O)N([H])C1([H])c3c([H])c([H])c([H])c([H])c3C([H])([H])C([H])([H])C1([H])[H])C2([H])[H])=C([H])C(=O)N([H])C([H])([H])c1c([H])c([H])c([H])c(Cl)c1C([H])([H])N([H])C(=O)N1C([H])([H])C([H])([H])C([H])([H])C([H])(n2nc(-c3c([H])c([H])c(Oc4c([H])c([H])c(F)c([H])c4F)c([H])c3[H])c(C(=O)N([H])[H])c2N([H])[H])C1([H])[H]

$$$$
67:0:0
     RDKit          3D

 97106  0  0  1  0  0  0  0  0999 V2000
  -29.4880  -21.5910   19.3840 C   0  0  0  0  0  2  0  0  0  0  0  0
  -28.8040  -24.0020   19.7590 C   0  0  0  0  0  0  0  0  0  0  0  0
  -29.0330  -23.7050   22.6360 C   0  0  0  0  0  2  0  0  0  0  0  0
  -29.1520  -25.1130   22.0340 C   0  0  0  0  0  2  0  0  0  0  0  0
  -29.5830  -22.6180   21.6880 C   0  0  0  0  0  2  0  0  0  0  0  0
  -28.3810  -25.1970   20.7100 C   0  0  0  0  0  3  0  0  0  0  0  0
  -29.1900  -22.7730   20.2780 N   0  0  0  0  0  0  0  0  0  0  0  0
  -28.7190  -24.1810   18.5390 O   0  0  0  0  0  0  0  0  0  0  0  0
  -28.5240  -26.5650   20.1540 O   0  0  0  0  0  0  0  0  0  0  0  0
  -24.6420  -31.8530   23.1770 C   0  0  0  0  0  0  0  0  0  0  0  0
  -27.3860  -27.3800   20.1370 C   0  0  0  0  0  0  0  0  0  0  0  0
  -23.4880  -30.4490   21.5050 C   0  0  0  0  0  3  0  0  0  0  0  0
  -24.9900  -28.9310   20.0950 C   0  0  0  0  0  0  0  0  0  0  0  0
  -26.0220  -30.8180   21.3650 C   0  0  0  0  0  2  0  0  0  0  0  0
  -26.1380  -29.4460   20.7120 C   0  0  0  0  0  0  0  0  0  0  0  0
  -27.3420  -28.6820   20.7210 C   0  0  0  0  0  3  0  0  0  0  0  0
  -26.2190  -26.9130   19.4990 C   0  0  0  0  0  3  0  0  0  0  0  0
  -25.0320  -27.6700   19.4790 C   0  0  0  0  0  3  0  0  0  0  0  0
  -23.7360  -29.7830   20.1250 C   0  0  0  0  0  2  0  0  0  0  0  0
  -24.7340  -31.0560   22.0730 N   0  0  0  0  0  0  0  0  0  0  0  0
  -23.5460  -32.1090   23.6970 O   0  0  0  0  0  0  0  0  0  0  0  0
  -22.8260  -29.4150   22.4460 C   0  0  0  0  0  0  0  0  0  0  0  0
  -21.4980  -29.2490   22.3230 N   0  0  0  0  0  0  0  0  0  0  0  0
  -23.5050  -28.7660   23.2460 O   0  0  0  0  0  0  0  0  0  0  0  0
  -21.0090  -29.8240   21.6510 H   0  0  0  0  0  0  0  0  0  0  0  0
  -18.1090  -28.1010   22.8510 C   0  0  0  0  0  0  0  0  0  0  0  0
  -20.6770  -28.3010   23.0770 C   0  0  0  0  0  3  0  0  0  0  0  0
  -20.7380  -26.8900   22.4470 C   0  0  0  0  0  2  0  0  0  0  0  0
  -19.6100  -26.6260   21.4460 C   0  0  0  0  0  2  0  0  0  0  0  0
  -18.2450  -26.7730   22.1240 C   0  0  0  0  0  2  0  0  0  0  0  0
  -19.2520  -28.8250   23.2840 C   0  0  0  0  0  0  0  0  0  0  0  0
  -19.0700  -30.0690   23.9260 C   0  0  0  0  0  3  0  0  0  0  0  0
  -17.7790  -30.5900   24.1370 C   0  0  0  0  0  3  0  0  0  0  0  0
  -16.6520  -29.8620   23.7200 C   0  0  0  0  0  3  0  0  0  0  0  0
  -16.8170  -28.6190   23.0820 C   0  0  0  0  0  3  0  0  0  0  0  0
  -25.9040  -32.5000   23.8280 C   0  0  0  0  0  3  0  0  0  0  0  0
  -26.4040  -31.7300   25.1120 C   0  0  1  0  0  0  0  0  0  0  0  0
  -25.2920  -31.4710   26.1540 C   0  0  0  0  0  1  0  0  0  0  0  0
  -27.0170  -30.3630   24.7270 C   0  0  0  0  0  1  0  0  0  0  0  0
  -27.5280  -32.5390   25.8020 C   0  0  0  0  0  1  0  0  0  0  0  0
  -25.5700  -33.8930   24.1570 N   0  0  0  0  0  0  0  0  0  0  0  0
  -25.8980  -34.9530   23.4060 C   0  0  0  0  0  0  0  0  0  0  0  0
  -26.5830  -34.8610   22.3840 O   0  0  0  0  0  0  0  0  0  0  0  0
  -24.9610  -34.0360   24.9490 H   0  0  0  0  0  0  0  0  0  0  0  0
  -24.1600  -36.7300   23.0240 C   0  0  0  0  0  1  0  0  0  0  0  0
  -25.3870  -36.3330   23.8610 C   0  0  0  0  0  3  0  0  0  0  0  0
  -27.4830  -37.2470   24.7570 C   0  0  0  0  0  1  0  0  0  0  0  0
  -26.4140  -37.3950   23.7730 N   0  0  0  0  0  0  0  0  0  0  0  0
  -25.9960  -38.3140   23.8920 H   0  0  0  0  0  0  0  0  0  0  0  0
  -28.5740  -19.3200   20.2950 C   0  0  0  0  0  3  0  0  0  0  0  0
  -28.6710  -17.9170   20.5280 C   0  0  0  0  0  3  0  0  0  0  0  0
  -31.0100  -17.9740   20.0030 C   0  0  0  0  0  3  0  0  0  0  0  0
  -29.6870  -20.0990   19.8870 C   0  0  0  0  0  0  0  0  0  0  0  0
  -30.9330  -19.3920   19.7800 C   0  0  0  0  0  0  0  0  0  0  0  0
  -29.8790  -17.1900   20.3550 C   0  0  0  0  0  0  0  0  0  0  0  0
  -30.6470  -14.7020   20.0960 C   0  0  0  0  0  0  0  0  0  0  0  0
  -30.3910  -12.4870   18.9930 C   0  0  0  0  0  2  0  0  0  0  0  0
  -29.3860  -12.6510   17.8300 C   0  0  0  0  0  2  0  0  0  0  0  0
  -27.9350  -12.4820   18.3290 C   0  0  0  0  0  2  0  0  0  0  0  0
  -27.6440  -13.3090   19.6090 C   0  0  0  0  0  3  0  0  0  0  0  0
  -28.7570  -13.1160   20.6640 C   0  0  0  0  0  2  0  0  0  0  0  0
  -30.0380  -13.4750   20.0320 N   0  0  0  0  0  0  0  0  0  0  0  0
  -31.7810  -14.8770   19.6400 O   0  0  0  0  0  0  0  0  0  0  0  0
  -29.8600  -15.7320   20.5480 N   0  0  0  0  0  0  0  0  0  0  0  0
  -28.9980  -15.3860   20.9420 H   0  0  0  0  0  0  0  0  0  0  0  0
  -25.2920  -13.8980   20.4600 C   0  0  0  0  0  0  0  0  0  0  0  0
  -24.2430  -13.1200   20.8680 C   0  0  0  0  0  0  0  0  0  0  0  0
  -24.6960  -11.7680   20.7800 C   0  0  0  0  0  0  0  0  0  0  0  0
  -26.3200  -13.0200   20.1520 N   0  0  0  0  0  0  0  0  0  0  0  0
  -25.9690  -11.7320   20.4040 N   0  0  0  0  0  0  0  0  0  0  0  0
  -23.9740  -10.5030   20.9760 C   0  0  0  0  0  0  0  0  0  0  0  0
  -24.4170   -9.5390   21.9070 C   0  0  0  0  0  3  0  0  0  0  0  0
  -23.6960   -8.3380   22.0910 C   0  0  0  0  0  3  0  0  0  0  0  0
  -22.5200   -8.0950   21.3440 C   0  0  0  0  0  0  0  0  0  0  0  0
  -22.0970   -9.0480   20.4010 C   0  0  0  0  0  3  0  0  0  0  0  0
  -22.8180  -10.2390   20.2140 C   0  0  0  0  0  3  0  0  0  0  0  0
  -21.7700   -6.9470   21.4370 O   0  0  0  0  0  0  0  0  0  0  0  0
  -21.6970   -6.2300   22.6020 C   0  0  0  0  0  0  0  0  0  0  0  0
  -21.1810   -6.7890   23.7930 C   0  0  0  0  0  3  0  0  0  0  0  0
  -21.0600   -5.9930   24.9490 C   0  0  0  0  0  3  0  0  0  0  0  0
  -21.4430   -4.6390   24.9160 C   0  0  0  0  0  0  0  0  0  0  0  0
  -21.9500   -4.0790   23.7310 C   0  0  0  0  0  3  0  0  0  0  0  0
  -22.0740   -4.8720   22.5770 C   0  0  0  0  0  0  0  0  0  0  0  0
  -22.5450   -4.3210   21.4320 F   0  0  0  0  0  0  0  0  0  0  0  0
  -21.3190   -3.8730   26.0250 F   0  0  0  0  0  0  0  0  0  0  0  0
  -22.8640  -13.5950   21.2240 C   0  0  0  0  0  0  0  0  0  0  0  0
  -22.1730  -12.8730   22.0990 N   0  0  0  0  0  0  0  0  0  0  0  0
  -22.4090  -14.6390   20.7600 O   0  0  0  0  0  0  0  0  0  0  0  0
  -22.5540  -12.0260   22.4940 H   0  0  0  0  0  0  0  0  0  0  0  0
  -21.2490  -13.1700   22.3780 H   0  0  0  0  0  0  0  0  0  0  0  0
  -25.4510  -15.2720   20.3040 N   0  0  0  0  0  0  0  0  0  0  0  0
  -24.6840  -15.9180   20.4530 H   0  0  0  0  0  0  0  0  0  0  0  0
  -26.2600  -15.7110   19.8830 H   0  0  0  0  0  0  0  0  0  0  0  0
  -32.2120  -20.1270   19.3810 C   0  0  1  0  0  0  0  0  0  0  0  0
  -33.2990  -19.3750   19.5620 F   0  0  0  0  0  0  0  0  0  0  0  0
  -32.1580  -20.4630   18.0910 F   0  0  0  0  0  0  0  0  0  0  0  0
  -32.3630  -21.2310   20.1130 F   0  0  0  0  0  0  0  0  0  0  0  0
  1 53  1  0
  1  7  1  0
  2  7  1  0
  2  6  1  0
  4  3  1  0
  5  3  1  0
  6  9  1  0
  6  4  1  0
  7  5  1  0
  8  2  2  0
 10 21  2  0
 11  9  1  0
 11 16  1  0
 12 20  1  0
 12 22  1  0
 13 19  1  0
 13 15  1  0
 14 20  1  0
 15 16  2  0
 15 14  1  0
 17 11  2  0
 18 17  1  0
 18 13  2  0
 19 12  1  0
 20 10  1  0
 22 24  2  0
 23 22  1  0
 25 23  1  0
 26 35  2  0
 26 31  1  0
 27 23  1  0
 27 31  1  0
 28 27  1  0
 29 30  1  0
 29 28  1  0
 30 26  1  0
 31 32  2  0
 32 33  1  0
 34 33  2  0
 35 34  1  0
 36 10  1  0
 36 41  1  0
 36 37  1  0
 37 40  1  1
 37 38  1  0
 39 37  1  0
 41 44  1  0
 42 46  1  0
 42 41  1  0
 43 42  2  0
 46 45  1  0
 48 46  1  0
 48 49  1  0
 48 47  1  0
 50 51  1  0
 52 55  1  0
 53 50  2  0
 54 53  1  0
 54 52  2  0
 55 51  2  0
 55 64  1  0
 56 64  1  0
 57 62  1  0
 58 59  1  0
 58 57  1  0
 60 59  1  0
 60 69  1  0
 60 61  1  0
 62 56  1  0
 62 61  1  0
 63 56  2  0
 64 65  1  0
 66 67  2  0
 67 86  1  0
 68 67  1  0
 68 71  1  0
 69 70  1  0
 69 66  1  0
 70 68  2  0
 71 72  1  0
 72 73  2  0
 74 77  1  0
 74 73  1  0
 75 74  2  0
 76 75  1  0
 76 71  2  0
 77 78  1  0
 78 79  1  0
 79 80  2  0
 81 80  1  0
 81 85  1  0
 82 81  2  0
 83 78  2  0
 83 82  1  0
 84 83  1  0
 86 87  1  0
 87 90  1  0
 87 89  1  0
 88 86  2  0
 91 92  1  0
 91 66  1  0
 93 91  1  0
 94 95  1  6
 94 54  1  0
 94 97  1  0
 96 94  1  0
M  ISO  4   6 101   9 101  56 100  64 100
M  END
>  <TORSDO>  (68) 
F 19

>  <SCORE>  (68) 
-14.545

>  <name>  (68) 
67

>  <ligand_id>  (68) 
67

>  <original_smiles>  (68) 
[H]c1c([H])c([H])c2c(c1[H])C([H])([H])C([H])([H])C([H])([H])C2([H])N([H])C(=O)C1([H])N(C(=O)C([H])(N([H])C(=O)C([H])(N([H])C([H])([H])[H])C([H])([H])[H])C(C([H])([H])[H])(C([H])([H])[H])C([H])([H])[H])C([H])([H])c2c([H])c(OC3([H])C(=O)N(C([H])([H])c4c([H])c([H])c(N([H])C(=O)N5C([H])([H])C([H])([H])C([H])([H])C([H])(n6nc(-c7c([H])c([H])c(Oc8c([H])c([H])c(F)c([H])c8F)c([H])c7[H])c(C(=O)N([H])[H])c6N([H])[H])C5([H])[H])c([H])c4C(F)(F)F)C([H])([H])C([H])([H])C3([H])[H])c([H])c([H])c2C1([H])[H]

>  <smiles>  (68) 
[H]c1c([H])c([H])c2c(c1[H])C([H])([H])C([H])([H])C([H])([H])C2([H])N([H])C(=O)C1([H])N(C(=O)C([H])(N([H])C(=O)C([H])(N([H])C([H])([H])[H])C([H])([H])[H])C(C([H])([H])[H])(C([H])([H])[H])C([H])([H])[H])C([H])([H])c2c([H])c(OC3([H])C(=O)N(C([H])([H])c4c([H])c([H])c(N([H])C(=O)N5C([H])([H])C([H])([H])C([H])([H])C([H])(n6nc(-c7c([H])c([H])c(Oc8c([H])c([H])c(F)c([H])c8F)c([H])c7[H])c(C(=O)N([H])[H])c6N([H])[H])C5([H])[H])c([H])c4C(F)(F)F)C([H])([H])C([H])([H])C3([H])[H])c([H])c([H])c2C1([H])[H]

$$$$
68:0:0
     RDKit          3D

 95103  0  0  1  0  0  0  0  0999 V2000
  -31.3630  -19.4060   19.4280 C   0  0  0  0  0  3  0  0  0  0  0  0
  -31.3430  -18.0130   19.7340 C   0  0  0  0  0  3  0  0  0  0  0  0
  -29.0590  -18.2390   20.4250 C   0  0  0  0  0  3  0  0  0  0  0  0
  -30.2450  -20.2710   19.6170 C   0  0  0  0  0  0  0  0  0  0  0  0
  -29.0650  -19.6450   20.1300 C   0  0  0  0  0  0  0  0  0  0  0  0
  -30.1840  -17.3840   20.2560 C   0  0  0  0  0  0  0  0  0  0  0  0
  -30.8760  -14.8700   20.3790 C   0  0  0  0  0  0  0  0  0  0  0  0
  -30.7220  -12.5100   19.6120 C   0  0  0  0  0  2  0  0  0  0  0  0
  -29.8430  -12.4720   18.3420 C   0  0  0  0  0  2  0  0  0  0  0  0
  -28.3500  -12.3550   18.7100 C   0  0  0  0  0  2  0  0  0  0  0  0
  -27.9250  -13.3740   19.8010 C   0  0  0  0  0  3  0  0  0  0  0  0
  -28.9220  -13.3750   20.9830 C   0  0  0  0  0  2  0  0  0  0  0  0
  -30.2620  -13.6450   20.4380 N   0  0  0  0  0  0  0  0  0  0  0  0
  -32.0540  -14.9760   20.0220 O   0  0  0  0  0  0  0  0  0  0  0  0
  -30.0660  -15.9580   20.5880 N   0  0  0  0  0  0  0  0  0  0  0  0
  -29.1670  -15.6900   20.9580 H   0  0  0  0  0  0  0  0  0  0  0  0
  -25.5440  -14.0760   20.4640 C   0  0  0  0  0  0  0  0  0  0  0  0
  -24.4300  -13.3490   20.7910 C   0  0  0  0  0  0  0  0  0  0  0  0
  -24.8280  -11.9770   20.7460 C   0  0  0  0  0  0  0  0  0  0  0  0
  -26.5520  -13.1500   20.2430 N   0  0  0  0  0  0  0  0  0  0  0  0
  -26.1230  -11.8820   20.4720 N   0  0  0  0  0  0  0  0  0  0  0  0
  -24.0360  -10.7490   20.8910 C   0  0  0  0  0  0  0  0  0  0  0  0
  -24.4320   -9.7160   21.7680 C   0  0  0  0  0  3  0  0  0  0  0  0
  -23.6440   -8.5520   21.9050 C   0  0  0  0  0  3  0  0  0  0  0  0
  -22.4480   -8.4140   21.1610 C   0  0  0  0  0  0  0  0  0  0  0  0
  -22.0710   -9.4350   20.2720 C   0  0  0  0  0  3  0  0  0  0  0  0
  -22.8580  -10.5910   20.1340 C   0  0  0  0  0  3  0  0  0  0  0  0
  -21.6340   -7.3080   21.2100 O   0  0  0  0  0  0  0  0  0  0  0  0
  -21.6070   -6.4800   22.3030 C   0  0  0  0  0  0  0  0  0  0  0  0
  -21.2890   -6.9590   23.5930 C   0  0  0  0  0  3  0  0  0  0  0  0
  -21.2060   -6.0630   24.6760 C   0  0  0  0  0  3  0  0  0  0  0  0
  -21.4310   -4.6880   24.4720 C   0  0  0  0  0  0  0  0  0  0  0  0
  -21.7410   -4.2080   23.1880 C   0  0  0  0  0  3  0  0  0  0  0  0
  -21.8270   -5.1020   22.1060 C   0  0  0  0  0  0  0  0  0  0  0  0
  -22.1060   -4.6310   20.8670 F   0  0  0  0  0  0  0  0  0  0  0  0
  -21.3420   -3.8250   25.5110 F   0  0  0  0  0  0  0  0  0  0  0  0
  -23.0510  -13.8900   21.0360 C   0  0  0  0  0  0  0  0  0  0  0  0
  -22.2720  -13.2200   21.8780 N   0  0  0  0  0  0  0  0  0  0  0  0
  -22.6730  -14.9380   20.5170 O   0  0  0  0  0  0  0  0  0  0  0  0
  -22.5890  -12.3690   22.3200 H   0  0  0  0  0  0  0  0  0  0  0  0
  -21.3450  -13.5650   22.0880 H   0  0  0  0  0  0  0  0  0  0  0  0
  -25.7780  -15.4410   20.3160 N   0  0  0  0  0  0  0  0  0  0  0  0
  -25.0350  -16.1250   20.4060 H   0  0  0  0  0  0  0  0  0  0  0  0
  -26.6460  -15.8430   19.9850 H   0  0  0  0  0  0  0  0  0  0  0  0
  -27.7910  -20.4520   20.4050 C   0  0  2  0  0  0  0  0  0  0  0  0
  -26.7770  -19.6660   20.7790 F   0  0  0  0  0  0  0  0  0  0  0  0
  -27.3840  -21.0950   19.3080 F   0  0  0  0  0  0  0  0  0  0  0  0
  -28.0620  -21.6350   21.7110 Cl  0  0  0  0  0  0  0  0  0  0  0  0
  -30.4740  -21.8220   19.3880 C   0  0  0  0  0  2  0  0  0  0  0  0
  -29.5400  -24.1960   19.1330 C   0  0  0  0  0  0  0  0  0  0  0  0
  -29.3810  -22.8350   19.1990 N   0  0  0  0  0  0  0  0  0  0  0  0
  -30.6540  -24.7080   19.2580 O   0  0  0  0  0  0  0  0  0  0  0  0
  -28.4370  -22.4630   19.1400 H   0  0  0  0  0  0  0  0  0  0  0  0
  -28.3010  -25.1310   18.8580 C   0  0  0  0  0  2  0  0  0  0  0  0
  -28.4780  -26.5810   19.1200 O   0  0  0  0  0  0  0  0  0  0  0  0
  -24.5910  -31.4080   22.8390 C   0  0  0  0  0  0  0  0  0  0  0  0
  -27.3120  -27.3630   19.2090 C   0  0  0  0  0  0  0  0  0  0  0  0
  -23.3970  -30.1380   21.0920 C   0  0  0  0  0  3  0  0  0  0  0  0
  -24.8680  -28.8340   19.4620 C   0  0  0  0  0  0  0  0  0  0  0  0
  -25.9110  -30.6090   20.8680 C   0  0  0  0  0  2  0  0  0  0  0  0
  -26.0350  -29.3160   20.0690 C   0  0  0  0  0  0  0  0  0  0  0  0
  -27.2590  -28.5960   19.9310 C   0  0  0  0  0  3  0  0  0  0  0  0
  -26.1130  -26.9340   18.5900 C   0  0  0  0  0  3  0  0  0  0  0  0
  -24.9090  -27.6490   18.7170 C   0  0  0  0  0  3  0  0  0  0  0  0
  -23.5940  -29.6320   19.6390 C   0  0  0  0  0  2  0  0  0  0  0  0
  -24.6530  -30.7290   21.6570 N   0  0  0  0  0  0  0  0  0  0  0  0
  -23.5140  -31.5680   23.4340 O   0  0  0  0  0  0  0  0  0  0  0  0
  -22.8190  -28.9870   21.9510 C   0  0  0  0  0  0  0  0  0  0  0  0
  -21.4970  -28.7730   21.8630 N   0  0  0  0  0  0  0  0  0  0  0  0
  -23.5600  -28.2970   22.6570 O   0  0  0  0  0  0  0  0  0  0  0  0
  -20.9560  -29.3900   21.2740 H   0  0  0  0  0  0  0  0  0  0  0  0
  -18.1860  -27.4100   22.3840 C   0  0  0  0  0  0  0  0  0  0  0  0
  -20.7480  -27.7190   22.5510 C   0  0  0  0  0  3  0  0  0  0  0  0
  -20.8550  -26.3730   21.7960 C   0  0  0  0  0  2  0  0  0  0  0  0
  -19.7070  -26.1410   20.8090 C   0  0  0  0  0  2  0  0  0  0  0  0
  -18.3600  -26.1590   21.5370 C   0  0  0  0  0  2  0  0  0  0  0  0
  -19.3070  -28.1500   22.8460 C   0  0  0  0  0  0  0  0  0  0  0  0
  -19.0890  -29.3220   23.6010 C   0  0  0  0  0  3  0  0  0  0  0  0
  -17.7830  -29.7560   23.8990 C   0  0  0  0  0  3  0  0  0  0  0  0
  -16.6770  -29.0110   23.4510 C   0  0  0  0  0  3  0  0  0  0  0  0
  -16.8800  -27.8410   22.6980 C   0  0  0  0  0  3  0  0  0  0  0  0
  -25.8630  -32.0320   23.4880 C   0  0  0  0  0  3  0  0  0  0  0  0
  -26.4530  -31.1580   24.6630 C   0  0  1  0  0  0  0  0  0  0  0  0
  -25.4090  -30.7660   25.7340 C   0  0  0  0  0  1  0  0  0  0  0  0
  -27.0800  -29.8550   24.1130 C   0  0  0  0  0  1  0  0  0  0  0  0
  -27.5910  -31.9320   25.3690 C   0  0  0  0  0  1  0  0  0  0  0  0
  -25.4990  -33.3710   23.9730 N   0  0  0  0  0  0  0  0  0  0  0  0
  -25.7660  -34.5150   23.3270 C   0  0  0  0  0  0  0  0  0  0  0  0
  -26.4150  -34.5540   22.2770 O   0  0  0  0  0  0  0  0  0  0  0  0
  -24.9170  -33.4110   24.7970 H   0  0  0  0  0  0  0  0  0  0  0  0
  -23.9470  -36.2480   23.2150 C   0  0  0  0  0  1  0  0  0  0  0  0
  -25.2320  -35.8210   23.9430 C   0  0  0  0  0  3  0  0  0  0  0  0
  -27.3480  -36.7230   24.8010 C   0  0  0  0  0  1  0  0  0  0  0  0
  -26.2090  -36.9310   23.9110 N   0  0  0  0  0  0  0  0  0  0  0  0
  -25.7640  -37.8090   24.1670 H   0  0  0  0  0  0  0  0  0  0  0  0
  1  4  2  0
  1  2  1  0
  2  6  2  0
  4  5  1  0
  5 45  1  0
  5  3  2  0
  6  3  1  0
  6 15  1  0
  7 13  1  0
  7 15  1  0
  8 13  1  0
  9 10  1  0
  9  8  1  0
 11 10  1  0
 11 20  1  0
 11 12  1  0
 13 12  1  0
 14  7  2  0
 15 16  1  0
 17 18  2  0
 18 37  1  0
 19 18  1  0
 19 22  1  0
 20 17  1  0
 20 21  1  0
 21 19  2  0
 22 23  1  0
 23 24  2  0
 25 28  1  0
 25 24  1  0
 26 25  2  0
 27 26  1  0
 27 22  2  0
 28 29  1  0
 29 30  1  0
 30 31  2  0
 32 31  1  0
 32 36  1  0
 33 32  2  0
 34 29  2  0
 34 33  1  0
 35 34  1  0
 37 38  1  0
 38 41  1  0
 38 40  1  0
 39 37  2  0
 42 43  1  0
 42 17  1  0
 44 42  1  0
 45 46  1  1
 45 48  1  0
 47 45  1  0
 49  4  1  0
 50 51  1  0
 50 52  2  0
 51 49  1  0
 53 51  1  0
 54 55  1  0
 54 50  1  0
 55 57  1  0
 56 67  2  0
 57 62  1  0
 58 66  1  0
 58 68  1  0
 59 65  1  0
 59 61  1  0
 60 66  1  0
 61 60  1  0
 62 61  2  0
 63 64  1  0
 63 57  2  0
 64 59  2  0
 65 58  1  0
 66 56  1  0
 68 70  2  0
 69 68  1  0
 71 69  1  0
 72 81  2  0
 72 77  1  0
 73 69  1  0
 73 77  1  0
 74 73  1  0
 75 76  1  0
 75 74  1  0
 76 72  1  0
 77 78  2  0
 78 79  1  0
 80 79  2  0
 81 80  1  0
 82 56  1  0
 82 87  1  0
 82 83  1  0
 83 86  1  1
 83 84  1  0
 85 83  1  0
 87 90  1  0
 88 92  1  0
 88 87  1  0
 89 88  2  0
 92 91  1  0
 94 92  1  0
 94 95  1  0
 94 93  1  0
M  ISO  4   7 100  15 100  54 101  55 101
M  END
>  <TORSDO>  (69) 
F 20

>  <SCORE>  (69) 
-11.428

>  <name>  (69) 
68

>  <ligand_id>  (69) 
68

>  <original_smiles>  (69) 
[H]c1c([H])c([H])c2c(c1[H])C([H])([H])C([H])([H])C([H])([H])C2([H])N([H])C(=O)C1([H])N(C(=O)C([H])(N([H])C(=O)C([H])(N([H])C([H])([H])[H])C([H])([H])[H])C(C([H])([H])[H])(C([H])([H])[H])C([H])([H])[H])C([H])([H])c2c([H])c(OC([H])([H])C(=O)N([H])C([H])([H])c3c([H])c([H])c(N([H])C(=O)N4C([H])([H])C([H])([H])C([H])([H])C([H])(n5nc(-c6c([H])c([H])c(Oc7c([H])c([H])c(F)c([H])c7F)c([H])c6[H])c(C(=O)N([H])[H])c5N([H])[H])C4([H])[H])c([H])c3C(F)(F)Cl)c([H])c([H])c2C1([H])[H]

>  <smiles>  (69) 
[H]c1c([H])c([H])c2c(c1[H])C([H])([H])C([H])([H])C([H])([H])C2([H])N([H])C(=O)C1([H])N(C(=O)C([H])(N([H])C(=O)C([H])(N([H])C([H])([H])[H])C([H])([H])[H])C(C([H])([H])[H])(C([H])([H])[H])C([H])([H])[H])C([H])([H])c2c([H])c(OC([H])([H])C(=O)N([H])C([H])([H])c3c([H])c([H])c(N([H])C(=O)N4C([H])([H])C([H])([H])C([H])([H])C([H])(n5nc(-c6c([H])c([H])c(Oc7c([H])c([H])c(F)c([H])c7F)c([H])c6[H])c(C(=O)N([H])[H])c5N([H])[H])C4([H])[H])c([H])c3C(F)(F)Cl)c([H])c([H])c2C1([H])[H]

$$$$
69:0:0
     RDKit          3D

 94102  0  0  1  0  0  0  0  0999 V2000
  -28.6830  -21.1830   20.5890 C   0  0  2  0  0  0  0  0  0  0  0  0
  -28.2670  -21.2150   21.8550 F   0  0  0  0  0  0  0  0  0  0  0  0
  -27.2820  -20.7040   19.5890 Cl  0  0  0  0  0  0  0  0  0  0  0  0
  -32.0780  -19.1690   20.7790 C   0  0  0  0  0  3  0  0  0  0  0  0
  -31.6830  -17.8210   20.7030 C   0  0  0  0  0  3  0  0  0  0  0  0
  -29.3910  -18.5660   20.5170 C   0  0  0  0  0  3  0  0  0  0  0  0
  -31.1540  -20.2390   20.7280 C   0  0  0  0  0  0  0  0  0  0  0  0
  -29.7630  -19.9850   20.5700 C   0  0  0  0  0  0  0  0  0  0  0  0
  -30.3270  -17.4470   20.5690 C   0  0  0  0  0  0  0  0  0  0  0  0
  -31.7150  -21.6400   20.9060 C   0  0  0  0  0  1  0  0  0  0  0  0
  -30.6810  -14.8550   20.2280 C   0  0  0  0  0  0  0  0  0  0  0  0
  -30.4280  -12.6150   19.1440 C   0  0  0  0  0  2  0  0  0  0  0  0
  -29.4590  -12.7210   17.9490 C   0  0  0  0  0  2  0  0  0  0  0  0
  -28.0040  -12.5280   18.4170 C   0  0  0  0  0  2  0  0  0  0  0  0
  -27.6620  -13.3810   19.6670 C   0  0  0  0  0  3  0  0  0  0  0  0
  -28.7530  -13.2740   20.7560 C   0  0  0  0  0  2  0  0  0  0  0  0
  -30.0300  -13.6430   20.1350 N   0  0  0  0  0  0  0  0  0  0  0  0
  -31.8540  -14.9200   19.8520 O   0  0  0  0  0  0  0  0  0  0  0  0
  -29.9440  -16.0010   20.5320 N   0  0  0  0  0  0  0  0  0  0  0  0
  -28.9720  -15.8130   20.7160 H   0  0  0  0  0  0  0  0  0  0  0  0
  -25.2860  -13.9360   20.4560 C   0  0  0  0  0  0  0  0  0  0  0  0
  -24.2390  -13.1470   20.8430 C   0  0  0  0  0  0  0  0  0  0  0  0
  -24.7180  -11.8020   20.7910 C   0  0  0  0  0  0  0  0  0  0  0  0
  -26.3350  -13.0720   20.1890 N   0  0  0  0  0  0  0  0  0  0  0  0
  -26.0020  -11.7820   20.4540 N   0  0  0  0  0  0  0  0  0  0  0  0
  -24.0110  -10.5290   20.9850 C   0  0  0  0  0  0  0  0  0  0  0  0
  -24.4560   -9.5710   21.9240 C   0  0  0  0  0  3  0  0  0  0  0  0
  -23.7480   -8.3640   22.1060 C   0  0  0  0  0  3  0  0  0  0  0  0
  -22.5800   -8.1050   21.3490 C   0  0  0  0  0  0  0  0  0  0  0  0
  -22.1550   -9.0510   20.3990 C   0  0  0  0  0  3  0  0  0  0  0  0
  -22.8640  -10.2500   20.2160 C   0  0  0  0  0  3  0  0  0  0  0  0
  -21.8420   -6.9500   21.4400 O   0  0  0  0  0  0  0  0  0  0  0  0
  -21.7810   -6.2260   22.6040 C   0  0  0  0  0  0  0  0  0  0  0  0
  -21.2830   -6.7830   23.8030 C   0  0  0  0  0  3  0  0  0  0  0  0
  -21.1730   -5.9830   24.9580 C   0  0  0  0  0  3  0  0  0  0  0  0
  -21.5470   -4.6260   24.9140 C   0  0  0  0  0  0  0  0  0  0  0  0
  -22.0360   -4.0690   23.7200 C   0  0  0  0  0  3  0  0  0  0  0  0
  -22.1490   -4.8660   22.5670 C   0  0  0  0  0  0  0  0  0  0  0  0
  -22.6010   -4.3180   21.4130 F   0  0  0  0  0  0  0  0  0  0  0  0
  -21.4330   -3.8560   26.0210 F   0  0  0  0  0  0  0  0  0  0  0  0
  -22.8420  -13.6050   21.1490 C   0  0  0  0  0  0  0  0  0  0  0  0
  -22.1390  -12.8890   22.0200 N   0  0  0  0  0  0  0  0  0  0  0  0
  -22.3840  -14.6320   20.6510 O   0  0  0  0  0  0  0  0  0  0  0  0
  -22.5230  -12.0560   22.4420 H   0  0  0  0  0  0  0  0  0  0  0  0
  -21.2040  -13.1780   22.2680 H   0  0  0  0  0  0  0  0  0  0  0  0
  -25.4300  -15.3110   20.2830 N   0  0  0  0  0  0  0  0  0  0  0  0
  -24.6540  -15.9520   20.4040 H   0  0  0  0  0  0  0  0  0  0  0  0
  -26.2540  -15.7590   19.9040 H   0  0  0  0  0  0  0  0  0  0  0  0
  -28.4460  -23.8420   20.5370 C   0  0  0  0  0  0  0  0  0  0  0  0
  -28.9870  -22.6200   20.1390 N   0  0  0  0  0  0  0  0  0  0  0  0
  -27.7620  -23.9320   21.5590 O   0  0  0  0  0  0  0  0  0  0  0  0
  -29.5640  -22.6640   19.3140 H   0  0  0  0  0  0  0  0  0  0  0  0
  -28.6310  -25.1710   19.6560 C   0  0  0  0  0  2  0  0  0  0  0  0
  -28.4710  -26.5230   20.3010 O   0  0  0  0  0  0  0  0  0  0  0  0
  -24.6440  -31.9140   23.2380 C   0  0  0  0  0  0  0  0  0  0  0  0
  -27.3330  -27.3560   20.1950 C   0  0  0  0  0  0  0  0  0  0  0  0
  -23.4720  -30.5120   21.5770 C   0  0  0  0  0  3  0  0  0  0  0  0
  -24.9540  -28.9750   20.1560 C   0  0  0  0  0  0  0  0  0  0  0  0
  -26.0120  -30.8450   21.4260 C   0  0  0  0  0  2  0  0  0  0  0  0
  -26.1090  -29.4650   20.7740 C   0  0  0  0  0  0  0  0  0  0  0  0
  -27.2950  -28.6650   20.7860 C   0  0  0  0  0  3  0  0  0  0  0  0
  -26.1510  -26.9280   19.5500 C   0  0  0  0  0  3  0  0  0  0  0  0
  -24.9800  -27.7160   19.5330 C   0  0  0  0  0  3  0  0  0  0  0  0
  -23.7080  -29.8390   20.1960 C   0  0  0  0  0  2  0  0  0  0  0  0
  -24.7280  -31.1090   22.1370 N   0  0  0  0  0  0  0  0  0  0  0  0
  -23.5510  -32.1780   23.7610 O   0  0  0  0  0  0  0  0  0  0  0  0
  -22.8070  -29.4890   22.5290 C   0  0  0  0  0  0  0  0  0  0  0  0
  -21.4790  -29.3160   22.4020 N   0  0  0  0  0  0  0  0  0  0  0  0
  -23.4840  -28.8540   23.3400 O   0  0  0  0  0  0  0  0  0  0  0  0
  -20.9920  -29.8850   21.7240 H   0  0  0  0  0  0  0  0  0  0  0  0
  -18.0970  -28.1360   22.9080 C   0  0  0  0  0  0  0  0  0  0  0  0
  -20.6600  -28.3700   23.1620 C   0  0  0  0  0  3  0  0  0  0  0  0
  -20.7450  -26.9480   22.5600 C   0  0  0  0  0  2  0  0  0  0  0  0
  -19.6320  -26.6540   21.5480 C   0  0  0  0  0  2  0  0  0  0  0  0
  -18.2570  -26.7980   22.2060 C   0  0  0  0  0  2  0  0  0  0  0  0
  -19.2250  -28.8810   23.3430 C   0  0  0  0  0  0  0  0  0  0  0  0
  -19.0200  -30.1350   23.9600 C   0  0  0  0  0  3  0  0  0  0  0  0
  -17.7190  -30.6410   24.1480 C   0  0  0  0  0  3  0  0  0  0  0  0
  -16.6060  -29.8920   23.7270 C   0  0  0  0  0  3  0  0  0  0  0  0
  -16.7960  -28.6420   23.1130 C   0  0  0  0  0  3  0  0  0  0  0  0
  -25.9120  -32.5570   23.8790 C   0  0  0  0  0  3  0  0  0  0  0  0
  -26.4110  -31.7960   25.1690 C   0  0  1  0  0  0  0  0  0  0  0  0
  -25.3020  -31.5550   26.2200 C   0  0  0  0  0  1  0  0  0  0  0  0
  -27.0080  -30.4210   24.7910 C   0  0  0  0  0  1  0  0  0  0  0  0
  -27.5460  -32.6000   25.8460 C   0  0  0  0  0  1  0  0  0  0  0  0
  -25.5890  -33.9560   24.1990 N   0  0  0  0  0  0  0  0  0  0  0  0
  -25.9210  -35.0090   23.4390 C   0  0  0  0  0  0  0  0  0  0  0  0
  -26.5980  -34.9030   22.4130 O   0  0  0  0  0  0  0  0  0  0  0  0
  -24.9880  -34.1110   24.9950 H   0  0  0  0  0  0  0  0  0  0  0  0
  -24.1830  -36.7920   23.0710 C   0  0  0  0  0  1  0  0  0  0  0  0
  -25.4240  -36.3970   23.8880 C   0  0  0  0  0  3  0  0  0  0  0  0
  -27.5450  -37.3040   24.7310 C   0  0  0  0  0  1  0  0  0  0  0  0
  -26.4510  -37.4560   23.7750 N   0  0  0  0  0  0  0  0  0  0  0  0
  -26.0380  -38.3730   23.9120 H   0  0  0  0  0  0  0  0  0  0  0  0
  1  3  1  0
  1  2  1  1
  5  4  2  0
  6  9  2  0
  6  8  1  0
  7  4  1  0
  7 10  1  0
  8  1  1  0
  8  7  2  0
  9  5  1  0
 11 19  1  0
 12 17  1  0
 13 14  1  0
 13 12  1  0
 15 14  1  0
 15 24  1  0
 15 16  1  0
 17 11  1  0
 17 16  1  0
 18 11  2  0
 19  9  1  0
 19 20  1  0
 21 22  2  0
 22 41  1  0
 23 22  1  0
 23 26  1  0
 24 25  1  0
 24 21  1  0
 25 23  2  0
 26 27  1  0
 27 28  2  0
 29 32  1  0
 29 28  1  0
 30 29  2  0
 31 30  1  0
 31 26  2  0
 32 33  1  0
 33 34  1  0
 34 35  2  0
 36 35  1  0
 36 40  1  0
 37 36  2  0
 38 33  2  0
 38 37  1  0
 39 38  1  0
 41 42  1  0
 42 45  1  0
 42 44  1  0
 43 41  2  0
 46 47  1  0
 46 21  1  0
 48 46  1  0
 49 51  2  0
 50 49  1  0
 50  1  1  0
 52 50  1  0
 53 54  1  0
 53 49  1  0
 55 66  2  0
 56 54  1  0
 56 61  1  0
 57 65  1  0
 57 67  1  0
 58 64  1  0
 58 60  1  0
 59 65  1  0
 60 61  2  0
 60 59  1  0
 62 56  2  0
 63 62  1  0
 63 58  2  0
 64 57  1  0
 65 55  1  0
 67 69  2  0
 68 67  1  0
 70 68  1  0
 71 80  2  0
 71 76  1  0
 72 68  1  0
 72 76  1  0
 73 72  1  0
 74 75  1  0
 74 73  1  0
 75 71  1  0
 76 77  2  0
 77 78  1  0
 79 78  2  0
 80 79  1  0
 81 55  1  0
 81 86  1  0
 81 82  1  0
 82 85  1  1
 82 83  1  0
 84 82  1  0
 86 89  1  0
 87 91  1  0
 87 86  1  0
 88 87  2  0
 91 90  1  0
 93 91  1  0
 93 94  1  0
 93 92  1  0
M  ISO  4  11 100  19 100  53 101  54 101
M  END
>  <TORSDO>  (70) 
F 19

>  <SCORE>  (70) 
-14.544

>  <name>  (70) 
69

>  <ligand_id>  (70) 
69

>  <original_smiles>  (70) 
[H]c1c([H])c([H])c2c(c1[H])C([H])([H])C([H])([H])C([H])([H])C2([H])N([H])C(=O)C1([H])N(C(=O)C([H])(N([H])C(=O)C([H])(N([H])C([H])([H])[H])C([H])([H])[H])C(C([H])([H])[H])(C([H])([H])[H])C([H])([H])[H])C([H])([H])c2c([H])c(OC([H])([H])C(=O)N([H])C(F)(Cl)c3c([H])c(N([H])C(=O)N4C([H])([H])C([H])([H])C([H])([H])C([H])(n5nc(-c6c([H])c([H])c(Oc7c([H])c([H])c(F)c([H])c7F)c([H])c6[H])c(C(=O)N([H])[H])c5N([H])[H])C4([H])[H])c([H])c([H])c3C([H])([H])[H])c([H])c([H])c2C1([H])[H]

>  <smiles>  (70) 
[H]c1c([H])c([H])c2c(c1[H])C([H])([H])C([H])([H])C([H])([H])C2([H])N([H])C(=O)C1([H])N(C(=O)C([H])(N([H])C(=O)C([H])(N([H])C([H])([H])[H])C([H])([H])[H])C(C([H])([H])[H])(C([H])([H])[H])C([H])([H])[H])C([H])([H])c2c([H])c(OC([H])([H])C(=O)N([H])C(F)(Cl)c3c([H])c(N([H])C(=O)N4C([H])([H])C([H])([H])C([H])([H])C([H])(n5nc(-c6c([H])c([H])c(Oc7c([H])c([H])c(F)c([H])c7F)c([H])c6[H])c(C(=O)N([H])[H])c5N([H])[H])C4([H])[H])c([H])c([H])c3C([H])([H])[H])c([H])c([H])c2C1([H])[H]

$$$$
70:0:0
     RDKit          3D

 95104  0  0  1  0  0  0  0  0999 V2000
  -28.6110  -24.0300   20.6600 C   0  0  0  0  0  0  0  0  0  0  0  0
  -28.5870  -24.1910   21.9970 C   0  0  0  0  0  2  0  0  0  0  0  0
  -29.7070  -23.7460   17.9470 C   0  0  0  0  0  2  0  0  0  0  0  0
  -29.5340  -25.1440   18.5860 C   0  0  0  0  0  2  0  0  0  0  0  0
  -28.7750  -22.6530   18.5280 C   0  0  0  0  0  2  0  0  0  0  0  0
  -28.4170  -25.1970   19.6370 C   0  0  0  0  0  3  0  0  0  0  0  0
  -28.7890  -22.6200   20.0140 N   0  0  1  0  0  4  0  0  0  0  0  0
  -27.9500  -22.1040   20.2370 H   0  0  0  0  0  0  0  0  0  0  0  0
  -28.3580  -26.5760   20.1830 O   0  0  0  0  0  0  0  0  0  0  0  0
  -24.6040  -31.9110   23.2410 C   0  0  0  0  0  0  0  0  0  0  0  0
  -27.2050  -27.3780   20.1330 C   0  0  0  0  0  0  0  0  0  0  0  0
  -23.3930  -30.5230   21.6000 C   0  0  0  0  0  3  0  0  0  0  0  0
  -24.8340  -28.9880   20.1580 C   0  0  0  0  0  0  0  0  0  0  0  0
  -25.9330  -30.8430   21.4090 C   0  0  0  0  0  2  0  0  0  0  0  0
  -26.0060  -29.4720   20.7510 C   0  0  0  0  0  0  0  0  0  0  0  0
  -27.1890  -28.6770   20.7320 C   0  0  0  0  0  3  0  0  0  0  0  0
  -26.0010  -26.9490   19.5210 C   0  0  0  0  0  3  0  0  0  0  0  0
  -24.8320  -27.7310   19.5410 C   0  0  0  0  0  3  0  0  0  0  0  0
  -23.6000  -29.8610   20.2140 C   0  0  0  0  0  2  0  0  0  0  0  0
  -24.6620  -31.1100   22.1390 N   0  0  0  0  0  0  0  0  0  0  0  0
  -23.5220  -32.1840   23.7820 O   0  0  0  0  0  0  0  0  0  0  0  0
  -22.7390  -29.4960   22.5540 C   0  0  0  0  0  0  0  0  0  0  0  0
  -21.4180  -29.2940   22.4110 N   0  0  0  0  0  0  0  0  0  0  0  0
  -23.4190  -28.8840   23.3820 O   0  0  0  0  0  0  0  0  0  0  0  0
  -20.9280  -29.8410   21.7170 H   0  0  0  0  0  0  0  0  0  0  0  0
  -18.0650  -28.0130   22.8490 C   0  0  0  0  0  0  0  0  0  0  0  0
  -20.6070  -28.3480   23.1780 C   0  0  0  0  0  3  0  0  0  0  0  0
  -20.7630  -26.9100   22.6300 C   0  0  0  0  0  2  0  0  0  0  0  0
  -19.6970  -26.5390   21.5950 C   0  0  0  0  0  2  0  0  0  0  0  0
  -18.2950  -26.6580   22.2010 C   0  0  0  0  0  2  0  0  0  0  0  0
  -19.1510  -28.8130   23.2930 C   0  0  0  0  0  0  0  0  0  0  0  0
  -18.8820  -30.0790   23.8570 C   0  0  0  0  0  3  0  0  0  0  0  0
  -17.5610  -30.5470   23.9800 C   0  0  0  0  0  3  0  0  0  0  0  0
  -16.4890  -29.7450   23.5500 C   0  0  0  0  0  3  0  0  0  0  0  0
  -16.7420  -28.4800   22.9920 C   0  0  0  0  0  3  0  0  0  0  0  0
  -25.8890  -32.5420   23.8600 C   0  0  0  0  0  3  0  0  0  0  0  0
  -25.5890  -33.9480   24.1650 N   0  0  0  0  0  0  0  0  0  0  0  0
  -25.9170  -34.9840   23.3830 C   0  0  0  0  0  0  0  0  0  0  0  0
  -26.5750  -34.8580   22.3460 O   0  0  0  0  0  0  0  0  0  0  0  0
  -25.0040  -34.1220   24.9690 H   0  0  0  0  0  0  0  0  0  0  0  0
  -24.1810  -36.7710   23.0320 C   0  0  0  0  0  1  0  0  0  0  0  0
  -25.4430  -36.3830   23.8200 C   0  0  0  0  0  3  0  0  0  0  0  0
  -27.5970  -37.2870   24.5800 C   0  0  0  0  0  1  0  0  0  0  0  0
  -26.4740  -37.4330   23.6590 N   0  0  0  0  0  0  0  0  0  0  0  0
  -26.0700  -38.3560   23.7940 H   0  0  0  0  0  0  0  0  0  0  0  0
  -26.3920  -31.7890   25.1530 C   0  0  1  0  0  0  0  0  0  0  0  0
  -25.2900  -31.5780   26.2180 C   0  0  0  0  0  1  0  0  0  0  0  0
  -26.9670  -30.4010   24.7900 C   0  0  0  0  0  1  0  0  0  0  0  0
  -27.5420  -32.5880   25.8100 C   0  0  0  0  0  1  0  0  0  0  0  0
  -29.8770  -21.7110   20.5670 C   0  0  0  0  0  2  0  0  0  0  0  0
  -28.9340  -19.3580   21.1370 C   0  0  0  0  0  3  0  0  0  0  0  0
  -28.9720  -17.9360   21.1550 C   0  0  0  0  0  3  0  0  0  0  0  0
  -30.7910  -17.9570   19.5930 C   0  0  0  0  0  3  0  0  0  0  0  0
  -29.8300  -20.1390   20.3600 C   0  0  0  0  0  0  0  0  0  0  0  0
  -30.7570  -19.3900   19.5600 C   0  0  0  0  0  0  0  0  0  0  0  0
  -29.9210  -17.1890   20.4100 C   0  0  0  0  0  0  0  0  0  0  0  0
  -31.7930  -20.0690   18.6760 C   0  0  0  0  0  1  0  0  0  0  0  0
  -30.6910  -14.7220   20.0240 C   0  0  0  0  0  0  0  0  0  0  0  0
  -30.4650  -12.4970   18.9320 C   0  0  0  0  0  2  0  0  0  0  0  0
  -29.4660  -12.6470   17.7630 C   0  0  0  0  0  2  0  0  0  0  0  0
  -28.0090  -12.4950   18.2470 C   0  0  0  0  0  2  0  0  0  0  0  0
  -27.7120  -13.3300   19.5200 C   0  0  0  0  0  3  0  0  0  0  0  0
  -28.8130  -13.1250   20.5830 C   0  0  0  0  0  2  0  0  0  0  0  0
  -30.0980  -13.4870   19.9640 N   0  0  0  0  0  0  0  0  0  0  0  0
  -31.8200  -14.9170   19.5610 O   0  0  0  0  0  0  0  0  0  0  0  0
  -29.8920  -15.7280   20.5030 N   0  0  0  0  0  0  0  0  0  0  0  0
  -29.0630  -15.3650   20.9470 H   0  0  0  0  0  0  0  0  0  0  0  0
  -25.3490  -13.9400   20.3260 C   0  0  0  0  0  0  0  0  0  0  0  0
  -24.2910  -13.1690   20.7280 C   0  0  0  0  0  0  0  0  0  0  0  0
  -24.7440  -11.8160   20.6670 C   0  0  0  0  0  0  0  0  0  0  0  0
  -26.3790  -13.0550   20.0490 N   0  0  0  0  0  0  0  0  0  0  0  0
  -26.0220  -11.7720   20.3140 N   0  0  0  0  0  0  0  0  0  0  0  0
  -24.0190  -10.5560   20.8750 C   0  0  0  0  0  0  0  0  0  0  0  0
  -24.4440   -9.6060   21.8290 C   0  0  0  0  0  3  0  0  0  0  0  0
  -23.7180   -8.4100   22.0210 C   0  0  0  0  0  3  0  0  0  0  0  0
  -22.5550   -8.1560   21.2570 C   0  0  0  0  0  0  0  0  0  0  0  0
  -22.1500   -9.0930   20.2900 C   0  0  0  0  0  3  0  0  0  0  0  0
  -22.8760  -10.2800   20.0980 C   0  0  0  0  0  3  0  0  0  0  0  0
  -21.8000   -7.0120   21.3570 O   0  0  0  0  0  0  0  0  0  0  0  0
  -21.6850   -6.3270   22.5400 C   0  0  0  0  0  0  0  0  0  0  0  0
  -21.1820   -6.9380   23.7090 C   0  0  0  0  0  3  0  0  0  0  0  0
  -21.0170   -6.1790   24.8830 C   0  0  0  0  0  3  0  0  0  0  0  0
  -21.3420   -4.8100   24.8910 C   0  0  0  0  0  0  0  0  0  0  0  0
  -21.8380   -4.1980   23.7260 C   0  0  0  0  0  3  0  0  0  0  0  0
  -22.0070   -4.9540   22.5530 C   0  0  0  0  0  0  0  0  0  0  0  0
  -22.4630   -4.3550   21.4260 F   0  0  0  0  0  0  0  0  0  0  0  0
  -21.1770   -4.0770   26.0170 F   0  0  0  0  0  0  0  0  0  0  0  0
  -22.9080  -13.6490   21.0560 C   0  0  0  0  0  0  0  0  0  0  0  0
  -22.2130  -12.9510   21.9480 N   0  0  0  0  0  0  0  0  0  0  0  0
  -22.4530  -14.6790   20.5590 O   0  0  0  0  0  0  0  0  0  0  0  0
  -22.5950  -12.1160   22.3680 H   0  0  0  0  0  0  0  0  0  0  0  0
  -21.2860  -13.2540   22.2130 H   0  0  0  0  0  0  0  0  0  0  0  0
  -25.5170  -15.3110   20.1510 N   0  0  0  0  0  0  0  0  0  0  0  0
  -24.7630  -15.9720   20.2970 H   0  0  0  0  0  0  0  0  0  0  0  0
  -26.3480  -15.7390   19.7610 H   0  0  0  0  0  0  0  0  0  0  0  0
  1  2  2  0
  3  5  1  0
  3  4  1  0
  4  6  1  0
  5  7  1  0
  6  9  1  0
  6  1  1  0
  7  8  1  1
  7 50  1  0
  7  1  1  0
 10 21  2  0
 11  9  1  0
 11 16  1  0
 12 20  1  0
 12 22  1  0
 13 19  1  0
 13 15  1  0
 14 20  1  0
 15 14  1  0
 16 15  2  0
 17 18  1  0
 17 11  2  0
 18 13  2  0
 19 12  1  0
 20 10  1  0
 22 24  2  0
 23 22  1  0
 25 23  1  0
 26 35  2  0
 26 31  1  0
 27 23  1  0
 27 31  1  0
 28 27  1  0
 29 30  1  0
 29 28  1  0
 30 26  1  0
 31 32  2  0
 32 33  1  0
 34 33  2  0
 35 34  1  0
 36 10  1  0
 36 37  1  0
 36 46  1  0
 37 40  1  0
 38 42  1  0
 38 37  1  0
 39 38  2  0
 42 41  1  0
 44 45  1  0
 44 42  1  0
 44 43  1  0
 46 49  1  1
 46 47  1  0
 48 46  1  0
 51 52  1  0
 53 56  1  0
 54 50  1  0
 54 51  2  0
 55 53  2  0
 55 54  1  0
 56 66  1  0
 56 52  2  0
 57 55  1  0
 58 66  1  0
 59 64  1  0
 60 61  1  0
 60 59  1  0
 62 61  1  0
 62 71  1  0
 62 63  1  0
 64 58  1  0
 64 63  1  0
 65 58  2  0
 66 67  1  0
 68 69  2  0
 69 88  1  0
 70 69  1  0
 70 73  1  0
 71 72  1  0
 71 68  1  0
 72 70  2  0
 73 74  1  0
 74 75  2  0
 76 79  1  0
 76 75  1  0
 77 76  2  0
 78 77  1  0
 78 73  2  0
 79 80  1  0
 80 85  2  0
 80 81  1  0
 81 82  2  0
 82 83  1  0
 83 87  1  0
 84 83  2  0
 85 84  1  0
 86 85  1  0
 88 89  1  0
 89 92  1  0
 89 91  1  0
 90 88  2  0
 93 94  1  0
 93 68  1  0
 95 93  1  0
M  ISO  4   6 101   9 101  58 100  66 100
M  END
>  <TORSDO>  (71) 
F 18

>  <SCORE>  (71) 
-13.936

>  <name>  (71) 
70

>  <ligand_id>  (71) 
70

>  <original_smiles>  (71) 
[H]C([H])=C1C([H])(Oc2c([H])c([H])c3c(c2[H])C([H])([H])N(C(=O)C([H])(N([H])C(=O)C([H])(N([H])C([H])([H])[H])C([H])([H])[H])C(C([H])([H])[H])(C([H])([H])[H])C([H])([H])[H])C([H])(C(=O)N([H])C2([H])c4c([H])c([H])c([H])c([H])c4C([H])([H])C([H])([H])C2([H])[H])C3([H])[H])C([H])([H])C([H])([H])C([H])([H])[N+]1([H])C([H])([H])c1c([H])c([H])c(N([H])C(=O)N2C([H])([H])C([H])([H])C([H])([H])C([H])(n3nc(-c4c([H])c([H])c(Oc5c([H])c([H])c(F)c([H])c5F)c([H])c4[H])c(C(=O)N([H])[H])c3N([H])[H])C2([H])[H])c([H])c1C([H])([H])[H]

>  <smiles>  (71) 
[H]C([H])=C1C([H])(Oc2c([H])c([H])c3c(c2[H])C([H])([H])N(C(=O)C([H])(N([H])C(=O)C([H])(N([H])C([H])([H])[H])C([H])([H])[H])C(C([H])([H])[H])(C([H])([H])[H])C([H])([H])[H])C([H])(C(=O)N([H])C2([H])c4c([H])c([H])c([H])c([H])c4C([H])([H])C([H])([H])C2([H])[H])C3([H])[H])C([H])([H])C([H])([H])C([H])([H])[N+]1([H])C([H])([H])c1c([H])c([H])c(N([H])C(=O)N2C([H])([H])C([H])([H])C([H])([H])C([H])(n3nc(-c4c([H])c([H])c(Oc5c([H])c([H])c(F)c([H])c5F)c([H])c4[H])c(C(=O)N([H])[H])c3N([H])[H])C2([H])[H])c([H])c1C([H])([H])[H]

$$$$
71:0:0
     RDKit          3D

 96105  0  0  1  0  0  0  0  0999 V2000
  -29.9280  -21.3510   20.3740 C   0  0  0  0  0  2  0  0  0  0  0  0
  -29.1240  -23.8290   20.1540 C   0  0  0  0  0  0  0  0  0  0  0  0
  -26.5080  -23.0580   21.1370 C   0  0  0  0  0  2  0  0  0  0  0  0
  -26.9990  -24.4940   21.3670 C   0  0  0  0  0  2  0  0  0  0  0  0
  -27.6650  -22.0420   21.1400 C   0  0  0  0  0  2  0  0  0  0  0  0
  -27.9400  -24.9140   20.2170 C   0  0  0  0  0  3  0  0  0  0  0  0
  -28.8860  -22.4730   20.4370 N   0  0  0  0  0  0  0  0  0  0  0  0
  -30.2430  -24.2150   19.8030 O   0  0  0  0  0  0  0  0  0  0  0  0
  -28.2740  -26.3970   20.2510 O   0  0  0  0  0  0  0  0  0  0  0  0
  -24.6210  -31.9300   23.2420 C   0  0  0  0  0  0  0  0  0  0  0  0
  -27.2060  -27.3330   20.1600 C   0  0  0  0  0  0  0  0  0  0  0  0
  -23.4150  -30.5410   21.6010 C   0  0  0  0  0  3  0  0  0  0  0  0
  -24.8610  -29.0010   20.1560 C   0  0  0  0  0  0  0  0  0  0  0  0
  -25.9600  -30.8390   21.4230 C   0  0  0  0  0  2  0  0  0  0  0  0
  -26.0360  -29.4620   20.7640 C   0  0  0  0  0  0  0  0  0  0  0  0
  -27.2110  -28.6390   20.7600 C   0  0  0  0  0  3  0  0  0  0  0  0
  -26.0140  -26.9670   19.4890 C   0  0  0  0  0  3  0  0  0  0  0  0
  -24.8560  -27.7600   19.5100 C   0  0  0  0  0  3  0  0  0  0  0  0
  -23.6260  -29.8780   20.2160 C   0  0  0  0  0  2  0  0  0  0  0  0
  -24.6840  -31.1220   22.1440 N   0  0  0  0  0  0  0  0  0  0  0  0
  -23.5380  -32.2080   23.7790 O   0  0  0  0  0  0  0  0  0  0  0  0
  -22.7520  -29.5200   22.5580 C   0  0  0  0  0  0  0  0  0  0  0  0
  -21.4250  -29.3370   22.4270 N   0  0  0  0  0  0  0  0  0  0  0  0
  -23.4290  -28.8970   23.3790 O   0  0  0  0  0  0  0  0  0  0  0  0
  -20.9380  -29.8920   21.7390 H   0  0  0  0  0  0  0  0  0  0  0  0
  -18.0510  -28.1240   22.9210 C   0  0  0  0  0  0  0  0  0  0  0  0
  -20.6080  -28.3960   23.1960 C   0  0  0  0  0  3  0  0  0  0  0  0
  -20.7180  -26.9650   22.6210 C   0  0  0  0  0  2  0  0  0  0  0  0
  -19.6190  -26.6380   21.6040 C   0  0  0  0  0  2  0  0  0  0  0  0
  -18.2350  -26.7760   22.2440 C   0  0  0  0  0  2  0  0  0  0  0  0
  -19.1650  -28.8910   23.3530 C   0  0  0  0  0  0  0  0  0  0  0  0
  -18.9400  -30.1510   23.9470 C   0  0  0  0  0  3  0  0  0  0  0  0
  -17.6320  -30.6470   24.1110 C   0  0  0  0  0  3  0  0  0  0  0  0
  -16.5330  -29.8770   23.6940 C   0  0  0  0  0  3  0  0  0  0  0  0
  -16.7430  -28.6180   23.1050 C   0  0  0  0  0  3  0  0  0  0  0  0
  -25.9040  -32.5610   23.8640 C   0  0  0  0  0  3  0  0  0  0  0  0
  -26.4190  -31.7880   25.1400 C   0  0  1  0  0  0  0  0  0  0  0  0
  -25.3230  -31.5470   26.2050 C   0  0  0  0  0  1  0  0  0  0  0  0
  -27.0050  -30.4120   24.7490 C   0  0  0  0  0  1  0  0  0  0  0  0
  -27.5680  -32.5820   25.8030 C   0  0  0  0  0  1  0  0  0  0  0  0
  -25.5940  -33.9590   24.1990 N   0  0  0  0  0  0  0  0  0  0  0  0
  -25.9170  -35.0150   23.4390 C   0  0  0  0  0  0  0  0  0  0  0  0
  -26.5760  -34.9140   22.4020 O   0  0  0  0  0  0  0  0  0  0  0  0
  -25.0030  -34.1100   25.0030 H   0  0  0  0  0  0  0  0  0  0  0  0
  -24.1810  -36.8070   23.1130 C   0  0  0  0  0  1  0  0  0  0  0  0
  -25.4330  -36.4010   23.9060 C   0  0  0  0  0  3  0  0  0  0  0  0
  -27.5760  -37.2890   24.7100 C   0  0  0  0  0  1  0  0  0  0  0  0
  -26.4620  -37.4570   23.7820 N   0  0  0  0  0  0  0  0  0  0  0  0
  -26.0560  -38.3760   23.9340 H   0  0  0  0  0  0  0  0  0  0  0  0
  -28.9300  -18.3380   18.1000 C   0  0  0  0  0  3  0  0  0  0  0  0
  -29.3210  -17.1900   18.8080 C   0  0  0  0  0  3  0  0  0  0  0  0
  -29.0800  -19.6340   18.6300 C   0  0  0  0  0  0  0  0  0  0  0  0
  -29.6140  -19.8300   19.9310 C   0  0  0  0  0  0  0  0  0  0  0  0
  -29.9750  -18.6140   20.6780 C   0  0  0  0  0  0  0  0  0  0  0  0
  -29.8590  -17.2480   20.1120 C   0  0  0  0  0  0  0  0  0  0  0  0
  -28.6970  -20.8070   17.7380 C   0  0  0  0  0  1  0  0  0  0  0  0
  -30.7450  -14.8150   20.0460 C   0  0  0  0  0  0  0  0  0  0  0  0
  -30.4050  -12.6090   18.9020 C   0  0  0  0  0  2  0  0  0  0  0  0
  -29.3920  -12.7370   17.7450 C   0  0  0  0  0  2  0  0  0  0  0  0
  -27.9550  -12.5450   18.2600 C   0  0  0  0  0  2  0  0  0  0  0  0
  -27.6670  -13.3840   19.5320 C   0  0  0  0  0  3  0  0  0  0  0  0
  -28.7900  -13.2410   20.5780 C   0  0  0  0  0  2  0  0  0  0  0  0
  -30.0590  -13.6190   19.9330 N   0  0  0  0  0  0  0  0  0  0  0  0
  -31.8410  -14.9390   19.4910 O   0  0  0  0  0  0  0  0  0  0  0  0
  -30.2590  -15.7480   22.1770 C   0  0  0  0  0  1  0  0  0  0  0  0
  -30.1840  -15.9040   20.7200 N   0  0  0  0  0  0  0  0  0  0  0  0
  -25.3270  -13.9490   20.4130 C   0  0  0  0  0  0  0  0  0  0  0  0
  -24.2880  -13.1640   20.8330 C   0  0  0  0  0  0  0  0  0  0  0  0
  -24.7550  -11.8150   20.7540 C   0  0  0  0  0  0  0  0  0  0  0  0
  -26.3580  -13.0800   20.0990 N   0  0  0  0  0  0  0  0  0  0  0  0
  -26.0240  -11.7900   20.3670 N   0  0  0  0  0  0  0  0  0  0  0  0
  -24.0470  -10.5460   20.9680 C   0  0  0  0  0  0  0  0  0  0  0  0
  -24.5050   -9.5940   21.9050 C   0  0  0  0  0  3  0  0  0  0  0  0
  -23.7970   -8.3890   22.1070 C   0  0  0  0  0  3  0  0  0  0  0  0
  -22.6150   -8.1290   21.3720 C   0  0  0  0  0  0  0  0  0  0  0  0
  -22.1770   -9.0710   20.4250 C   0  0  0  0  0  3  0  0  0  0  0  0
  -22.8850  -10.2660   20.2220 C   0  0  0  0  0  3  0  0  0  0  0  0
  -21.8760   -6.9760   21.4820 O   0  0  0  0  0  0  0  0  0  0  0  0
  -21.8050   -6.2770   22.6610 C   0  0  0  0  0  0  0  0  0  0  0  0
  -21.3350   -6.8730   23.8520 C   0  0  0  0  0  3  0  0  0  0  0  0
  -21.2100   -6.0990   25.0240 C   0  0  0  0  0  3  0  0  0  0  0  0
  -21.5450   -4.7320   25.0050 C   0  0  0  0  0  0  0  0  0  0  0  0
  -22.0080   -4.1360   23.8180 C   0  0  0  0  0  3  0  0  0  0  0  0
  -22.1350   -4.9070   22.6490 C   0  0  0  0  0  0  0  0  0  0  0  0
  -22.5610   -4.3240   21.5030 F   0  0  0  0  0  0  0  0  0  0  0  0
  -21.4190   -3.9870   26.1280 F   0  0  0  0  0  0  0  0  0  0  0  0
  -22.9080  -13.6300   21.1950 C   0  0  0  0  0  0  0  0  0  0  0  0
  -22.2450  -12.9300   22.1080 N   0  0  0  0  0  0  0  0  0  0  0  0
  -22.4280  -14.6500   20.7030 O   0  0  0  0  0  0  0  0  0  0  0  0
  -22.6470  -12.1050   22.5280 H   0  0  0  0  0  0  0  0  0  0  0  0
  -21.3220  -13.2250   22.3940 H   0  0  0  0  0  0  0  0  0  0  0  0
  -25.4760  -15.3230   20.2510 N   0  0  0  0  0  0  0  0  0  0  0  0
  -24.7210  -15.9760   20.4280 H   0  0  0  0  0  0  0  0  0  0  0  0
  -26.3160  -15.7740   19.9100 H   0  0  0  0  0  0  0  0  0  0  0  0
  -32.0680  -18.9390   22.0860 C   0  0  0  0  0  1  0  0  0  0  0  0
  -30.5370  -18.8380   22.0830 C   0  0  0  0  0  2  0  0  0  0  0  0
  1  7  1  0
  2  6  1  0
  2  7  1  0
  3  5  1  0
  3  4  1  0
  6  9  1  0
  6  4  1  0
  7  5  1  0
  8  2  2  0
 10 21  2  0
 11  9  1  0
 11 16  1  0
 12 20  1  0
 12 22  1  0
 13 19  1  0
 13 15  1  0
 14 20  1  0
 15 14  1  0
 16 15  2  0
 17 18  1  0
 17 11  2  0
 18 13  2  0
 19 12  1  0
 20 10  1  0
 22 24  2  0
 23 22  1  0
 25 23  1  0
 26 35  2  0
 26 31  1  0
 27 23  1  0
 27 31  1  0
 28 27  1  0
 29 30  1  0
 29 28  1  0
 30 26  1  0
 31 32  2  0
 32 33  1  0
 34 33  2  0
 35 34  1  0
 36 10  1  0
 36 41  1  0
 36 37  1  0
 37 40  1  1
 37 38  1  0
 39 37  1  0
 41 44  1  0
 42 46  1  0
 42 41  1  0
 43 42  2  0
 46 45  1  0
 48 46  1  0
 48 49  1  0
 48 47  1  0
 50 52  2  0
 50 51  1  0
 51 55  2  0
 52 53  1  0
 53  1  1  0
 53 54  2  0
 54 96  1  0
 55 54  1  0
 55 66  1  0
 56 52  1  0
 57 66  1  0
 58 63  1  0
 59 60  1  0
 59 58  1  0
 61 60  1  0
 61 70  1  0
 61 62  1  0
 63 57  1  0
 63 62  1  0
 64 57  2  0
 66 65  1  0
 67 68  2  0
 68 87  1  0
 69 68  1  0
 69 72  1  0
 70 71  1  0
 70 67  1  0
 71 69  2  0
 72 73  1  0
 73 74  2  0
 75 78  1  0
 75 74  1  0
 76 75  2  0
 77 76  1  0
 77 72  2  0
 78 79  1  0
 79 80  1  0
 80 81  2  0
 82 81  1  0
 82 86  1  0
 83 82  2  0
 84 79  2  0
 84 83  1  0
 85 84  1  0
 87 88  1  0
 88 91  1  0
 88 90  1  0
 89 87  2  0
 92 67  1  0
 92 93  1  0
 94 92  1  0
 96 95  1  0
M  ISO  4   6 101   9 101  57 100  66 100
M  END
>  <TORSDO>  (72) 
F 19

>  <SCORE>  (72) 
-13.876

>  <name>  (72) 
71

>  <ligand_id>  (72) 
71

>  <original_smiles>  (72) 
[H]c1c([H])c([H])c2c(c1[H])C([H])([H])C([H])([H])C([H])([H])C2([H])N([H])C(=O)C1([H])N(C(=O)C([H])(N([H])C(=O)C([H])(N([H])C([H])([H])[H])C([H])([H])[H])C(C([H])([H])[H])(C([H])([H])[H])C([H])([H])[H])C([H])([H])c2c([H])c(OC3([H])C(=O)N(C([H])([H])c4c(C([H])([H])[H])c([H])c([H])c(N(C(=O)N5C([H])([H])C([H])([H])C([H])([H])C([H])(n6nc(-c7c([H])c([H])c(Oc8c([H])c([H])c(F)c([H])c8F)c([H])c7[H])c(C(=O)N([H])[H])c6N([H])[H])C5([H])[H])C([H])([H])[H])c4C([H])([H])C([H])([H])[H])C([H])([H])C([H])([H])C3([H])[H])c([H])c([H])c2C1([H])[H]

>  <smiles>  (72) 
[H]c1c([H])c([H])c2c(c1[H])C([H])([H])C([H])([H])C([H])([H])C2([H])N([H])C(=O)C1([H])N(C(=O)C([H])(N([H])C(=O)C([H])(N([H])C([H])([H])[H])C([H])([H])[H])C(C([H])([H])[H])(C([H])([H])[H])C([H])([H])[H])C([H])([H])c2c([H])c(OC3([H])C(=O)N(C([H])([H])c4c(C([H])([H])[H])c([H])c([H])c(N(C(=O)N5C([H])([H])C([H])([H])C([H])([H])C([H])(n6nc(-c7c([H])c([H])c(Oc8c([H])c([H])c(F)c([H])c8F)c([H])c7[H])c(C(=O)N([H])[H])c6N([H])[H])C5([H])[H])C([H])([H])[H])c4C([H])([H])C([H])([H])[H])C([H])([H])C([H])([H])C3([H])[H])c([H])c([H])c2C1([H])[H]

$$$$
72:0:0
     RDKit          3D

 94 96  0  0  1  0  0  0  0  0999 V2000
  -27.8140  -19.2660   19.3110 C   0  0  0  0  0  0  0  0  0  0  0  0
  -25.6550  -18.0690   19.5710 C   0  0  0  0  0  1  0  0  0  0  0  0
  -27.0830  -17.9480   19.2820 N   0  0  0  0  0  0  0  0  0  0  0  0
  -28.9970  -19.1880   18.9710 O   0  0  0  0  0  0  0  0  0  0  0  0
  -27.2750  -20.7670   19.7100 C   0  0  0  0  0  3  0  0  0  0  0  0
  -27.8730  -22.1360   19.7890 C   0  0  0  0  0  3  0  0  0  0  0  0
  -27.3280  -23.7580   20.2430 C   0  0  0  0  0  2  0  0  0  0  0  0
  -28.0120  -25.2960   20.3590 O   0  0  0  0  0  0  0  0  0  0  0  0
  -24.6740  -31.6170   23.0600 C   0  0  0  0  0  0  0  0  0  0  0  0
  -27.2140  -26.5550   20.2780 C   0  0  0  0  0  0  0  0  0  0  0  0
  -23.5670  -30.1720   21.4230 C   0  0  0  0  0  3  0  0  0  0  0  0
  -25.0570  -28.5510   20.0930 C   0  0  0  0  0  0  0  0  0  0  0  0
  -26.1470  -30.3400   21.4090 C   0  0  0  0  0  2  0  0  0  0  0  0
  -26.2220  -28.9110   20.7830 C   0  0  0  0  0  0  0  0  0  0  0  0
  -27.3160  -27.9250   20.8620 C   0  0  0  0  0  3  0  0  0  0  0  0
  -26.0700  -26.4080   19.4910 C   0  0  0  0  0  3  0  0  0  0  0  0
  -25.0130  -27.3270   19.4260 C   0  0  0  0  0  3  0  0  0  0  0  0
  -23.8580  -29.4870   20.0670 C   0  0  0  0  0  2  0  0  0  0  0  0
  -24.8180  -30.7420   22.0150 N   0  0  0  0  0  0  0  0  0  0  0  0
  -23.5570  -31.9180   23.5140 O   0  0  0  0  0  0  0  0  0  0  0  0
  -22.8430  -29.1820   22.3720 C   0  0  0  0  0  0  0  0  0  0  0  0
  -21.5080  -29.0630   22.2480 N   0  0  0  0  0  0  0  0  0  0  0  0
  -23.4880  -28.5290   23.1970 O   0  0  0  0  0  0  0  0  0  0  0  0
  -21.0430  -29.6380   21.5600 H   0  0  0  0  0  0  0  0  0  0  0  0
  -18.0770  -28.0300   22.8120 C   0  0  0  0  0  0  0  0  0  0  0  0
  -20.6520  -28.1540   23.0190 C   0  0  0  0  0  3  0  0  0  0  0  0
  -20.6640  -26.7300   22.4140 C   0  0  0  0  0  2  0  0  0  0  0  0
  -19.5230  -26.4870   21.4210 C   0  0  0  0  0  2  0  0  0  0  0  0
  -18.1660  -26.6910   22.1010 C   0  0  0  0  0  2  0  0  0  0  0  0
  -19.2440  -28.7240   23.2280 C   0  0  0  0  0  0  0  0  0  0  0  0
  -19.1030  -29.9800   23.8570 C   0  0  0  0  0  3  0  0  0  0  0  0
  -17.8290  -30.5400   24.0720 C   0  0  0  0  0  3  0  0  0  0  0  0
  -16.6770  -29.8430   23.6690 C   0  0  0  0  0  3  0  0  0  0  0  0
  -16.8020  -28.5880   23.0440 C   0  0  0  0  0  3  0  0  0  0  0  0
  -25.9060  -32.2980   23.7280 C   0  0  0  0  0  3  0  0  0  0  0  0
  -26.4040  -31.5380   25.0180 C   0  0  1  0  0  0  0  0  0  0  0  0
  -25.2810  -31.2390   26.0400 C   0  0  0  0  0  1  0  0  0  0  0  0
  -27.0670  -30.1930   24.6490 C   0  0  0  0  0  1  0  0  0  0  0  0
  -27.4890  -32.3780   25.7330 C   0  0  0  0  0  1  0  0  0  0  0  0
  -25.5240  -33.6800   24.0740 N   0  0  0  0  0  0  0  0  0  0  0  0
  -25.8490  -34.7690   23.3660 C   0  0  0  0  0  0  0  0  0  0  0  0
  -26.5640  -34.7210   22.3620 O   0  0  0  0  0  0  0  0  0  0  0  0
  -24.8890  -33.7880   24.8520 H   0  0  0  0  0  0  0  0  0  0  0  0
  -24.0760  -36.5210   22.9920 C   0  0  0  0  0  1  0  0  0  0  0  0
  -25.2950  -36.1280   23.8430 C   0  0  0  0  0  3  0  0  0  0  0  0
  -27.3550  -37.0630   24.8000 C   0  0  0  0  0  1  0  0  0  0  0  0
  -26.2950  -37.2180   23.8080 N   0  0  0  0  0  0  0  0  0  0  0  0
  -25.8500  -38.1210   23.9590 H   0  0  0  0  0  0  0  0  0  0  0  0
  -27.4390  -16.3730   18.7240 C   0  0  0  0  0  2  0  0  0  0  0  0
  -24.1140  -12.1570   20.1110 C   0  0  0  0  0 15  0  0  0  0  0  0
  -25.1920  -13.6050   18.8520 C   0  0  0  0  0 15  0  0  0  0  0  0
  -25.3260  -11.5950   22.1490 C   0  0  0  0  0  1  0  0  0  0  0  0
  -27.0720  -14.6910   19.1880 C   0  0  0  0  0  1  0  0  0  0  0  0
  -28.2560  -14.0570   20.9330 C   0  0  0  0  0  1  0  0  0  0  0  0
  -27.3100  -12.5650   22.2760 C   0  0  0  0  0  1  0  0  0  0  0  0
  -28.2850  -12.0630   23.6040 Cl  0  0  0  0  0  0  0  0  0  0  0  0
  -30.9270  -13.8920   20.1460 C   0  0  0  0  0  0  0  0  0  0  0  0
  -31.4330  -11.7030   18.9400 C   0  0  0  0  0  2  0  0  0  0  0  0
  -30.3330  -11.4030   17.8590 C   0  0  0  0  0  2  0  0  0  0  0  0
  -28.8870  -11.0830   18.4050 C   0  0  0  0  0  2  0  0  0  0  0  0
  -28.6020  -12.0150   19.5660 C   0  0  0  0  0  3  0  0  0  0  0  0
  -29.8030  -11.8410   20.6010 C   0  0  0  0  0  2  0  0  0  0  0  0
  -30.8800  -12.5510   20.0110 N   0  0  0  0  0  0  0  0  0  0  0  0
  -31.9270  -14.4480   19.6130 O   0  0  0  0  0  0  0  0  0  0  0  0
  -29.7690  -14.4720   20.8150 N   0  0  0  0  0  0  0  0  0  0  0  0
  -29.9210  -15.4500   21.0170 H   0  0  0  0  0  0  0  0  0  0  0  0
  -26.1940  -13.8850   21.1990 C   0  0  0  0  0  3  0  0  0  0  0  0
  -25.5270  -13.4710   21.3310 C   0  0  0  0  0  3  0  0  0  0  0  0
  -26.2690  -11.5540   20.5080 C   0  0  2  0  0  0  0  0  0  0  0  0
  -27.1190  -12.2400   20.2730 N   0  0  0  0  0  0  0  0  0  0  0  0
  -27.2710  -11.0190   20.5400 N   0  0  0  0  0  2  0  0  0  0  0  0
  -25.3920   -9.9590   20.6120 C   0  0  0  0  0  0  0  0  0  0  0  0
  -25.4700   -9.0580   21.7690 C   0  0  0  0  0  3  0  0  0  0  0  0
  -24.5130   -8.0370   22.1490 C   0  0  0  0  0  3  0  0  0  0  0  0
  -23.3120   -7.8270   21.4270 C   0  0  0  0  0  0  0  0  0  0  0  0
  -23.1480   -8.6650   20.3220 C   0  0  0  0  0  3  0  0  0  0  0  0
  -24.1710   -9.5640   19.9040 C   0  0  0  0  0  3  0  0  0  0  0  0
  -22.3560   -6.8260   21.6070 O   0  0  0  0  0  0  0  0  0  0  0  0
  -22.1790   -6.1040   22.7710 C   0  0  0  0  0  0  0  0  0  0  0  0
  -21.6750   -6.7210   23.9340 C   0  0  0  0  0  3  0  0  0  0  0  0
  -21.4190   -5.9600   25.0950 C   0  0  0  0  0  3  0  0  0  0  0  0
  -21.6540   -4.5730   25.0990 C   0  0  0  0  0  0  0  0  0  0  0  0
  -22.1290   -3.9420   23.9360 C   0  0  0  0  0  3  0  0  0  0  0  0
  -22.3800   -4.7000   22.7750 C   0  0  0  0  0  0  0  0  0  0  0  0
  -22.8030   -4.0620   21.6550 F   0  0  0  0  0  0  0  0  0  0  0  0
  -21.4220   -3.8480   26.2210 F   0  0  0  0  0  0  0  0  0  0  0  0
  -24.0720  -14.0850   21.8360 C   0  0  0  0  0  0  0  0  0  0  0  0
  -23.2410  -13.3810   22.6360 N   0  0  0  0  0  0  0  0  0  0  0  0
  -23.5370  -14.9410   21.1510 O   0  0  0  0  0  0  0  0  0  0  0  0
  -23.5660  -12.5400   23.0830 H   0  0  0  0  0  0  0  0  0  0  0  0
  -22.2970  -13.7010   22.7910 H   0  0  0  0  0  0  0  0  0  0  0  0
  -26.3900  -15.2970   21.4920 N   0  0  0  0  0  0  0  0  0  0  0  0
  -25.6300  -15.9100   21.7600 H   0  0  0  0  0  0  0  0  0  0  0  0
  -27.1690  -15.7910   21.0780 H   0  0  0  0  0  0  0  0  0  0  0  0
  1  5  1  0
  3  1  1  0
  3  2  1  0
  4  1  2  0
  5  6  2  0
  6  7  1  0
  7  8  1  0
  9 20  2  0
 10  8  1  0
 10 15  1  0
 11 19  1  0
 11 21  1  0
 12 14  1  0
 13 19  1  0
 14 15  2  0
 14 13  1  0
 16 10  2  0
 17 16  1  0
 17 12  2  0
 18 12  1  0
 18 11  1  0
 19  9  1  0
 21 23  2  0
 22 21  1  0
 24 22  1  0
 25 34  2  0
 25 30  1  0
 26 22  1  0
 26 30  1  0
 27 26  1  0
 28 29  1  0
 28 27  1  0
 29 25  1  0
 30 31  2  0
 31 32  1  0
 33 32  2  0
 34 33  1  0
 35  9  1  0
 35 40  1  0
 35 36  1  0
 36 39  1  1
 36 37  1  0
 38 36  1  0
 40 43  1  0
 41 45  1  0
 41 40  1  0
 42 41  2  0
 45 44  1  0
 47 45  1  0
 47 48  1  0
 47 46  1  0
 49 53  1  0
 49  3  1  0
 55 56  1  0
 57 65  1  0
 58 63  1  0
 59 60  1  0
 59 58  1  0
 61 60  1  0
 61 70  1  0
 61 62  1  0
 63 57  1  0
 63 62  1  0
 64 57  2  0
 65 54  1  0
 65 66  1  0
 67 68  2  0
 67 92  1  0
 68 87  1  0
 69 71  1  0
 69 72  1  0
 69 52  1  1
 70 69  1  0
 70 71  1  0
 72 73  1  0
 73 74  2  0
 75 78  1  0
 75 74  1  0
 76 75  2  0
 77 76  1  0
 77 72  2  0
 78 79  1  0
 79 84  2  0
 79 80  1  0
 80 81  2  0
 81 82  1  0
 82 86  1  0
 83 82  2  0
 84 83  1  0
 85 84  1  0
 87 88  1  0
 88 91  1  0
 88 90  1  0
 89 87  2  0
 92 93  1  0
 94 92  1  0
M  ISO  4   7 101   8 101  57 100  65 100
M  END
>  <TORSDO>  (73) 
F 20

>  <SCORE>  (73) 
-7.511

>  <name>  (73) 
72

>  <ligand_id>  (73) 
72

>  <original_smiles>  (73) 
[H]C(C(=O)N(C([H])([H])[H])C([H])([H])c1c([H])c([H])c([H])c(Cl)c1N([H])C(=O)N1C([H])([H])C([H])([H])C([H])([H])C([H])(n2nc(-c3c([H])c([H])c(Oc4c([H])c([H])c(F)c([H])c4F)c([H])c3[H])c(C(=O)N([H])[H])c2N([H])[H])C1([H])[H])=C([H])C([H])([H])Oc1c([H])c([H])c2c(c1[H])C([H])([H])N(C(=O)C([H])(N([H])C(=O)C([H])(N([H])C([H])([H])[H])C([H])([H])[H])C(C([H])([H])[H])(C([H])([H])[H])C([H])([H])[H])C([H])(C(=O)N([H])C1([H])c3c([H])c([H])c([H])c([H])c3C([H])([H])C([H])([H])C1([H])[H])C2([H])[H]

>  <smiles>  (73) 
[H]C(C(=O)N(C([H])([H])[H])C([H])([H])c1c([H])c([H])c([H])c(Cl)c1N([H])C(=O)N1C([H])([H])C([H])([H])C([H])([H])C([H])(n2nc(-c3c([H])c([H])c(Oc4c([H])c([H])c(F)c([H])c4F)c([H])c3[H])c(C(=O)N([H])[H])c2N([H])[H])C1([H])[H])=C([H])C([H])([H])Oc1c([H])c([H])c2c(c1[H])C([H])([H])N(C(=O)C([H])(N([H])C(=O)C([H])(N([H])C([H])([H])[H])C([H])([H])[H])C(C([H])([H])[H])(C([H])([H])[H])C([H])([H])[H])C([H])(C(=O)N([H])C1([H])c3c([H])c([H])c([H])c([H])c3C([H])([H])C([H])([H])C1([H])[H])C2([H])[H]

$$$$
73:0:0
     RDKit          3D

 96105  0  0  1  0  0  0  0  0999 V2000
  -29.3680  -24.0120   20.4240 C   0  0  0  0  0  0  0  0  0  0  0  0
  -30.6960  -24.2440   20.5350 C   0  0  0  0  0  3  0  0  0  0  0  0
  -27.0490  -23.3090   21.9880 C   0  0  0  0  0  2  0  0  0  0  0  0
  -26.9100  -24.5060   21.0280 C   0  0  0  0  0  2  0  0  0  0  0  0
  -27.8780  -22.1510   21.3840 C   0  0  0  0  0  2  0  0  0  0  0  0
  -28.2940  -25.1320   20.7440 C   0  0  0  0  0  3  0  0  0  0  0  0
  -31.8460  -23.2490   20.5150 C   0  0  0  0  0  1  0  0  0  0  0  0
  -28.7570  -22.5870   20.2700 N   0  0  2  0  0  4  0  0  0  0  0  0
  -28.0360  -22.7730   19.5900 H   0  0  0  0  0  0  0  0  0  0  0  0
  -28.3260  -26.3910   19.9490 O   0  0  0  0  0  0  0  0  0  0  0  0
  -24.5760  -31.7360   23.0760 C   0  0  0  0  0  0  0  0  0  0  0  0
  -27.2120  -27.2460   19.9610 C   0  0  0  0  0  0  0  0  0  0  0  0
  -23.3770  -30.3530   21.4170 C   0  0  0  0  0  3  0  0  0  0  0  0
  -24.8360  -28.8320   19.9670 C   0  0  0  0  0  0  0  0  0  0  0  0
  -25.9100  -30.6920   21.2350 C   0  0  0  0  0  2  0  0  0  0  0  0
  -25.9990  -29.3220   20.5750 C   0  0  0  0  0  0  0  0  0  0  0  0
  -27.1910  -28.5390   20.5660 C   0  0  0  0  0  3  0  0  0  0  0  0
  -26.0400  -26.8180   19.3050 C   0  0  0  0  0  3  0  0  0  0  0  0
  -24.8570  -27.5840   19.3220 C   0  0  0  0  0  3  0  0  0  0  0  0
  -23.5930  -29.6980   20.0280 C   0  0  0  0  0  2  0  0  0  0  0  0
  -24.6380  -30.9450   21.9650 N   0  0  0  0  0  0  0  0  0  0  0  0
  -23.4910  -32.0000   23.6160 O   0  0  0  0  0  0  0  0  0  0  0  0
  -22.7210  -29.3200   22.3660 C   0  0  0  0  0  0  0  0  0  0  0  0
  -21.3890  -29.1720   22.2690 N   0  0  0  0  0  0  0  0  0  0  0  0
  -23.4090  -28.6570   23.1470 O   0  0  0  0  0  0  0  0  0  0  0  0
  -20.8930  -29.7590   21.6150 H   0  0  0  0  0  0  0  0  0  0  0  0
  -17.9970  -28.0740   22.8890 C   0  0  0  0  0  0  0  0  0  0  0  0
  -20.5750  -28.2250   23.0340 C   0  0  0  0  0  3  0  0  0  0  0  0
  -20.5890  -26.8230   22.3820 C   0  0  0  0  0  2  0  0  0  0  0  0
  -19.4250  -26.5950   21.4120 C   0  0  0  0  0  2  0  0  0  0  0  0
  -18.0840  -26.7590   22.1340 C   0  0  0  0  0  2  0  0  0  0  0  0
  -19.1650  -28.7700   23.2970 C   0  0  0  0  0  0  0  0  0  0  0  0
  -19.0270  -30.0080   23.9620 C   0  0  0  0  0  3  0  0  0  0  0  0
  -17.7530  -30.5470   24.2220 C   0  0  0  0  0  3  0  0  0  0  0  0
  -16.5990  -29.8460   23.8290 C   0  0  0  0  0  3  0  0  0  0  0  0
  -16.7230  -28.6110   23.1680 C   0  0  0  0  0  3  0  0  0  0  0  0
  -25.8580  -32.3650   23.7040 C   0  0  0  0  0  3  0  0  0  0  0  0
  -25.5350  -33.7480   24.0840 N   0  0  0  0  0  0  0  0  0  0  0  0
  -25.8400  -34.8290   23.3540 C   0  0  0  0  0  0  0  0  0  0  0  0
  -26.4960  -34.7660   22.3100 O   0  0  0  0  0  0  0  0  0  0  0  0
  -24.9530  -33.8680   24.9000 H   0  0  0  0  0  0  0  0  0  0  0  0
  -24.0920  -36.6160   23.0670 C   0  0  0  0  0  1  0  0  0  0  0  0
  -25.3400  -36.1970   23.8600 C   0  0  0  0  0  3  0  0  0  0  0  0
  -27.4720  -37.0740   24.7070 C   0  0  0  0  0  1  0  0  0  0  0  0
  -26.3610  -37.2650   23.7790 N   0  0  0  0  0  0  0  0  0  0  0  0
  -25.9460  -38.1750   23.9610 H   0  0  0  0  0  0  0  0  0  0  0  0
  -26.3940  -31.5610   24.9520 C   0  0  1  0  0  0  0  0  0  0  0  0
  -25.3160  -31.2780   26.0250 C   0  0  0  0  0  1  0  0  0  0  0  0
  -26.9910  -30.2030   24.5160 C   0  0  0  0  0  1  0  0  0  0  0  0
  -27.5410  -32.3490   25.6280 C   0  0  0  0  0  1  0  0  0  0  0  0
  -29.4230  -21.4640   19.4630 C   0  0  0  0  0  2  0  0  0  0  0  0
  -30.8990  -19.3000   19.7040 C   0  0  0  0  0  3  0  0  0  0  0  0
  -31.0640  -17.8820   19.8500 C   0  0  0  0  0  3  0  0  0  0  0  0
  -28.6230  -19.1200   20.4140 C   0  0  0  0  0  3  0  0  0  0  0  0
  -29.6610  -19.9640   19.9450 C   0  0  0  0  0  0  0  0  0  0  0  0
  -28.7870  -17.7160   20.6040 C   0  0  0  0  0  0  0  0  0  0  0  0
  -29.9980  -17.0390   20.2650 C   0  0  0  0  0  0  0  0  0  0  0  0
  -27.5920  -16.9790   21.1870 C   0  0  0  0  0  1  0  0  0  0  0  0
  -30.6810  -14.6030   19.6000 C   0  0  0  0  0  0  0  0  0  0  0  0
  -30.2590  -12.4660   18.3810 C   0  0  0  0  0  2  0  0  0  0  0  0
  -29.1630  -12.7210   17.3210 C   0  0  0  0  0  2  0  0  0  0  0  0
  -27.7540  -12.5610   17.9260 C   0  0  0  0  0  2  0  0  0  0  0  0
  -27.5970  -13.3070   19.2770 C   0  0  0  0  0  3  0  0  0  0  0  0
  -28.7920  -13.0300   20.2200 C   0  0  0  0  0  2  0  0  0  0  0  0
  -30.0280  -13.3970   19.5070 N   0  0  0  0  0  0  0  0  0  0  0  0
  -31.7350  -14.8050   18.9850 O   0  0  0  0  0  0  0  0  0  0  0  0
  -30.0520  -15.5710   20.3390 N   0  0  0  0  0  0  0  0  0  0  0  0
  -29.3060  -15.1740   20.8900 H   0  0  0  0  0  0  0  0  0  0  0  0
  -25.3450  -13.8880   20.3720 C   0  0  0  0  0  0  0  0  0  0  0  0
  -24.3150  -13.1110   20.8280 C   0  0  0  0  0  0  0  0  0  0  0  0
  -24.7190  -11.7590   20.6130 C   0  0  0  0  0  0  0  0  0  0  0  0
  -26.3170  -13.0120   19.9190 N   0  0  0  0  0  0  0  0  0  0  0  0
  -25.9500  -11.7180   20.1160 N   0  0  0  0  0  0  0  0  0  0  0  0
  -23.9800  -10.5030   20.7990 C   0  0  0  0  0  0  0  0  0  0  0  0
  -24.4550   -9.4870   21.6570 C   0  0  0  0  0  3  0  0  0  0  0  0
  -23.7170   -8.2980   21.8350 C   0  0  0  0  0  3  0  0  0  0  0  0
  -22.4900   -8.1150   21.1540 C   0  0  0  0  0  0  0  0  0  0  0  0
  -22.0330   -9.1190   20.2820 C   0  0  0  0  0  3  0  0  0  0  0  0
  -22.7730  -10.3000   20.1020 C   0  0  0  0  0  3  0  0  0  0  0  0
  -21.7200   -6.9790   21.2420 O   0  0  0  0  0  0  0  0  0  0  0  0
  -21.6670   -6.2320   22.3910 C   0  0  0  0  0  0  0  0  0  0  0  0
  -21.2640   -6.7910   23.6240 C   0  0  0  0  0  3  0  0  0  0  0  0
  -21.1510   -5.9710   24.7640 C   0  0  0  0  0  3  0  0  0  0  0  0
  -21.4370   -4.5960   24.6760 C   0  0  0  0  0  0  0  0  0  0  0  0
  -21.8360   -4.0370   23.4490 C   0  0  0  0  0  3  0  0  0  0  0  0
  -21.9470   -4.8530   22.3090 C   0  0  0  0  0  0  0  0  0  0  0  0
  -22.3080   -4.3050   21.1250 F   0  0  0  0  0  0  0  0  0  0  0  0
  -21.3230   -3.8090   25.7720 F   0  0  0  0  0  0  0  0  0  0  0  0
  -22.9900  -13.5970   21.3410 C   0  0  0  0  0  0  0  0  0  0  0  0
  -22.3780  -12.8580   22.2600 N   0  0  0  0  0  0  0  0  0  0  0  0
  -22.5110  -14.6650   20.9620 O   0  0  0  0  0  0  0  0  0  0  0  0
  -22.7810  -11.9960   22.5930 H   0  0  0  0  0  0  0  0  0  0  0  0
  -21.4930  -13.1640   22.6390 H   0  0  0  0  0  0  0  0  0  0  0  0
  -25.5210  -15.2660   20.2830 N   0  0  0  0  0  0  0  0  0  0  0  0
  -24.7660  -15.9060   20.5100 H   0  0  0  0  0  0  0  0  0  0  0  0
  -26.2940  -15.7180   19.8130 H   0  0  0  0  0  0  0  0  0  0  0  0
  1  2  2  0
  1  6  1  0
  4  3  1  0
  5  3  1  0
  6 10  1  0
  6  4  1  0
  7  2  1  0
  8  1  1  0
  8  5  1  0
  8  9  1  6
 10 12  1  0
 11 22  2  0
 12 17  1  0
 13 21  1  0
 13 23  1  0
 14 20  1  0
 14 16  1  0
 15 21  1  0
 16 15  1  0
 17 16  2  0
 18 19  1  0
 18 12  2  0
 19 14  2  0
 20 13  1  0
 21 11  1  0
 23 25  2  0
 24 23  1  0
 26 24  1  0
 27 36  2  0
 27 32  1  0
 28 24  1  0
 28 32  1  0
 29 28  1  0
 30 31  1  0
 30 29  1  0
 31 27  1  0
 32 33  2  0
 33 34  1  0
 35 34  2  0
 36 35  1  0
 37 11  1  0
 37 38  1  0
 37 47  1  0
 38 41  1  0
 39 43  1  0
 39 38  1  0
 40 39  2  0
 43 42  1  0
 45 43  1  0
 45 46  1  0
 45 44  1  0
 47 50  1  1
 47 48  1  0
 49 47  1  0
 51 55  1  0
 51  8  1  0
 52 53  2  0
 52 55  1  0
 53 57  1  0
 54 56  1  0
 55 54  2  0
 56 58  1  0
 57 67  1  0
 57 56  2  0
 59 67  1  0
 60 65  1  0
 61 62  1  0
 61 60  1  0
 63 62  1  0
 63 72  1  0
 63 64  1  0
 65 59  1  0
 65 64  1  0
 66 59  2  0
 67 68  1  0
 69 70  2  0
 70 89  1  0
 71 74  1  0
 71 70  1  0
 72 73  1  0
 72 69  1  0
 73 71  2  0
 74 75  1  0
 75 76  2  0
 77 80  1  0
 77 76  1  0
 78 77  2  0
 79 78  1  0
 79 74  2  0
 80 81  1  0
 81 82  1  0
 82 83  2  0
 84 83  1  0
 84 88  1  0
 85 84  2  0
 86 81  2  0
 86 85  1  0
 87 86  1  0
 89 90  1  0
 90 92  1  0
 90 93  1  0
 91 89  2  0
 94 69  1  0
 94 95  1  0
 96 94  1  0
M  ISO  4   6 101  10 101  59 100  67 100
M  END
>  <TORSDO>  (74) 
F 18

>  <SCORE>  (74) 
-12.284

>  <name>  (74) 
73

>  <ligand_id>  (74) 
73

>  <original_smiles>  (74) 
[H]C(=C1C([H])(Oc2c([H])c([H])c3c(c2[H])C([H])([H])N(C(=O)C([H])(N([H])C(=O)C([H])(N([H])C([H])([H])[H])C([H])([H])[H])C(C([H])([H])[H])(C([H])([H])[H])C([H])([H])[H])C([H])(C(=O)N([H])C2([H])c4c([H])c([H])c([H])c([H])c4C([H])([H])C([H])([H])C2([H])[H])C3([H])[H])C([H])([H])C([H])([H])C([H])([H])[N+]1([H])C([H])([H])c1c([H])c([H])c(N([H])C(=O)N2C([H])([H])C([H])([H])C([H])([H])C([H])(n3nc(-c4c([H])c([H])c(Oc5c([H])c([H])c(F)c([H])c5F)c([H])c4[H])c(C(=O)N([H])[H])c3N([H])[H])C2([H])[H])c(C([H])([H])[H])c1[H])C([H])([H])[H]

>  <smiles>  (74) 
[H]C(=C1C([H])(Oc2c([H])c([H])c3c(c2[H])C([H])([H])N(C(=O)C([H])(N([H])C(=O)C([H])(N([H])C([H])([H])[H])C([H])([H])[H])C(C([H])([H])[H])(C([H])([H])[H])C([H])([H])[H])C([H])(C(=O)N([H])C2([H])c4c([H])c([H])c([H])c([H])c4C([H])([H])C([H])([H])C2([H])[H])C3([H])[H])C([H])([H])C([H])([H])C([H])([H])[N+]1([H])C([H])([H])c1c([H])c([H])c(N([H])C(=O)N2C([H])([H])C([H])([H])C([H])([H])C([H])(n3nc(-c4c([H])c([H])c(Oc5c([H])c([H])c(F)c([H])c5F)c([H])c4[H])c(C(=O)N([H])[H])c3N([H])[H])C2([H])[H])c(C([H])([H])[H])c1[H])C([H])([H])[H]

$$$$
74:0:0
     RDKit          3D

 94102  0  0  1  0  0  0  0  0999 V2000
  -29.7490  -21.6870   20.7190 C   0  0  0  0  0  0  0  0  0  0  0  0
  -29.8420  -22.0690   21.9930 N   0  0  0  0  0  4  0  0  0  0  0  0
  -29.5880  -22.7040   19.8080 N   0  0  0  0  0  0  0  0  0  0  0  0
  -29.9700  -21.3700   22.7090 H   0  0  0  0  0  0  0  0  0  0  0  0
  -29.7520  -23.0280   22.2790 H   0  0  0  0  0  0  0  0  0  0  0  0
  -29.5240  -22.4120   18.8400 H   0  0  0  0  0  0  0  0  0  0  0  0
  -31.0520  -19.5330   20.0750 C   0  0  0  0  0  3  0  0  0  0  0  0
  -31.1770  -18.1010   20.0630 C   0  0  0  0  0  3  0  0  0  0  0  0
  -28.8830  -17.9160   20.7460 C   0  0  0  0  0  3  0  0  0  0  0  0
  -29.8460  -20.1910   20.4610 C   0  0  0  0  0  0  0  0  0  0  0  0
  -30.0910  -17.2490   20.4190 C   0  0  0  0  0  0  0  0  0  0  0  0
  -28.7600  -19.3330   20.7800 C   0  0  0  0  0  0  0  0  0  0  0  0
  -27.5700  -19.8630   21.1540 F   0  0  0  0  0  0  0  0  0  0  0  0
  -30.8340  -14.7830   19.8870 C   0  0  0  0  0  0  0  0  0  0  0  0
  -30.5330  -12.5720   18.7770 C   0  0  0  0  0  2  0  0  0  0  0  0
  -29.4970  -12.7420   17.6410 C   0  0  0  0  0  2  0  0  0  0  0  0
  -28.0570  -12.6010   18.1730 C   0  0  0  0  0  2  0  0  0  0  0  0
  -27.8100  -13.4390   19.4550 C   0  0  0  0  0  3  0  0  0  0  0  0
  -28.9430  -13.2150   20.4840 C   0  0  0  0  0  2  0  0  0  0  0  0
  -30.2160  -13.5600   19.8270 N   0  0  0  0  0  0  0  0  0  0  0  0
  -31.9440  -14.9730   19.3740 O   0  0  0  0  0  0  0  0  0  0  0  0
  -30.0780  -15.7820   20.4410 N   0  0  0  0  0  0  0  0  0  0  0  0
  -29.2710  -15.3970   20.9050 H   0  0  0  0  0  0  0  0  0  0  0  0
  -25.4980  -14.0870   20.3740 C   0  0  0  0  0  0  0  0  0  0  0  0
  -24.4370  -13.3330   20.7980 C   0  0  0  0  0  0  0  0  0  0  0  0
  -24.8490  -11.9690   20.6810 C   0  0  0  0  0  0  0  0  0  0  0  0
  -26.4920  -13.1830   20.0280 N   0  0  0  0  0  0  0  0  0  0  0  0
  -26.1110  -11.9040   20.2720 N   0  0  0  0  0  0  0  0  0  0  0  0
  -24.0980  -10.7230   20.8800 C   0  0  0  0  0  0  0  0  0  0  0  0
  -24.5260   -9.7430   21.8010 C   0  0  0  0  0  3  0  0  0  0  0  0
  -23.7770   -8.5610   21.9880 C   0  0  0  0  0  3  0  0  0  0  0  0
  -22.5860   -8.3510   21.2520 C   0  0  0  0  0  0  0  0  0  0  0  0
  -22.1780   -9.3210   20.3190 C   0  0  0  0  0  3  0  0  0  0  0  0
  -22.9270  -10.4940   20.1310 C   0  0  0  0  0  3  0  0  0  0  0  0
  -21.8090   -7.2230   21.3490 O   0  0  0  0  0  0  0  0  0  0  0  0
  -21.6950   -6.5250   22.5260 C   0  0  0  0  0  0  0  0  0  0  0  0
  -21.2090   -7.1300   23.7050 C   0  0  0  0  0  3  0  0  0  0  0  0
  -21.0420   -6.3600   24.8740 C   0  0  0  0  0  3  0  0  0  0  0  0
  -21.3510   -4.9860   24.8630 C   0  0  0  0  0  0  0  0  0  0  0  0
  -21.8300   -4.3810   23.6870 C   0  0  0  0  0  3  0  0  0  0  0  0
  -21.9980   -5.1490   22.5210 C   0  0  0  0  0  0  0  0  0  0  0  0
  -22.4400   -4.5580   21.3850 F   0  0  0  0  0  0  0  0  0  0  0  0
  -21.1840   -4.2440   25.9820 F   0  0  0  0  0  0  0  0  0  0  0  0
  -23.0810  -13.8410   21.1940 C   0  0  0  0  0  0  0  0  0  0  0  0
  -22.4050  -13.1420   22.1020 N   0  0  0  0  0  0  0  0  0  0  0  0
  -22.6310  -14.8890   20.7350 O   0  0  0  0  0  0  0  0  0  0  0  0
  -22.7830  -12.2920   22.4930 H   0  0  0  0  0  0  0  0  0  0  0  0
  -21.4980  -13.4630   22.4090 H   0  0  0  0  0  0  0  0  0  0  0  0
  -25.6950  -15.4580   20.2310 N   0  0  0  0  0  0  0  0  0  0  0  0
  -24.9510  -16.1250   20.4040 H   0  0  0  0  0  0  0  0  0  0  0  0
  -26.5050  -15.8750   19.7920 H   0  0  0  0  0  0  0  0  0  0  0  0
  -29.6640  -24.2190   20.0280 C   0  0  0  0  0  3  0  0  0  0  0  0
  -28.4550  -25.1300   19.5460 C   0  0  0  0  0  3  0  0  0  0  0  0
  -28.5490  -26.5900   19.7890 O   0  0  0  0  0  0  0  0  0  0  0  0
  -24.5270  -31.6080   23.0520 C   0  0  0  0  0  0  0  0  0  0  0  0
  -27.3730  -27.3590   19.7770 C   0  0  0  0  0  0  0  0  0  0  0  0
  -23.3920  -30.2230   21.3500 C   0  0  0  0  0  3  0  0  0  0  0  0
  -24.9180  -28.8250   19.8500 C   0  0  0  0  0  0  0  0  0  0  0  0
  -25.9070  -30.6940   21.1720 C   0  0  0  0  0  2  0  0  0  0  0  0
  -26.0600  -29.3540   20.4630 C   0  0  0  0  0  0  0  0  0  0  0  0
  -27.2900  -28.6340   20.4160 C   0  0  0  0  0  3  0  0  0  0  0  0
  -26.2030  -26.8790   19.1450 C   0  0  0  0  0  3  0  0  0  0  0  0
  -24.9900  -27.5920   19.1830 C   0  0  0  0  0  3  0  0  0  0  0  0
  -23.6340  -29.6260   19.9400 C   0  0  0  0  0  2  0  0  0  0  0  0
  -24.6270  -30.8580   21.9150 N   0  0  0  0  0  0  0  0  0  0  0  0
  -23.4330  -31.8010   23.6020 O   0  0  0  0  0  0  0  0  0  0  0  0
  -22.7920  -29.1280   22.2640 C   0  0  0  0  0  0  0  0  0  0  0  0
  -21.4800  -28.8780   22.1270 N   0  0  0  0  0  0  0  0  0  0  0  0
  -23.5080  -28.5070   23.0560 O   0  0  0  0  0  0  0  0  0  0  0  0
  -20.9580  -29.4340   21.4650 H   0  0  0  0  0  0  0  0  0  0  0  0
  -18.1740  -27.4850   22.5890 C   0  0  0  0  0  0  0  0  0  0  0  0
  -20.7170  -27.8620   22.8560 C   0  0  0  0  0  3  0  0  0  0  0  0
  -20.8880  -26.4680   22.2090 C   0  0  0  0  0  2  0  0  0  0  0  0
  -19.7960  -26.1400   21.1880 C   0  0  0  0  0  2  0  0  0  0  0  0
  -18.4130  -26.1810   21.8460 C   0  0  0  0  0  2  0  0  0  0  0  0
  -19.2550  -28.2820   23.0490 C   0  0  0  0  0  0  0  0  0  0  0  0
  -18.9760  -29.5010   23.7050 C   0  0  0  0  0  3  0  0  0  0  0  0
  -17.6500  -29.9240   23.9030 C   0  0  0  0  0  3  0  0  0  0  0  0
  -16.5820  -29.1250   23.4580 C   0  0  0  0  0  3  0  0  0  0  0  0
  -16.8450  -27.9060   22.8070 C   0  0  0  0  0  3  0  0  0  0  0  0
  -25.7780  -32.2810   23.6970 C   0  0  0  0  0  3  0  0  0  0  0  0
  -26.3150  -31.5060   24.9630 C   0  0  1  0  0  0  0  0  0  0  0  0
  -25.2230  -31.1980   26.0140 C   0  0  0  0  0  1  0  0  0  0  0  0
  -26.9620  -30.1640   24.5480 C   0  0  0  0  0  1  0  0  0  0  0  0
  -27.4230  -32.3340   25.6540 C   0  0  0  0  0  1  0  0  0  0  0  0
  -25.4060  -33.6580   24.0540 N   0  0  0  0  0  0  0  0  0  0  0  0
  -25.6990  -34.7410   23.3210 C   0  0  0  0  0  0  0  0  0  0  0  0
  -26.3800  -34.6870   22.2930 O   0  0  0  0  0  0  0  0  0  0  0  0
  -24.8000  -33.7690   24.8540 H   0  0  0  0  0  0  0  0  0  0  0  0
  -23.8930  -36.4620   22.9990 C   0  0  0  0  0  1  0  0  0  0  0  0
  -25.1500  -36.0970   23.8040 C   0  0  0  0  0  3  0  0  0  0  0  0
  -27.2370  -37.0650   24.6620 C   0  0  0  0  0  1  0  0  0  0  0  0
  -26.1350  -37.1960   23.7120 N   0  0  0  0  0  0  0  0  0  0  0  0
  -25.6870  -38.0960   23.8680 H   0  0  0  0  0  0  0  0  0  0  0  0
  1  2  2  0
  2  5  1  0
  2  4  1  0
  3 52  1  0
  3  1  1  0
  6  3  1  0
  7 10  1  0
  8  7  2  0
  8 11  1  0
  9 12  1  0
 10  1  1  0
 10 12  2  0
 11 22  1  0
 11  9  2  0
 12 13  1  0
 14 22  1  0
 15 20  1  0
 16 17  1  0
 16 15  1  0
 18 17  1  0
 18 27  1  0
 18 19  1  0
 20 14  1  0
 20 19  1  0
 21 14  2  0
 22 23  1  0
 24 25  2  0
 25 44  1  0
 26 25  1  0
 26 29  1  0
 27 28  1  0
 27 24  1  0
 28 26  2  0
 29 30  1  0
 30 31  2  0
 32 35  1  0
 32 31  1  0
 33 32  2  0
 34 33  1  0
 34 29  2  0
 35 36  1  0
 36 37  1  0
 37 38  2  0
 39 38  1  0
 39 43  1  0
 40 39  2  0
 41 36  2  0
 41 40  1  0
 42 41  1  0
 44 45  1  0
 45 48  1  0
 45 47  1  0
 46 44  2  0
 49 24  1  0
 49 50  1  0
 51 49  1  0
 53 54  1  0
 53 52  2  0
 55 66  2  0
 56 54  1  0
 56 61  1  0
 57 65  1  0
 57 67  1  0
 58 64  1  0
 58 60  1  0
 59 65  1  0
 60 59  1  0
 61 60  2  0
 62 63  1  0
 62 56  2  0
 63 58  2  0
 64 57  1  0
 65 55  1  0
 67 69  2  0
 68 67  1  0
 70 68  1  0
 71 80  2  0
 71 76  1  0
 72 68  1  0
 72 76  1  0
 73 72  1  0
 74 75  1  0
 74 73  1  0
 75 71  1  0
 76 77  2  0
 77 78  1  0
 79 78  2  0
 80 79  1  0
 81 55  1  0
 81 86  1  0
 81 82  1  0
 82 85  1  1
 82 83  1  0
 84 82  1  0
 86 89  1  0
 87 91  1  0
 87 86  1  0
 88 87  2  0
 91 90  1  0
 93 91  1  0
 93 94  1  0
 93 92  1  0
M  ISO  4  14 100  22 100  53 101  54 101
M  END
>  <TORSDO>  (75) 
F 19

>  <SCORE>  (75) 
-12.894

>  <name>  (75) 
74

>  <ligand_id>  (75) 
74

>  <original_smiles>  (75) 
[H]c1c([H])c([H])c2c(c1[H])C([H])([H])C([H])([H])C([H])([H])C2([H])N([H])C(=O)C1([H])N(C(=O)C([H])(N([H])C(=O)C([H])(N([H])C([H])([H])[H])C([H])([H])[H])C(C([H])([H])[H])(C([H])([H])[H])C([H])([H])[H])C([H])([H])c2c([H])c(OC([H])([H])C([H])([H])[N+]([H])=C(c3c([H])c([H])c(N([H])C(=O)N4C([H])([H])C([H])([H])C([H])([H])C([H])(n5nc(-c6c([H])c([H])c(Oc7c([H])c([H])c(F)c([H])c7F)c([H])c6[H])c(C(=O)N([H])[H])c5N([H])[H])C4([H])[H])c([H])c3F)N([H])[H])c([H])c([H])c2C1([H])[H]

>  <smiles>  (75) 
[H]c1c([H])c([H])c2c(c1[H])C([H])([H])C([H])([H])C([H])([H])C2([H])N([H])C(=O)C1([H])N(C(=O)C([H])(N([H])C(=O)C([H])(N([H])C([H])([H])[H])C([H])([H])[H])C(C([H])([H])[H])(C([H])([H])[H])C([H])([H])[H])C([H])([H])c2c([H])c(OC([H])([H])C([H])([H])[N+]([H])=C(c3c([H])c([H])c(N([H])C(=O)N4C([H])([H])C([H])([H])C([H])([H])C([H])(n5nc(-c6c([H])c([H])c(Oc7c([H])c([H])c(F)c([H])c7F)c([H])c6[H])c(C(=O)N([H])[H])c5N([H])[H])C4([H])[H])c([H])c3F)N([H])[H])c([H])c([H])c2C1([H])[H]

$$$$
75:0:0
     RDKit          3D

 95104  0  0  1  0  0  0  0  0999 V2000
  -30.2970  -22.1500   20.5930 C   0  0  0  0  0  0  0  0  0  0  0  0
  -31.0810  -22.8390   23.3290 C   0  0  0  0  0  2  0  0  0  0  0  0
  -30.8420  -21.3650   23.0090 C   0  0  0  0  0  2  0  0  0  0  0  0
  -30.0950  -23.6990   22.5340 C   0  0  0  0  0  2  0  0  0  0  0  0
  -31.0080  -21.0890   21.4960 C   0  0  0  0  0  3  0  0  0  0  0  0
  -30.0990  -23.4060   21.0900 N   0  0  0  0  0  0  0  0  0  0  0  0
  -30.0490  -21.8740   19.4150 O   0  0  0  0  0  0  0  0  0  0  0  0
  -31.8290  -18.7980   20.6570 C   0  0  0  0  0  3  0  0  0  0  0  0
  -31.6590  -17.4100   20.4390 C   0  0  0  0  0  3  0  0  0  0  0  0
  -29.5100  -18.9830   21.3290 C   0  0  0  0  0  3  0  0  0  0  0  0
  -30.7640  -19.6060   21.1240 C   0  0  0  0  0  0  0  0  0  0  0  0
  -30.4100  -16.7840   20.6850 C   0  0  0  0  0  0  0  0  0  0  0  0
  -29.3350  -17.5970   21.1150 C   0  0  0  0  0  0  0  0  0  0  0  0
  -27.7810  -16.8950   21.4070 Cl  0  0  0  0  0  0  0  0  0  0  0  0
  -30.7580  -14.4210   19.8030 C   0  0  0  0  0  0  0  0  0  0  0  0
  -30.2940  -12.3380   18.5570 C   0  0  0  0  0  2  0  0  0  0  0  0
  -29.2560  -12.6390   17.4580 C   0  0  0  0  0  2  0  0  0  0  0  0
  -27.8200  -12.5200   18.0060 C   0  0  0  0  0  2  0  0  0  0  0  0
  -27.6230  -13.2880   19.3410 C   0  0  0  0  0  3  0  0  0  0  0  0
  -28.7630  -12.9610   20.3330 C   0  0  0  0  0  2  0  0  0  0  0  0
  -30.0450  -13.2660   19.6710 N   0  0  0  0  0  0  0  0  0  0  0  0
  -31.8360  -14.6010   19.2310 O   0  0  0  0  0  0  0  0  0  0  0  0
  -30.1380  -15.3840   20.5150 N   0  0  0  0  0  0  0  0  0  0  0  0
  -29.2860  -15.0770   20.9640 H   0  0  0  0  0  0  0  0  0  0  0  0
  -25.3100  -13.9300   20.2710 C   0  0  0  0  0  0  0  0  0  0  0  0
  -24.2530  -13.1720   20.6990 C   0  0  0  0  0  0  0  0  0  0  0  0
  -24.6670  -11.8110   20.5710 C   0  0  0  0  0  0  0  0  0  0  0  0
  -26.3060  -13.0300   19.9210 N   0  0  0  0  0  0  0  0  0  0  0  0
  -25.9250  -11.7480   20.1550 N   0  0  0  0  0  0  0  0  0  0  0  0
  -23.9190  -10.5620   20.7680 C   0  0  0  0  0  0  0  0  0  0  0  0
  -24.3360   -9.5920   21.7060 C   0  0  0  0  0  3  0  0  0  0  0  0
  -23.5900   -8.4070   21.8910 C   0  0  0  0  0  3  0  0  0  0  0  0
  -22.4130   -8.1850   21.1380 C   0  0  0  0  0  0  0  0  0  0  0  0
  -22.0150   -9.1450   20.1900 C   0  0  0  0  0  3  0  0  0  0  0  0
  -22.7600  -10.3200   20.0030 C   0  0  0  0  0  3  0  0  0  0  0  0
  -21.6390   -7.0540   21.2320 O   0  0  0  0  0  0  0  0  0  0  0  0
  -21.4830   -6.3850   22.4200 C   0  0  0  0  0  0  0  0  0  0  0  0
  -20.9840   -7.0250   23.5760 C   0  0  0  0  0  3  0  0  0  0  0  0
  -20.7740   -6.2830   24.7550 C   0  0  0  0  0  3  0  0  0  0  0  0
  -21.0530   -4.9030   24.7790 C   0  0  0  0  0  0  0  0  0  0  0  0
  -21.5440   -4.2640   23.6280 C   0  0  0  0  0  3  0  0  0  0  0  0
  -21.7570   -5.0030   22.4510 C   0  0  0  0  0  0  0  0  0  0  0  0
  -22.2110   -4.3770   21.3370 F   0  0  0  0  0  0  0  0  0  0  0  0
  -20.8440   -4.1890   25.9110 F   0  0  0  0  0  0  0  0  0  0  0  0
  -22.8980  -13.6750   21.1080 C   0  0  0  0  0  0  0  0  0  0  0  0
  -22.2400  -12.9820   22.0320 N   0  0  0  0  0  0  0  0  0  0  0  0
  -22.4370  -14.7170   20.6470 O   0  0  0  0  0  0  0  0  0  0  0  0
  -22.6300  -12.1420   22.4330 H   0  0  0  0  0  0  0  0  0  0  0  0
  -21.3340  -13.3000   22.3430 H   0  0  0  0  0  0  0  0  0  0  0  0
  -25.5000  -15.3030   20.1340 N   0  0  0  0  0  0  0  0  0  0  0  0
  -24.7760  -15.9760   20.3530 H   0  0  0  0  0  0  0  0  0  0  0  0
  -26.3470  -15.7350   19.7890 H   0  0  0  0  0  0  0  0  0  0  0  0
  -29.9590  -24.6110   20.2400 C   0  0  0  0  0  2  0  0  0  0  0  0
  -28.5140  -25.1630   20.1410 C   0  0  0  0  0  2  0  0  0  0  0  0
  -28.5430  -26.5840   19.9180 O   0  0  0  0  0  0  0  0  0  0  0  0
  -24.5230  -31.6140   22.9790 C   0  0  0  0  0  0  0  0  0  0  0  0
  -27.3320  -27.2500   19.9220 C   0  0  0  0  0  0  0  0  0  0  0  0
  -23.3660  -30.1520   21.3540 C   0  0  0  0  0  3  0  0  0  0  0  0
  -24.8740  -28.6580   19.9370 C   0  0  0  0  0  0  0  0  0  0  0  0
  -25.8760  -30.6070   21.1440 C   0  0  0  0  0  2  0  0  0  0  0  0
  -26.0130  -29.2360   20.5110 C   0  0  0  0  0  0  0  0  0  0  0  0
  -27.2460  -28.5420   20.4950 C   0  0  0  0  0  3  0  0  0  0  0  0
  -26.1720  -26.6870   19.3420 C   0  0  0  0  0  3  0  0  0  0  0  0
  -24.9490  -27.3840   19.3470 C   0  0  0  0  0  3  0  0  0  0  0  0
  -23.5950  -29.4630   19.9830 C   0  0  0  0  0  2  0  0  0  0  0  0
  -24.6060  -30.8070   21.8830 N   0  0  0  0  0  0  0  0  0  0  0  0
  -23.4350  -31.8500   23.5210 O   0  0  0  0  0  0  0  0  0  0  0  0
  -22.7570  -29.1180   22.3290 C   0  0  0  0  0  0  0  0  0  0  0  0
  -21.4430  -28.8750   22.2000 N   0  0  0  0  0  0  0  0  0  0  0  0
  -23.4650  -28.5330   23.1540 O   0  0  0  0  0  0  0  0  0  0  0  0
  -20.9330  -29.3960   21.5010 H   0  0  0  0  0  0  0  0  0  0  0  0
  -18.1200  -27.5460   22.7130 C   0  0  0  0  0  0  0  0  0  0  0  0
  -20.6660  -27.9110   22.9790 C   0  0  0  0  0  3  0  0  0  0  0  0
  -20.8270  -26.4810   22.4150 C   0  0  0  0  0  2  0  0  0  0  0  0
  -19.7380  -26.1050   21.4050 C   0  0  0  0  0  2  0  0  0  0  0  0
  -18.3510  -26.2000   22.0480 C   0  0  0  0  0  2  0  0  0  0  0  0
  -19.2070  -28.3580   23.1340 C   0  0  0  0  0  0  0  0  0  0  0  0
  -18.9360  -29.6170   23.7110 C   0  0  0  0  0  3  0  0  0  0  0  0
  -17.6120  -30.0660   23.8730 C   0  0  0  0  0  3  0  0  0  0  0  0
  -16.5410  -29.2520   23.4660 C   0  0  0  0  0  3  0  0  0  0  0  0
  -16.7960  -27.9940   22.8920 C   0  0  0  0  0  3  0  0  0  0  0  0
  -25.7860  -32.2990   23.5900 C   0  0  0  0  0  3  0  0  0  0  0  0
  -26.3320  -31.5650   24.8760 C   0  0  1  0  0  0  0  0  0  0  0  0
  -25.2490  -31.2910   25.9470 C   0  0  0  0  0  1  0  0  0  0  0  0
  -26.9740  -30.2080   24.5010 C   0  0  0  0  0  1  0  0  0  0  0  0
  -27.4480  -32.4150   25.5300 C   0  0  0  0  0  1  0  0  0  0  0  0
  -25.4270  -33.6890   23.8970 N   0  0  0  0  0  0  0  0  0  0  0  0
  -25.7260  -34.7410   23.1210 C   0  0  0  0  0  0  0  0  0  0  0  0
  -26.4020  -34.6450   22.0940 O   0  0  0  0  0  0  0  0  0  0  0  0
  -24.8250  -33.8340   24.6940 H   0  0  0  0  0  0  0  0  0  0  0  0
  -23.9410  -36.4690   22.7300 C   0  0  0  0  0  1  0  0  0  0  0  0
  -25.1890  -36.1180   23.5550 C   0  0  0  0  0  3  0  0  0  0  0  0
  -27.2850  -37.0880   24.3910 C   0  0  0  0  0  1  0  0  0  0  0  0
  -26.1890  -37.2040   23.4330 N   0  0  0  0  0  0  0  0  0  0  0  0
  -25.7500  -38.1120   23.5580 H   0  0  0  0  0  0  0  0  0  0  0  0
  1  6  1  0
  1  5  1  0
  3  2  1  0
  4  2  1  0
  5 11  1  0
  5  3  1  0
  6  4  1  0
  7  1  2  0
  8 11  1  0
  9  8  2  0
  9 12  1  0
 11 10  2  0
 12 13  2  0
 13 10  1  0
 13 14  1  0
 15 23  1  0
 16 21  1  0
 17 18  1  0
 17 16  1  0
 19 18  1  0
 19 28  1  0
 19 20  1  0
 21 15  1  0
 21 20  1  0
 22 15  2  0
 23 12  1  0
 23 24  1  0
 25 26  2  0
 26 45  1  0
 27 26  1  0
 27 30  1  0
 28 29  1  0
 28 25  1  0
 29 27  2  0
 30 31  1  0
 31 32  2  0
 33 36  1  0
 33 32  1  0
 34 33  2  0
 35 34  1  0
 35 30  2  0
 36 37  1  0
 37 42  2  0
 37 38  1  0
 38 39  2  0
 39 40  1  0
 40 44  1  0
 41 40  2  0
 42 41  1  0
 43 42  1  0
 45 46  1  0
 46 49  1  0
 46 48  1  0
 47 45  2  0
 50 25  1  0
 50 51  1  0
 52 50  1  0
 53  6  1  0
 54 53  1  0
 55 57  1  0
 55 54  1  0
 56 67  2  0
 57 62  1  0
 58 66  1  0
 58 68  1  0
 59 65  1  0
 59 61  1  0
 60 66  1  0
 61 60  1  0
 62 61  2  0
 63 64  1  0
 63 57  2  0
 64 59  2  0
 65 58  1  0
 66 56  1  0
 68 70  2  0
 69 68  1  0
 71 69  1  0
 72 81  2  0
 72 77  1  0
 73 69  1  0
 73 77  1  0
 74 73  1  0
 75 76  1  0
 75 74  1  0
 76 72  1  0
 77 78  2  0
 78 79  1  0
 80 79  2  0
 81 80  1  0
 82 56  1  0
 82 87  1  0
 82 83  1  0
 83 86  1  1
 83 84  1  0
 85 83  1  0
 87 90  1  0
 88 92  1  0
 88 87  1  0
 89 88  2  0
 92 91  1  0
 94 92  1  0
 94 95  1  0
 94 93  1  0
M  ISO  4  15 100  23 100  54 101  55 101
M  END
>  <TORSDO>  (76) 
F 19

>  <SCORE>  (76) 
-10.727

>  <name>  (76) 
75

>  <ligand_id>  (76) 
75

>  <original_smiles>  (76) 
[H]c1c([H])c([H])c2c(c1[H])C([H])([H])C([H])([H])C([H])([H])C2([H])N([H])C(=O)C1([H])N(C(=O)C([H])(N([H])C(=O)C([H])(N([H])C([H])([H])[H])C([H])([H])[H])C(C([H])([H])[H])(C([H])([H])[H])C([H])([H])[H])C([H])([H])c2c([H])c(OC([H])([H])C([H])([H])N3C(=O)C([H])(c4c([H])c([H])c(N([H])C(=O)N5C([H])([H])C([H])([H])C([H])([H])C([H])(n6nc(-c7c([H])c([H])c(Oc8c([H])c([H])c(F)c([H])c8F)c([H])c7[H])c(C(=O)N([H])[H])c6N([H])[H])C5([H])[H])c(Cl)c4[H])C([H])([H])C([H])([H])C3([H])[H])c([H])c([H])c2C1([H])[H]

>  <smiles>  (76) 
[H]c1c([H])c([H])c2c(c1[H])C([H])([H])C([H])([H])C([H])([H])C2([H])N([H])C(=O)C1([H])N(C(=O)C([H])(N([H])C(=O)C([H])(N([H])C([H])([H])[H])C([H])([H])[H])C(C([H])([H])[H])(C([H])([H])[H])C([H])([H])[H])C([H])([H])c2c([H])c(OC([H])([H])C([H])([H])N3C(=O)C([H])(c4c([H])c([H])c(N([H])C(=O)N5C([H])([H])C([H])([H])C([H])([H])C([H])(n6nc(-c7c([H])c([H])c(Oc8c([H])c([H])c(F)c([H])c8F)c([H])c7[H])c(C(=O)N([H])[H])c6N([H])[H])C5([H])[H])c(Cl)c4[H])C([H])([H])C([H])([H])C3([H])[H])c([H])c([H])c2C1([H])[H]

$$$$
76:0:0
     RDKit          3D

 95104  0  0  1  0  0  0  0  0999 V2000
  -30.0040  -23.5690   21.0590 C   0  0  0  0  0  0  0  0  0  0  0  0
  -30.9350  -24.0110   21.9220 C   0  0  0  0  0  2  0  0  0  0  0  0
  -29.5220  -24.3600   19.8280 C   0  0  0  0  0  2  0  0  0  0  0  0
  -27.3490  -24.0840   21.0450 C   0  0  0  0  0  2  0  0  0  0  0  0
  -27.7600  -22.5630   20.8350 C   0  0  0  0  0  2  0  0  0  0  0  0
  -28.1120  -24.9910   20.0150 C   0  0  0  0  0  3  0  0  0  0  0  0
  -29.1490  -22.3550   21.3660 N   0  0  1  0  0  4  0  0  0  0  0  0
  -28.9550  -22.4300   22.3540 H   0  0  0  0  0  0  0  0  0  0  0  0
  -28.2080  -26.4500   20.2220 O   0  0  0  0  0  0  0  0  0  0  0  0
  -24.5470  -31.8670   23.0810 C   0  0  0  0  0  0  0  0  0  0  0  0
  -27.0900  -27.2790   20.0880 C   0  0  0  0  0  0  0  0  0  0  0  0
  -23.3300  -30.4560   21.4710 C   0  0  0  0  0  3  0  0  0  0  0  0
  -24.7530  -28.9110   20.0240 C   0  0  0  0  0  0  0  0  0  0  0  0
  -25.8650  -30.7770   21.2530 C   0  0  0  0  0  2  0  0  0  0  0  0
  -25.9280  -29.3990   20.6130 C   0  0  0  0  0  0  0  0  0  0  0  0
  -27.1030  -28.5980   20.6250 C   0  0  0  0  0  3  0  0  0  0  0  0
  -25.8980  -26.8370   19.4670 C   0  0  0  0  0  3  0  0  0  0  0  0
  -24.7450  -27.6420   19.4270 C   0  0  0  0  0  3  0  0  0  0  0  0
  -23.5170  -29.7860   20.0860 C   0  0  0  0  0  2  0  0  0  0  0  0
  -24.6020  -31.0500   21.9910 N   0  0  0  0  0  0  0  0  0  0  0  0
  -23.4660  -32.1430   23.6230 O   0  0  0  0  0  0  0  0  0  0  0  0
  -22.6870  -29.4350   22.4410 C   0  0  0  0  0  0  0  0  0  0  0  0
  -21.3590  -29.2660   22.3410 N   0  0  0  0  0  0  0  0  0  0  0  0
  -23.3810  -28.8020   23.2400 O   0  0  0  0  0  0  0  0  0  0  0  0
  -20.8630  -29.8250   21.6610 H   0  0  0  0  0  0  0  0  0  0  0  0
  -17.9810  -28.1140   22.9220 C   0  0  0  0  0  0  0  0  0  0  0  0
  -20.5480  -28.3350   23.1270 C   0  0  0  0  0  3  0  0  0  0  0  0
  -20.6170  -26.9060   22.5410 C   0  0  0  0  0  2  0  0  0  0  0  0
  -19.4820  -26.6030   21.5570 C   0  0  0  0  0  2  0  0  0  0  0  0
  -18.1180  -26.7670   22.2350 C   0  0  0  0  0  2  0  0  0  0  0  0
  -19.1200  -28.8580   23.3260 C   0  0  0  0  0  0  0  0  0  0  0  0
  -18.9340  -30.1210   23.9300 C   0  0  0  0  0  3  0  0  0  0  0  0
  -17.6410  -30.6390   24.1300 C   0  0  0  0  0  3  0  0  0  0  0  0
  -16.5160  -29.8910   23.7420 C   0  0  0  0  0  3  0  0  0  0  0  0
  -16.6870  -28.6290   23.1450 C   0  0  0  0  0  3  0  0  0  0  0  0
  -25.8310  -32.5080   23.6870 C   0  0  0  0  0  3  0  0  0  0  0  0
  -25.5000  -33.8930   24.0510 N   0  0  0  0  0  0  0  0  0  0  0  0
  -25.8040  -34.9700   23.3140 C   0  0  0  0  0  0  0  0  0  0  0  0
  -26.4650  -34.9010   22.2750 O   0  0  0  0  0  0  0  0  0  0  0  0
  -24.9070  -34.0190   24.8590 H   0  0  0  0  0  0  0  0  0  0  0  0
  -24.0440  -36.7420   23.0120 C   0  0  0  0  0  1  0  0  0  0  0  0
  -25.2970  -36.3390   23.8090 C   0  0  0  0  0  3  0  0  0  0  0  0
  -27.4250  -37.2320   24.6430 C   0  0  0  0  0  1  0  0  0  0  0  0
  -26.3120  -37.4110   23.7170 N   0  0  0  0  0  0  0  0  0  0  0  0
  -25.8950  -38.3210   23.8930 H   0  0  0  0  0  0  0  0  0  0  0  0
  -26.3830  -31.7250   24.9400 C   0  0  1  0  0  0  0  0  0  0  0  0
  -25.3150  -31.4480   26.0240 C   0  0  0  0  0  1  0  0  0  0  0  0
  -26.9810  -30.3650   24.5120 C   0  0  0  0  0  1  0  0  0  0  0  0
  -27.5340  -32.5280   25.5920 C   0  0  0  0  0  1  0  0  0  0  0  0
  -29.8960  -21.0140   21.4260 C   0  0  0  0  0  2  0  0  0  0  0  0
  -29.6030  -19.8190   19.1920 C   0  0  0  0  0  3  0  0  0  0  0  0
  -29.7490  -18.6710   18.3950 C   0  0  0  0  0  3  0  0  0  0  0  0
  -29.7210  -18.3840   21.1630 C   0  0  0  0  0  3  0  0  0  0  0  0
  -29.6310  -19.7130   20.5930 C   0  0  0  0  0  0  0  0  0  0  0  0
  -29.9260  -17.3890   18.9540 C   0  0  0  0  0  0  0  0  0  0  0  0
  -29.8720  -17.1860   20.3680 C   0  0  0  0  0  0  0  0  0  0  0  0
  -30.2180  -16.2840   17.9560 C   0  0  0  0  0  1  0  0  0  0  0  0
  -30.6530  -14.7250   20.6770 C   0  0  0  0  0  0  0  0  0  0  0  0
  -30.4960  -12.4190   19.7490 C   0  0  0  0  0  2  0  0  0  0  0  0
  -29.6230  -12.4180   18.4710 C   0  0  0  0  0  2  0  0  0  0  0  0
  -28.1170  -12.3610   18.8000 C   0  0  0  0  0  2  0  0  0  0  0  0
  -27.7010  -13.2720   19.9840 C   0  0  0  0  0  3  0  0  0  0  0  0
  -28.6930  -13.1870   21.1640 C   0  0  0  0  0  2  0  0  0  0  0  0
  -30.0300  -13.5020   20.6440 N   0  0  0  0  0  0  0  0  0  0  0  0
  -31.8290  -14.8380   20.3260 O   0  0  0  0  0  0  0  0  0  0  0  0
  -29.8850  -15.8360   20.9720 N   0  0  0  0  0  0  0  0  0  0  0  0
  -29.0910  -15.6370   21.5640 H   0  0  0  0  0  0  0  0  0  0  0  0
  -25.2740  -13.8810   20.5410 C   0  0  0  0  0  0  0  0  0  0  0  0
  -24.1890  -13.1190   20.8610 C   0  0  0  0  0  0  0  0  0  0  0  0
  -24.6520  -11.7650   20.8940 C   0  0  0  0  0  0  0  0  0  0  0  0
  -26.3310  -12.9970   20.3990 N   0  0  0  0  0  0  0  0  0  0  0  0
  -25.9580  -11.7220   20.6770 N   0  0  0  0  0  0  0  0  0  0  0  0
  -23.9160  -10.5080   21.0760 C   0  0  0  0  0  0  0  0  0  0  0  0
  -24.3200   -9.5470   22.0310 C   0  0  0  0  0  3  0  0  0  0  0  0
  -23.5860   -8.3530   22.1980 C   0  0  0  0  0  3  0  0  0  0  0  0
  -22.4350   -8.1090   21.4120 C   0  0  0  0  0  0  0  0  0  0  0  0
  -22.0530   -9.0550   20.4460 C   0  0  0  0  0  3  0  0  0  0  0  0
  -22.7850  -10.2420   20.2780 C   0  0  0  0  0  3  0  0  0  0  0  0
  -21.6760   -6.9650   21.4920 O   0  0  0  0  0  0  0  0  0  0  0  0
  -21.6110   -6.2250   22.6430 C   0  0  0  0  0  0  0  0  0  0  0  0
  -21.1970   -6.7870   23.8700 C   0  0  0  0  0  3  0  0  0  0  0  0
  -21.0740   -5.9720   25.0120 C   0  0  0  0  0  3  0  0  0  0  0  0
  -21.3570   -4.5950   24.9300 C   0  0  0  0  0  0  0  0  0  0  0  0
  -21.7650   -4.0320   23.7070 C   0  0  0  0  0  3  0  0  0  0  0  0
  -21.8870   -4.8450   22.5670 C   0  0  0  0  0  0  0  0  0  0  0  0
  -22.2580   -4.2940   21.3860 F   0  0  0  0  0  0  0  0  0  0  0  0
  -21.2340   -3.8090   26.0250 F   0  0  0  0  0  0  0  0  0  0  0  0
  -22.7790  -13.5950   21.0490 C   0  0  0  0  0  0  0  0  0  0  0  0
  -22.0220  -12.9150   21.8990 N   0  0  0  0  0  0  0  0  0  0  0  0
  -22.3650  -14.6050   20.4780 O   0  0  0  0  0  0  0  0  0  0  0  0
  -22.3770  -12.0940   22.3660 H   0  0  0  0  0  0  0  0  0  0  0  0
  -21.0770  -13.2110   22.0960 H   0  0  0  0  0  0  0  0  0  0  0  0
  -25.4620  -15.2480   20.3340 N   0  0  0  0  0  0  0  0  0  0  0  0
  -24.7100  -15.9260   20.3890 H   0  0  0  0  0  0  0  0  0  0  0  0
  -26.3410  -15.6590   20.0430 H   0  0  0  0  0  0  0  0  0  0  0  0
  1  7  1  0
  1  2  2  0
  3  6  1  0
  3  1  1  0
  5  4  1  0
  5  7  1  0
  6  9  1  0
  6  4  1  0
  7 50  1  0
  7  8  1  1
 10 21  2  0
 11  9  1  0
 11 16  1  0
 12 20  1  0
 12 22  1  0
 13 19  1  0
 13 15  1  0
 14 20  1  0
 15 16  2  0
 15 14  1  0
 17 11  2  0
 18 17  1  0
 18 13  2  0
 19 12  1  0
 20 10  1  0
 22 24  2  0
 23 22  1  0
 25 23  1  0
 26 35  2  0
 26 31  1  0
 27 23  1  0
 27 31  1  0
 28 27  1  0
 29 30  1  0
 29 28  1  0
 30 26  1  0
 31 32  2  0
 32 33  1  0
 34 33  2  0
 35 34  1  0
 36 10  1  0
 36 37  1  0
 36 46  1  0
 37 40  1  0
 38 42  1  0
 38 37  1  0
 39 38  2  0
 42 41  1  0
 44 42  1  0
 44 45  1  0
 44 43  1  0
 46 49  1  1
 46 47  1  0
 48 46  1  0
 51 54  1  0
 52 55  1  0
 52 51  2  0
 54 53  2  0
 54 50  1  0
 55 56  2  0
 56 66  1  0
 56 53  1  0
 57 55  1  0
 58 66  1  0
 59 64  1  0
 60 61  1  0
 60 59  1  0
 62 61  1  0
 62 71  1  0
 62 63  1  0
 64 58  1  0
 64 63  1  0
 65 58  2  0
 66 67  1  0
 68 69  2  0
 69 70  1  0
 69 88  1  0
 70 73  1  0
 71 68  1  0
 71 72  1  0
 72 70  2  0
 73 74  1  0
 74 75  2  0
 76 79  1  0
 76 75  1  0
 77 76  2  0
 78 77  1  0
 78 73  2  0
 79 80  1  0
 80 81  1  0
 81 82  2  0
 83 82  1  0
 83 87  1  0
 84 83  2  0
 85 80  2  0
 85 84  1  0
 86 85  1  0
 88 89  1  0
 89 92  1  0
 89 91  1  0
 90 88  2  0
 93 94  1  0
 93 68  1  0
 95 93  1  0
M  ISO  4   6 101   9 101  58 100  66 100
M  END
>  <TORSDO>  (77) 
F 18

>  <SCORE>  (77) 
-13.591

>  <name>  (77) 
76

>  <ligand_id>  (77) 
76

>  <original_smiles>  (77) 
[H]C([H])=C1C([H])([H])C([H])(Oc2c([H])c([H])c3c(c2[H])C([H])([H])N(C(=O)C([H])(N([H])C(=O)C([H])(N([H])C([H])([H])[H])C([H])([H])[H])C(C([H])([H])[H])(C([H])([H])[H])C([H])([H])[H])C([H])(C(=O)N([H])C2([H])c4c([H])c([H])c([H])c([H])c4C([H])([H])C([H])([H])C2([H])[H])C3([H])[H])C([H])([H])C([H])([H])[N+]1([H])C([H])([H])c1c([H])c([H])c(C([H])([H])[H])c(N([H])C(=O)N2C([H])([H])C([H])([H])C([H])([H])C([H])(n3nc(-c4c([H])c([H])c(Oc5c([H])c([H])c(F)c([H])c5F)c([H])c4[H])c(C(=O)N([H])[H])c3N([H])[H])C2([H])[H])c1[H]

>  <smiles>  (77) 
[H]C([H])=C1C([H])([H])C([H])(Oc2c([H])c([H])c3c(c2[H])C([H])([H])N(C(=O)C([H])(N([H])C(=O)C([H])(N([H])C([H])([H])[H])C([H])([H])[H])C(C([H])([H])[H])(C([H])([H])[H])C([H])([H])[H])C([H])(C(=O)N([H])C2([H])c4c([H])c([H])c([H])c([H])c4C([H])([H])C([H])([H])C2([H])[H])C3([H])[H])C([H])([H])C([H])([H])[N+]1([H])C([H])([H])c1c([H])c([H])c(C([H])([H])[H])c(N([H])C(=O)N2C([H])([H])C([H])([H])C([H])([H])C([H])(n3nc(-c4c([H])c([H])c(Oc5c([H])c([H])c(F)c([H])c5F)c([H])c4[H])c(C(=O)N([H])[H])c3N([H])[H])C2([H])[H])c1[H]

$$$$
77:0:0
     RDKit          3D

 94103  0  0  1  0  0  0  0  0999 V2000
  -29.1360  -24.2570   19.9660 C   0  0  0  0  0  0  0  0  0  0  0  0
  -28.5150  -24.0360   22.8070 C   0  0  0  0  0  2  0  0  0  0  0  0
  -28.5460  -25.4340   22.1910 C   0  0  0  0  0  2  0  0  0  0  0  0
  -29.5900  -23.1580   22.1510 C   0  0  0  0  0  2  0  0  0  0  0  0
  -28.2880  -25.3550   20.6770 C   0  0  0  0  0  3  0  0  0  0  0  0
  -29.5400  -23.1590   20.6760 N   0  0  0  0  0  0  0  0  0  0  0  0
  -29.3580  -24.3830   18.7550 O   0  0  0  0  0  0  0  0  0  0  0  0
  -28.4600  -26.6750   20.0930 O   0  0  0  0  0  0  0  0  0  0  0  0
  -24.5310  -31.7570   23.2070 C   0  0  0  0  0  0  0  0  0  0  0  0
  -27.3080  -27.4390   20.0630 C   0  0  0  0  0  0  0  0  0  0  0  0
  -23.3770  -30.3590   21.5250 C   0  0  0  0  0  3  0  0  0  0  0  0
  -24.8840  -28.8990   20.0740 C   0  0  0  0  0  0  0  0  0  0  0  0
  -25.8950  -30.7880   21.3580 C   0  0  0  0  0  2  0  0  0  0  0  0
  -26.0240  -29.4340   20.6860 C   0  0  0  0  0  0  0  0  0  0  0  0
  -27.2440  -28.7140   20.6780 C   0  0  0  0  0  3  0  0  0  0  0  0
  -26.1570  -26.9380   19.4180 C   0  0  0  0  0  3  0  0  0  0  0  0
  -24.9460  -27.6530   19.4320 C   0  0  0  0  0  3  0  0  0  0  0  0
  -23.6130  -29.7190   20.1330 C   0  0  0  0  0  2  0  0  0  0  0  0
  -24.6170  -30.9830   22.0880 N   0  0  0  0  0  0  0  0  0  0  0  0
  -23.4380  -31.9860   23.7440 O   0  0  0  0  0  0  0  0  0  0  0  0
  -22.7480  -29.2970   22.4560 C   0  0  0  0  0  0  0  0  0  0  0  0
  -21.4290  -29.0790   22.3150 N   0  0  0  0  0  0  0  0  0  0  0  0
  -23.4430  -28.6750   23.2640 O   0  0  0  0  0  0  0  0  0  0  0  0
  -20.9290  -29.6360   21.6380 H   0  0  0  0  0  0  0  0  0  0  0  0
  -18.0920  -27.7640   22.7430 C   0  0  0  0  0  0  0  0  0  0  0  0
  -20.6360  -28.1020   23.0610 C   0  0  0  0  0  3  0  0  0  0  0  0
  -20.7940  -26.6850   22.4630 C   0  0  0  0  0  2  0  0  0  0  0  0
  -19.7190  -26.3420   21.4270 C   0  0  0  0  0  2  0  0  0  0  0  0
  -18.3240  -26.4320   22.0500 C   0  0  0  0  0  2  0  0  0  0  0  0
  -19.1780  -28.5560   23.2020 C   0  0  0  0  0  0  0  0  0  0  0  0
  -18.9070  -29.8020   23.8060 C   0  0  0  0  0  3  0  0  0  0  0  0
  -17.5830  -30.2560   23.9630 C   0  0  0  0  0  3  0  0  0  0  0  0
  -16.5120  -29.4600   23.5200 C   0  0  0  0  0  3  0  0  0  0  0  0
  -16.7670  -28.2170   22.9140 C   0  0  0  0  0  3  0  0  0  0  0  0
  -25.7930  -32.4090   23.8510 C   0  0  0  0  0  3  0  0  0  0  0  0
  -26.3250  -31.6240   25.1130 C   0  0  1  0  0  0  0  0  0  0  0  0
  -25.2340  -31.3370   26.1700 C   0  0  0  0  0  1  0  0  0  0  0  0
  -26.9500  -30.2720   24.6930 C   0  0  0  0  0  1  0  0  0  0  0  0
  -27.4510  -32.4370   25.7960 C   0  0  0  0  0  1  0  0  0  0  0  0
  -25.4430  -33.7890   24.2060 N   0  0  0  0  0  0  0  0  0  0  0  0
  -25.7520  -34.8670   23.4710 C   0  0  0  0  0  0  0  0  0  0  0  0
  -26.4300  -34.8040   22.4410 O   0  0  0  0  0  0  0  0  0  0  0  0
  -24.8340  -33.9120   25.0030 H   0  0  0  0  0  0  0  0  0  0  0  0
  -23.9680  -36.6110   23.1440 C   0  0  0  0  0  1  0  0  0  0  0  0
  -25.2190  -36.2300   23.9520 C   0  0  0  0  0  3  0  0  0  0  0  0
  -27.3300  -37.1570   24.7980 C   0  0  0  0  0  1  0  0  0  0  0  0
  -26.2140  -37.3200   23.8690 N   0  0  0  0  0  0  0  0  0  0  0  0
  -25.7790  -38.2190   24.0530 H   0  0  0  0  0  0  0  0  0  0  0  0
  -30.2410  -21.9990   20.0620 C   0  0  0  0  0  2  0  0  0  0  0  0
  -27.4300  -19.3400   20.1740 C   0  0  0  0  0  3  0  0  0  0  0  0
  -28.1490  -18.1350   20.1730 C   0  0  0  0  0  3  0  0  0  0  0  0
  -28.1140  -20.5680   20.0950 C   0  0  0  0  0  3  0  0  0  0  0  0
  -29.5580  -18.1300   20.0670 C   0  0  0  0  0  0  0  0  0  0  0  0
  -29.5270  -20.6210   20.0680 C   0  0  0  0  0  0  0  0  0  0  0  0
  -30.2550  -19.3850   20.0400 C   0  0  0  0  0  0  0  0  0  0  0  0
  -31.7910  -19.3840   19.9780 C   0  0  0  0  0  1  0  0  0  0  0  0
  -30.2570  -16.8100   19.9510 C   0  0  0  0  0  3  0  0  0  0  0  0
  -29.8820  -15.6830   20.4520 N   0  0  0  0  0  0  0  0  0  0  0  0
  -30.6860  -14.5740   20.1540 C   0  0  0  0  0  0  0  0  0  0  0  0
  -30.4700  -12.2460   19.3660 C   0  0  0  0  0  2  0  0  0  0  0  0
  -29.5400  -12.2370   18.1340 C   0  0  0  0  0  2  0  0  0  0  0  0
  -28.0640  -12.1190   18.5580 C   0  0  0  0  0  2  0  0  0  0  0  0
  -27.6810  -13.1180   19.6810 C   0  0  0  0  0  3  0  0  0  0  0  0
  -28.7270  -13.1220   20.8160 C   0  0  0  0  0  2  0  0  0  0  0  0
  -30.0510  -13.3710   20.2220 N   0  0  0  0  0  0  0  0  0  0  0  0
  -31.8320  -14.6490   19.6990 O   0  0  0  0  0  0  0  0  0  0  0  0
  -25.3110  -13.7590   20.4480 C   0  0  0  0  0  0  0  0  0  0  0  0
  -24.2350  -13.0040   20.8300 C   0  0  0  0  0  0  0  0  0  0  0  0
  -24.6710  -11.6460   20.7880 C   0  0  0  0  0  0  0  0  0  0  0  0
  -26.3350  -12.8620   20.1900 N   0  0  0  0  0  0  0  0  0  0  0  0
  -25.9530  -11.5840   20.4490 N   0  0  0  0  0  0  0  0  0  0  0  0
  -23.9250  -10.3990   20.9980 C   0  0  0  0  0  0  0  0  0  0  0  0
  -24.3280   -9.4520   21.9640 C   0  0  0  0  0  3  0  0  0  0  0  0
  -23.5880   -8.2650   22.1570 C   0  0  0  0  0  3  0  0  0  0  0  0
  -22.4290   -8.0180   21.3840 C   0  0  0  0  0  0  0  0  0  0  0  0
  -22.0440   -8.9530   20.4070 C   0  0  0  0  0  3  0  0  0  0  0  0
  -22.7840  -10.1310   20.2130 C   0  0  0  0  0  3  0  0  0  0  0  0
  -21.6580   -6.8840   21.4870 O   0  0  0  0  0  0  0  0  0  0  0  0
  -21.5340   -6.2030   22.6700 C   0  0  0  0  0  0  0  0  0  0  0  0
  -21.0420   -6.8210   23.8420 C   0  0  0  0  0  3  0  0  0  0  0  0
  -20.8690   -6.0630   25.0180 C   0  0  0  0  0  3  0  0  0  0  0  0
  -21.1730   -4.6880   25.0210 C   0  0  0  0  0  0  0  0  0  0  0  0
  -21.6590   -4.0700   23.8560 C   0  0  0  0  0  3  0  0  0  0  0  0
  -21.8350   -4.8250   22.6830 C   0  0  0  0  0  0  0  0  0  0  0  0
  -22.2830   -4.2200   21.5560 F   0  0  0  0  0  0  0  0  0  0  0  0
  -20.9990   -3.9590   26.1490 F   0  0  0  0  0  0  0  0  0  0  0  0
  -22.8530  -13.5050   21.1340 C   0  0  0  0  0  0  0  0  0  0  0  0
  -22.1380  -12.8330   22.0280 N   0  0  0  0  0  0  0  0  0  0  0  0
  -22.4200  -14.5300   20.6100 O   0  0  0  0  0  0  0  0  0  0  0  0
  -22.5010  -12.0060   22.4780 H   0  0  0  0  0  0  0  0  0  0  0  0
  -21.2100  -13.1520   22.2670 H   0  0  0  0  0  0  0  0  0  0  0  0
  -25.5000  -15.1280   20.2880 N   0  0  0  0  0  0  0  0  0  0  0  0
  -24.7640  -15.8020   20.4700 H   0  0  0  0  0  0  0  0  0  0  0  0
  -26.3840  -15.5590   20.0470 H   0  0  0  0  0  0  0  0  0  0  0  0
  1  6  1  0
  1  5  1  0
  3  2  1  0
  4  2  1  0
  5  8  1  0
  5  3  1  0
  6  4  1  0
  7  1  2  0
  9 20  2  0
 10  8  1  0
 10 15  1  0
 11 19  1  0
 11 21  1  0
 12 18  1  0
 12 14  1  0
 13 19  1  0
 14 13  1  0
 15 14  2  0
 16 17  1  0
 16 10  2  0
 17 12  2  0
 18 11  1  0
 19  9  1  0
 21 23  2  0
 22 21  1  0
 24 22  1  0
 25 34  2  0
 25 30  1  0
 26 22  1  0
 26 30  1  0
 27 26  1  0
 28 29  1  0
 28 27  1  0
 29 25  1  0
 30 31  2  0
 31 32  1  0
 33 32  2  0
 34 33  1  0
 35  9  1  0
 35 40  1  0
 35 36  1  0
 36 39  1  1
 36 37  1  0
 38 36  1  0
 40 43  1  0
 41 45  1  0
 41 40  1  0
 42 41  2  0
 45 44  1  0
 47 45  1  0
 47 48  1  0
 47 46  1  0
 49 54  1  0
 49  6  1  0
 51 50  1  0
 52 50  2  0
 53 51  2  0
 54 52  1  0
 55 53  1  0
 55 54  2  0
 56 55  1  0
 57 53  1  0
 57 58  2  0
 59 65  1  0
 59 58  1  0
 60 65  1  0
 61 62  1  0
 61 60  1  0
 63 62  1  0
 63 70  1  0
 63 64  1  0
 65 64  1  0
 66 59  2  0
 67 68  2  0
 68 87  1  0
 69 68  1  0
 69 72  1  0
 70 67  1  0
 70 71  1  0
 71 69  2  0
 72 73  1  0
 73 74  2  0
 75 78  1  0
 75 74  1  0
 76 75  2  0
 77 76  1  0
 77 72  2  0
 78 79  1  0
 79 84  2  0
 79 80  1  0
 80 81  2  0
 81 82  1  0
 82 86  1  0
 83 82  2  0
 84 83  1  0
 85 84  1  0
 87 88  1  0
 88 91  1  0
 88 90  1  0
 89 87  2  0
 92 67  1  0
 92 93  1  0
 94 92  1  0
M  ISO  4   5 101   8 101  58 100  59 100
M  END
>  <TORSDO>  (78) 
F 19

>  <SCORE>  (78) 
-13.764

>  <name>  (78) 
77

>  <ligand_id>  (78) 
77

>  <original_smiles>  (78) 
[H]C(=NC(=O)N1C([H])([H])C([H])([H])C([H])([H])C([H])(n2nc(-c3c([H])c([H])c(Oc4c([H])c([H])c(F)c([H])c4F)c([H])c3[H])c(C(=O)N([H])[H])c2N([H])[H])C1([H])[H])c1c([H])c([H])c([H])c(C([H])([H])N2C(=O)C([H])(Oc3c([H])c([H])c4c(c3[H])C([H])([H])N(C(=O)C([H])(N([H])C(=O)C([H])(N([H])C([H])([H])[H])C([H])([H])[H])C(C([H])([H])[H])(C([H])([H])[H])C([H])([H])[H])C([H])(C(=O)N([H])C3([H])c5c([H])c([H])c([H])c([H])c5C([H])([H])C([H])([H])C3([H])[H])C4([H])[H])C([H])([H])C([H])([H])C2([H])[H])c1C([H])([H])[H]

>  <smiles>  (78) 
[H]C(=NC(=O)N1C([H])([H])C([H])([H])C([H])([H])C([H])(n2nc(-c3c([H])c([H])c(Oc4c([H])c([H])c(F)c([H])c4F)c([H])c3[H])c(C(=O)N([H])[H])c2N([H])[H])C1([H])[H])c1c([H])c([H])c([H])c(C([H])([H])N2C(=O)C([H])(Oc3c([H])c([H])c4c(c3[H])C([H])([H])N(C(=O)C([H])(N([H])C(=O)C([H])(N([H])C([H])([H])[H])C([H])([H])[H])C(C([H])([H])[H])(C([H])([H])[H])C([H])([H])[H])C([H])(C(=O)N([H])C3([H])c5c([H])c([H])c([H])c([H])c5C([H])([H])C([H])([H])C3([H])[H])C4([H])[H])C([H])([H])C([H])([H])C2([H])[H])c1C([H])([H])[H]

$$$$
78:0:0
     RDKit          3D

 95104  0  0  1  0  0  0  0  0999 V2000
  -28.2490  -23.7670   20.3900 C   0  0  0  0  0  0  0  0  0  0  0  0
  -30.6850  -23.8500   18.9400 C   0  0  0  0  0  2  0  0  0  0  0  0
  -29.9300  -25.1960   18.9930 C   0  0  0  0  0  2  0  0  0  0  0  0
  -29.7300  -22.6530   18.7940 C   0  0  0  0  0  2  0  0  0  0  0  0
  -28.4950  -25.1420   19.5790 C   0  0  0  0  0  3  0  0  0  0  0  0
  -28.8180  -22.5660   19.9400 N   0  0  0  0  0  0  0  0  0  0  0  0
  -27.4970  -23.7910   21.3690 O   0  0  0  0  0  0  0  0  0  0  0  0
  -28.3100  -26.4690   20.2700 O   0  0  0  0  0  0  0  0  0  0  0  0
  -24.5880  -31.9100   23.2360 C   0  0  0  0  0  0  0  0  0  0  0  0
  -27.1850  -27.3180   20.1640 C   0  0  0  0  0  0  0  0  0  0  0  0
  -23.3810  -30.5130   21.5970 C   0  0  0  0  0  3  0  0  0  0  0  0
  -24.8230  -28.9590   20.1570 C   0  0  0  0  0  0  0  0  0  0  0  0
  -25.9210  -30.8220   21.4070 C   0  0  0  0  0  2  0  0  0  0  0  0
  -25.9940  -29.4410   20.7560 C   0  0  0  0  0  0  0  0  0  0  0  0
  -27.1710  -28.6290   20.7520 C   0  0  0  0  0  3  0  0  0  0  0  0
  -25.9890  -26.8990   19.5420 C   0  0  0  0  0  3  0  0  0  0  0  0
  -24.8250  -27.6980   19.5420 C   0  0  0  0  0  3  0  0  0  0  0  0
  -23.5870  -29.8380   20.2140 C   0  0  0  0  0  2  0  0  0  0  0  0
  -24.6480  -31.1030   22.1360 N   0  0  0  0  0  0  0  0  0  0  0  0
  -23.5070  -32.1860   23.7760 O   0  0  0  0  0  0  0  0  0  0  0  0
  -22.7200  -29.4990   22.5600 C   0  0  0  0  0  0  0  0  0  0  0  0
  -21.3930  -29.3180   22.4350 N   0  0  0  0  0  0  0  0  0  0  0  0
  -23.3980  -28.8760   23.3800 O   0  0  0  0  0  0  0  0  0  0  0  0
  -20.9020  -29.8720   21.7470 H   0  0  0  0  0  0  0  0  0  0  0  0
  -18.0190  -28.1140   22.9410 C   0  0  0  0  0  0  0  0  0  0  0  0
  -20.5780  -28.3770   23.2040 C   0  0  0  0  0  3  0  0  0  0  0  0
  -20.6820  -26.9470   22.6240 C   0  0  0  0  0  2  0  0  0  0  0  0
  -19.5770  -26.6260   21.6110 C   0  0  0  0  0  2  0  0  0  0  0  0
  -18.1970  -26.7690   22.2580 C   0  0  0  0  0  2  0  0  0  0  0  0
  -19.1370  -28.8770   23.3690 C   0  0  0  0  0  0  0  0  0  0  0  0
  -18.9180  -30.1390   23.9640 C   0  0  0  0  0  3  0  0  0  0  0  0
  -17.6120  -30.6370   24.1360 C   0  0  0  0  0  3  0  0  0  0  0  0
  -16.5080  -29.8710   23.7220 C   0  0  0  0  0  3  0  0  0  0  0  0
  -16.7130  -28.6110   23.1320 C   0  0  0  0  0  3  0  0  0  0  0  0
  -25.8720  -32.5430   23.8580 C   0  0  0  0  0  3  0  0  0  0  0  0
  -25.5660  -33.9440   24.1870 N   0  0  0  0  0  0  0  0  0  0  0  0
  -25.8980  -34.9960   23.4260 C   0  0  0  0  0  0  0  0  0  0  0  0
  -26.5600  -34.8890   22.3910 O   0  0  0  0  0  0  0  0  0  0  0  0
  -24.9840  -34.1020   24.9950 H   0  0  0  0  0  0  0  0  0  0  0  0
  -24.1720  -36.7920   23.0780 C   0  0  0  0  0  1  0  0  0  0  0  0
  -25.4150  -36.3870   23.8860 C   0  0  0  0  0  3  0  0  0  0  0  0
  -27.5520  -37.2660   24.7140 C   0  0  0  0  0  1  0  0  0  0  0  0
  -26.4510  -37.4360   23.7700 N   0  0  0  0  0  0  0  0  0  0  0  0
  -26.0460  -38.3570   23.9170 H   0  0  0  0  0  0  0  0  0  0  0  0
  -26.3880  -31.7750   25.1370 C   0  0  1  0  0  0  0  0  0  0  0  0
  -25.2930  -31.5430   26.2050 C   0  0  0  0  0  1  0  0  0  0  0  0
  -26.9690  -30.3990   24.7480 C   0  0  0  0  0  1  0  0  0  0  0  0
  -27.5390  -32.5690   25.7970 C   0  0  0  0  0  1  0  0  0  0  0  0
  -28.4170  -21.1310   20.3310 C   0  0  0  0  0  2  0  0  0  0  0  0
  -30.7600  -20.2100   20.9100 C   0  0  0  0  0  3  0  0  0  0  0  0
  -31.3730  -17.8300   21.0190 C   0  0  0  0  0  3  0  0  0  0  0  0
  -31.7040  -19.1940   21.1690 C   0  0  0  0  0  0  0  0  0  0  0  0
  -29.4460  -19.9090   20.5000 C   0  0  0  0  0  0  0  0  0  0  0  0
  -29.1220  -18.4870   20.3580 C   0  0  0  0  0  0  0  0  0  0  0  0
  -30.0840  -17.4110   20.6100 C   0  0  0  0  0  0  0  0  0  0  0  0
  -33.0940  -19.5770   21.6360 C   0  0  0  0  0  1  0  0  0  0  0  0
  -27.7110  -18.1210   19.9250 C   0  0  0  0  0  1  0  0  0  0  0  0
  -30.5930  -14.8240   20.3850 C   0  0  0  0  0  0  0  0  0  0  0  0
  -30.4250  -12.5360   19.3860 C   0  0  0  0  0  2  0  0  0  0  0  0
  -29.4880  -12.5900   18.1590 C   0  0  0  0  0  2  0  0  0  0  0  0
  -28.0190  -12.4070   18.5900 C   0  0  0  0  0  2  0  0  0  0  0  0
  -27.6340  -13.3010   19.7980 C   0  0  0  0  0  3  0  0  0  0  0  0
  -28.6900  -13.2310   20.9220 C   0  0  0  0  0  2  0  0  0  0  0  0
  -29.9810  -13.5930   20.3250 N   0  0  0  0  0  0  0  0  0  0  0  0
  -31.7870  -14.9190   20.0800 O   0  0  0  0  0  0  0  0  0  0  0  0
  -29.7850  -15.9480   20.5400 N   0  0  0  0  0  0  0  0  0  0  0  0
  -28.8060  -15.7170   20.6000 H   0  0  0  0  0  0  0  0  0  0  0  0
  -25.2450  -13.8810   20.5300 C   0  0  0  0  0  0  0  0  0  0  0  0
  -24.1840  -13.1020   20.9010 C   0  0  0  0  0  0  0  0  0  0  0  0
  -24.6540  -11.7530   20.8680 C   0  0  0  0  0  0  0  0  0  0  0  0
  -26.2920  -13.0060   20.2910 N   0  0  0  0  0  0  0  0  0  0  0  0
  -25.9440  -11.7220   20.5580 N   0  0  0  0  0  0  0  0  0  0  0  0
  -23.9330  -10.4870   21.0540 C   0  0  0  0  0  0  0  0  0  0  0  0
  -24.3610   -9.5250   21.9940 C   0  0  0  0  0  3  0  0  0  0  0  0
  -23.6400   -8.3250   22.1680 C   0  0  0  0  0  3  0  0  0  0  0  0
  -22.4760   -8.0790   21.4020 C   0  0  0  0  0  0  0  0  0  0  0  0
  -22.0670   -9.0300   20.4500 C   0  0  0  0  0  3  0  0  0  0  0  0
  -22.7900  -10.2220   20.2740 C   0  0  0  0  0  3  0  0  0  0  0  0
  -21.7250   -6.9300   21.4850 O   0  0  0  0  0  0  0  0  0  0  0  0
  -21.6580   -6.1970   22.6420 C   0  0  0  0  0  0  0  0  0  0  0  0
  -21.1820   -6.7530   23.8500 C   0  0  0  0  0  3  0  0  0  0  0  0
  -21.0650   -5.9450   24.9980 C   0  0  0  0  0  3  0  0  0  0  0  0
  -21.4120   -4.5820   24.9390 C   0  0  0  0  0  0  0  0  0  0  0  0
  -21.8810   -4.0260   23.7360 C   0  0  0  0  0  3  0  0  0  0  0  0
  -22.0010   -4.8310   22.5900 C   0  0  0  0  0  0  0  0  0  0  0  0
  -22.4330   -4.2860   21.4270 F   0  0  0  0  0  0  0  0  0  0  0  0
  -21.2920   -3.8020   26.0400 F   0  0  0  0  0  0  0  0  0  0  0  0
  -22.7840  -13.5740   21.1700 C   0  0  0  0  0  0  0  0  0  0  0  0
  -22.0560  -12.8710   22.0290 N   0  0  0  0  0  0  0  0  0  0  0  0
  -22.3460  -14.6000   20.6520 O   0  0  0  0  0  0  0  0  0  0  0  0
  -22.4230  -12.0400   22.4680 H   0  0  0  0  0  0  0  0  0  0  0  0
  -21.1150  -13.1680   22.2510 H   0  0  0  0  0  0  0  0  0  0  0  0
  -25.3980  -15.2510   20.3510 N   0  0  0  0  0  0  0  0  0  0  0  0
  -24.6170  -15.8900   20.4490 H   0  0  0  0  0  0  0  0  0  0  0  0
  -26.2180  -15.6870   19.9550 H   0  0  0  0  0  0  0  0  0  0  0  0
  1  7  2  0
  2  3  1  0
  3  5  1  0
  4  2  1  0
  4  6  1  0
  5  8  1  0
  5  1  1  0
  6 49  1  0
  6  1  1  0
  9 20  2  0
 10  8  1  0
 10 15  1  0
 11 19  1  0
 11 21  1  0
 12 18  1  0
 12 14  1  0
 13 19  1  0
 14 13  1  0
 15 14  2  0
 16 10  2  0
 17 16  1  0
 17 12  2  0
 18 11  1  0
 19  9  1  0
 21 23  2  0
 22 21  1  0
 24 22  1  0
 25 34  2  0
 25 30  1  0
 26 22  1  0
 26 30  1  0
 27 26  1  0
 28 29  1  0
 28 27  1  0
 29 25  1  0
 30 31  2  0
 31 32  1  0
 33 32  2  0
 34 33  1  0
 35  9  1  0
 35 36  1  0
 35 45  1  0
 36 39  1  0
 37 41  1  0
 37 36  1  0
 38 37  2  0
 41 40  1  0
 43 41  1  0
 43 44  1  0
 43 42  1  0
 45 48  1  1
 45 46  1  0
 47 45  1  0
 49 53  1  0
 50 52  1  0
 51 52  2  0
 52 56  1  0
 53 50  2  0
 54 53  1  0
 54 55  2  0
 55 51  1  0
 57 54  1  0
 58 66  1  0
 59 64  1  0
 60 61  1  0
 60 59  1  0
 62 61  1  0
 62 71  1  0
 62 63  1  0
 64 58  1  0
 64 63  1  0
 65 58  2  0
 66 67  1  0
 66 55  1  0
 68 69  2  0
 69 88  1  0
 70 69  1  0
 70 73  1  0
 71 68  1  0
 71 72  1  0
 72 70  2  0
 73 74  1  0
 74 75  2  0
 76 79  1  0
 76 75  1  0
 77 76  2  0
 78 77  1  0
 78 73  2  0
 79 80  1  0
 80 81  1  0
 81 82  2  0
 83 82  1  0
 83 87  1  0
 84 83  2  0
 85 80  2  0
 85 84  1  0
 86 85  1  0
 88 89  1  0
 89 92  1  0
 89 91  1  0
 90 88  2  0
 93 94  1  0
 93 68  1  0
 95 93  1  0
M  ISO  4   5 101   8 101  58 100  66 100
M  END
>  <TORSDO>  (79) 
F 18

>  <SCORE>  (79) 
-15.297

>  <name>  (79) 
78

>  <ligand_id>  (79) 
78

>  <original_smiles>  (79) 
[H]c1c([H])c([H])c2c(c1[H])C([H])([H])C([H])([H])C([H])([H])C2([H])N([H])C(=O)C1([H])N(C(=O)C([H])(N([H])C(=O)C([H])(N([H])C([H])([H])[H])C([H])([H])[H])C(C([H])([H])[H])(C([H])([H])[H])C([H])([H])[H])C([H])([H])c2c([H])c(OC3([H])C(=O)N(C([H])([H])c4c([H])c(C([H])([H])[H])c([H])c(N([H])C(=O)N5C([H])([H])C([H])([H])C([H])([H])C([H])(n6nc(-c7c([H])c([H])c(Oc8c([H])c([H])c(F)c([H])c8F)c([H])c7[H])c(C(=O)N([H])[H])c6N([H])[H])C5([H])[H])c4C([H])([H])[H])C([H])([H])C([H])([H])C3([H])[H])c([H])c([H])c2C1([H])[H]

>  <smiles>  (79) 
[H]c1c([H])c([H])c2c(c1[H])C([H])([H])C([H])([H])C([H])([H])C2([H])N([H])C(=O)C1([H])N(C(=O)C([H])(N([H])C(=O)C([H])(N([H])C([H])([H])[H])C([H])([H])[H])C(C([H])([H])[H])(C([H])([H])[H])C([H])([H])[H])C([H])([H])c2c([H])c(OC3([H])C(=O)N(C([H])([H])c4c([H])c(C([H])([H])[H])c([H])c(N([H])C(=O)N5C([H])([H])C([H])([H])C([H])([H])C([H])(n6nc(-c7c([H])c([H])c(Oc8c([H])c([H])c(F)c([H])c8F)c([H])c7[H])c(C(=O)N([H])[H])c6N([H])[H])C5([H])[H])c4C([H])([H])[H])C([H])([H])C([H])([H])C3([H])[H])c([H])c([H])c2C1([H])[H]

$$$$
79:0:0
     RDKit          3D

 93101  0  0  1  0  0  0  0  0999 V2000
  -28.8240  -21.6190   19.6500 C   0  0  0  0  0  0  0  0  0  0  0  0
  -28.8880  -20.5000   20.4250 N   0  0  0  0  0  0  0  0  0  0  0  0
  -28.7780  -21.5510   18.4230 O   0  0  0  0  0  0  0  0  0  0  0  0
  -28.7520  -20.6710   21.4090 H   0  0  0  0  0  0  0  0  0  0  0  0
  -28.9040  -22.8890   20.4090 C   0  0  0  0  0  3  0  0  0  0  0  0
  -28.3240  -24.0780   20.0400 C   0  0  0  0  0  3  0  0  0  0  0  0
  -28.4120  -25.4180   20.8320 C   0  0  0  0  0  2  0  0  0  0  0  0
  -28.3790  -26.6750   20.0890 O   0  0  0  0  0  0  0  0  0  0  0  0
  -24.5820  -31.9350   23.2430 C   0  0  0  0  0  0  0  0  0  0  0  0
  -27.2210  -27.4430   20.1600 C   0  0  0  0  0  0  0  0  0  0  0  0
  -23.3750  -30.5260   21.6110 C   0  0  0  0  0  3  0  0  0  0  0  0
  -24.8250  -28.9760   20.1930 C   0  0  0  0  0  0  0  0  0  0  0  0
  -25.9040  -30.8760   21.4020 C   0  0  0  0  0  2  0  0  0  0  0  0
  -25.9910  -29.4990   20.7670 C   0  0  0  0  0  0  0  0  0  0  0  0
  -27.1930  -28.7410   20.7440 C   0  0  0  0  0  3  0  0  0  0  0  0
  -26.0330  -26.9460   19.5830 C   0  0  0  0  0  3  0  0  0  0  0  0
  -24.8420  -27.6980   19.6060 C   0  0  0  0  0  3  0  0  0  0  0  0
  -23.5840  -29.8430   20.2330 C   0  0  0  0  0  2  0  0  0  0  0  0
  -24.6390  -31.1280   22.1440 N   0  0  0  0  0  0  0  0  0  0  0  0
  -23.5020  -32.2090   23.7850 O   0  0  0  0  0  0  0  0  0  0  0  0
  -22.7280  -29.5090   22.5770 C   0  0  0  0  0  0  0  0  0  0  0  0
  -21.4030  -29.3210   22.4510 N   0  0  0  0  0  0  0  0  0  0  0  0
  -23.4140  -28.8850   23.3910 O   0  0  0  0  0  0  0  0  0  0  0  0
  -20.9120  -29.8780   21.7650 H   0  0  0  0  0  0  0  0  0  0  0  0
  -18.0360  -28.1160   22.9520 C   0  0  0  0  0  0  0  0  0  0  0  0
  -20.5930  -28.3770   23.2200 C   0  0  0  0  0  3  0  0  0  0  0  0
  -20.6980  -26.9470   22.6410 C   0  0  0  0  0  2  0  0  0  0  0  0
  -19.5920  -26.6220   21.6290 C   0  0  0  0  0  2  0  0  0  0  0  0
  -18.2120  -26.7650   22.2770 C   0  0  0  0  0  2  0  0  0  0  0  0
  -19.1530  -28.8790   23.3830 C   0  0  0  0  0  0  0  0  0  0  0  0
  -18.9380  -30.1440   23.9700 C   0  0  0  0  0  3  0  0  0  0  0  0
  -17.6350  -30.6480   24.1270 C   0  0  0  0  0  3  0  0  0  0  0  0
  -16.5300  -29.8830   23.7160 C   0  0  0  0  0  3  0  0  0  0  0  0
  -16.7310  -28.6180   23.1360 C   0  0  0  0  0  3  0  0  0  0  0  0
  -25.8700  -32.5690   23.8620 C   0  0  0  0  0  3  0  0  0  0  0  0
  -26.3930  -31.7990   25.1360 C   0  0  1  0  0  0  0  0  0  0  0  0
  -25.3060  -31.5580   26.2080 C   0  0  0  0  0  1  0  0  0  0  0  0
  -26.9780  -30.4240   24.7360 C   0  0  0  0  0  1  0  0  0  0  0  0
  -27.5390  -32.5990   25.7990 C   0  0  0  0  0  1  0  0  0  0  0  0
  -25.5580  -33.9660   24.1920 N   0  0  0  0  0  0  0  0  0  0  0  0
  -25.8810  -35.0190   23.4290 C   0  0  0  0  0  0  0  0  0  0  0  0
  -26.5450  -34.9170   22.3940 O   0  0  0  0  0  0  0  0  0  0  0  0
  -24.9690  -34.1180   24.9970 H   0  0  0  0  0  0  0  0  0  0  0  0
  -24.1440  -36.8070   23.0950 C   0  0  0  0  0  1  0  0  0  0  0  0
  -25.3970  -36.4060   23.8910 C   0  0  0  0  0  3  0  0  0  0  0  0
  -27.5340  -37.3050   24.6960 C   0  0  0  0  0  1  0  0  0  0  0  0
  -26.4220  -37.4620   23.7610 N   0  0  0  0  0  0  0  0  0  0  0  0
  -26.0140  -38.3790   23.9100 H   0  0  0  0  0  0  0  0  0  0  0  0
  -29.1500  -19.0580   20.0780 C   0  0  0  0  0  2  0  0  0  0  0  0
  -31.3140  -18.5630   23.2040 C   0  0  0  0  0  3  0  0  0  0  0  0
  -31.3200  -17.1830   23.4230 C   0  0  0  0  0  3  0  0  0  0  0  0
  -30.6590  -19.0870   22.0830 C   0  0  0  0  0  3  0  0  0  0  0  0
  -30.7620  -16.3360   22.4610 C   0  0  0  0  0  3  0  0  0  0  0  0
  -29.9780  -18.2690   21.1430 C   0  0  0  0  0  0  0  0  0  0  0  0
  -30.1410  -16.8240   21.2800 C   0  0  0  0  0  0  0  0  0  0  0  0
  -30.4670  -14.6740   20.0450 C   0  0  0  0  0  0  0  0  0  0  0  0
  -30.1980  -12.4690   18.9190 C   0  0  0  0  0  2  0  0  0  0  0  0
  -29.1890  -12.6340   17.7660 C   0  0  0  0  0  2  0  0  0  0  0  0
  -27.7390  -12.4850   18.2750 C   0  0  0  0  0  2  0  0  0  0  0  0
  -27.4580  -13.3020   19.5680 C   0  0  0  0  0  3  0  0  0  0  0  0
  -28.5770  -13.1120   20.6100 C   0  0  0  0  0  2  0  0  0  0  0  0
  -29.8330  -13.4680   19.9440 N   0  0  0  0  0  0  0  0  0  0  0  0
  -31.6270  -14.8130   19.6430 O   0  0  0  0  0  0  0  0  0  0  0  0
  -29.7090  -15.7710   20.3840 N   0  0  0  0  0  0  0  0  0  0  0  0
  -28.7110  -15.6570   20.3040 H   0  0  0  0  0  0  0  0  0  0  0  0
  -25.1020  -13.8710   20.4150 C   0  0  0  0  0  0  0  0  0  0  0  0
  -24.0640  -13.0890   20.8390 C   0  0  0  0  0  0  0  0  0  0  0  0
  -24.5380  -11.7400   20.7740 C   0  0  0  0  0  0  0  0  0  0  0  0
  -26.1410  -13.0040   20.1190 N   0  0  0  0  0  0  0  0  0  0  0  0
  -25.8100  -11.7160   20.3940 N   0  0  0  0  0  0  0  0  0  0  0  0
  -23.8340  -10.4700   20.9880 C   0  0  0  0  0  0  0  0  0  0  0  0
  -24.3040   -9.5090   21.9100 C   0  0  0  0  0  3  0  0  0  0  0  0
  -23.5950   -8.3060   22.1120 C   0  0  0  0  0  3  0  0  0  0  0  0
  -22.4030   -8.0550   21.3920 C   0  0  0  0  0  0  0  0  0  0  0  0
  -21.9530   -9.0050   20.4580 C   0  0  0  0  0  3  0  0  0  0  0  0
  -22.6630  -10.2000   20.2540 C   0  0  0  0  0  3  0  0  0  0  0  0
  -21.6630   -6.9030   21.5050 O   0  0  0  0  0  0  0  0  0  0  0  0
  -21.6420   -6.1700   22.6650 C   0  0  0  0  0  0  0  0  0  0  0  0
  -21.2340   -6.7310   23.8950 C   0  0  0  0  0  3  0  0  0  0  0  0
  -21.1600   -5.9230   25.0480 C   0  0  0  0  0  3  0  0  0  0  0  0
  -21.4890   -4.5570   24.9720 C   0  0  0  0  0  0  0  0  0  0  0  0
  -21.8930   -3.9950   23.7470 C   0  0  0  0  0  3  0  0  0  0  0  0
  -21.9670   -4.8000   22.5970 C   0  0  0  0  0  0  0  0  0  0  0  0
  -22.3360   -4.2490   21.4160 F   0  0  0  0  0  0  0  0  0  0  0  0
  -21.4120   -3.7790   26.0780 F   0  0  0  0  0  0  0  0  0  0  0  0
  -22.6790  -13.5510   21.1760 C   0  0  0  0  0  0  0  0  0  0  0  0
  -21.9950  -12.8470   22.0700 N   0  0  0  0  0  0  0  0  0  0  0  0
  -22.2090  -14.5790   20.6830 O   0  0  0  0  0  0  0  0  0  0  0  0
  -22.3850  -12.0190   22.4950 H   0  0  0  0  0  0  0  0  0  0  0  0
  -21.0640  -13.1380   22.3290 H   0  0  0  0  0  0  0  0  0  0  0  0
  -25.2400  -15.2460   20.2320 N   0  0  0  0  0  0  0  0  0  0  0  0
  -24.4430  -15.8660   20.3400 H   0  0  0  0  0  0  0  0  0  0  0  0
  -26.0170  -15.6870   19.7580 H   0  0  0  0  0  0  0  0  0  0  0  0
  1  5  1  0
  1  2  1  0
  2  4  1  0
  3  1  2  0
  6  5  2  0
  6  7  1  0
  8 10  1  0
  8  7  1  0
  9 20  2  0
 10 15  1  0
 11 19  1  0
 11 21  1  0
 12 18  1  0
 12 14  1  0
 13 19  1  0
 14 13  1  0
 15 14  2  0
 16 17  1  0
 16 10  2  0
 17 12  2  0
 18 11  1  0
 19  9  1  0
 21 23  2  0
 22 21  1  0
 24 22  1  0
 25 34  2  0
 25 30  1  0
 26 22  1  0
 26 30  1  0
 27 26  1  0
 28 29  1  0
 28 27  1  0
 29 25  1  0
 30 31  2  0
 31 32  1  0
 33 32  2  0
 34 33  1  0
 35  9  1  0
 35 40  1  0
 35 36  1  0
 36 39  1  1
 36 37  1  0
 38 36  1  0
 40 43  1  0
 41 45  1  0
 41 40  1  0
 42 41  2  0
 45 44  1  0
 47 45  1  0
 47 48  1  0
 47 46  1  0
 49  2  1  0
 49 54  1  0
 50 51  1  0
 52 50  2  0
 53 51  2  0
 54 55  2  0
 54 52  1  0
 55 53  1  0
 56 64  1  0
 57 62  1  0
 58 59  1  0
 58 57  1  0
 60 59  1  0
 60 69  1  0
 60 61  1  0
 62 56  1  0
 62 61  1  0
 63 56  2  0
 64 55  1  0
 65 64  1  0
 66 67  2  0
 67 86  1  0
 68 67  1  0
 68 71  1  0
 69 70  1  0
 69 66  1  0
 70 68  2  0
 71 72  1  0
 72 73  2  0
 74 77  1  0
 74 73  1  0
 75 74  2  0
 76 75  1  0
 76 71  2  0
 77 78  1  0
 78 79  1  0
 79 80  2  0
 81 80  1  0
 81 85  1  0
 82 81  2  0
 83 78  2  0
 83 82  1  0
 84 83  1  0
 86 87  1  0
 87 90  1  0
 87 89  1  0
 88 86  2  0
 91 92  1  0
 91 66  1  0
 93 91  1  0
M  ISO  4   7 101   8 101  56 100  64 100
M  END
>  <TORSDO>  (80) 
F 20

>  <SCORE>  (80) 
-12.351

>  <name>  (80) 
79

>  <ligand_id>  (80) 
79

>  <original_smiles>  (80) 
[H]C(C(=O)N([H])C([H])([H])c1c([H])c([H])c([H])c([H])c1N([H])C(=O)N1C([H])([H])C([H])([H])C([H])([H])C([H])(n2nc(-c3c([H])c([H])c(Oc4c([H])c([H])c(F)c([H])c4F)c([H])c3[H])c(C(=O)N([H])[H])c2N([H])[H])C1([H])[H])=C([H])C([H])([H])Oc1c([H])c([H])c2c(c1[H])C([H])([H])N(C(=O)C([H])(N([H])C(=O)C([H])(N([H])C([H])([H])[H])C([H])([H])[H])C(C([H])([H])[H])(C([H])([H])[H])C([H])([H])[H])C([H])(C(=O)N([H])C1([H])c3c([H])c([H])c([H])c([H])c3C([H])([H])C([H])([H])C1([H])[H])C2([H])[H]

>  <smiles>  (80) 
[H]C(C(=O)N([H])C([H])([H])c1c([H])c([H])c([H])c([H])c1N([H])C(=O)N1C([H])([H])C([H])([H])C([H])([H])C([H])(n2nc(-c3c([H])c([H])c(Oc4c([H])c([H])c(F)c([H])c4F)c([H])c3[H])c(C(=O)N([H])[H])c2N([H])[H])C1([H])[H])=C([H])C([H])([H])Oc1c([H])c([H])c2c(c1[H])C([H])([H])N(C(=O)C([H])(N([H])C(=O)C([H])(N([H])C([H])([H])[H])C([H])([H])[H])C(C([H])([H])[H])(C([H])([H])[H])C([H])([H])[H])C([H])(C(=O)N([H])C1([H])c3c([H])c([H])c([H])c([H])c3C([H])([H])C([H])([H])C1([H])[H])C2([H])[H]

$$$$
80:0:0
     RDKit          3D

 96105  0  0  1  0  0  0  0  0999 V2000
  -30.4990  -21.6920   18.9680 C   0  0  0  0  0  2  0  0  0  0  0  0
  -29.6130  -24.1730   19.2990 C   0  0  0  0  0  0  0  0  0  0  0  0
  -29.1420  -23.9930   16.4430 C   0  0  0  0  0  2  0  0  0  0  0  0
  -29.3500  -25.3710   17.1300 C   0  0  0  0  0  2  0  0  0  0  0  0
  -28.8520  -22.8210   17.4220 C   0  0  0  0  0  2  0  0  0  0  0  0
  -28.8330  -25.3880   18.5910 C   0  0  0  0  0  3  0  0  0  0  0  0
  -29.6140  -22.9200   18.6740 N   0  0  0  0  0  0  0  0  0  0  0  0
  -30.2340  -24.3820   20.3460 O   0  0  0  0  0  0  0  0  0  0  0  0
  -28.8790  -26.7820   19.1940 O   0  0  0  0  0  0  0  0  0  0  0  0
  -24.5460  -31.2400   23.0300 C   0  0  0  0  0  0  0  0  0  0  0  0
  -27.6790  -27.5450   19.2870 C   0  0  0  0  0  0  0  0  0  0  0  0
  -23.5200  -30.0100   21.1550 C   0  0  0  0  0  3  0  0  0  0  0  0
  -25.1430  -28.9020   19.5210 C   0  0  0  0  0  0  0  0  0  0  0  0
  -26.0140  -30.6300   21.0840 C   0  0  0  0  0  2  0  0  0  0  0  0
  -26.2560  -29.3970   20.2110 C   0  0  0  0  0  0  0  0  0  0  0  0
  -27.5250  -28.7370   20.0820 C   0  0  0  0  0  3  0  0  0  0  0  0
  -26.5140  -27.1160   18.6050 C   0  0  0  0  0  3  0  0  0  0  0  0
  -25.2760  -27.7700   18.7110 C   0  0  0  0  0  3  0  0  0  0  0  0
  -23.8140  -29.6120   19.6870 C   0  0  0  0  0  2  0  0  0  0  0  0
  -24.7100  -30.6370   21.8150 N   0  0  0  0  0  0  0  0  0  0  0  0
  -23.4350  -31.2970   23.5770 O   0  0  0  0  0  0  0  0  0  0  0  0
  -22.9770  -28.7740   21.9150 C   0  0  0  0  0  0  0  0  0  0  0  0
  -21.6820  -28.4660   21.7340 N   0  0  0  0  0  0  0  0  0  0  0  0
  -23.7240  -28.1020   22.6340 O   0  0  0  0  0  0  0  0  0  0  0  0
  -21.1290  -29.0750   21.1440 H   0  0  0  0  0  0  0  0  0  0  0  0
  -18.4680  -26.8180   21.9680 C   0  0  0  0  0  0  0  0  0  0  0  0
  -20.9800  -27.3220   22.3190 C   0  0  0  0  0  3  0  0  0  0  0  0
  -21.2440  -26.0290   21.5130 C   0  0  0  0  0  2  0  0  0  0  0  0
  -20.1840  -25.7590   20.4400 C   0  0  0  0  0  2  0  0  0  0  0  0
  -18.7980  -25.6320   21.0760 C   0  0  0  0  0  2  0  0  0  0  0  0
  -19.4920  -27.6200   22.5390 C   0  0  0  0  0  0  0  0  0  0  0  0
  -19.1290  -28.7280   23.3330 C   0  0  0  0  0  3  0  0  0  0  0  0
  -17.7750  -29.0410   23.5600 C   0  0  0  0  0  3  0  0  0  0  0  0
  -16.7660  -28.2350   23.0030 C   0  0  0  0  0  3  0  0  0  0  0  0
  -17.1140  -27.1250   22.2130 C   0  0  0  0  0  3  0  0  0  0  0  0
  -25.7410  -31.9080   23.7770 C   0  0  0  0  0  3  0  0  0  0  0  0
  -26.1720  -31.1260   25.0780 C   0  0  1  0  0  0  0  0  0  0  0  0
  -25.0010  -30.8330   26.0460 C   0  0  0  0  0  1  0  0  0  0  0  0
  -26.8280  -29.7740   24.7160 C   0  0  0  0  0  1  0  0  0  0  0  0
  -27.2350  -31.9410   25.8510 C   0  0  0  0  0  1  0  0  0  0  0  0
  -25.3430  -33.2830   24.1110 N   0  0  0  0  0  0  0  0  0  0  0  0
  -25.6980  -34.3700   23.4120 C   0  0  0  0  0  0  0  0  0  0  0  0
  -26.4630  -34.3220   22.4450 O   0  0  0  0  0  0  0  0  0  0  0  0
  -24.6740  -33.3910   24.8590 H   0  0  0  0  0  0  0  0  0  0  0  0
  -23.9500  -36.1140   22.9340 C   0  0  0  0  0  1  0  0  0  0  0  0
  -25.1160  -35.7260   23.8580 C   0  0  0  0  0  3  0  0  0  0  0  0
  -27.1210  -36.6520   24.9300 C   0  0  0  0  0  1  0  0  0  0  0  0
  -26.1150  -36.8170   23.8850 N   0  0  0  0  0  0  0  0  0  0  0  0
  -25.6610  -37.7170   24.0200 H   0  0  0  0  0  0  0  0  0  0  0  0
  -28.8320  -19.2030   21.5070 C   0  0  0  0  0  3  0  0  0  0  0  0
  -29.3040  -17.9360   21.1190 C   0  0  0  0  0  3  0  0  0  0  0  0
  -30.4450  -18.9920   19.2590 C   0  0  0  0  0  3  0  0  0  0  0  0
  -29.1730  -20.3910   20.8180 C   0  0  0  0  0  0  0  0  0  0  0  0
  -30.0040  -20.3300   19.6650 C   0  0  0  0  0  0  0  0  0  0  0  0
  -30.1100  -17.7660   19.9770 C   0  0  0  0  0  0  0  0  0  0  0  0
  -31.1510  -15.3320   19.7240 C   0  0  0  0  0  0  0  0  0  0  0  0
  -31.0420  -12.9440   18.9660 C   0  0  0  0  0  2  0  0  0  0  0  0
  -30.0510  -12.8400   17.7850 C   0  0  0  0  0  2  0  0  0  0  0  0
  -28.6020  -12.6730   18.2910 C   0  0  0  0  0  2  0  0  0  0  0  0
  -28.2360  -13.6790   19.4130 C   0  0  0  0  0  3  0  0  0  0  0  0
  -29.3410  -13.7420   20.4900 C   0  0  0  0  0  2  0  0  0  0  0  0
  -30.5960  -14.0750   19.8030 N   0  0  0  0  0  0  0  0  0  0  0  0
  -32.3500  -15.4710   19.4650 O   0  0  0  0  0  0  0  0  0  0  0  0
  -30.2440  -16.3630   19.5200 N   0  0  0  0  0  0  0  0  0  0  0  0
  -29.3370  -15.9370   19.4210 H   0  0  0  0  0  0  0  0  0  0  0  0
  -25.9250  -14.3060   20.3370 C   0  0  0  0  0  0  0  0  0  0  0  0
  -24.8610  -13.5480   20.7410 C   0  0  0  0  0  0  0  0  0  0  0  0
  -25.2770  -12.1870   20.6140 C   0  0  0  0  0  0  0  0  0  0  0  0
  -26.9210  -13.4090   19.9860 N   0  0  0  0  0  0  0  0  0  0  0  0
  -26.5420  -12.1260   20.2160 N   0  0  0  0  0  0  0  0  0  0  0  0
  -24.5240  -10.9380   20.7900 C   0  0  0  0  0  0  0  0  0  0  0  0
  -24.9360   -9.9490   21.7100 C   0  0  0  0  0  3  0  0  0  0  0  0
  -24.1840   -8.7670   21.8760 C   0  0  0  0  0  3  0  0  0  0  0  0
  -23.0040   -8.5640   21.1190 C   0  0  0  0  0  0  0  0  0  0  0  0
  -22.6100   -9.5420   20.1860 C   0  0  0  0  0  3  0  0  0  0  0  0
  -23.3640  -10.7160   20.0200 C   0  0  0  0  0  3  0  0  0  0  0  0
  -22.2240   -7.4370   21.1950 O   0  0  0  0  0  0  0  0  0  0  0  0
  -22.0270   -6.7750   22.3810 C   0  0  0  0  0  0  0  0  0  0  0  0
  -21.4770   -7.4190   23.5110 C   0  0  0  0  0  3  0  0  0  0  0  0
  -21.2290   -6.6840   24.6880 C   0  0  0  0  0  3  0  0  0  0  0  0
  -21.5210   -5.3080   24.7340 C   0  0  0  0  0  0  0  0  0  0  0  0
  -22.0640   -4.6640   23.6080 C   0  0  0  0  0  3  0  0  0  0  0  0
  -22.3130   -5.3960   22.4340 C   0  0  0  0  0  0  0  0  0  0  0  0
  -22.8180   -4.7670   21.3450 F   0  0  0  0  0  0  0  0  0  0  0  0
  -21.2740   -4.6000   25.8620 F   0  0  0  0  0  0  0  0  0  0  0  0
  -23.5000  -14.0510   21.1270 C   0  0  0  0  0  0  0  0  0  0  0  0
  -22.8220  -13.3560   22.0320 N   0  0  0  0  0  0  0  0  0  0  0  0
  -23.0480  -15.0960   20.6580 O   0  0  0  0  0  0  0  0  0  0  0  0
  -23.1990  -12.5100   22.4340 H   0  0  0  0  0  0  0  0  0  0  0  0
  -21.9120  -13.6750   22.3340 H   0  0  0  0  0  0  0  0  0  0  0  0
  -26.1180  -15.6800   20.2160 N   0  0  0  0  0  0  0  0  0  0  0  0
  -25.3820  -16.3450   20.4290 H   0  0  0  0  0  0  0  0  0  0  0  0
  -26.9510  -16.1230   19.8500 H   0  0  0  0  0  0  0  0  0  0  0  0
  -28.6310  -21.6670   21.3190 C   0  0  0  0  0  3  0  0  0  0  0  0
  -27.3320  -22.0100   21.3280 C   0  0  0  0  0  3  0  0  0  0  0  0
  -26.7830  -23.5120   21.9790 Cl  0  0  0  0  0  0  0  0  0  0  0  0
  1 54  1  0
  2  8  2  0
  3  4  1  0
  3  5  1  0
  4  6  1  0
  5  7  1  0
  6  9  1  0
  6  2  1  0
  7  1  1  0
  7  2  1  0
  9 11  1  0
 10 21  2  0
 11 16  1  0
 12 20  1  0
 12 22  1  0
 13 19  1  0
 13 15  1  0
 14 20  1  0
 15 14  1  0
 16 15  2  0
 17 18  1  0
 17 11  2  0
 18 13  2  0
 19 12  1  0
 20 10  1  0
 22 24  2  0
 23 22  1  0
 25 23  1  0
 26 35  2  0
 26 31  1  0
 27 23  1  0
 27 31  1  0
 28 27  1  0
 29 30  1  0
 29 28  1  0
 30 26  1  0
 31 32  2  0
 32 33  1  0
 34 33  2  0
 35 34  1  0
 36 10  1  0
 36 41  1  0
 36 37  1  0
 37 40  1  1
 37 38  1  0
 39 37  1  0
 41 44  1  0
 42 46  1  0
 42 41  1  0
 43 42  2  0
 46 45  1  0
 46 48  1  0
 48 49  1  0
 48 47  1  0
 51 50  1  0
 52 54  2  0
 52 55  1  0
 53 94  1  0
 53 50  2  0
 54 53  1  0
 55 51  2  0
 56 62  1  0
 57 62  1  0
 58 59  1  0
 58 57  1  0
 60 59  1  0
 60 69  1  0
 60 61  1  0
 62 61  1  0
 63 56  2  0
 64 56  1  0
 64 55  1  0
 65 64  1  0
 66 67  2  0
 67 86  1  0
 68 67  1  0
 68 71  1  0
 69 70  1  0
 69 66  1  0
 70 68  2  0
 71 72  1  0
 72 73  2  0
 74 77  1  0
 74 73  1  0
 75 74  2  0
 76 75  1  0
 76 71  2  0
 77 78  1  0
 78 83  2  0
 78 79  1  0
 79 80  2  0
 80 81  1  0
 81 85  1  0
 82 81  2  0
 83 82  1  0
 84 83  1  0
 86 87  1  0
 87 90  1  0
 87 89  1  0
 88 86  2  0
 91 66  1  0
 91 92  1  0
 93 91  1  0
 94 95  2  0
 95 96  1  0
M  ISO  4   6 101   9 101  56 100  64 100
M  END
>  <TORSDO>  (81) 
F 19

>  <SCORE>  (81) 
-10.343

>  <name>  (81) 
80

>  <ligand_id>  (81) 
80

>  <original_smiles>  (81) 
[H]C(Cl)=C([H])c1c([H])c([H])c(N([H])C(=O)N2C([H])([H])C([H])([H])C([H])([H])C([H])(n3nc(-c4c([H])c([H])c(Oc5c([H])c([H])c(F)c([H])c5F)c([H])c4[H])c(C(=O)N([H])[H])c3N([H])[H])C2([H])[H])c([H])c1C([H])([H])N1C(=O)C([H])(Oc2c([H])c([H])c3c(c2[H])C([H])([H])N(C(=O)C([H])(N([H])C(=O)C([H])(N([H])C([H])([H])[H])C([H])([H])[H])C(C([H])([H])[H])(C([H])([H])[H])C([H])([H])[H])C([H])(C(=O)N([H])C2([H])c4c([H])c([H])c([H])c([H])c4C([H])([H])C([H])([H])C2([H])[H])C3([H])[H])C([H])([H])C([H])([H])C1([H])[H]

>  <smiles>  (81) 
[H]C(Cl)=C([H])c1c([H])c([H])c(N([H])C(=O)N2C([H])([H])C([H])([H])C([H])([H])C([H])(n3nc(-c4c([H])c([H])c(Oc5c([H])c([H])c(F)c([H])c5F)c([H])c4[H])c(C(=O)N([H])[H])c3N([H])[H])C2([H])[H])c([H])c1C([H])([H])N1C(=O)C([H])(Oc2c([H])c([H])c3c(c2[H])C([H])([H])N(C(=O)C([H])(N([H])C(=O)C([H])(N([H])C([H])([H])[H])C([H])([H])[H])C(C([H])([H])[H])(C([H])([H])[H])C([H])([H])[H])C([H])(C(=O)N([H])C2([H])c4c([H])c([H])c([H])c([H])c4C([H])([H])C([H])([H])C2([H])[H])C3([H])[H])C([H])([H])C([H])([H])C1([H])[H]

$$$$
81:0:0
     RDKit          3D

 94102  0  0  1  0  0  0  0  0999 V2000
  -29.1400  -20.5300   19.9390 C   0  0  1  0  0  0  0  0  0  0  0  0
  -29.5380  -20.6650   18.6730 F   0  0  0  0  0  0  0  0  0  0  0  0
  -27.8740  -20.1100   19.9300 F   0  0  0  0  0  0  0  0  0  0  0  0
  -32.1290  -18.5890   21.5380 C   0  0  0  0  0  3  0  0  0  0  0  0
  -31.6700  -17.2630   21.4690 C   0  0  0  0  0  3  0  0  0  0  0  0
  -29.5930  -18.0560   20.4890 C   0  0  0  0  0  3  0  0  0  0  0  0
  -31.3450  -19.6600   21.0590 C   0  0  0  0  0  0  0  0  0  0  0  0
  -30.0380  -19.4130   20.5440 C   0  0  0  0  0  0  0  0  0  0  0  0
  -30.4070  -16.9700   20.9150 C   0  0  0  0  0  0  0  0  0  0  0  0
  -31.9730  -21.0440   21.0850 C   0  0  0  0  0  1  0  0  0  0  0  0
  -30.6520  -14.5570   20.3130 C   0  0  0  0  0  0  0  0  0  0  0  0
  -30.3210  -12.4000   19.1540 C   0  0  0  0  0  2  0  0  0  0  0  0
  -29.3410  -12.6010   17.9810 C   0  0  0  0  0  2  0  0  0  0  0  0
  -27.8840  -12.4450   18.4590 C   0  0  0  0  0  2  0  0  0  0  0  0
  -27.5790  -13.2690   19.7390 C   0  0  0  0  0  3  0  0  0  0  0  0
  -28.6730  -13.0640   20.8100 C   0  0  0  0  0  2  0  0  0  0  0  0
  -29.9700  -13.3820   20.1940 N   0  0  0  0  0  0  0  0  0  0  0  0
  -31.7820  -14.7050   19.8380 O   0  0  0  0  0  0  0  0  0  0  0  0
  -29.9530  -15.6090   20.8060 N   0  0  0  0  0  0  0  0  0  0  0  0
  -28.9830  -15.4310   21.0140 H   0  0  0  0  0  0  0  0  0  0  0  0
  -25.2040  -13.8460   20.5380 C   0  0  0  0  0  0  0  0  0  0  0  0
  -24.1540  -13.0610   20.9290 C   0  0  0  0  0  0  0  0  0  0  0  0
  -24.6210  -11.7130   20.8610 C   0  0  0  0  0  0  0  0  0  0  0  0
  -26.2460  -12.9760   20.2590 N   0  0  0  0  0  0  0  0  0  0  0  0
  -25.9010  -11.6860   20.5100 N   0  0  0  0  0  0  0  0  0  0  0  0
  -23.9080  -10.4430   21.0530 C   0  0  0  0  0  0  0  0  0  0  0  0
  -24.3650   -9.4720   21.9700 C   0  0  0  0  0  3  0  0  0  0  0  0
  -23.6530   -8.2660   22.1510 C   0  0  0  0  0  3  0  0  0  0  0  0
  -22.4710   -8.0230   21.4150 C   0  0  0  0  0  0  0  0  0  0  0  0
  -22.0330   -8.9830   20.4850 C   0  0  0  0  0  3  0  0  0  0  0  0
  -22.7450  -10.1810   20.3030 C   0  0  0  0  0  3  0  0  0  0  0  0
  -21.7280   -6.8710   21.5050 O   0  0  0  0  0  0  0  0  0  0  0  0
  -21.6980   -6.1230   22.6550 C   0  0  0  0  0  0  0  0  0  0  0  0
  -21.2500   -6.6600   23.8810 C   0  0  0  0  0  3  0  0  0  0  0  0
  -21.1690   -5.8370   25.0220 C   0  0  0  0  0  3  0  0  0  0  0  0
  -21.5260   -4.4770   24.9370 C   0  0  0  0  0  0  0  0  0  0  0  0
  -21.9660   -3.9400   23.7150 C   0  0  0  0  0  3  0  0  0  0  0  0
  -22.0490   -4.7610   22.5770 C   0  0  0  0  0  0  0  0  0  0  0  0
  -22.4540   -4.2320   21.3970 F   0  0  0  0  0  0  0  0  0  0  0  0
  -21.4400   -3.6850   26.0310 F   0  0  0  0  0  0  0  0  0  0  0  0
  -22.7630  -13.5240   21.2550 C   0  0  0  0  0  0  0  0  0  0  0  0
  -22.0640  -12.8050   22.1270 N   0  0  0  0  0  0  0  0  0  0  0  0
  -22.3040  -14.5580   20.7710 O   0  0  0  0  0  0  0  0  0  0  0  0
  -22.4480  -11.9680   22.5390 H   0  0  0  0  0  0  0  0  0  0  0  0
  -21.1330  -13.0960   22.3860 H   0  0  0  0  0  0  0  0  0  0  0  0
  -25.3540  -15.2200   20.3760 N   0  0  0  0  0  0  0  0  0  0  0  0
  -24.5840  -15.8650   20.5170 H   0  0  0  0  0  0  0  0  0  0  0  0
  -26.1800  -15.6670   20.0010 H   0  0  0  0  0  0  0  0  0  0  0  0
  -29.1630  -21.8540   20.5830 N   0  0  0  0  0  0  0  0  0  0  0  0
  -28.6880  -21.7260   21.4690 H   0  0  0  0  0  0  0  0  0  0  0  0
  -28.4210  -22.8710   19.8180 C   0  0  0  0  0  2  0  0  0  0  0  0
  -28.4540  -24.2830   20.4190 C   0  0  0  0  0  3  0  0  0  0  0  0
  -28.3620  -25.4230   19.6920 C   0  0  0  0  0  3  0  0  0  0  0  0
  -28.3510  -26.6990   20.2240 O   0  0  0  0  0  0  0  0  0  0  0  0
  -24.6020  -31.9670   23.2470 C   0  0  0  0  0  0  0  0  0  0  0  0
  -27.1890  -27.4570   20.1820 C   0  0  0  0  0  0  0  0  0  0  0  0
  -23.3770  -30.5700   21.6170 C   0  0  0  0  0  3  0  0  0  0  0  0
  -24.8100  -29.0090   20.1940 C   0  0  0  0  0  0  0  0  0  0  0  0
  -25.9090  -30.8930   21.4130 C   0  0  0  0  0  2  0  0  0  0  0  0
  -25.9770  -29.5170   20.7780 C   0  0  0  0  0  0  0  0  0  0  0  0
  -27.1660  -28.7470   20.7710 C   0  0  0  0  0  3  0  0  0  0  0  0
  -25.9980  -26.9720   19.5910 C   0  0  0  0  0  3  0  0  0  0  0  0
  -24.8160  -27.7360   19.5980 C   0  0  0  0  0  3  0  0  0  0  0  0
  -23.5760  -29.8810   20.2410 C   0  0  0  0  0  2  0  0  0  0  0  0
  -24.6480  -31.1590   22.1500 N   0  0  0  0  0  0  0  0  0  0  0  0
  -23.5250  -32.2550   23.7880 O   0  0  0  0  0  0  0  0  0  0  0  0
  -22.7170  -29.5610   22.5850 C   0  0  0  0  0  0  0  0  0  0  0  0
  -21.3910  -29.3880   22.4570 N   0  0  0  0  0  0  0  0  0  0  0  0
  -23.3940  -28.9390   23.4060 O   0  0  0  0  0  0  0  0  0  0  0  0
  -20.9070  -29.9420   21.7650 H   0  0  0  0  0  0  0  0  0  0  0  0
  -18.0050  -28.2300   22.9650 C   0  0  0  0  0  0  0  0  0  0  0  0
  -20.5670  -28.4610   23.2320 C   0  0  0  0  0  3  0  0  0  0  0  0
  -20.6520  -27.0280   22.6600 C   0  0  0  0  0  2  0  0  0  0  0  0
  -19.5450  -26.7130   21.6490 C   0  0  0  0  0  2  0  0  0  0  0  0
  -18.1660  -26.8760   22.2950 C   0  0  0  0  0  2  0  0  0  0  0  0
  -19.1330  -28.9810   23.3910 C   0  0  0  0  0  0  0  0  0  0  0  0
  -18.9300  -30.2500   23.9780 C   0  0  0  0  0  3  0  0  0  0  0  0
  -17.6310  -30.7660   24.1430 C   0  0  0  0  0  3  0  0  0  0  0  0
  -16.5170  -30.0120   23.7340 C   0  0  0  0  0  3  0  0  0  0  0  0
  -16.7050  -28.7450   23.1510 C   0  0  0  0  0  3  0  0  0  0  0  0
  -25.8970  -32.5880   23.8610 C   0  0  0  0  0  3  0  0  0  0  0  0
  -26.4200  -31.8070   25.1280 C   0  0  1  0  0  0  0  0  0  0  0  0
  -25.3330  -31.5640   26.2030 C   0  0  0  0  0  1  0  0  0  0  0  0
  -26.9960  -30.4300   24.7220 C   0  0  0  0  0  1  0  0  0  0  0  0
  -27.5790  -32.5920   25.7870 C   0  0  0  0  0  1  0  0  0  0  0  0
  -25.5980  -33.9870   24.1990 N   0  0  0  0  0  0  0  0  0  0  0  0
  -25.9270  -35.0390   23.4380 C   0  0  0  0  0  0  0  0  0  0  0  0
  -26.5840  -34.9340   22.3980 O   0  0  0  0  0  0  0  0  0  0  0  0
  -25.0140  -34.1420   25.0070 H   0  0  0  0  0  0  0  0  0  0  0  0
  -24.2060  -36.8420   23.1050 C   0  0  0  0  0  1  0  0  0  0  0  0
  -25.4510  -36.4290   23.9050 C   0  0  0  0  0  3  0  0  0  0  0  0
  -27.5950  -37.3010   24.7240 C   0  0  0  0  0  1  0  0  0  0  0  0
  -26.4900  -37.4760   23.7850 N   0  0  0  0  0  0  0  0  0  0  0  0
  -26.0900  -38.3980   23.9330 H   0  0  0  0  0  0  0  0  0  0  0  0
  1  8  1  0
  1 49  1  0
  1  2  1  6
  3  1  1  0
  5  4  1  0
  6  8  2  0
  6  9  1  0
  7 10  1  0
  7  4  2  0
  8  7  1  0
  9  5  2  0
 11 19  1  0
 12 17  1  0
 13 14  1  0
 13 12  1  0
 15 14  1  0
 15 24  1  0
 15 16  1  0
 17 11  1  0
 17 16  1  0
 18 11  2  0
 19  9  1  0
 19 20  1  0
 21 22  2  0
 22 41  1  0
 23 22  1  0
 23 26  1  0
 24 25  1  0
 24 21  1  0
 25 23  2  0
 26 27  1  0
 27 28  2  0
 29 32  1  0
 29 28  1  0
 30 29  2  0
 31 30  1  0
 31 26  2  0
 32 33  1  0
 33 34  1  0
 34 35  2  0
 36 35  1  0
 36 40  1  0
 37 36  2  0
 38 33  2  0
 38 37  1  0
 39 38  1  0
 41 42  1  0
 42 45  1  0
 42 44  1  0
 43 41  2  0
 46 47  1  0
 46 21  1  0
 48 46  1  0
 49 50  1  0
 51 52  1  0
 51 49  1  0
 53 54  1  0
 53 52  2  0
 55 66  2  0
 56 54  1  0
 56 61  1  0
 57 65  1  0
 57 67  1  0
 58 64  1  0
 58 60  1  0
 59 65  1  0
 60 59  1  0
 61 60  2  0
 62 63  1  0
 62 56  2  0
 63 58  2  0
 64 57  1  0
 65 55  1  0
 67 69  2  0
 68 67  1  0
 70 68  1  0
 71 80  2  0
 71 76  1  0
 72 68  1  0
 72 76  1  0
 73 72  1  0
 74 75  1  0
 74 73  1  0
 75 71  1  0
 76 77  2  0
 77 78  1  0
 79 78  2  0
 80 79  1  0
 81 55  1  0
 81 86  1  0
 81 82  1  0
 82 85  1  1
 82 83  1  0
 84 82  1  0
 86 89  1  0
 87 91  1  0
 87 86  1  0
 88 87  2  0
 91 90  1  0
 93 91  1  0
 93 94  1  0
 93 92  1  0
M  ISO  4  11 100  19 100  53 101  54 101
M  END
>  <TORSDO>  (82) 
F 20

>  <SCORE>  (82) 
-13.992

>  <name>  (82) 
81

>  <ligand_id>  (82) 
81

>  <original_smiles>  (82) 
[H]C(Oc1c([H])c([H])c2c(c1[H])C([H])([H])N(C(=O)C([H])(N([H])C(=O)C([H])(N([H])C([H])([H])[H])C([H])([H])[H])C(C([H])([H])[H])(C([H])([H])[H])C([H])([H])[H])C([H])(C(=O)N([H])C1([H])c3c([H])c([H])c([H])c([H])c3C([H])([H])C([H])([H])C1([H])[H])C2([H])[H])=C([H])C([H])([H])N([H])C(F)(F)c1c([H])c(N([H])C(=O)N2C([H])([H])C([H])([H])C([H])([H])C([H])(n3nc(-c4c([H])c([H])c(Oc5c([H])c([H])c(F)c([H])c5F)c([H])c4[H])c(C(=O)N([H])[H])c3N([H])[H])C2([H])[H])c([H])c([H])c1C([H])([H])[H]

>  <smiles>  (82) 
[H]C(Oc1c([H])c([H])c2c(c1[H])C([H])([H])N(C(=O)C([H])(N([H])C(=O)C([H])(N([H])C([H])([H])[H])C([H])([H])[H])C(C([H])([H])[H])(C([H])([H])[H])C([H])([H])[H])C([H])(C(=O)N([H])C1([H])c3c([H])c([H])c([H])c([H])c3C([H])([H])C([H])([H])C1([H])[H])C2([H])[H])=C([H])C([H])([H])N([H])C(F)(F)c1c([H])c(N([H])C(=O)N2C([H])([H])C([H])([H])C([H])([H])C([H])(n3nc(-c4c([H])c([H])c(Oc5c([H])c([H])c(F)c([H])c5F)c([H])c4[H])c(C(=O)N([H])[H])c3N([H])[H])C2([H])[H])c([H])c([H])c1C([H])([H])[H]

$$$$
82:0:0
     RDKit          3D

 95104  0  0  1  0  0  0  0  0999 V2000
  -29.1440  -23.8800   20.3700 C   0  0  0  0  0  0  0  0  0  0  0  0
  -26.5800  -23.3300   21.6080 C   0  0  0  0  0  2  0  0  0  0  0  0
  -27.0400  -24.7890   21.5290 C   0  0  0  0  0  2  0  0  0  0  0  0
  -27.7660  -22.3650   21.7750 C   0  0  0  0  0  2  0  0  0  0  0  0
  -27.9800  -24.9950   20.3250 C   0  0  0  0  0  3  0  0  0  0  0  0
  -28.8910  -22.5790   20.8460 N   0  0  0  0  0  0  0  0  0  0  0  0
  -30.2480  -24.1820   19.9080 O   0  0  0  0  0  0  0  0  0  0  0  0
  -28.3300  -26.4680   20.1740 O   0  0  0  0  0  0  0  0  0  0  0  0
  -24.5780  -31.9020   23.1920 C   0  0  0  0  0  0  0  0  0  0  0  0
  -27.2570  -27.3940   20.0720 C   0  0  0  0  0  0  0  0  0  0  0  0
  -23.4070  -30.5270   21.5100 C   0  0  0  0  0  3  0  0  0  0  0  0
  -24.8910  -29.0340   20.0520 C   0  0  0  0  0  0  0  0  0  0  0  0
  -25.9510  -30.8650   21.3660 C   0  0  0  0  0  2  0  0  0  0  0  0
  -26.0520  -29.5020   20.6810 C   0  0  0  0  0  0  0  0  0  0  0  0
  -27.2380  -28.6970   20.6810 C   0  0  0  0  0  3  0  0  0  0  0  0
  -26.0810  -27.0170   19.3820 C   0  0  0  0  0  3  0  0  0  0  0  0
  -24.9140  -27.8020   19.3840 C   0  0  0  0  0  3  0  0  0  0  0  0
  -23.6440  -29.8950   20.1140 C   0  0  0  0  0  2  0  0  0  0  0  0
  -24.6640  -31.1160   22.0790 N   0  0  0  0  0  0  0  0  0  0  0  0
  -23.4860  -32.1540   23.7220 O   0  0  0  0  0  0  0  0  0  0  0  0
  -22.7470  -29.4800   22.4390 C   0  0  0  0  0  0  0  0  0  0  0  0
  -21.4210  -29.3060   22.3110 N   0  0  0  0  0  0  0  0  0  0  0  0
  -23.4290  -28.8310   23.2370 O   0  0  0  0  0  0  0  0  0  0  0  0
  -20.9300  -29.8800   21.6400 H   0  0  0  0  0  0  0  0  0  0  0  0
  -18.0420  -28.1090   22.8190 C   0  0  0  0  0  0  0  0  0  0  0  0
  -20.6060  -28.3440   23.0570 C   0  0  0  0  0  3  0  0  0  0  0  0
  -20.6910  -26.9360   22.4250 C   0  0  0  0  0  2  0  0  0  0  0  0
  -19.5710  -26.6600   21.4160 C   0  0  0  0  0  2  0  0  0  0  0  0
  -18.2000  -26.7870   22.0860 C   0  0  0  0  0  2  0  0  0  0  0  0
  -19.1730  -28.8480   23.2610 C   0  0  0  0  0  0  0  0  0  0  0  0
  -18.9700  -30.0880   23.9060 C   0  0  0  0  0  3  0  0  0  0  0  0
  -17.6700  -30.5860   24.1150 C   0  0  0  0  0  3  0  0  0  0  0  0
  -16.5560  -29.8450   23.6890 C   0  0  0  0  0  3  0  0  0  0  0  0
  -16.7420  -28.6080   23.0470 C   0  0  0  0  0  3  0  0  0  0  0  0
  -25.8460  -32.5360   23.8390 C   0  0  0  0  0  3  0  0  0  0  0  0
  -25.5250  -33.9330   24.1670 N   0  0  0  0  0  0  0  0  0  0  0  0
  -25.8810  -34.9920   23.4280 C   0  0  0  0  0  0  0  0  0  0  0  0
  -26.5830  -34.8960   22.4180 O   0  0  0  0  0  0  0  0  0  0  0  0
  -24.9040  -34.0810   24.9480 H   0  0  0  0  0  0  0  0  0  0  0  0
  -24.1800  -36.8020   23.0170 C   0  0  0  0  0  1  0  0  0  0  0  0
  -25.3790  -36.3780   23.8800 C   0  0  0  0  0  3  0  0  0  0  0  0
  -27.4730  -37.2430   24.8270 C   0  0  0  0  0  1  0  0  0  0  0  0
  -26.4200  -37.4270   23.8310 N   0  0  0  0  0  0  0  0  0  0  0  0
  -26.0110  -38.3470   23.9700 H   0  0  0  0  0  0  0  0  0  0  0  0
  -26.3400  -31.7660   25.1250 C   0  0  1  0  0  0  0  0  0  0  0  0
  -25.2270  -31.5210   26.1710 C   0  0  0  0  0  1  0  0  0  0  0  0
  -26.9430  -30.3930   24.7510 C   0  0  0  0  0  1  0  0  0  0  0  0
  -27.4720  -32.5680   25.8130 C   0  0  0  0  0  1  0  0  0  0  0  0
  -29.8630  -21.3780   20.8750 C   0  0  0  0  0  2  0  0  0  0  0  0
  -29.2450  -17.3380   19.0070 C   0  0  0  0  0  3  0  0  0  0  0  0
  -30.0650  -18.6740   20.8510 C   0  0  0  0  0  3  0  0  0  0  0  0
  -28.7250  -18.5060   18.4110 C   0  0  0  0  0  0  0  0  0  0  0  0
  -29.5790  -19.9200   20.2490 C   0  0  0  0  0  0  0  0  0  0  0  0
  -28.9160  -19.7900   18.9960 C   0  0  0  0  0  0  0  0  0  0  0  0
  -29.9250  -17.3580   20.2360 C   0  0  0  0  0  0  0  0  0  0  0  0
  -27.9440  -18.3280   17.1150 C   0  0  0  0  0  1  0  0  0  0  0  0
  -28.4280  -21.0320   18.2570 C   0  0  0  0  0  1  0  0  0  0  0  0
  -30.9090  -14.9410   20.2890 C   0  0  0  0  0  0  0  0  0  0  0  0
  -30.6820  -12.6630   19.2650 C   0  0  0  0  0  2  0  0  0  0  0  0
  -29.7470  -12.7630   18.0380 C   0  0  0  0  0  2  0  0  0  0  0  0
  -28.2710  -12.6320   18.4590 C   0  0  0  0  0  2  0  0  0  0  0  0
  -27.9160  -13.5010   19.6960 C   0  0  0  0  0  3  0  0  0  0  0  0
  -28.9740  -13.3700   20.8160 C   0  0  0  0  0  2  0  0  0  0  0  0
  -30.2830  -13.7100   20.2410 N   0  0  0  0  0  0  0  0  0  0  0  0
  -32.0420  -15.0680   19.8130 O   0  0  0  0  0  0  0  0  0  0  0  0
  -30.2350  -16.0270   20.8300 N   0  0  0  0  0  0  0  0  0  0  0  0
  -29.4950  -15.7080   21.4380 H   0  0  0  0  0  0  0  0  0  0  0  0
  -25.5410  -14.1350   20.4260 C   0  0  0  0  0  0  0  0  0  0  0  0
  -24.4600  -13.3800   20.7960 C   0  0  0  0  0  0  0  0  0  0  0  0
  -24.8950  -12.0220   20.7570 C   0  0  0  0  0  0  0  0  0  0  0  0
  -26.5650  -13.2350   20.1840 N   0  0  0  0  0  0  0  0  0  0  0  0
  -26.1830  -11.9590   20.4410 N   0  0  0  0  0  0  0  0  0  0  0  0
  -24.1450  -10.7750   20.9460 C   0  0  0  0  0  0  0  0  0  0  0  0
  -24.5520   -9.8040   21.8880 C   0  0  0  0  0  3  0  0  0  0  0  0
  -23.8040   -8.6210   22.0640 C   0  0  0  0  0  3  0  0  0  0  0  0
  -22.6340   -8.4010   21.3000 C   0  0  0  0  0  0  0  0  0  0  0  0
  -22.2460   -9.3590   20.3480 C   0  0  0  0  0  3  0  0  0  0  0  0
  -22.9950  -10.5340   20.1690 C   0  0  0  0  0  3  0  0  0  0  0  0
  -21.8560   -7.2700   21.3880 O   0  0  0  0  0  0  0  0  0  0  0  0
  -21.7620   -6.5480   22.5500 C   0  0  0  0  0  0  0  0  0  0  0  0
  -21.2860   -7.1220   23.7490 C   0  0  0  0  0  3  0  0  0  0  0  0
  -21.1420   -6.3260   24.9020 C   0  0  0  0  0  3  0  0  0  0  0  0
  -21.4600   -4.9540   24.8570 C   0  0  0  0  0  0  0  0  0  0  0  0
  -21.9270   -4.3800   23.6610 C   0  0  0  0  0  3  0  0  0  0  0  0
  -22.0740   -5.1740   22.5110 C   0  0  0  0  0  0  0  0  0  0  0  0
  -22.5060   -4.6110   21.3560 F   0  0  0  0  0  0  0  0  0  0  0  0
  -21.3130   -4.1860   25.9610 F   0  0  0  0  0  0  0  0  0  0  0  0
  -23.0740  -13.8870   21.0760 C   0  0  0  0  0  0  0  0  0  0  0  0
  -22.3490  -13.2220   21.9680 N   0  0  0  0  0  0  0  0  0  0  0  0
  -22.6480  -14.9080   20.5370 O   0  0  0  0  0  0  0  0  0  0  0  0
  -22.7160  -12.3990   22.4240 H   0  0  0  0  0  0  0  0  0  0  0  0
  -21.4170  -13.5390   22.1970 H   0  0  0  0  0  0  0  0  0  0  0  0
  -25.7280  -15.5030   20.2590 N   0  0  0  0  0  0  0  0  0  0  0  0
  -24.9680  -16.1630   20.3800 H   0  0  0  0  0  0  0  0  0  0  0  0
  -26.5840  -15.9430   19.9510 H   0  0  0  0  0  0  0  0  0  0  0  0
  1  6  1  0
  2  4  1  0
  3  2  1  0
  5  8  1  0
  5  1  1  0
  5  3  1  0
  6 49  1  0
  6  4  1  0
  7  1  2  0
  9 20  2  0
 10  8  1  0
 10 15  1  0
 11 19  1  0
 11 21  1  0
 12 18  1  0
 12 14  1  0
 13 19  1  0
 14 15  2  0
 14 13  1  0
 16 17  1  0
 16 10  2  0
 17 12  2  0
 18 11  1  0
 19  9  1  0
 21 23  2  0
 22 21  1  0
 24 22  1  0
 25 34  2  0
 25 30  1  0
 26 22  1  0
 26 30  1  0
 27 26  1  0
 28 29  1  0
 28 27  1  0
 29 25  1  0
 30 31  2  0
 31 32  1  0
 33 32  2  0
 34 33  1  0
 35  9  1  0
 35 36  1  0
 35 45  1  0
 36 39  1  0
 37 41  1  0
 37 36  1  0
 38 37  2  0
 41 40  1  0
 43 41  1  0
 43 44  1  0
 43 42  1  0
 45 48  1  1
 45 46  1  0
 47 45  1  0
 50 55  1  0
 52 54  1  0
 52 50  2  0
 53 51  1  0
 53 49  1  0
 54 53  2  0
 55 66  1  0
 55 51  2  0
 56 52  1  0
 57 54  1  0
 58 66  1  0
 59 64  1  0
 60 61  1  0
 60 59  1  0
 62 61  1  0
 62 71  1  0
 62 63  1  0
 64 58  1  0
 64 63  1  0
 65 58  2  0
 66 67  1  0
 68 69  2  0
 69 88  1  0
 70 69  1  0
 70 73  1  0
 71 68  1  0
 71 72  1  0
 72 70  2  0
 73 74  1  0
 74 75  2  0
 76 79  1  0
 76 75  1  0
 77 76  2  0
 78 77  1  0
 78 73  2  0
 79 80  1  0
 80 81  1  0
 81 82  2  0
 83 82  1  0
 83 87  1  0
 84 83  2  0
 85 80  2  0
 85 84  1  0
 86 85  1  0
 88 89  1  0
 89 92  1  0
 89 91  1  0
 90 88  2  0
 93 94  1  0
 93 68  1  0
 95 93  1  0
M  ISO  4   5 101   8 101  58 100  66 100
M  END
>  <TORSDO>  (83) 
F 18

>  <SCORE>  (83) 
-14.825

>  <name>  (83) 
82

>  <ligand_id>  (83) 
82

>  <original_smiles>  (83) 
[H]c1c([H])c([H])c2c(c1[H])C([H])([H])C([H])([H])C([H])([H])C2([H])N([H])C(=O)C1([H])N(C(=O)C([H])(N([H])C(=O)C([H])(N([H])C([H])([H])[H])C([H])([H])[H])C(C([H])([H])[H])(C([H])([H])[H])C([H])([H])[H])C([H])([H])c2c([H])c(OC3([H])C(=O)N(C([H])([H])c4c([H])c(N([H])C(=O)N5C([H])([H])C([H])([H])C([H])([H])C([H])(n6nc(-c7c([H])c([H])c(Oc8c([H])c([H])c(F)c([H])c8F)c([H])c7[H])c(C(=O)N([H])[H])c6N([H])[H])C5([H])[H])c([H])c(C([H])([H])[H])c4C([H])([H])[H])C([H])([H])C([H])([H])C3([H])[H])c([H])c([H])c2C1([H])[H]

>  <smiles>  (83) 
[H]c1c([H])c([H])c2c(c1[H])C([H])([H])C([H])([H])C([H])([H])C2([H])N([H])C(=O)C1([H])N(C(=O)C([H])(N([H])C(=O)C([H])(N([H])C([H])([H])[H])C([H])([H])[H])C(C([H])([H])[H])(C([H])([H])[H])C([H])([H])[H])C([H])([H])c2c([H])c(OC3([H])C(=O)N(C([H])([H])c4c([H])c(N([H])C(=O)N5C([H])([H])C([H])([H])C([H])([H])C([H])(n6nc(-c7c([H])c([H])c(Oc8c([H])c([H])c(F)c([H])c8F)c([H])c7[H])c(C(=O)N([H])[H])c6N([H])[H])C5([H])[H])c([H])c(C([H])([H])[H])c4C([H])([H])[H])C([H])([H])C([H])([H])C3([H])[H])c([H])c([H])c2C1([H])[H]

$$$$
83:0:0
     RDKit          3D

 95103  0  0  1  0  0  0  0  0999 V2000
  -30.2410  -20.5640   20.8960 C   0  0  0  0  0  0  0  0  0  0  0  0
  -29.7260  -21.6470   20.2580 N   0  0  0  0  0  0  0  0  0  0  0  0
  -31.0560  -20.6890   21.8110 O   0  0  0  0  0  0  0  0  0  0  0  0
  -29.1400  -21.4510   19.4610 H   0  0  0  0  0  0  0  0  0  0  0  0
  -27.9340  -17.6550   19.8440 C   0  0  0  0  0  3  0  0  0  0  0  0
  -28.7250  -16.5380   20.1410 C   0  0  0  0  0  3  0  0  0  0  0  0
  -30.5520  -17.9990   20.7820 C   0  0  0  0  0  3  0  0  0  0  0  0
  -29.7470  -19.1660   20.5130 C   0  0  0  0  0  0  0  0  0  0  0  0
  -28.4120  -18.9610   20.0410 C   0  0  0  0  0  0  0  0  0  0  0  0
  -30.0430  -16.6700   20.5960 C   0  0  0  0  0  0  0  0  0  0  0  0
  -27.4050  -20.0830   19.8050 C   0  0  0  0  0  1  0  0  0  0  0  0
  -31.1390  -14.4330   20.2310 C   0  0  0  0  0  0  0  0  0  0  0  0
  -30.8080  -12.1270   19.3490 C   0  0  0  0  0  2  0  0  0  0  0  0
  -29.8960  -12.1820   18.1040 C   0  0  0  0  0  2  0  0  0  0  0  0
  -28.4090  -12.1280   18.5070 C   0  0  0  0  0  2  0  0  0  0  0  0
  -28.0660  -13.1300   19.6420 C   0  0  0  0  0  3  0  0  0  0  0  0
  -29.0970  -13.0310   20.7930 C   0  0  0  0  0  2  0  0  0  0  0  0
  -30.4480  -13.2480   20.2400 N   0  0  0  0  0  0  0  0  0  0  0  0
  -32.1900  -14.5730   19.6010 O   0  0  0  0  0  0  0  0  0  0  0  0
  -30.6570  -15.4290   21.0150 N   0  0  0  0  0  0  0  0  0  0  0  0
  -30.1110  -14.9990   21.7440 H   0  0  0  0  0  0  0  0  0  0  0  0
  -25.6960  -13.9070   20.3070 C   0  0  0  0  0  0  0  0  0  0  0  0
  -24.5860  -13.2220   20.7110 C   0  0  0  0  0  0  0  0  0  0  0  0
  -24.9580  -11.8420   20.7200 C   0  0  0  0  0  0  0  0  0  0  0  0
  -26.6920  -12.9570   20.1180 N   0  0  0  0  0  0  0  0  0  0  0  0
  -26.2450  -11.7100   20.4220 N   0  0  0  0  0  0  0  0  0  0  0  0
  -24.1460  -10.6400   20.9430 C   0  0  0  0  0  0  0  0  0  0  0  0
  -24.5330   -9.6490   21.8720 C   0  0  0  0  0  3  0  0  0  0  0  0
  -23.7270   -8.5100   22.0850 C   0  0  0  0  0  3  0  0  0  0  0  0
  -22.5170   -8.3530   21.3680 C   0  0  0  0  0  0  0  0  0  0  0  0
  -22.1470   -9.3320   20.4280 C   0  0  0  0  0  3  0  0  0  0  0  0
  -22.9540  -10.4620   20.2120 C   0  0  0  0  0  3  0  0  0  0  0  0
  -21.6850   -7.2670   21.4890 O   0  0  0  0  0  0  0  0  0  0  0  0
  -21.6420   -6.5180   22.6360 C   0  0  0  0  0  0  0  0  0  0  0  0
  -21.3600   -7.0930   23.8940 C   0  0  0  0  0  3  0  0  0  0  0  0
  -21.2560   -6.2750   25.0360 C   0  0  0  0  0  3  0  0  0  0  0  0
  -21.4260   -4.8830   24.9230 C   0  0  0  0  0  0  0  0  0  0  0  0
  -21.7030   -4.3060   23.6710 C   0  0  0  0  0  3  0  0  0  0  0  0
  -21.8080   -5.1210   22.5300 C   0  0  0  0  0  0  0  0  0  0  0  0
  -22.0540   -4.5570   21.3230 F   0  0  0  0  0  0  0  0  0  0  0  0
  -21.3190   -4.0950   26.0190 F   0  0  0  0  0  0  0  0  0  0  0  0
  -23.2240  -13.8010   20.9650 C   0  0  0  0  0  0  0  0  0  0  0  0
  -22.4560  -13.2000   21.8670 N   0  0  0  0  0  0  0  0  0  0  0  0
  -22.8490  -14.8240   20.3940 O   0  0  0  0  0  0  0  0  0  0  0  0
  -22.7690  -12.3740   22.3570 H   0  0  0  0  0  0  0  0  0  0  0  0
  -21.5390  -13.5750   22.0710 H   0  0  0  0  0  0  0  0  0  0  0  0
  -25.9160  -15.2540   20.0560 N   0  0  0  0  0  0  0  0  0  0  0  0
  -25.1530  -15.9200   20.1080 H   0  0  0  0  0  0  0  0  0  0  0  0
  -26.7480  -15.6390   19.6250 H   0  0  0  0  0  0  0  0  0  0  0  0
  -29.5500  -22.9950   20.8590 C   0  0  0  0  0  2  0  0  0  0  0  0
  -30.2500  -24.4640   18.8950 C   0  0  0  0  0  1  0  0  0  0  0  0
  -29.1100  -24.1500   19.8820 C   0  0  1  0  0  0  0  0  0  0  0  0
  -28.0770  -23.6980   19.1680 F   0  0  0  0  0  0  0  0  0  0  0  0
  -28.6080  -25.4320   20.6580 C   0  0  0  0  0  2  0  0  0  0  0  0
  -28.4920  -26.6730   19.9180 O   0  0  0  0  0  0  0  0  0  0  0  0
  -24.6350  -31.7920   23.1850 C   0  0  0  0  0  0  0  0  0  0  0  0
  -27.3130  -27.3950   20.0170 C   0  0  0  0  0  0  0  0  0  0  0  0
  -23.4430  -30.4270   21.5030 C   0  0  0  0  0  3  0  0  0  0  0  0
  -24.9080  -28.9090   20.0590 C   0  0  0  0  0  0  0  0  0  0  0  0
  -25.9750  -30.7750   21.3400 C   0  0  0  0  0  2  0  0  0  0  0  0
  -26.0660  -29.4200   20.6610 C   0  0  0  0  0  0  0  0  0  0  0  0
  -27.2720  -28.6740   20.6290 C   0  0  0  0  0  3  0  0  0  0  0  0
  -26.1350  -26.8960   19.4250 C   0  0  0  0  0  3  0  0  0  0  0  0
  -24.9390  -27.6460   19.4390 C   0  0  0  0  0  3  0  0  0  0  0  0
  -23.6640  -29.7710   20.1140 C   0  0  0  0  0  2  0  0  0  0  0  0
  -24.7010  -31.0150   22.0650 N   0  0  0  0  0  0  0  0  0  0  0  0
  -23.5510  -32.0550   23.7210 O   0  0  0  0  0  0  0  0  0  0  0  0
  -22.7800  -29.3890   22.4360 C   0  0  0  0  0  0  0  0  0  0  0  0
  -21.4510  -29.2280   22.3080 N   0  0  0  0  0  0  0  0  0  0  0  0
  -23.4580  -28.7290   23.2280 O   0  0  0  0  0  0  0  0  0  0  0  0
  -20.9660  -29.8150   21.6430 H   0  0  0  0  0  0  0  0  0  0  0  0
  -18.0570  -28.0950   22.8190 C   0  0  0  0  0  0  0  0  0  0  0  0
  -20.6250  -28.2770   23.0510 C   0  0  0  0  0  3  0  0  0  0  0  0
  -20.6790  -26.8730   22.4060 C   0  0  0  0  0  2  0  0  0  0  0  0
  -19.5500  -26.6240   21.4010 C   0  0  0  0  0  2  0  0  0  0  0  0
  -18.1850  -26.7740   22.0790 C   0  0  0  0  0  2  0  0  0  0  0  0
  -19.2030  -28.8080   23.2600 C   0  0  0  0  0  0  0  0  0  0  0  0
  -19.0280  -30.0490   23.9100 C   0  0  0  0  0  3  0  0  0  0  0  0
  -17.7410  -30.5760   24.1230 C   0  0  0  0  0  3  0  0  0  0  0  0
  -16.6100  -29.8580   23.6990 C   0  0  0  0  0  3  0  0  0  0  0  0
  -16.7680  -28.6180   23.0530 C   0  0  0  0  0  3  0  0  0  0  0  0
  -25.9170  -32.4060   23.8320 C   0  0  0  0  0  3  0  0  0  0  0  0
  -26.4120  -31.6170   25.1060 C   0  0  1  0  0  0  0  0  0  0  0  0
  -25.2980  -31.3790   26.1540 C   0  0  0  0  0  1  0  0  0  0  0  0
  -26.9970  -30.2410   24.7100 C   0  0  0  0  0  1  0  0  0  0  0  0
  -27.5560  -32.4000   25.7930 C   0  0  0  0  0  1  0  0  0  0  0  0
  -25.6140  -33.8020   24.1730 N   0  0  0  0  0  0  0  0  0  0  0  0
  -25.9820  -34.8620   23.4430 C   0  0  0  0  0  0  0  0  0  0  0  0
  -26.6810  -34.7680   22.4300 O   0  0  0  0  0  0  0  0  0  0  0  0
  -24.9920  -33.9510   24.9560 H   0  0  0  0  0  0  0  0  0  0  0  0
  -24.2860  -36.6800   23.0650 C   0  0  0  0  0  1  0  0  0  0  0  0
  -25.4970  -36.2490   23.9070 C   0  0  0  0  0  3  0  0  0  0  0  0
  -27.6190  -37.0880   24.8140 C   0  0  0  0  0  1  0  0  0  0  0  0
  -26.5470  -37.2910   23.8430 N   0  0  0  0  0  0  0  0  0  0  0  0
  -26.1500  -38.2140   23.9940 H   0  0  0  0  0  0  0  0  0  0  0  0
  1  3  2  0
  2 50  1  0
  2  1  1  0
  4  2  1  0
  5  9  2  0
  5  6  1  0
  6 10  2  0
  8  7  2  0
  8  1  1  0
  9  8  1  0
 10  7  1  0
 10 20  1  0
 11  9  1  0
 12 18  1  0
 12 20  1  0
 13 18  1  0
 14 15  1  0
 14 13  1  0
 16 15  1  0
 16 25  1  0
 16 17  1  0
 18 17  1  0
 19 12  2  0
 20 21  1  0
 22 23  2  0
 23 24  1  0
 23 42  1  0
 24 27  1  0
 25 22  1  0
 25 26  1  0
 26 24  2  0
 27 28  1  0
 28 29  2  0
 30 33  1  0
 30 29  1  0
 31 30  2  0
 32 31  1  0
 32 27  2  0
 33 34  1  0
 34 35  1  0
 35 36  2  0
 37 36  1  0
 37 41  1  0
 38 37  2  0
 39 34  2  0
 39 38  1  0
 40 39  1  0
 42 43  1  0
 43 46  1  0
 43 45  1  0
 44 42  2  0
 47 48  1  0
 47 22  1  0
 49 47  1  0
 52 51  1  6
 52 54  1  0
 52 50  1  0
 53 52  1  0
 55 57  1  0
 55 54  1  0
 56 67  2  0
 57 62  1  0
 58 66  1  0
 58 68  1  0
 59 65  1  0
 59 61  1  0
 60 66  1  0
 61 60  1  0
 62 61  2  0
 63 64  1  0
 63 57  2  0
 64 59  2  0
 65 58  1  0
 66 56  1  0
 68 70  2  0
 69 68  1  0
 71 69  1  0
 72 81  2  0
 72 77  1  0
 73 69  1  0
 73 77  1  0
 74 73  1  0
 75 76  1  0
 75 74  1  0
 76 72  1  0
 77 78  2  0
 78 79  1  0
 80 79  2  0
 81 80  1  0
 82 56  1  0
 82 87  1  0
 82 83  1  0
 83 86  1  1
 83 84  1  0
 85 83  1  0
 87 90  1  0
 88 92  1  0
 88 87  1  0
 89 88  2  0
 92 91  1  0
 94 92  1  0
 94 95  1  0
 94 93  1  0
M  ISO  4  12 100  20 100  54 101  55 101
M  END
>  <TORSDO>  (84) 
F 20

>  <SCORE>  (84) 
-13.858

>  <name>  (84) 
83

>  <ligand_id>  (84) 
83

>  <original_smiles>  (84) 
[H]c1c([H])c([H])c2c(c1[H])C([H])([H])C([H])([H])C([H])([H])C2([H])N([H])C(=O)C1([H])N(C(=O)C([H])(N([H])C(=O)C([H])(N([H])C([H])([H])[H])C([H])([H])[H])C(C([H])([H])[H])(C([H])([H])[H])C([H])([H])[H])C([H])([H])c2c([H])c(OC([H])([H])C(F)(C([H])([H])[H])C([H])([H])N([H])C(=O)c3c([H])c(N([H])C(=O)N4C([H])([H])C([H])([H])C([H])([H])C([H])(n5nc(-c6c([H])c([H])c(Oc7c([H])c([H])c(F)c([H])c7F)c([H])c6[H])c(C(=O)N([H])[H])c5N([H])[H])C4([H])[H])c([H])c([H])c3C([H])([H])[H])c([H])c([H])c2C1([H])[H]

>  <smiles>  (84) 
[H]c1c([H])c([H])c2c(c1[H])C([H])([H])C([H])([H])C([H])([H])C2([H])N([H])C(=O)C1([H])N(C(=O)C([H])(N([H])C(=O)C([H])(N([H])C([H])([H])[H])C([H])([H])[H])C(C([H])([H])[H])(C([H])([H])[H])C([H])([H])[H])C([H])([H])c2c([H])c(OC([H])([H])C(F)(C([H])([H])[H])C([H])([H])N([H])C(=O)c3c([H])c(N([H])C(=O)N4C([H])([H])C([H])([H])C([H])([H])C([H])(n5nc(-c6c([H])c([H])c(Oc7c([H])c([H])c(F)c([H])c7F)c([H])c6[H])c(C(=O)N([H])[H])c5N([H])[H])C4([H])[H])c([H])c([H])c3C([H])([H])[H])c([H])c([H])c2C1([H])[H]

$$$$
84:0:0
     RDKit          3D

 95 99  0  0  1  0  0  0  0  0999 V2000
  -30.1360  -21.2890   18.8080 C   0  0  0  0  0  3  0  0  0  0  0  0
  -29.8910  -19.1480   22.1820 C   0  0  0  0  0  1  0  0  0  0  0  0
  -28.3850  -20.4880   21.2090 C   0  0  0  0  0 15  0  0  0  0  0  0
  -31.8740  -19.1930   20.8950 C   0  0  0  0  0  1  0  0  0  0  0  0
  -28.7470  -22.2220   19.9600 C   0  0  0  0  0 15  0  0  0  0  0  0
  -31.4240  -20.2450   19.1780 N   0  0  0  0  0  2  0  0  0  0  0  0
  -30.0660  -21.6480   17.6290 O   0  0  0  0  0  0  0  0  0  0  0  0
  -28.4510  -24.3800   20.0820 O   0  0  0  0  0  1  0  0  0  0  0  0
  -24.7130  -31.4560   23.0240 C   0  0  0  0  0  0  0  0  0  0  0  0
  -27.4790  -25.8780   20.0590 C   0  0  0  0  0  0  0  0  0  0  0  0
  -23.6310  -30.0050   21.3710 C   0  0  0  0  0  3  0  0  0  0  0  0
  -25.1710  -28.2800   20.0020 C   0  0  0  0  0  0  0  0  0  0  0  0
  -26.2340  -30.0420   21.3600 C   0  0  0  0  0  2  0  0  0  0  0  0
  -26.3600  -28.5390   20.6880 C   0  0  0  0  0  0  0  0  0  0  0  0
  -27.4530  -27.3940   20.6650 C   0  0  0  0  0  3  0  0  0  0  0  0
  -26.2310  -26.0240   19.3170 C   0  0  0  0  0  3  0  0  0  0  0  0
  -25.1880  -27.0570   19.2910 C   0  0  0  0  0  3  0  0  0  0  0  0
  -23.9530  -29.2700   20.0220 C   0  0  0  0  0  2  0  0  0  0  0  0
  -24.8920  -30.5540   21.9710 N   0  0  0  0  0  0  0  0  0  0  0  0
  -23.5870  -31.7350   23.4840 O   0  0  0  0  0  0  0  0  0  0  0  0
  -22.8740  -29.0560   22.3450 C   0  0  0  0  0  0  0  0  0  0  0  0
  -21.5370  -28.9050   22.2210 N   0  0  0  0  0  0  0  0  0  0  0  0
  -23.5170  -28.4430   23.2000 O   0  0  0  0  0  0  0  0  0  0  0  0
  -21.0560  -29.4490   21.5200 H   0  0  0  0  0  0  0  0  0  0  0  0
  -18.1700  -27.5880   22.7360 C   0  0  0  0  0  0  0  0  0  0  0  0
  -20.7250  -27.9380   22.9810 C   0  0  0  0  0  3  0  0  0  0  0  0
  -20.8610  -26.5170   22.3830 C   0  0  0  0  0  2  0  0  0  0  0  0
  -19.7670  -26.1840   21.3660 C   0  0  0  0  0  2  0  0  0  0  0  0
  -18.3850  -26.2660   22.0190 C   0  0  0  0  0  2  0  0  0  0  0  0
  -19.2670  -28.3810   23.1720 C   0  0  0  0  0  0  0  0  0  0  0  0
  -19.0050  -29.6110   23.8140 C   0  0  0  0  0  3  0  0  0  0  0  0
  -17.6830  -30.0520   24.0170 C   0  0  0  0  0  3  0  0  0  0  0  0
  -16.6030  -29.2600   23.5910 C   0  0  0  0  0  3  0  0  0  0  0  0
  -16.8480  -28.0290   22.9570 C   0  0  0  0  0  3  0  0  0  0  0  0
  -25.9020  -32.1950   23.7170 C   0  0  0  0  0  3  0  0  0  0  0  0
  -26.3740  -31.4810   25.0470 C   0  0  1  0  0  0  0  0  0  0  0  0
  -25.2340  -31.2370   26.0670 C   0  0  0  0  0  1  0  0  0  0  0  0
  -27.0230  -30.1150   24.7500 C   0  0  0  0  0  1  0  0  0  0  0  0
  -27.4620  -32.3330   25.7430 C   0  0  0  0  0  1  0  0  0  0  0  0
  -25.4950  -33.5870   24.0420 N   0  0  0  0  0  0  0  0  0  0  0  0
  -25.8420  -34.6890   23.3610 C   0  0  0  0  0  0  0  0  0  0  0  0
  -26.5750  -34.6450   22.3710 O   0  0  0  0  0  0  0  0  0  0  0  0
  -24.8420  -33.6900   24.8050 H   0  0  0  0  0  0  0  0  0  0  0  0
  -24.0820  -36.4660   22.9990 C   0  0  0  0  0  1  0  0  0  0  0  0
  -25.2990  -36.0560   23.8450 C   0  0  0  0  0  3  0  0  0  0  0  0
  -27.3640  -36.9920   24.8010 C   0  0  0  0  0  1  0  0  0  0  0  0
  -26.3040  -37.1440   23.8080 N   0  0  0  0  0  0  0  0  0  0  0  0
  -25.8610  -38.0480   23.9530 H   0  0  0  0  0  0  0  0  0  0  0  0
  -32.6710  -20.6340   18.5000 C   0  0  0  0  0  2  0  0  0  0  0  0
  -31.8640  -23.0480   21.2560 C   0  0  0  0  0  3  0  0  0  0  0  0
  -32.4430  -23.7860   20.1800 C   0  0  0  0  0  3  0  0  0  0  0  0
  -33.3970  -21.3620   20.7420 C   0  0  0  0  0  2  0  0  0  0  0  0
  -32.1250  -21.6500   21.2830 C   0  0  0  0  0  3  0  0  0  0  0  0
  -33.3560  -21.6830   19.3790 C   0  0  0  0  0  3  0  0  0  0  0  0
  -33.1050  -23.0600   19.1460 C   0  0  0  0  0  3  0  0  0  0  0  0
  -33.3320  -23.7710   17.5900 Cl  0  0  0  0  0  0  0  0  0  0  0  0
  -30.9270  -20.5490   21.4190 C   0  0  0  0  0  3  0  0  0  0  0  0
  -30.5440  -16.5370   19.7640 C   0  0  0  0  0  0  0  0  0  0  0  0
  -30.6550  -13.7560   18.8250 C   0  0  0  0  0  2  0  0  0  0  0  0
  -29.7920  -12.9440   17.7630 C   0  0  0  0  0  2  0  0  0  0  0  0
  -28.4980  -12.3920   18.3540 C   0  0  0  0  0  2  0  0  0  0  0  0
  -27.9620  -13.4240   19.3530 C   0  0  0  0  0  3  0  0  0  0  0  0
  -29.0190  -14.0890   20.3290 C   0  0  0  0  0  2  0  0  0  0  0  0
  -29.9820  -15.0340   19.5720 N   0  0  0  0  0  0  0  0  0  0  0  0
  -31.7360  -16.1100   19.5740 O   0  0  0  0  0  0  0  0  0  0  0  0
  -30.0900  -18.3340   19.9710 N   0  0  0  0  0  2  0  0  0  0  0  0
  -29.0980  -18.4140   19.7980 H   0  0  0  0  0  0  0  0  0  0  0  0
  -25.6650  -13.9030   20.2580 C   0  0  0  0  0  0  0  0  0  0  0  0
  -24.6220  -13.1350   20.6820 C   0  0  0  0  0  0  0  0  0  0  0  0
  -25.0760  -11.7790   20.6300 C   0  0  0  0  0  0  0  0  0  0  0  0
  -26.6970  -13.0350   19.9760 N   0  0  0  0  0  0  0  0  0  0  0  0
  -26.3560  -11.7390   20.2460 N   0  0  0  0  0  0  0  0  0  0  0  0
  -24.3270  -10.5310   20.8710 C   0  0  0  0  0  0  0  0  0  0  0  0
  -24.7130   -9.6110   21.8720 C   0  0  0  0  0  3  0  0  0  0  0  0
  -23.9550   -8.4410   22.1050 C   0  0  0  0  0  3  0  0  0  0  0  0
  -22.7920   -8.1800   21.3410 C   0  0  0  0  0  0  0  0  0  0  0  0
  -22.4220   -9.0880   20.3330 C   0  0  0  0  0  3  0  0  0  0  0  0
  -23.1810  -10.2480   20.0980 C   0  0  0  0  0  3  0  0  0  0  0  0
  -22.0120   -7.0560   21.4790 O   0  0  0  0  0  0  0  0  0  0  0  0
  -21.8480   -6.4350   22.6920 C   0  0  0  0  0  0  0  0  0  0  0  0
  -21.3030   -7.1090   23.8070 C   0  0  0  0  0  3  0  0  0  0  0  0
  -21.0870   -6.4160   25.0130 C   0  0  0  0  0  3  0  0  0  0  0  0
  -21.4070   -5.0470   25.1070 C   0  0  0  0  0  0  0  0  0  0  0  0
  -21.9450   -4.3730   23.9970 C   0  0  0  0  0  3  0  0  0  0  0  0
  -22.1610   -5.0630   22.7920 C   0  0  0  0  0  0  0  0  0  0  0  0
  -22.6590   -4.4030   21.7190 F   0  0  0  0  0  0  0  0  0  0  0  0
  -21.1940   -4.3780   26.2640 F   0  0  0  0  0  0  0  0  0  0  0  0
  -23.2490  -13.6380   21.0120 C   0  0  0  0  0  0  0  0  0  0  0  0
  -22.5620  -12.9850   21.9410 N   0  0  0  0  0  0  0  0  0  0  0  0
  -22.8000  -14.6550   20.4820 O   0  0  0  0  0  0  0  0  0  0  0  0
  -22.9420  -12.1650   22.3920 H   0  0  0  0  0  0  0  0  0  0  0  0
  -21.6430  -13.3080   22.2060 H   0  0  0  0  0  0  0  0  0  0  0  0
  -25.8200  -15.2700   20.0490 N   0  0  0  0  0  0  0  0  0  0  0  0
  -25.0590  -15.9270   20.1850 H   0  0  0  0  0  0  0  0  0  0  0  0
  -26.6540  -15.6980   19.6700 H   0  0  0  0  0  0  0  0  0  0  0  0
  1  6  1  0
  4 57  1  0
  7  1  2  0
  9 20  2  0
 10  8  1  0
 10 15  1  0
 11 19  1  0
 11 21  1  0
 12 18  1  0
 12 14  1  0
 13 19  1  0
 14 13  1  0
 15 14  2  0
 16 10  2  0
 17 16  1  0
 17 12  2  0
 18 11  1  0
 19  9  1  0
 21 23  2  0
 22 21  1  0
 24 22  1  0
 25 34  2  0
 25 30  1  0
 26 22  1  0
 26 30  1  0
 27 26  1  0
 28 29  1  0
 28 27  1  0
 29 25  1  0
 30 31  2  0
 31 32  1  0
 33 32  2  0
 34 33  1  0
 35  9  1  0
 35 40  1  0
 35 36  1  0
 36 39  1  1
 36 37  1  0
 38 36  1  0
 40 43  1  0
 41 45  1  0
 41 40  1  0
 42 41  2  0
 45 44  1  0
 47 45  1  0
 47 48  1  0
 47 46  1  0
 49  6  1  0
 50 53  1  0
 51 50  2  0
 52 53  1  0
 53 57  1  0
 54 49  1  0
 54 52  1  0
 55 56  1  0
 55 54  1  0
 55 51  1  0
 57  2  1  0
 58 66  1  0
 59 64  1  0
 60 61  1  0
 60 59  1  0
 62 61  1  0
 62 71  1  0
 62 63  1  0
 64 58  1  0
 64 63  1  0
 65 58  2  0
 67 66  1  0
 68 69  2  0
 69 88  1  0
 70 69  1  0
 70 73  1  0
 71 72  1  0
 71 68  1  0
 72 70  2  0
 73 74  1  0
 74 75  2  0
 76 79  1  0
 76 75  1  0
 77 76  2  0
 78 77  1  0
 78 73  2  0
 79 80  1  0
 80 85  2  0
 80 81  1  0
 81 82  2  0
 82 83  1  0
 83 87  1  0
 84 83  2  0
 85 84  1  0
 86 85  1  0
 88 89  1  0
 89 92  1  0
 89 91  1  0
 90 88  2  0
 93 94  1  0
 93 68  1  0
 95 93  1  0
M  ISO  4   5 101   8 101  58 100  66 100
M  END
>  <TORSDO>  (85) 
F 19

>  <SCORE>  (85) 
-12.751

>  <name>  (85) 
84

>  <ligand_id>  (85) 
84

>  <original_smiles>  (85) 
[H]c1c([H])c([H])c2c(c1[H])C([H])([H])C([H])([H])C([H])([H])C2([H])N([H])C(=O)C1([H])N(C(=O)C([H])(N([H])C(=O)C([H])(N([H])C([H])([H])[H])C([H])([H])[H])C(C([H])([H])[H])(C([H])([H])[H])C([H])([H])[H])C([H])([H])c2c([H])c(OC3([H])C(=O)N(C([H])([H])c4c([H])c(C([H])([H])N([H])C(=O)N5C([H])([H])C([H])([H])C([H])([H])C([H])(n6nc(-c7c([H])c([H])c(Oc8c([H])c([H])c(F)c([H])c8F)c([H])c7[H])c(C(=O)N([H])[H])c6N([H])[H])C5([H])[H])c([H])c([H])c4Cl)C([H])([H])C([H])([H])C3([H])[H])c([H])c([H])c2C1([H])[H]

>  <smiles>  (85) 
[H]c1c([H])c([H])c2c(c1[H])C([H])([H])C([H])([H])C([H])([H])C2([H])N([H])C(=O)C1([H])N(C(=O)C([H])(N([H])C(=O)C([H])(N([H])C([H])([H])[H])C([H])([H])[H])C(C([H])([H])[H])(C([H])([H])[H])C([H])([H])[H])C([H])([H])c2c([H])c(OC3([H])C(=O)N(C([H])([H])c4c([H])c(C([H])([H])N([H])C(=O)N5C([H])([H])C([H])([H])C([H])([H])C([H])(n6nc(-c7c([H])c([H])c(Oc8c([H])c([H])c(F)c([H])c8F)c([H])c7[H])c(C(=O)N([H])[H])c6N([H])[H])C5([H])[H])c([H])c([H])c4Cl)C([H])([H])C([H])([H])C3([H])[H])c([H])c([H])c2C1([H])[H]

$$$$
