0:0:0
     RDKit          3D

 92100  0  0  1  0  0  0  0  0999 V2000
  -29.3050  -22.0410   21.3500 C   0  0  0  0  0  0  0  0  0  0  0  0
  -29.2970  -23.0890   20.5040 N   0  0  0  0  0  0  0  0  0  0  0  0
  -29.3670  -22.1710   22.5730 O   0  0  0  0  0  0  0  0  0  0  0  0
  -29.2630  -22.8730   19.5180 H   0  0  0  0  0  0  0  0  0  0  0  0
  -29.3580  -19.5590   21.2310 C   0  0  0  0  0  3  0  0  0  0  0  0
  -29.2130  -20.7720   20.6350 C   0  0  0  0  0  3  0  0  0  0  0  0
  -28.4300  -17.1130   18.5080 C   0  0  0  0  0  3  0  0  0  0  0  0
  -28.4660  -18.2390   19.3320 C   0  0  0  0  0  3  0  0  0  0  0  0
  -29.1520  -15.9740   18.8730 C   0  0  0  0  0  3  0  0  0  0  0  0
  -29.2290  -18.2510   20.5220 C   0  0  0  0  0  0  0  0  0  0  0  0
  -29.8410  -15.8720   20.1030 C   0  0  0  0  0  0  0  0  0  0  0  0
  -29.9030  -17.0480   20.9280 C   0  0  0  0  0  0  0  0  0  0  0  0
  -30.7080  -17.0560   22.2250 C   0  0  0  0  0  1  0  0  0  0  0  0
  -30.6370  -14.5910   20.3310 C   0  0  0  0  0  0  0  0  0  0  0  0
  -30.3720  -12.3450   19.3640 C   0  0  0  0  0  2  0  0  0  0  0  0
  -29.4270  -12.4210   18.1430 C   0  0  0  0  0  2  0  0  0  0  0  0
  -27.9410  -12.3580   18.5650 C   0  0  0  0  0  2  0  0  0  0  0  0
  -27.5870  -13.2310   19.8000 C   0  0  0  0  0  3  0  0  0  0  0  0
  -28.6610  -13.1370   20.9040 C   0  0  0  0  0  2  0  0  0  0  0  0
  -29.9780  -13.3990   20.3110 N   0  0  0  0  0  0  0  0  0  0  0  0
  -31.8500  -14.6760   20.1290 O   0  0  0  0  0  0  0  0  0  0  0  0
  -25.2100  -13.8340   20.5570 C   0  0  0  0  0  0  0  0  0  0  0  0
  -24.1490  -13.0560   20.9340 C   0  0  0  0  0  0  0  0  0  0  0  0
  -24.6170  -11.7070   20.9000 C   0  0  0  0  0  0  0  0  0  0  0  0
  -26.2510  -12.9530   20.3110 N   0  0  0  0  0  0  0  0  0  0  0  0
  -25.9040  -11.6720   20.5860 N   0  0  0  0  0  0  0  0  0  0  0  0
  -23.9010  -10.4410   21.0900 C   0  0  0  0  0  0  0  0  0  0  0  0
  -24.3570   -9.4680   22.0070 C   0  0  0  0  0  3  0  0  0  0  0  0
  -23.6410   -8.2650   22.1850 C   0  0  0  0  0  3  0  0  0  0  0  0
  -22.4570   -8.0270   21.4470 C   0  0  0  0  0  0  0  0  0  0  0  0
  -22.0220   -8.9890   20.5170 C   0  0  0  0  0  3  0  0  0  0  0  0
  -22.7390  -10.1830   20.3370 C   0  0  0  0  0  3  0  0  0  0  0  0
  -21.7090   -6.8770   21.5380 O   0  0  0  0  0  0  0  0  0  0  0  0
  -21.6900   -6.1210   22.6810 C   0  0  0  0  0  0  0  0  0  0  0  0
  -21.2920   -6.6560   23.9250 C   0  0  0  0  0  3  0  0  0  0  0  0
  -21.2230   -5.8240   25.0600 C   0  0  0  0  0  3  0  0  0  0  0  0
  -21.5400   -4.4570   24.9520 C   0  0  0  0  0  0  0  0  0  0  0  0
  -21.9340   -3.9210   23.7130 C   0  0  0  0  0  3  0  0  0  0  0  0
  -22.0040   -4.7500   22.5800 C   0  0  0  0  0  0  0  0  0  0  0  0
  -22.3610   -4.2230   21.3850 F   0  0  0  0  0  0  0  0  0  0  0  0
  -21.4660   -3.6550   26.0400 F   0  0  0  0  0  0  0  0  0  0  0  0
  -22.7500  -13.5250   21.2150 C   0  0  0  0  0  0  0  0  0  0  0  0
  -22.0330  -12.8200   22.0840 N   0  0  0  0  0  0  0  0  0  0  0  0
  -22.3020  -14.5470   20.6980 O   0  0  0  0  0  0  0  0  0  0  0  0
  -22.4100  -11.9930   22.5230 H   0  0  0  0  0  0  0  0  0  0  0  0
  -21.0960  -13.1150   22.3190 H   0  0  0  0  0  0  0  0  0  0  0  0
  -25.3740  -15.2070   20.3820 N   0  0  0  0  0  0  0  0  0  0  0  0
  -24.6170  -15.8710   20.5070 H   0  0  0  0  0  0  0  0  0  0  0  0
  -26.2410  -15.6440   20.0940 H   0  0  0  0  0  0  0  0  0  0  0  0
  -29.3440  -24.5220   20.8380 C   0  0  0  0  0  2  0  0  0  0  0  0
  -28.2420  -25.2970   20.0840 C   0  0  0  0  0  2  0  0  0  0  0  0
  -28.3660  -26.7220   20.2400 O   0  0  0  0  0  0  0  0  0  0  0  0
  -24.6150  -31.9320   23.2710 C   0  0  0  0  0  0  0  0  0  0  0  0
  -27.2030  -27.4680   20.1840 C   0  0  0  0  0  0  0  0  0  0  0  0
  -23.3860  -30.5400   21.6350 C   0  0  0  0  0  3  0  0  0  0  0  0
  -24.8200  -28.9990   20.1960 C   0  0  0  0  0  0  0  0  0  0  0  0
  -25.9130  -30.8830   21.4210 C   0  0  0  0  0  2  0  0  0  0  0  0
  -25.9850  -29.5120   20.7800 C   0  0  0  0  0  0  0  0  0  0  0  0
  -27.1780  -28.7540   20.7720 C   0  0  0  0  0  3  0  0  0  0  0  0
  -26.0240  -26.9850   19.5680 C   0  0  0  0  0  3  0  0  0  0  0  0
  -24.8350  -27.7370   19.5830 C   0  0  0  0  0  3  0  0  0  0  0  0
  -23.5800  -29.8630   20.2520 C   0  0  0  0  0  2  0  0  0  0  0  0
  -24.6570  -31.1320   22.1670 N   0  0  0  0  0  0  0  0  0  0  0  0
  -23.5400  -32.2090   23.8190 O   0  0  0  0  0  0  0  0  0  0  0  0
  -22.7370  -29.5210   22.5990 C   0  0  0  0  0  0  0  0  0  0  0  0
  -21.4120  -29.3400   22.4740 N   0  0  0  0  0  0  0  0  0  0  0  0
  -23.4220  -28.8980   23.4140 O   0  0  0  0  0  0  0  0  0  0  0  0
  -20.9210  -29.8930   21.7850 H   0  0  0  0  0  0  0  0  0  0  0  0
  -18.0410  -28.1500   22.9770 C   0  0  0  0  0  0  0  0  0  0  0  0
  -20.5980  -28.4090   23.2520 C   0  0  0  0  0  3  0  0  0  0  0  0
  -20.7010  -26.9740   22.6850 C   0  0  0  0  0  2  0  0  0  0  0  0
  -19.6020  -26.6460   21.6700 C   0  0  0  0  0  2  0  0  0  0  0  0
  -18.2190  -26.7950   22.3100 C   0  0  0  0  0  2  0  0  0  0  0  0
  -19.1580  -28.9140   23.4050 C   0  0  0  0  0  0  0  0  0  0  0  0
  -18.9400  -30.1810   23.9870 C   0  0  0  0  0  3  0  0  0  0  0  0
  -17.6360  -30.6840   24.1510 C   0  0  0  0  0  3  0  0  0  0  0  0
  -16.5310  -29.9170   23.7390 C   0  0  0  0  0  3  0  0  0  0  0  0
  -16.7350  -28.6540   23.1560 C   0  0  0  0  0  3  0  0  0  0  0  0
  -25.9110  -32.5520   23.8780 C   0  0  0  0  0  3  0  0  0  0  0  0
  -26.4360  -31.7780   25.1500 C   0  0  1  0  0  0  0  0  0  0  0  0
  -25.3530  -31.5440   26.2270 C   0  0  0  0  0  1  0  0  0  0  0  0
  -27.0090  -30.3960   24.7500 C   0  0  0  0  0  1  0  0  0  0  0  0
  -27.5980  -32.5630   25.8030 C   0  0  0  0  0  1  0  0  0  0  0  0
  -25.6130  -33.9530   24.2080 N   0  0  0  0  0  0  0  0  0  0  0  0
  -25.9430  -35.0010   23.4410 C   0  0  0  0  0  0  0  0  0  0  0  0
  -26.6000  -34.8910   22.4010 O   0  0  0  0  0  0  0  0  0  0  0  0
  -25.0270  -34.1120   25.0130 H   0  0  0  0  0  0  0  0  0  0  0  0
  -24.2160  -36.8020   23.1030 C   0  0  0  0  0  1  0  0  0  0  0  0
  -25.4660  -36.3920   23.8990 C   0  0  0  0  0  3  0  0  0  0  0  0
  -27.6160  -37.2720   24.6980 C   0  0  0  0  0  1  0  0  0  0  0  0
  -26.5010  -37.4420   23.7700 N   0  0  0  0  0  0  0  0  0  0  0  0
  -26.1000  -38.3630   23.9240 H   0  0  0  0  0  0  0  0  0  0  0  0
  1  3  2  0
  2 50  1  0
  2  1  1  0
  4  2  1  0
  6  5  2  0
  6  1  1  0
  7  9  2  0
  7  8  1  0
  8 10  2  0
  9 11  1  0
 10 12  1  0
 10  5  1  0
 11 14  1  0
 11 12  2  0
 12 13  1  0
 15 20  1  0
 16 17  1  0
 16 15  1  0
 18 17  1  0
 18 25  1  0
 18 19  1  0
 20 14  1  0
 20 19  1  0
 21 14  2  0
 22 23  2  0
 23 42  1  0
 24 23  1  0
 24 27  1  0
 25 22  1  0
 25 26  1  0
 26 24  2  0
 27 28  1  0
 28 29  2  0
 30 33  1  0
 30 29  1  0
 31 30  2  0
 32 31  1  0
 32 27  2  0
 33 34  1  0
 34 35  1  0
 35 36  2  0
 37 36  1  0
 37 41  1  0
 38 37  2  0
 39 34  2  0
 39 38  1  0
 40 39  1  0
 42 43  1  0
 43 46  1  0
 43 45  1  0
 44 42  2  0
 47 48  1  0
 47 22  1  0
 49 47  1  0
 51 52  1  0
 51 50  1  0
 53 64  2  0
 54 52  1  0
 54 59  1  0
 55 63  1  0
 55 65  1  0
 56 62  1  0
 56 58  1  0
 57 63  1  0
 58 57  1  0
 59 58  2  0
 60 61  1  0
 60 54  2  0
 61 56  2  0
 62 55  1  0
 63 53  1  0
 65 67  2  0
 66 65  1  0
 68 66  1  0
 69 78  2  0
 69 74  1  0
 70 66  1  0
 70 74  1  0
 71 70  1  0
 72 73  1  0
 72 71  1  0
 73 69  1  0
 74 75  2  0
 75 76  1  0
 77 76  2  0
 78 77  1  0
 79 53  1  0
 79 84  1  0
 79 80  1  0
 80 83  1  1
 80 81  1  0
 82 80  1  0
 84 87  1  0
 85 89  1  0
 85 84  1  0
 86 85  2  0
 89 88  1  0
 91 89  1  0
 91 92  1  0
 91 90  1  0
M  ISO  4  11 100  14 100  51 101  52 101
M  END
>  <TORSDO>  (1) 
F 20

>  <SCORE>  (1) 
-13.777

>  <name>  (1) 
0

>  <ligand_id>  (1) 
0

>  <original_smiles>  (1) 
[H]C(C(=O)N([H])C([H])([H])C([H])([H])Oc1c([H])c([H])c2c(c1[H])C([H])([H])N(C(=O)C([H])(N([H])C(=O)C([H])(N([H])C([H])([H])[H])C([H])([H])[H])C(C([H])([H])[H])(C([H])([H])[H])C([H])([H])[H])C([H])(C(=O)N([H])C1([H])c3c([H])c([H])c([H])c([H])c3C([H])([H])C([H])([H])C1([H])[H])C2([H])[H])=C([H])c1c([H])c([H])c([H])c(C(=O)N2C([H])([H])C([H])([H])C([H])([H])C([H])(n3nc(-c4c([H])c([H])c(Oc5c([H])c([H])c(F)c([H])c5F)c([H])c4[H])c(C(=O)N([H])[H])c3N([H])[H])C2([H])[H])c1C([H])([H])[H]

>  <smiles>  (1) 
[H]C(C(=O)N([H])C([H])([H])C([H])([H])Oc1c([H])c([H])c2c(c1[H])C([H])([H])N(C(=O)C([H])(N([H])C(=O)C([H])(N([H])C([H])([H])[H])C([H])([H])[H])C(C([H])([H])[H])(C([H])([H])[H])C([H])([H])[H])C([H])(C(=O)N([H])C1([H])c3c([H])c([H])c([H])c([H])c3C([H])([H])C([H])([H])C1([H])[H])C2([H])[H])=C([H])c1c([H])c([H])c([H])c(C(=O)N2C([H])([H])C([H])([H])C([H])([H])C([H])(n3nc(-c4c([H])c([H])c(Oc5c([H])c([H])c(F)c([H])c5F)c([H])c4[H])c(C(=O)N([H])[H])c3N([H])[H])C2([H])[H])c1C([H])([H])[H]

$$$$
1:0:0
     RDKit          3D

 92100  0  0  1  0  0  0  0  0999 V2000
  -28.8890  -23.0560   20.1170 C   0  0  0  0  0  0  0  0  0  0  0  0
  -28.6580  -21.7570   20.4330 N   0  0  0  0  0  0  0  0  0  0  0  0
  -29.8060  -23.3910   19.3640 O   0  0  0  0  0  0  0  0  0  0  0  0
  -27.9080  -21.5780   21.0870 H   0  0  0  0  0  0  0  0  0  0  0  0
  -29.1550  -20.5660   19.7010 C   0  0  0  0  0  2  0  0  0  0  0  0
  -31.4520  -18.6530   22.1440 C   0  0  0  0  0  3  0  0  0  0  0  0
  -30.7680  -19.7020   21.4920 C   0  0  0  0  0  3  0  0  0  0  0  0
  -31.1700  -17.3050   21.8350 C   0  0  0  0  0  3  0  0  0  0  0  0
  -29.4890  -18.0480   20.2390 C   0  0  0  0  0  3  0  0  0  0  0  0
  -29.7910  -19.4180   20.5160 C   0  0  0  0  0  0  0  0  0  0  0  0
  -30.1800  -16.9810   20.8820 C   0  0  0  0  0  0  0  0  0  0  0  0
  -30.5960  -14.5620   20.2720 C   0  0  0  0  0  0  0  0  0  0  0  0
  -30.3140  -12.3840   19.1240 C   0  0  0  0  0  2  0  0  0  0  0  0
  -29.3360  -12.5600   17.9420 C   0  0  0  0  0  2  0  0  0  0  0  0
  -27.8730  -12.4070   18.4090 C   0  0  0  0  0  2  0  0  0  0  0  0
  -27.5560  -13.2480   19.6730 C   0  0  0  0  0  3  0  0  0  0  0  0
  -28.6410  -13.0460   20.7560 C   0  0  0  0  0  2  0  0  0  0  0  0
  -29.9420  -13.3720   20.1500 N   0  0  0  0  0  0  0  0  0  0  0  0
  -31.7490  -14.7270   19.8650 O   0  0  0  0  0  0  0  0  0  0  0  0
  -29.8150  -15.6090   20.6440 N   0  0  0  0  0  0  0  0  0  0  0  0
  -28.8350  -15.3920   20.7380 H   0  0  0  0  0  0  0  0  0  0  0  0
  -25.1760  -13.8500   20.4440 C   0  0  0  0  0  0  0  0  0  0  0  0
  -24.1180  -13.0760   20.8390 C   0  0  0  0  0  0  0  0  0  0  0  0
  -24.5820  -11.7250   20.7960 C   0  0  0  0  0  0  0  0  0  0  0  0
  -26.2160  -12.9710   20.1870 N   0  0  0  0  0  0  0  0  0  0  0  0
  -25.8640  -11.6890   20.4590 N   0  0  0  0  0  0  0  0  0  0  0  0
  -23.8630  -10.4610   21.0020 C   0  0  0  0  0  0  0  0  0  0  0  0
  -24.3220   -9.4930   21.9210 C   0  0  0  0  0  3  0  0  0  0  0  0
  -23.6060   -8.2920   22.1140 C   0  0  0  0  0  3  0  0  0  0  0  0
  -22.4140   -8.0510   21.3890 C   0  0  0  0  0  0  0  0  0  0  0  0
  -21.9720   -9.0100   20.4600 C   0  0  0  0  0  3  0  0  0  0  0  0
  -22.6890  -10.2030   20.2650 C   0  0  0  0  0  3  0  0  0  0  0  0
  -21.6660   -6.9050   21.4940 O   0  0  0  0  0  0  0  0  0  0  0  0
  -21.6590   -6.1520   22.6400 C   0  0  0  0  0  0  0  0  0  0  0  0
  -21.2810   -6.6970   23.8860 C   0  0  0  0  0  3  0  0  0  0  0  0
  -21.2200   -5.8710   25.0270 C   0  0  0  0  0  3  0  0  0  0  0  0
  -21.5240   -4.5010   24.9220 C   0  0  0  0  0  0  0  0  0  0  0  0
  -21.8960   -3.9550   23.6800 C   0  0  0  0  0  3  0  0  0  0  0  0
  -21.9590   -4.7780   22.5430 C   0  0  0  0  0  0  0  0  0  0  0  0
  -22.2960   -4.2420   21.3450 F   0  0  0  0  0  0  0  0  0  0  0  0
  -21.4590   -3.7060   26.0160 F   0  0  0  0  0  0  0  0  0  0  0  0
  -22.7260  -13.5500   21.1400 C   0  0  0  0  0  0  0  0  0  0  0  0
  -22.0170  -12.8540   22.0210 N   0  0  0  0  0  0  0  0  0  0  0  0
  -22.2750  -14.5730   20.6270 O   0  0  0  0  0  0  0  0  0  0  0  0
  -22.3920  -12.0280   22.4620 H   0  0  0  0  0  0  0  0  0  0  0  0
  -21.0830  -13.1570   22.2620 H   0  0  0  0  0  0  0  0  0  0  0  0
  -25.3320  -15.2210   20.2630 N   0  0  0  0  0  0  0  0  0  0  0  0
  -24.5630  -15.8710   20.3890 H   0  0  0  0  0  0  0  0  0  0  0  0
  -26.1620  -15.6650   19.8900 H   0  0  0  0  0  0  0  0  0  0  0  0
  -27.9050  -24.1340   20.6560 C   0  0  0  0  0  2  0  0  0  0  0  0
  -28.4790  -25.5400   21.0600 C   0  0  0  0  0  2  0  0  0  0  0  0
  -28.3900  -26.6400   20.1200 O   0  0  0  0  0  0  0  0  0  0  0  0
  -24.6110  -31.8800   23.2490 C   0  0  0  0  0  0  0  0  0  0  0  0
  -27.2390  -27.4070   20.1680 C   0  0  0  0  0  0  0  0  0  0  0  0
  -23.4010  -30.4800   21.6090 C   0  0  0  0  0  3  0  0  0  0  0  0
  -24.8510  -28.9380   20.1810 C   0  0  0  0  0  0  0  0  0  0  0  0
  -25.9300  -30.8290   21.4080 C   0  0  0  0  0  2  0  0  0  0  0  0
  -26.0140  -29.4560   20.7690 C   0  0  0  0  0  0  0  0  0  0  0  0
  -27.2130  -28.6980   20.7570 C   0  0  0  0  0  3  0  0  0  0  0  0
  -26.0630  -26.9180   19.5660 C   0  0  0  0  0  3  0  0  0  0  0  0
  -24.8730  -27.6720   19.5730 C   0  0  0  0  0  3  0  0  0  0  0  0
  -23.6080  -29.8000   20.2300 C   0  0  0  0  0  2  0  0  0  0  0  0
  -24.6660  -31.0800   22.1460 N   0  0  0  0  0  0  0  0  0  0  0  0
  -23.5310  -32.1510   23.7930 O   0  0  0  0  0  0  0  0  0  0  0  0
  -22.7510  -29.4590   22.5720 C   0  0  0  0  0  0  0  0  0  0  0  0
  -21.4260  -29.2750   22.4460 N   0  0  0  0  0  0  0  0  0  0  0  0
  -23.4360  -28.8350   23.3860 O   0  0  0  0  0  0  0  0  0  0  0  0
  -20.9350  -29.8300   21.7590 H   0  0  0  0  0  0  0  0  0  0  0  0
  -18.0560  -28.0690   22.9430 C   0  0  0  0  0  0  0  0  0  0  0  0
  -20.6120  -28.3350   23.2160 C   0  0  0  0  0  3  0  0  0  0  0  0
  -20.7200  -26.9040   22.6410 C   0  0  0  0  0  2  0  0  0  0  0  0
  -19.6200  -26.5770   21.6260 C   0  0  0  0  0  2  0  0  0  0  0  0
  -18.2370  -26.7190   22.2680 C   0  0  0  0  0  2  0  0  0  0  0  0
  -19.1710  -28.8340   23.3740 C   0  0  0  0  0  0  0  0  0  0  0  0
  -18.9480  -30.0980   23.9630 C   0  0  0  0  0  3  0  0  0  0  0  0
  -17.6420  -30.5970   24.1250 C   0  0  0  0  0  3  0  0  0  0  0  0
  -16.5410  -29.8280   23.7110 C   0  0  0  0  0  3  0  0  0  0  0  0
  -16.7480  -28.5650   23.1270 C   0  0  0  0  0  3  0  0  0  0  0  0
  -25.8980  -32.5110   23.8670 C   0  0  0  0  0  3  0  0  0  0  0  0
  -26.4210  -31.7380   25.1400 C   0  0  1  0  0  0  0  0  0  0  0  0
  -25.3330  -31.5010   26.2130 C   0  0  0  0  0  1  0  0  0  0  0  0
  -27.0020  -30.3610   24.7430 C   0  0  0  0  0  1  0  0  0  0  0  0
  -27.5770  -32.5320   25.7940 C   0  0  0  0  0  1  0  0  0  0  0  0
  -25.5900  -33.9090   24.1980 N   0  0  0  0  0  0  0  0  0  0  0  0
  -25.9210  -34.9610   23.4380 C   0  0  0  0  0  0  0  0  0  0  0  0
  -26.5880  -34.8580   22.4050 O   0  0  0  0  0  0  0  0  0  0  0  0
  -24.9980  -34.0630   25.0020 H   0  0  0  0  0  0  0  0  0  0  0  0
  -24.1900  -36.7530   23.0900 C   0  0  0  0  0  1  0  0  0  0  0  0
  -25.4340  -36.3490   23.8970 C   0  0  0  0  0  3  0  0  0  0  0  0
  -27.5750  -37.2300   24.7170 C   0  0  0  0  0  1  0  0  0  0  0  0
  -26.4650  -37.4040   23.7830 N   0  0  0  0  0  0  0  0  0  0  0  0
  -26.0580  -38.3220   23.9410 H   0  0  0  0  0  0  0  0  0  0  0  0
  1  2  1  0
  1 50  1  0
  2  4  1  0
  3  1  2  0
  5  2  1  0
  5 10  1  0
  7  6  2  0
  8  6  1  0
  9 10  2  0
  9 11  1  0
 10  7  1  0
 11  8  2  0
 12 20  1  0
 13 18  1  0
 14 15  1  0
 14 13  1  0
 16 15  1  0
 16 25  1  0
 16 17  1  0
 18 12  1  0
 18 17  1  0
 19 12  2  0
 20 21  1  0
 20 11  1  0
 22 23  2  0
 23 42  1  0
 24 23  1  0
 24 27  1  0
 25 22  1  0
 25 26  1  0
 26 24  2  0
 27 28  1  0
 28 29  2  0
 30 33  1  0
 30 29  1  0
 31 30  2  0
 32 31  1  0
 32 27  2  0
 33 34  1  0
 34 35  1  0
 35 36  2  0
 37 36  1  0
 37 41  1  0
 38 37  2  0
 39 34  2  0
 39 38  1  0
 40 39  1  0
 42 43  1  0
 43 46  1  0
 43 45  1  0
 44 42  2  0
 47 48  1  0
 47 22  1  0
 49 47  1  0
 50 51  1  0
 52 54  1  0
 52 51  1  0
 53 64  2  0
 54 59  1  0
 55 63  1  0
 55 65  1  0
 56 62  1  0
 56 58  1  0
 57 63  1  0
 58 57  1  0
 59 58  2  0
 60 61  1  0
 60 54  2  0
 61 56  2  0
 62 55  1  0
 63 53  1  0
 65 67  2  0
 66 65  1  0
 68 66  1  0
 69 78  2  0
 69 74  1  0
 70 66  1  0
 70 74  1  0
 71 70  1  0
 72 73  1  0
 72 71  1  0
 73 69  1  0
 74 75  2  0
 75 76  1  0
 77 76  2  0
 78 77  1  0
 79 53  1  0
 79 84  1  0
 79 80  1  0
 80 83  1  1
 80 81  1  0
 82 80  1  0
 84 87  1  0
 85 89  1  0
 85 84  1  0
 86 85  2  0
 89 88  1  0
 91 89  1  0
 91 92  1  0
 91 90  1  0
M  ISO  4  12 100  20 100  51 101  52 101
M  END
>  <TORSDO>  (2) 
F 20

>  <SCORE>  (2) 
-13.898

>  <name>  (2) 
1

>  <ligand_id>  (2) 
1

>  <original_smiles>  (2) 
[H]c1c([H])c(N([H])C(=O)N2C([H])([H])C([H])([H])C([H])([H])C([H])(n3nc(-c4c([H])c([H])c(Oc5c([H])c([H])c(F)c([H])c5F)c([H])c4[H])c(C(=O)N([H])[H])c3N([H])[H])C2([H])[H])c([H])c(C([H])([H])N([H])C(=O)C([H])([H])C([H])([H])Oc2c([H])c([H])c3c(c2[H])C([H])([H])N(C(=O)C([H])(N([H])C(=O)C([H])(N([H])C([H])([H])[H])C([H])([H])[H])C(C([H])([H])[H])(C([H])([H])[H])C([H])([H])[H])C([H])(C(=O)N([H])C2([H])c4c([H])c([H])c([H])c([H])c4C([H])([H])C([H])([H])C2([H])[H])C3([H])[H])c1[H]

>  <smiles>  (2) 
[H]c1c([H])c(N([H])C(=O)N2C([H])([H])C([H])([H])C([H])([H])C([H])(n3nc(-c4c([H])c([H])c(Oc5c([H])c([H])c(F)c([H])c5F)c([H])c4[H])c(C(=O)N([H])[H])c3N([H])[H])C2([H])[H])c([H])c(C([H])([H])N([H])C(=O)C([H])([H])C([H])([H])Oc2c([H])c([H])c3c(c2[H])C([H])([H])N(C(=O)C([H])(N([H])C(=O)C([H])(N([H])C([H])([H])[H])C([H])([H])[H])C(C([H])([H])[H])(C([H])([H])[H])C([H])([H])[H])C([H])(C(=O)N([H])C2([H])c4c([H])c([H])c([H])c([H])c4C([H])([H])C([H])([H])C2([H])[H])C3([H])[H])c1[H]

$$$$
2:0:0
     RDKit          3D

103108  0  0  1  0  0  0  0  0999 V2000
  -24.8270  -24.4270   19.5670 C   0  0  0  0  0  0  0  0  0  0  0  0
  -24.1890  -24.3600   18.4160 N   0  0  0  0  0  4  0  0  0  0  0  0
  -24.1480  -25.6800   20.3240 N   0  0  0  0  0  0  0  0  0  0  0  0
  -24.5450  -23.7850   17.6780 H   0  0  0  0  0  0  0  0  0  0  0  0
  -23.5130  -25.0640   18.2020 H   0  0  0  0  0  0  0  0  0  0  0  0
  -24.8820  -26.0960   20.8830 H   0  0  0  0  0  0  0  0  0  0  0  0
  -27.0890  -23.2980   20.6300 C   0  0  0  0  0  3  0  0  0  0  0  0
  -28.4250  -21.1110   20.3200 C   0  0  0  0  0  3  0  0  0  0  0  0
  -26.0840  -23.0740   19.6620 C   0  0  0  0  0  0  0  0  0  0  0  0
  -28.1810  -22.4100   20.9010 C   0  0  0  0  0  0  0  0  0  0  0  0
  -27.6330  -20.4550   19.3450 C   0  0  0  0  0  0  0  0  0  0  0  0
  -26.4650  -21.5800   19.0650 C   0  0  0  0  0  0  0  0  0  0  0  0
  -29.1710  -22.9470   21.9120 C   0  0  0  0  0  1  0  0  0  0  0  0
  -25.5660  -21.0940   17.9600 C   0  0  0  0  0  1  0  0  0  0  0  0
  -28.2370  -18.7350   18.6720 C   0  0  0  0  0  2  0  0  0  0  0  0
  -30.0590  -15.9260   19.0980 C   0  0  0  0  0  0  0  0  0  0  0  0
  -30.7270  -13.3150   18.6980 C   0  0  0  0  0  2  0  0  0  0  0  0
  -29.8160  -12.6430   17.6260 C   0  0  0  0  0  2  0  0  0  0  0  0
  -28.4420  -12.2840   18.2250 C   0  0  0  0  0  2  0  0  0  0  0  0
  -27.9600  -13.4180   19.1520 C   0  0  0  0  0  3  0  0  0  0  0  0
  -28.9990  -13.8120   20.1830 C   0  0  0  0  0  2  0  0  0  0  0  0
  -29.9700  -14.4890   19.3520 N   0  0  0  0  0  0  0  0  0  0  0  0
  -31.2700  -16.0760   18.7750 O   0  0  0  0  0  0  0  0  0  0  0  0
  -28.8690  -17.0310   19.0950 N   0  0  0  0  0  0  0  0  0  0  0  0
  -28.0600  -16.4710   19.3410 H   0  0  0  0  0  0  0  0  0  0  0  0
  -25.8790  -14.1510   20.3320 C   0  0  0  0  0  0  0  0  0  0  0  0
  -24.8060  -13.4570   20.8010 C   0  0  0  0  0  0  0  0  0  0  0  0
  -25.0930  -12.0770   20.5590 C   0  0  0  0  0  0  0  0  0  0  0  0
  -26.7180  -13.1910   19.8110 N   0  0  0  0  0  0  0  0  0  0  0  0
  -26.2960  -11.9320   20.0290 N   0  0  0  0  0  0  0  0  0  0  0  0
  -24.2640  -10.8860   20.7260 C   0  0  0  0  0  0  0  0  0  0  0  0
  -24.6150   -9.8630   21.6320 C   0  0  0  0  0  3  0  0  0  0  0  0
  -23.7860   -8.7330   21.7820 C   0  0  0  0  0  3  0  0  0  0  0  0
  -22.5950   -8.6250   21.0280 C   0  0  0  0  0  0  0  0  0  0  0  0
  -22.2690   -9.6310   20.1030 C   0  0  0  0  0  3  0  0  0  0  0  0
  -23.0990  -10.7530   19.9500 C   0  0  0  0  0  3  0  0  0  0  0  0
  -21.7390   -7.5560   21.0950 O   0  0  0  0  0  0  0  0  0  0  0  0
  -21.4730   -6.9240   22.2820 C   0  0  0  0  0  0  0  0  0  0  0  0
  -20.9320   -7.6110   23.3890 C   0  0  0  0  0  3  0  0  0  0  0  0
  -20.6130   -6.9070   24.5660 C   0  0  0  0  0  3  0  0  0  0  0  0
  -20.8250   -5.5160   24.6340 C   0  0  0  0  0  0  0  0  0  0  0  0
  -21.3650   -4.8300   23.5320 C   0  0  0  0  0  3  0  0  0  0  0  0
  -21.6870   -5.5330   22.3570 C   0  0  0  0  0  0  0  0  0  0  0  0
  -22.1860   -4.8670   21.2890 F   0  0  0  0  0  0  0  0  0  0  0  0
  -20.5110   -4.8340   25.7610 F   0  0  0  0  0  0  0  0  0  0  0  0
  -23.5360  -14.0500   21.3200 C   0  0  0  0  0  0  0  0  0  0  0  0
  -22.8840  -13.3650   22.2520 N   0  0  0  0  0  0  0  0  0  0  0  0
  -23.1440  -15.1490   20.9340 O   0  0  0  0  0  0  0  0  0  0  0  0
  -23.2280  -12.4730   22.5770 H   0  0  0  0  0  0  0  0  0  0  0  0
  -22.0270  -13.7310   22.6440 H   0  0  0  0  0  0  0  0  0  0  0  0
  -26.2110  -15.5080   20.2620 N   0  0  0  0  0  0  0  0  0  0  0  0
  -25.5260  -16.2030   20.5430 H   0  0  0  0  0  0  0  0  0  0  0  0
  -26.8070  -15.8300   19.5140 H   0  0  0  0  0  0  0  0  0  0  0  0
  -22.7630  -26.9250   20.3180 C   0  0  0  0  0  1  0  0  0  0  0  0
  -21.8480  -28.5580   21.2780 C   0  0  0  0  0 15  0  0  0  0  0  0
  -22.0890  -29.7680   22.8410 C   0  0  0  0  0  2  0  0  0  0  0  0
  -23.1770  -29.7180   24.0480 N   0  0  0  0  0  0  0  0  0  0  0  0
  -21.3560  -30.7680   22.8380 O   0  0  0  0  0  1  0  0  0  0  0  0
  -23.0360  -30.4980   24.6690 H   0  0  0  0  0  0  0  0  0  0  0  0
  -24.8330  -28.9160   24.5360 C   0  0  0  0  0  1  0  0  0  0  0  0
  -27.7780  -27.9400   24.5760 C   0  0  0  0  0  1  0  0  0  0  0  0
  -26.5740  -28.2440   23.6710 C   0  0  0  0  0  2  0  0  0  0  0  0
  -27.4470  -27.5770   22.2830 O   0  0  0  0  0  0  0  0  0  0  0  0
  -25.1650  -31.7020   23.5830 C   0  0  0  0  0  0  0  0  0  0  0  0
  -27.7620  -27.9250   20.9510 C   0  0  0  0  0  3  0  0  0  0  0  0
  -24.3500  -29.7060   21.8790 C   0  0  0  0  0  3  0  0  0  0  0  0
  -25.6490  -29.1620   20.0910 C   0  0  0  0  0  0  0  0  0  0  0  0
  -26.3960  -31.0750   21.5820 C   0  0  0  0  0  2  0  0  0  0  0  0
  -26.6870  -29.8700   20.7290 C   0  0  0  0  0  0  0  0  0  0  0  0
  -27.9240  -29.2830   20.8490 C   0  0  0  0  0  2  0  0  0  0  0  0
  -27.0180  -27.2290   19.9480 C   0  0  0  0  0  2  0  0  0  0  0  0
  -25.8460  -27.8790   19.5360 C   0  0  0  0  0  2  0  0  0  0  0  0
  -24.3330  -29.6720   20.3730 C   0  0  0  0  0  2  0  0  0  0  0  0
  -25.2920  -30.8060   22.4910 N   0  0  0  0  0  0  0  0  0  0  0  0
  -24.1030  -31.9030   24.1970 O   0  0  0  0  0  0  0  0  0  0  0  0
  -24.2290  -28.0000   22.3950 C   0  0  0  0  0  0  0  0  0  0  0  0
  -23.1830  -27.0980   22.9540 N   0  0  0  0  0  0  0  0  0  0  0  0
  -25.1480  -27.3240   22.5230 O   0  0  0  0  0  0  0  0  0  0  0  0
  -23.7390  -26.3680   23.3650 H   0  0  0  0  0  0  0  0  0  0  0  0
  -19.2980  -25.8080   22.0860 C   0  0  0  0  0  0  0  0  0  0  0  0
  -21.6260  -26.6740   23.2280 C   0  0  0  0  0  3  0  0  0  0  0  0
  -21.8540  -25.1900   23.1880 C   0  0  0  0  0  2  0  0  0  0  0  0
  -21.3770  -24.3990   21.9750 C   0  0  0  0  0  2  0  0  0  0  0  0
  -19.8690  -24.4180   21.9200 C   0  0  0  0  0  2  0  0  0  0  0  0
  -20.0720  -26.9010   22.6240 C   0  0  0  0  0  0  0  0  0  0  0  0
  -19.2920  -28.1010   22.7560 C   0  0  0  0  0  3  0  0  0  0  0  0
  -17.9460  -28.2390   22.3270 C   0  0  0  0  0  3  0  0  0  0  0  0
  -17.2540  -27.1360   21.8080 C   0  0  0  0  0  3  0  0  0  0  0  0
  -17.9350  -25.9160   21.7200 C   0  0  0  0  0  3  0  0  0  0  0  0
  -26.3750  -32.5350   24.1860 C   0  0  0  0  0  3  0  0  0  0  0  0
  -25.8610  -33.8270   24.6420 N   0  0  0  0  0  0  0  0  0  0  0  0
  -26.0380  -34.9630   23.9790 C   0  0  0  0  0  0  0  0  0  0  0  0
  -26.6430  -35.0250   22.9090 O   0  0  0  0  0  0  0  0  0  0  0  0
  -25.2500  -33.8060   25.4450 H   0  0  0  0  0  0  0  0  0  0  0  0
  -24.0840  -36.5220   23.9280 C   0  0  0  0  0  1  0  0  0  0  0  0
  -25.4320  -36.2270   24.6020 C   0  0  0  0  0  3  0  0  0  0  0  0
  -27.5110  -37.2940   25.3450 C   0  0  0  0  0  1  0  0  0  0  0  0
  -26.3220  -37.4030   24.5020 N   0  0  0  0  0  0  0  0  0  0  0  0
  -25.8290  -38.2570   24.7560 H   0  0  0  0  0  0  0  0  0  0  0  0
  -27.1300  -31.9130   25.4300 C   0  0  1  0  0  0  0  0  0  0  0  0
  -26.1960  -31.3540   26.5540 C   0  0  0  0  0  1  0  0  0  0  0  0
  -28.1360  -30.9110   24.9360 C   0  0  0  0  0  1  0  0  0  0  0  0
  -28.0450  -32.9420   26.1170 C   0  0  0  0  0  1  0  0  0  0  0  0
  1  9  1  0
  1  3  1  0
  2  1  2  0
  3  6  1  0
  4  2  1  0
  5  2  1  0
  7 10  1  0
  8 10  2  0
  9  7  2  0
 10 13  1  0
 11  8  1  0
 12 11  2  0
 12  9  1  0
 14 12  1  0
 15 24  1  0
 15 11  1  0
 16 22  1  0
 17 22  1  0
 18 19  1  0
 18 17  1  0
 20 19  1  0
 20 29  1  0
 20 21  1  0
 22 21  1  0
 23 16  2  0
 24 16  1  0
 24 25  1  0
 26 27  2  0
 27 46  1  0
 28 31  1  0
 28 27  1  0
 29 30  1  0
 29 26  1  0
 30 28  2  0
 31 32  1  0
 32 33  2  0
 34 37  1  0
 34 33  1  0
 35 34  2  0
 36 35  1  0
 36 31  2  0
 37 38  1  0
 38 43  2  0
 38 39  1  0
 39 40  2  0
 40 41  1  0
 41 45  1  0
 42 41  2  0
 43 42  1  0
 44 43  1  0
 46 47  1  0
 47 49  1  0
 47 50  1  0
 48 46  2  0
 51 26  1  0
 51 52  1  0
 53 51  1  0
 54  3  1  0
 56 57  1  0
 57 60  1  0
 57 59  1  0
 58 56  1  0
 62 61  1  0
 63 62  1  0
 64 75  2  0
 65 63  1  0
 66 76  1  0
 66 74  1  0
 67 73  1  0
 67 69  2  0
 68 74  1  0
 69 70  1  0
 69 68  1  0
 70 65  1  0
 71 65  1  0
 72 71  1  0
 72 67  1  0
 73 66  1  0
 74 64  1  0
 76 78  2  0
 76 77  1  0
 77 79  1  0
 80 85  1  0
 81 77  1  0
 82 81  1  0
 83 82  1  0
 84 83  1  0
 84 80  1  0
 85 86  2  0
 85 81  1  0
 87 86  1  0
 88 87  2  0
 89 88  1  0
 89 80  2  0
 90 64  1  0
 90 91  1  0
 90100  1  0
 91 94  1  0
 92 96  1  0
 92 91  1  0
 93 92  2  0
 96 95  1  0
 98 96  1  0
 98 99  1  0
 98 97  1  0
100103  1  1
100101  1  0
102100  1  0
M  ISO  4  16 100  24 100  62 101  63 101
M  END
>  <TORSDO>  (3) 
F 23

>  <SCORE>  (3) 
-12.035

>  <name>  (3) 
2

>  <ligand_id>  (3) 
2

>  <original_smiles>  (3) 
[H]c1c([H])c([H])c2c(c1[H])C([H])([H])C([H])([H])C([H])([H])C2([H])N([H])C(=O)C1([H])N(C(=O)C([H])(N([H])C(=O)C([H])(N([H])C([H])([H])[H])C([H])([H])[H])C(C([H])([H])[H])(C([H])([H])[H])C([H])([H])[H])C([H])([H])c2c([H])c(OC([H])(C([H])([H])[H])C([H])([H])N([H])C(=O)C([H])([H])C([H])([H])[N+]([H])=C(c3c([H])c(C([H])([H])[H])c([H])c(C([H])([H])N([H])C(=O)N4C([H])([H])C([H])([H])C([H])([H])C([H])(n5nc(-c6c([H])c([H])c(Oc7c([H])c([H])c(F)c([H])c7F)c([H])c6[H])c(C(=O)N([H])[H])c5N([H])[H])C4([H])[H])c3C([H])([H])[H])N([H])[H])c([H])c([H])c2C1([H])[H]

>  <smiles>  (3) 
[H]c1c([H])c([H])c2c(c1[H])C([H])([H])C([H])([H])C([H])([H])C2([H])N([H])C(=O)C1([H])N(C(=O)C([H])(N([H])C(=O)C([H])(N([H])C([H])([H])[H])C([H])([H])[H])C(C([H])([H])[H])(C([H])([H])[H])C([H])([H])[H])C([H])([H])c2c([H])c(OC([H])(C([H])([H])[H])C([H])([H])N([H])C(=O)C([H])([H])C([H])([H])[N+]([H])=C(c3c([H])c(C([H])([H])[H])c([H])c(C([H])([H])N([H])C(=O)N4C([H])([H])C([H])([H])C([H])([H])C([H])(n5nc(-c6c([H])c([H])c(Oc7c([H])c([H])c(F)c([H])c7F)c([H])c6[H])c(C(=O)N([H])[H])c5N([H])[H])C4([H])[H])c3C([H])([H])[H])N([H])[H])c([H])c([H])c2C1([H])[H]

$$$$
3:0:0
     RDKit          3D

 95 96  0  0  1  0  0  0  0  0999 V2000
  -31.3970  -18.9030   19.1150 C   0  0  0  0  0  3  0  0  0  0  0  0
  -32.4780  -18.3490   18.5360 C   0  0  0  0  0  3  0  0  0  0  0  0
  -31.2180  -19.5690   21.1580 C   0  0  0  0  0 15  0  0  0  0  0  0
  -29.5350  -20.9780   21.6290 C   0  0  0  0  0 15  0  0  0  0  0  0
  -28.1480  -20.5540   18.8050 C   0  0  0  0  0 15  0  0  0  0  0  0
  -28.3500  -22.1960   20.2810 C   0  0  0  0  0 15  0  0  0  0  0  0
  -29.6040  -19.4370   17.9770 N   0  0  0  0  0  2  0  0  0  0  0  0
  -29.8930  -20.4030   18.0800 H   0  0  0  0  0  0  0  0  0  0  0  0
  -28.1240  -24.3770   20.2550 O   0  0  0  0  0  1  0  0  0  0  0  0
  -24.6140  -31.6880   22.9870 C   0  0  0  0  0  0  0  0  0  0  0  0
  -27.1950  -25.9110   20.2170 C   0  0  0  0  0  0  0  0  0  0  0  0
  -23.4910  -30.2250   21.3720 C   0  0  0  0  0  3  0  0  0  0  0  0
  -24.9740  -28.4010   20.0700 C   0  0  0  0  0  0  0  0  0  0  0  0
  -26.0940  -30.1650   21.3780 C   0  0  0  0  0  2  0  0  0  0  0  0
  -26.1710  -28.6360   20.7540 C   0  0  0  0  0  0  0  0  0  0  0  0
  -27.2230  -27.4500   20.7690 C   0  0  0  0  0  3  0  0  0  0  0  0
  -25.9540  -26.0840   19.4670 C   0  0  0  0  0  3  0  0  0  0  0  0
  -24.9510  -27.1540   19.4000 C   0  0  0  0  0  3  0  0  0  0  0  0
  -23.7930  -29.4350   20.0510 C   0  0  0  0  0  2  0  0  0  0  0  0
  -24.7670  -30.7460   21.9640 N   0  0  0  0  0  0  0  0  0  0  0  0
  -23.4970  -32.0220   23.4300 O   0  0  0  0  0  0  0  0  0  0  0  0
  -22.6930  -29.3370   22.3710 C   0  0  0  0  0  0  0  0  0  0  0  0
  -21.3490  -29.2540   22.2640 N   0  0  0  0  0  0  0  0  0  0  0  0
  -23.3110  -28.7050   23.2310 O   0  0  0  0  0  0  0  0  0  0  0  0
  -20.8900  -29.8120   21.5560 H   0  0  0  0  0  0  0  0  0  0  0  0
  -17.9180  -28.1590   22.8670 C   0  0  0  0  0  0  0  0  0  0  0  0
  -20.4960  -28.3450   23.0470 C   0  0  0  0  0  3  0  0  0  0  0  0
  -20.5250  -26.9160   22.4550 C   0  0  0  0  0  2  0  0  0  0  0  0
  -19.3860  -26.6500   21.4660 C   0  0  0  0  0  2  0  0  0  0  0  0
  -18.0300  -26.8230   22.1520 C   0  0  0  0  0  2  0  0  0  0  0  0
  -19.0730  -28.8820   23.2720 C   0  0  0  0  0  0  0  0  0  0  0  0
  -18.9060  -30.1270   23.9130 C   0  0  0  0  0  3  0  0  0  0  0  0
  -17.6210  -30.6530   24.1460 C   0  0  0  0  0  3  0  0  0  0  0  0
  -16.4830  -29.9300   23.7510 C   0  0  0  0  0  3  0  0  0  0  0  0
  -16.6320  -28.6840   23.1180 C   0  0  0  0  0  3  0  0  0  0  0  0
  -25.8240  -32.4070   23.6640 C   0  0  0  0  0  3  0  0  0  0  0  0
  -25.4420  -33.8010   24.0080 N   0  0  0  0  0  0  0  0  0  0  0  0
  -25.7750  -34.9030   23.3190 C   0  0  0  0  0  0  0  0  0  0  0  0
  -26.4740  -34.8560   22.3050 O   0  0  0  0  0  0  0  0  0  0  0  0
  -24.8150  -33.9070   24.7920 H   0  0  0  0  0  0  0  0  0  0  0  0
  -24.0260  -36.7030   23.0180 C   0  0  0  0  0  1  0  0  0  0  0  0
  -25.2610  -36.2730   23.8260 C   0  0  0  0  0  3  0  0  0  0  0  0
  -27.3670  -37.1770   24.7230 C   0  0  0  0  0  1  0  0  0  0  0  0
  -26.2770  -37.3500   23.7680 N   0  0  0  0  0  0  0  0  0  0  0  0
  -25.8490  -38.2580   23.9370 H   0  0  0  0  0  0  0  0  0  0  0  0
  -26.3090  -31.6770   24.9810 C   0  0  1  0  0  0  0  0  0  0  0  0
  -25.1870  -31.4440   26.0200 C   0  0  0  0  0  1  0  0  0  0  0  0
  -26.9300  -30.3010   24.6620 C   0  0  0  0  0  1  0  0  0  0  0  0
  -27.4250  -32.5060   25.6600 C   0  0  0  0  0  1  0  0  0  0  0  0
  -30.0820  -19.9440   16.6810 C   0  0  0  0  0  2  0  0  0  0  0  0
  -32.1850  -21.3300   17.3430 C   0  0  0  0  0  3  0  0  0  0  0  0
  -31.6340  -21.6230   19.7260 C   0  0  0  0  0  2  0  0  0  0  0  0
  -30.1740  -21.8230   18.2900 C   0  0  0  0  0  2  0  0  0  0  0  0
  -32.6240  -21.6840   18.6620 C   0  0  0  0  0  0  0  0  0  0  0  0
  -30.7790  -21.2150   17.1860 C   0  0  0  0  0  3  0  0  0  0  0  0
  -30.3030  -20.9510   19.4980 C   0  0  0  0  0  2  0  0  0  0  0  0
  -34.0730  -22.0030   18.9590 C   0  0  0  0  0  1  0  0  0  0  0  0
  -29.8530  -16.8700   20.2680 C   0  0  0  0  0  0  0  0  0  0  0  0
  -30.2500  -14.0470   19.5600 C   0  0  0  0  0  2  0  0  0  0  0  0
  -29.5650  -13.0790   18.4980 C   0  0  0  0  0  2  0  0  0  0  0  0
  -28.2630  -12.4650   19.0090 C   0  0  0  0  0  2  0  0  0  0  0  0
  -27.5530  -13.5200   19.8630 C   0  0  0  0  0  3  0  0  0  0  0  0
  -28.4570  -14.3470   20.8710 C   0  0  0  0  0  2  0  0  0  0  0  0
  -29.4080  -15.3190   20.1250 N   0  0  0  0  0  0  0  0  0  0  0  0
  -31.0720  -16.4930   20.3880 O   0  0  0  0  0  0  0  0  0  0  0  0
  -29.2950  -18.6690   20.1540 N   0  0  0  0  0  2  0  0  0  0  0  0
  -28.2850  -18.6700   20.0940 H   0  0  0  0  0  0  0  0  0  0  0  0
  -25.1760  -13.9020   20.5910 C   0  0  0  0  0  0  0  0  0  0  0  0
  -24.1330  -13.0910   20.9270 C   0  0  0  0  0  0  0  0  0  0  0  0
  -24.6410  -11.7540   20.9060 C   0  0  0  0  0  0  0  0  0  0  0  0
  -26.2600  -13.0780   20.3870 N   0  0  0  0  0  0  0  0  0  0  0  0
  -25.9490  -11.7670   20.6230 N   0  0  0  0  0  0  0  0  0  0  0  0
  -23.9250  -10.4770   21.0820 C   0  0  0  0  0  0  0  0  0  0  0  0
  -24.3440   -9.5090   22.0210 C   0  0  0  0  0  3  0  0  0  0  0  0
  -23.6160   -8.3110   22.1960 C   0  0  0  0  0  3  0  0  0  0  0  0
  -22.4490   -8.0680   21.4300 C   0  0  0  0  0  0  0  0  0  0  0  0
  -22.0450   -9.0250   20.4820 C   0  0  0  0  0  3  0  0  0  0  0  0
  -22.7750  -10.2130   20.3070 C   0  0  0  0  0  3  0  0  0  0  0  0
  -21.6960   -6.9200   21.5120 O   0  0  0  0  0  0  0  0  0  0  0  0
  -21.6490   -6.1660   22.6580 C   0  0  0  0  0  0  0  0  0  0  0  0
  -21.2260   -6.7100   23.8900 C   0  0  0  0  0  3  0  0  0  0  0  0
  -21.1250   -5.8860   25.0280 C   0  0  0  0  0  3  0  0  0  0  0  0
  -21.4380   -4.5160   24.9350 C   0  0  0  0  0  0  0  0  0  0  0  0
  -21.8540   -3.9700   23.7080 C   0  0  0  0  0  3  0  0  0  0  0  0
  -21.9550   -4.7920   22.5710 C   0  0  0  0  0  0  0  0  0  0  0  0
  -22.3350   -4.2560   21.3870 F   0  0  0  0  0  0  0  0  0  0  0  0
  -21.3360   -3.7200   26.0260 F   0  0  0  0  0  0  0  0  0  0  0  0
  -22.7200  -13.5390   21.1510 C   0  0  0  0  0  0  0  0  0  0  0  0
  -21.9820  -12.8400   22.0040 N   0  0  0  0  0  0  0  0  0  0  0  0
  -22.2820  -14.5540   20.6080 O   0  0  0  0  0  0  0  0  0  0  0  0
  -22.3520  -12.0220   22.4650 H   0  0  0  0  0  0  0  0  0  0  0  0
  -21.0330  -13.1270   22.2000 H   0  0  0  0  0  0  0  0  0  0  0  0
  -25.2940  -15.2750   20.3990 N   0  0  0  0  0  0  0  0  0  0  0  0
  -24.5010  -15.9040   20.4740 H   0  0  0  0  0  0  0  0  0  0  0  0
  -26.1390  -15.7360   20.0860 H   0  0  0  0  0  0  0  0  0  0  0  0
  2  1  3  0
  7  8  1  0
 10 21  2  0
 11  9  1  0
 11 16  1  0
 12 20  1  0
 12 22  1  0
 13 15  1  0
 14 20  1  0
 15 16  2  0
 15 14  1  0
 17 11  2  0
 18 17  1  0
 18 13  2  0
 19 13  1  0
 19 12  1  0
 20 10  1  0
 22 24  2  0
 23 22  1  0
 25 23  1  0
 26 35  2  0
 26 31  1  0
 27 23  1  0
 27 31  1  0
 28 27  1  0
 29 30  1  0
 29 28  1  0
 30 26  1  0
 31 32  2  0
 32 33  1  0
 34 33  2  0
 35 34  1  0
 36 10  1  0
 36 37  1  0
 36 46  1  0
 37 40  1  0
 38 42  1  0
 38 37  1  0
 39 38  2  0
 42 41  1  0
 44 42  1  0
 44 45  1  0
 44 43  1  0
 46 49  1  1
 46 47  1  0
 48 46  1  0
 50  7  1  0
 51 54  2  0
 53 56  1  0
 54 57  1  0
 54 52  1  0
 55 50  1  0
 55 51  1  0
 55 53  1  0
 56 52  1  0
 58 65  2  0
 59 64  1  0
 60 61  1  0
 60 59  1  0
 62 61  1  0
 62 71  1  0
 62 63  1  0
 64 58  1  0
 64 63  1  0
 66 58  1  0
 67 66  1  0
 68 69  2  0
 69 88  1  0
 70 69  1  0
 70 73  1  0
 71 68  1  0
 71 72  1  0
 72 70  2  0
 73 74  1  0
 74 75  2  0
 76 79  1  0
 76 75  1  0
 77 76  2  0
 78 77  1  0
 78 73  2  0
 79 80  1  0
 80 81  1  0
 81 82  2  0
 83 82  1  0
 83 87  1  0
 84 83  2  0
 85 80  2  0
 85 84  1  0
 86 85  1  0
 88 89  1  0
 89 92  1  0
 89 91  1  0
 90 88  2  0
 93 94  1  0
 93 68  1  0
 95 93  1  0
M  ISO  4   6 101   9 101  58 100  66 100
M  END
>  <TORSDO>  (4) 
F 18

>  <SCORE>  (4) 
-15.970

>  <name>  (4) 
3

>  <ligand_id>  (4) 
3

>  <original_smiles>  (4) 
[H]C([H])=C1C([H])([H])C([H])([H])C([H])(Oc2c([H])c([H])c3c(c2[H])C([H])([H])N(C(=O)C([H])(N([H])C(=O)C([H])(N([H])C([H])([H])[H])C([H])([H])[H])C(C([H])([H])[H])(C([H])([H])[H])C([H])([H])[H])C([H])(C(=O)N([H])C2([H])c4c([H])c([H])c([H])c([H])c4C([H])([H])C([H])([H])C2([H])[H])C3([H])[H])C([H])([H])[N+]1([H])C([H])([H])c1c([H])c(N([H])C(=O)N2C([H])([H])C([H])([H])C([H])([H])C([H])(n3nc(-c4c([H])c([H])c(Oc5c([H])c([H])c(F)c([H])c5F)c([H])c4[H])c(C(=O)N([H])[H])c3N([H])[H])C2([H])[H])c([H])c(C([H])([H])[H])c1[H]

>  <smiles>  (4) 
[H]C([H])=C1C([H])([H])C([H])([H])C([H])(Oc2c([H])c([H])c3c(c2[H])C([H])([H])N(C(=O)C([H])(N([H])C(=O)C([H])(N([H])C([H])([H])[H])C([H])([H])[H])C(C([H])([H])[H])(C([H])([H])[H])C([H])([H])[H])C([H])(C(=O)N([H])C2([H])c4c([H])c([H])c([H])c([H])c4C([H])([H])C([H])([H])C2([H])[H])C3([H])[H])C([H])([H])[N+]1([H])C([H])([H])c1c([H])c(N([H])C(=O)N2C([H])([H])C([H])([H])C([H])([H])C([H])(n3nc(-c4c([H])c([H])c(Oc5c([H])c([H])c(F)c([H])c5F)c([H])c4[H])c(C(=O)N([H])[H])c3N([H])[H])C2([H])[H])c([H])c(C([H])([H])[H])c1[H]

$$$$
4:0:0
     RDKit          3D

 95103  0  0  1  0  0  0  0  0999 V2000
  -29.3040  -21.1350   20.7560 C   0  0  0  0  0  0  0  0  0  0  0  0
  -29.4290  -21.2330   22.0750 N   0  0  0  0  0  4  0  0  0  0  0  0
  -29.0520  -22.3420   20.1120 N   0  0  0  0  0  0  0  0  0  0  0  0
  -29.6010  -20.3950   22.6070 H   0  0  0  0  0  0  0  0  0  0  0  0
  -29.2580  -22.0890   22.5760 H   0  0  0  0  0  0  0  0  0  0  0  0
  -28.9400  -22.2610   19.1090 H   0  0  0  0  0  0  0  0  0  0  0  0
  -29.3520  -19.7300   18.6810 C   0  0  0  0  0  3  0  0  0  0  0  0
  -29.7660  -17.3170   18.5520 C   0  0  0  0  0  3  0  0  0  0  0  0
  -29.4550  -19.7440   20.0910 C   0  0  0  0  0  0  0  0  0  0  0  0
  -29.7120  -18.4370   20.7270 C   0  0  0  0  0  0  0  0  0  0  0  0
  -29.8730  -17.2040   19.9550 C   0  0  0  0  0  0  0  0  0  0  0  0
  -29.5040  -18.5500   17.9300 C   0  0  0  0  0  0  0  0  0  0  0  0
  -29.8380  -18.3220   22.2440 C   0  0  0  0  0  1  0  0  0  0  0  0
  -29.3860  -18.6020   16.5810 F   0  0  0  0  0  0  0  0  0  0  0  0
  -30.7220  -14.7530   20.0080 C   0  0  0  0  0  0  0  0  0  0  0  0
  -30.4670  -12.5110   18.9480 C   0  0  0  0  0  2  0  0  0  0  0  0
  -29.4580  -12.6370   17.7830 C   0  0  0  0  0  2  0  0  0  0  0  0
  -28.0150  -12.4620   18.2950 C   0  0  0  0  0  2  0  0  0  0  0  0
  -27.7240  -13.3010   19.5690 C   0  0  0  0  0  3  0  0  0  0  0  0
  -28.8460  -13.1560   20.6210 C   0  0  0  0  0  2  0  0  0  0  0  0
  -30.1130  -13.5210   19.9740 N   0  0  0  0  0  0  0  0  0  0  0  0
  -31.8340  -14.9050   19.4930 O   0  0  0  0  0  0  0  0  0  0  0  0
  -30.0180  -15.8350   20.5120 N   0  0  0  0  0  0  0  0  0  0  0  0
  -29.2970  -15.5780   21.1720 H   0  0  0  0  0  0  0  0  0  0  0  0
  -25.3870  -13.8670   20.4650 C   0  0  0  0  0  0  0  0  0  0  0  0
  -24.3450  -13.0800   20.8730 C   0  0  0  0  0  0  0  0  0  0  0  0
  -24.8010  -11.7320   20.7620 C   0  0  0  0  0  0  0  0  0  0  0  0
  -26.4110  -12.9960   20.1270 N   0  0  0  0  0  0  0  0  0  0  0  0
  -26.0680  -11.7050   20.3680 N   0  0  0  0  0  0  0  0  0  0  0  0
  -24.0830  -10.4630   20.9490 C   0  0  0  0  0  0  0  0  0  0  0  0
  -24.5110   -9.5030   21.8950 C   0  0  0  0  0  3  0  0  0  0  0  0
  -23.7890   -8.3020   22.0710 C   0  0  0  0  0  3  0  0  0  0  0  0
  -22.6280   -8.0520   21.3020 C   0  0  0  0  0  0  0  0  0  0  0  0
  -22.2210   -8.9990   20.3470 C   0  0  0  0  0  3  0  0  0  0  0  0
  -22.9430  -10.1910   20.1680 C   0  0  0  0  0  3  0  0  0  0  0  0
  -21.8790   -6.9030   21.3890 O   0  0  0  0  0  0  0  0  0  0  0  0
  -21.7370   -6.2240   22.5720 C   0  0  0  0  0  0  0  0  0  0  0  0
  -21.1600   -6.8270   23.7130 C   0  0  0  0  0  3  0  0  0  0  0  0
  -20.9690   -6.0730   24.8870 C   0  0  0  0  0  3  0  0  0  0  0  0
  -21.3450   -4.7170   24.9230 C   0  0  0  0  0  0  0  0  0  0  0  0
  -21.9180   -4.1140   23.7900 C   0  0  0  0  0  3  0  0  0  0  0  0
  -22.1100   -4.8660   22.6170 C   0  0  0  0  0  0  0  0  0  0  0  0
  -22.6420   -4.2740   21.5200 F   0  0  0  0  0  0  0  0  0  0  0  0
  -21.1540   -3.9900   26.0490 F   0  0  0  0  0  0  0  0  0  0  0  0
  -22.9700  -13.5470   21.2520 C   0  0  0  0  0  0  0  0  0  0  0  0
  -22.3000  -12.8230   22.1420 N   0  0  0  0  0  0  0  0  0  0  0  0
  -22.5000  -14.5880   20.7930 O   0  0  0  0  0  0  0  0  0  0  0  0
  -22.6940  -11.9790   22.5320 H   0  0  0  0  0  0  0  0  0  0  0  0
  -21.3800  -13.1160   22.4360 H   0  0  0  0  0  0  0  0  0  0  0  0
  -25.5440  -15.2430   20.3340 N   0  0  0  0  0  0  0  0  0  0  0  0
  -24.7930  -15.8920   20.5430 H   0  0  0  0  0  0  0  0  0  0  0  0
  -26.3490  -15.6930   19.9150 H   0  0  0  0  0  0  0  0  0  0  0  0
  -29.1560  -23.8090   20.5980 C   0  0  0  0  0  3  0  0  0  0  0  0
  -28.1400  -24.9350   20.0420 C   0  0  0  0  0  3  0  0  0  0  0  0
  -28.3420  -26.4000   20.3320 O   0  0  0  0  0  0  0  0  0  0  0  0
  -24.6870  -31.9150   23.3020 C   0  0  0  0  0  0  0  0  0  0  0  0
  -27.2450  -27.2910   20.2550 C   0  0  0  0  0  0  0  0  0  0  0  0
  -23.4620  -30.5090   21.6850 C   0  0  0  0  0  3  0  0  0  0  0  0
  -24.8940  -28.9460   20.2470 C   0  0  0  0  0  0  0  0  0  0  0  0
  -26.0030  -30.8090   21.4750 C   0  0  0  0  0  2  0  0  0  0  0  0
  -26.0720  -29.4240   20.8350 C   0  0  0  0  0  0  0  0  0  0  0  0
  -27.2490  -28.6080   20.8290 C   0  0  0  0  0  3  0  0  0  0  0  0
  -26.0470  -26.8880   19.6230 C   0  0  0  0  0  3  0  0  0  0  0  0
  -24.8880  -27.6870   19.6290 C   0  0  0  0  0  3  0  0  0  0  0  0
  -23.6610  -29.8260   20.3050 C   0  0  0  0  0  2  0  0  0  0  0  0
  -24.7370  -31.0960   22.2110 N   0  0  0  0  0  0  0  0  0  0  0  0
  -23.6100  -32.2010   23.8470 O   0  0  0  0  0  0  0  0  0  0  0  0
  -22.8070  -29.5000   22.6580 C   0  0  0  0  0  0  0  0  0  0  0  0
  -21.4860  -29.2950   22.5210 N   0  0  0  0  0  0  0  0  0  0  0  0
  -23.4880  -28.9030   23.4960 O   0  0  0  0  0  0  0  0  0  0  0  0
  -20.9950  -29.8300   21.8160 H   0  0  0  0  0  0  0  0  0  0  0  0
  -18.1280  -28.0410   23.0110 C   0  0  0  0  0  0  0  0  0  0  0  0
  -20.6770  -28.3620   23.3050 C   0  0  0  0  0  3  0  0  0  0  0  0
  -20.8140  -26.9190   22.7660 C   0  0  0  0  0  2  0  0  0  0  0  0
  -19.7330  -26.5500   21.7460 C   0  0  0  0  0  2  0  0  0  0  0  0
  -18.3410  -26.6800   22.3690 C   0  0  0  0  0  2  0  0  0  0  0  0
  -19.2250  -28.8370   23.4350 C   0  0  0  0  0  0  0  0  0  0  0  0
  -18.9720  -30.1080   23.9960 C   0  0  0  0  0  3  0  0  0  0  0  0
  -17.6550  -30.5850   24.1330 C   0  0  0  0  0  3  0  0  0  0  0  0
  -16.5720  -29.7880   23.7230 C   0  0  0  0  0  3  0  0  0  0  0  0
  -16.8090  -28.5180   23.1690 C   0  0  0  0  0  3  0  0  0  0  0  0
  -25.9790  -32.5480   23.9040 C   0  0  0  0  0  3  0  0  0  0  0  0
  -26.5120  -31.7810   25.1780 C   0  0  1  0  0  0  0  0  0  0  0  0
  -25.4270  -31.5400   26.2530 C   0  0  0  0  0  1  0  0  0  0  0  0
  -27.1010  -30.4060   24.7850 C   0  0  0  0  0  1  0  0  0  0  0  0
  -27.6620  -32.5840   25.8310 C   0  0  0  0  0  1  0  0  0  0  0  0
  -25.6760  -33.9480   24.2350 N   0  0  0  0  0  0  0  0  0  0  0  0
  -25.9750  -34.9970   23.4570 C   0  0  0  0  0  0  0  0  0  0  0  0
  -26.6080  -34.8900   22.4040 O   0  0  0  0  0  0  0  0  0  0  0  0
  -25.1100  -34.1050   25.0560 H   0  0  0  0  0  0  0  0  0  0  0  0
  -24.2250  -36.7780   23.1550 C   0  0  0  0  0  1  0  0  0  0  0  0
  -25.4970  -36.3860   23.9220 C   0  0  0  0  0  3  0  0  0  0  0  0
  -27.6500  -37.2970   24.6750 C   0  0  0  0  0  1  0  0  0  0  0  0
  -26.5200  -37.4440   23.7620 N   0  0  0  0  0  0  0  0  0  0  0  0
  -26.1130  -38.3630   23.9110 H   0  0  0  0  0  0  0  0  0  0  0  0
  1  2  2  0
  2  5  1  0
  2  4  1  0
  3 53  1  0
  3  1  1  0
  6  3  1  0
  7  9  1  0
  8 11  2  0
  9 10  2  0
  9  1  1  0
 10 13  1  0
 11 23  1  0
 11 10  1  0
 12  8  1  0
 12  7  2  0
 14 12  1  0
 15 23  1  0
 16 21  1  0
 17 18  1  0
 17 16  1  0
 19 18  1  0
 19 28  1  0
 19 20  1  0
 21 15  1  0
 21 20  1  0
 22 15  2  0
 23 24  1  0
 25 26  2  0
 26 45  1  0
 27 26  1  0
 27 30  1  0
 28 29  1  0
 28 25  1  0
 29 27  2  0
 30 31  1  0
 31 32  2  0
 33 36  1  0
 33 32  1  0
 34 33  2  0
 35 34  1  0
 35 30  2  0
 36 37  1  0
 37 42  2  0
 37 38  1  0
 38 39  2  0
 39 40  1  0
 40 44  1  0
 41 40  2  0
 42 41  1  0
 43 42  1  0
 45 46  1  0
 46 49  1  0
 46 48  1  0
 47 45  2  0
 50 25  1  0
 50 51  1  0
 52 50  1  0
 54 55  1  0
 54 53  2  0
 56 67  2  0
 57 55  1  0
 57 62  1  0
 58 66  1  0
 58 68  1  0
 59 65  1  0
 59 61  1  0
 60 66  1  0
 61 60  1  0
 62 61  2  0
 63 64  1  0
 63 57  2  0
 64 59  2  0
 65 58  1  0
 66 56  1  0
 68 70  2  0
 69 68  1  0
 71 69  1  0
 72 81  2  0
 72 77  1  0
 73 69  1  0
 73 77  1  0
 74 73  1  0
 75 76  1  0
 75 74  1  0
 76 72  1  0
 77 78  2  0
 78 79  1  0
 80 79  2  0
 81 80  1  0
 82 56  1  0
 82 87  1  0
 82 83  1  0
 83 86  1  1
 83 84  1  0
 85 83  1  0
 87 90  1  0
 88 92  1  0
 88 87  1  0
 89 88  2  0
 92 91  1  0
 94 95  1  0
 94 92  1  0
 94 93  1  0
M  ISO  4  15 100  23 100  54 101  55 101
M  END
>  <TORSDO>  (5) 
F 19

>  <SCORE>  (5) 
-13.466

>  <name>  (5) 
4

>  <ligand_id>  (5) 
4

>  <original_smiles>  (5) 
[H]c1c([H])c([H])c2c(c1[H])C([H])([H])C([H])([H])C([H])([H])C2([H])N([H])C(=O)C1([H])N(C(=O)C([H])(N([H])C(=O)C([H])(N([H])C([H])([H])[H])C([H])([H])[H])C(C([H])([H])[H])(C([H])([H])[H])C([H])([H])[H])C([H])([H])c2c([H])c(OC([H])([H])C([H])([H])[N+]([H])=C(c3c([H])c(F)c([H])c(N([H])C(=O)N4C([H])([H])C([H])([H])C([H])([H])C([H])(n5nc(-c6c([H])c([H])c(Oc7c([H])c([H])c(F)c([H])c7F)c([H])c6[H])c(C(=O)N([H])[H])c5N([H])[H])C4([H])[H])c3C([H])([H])[H])N([H])[H])c([H])c([H])c2C1([H])[H]

>  <smiles>  (5) 
[H]c1c([H])c([H])c2c(c1[H])C([H])([H])C([H])([H])C([H])([H])C2([H])N([H])C(=O)C1([H])N(C(=O)C([H])(N([H])C(=O)C([H])(N([H])C([H])([H])[H])C([H])([H])[H])C(C([H])([H])[H])(C([H])([H])[H])C([H])([H])[H])C([H])([H])c2c([H])c(OC([H])([H])C([H])([H])[N+]([H])=C(c3c([H])c(F)c([H])c(N([H])C(=O)N4C([H])([H])C([H])([H])C([H])([H])C([H])(n5nc(-c6c([H])c([H])c(Oc7c([H])c([H])c(F)c([H])c7F)c([H])c6[H])c(C(=O)N([H])[H])c5N([H])[H])C4([H])[H])c3C([H])([H])[H])N([H])[H])c([H])c([H])c2C1([H])[H]

$$$$
5:0:0
     RDKit          3D

 94102  0  0  1  0  0  0  0  0999 V2000
  -27.9700  -20.2480   19.6100 C   0  0  0  0  0  3  0  0  0  0  0  0
  -28.4520  -17.8780   19.9180 C   0  0  0  0  0  3  0  0  0  0  0  0
  -29.1550  -20.6200   20.2810 C   0  0  0  0  0  0  0  0  0  0  0  0
  -29.6430  -18.1770   20.6070 C   0  0  0  0  0  0  0  0  0  0  0  0
  -30.0020  -19.5620   20.7860 C   0  0  0  0  0  0  0  0  0  0  0  0
  -27.6230  -18.9000   19.4280 C   0  0  0  0  0  0  0  0  0  0  0  0
  -31.2930  -19.8720   21.5410 C   0  0  0  0  0  1  0  0  0  0  0  0
  -26.1690  -18.5000   18.5910 Cl  0  0  0  0  0  0  0  0  0  0  0  0
  -29.4560  -22.1190   20.3700 C   0  0  0  0  0  0  0  0  0  0  0  0
  -28.4060  -22.9200   20.6550 N   0  0  0  0  0  0  0  0  0  0  0  0
  -30.5890  -22.5690   20.1890 O   0  0  0  0  0  0  0  0  0  0  0  0
  -27.5380  -22.4260   20.8070 H   0  0  0  0  0  0  0  0  0  0  0  0
  -28.3740  -24.3670   20.9820 C   0  0  0  0  0  2  0  0  0  0  0  0
  -28.6330  -25.3710   19.8200 C   0  0  0  0  0  2  0  0  0  0  0  0
  -28.5320  -26.7470   20.2610 O   0  0  0  0  0  0  0  0  0  0  0  0
  -24.6070  -31.9160   23.2610 C   0  0  0  0  0  0  0  0  0  0  0  0
  -27.3270  -27.4380   20.2440 C   0  0  0  0  0  0  0  0  0  0  0  0
  -23.4400  -30.5000   21.6010 C   0  0  0  0  0  3  0  0  0  0  0  0
  -24.9240  -28.9550   20.2180 C   0  0  0  0  0  0  0  0  0  0  0  0
  -25.9740  -30.8530   21.4630 C   0  0  0  0  0  2  0  0  0  0  0  0
  -26.0720  -29.4810   20.8210 C   0  0  0  0  0  0  0  0  0  0  0  0
  -27.2730  -28.7310   20.8260 C   0  0  0  0  0  3  0  0  0  0  0  0
  -26.1450  -26.9200   19.6650 C   0  0  0  0  0  3  0  0  0  0  0  0
  -24.9550  -27.6740   19.6440 C   0  0  0  0  0  3  0  0  0  0  0  0
  -23.6790  -29.8130   20.2290 C   0  0  0  0  0  2  0  0  0  0  0  0
  -24.6890  -31.1080   22.1640 N   0  0  0  0  0  0  0  0  0  0  0  0
  -23.5140  -32.1860   23.7780 O   0  0  0  0  0  0  0  0  0  0  0  0
  -22.7750  -29.4830   22.5550 C   0  0  0  0  0  0  0  0  0  0  0  0
  -21.4520  -29.3020   22.4110 N   0  0  0  0  0  0  0  0  0  0  0  0
  -23.4470  -28.8580   23.3790 O   0  0  0  0  0  0  0  0  0  0  0  0
  -20.9750  -29.8610   21.7190 H   0  0  0  0  0  0  0  0  0  0  0  0
  -18.0630  -28.1350   22.9000 C   0  0  0  0  0  0  0  0  0  0  0  0
  -20.6240  -28.3640   23.1690 C   0  0  0  0  0  3  0  0  0  0  0  0
  -20.7080  -26.9370   22.5830 C   0  0  0  0  0  2  0  0  0  0  0  0
  -19.6030  -26.6340   21.5660 C   0  0  0  0  0  2  0  0  0  0  0  0
  -18.2230  -26.7880   22.2120 C   0  0  0  0  0  2  0  0  0  0  0  0
  -19.1910  -28.8810   23.3340 C   0  0  0  0  0  0  0  0  0  0  0  0
  -18.9890  -30.1400   23.9400 C   0  0  0  0  0  3  0  0  0  0  0  0
  -17.6910  -30.6540   24.1140 C   0  0  0  0  0  3  0  0  0  0  0  0
  -16.5770  -29.9050   23.6930 C   0  0  0  0  0  3  0  0  0  0  0  0
  -16.7630  -28.6470   23.0940 C   0  0  0  0  0  3  0  0  0  0  0  0
  -25.8780  -32.5570   23.9050 C   0  0  0  0  0  3  0  0  0  0  0  0
  -26.3680  -31.8130   25.2060 C   0  0  1  0  0  0  0  0  0  0  0  0
  -25.2520  -31.5940   26.2550 C   0  0  0  0  0  1  0  0  0  0  0  0
  -26.9730  -30.4310   24.8600 C   0  0  0  0  0  1  0  0  0  0  0  0
  -27.4950  -32.6300   25.8830 C   0  0  0  0  0  1  0  0  0  0  0  0
  -25.5570  -33.9590   24.2040 N   0  0  0  0  0  0  0  0  0  0  0  0
  -25.9060  -35.0020   23.4380 C   0  0  0  0  0  0  0  0  0  0  0  0
  -26.6020  -34.8850   22.4250 O   0  0  0  0  0  0  0  0  0  0  0  0
  -24.9430  -34.1240   24.9870 H   0  0  0  0  0  0  0  0  0  0  0  0
  -24.1860  -36.7910   23.0120 C   0  0  0  0  0  1  0  0  0  0  0  0
  -25.4020  -36.3960   23.8660 C   0  0  0  0  0  3  0  0  0  0  0  0
  -27.5080  -37.2900   24.7570 C   0  0  0  0  0  1  0  0  0  0  0  0
  -26.4390  -37.4480   23.7740 N   0  0  0  0  0  0  0  0  0  0  0  0
  -26.0280  -38.3690   23.8980 H   0  0  0  0  0  0  0  0  0  0  0  0
  -30.5160  -17.0070   21.1500 C   0  0  0  0  0  2  0  0  0  0  0  0
  -30.7210  -14.5680   20.4370 C   0  0  0  0  0  0  0  0  0  0  0  0
  -30.4250  -12.4150   19.2570 C   0  0  0  0  0  2  0  0  0  0  0  0
  -29.4810  -12.6450   18.0580 C   0  0  0  0  0  2  0  0  0  0  0  0
  -28.0010  -12.5240   18.4750 C   0  0  0  0  0  2  0  0  0  0  0  0
  -27.6770  -13.2990   19.7790 C   0  0  0  0  0  3  0  0  0  0  0  0
  -28.7390  -13.0500   20.8710 C   0  0  0  0  0  2  0  0  0  0  0  0
  -30.0530  -13.3850   20.3000 N   0  0  0  0  0  0  0  0  0  0  0  0
  -31.8570  -14.7310   19.9790 O   0  0  0  0  0  0  0  0  0  0  0  0
  -30.0340  -15.6070   20.9690 N   0  0  0  0  0  0  0  0  0  0  0  0
  -29.1150  -15.3900   21.3280 H   0  0  0  0  0  0  0  0  0  0  0  0
  -25.2790  -13.8950   20.4860 C   0  0  0  0  0  0  0  0  0  0  0  0
  -24.2090  -13.1210   20.8480 C   0  0  0  0  0  0  0  0  0  0  0  0
  -24.6700  -11.7680   20.8120 C   0  0  0  0  0  0  0  0  0  0  0  0
  -26.3230  -13.0140   20.2510 N   0  0  0  0  0  0  0  0  0  0  0  0
  -25.9590  -11.7290   20.5000 N   0  0  0  0  0  0  0  0  0  0  0  0
  -23.9430  -10.5050   20.9980 C   0  0  0  0  0  0  0  0  0  0  0  0
  -24.3640   -9.5440   21.9430 C   0  0  0  0  0  3  0  0  0  0  0  0
  -23.6380   -8.3460   22.1190 C   0  0  0  0  0  3  0  0  0  0  0  0
  -22.4760   -8.1000   21.3480 C   0  0  0  0  0  0  0  0  0  0  0  0
  -22.0730   -9.0510   20.3940 C   0  0  0  0  0  3  0  0  0  0  0  0
  -22.8000  -10.2410   20.2170 C   0  0  0  0  0  3  0  0  0  0  0  0
  -21.7250   -6.9530   21.4340 O   0  0  0  0  0  0  0  0  0  0  0  0
  -21.6480   -6.2270   22.5950 C   0  0  0  0  0  0  0  0  0  0  0  0
  -21.1730   -6.7910   23.8000 C   0  0  0  0  0  3  0  0  0  0  0  0
  -21.0380   -5.9880   24.9490 C   0  0  0  0  0  3  0  0  0  0  0  0
  -21.3760   -4.6230   24.8970 C   0  0  0  0  0  0  0  0  0  0  0  0
  -21.8510   -4.0570   23.7010 C   0  0  0  0  0  3  0  0  0  0  0  0
  -21.9820   -4.8570   22.5530 C   0  0  0  0  0  0  0  0  0  0  0  0
  -22.4170   -4.3020   21.3950 F   0  0  0  0  0  0  0  0  0  0  0  0
  -21.2420   -3.8500   26.0010 F   0  0  0  0  0  0  0  0  0  0  0  0
  -22.8110  -13.5970   21.1150 C   0  0  0  0  0  0  0  0  0  0  0  0
  -22.0740  -12.9010   21.9740 N   0  0  0  0  0  0  0  0  0  0  0  0
  -22.3750  -14.6230   20.5930 O   0  0  0  0  0  0  0  0  0  0  0  0
  -22.4290  -12.0660   22.4150 H   0  0  0  0  0  0  0  0  0  0  0  0
  -21.1340  -13.2040   22.1870 H   0  0  0  0  0  0  0  0  0  0  0  0
  -25.4540  -15.2660   20.3160 N   0  0  0  0  0  0  0  0  0  0  0  0
  -24.7300  -15.9480   20.5070 H   0  0  0  0  0  0  0  0  0  0  0  0
  -26.2920  -15.6820   19.9330 H   0  0  0  0  0  0  0  0  0  0  0  0
  1  3  1  0
  2  4  2  0
  3  9  1  0
  3  5  2  0
  4  5  1  0
  4 56  1  0
  5  7  1  0
  6  1  2  0
  6  2  1  0
  8  6  1  0
  9 10  1  0
 10 12  1  0
 10 13  1  0
 11  9  2  0
 14 15  1  0
 14 13  1  0
 16 27  2  0
 17 15  1  0
 17 22  1  0
 18 26  1  0
 18 28  1  0
 19 25  1  0
 19 21  1  0
 20 26  1  0
 21 22  2  0
 21 20  1  0
 23 17  2  0
 24 23  1  0
 24 19  2  0
 25 18  1  0
 26 16  1  0
 28 30  2  0
 29 28  1  0
 31 29  1  0
 32 41  2  0
 32 37  1  0
 33 29  1  0
 33 37  1  0
 34 33  1  0
 35 36  1  0
 35 34  1  0
 36 32  1  0
 37 38  2  0
 38 39  1  0
 40 39  2  0
 41 40  1  0
 42 16  1  0
 42 47  1  0
 42 43  1  0
 43 46  1  1
 43 44  1  0
 45 43  1  0
 47 50  1  0
 48 52  1  0
 48 47  1  0
 49 48  2  0
 52 51  1  0
 54 52  1  0
 54 55  1  0
 54 53  1  0
 57 65  1  0
 58 63  1  0
 59 60  1  0
 59 58  1  0
 61 60  1  0
 61 70  1  0
 61 62  1  0
 63 57  1  0
 63 62  1  0
 64 57  2  0
 65 56  1  0
 65 66  1  0
 67 68  2  0
 68 87  1  0
 69 68  1  0
 69 72  1  0
 70 67  1  0
 70 71  1  0
 71 69  2  0
 72 73  1  0
 73 74  2  0
 75 78  1  0
 75 74  1  0
 76 75  2  0
 77 76  1  0
 77 72  2  0
 78 79  1  0
 79 80  1  0
 80 81  2  0
 82 81  1  0
 82 86  1  0
 83 82  2  0
 84 79  2  0
 84 83  1  0
 85 84  1  0
 87 88  1  0
 88 91  1  0
 88 90  1  0
 89 87  2  0
 92 67  1  0
 92 93  1  0
 94 92  1  0
M  ISO  4  14 101  15 101  57 100  65 100
M  END
>  <TORSDO>  (6) 
F 20

>  <SCORE>  (6) 
-13.820

>  <name>  (6) 
5

>  <ligand_id>  (6) 
5

>  <original_smiles>  (6) 
[H]c1c([H])c([H])c2c(c1[H])C([H])([H])C([H])([H])C([H])([H])C2([H])N([H])C(=O)C1([H])N(C(=O)C([H])(N([H])C(=O)C([H])(N([H])C([H])([H])[H])C([H])([H])[H])C(C([H])([H])[H])(C([H])([H])[H])C([H])([H])[H])C([H])([H])c2c([H])c(OC([H])([H])C([H])([H])N([H])C(=O)c3c([H])c(Cl)c([H])c(C([H])([H])N([H])C(=O)N4C([H])([H])C([H])([H])C([H])([H])C([H])(n5nc(-c6c([H])c([H])c(Oc7c([H])c([H])c(F)c([H])c7F)c([H])c6[H])c(C(=O)N([H])[H])c5N([H])[H])C4([H])[H])c3C([H])([H])[H])c([H])c([H])c2C1([H])[H]

>  <smiles>  (6) 
[H]c1c([H])c([H])c2c(c1[H])C([H])([H])C([H])([H])C([H])([H])C2([H])N([H])C(=O)C1([H])N(C(=O)C([H])(N([H])C(=O)C([H])(N([H])C([H])([H])[H])C([H])([H])[H])C(C([H])([H])[H])(C([H])([H])[H])C([H])([H])[H])C([H])([H])c2c([H])c(OC([H])([H])C([H])([H])N([H])C(=O)c3c([H])c(Cl)c([H])c(C([H])([H])N([H])C(=O)N4C([H])([H])C([H])([H])C([H])([H])C([H])(n5nc(-c6c([H])c([H])c(Oc7c([H])c([H])c(F)c([H])c7F)c([H])c6[H])c(C(=O)N([H])[H])c5N([H])[H])C4([H])[H])c3C([H])([H])[H])c([H])c([H])c2C1([H])[H]

$$$$
6:0:0
     RDKit          3D

 95104  0  0  1  0  0  0  0  0999 V2000
  -29.6480  -24.6680   18.8970 C   0  0  0  0  0  3  0  0  0  0  0  0
  -28.4220  -24.0980   20.8790 C   0  0  0  0  0  2  0  0  0  0  0  0
  -28.8820  -25.0920   19.9270 C   0  0  0  0  0  0  0  0  0  0  0  0
  -28.9110  -22.7950   20.7860 C   0  0  0  0  0  0  0  0  0  0  0  0
  -30.0860  -23.2700   18.7290 C   0  0  0  0  0  0  0  0  0  0  0  0
  -29.8400  -22.4130   19.7660 N   0  0  0  0  0  0  0  0  0  0  0  0
  -28.6310  -21.7820   21.4580 O   0  0  0  0  0  0  0  0  0  0  0  0
  -30.7360  -22.9090   17.7440 O   0  0  0  0  0  0  0  0  0  0  0  0
  -28.7150  -26.4690   20.1220 O   0  0  0  0  0  0  0  0  0  0  0  0
  -24.4820  -31.4230   23.1500 C   0  0  0  0  0  0  0  0  0  0  0  0
  -27.4860  -27.1220   20.1420 C   0  0  0  0  0  0  0  0  0  0  0  0
  -23.4240  -29.9840   21.4420 C   0  0  0  0  0  3  0  0  0  0  0  0
  -25.0150  -28.5340   20.0630 C   0  0  0  0  0  0  0  0  0  0  0  0
  -25.9370  -30.4630   21.3590 C   0  0  0  0  0  2  0  0  0  0  0  0
  -26.1200  -29.1010   20.7110 C   0  0  0  0  0  0  0  0  0  0  0  0
  -27.3560  -28.4040   20.7400 C   0  0  0  0  0  3  0  0  0  0  0  0
  -26.3590  -26.5780   19.4890 C   0  0  0  0  0  3  0  0  0  0  0  0
  -25.1340  -27.2730   19.4490 C   0  0  0  0  0  3  0  0  0  0  0  0
  -23.7280  -29.3300   20.0660 C   0  0  0  0  0  2  0  0  0  0  0  0
  -24.6300  -30.6390   22.0430 N   0  0  0  0  0  0  0  0  0  0  0  0
  -23.3650  -31.6320   23.6430 O   0  0  0  0  0  0  0  0  0  0  0  0
  -22.7790  -28.9210   22.3640 C   0  0  0  0  0  0  0  0  0  0  0  0
  -21.4700  -28.6810   22.1810 N   0  0  0  0  0  0  0  0  0  0  0  0
  -23.4570  -28.3160   23.1980 O   0  0  0  0  0  0  0  0  0  0  0  0
  -20.9830  -29.2200   21.4790 H   0  0  0  0  0  0  0  0  0  0  0  0
  -18.1370  -27.3220   22.5290 C   0  0  0  0  0  0  0  0  0  0  0  0
  -20.6690  -27.6940   22.9040 C   0  0  0  0  0  3  0  0  0  0  0  0
  -20.8620  -26.2800   22.3080 C   0  0  0  0  0  2  0  0  0  0  0  0
  -19.8150  -25.9270   21.2470 C   0  0  0  0  0  2  0  0  0  0  0  0
  -18.4050  -25.9940   21.8400 C   0  0  0  0  0  2  0  0  0  0  0  0
  -19.2020  -28.1260   23.0150 C   0  0  0  0  0  0  0  0  0  0  0  0
  -18.9020  -29.3660   23.6200 C   0  0  0  0  0  3  0  0  0  0  0  0
  -17.5700  -29.8030   23.7440 C   0  0  0  0  0  3  0  0  0  0  0  0
  -16.5190  -28.9950   23.2770 C   0  0  0  0  0  3  0  0  0  0  0  0
  -16.8030  -27.7570   22.6750 C   0  0  0  0  0  3  0  0  0  0  0  0
  -25.7040  -32.1130   23.8330 C   0  0  0  0  0  3  0  0  0  0  0  0
  -25.3310  -33.5090   24.1020 N   0  0  0  0  0  0  0  0  0  0  0  0
  -25.6550  -34.5480   23.3200 C   0  0  0  0  0  0  0  0  0  0  0  0
  -26.3710  -34.4360   22.3220 O   0  0  0  0  0  0  0  0  0  0  0  0
  -24.6950  -33.6690   24.8690 H   0  0  0  0  0  0  0  0  0  0  0  0
  -23.8670  -36.2570   22.8520 C   0  0  0  0  0  1  0  0  0  0  0  0
  -25.1000  -35.9310   23.7100 C   0  0  0  0  0  3  0  0  0  0  0  0
  -27.1670  -36.9400   24.5710 C   0  0  0  0  0  1  0  0  0  0  0  0
  -26.0920  -37.0210   23.5840 N   0  0  0  0  0  0  0  0  0  0  0  0
  -25.6420  -37.9280   23.6770 H   0  0  0  0  0  0  0  0  0  0  0  0
  -26.1620  -31.3930   25.1620 C   0  0  1  0  0  0  0  0  0  0  0  0
  -25.0080  -31.1490   26.1610 C   0  0  0  0  0  1  0  0  0  0  0  0
  -26.8100  -30.0240   24.8480 C   0  0  0  0  0  1  0  0  0  0  0  0
  -27.2410  -32.2430   25.8730 C   0  0  0  0  0  1  0  0  0  0  0  0
  -30.8490  -21.3000   19.9960 C   0  0  0  0  0  2  0  0  0  0  0  0
  -31.3350  -18.9780   18.9410 C   0  0  0  0  0  3  0  0  0  0  0  0
  -31.2970  -17.5570   18.9990 C   0  0  0  0  0  3  0  0  0  0  0  0
  -29.6780  -19.0990   20.6880 C   0  0  0  0  0  3  0  0  0  0  0  0
  -30.5530  -19.7810   19.8110 C   0  0  0  0  0  0  0  0  0  0  0  0
  -29.6210  -17.6790   20.7440 C   0  0  0  0  0  0  0  0  0  0  0  0
  -30.4610  -16.8760   19.9230 C   0  0  0  0  0  0  0  0  0  0  0  0
  -28.6690  -17.0350   21.7410 C   0  0  0  0  0  1  0  0  0  0  0  0
  -31.0360  -14.4150   19.4240 C   0  0  0  0  0  0  0  0  0  0  0  0
  -30.5810  -12.2090   18.3900 C   0  0  0  0  0  2  0  0  0  0  0  0
  -29.4720  -12.4060   17.3310 C   0  0  0  0  0  2  0  0  0  0  0  0
  -28.0710  -12.3210   17.9700 C   0  0  0  0  0  2  0  0  0  0  0  0
  -27.9460  -13.1830   19.2540 C   0  0  0  0  0  3  0  0  0  0  0  0
  -29.1430  -12.9370   20.1990 C   0  0  0  0  0  2  0  0  0  0  0  0
  -30.3760  -13.2180   19.4440 N   0  0  0  0  0  0  0  0  0  0  0  0
  -32.0910  -14.5690   18.7990 O   0  0  0  0  0  0  0  0  0  0  0  0
  -30.3850  -15.4330   20.0510 N   0  0  0  0  0  0  0  0  0  0  0  0
  -29.6310  -15.1080   20.6360 H   0  0  0  0  0  0  0  0  0  0  0  0
  -25.7630  -13.9040   20.4090 C   0  0  0  0  0  0  0  0  0  0  0  0
  -24.7000  -13.1850   20.8860 C   0  0  0  0  0  0  0  0  0  0  0  0
  -25.0180  -11.8110   20.6560 C   0  0  0  0  0  0  0  0  0  0  0  0
  -26.6680  -12.9690   19.9270 N   0  0  0  0  0  0  0  0  0  0  0  0
  -26.2320  -11.7000   20.1310 N   0  0  0  0  0  0  0  0  0  0  0  0
  -24.2140  -10.5980   20.8560 C   0  0  0  0  0  0  0  0  0  0  0  0
  -24.6270   -9.5740   21.7380 C   0  0  0  0  0  3  0  0  0  0  0  0
  -23.8270   -8.4260   21.9260 C   0  0  0  0  0  3  0  0  0  0  0  0
  -22.6000   -8.2940   21.2330 C   0  0  0  0  0  0  0  0  0  0  0  0
  -22.2060   -9.3060   20.3390 C   0  0  0  0  0  3  0  0  0  0  0  0
  -23.0050  -10.4460   20.1490 C   0  0  0  0  0  3  0  0  0  0  0  0
  -21.7720   -7.2030   21.3330 O   0  0  0  0  0  0  0  0  0  0  0  0
  -21.6340   -6.5100   22.5080 C   0  0  0  0  0  0  0  0  0  0  0  0
  -21.2090   -7.1380   23.6990 C   0  0  0  0  0  3  0  0  0  0  0  0
  -21.0150   -6.3740   24.8680 C   0  0  0  0  0  3  0  0  0  0  0  0
  -21.2350   -4.9840   24.8450 C   0  0  0  0  0  0  0  0  0  0  0  0
  -21.6550   -4.3560   23.6580 C   0  0  0  0  0  3  0  0  0  0  0  0
  -21.8510   -5.1170   22.4930 C   0  0  0  0  0  0  0  0  0  0  0  0
  -22.2330   -4.5030   21.3460 F   0  0  0  0  0  0  0  0  0  0  0  0
  -21.0420   -4.2480   25.9650 F   0  0  0  0  0  0  0  0  0  0  0  0
  -23.4180  -13.7420   21.4340 C   0  0  0  0  0  0  0  0  0  0  0  0
  -22.7990  -13.0420   22.3780 N   0  0  0  0  0  0  0  0  0  0  0  0
  -22.9830  -14.8300   21.0590 O   0  0  0  0  0  0  0  0  0  0  0  0
  -23.1680  -12.1600   22.7000 H   0  0  0  0  0  0  0  0  0  0  0  0
  -21.9450  -13.3950   22.7850 H   0  0  0  0  0  0  0  0  0  0  0  0
  -26.0300  -15.2660   20.3280 N   0  0  0  0  0  0  0  0  0  0  0  0
  -25.3600  -15.9650   20.6310 H   0  0  0  0  0  0  0  0  0  0  0  0
  -26.8480  -15.6670   19.8880 H   0  0  0  0  0  0  0  0  0  0  0  0
  1  3  2  0
  3  9  1  0
  3  2  1  0
  4  2  1  0
  4  7  2  0
  5  1  1  0
  5  6  1  0
  6 50  1  0
  6  4  1  0
  8  5  2  0
  9 11  1  0
 10 21  2  0
 11 16  1  0
 12 20  1  0
 12 22  1  0
 13 19  1  0
 13 15  1  0
 14 20  1  0
 15 16  2  0
 15 14  1  0
 17 11  2  0
 18 17  1  0
 18 13  2  0
 19 12  1  0
 20 10  1  0
 22 24  2  0
 23 22  1  0
 25 23  1  0
 26 35  2  0
 26 31  1  0
 27 23  1  0
 27 31  1  0
 28 27  1  0
 29 30  1  0
 29 28  1  0
 30 26  1  0
 31 32  2  0
 32 33  1  0
 34 33  2  0
 35 34  1  0
 36 10  1  0
 36 37  1  0
 36 46  1  0
 37 40  1  0
 38 42  1  0
 38 37  1  0
 39 38  2  0
 42 41  1  0
 44 45  1  0
 44 42  1  0
 44 43  1  0
 46 49  1  1
 46 47  1  0
 48 46  1  0
 51 52  2  0
 51 54  1  0
 52 56  1  0
 53 55  1  0
 54 50  1  0
 54 53  2  0
 55 57  1  0
 56 66  1  0
 56 55  2  0
 58 64  1  0
 58 66  1  0
 59 64  1  0
 60 61  1  0
 60 59  1  0
 62 61  1  0
 62 71  1  0
 62 63  1  0
 64 63  1  0
 65 58  2  0
 66 67  1  0
 68 69  2  0
 69 88  1  0
 70 73  1  0
 70 69  1  0
 71 72  1  0
 71 68  1  0
 72 70  2  0
 73 74  1  0
 74 75  2  0
 76 79  1  0
 76 75  1  0
 77 76  2  0
 78 77  1  0
 78 73  2  0
 79 80  1  0
 80 81  1  0
 81 82  2  0
 83 82  1  0
 83 87  1  0
 84 83  2  0
 85 80  2  0
 85 84  1  0
 86 85  1  0
 88 89  1  0
 89 91  1  0
 89 92  1  0
 90 88  2  0
 93 68  1  0
 93 94  1  0
 95 93  1  0
M  ISO  4   3 101   9 101  58 100  66 100
M  END
>  <TORSDO>  (7) 
F 18

>  <SCORE>  (7) 
-11.476

>  <name>  (7) 
6

>  <ligand_id>  (7) 
6

>  <original_smiles>  (7) 
[H]c1c([H])c([H])c2c(c1[H])C([H])([H])C([H])([H])C([H])([H])C2([H])N([H])C(=O)C1([H])N(C(=O)C([H])(N([H])C(=O)C([H])(N([H])C([H])([H])[H])C([H])([H])[H])C(C([H])([H])[H])(C([H])([H])[H])C([H])([H])[H])C([H])([H])c2c([H])c(Oc3c([H])c([O-])n(C([H])([H])c4c([H])c([H])c(N([H])C(=O)N5C([H])([H])C([H])([H])C([H])([H])C([H])(n6nc(-c7c([H])c([H])c(Oc8c([H])c([H])c(F)c([H])c8F)c([H])c7[H])c(C(=O)N([H])[H])c6N([H])[H])C5([H])[H])c(C([H])([H])[H])c4[H])c(=O)c3[H])c([H])c([H])c2C1([H])[H]

>  <smiles>  (7) 
[H]c1c([H])c([H])c2c(c1[H])C([H])([H])C([H])([H])C([H])([H])C2([H])N([H])C(=O)C1([H])N(C(=O)C([H])(N([H])C(=O)C([H])(N([H])C([H])([H])[H])C([H])([H])[H])C(C([H])([H])[H])(C([H])([H])[H])C([H])([H])[H])C([H])([H])c2c([H])c(Oc3c([H])c([O-])n(C([H])([H])c4c([H])c([H])c(N([H])C(=O)N5C([H])([H])C([H])([H])C([H])([H])C([H])(n6nc(-c7c([H])c([H])c(Oc8c([H])c([H])c(F)c([H])c8F)c([H])c7[H])c(C(=O)N([H])[H])c6N([H])[H])C5([H])[H])c(C([H])([H])[H])c4[H])c(=O)c3[H])c([H])c([H])c2C1([H])[H]

$$$$
7:0:0
     RDKit          3D

 98107  0  0  1  0  0  0  0  0999 V2000
  -28.6990  -20.5760   20.3210 C   0  0  0  0  0  3  0  0  0  0  0  0
  -28.9490  -18.1590   20.1040 C   0  0  0  0  0  3  0  0  0  0  0  0
  -30.0610  -20.7140   20.6720 C   0  0  0  0  0  0  0  0  0  0  0  0
  -30.3190  -18.2500   20.4290 C   0  0  0  0  0  0  0  0  0  0  0  0
  -30.8710  -19.5370   20.7420 C   0  0  0  0  0  0  0  0  0  0  0  0
  -28.1460  -19.3120   20.0540 C   0  0  0  0  0  0  0  0  0  0  0  0
  -26.4790  -19.1810   19.6320 Cl  0  0  0  0  0  0  0  0  0  0  0  0
  -32.5040  -19.5000   22.6850 C   0  0  0  0  0  1  0  0  0  0  0  0
  -32.3390  -19.6630   21.1680 C   0  0  0  0  0  2  0  0  0  0  0  0
  -31.6420  -16.8820   18.8150 C   0  0  0  0  0  1  0  0  0  0  0  0
  -31.2100  -16.9950   20.2960 C   0  0  0  0  0  3  0  0  0  0  0  0
  -31.3330  -14.5350   20.6210 C   0  0  0  0  0  0  0  0  0  0  0  0
  -30.9590  -12.3840   19.5050 C   0  0  0  0  0  2  0  0  0  0  0  0
  -30.0840  -12.6350   18.2600 C   0  0  0  0  0  2  0  0  0  0  0  0
  -28.5900  -12.5560   18.6290 C   0  0  0  0  0  2  0  0  0  0  0  0
  -28.2330  -13.4020   19.8820 C   0  0  0  0  0  3  0  0  0  0  0  0
  -29.2420  -13.1770   21.0330 C   0  0  0  0  0  2  0  0  0  0  0  0
  -30.5910  -13.4020   20.5020 N   0  0  0  0  0  0  0  0  0  0  0  0
  -32.5310  -14.5660   20.3390 O   0  0  0  0  0  0  0  0  0  0  0  0
  -30.6480  -15.6960   20.7420 N   0  0  0  0  0  0  0  0  0  0  0  0
  -29.6610  -15.6410   20.9370 H   0  0  0  0  0  0  0  0  0  0  0  0
  -25.8310  -14.0780   20.5000 C   0  0  0  0  0  0  0  0  0  0  0  0
  -24.7270  -13.3390   20.8280 C   0  0  0  0  0  0  0  0  0  0  0  0
  -25.1480  -11.9730   20.8190 C   0  0  0  0  0  0  0  0  0  0  0  0
  -26.8570  -13.1660   20.3120 N   0  0  0  0  0  0  0  0  0  0  0  0
  -26.4490  -11.8960   20.5640 N   0  0  0  0  0  0  0  0  0  0  0  0
  -24.3760  -10.7340   20.9780 C   0  0  0  0  0  0  0  0  0  0  0  0
  -24.7040   -9.7810   21.9680 C   0  0  0  0  0  3  0  0  0  0  0  0
  -23.9360   -8.6060   22.1140 C   0  0  0  0  0  3  0  0  0  0  0  0
  -22.8240   -8.3770   21.2690 C   0  0  0  0  0  0  0  0  0  0  0  0
  -22.5160   -9.3160   20.2690 C   0  0  0  0  0  3  0  0  0  0  0  0
  -23.2850  -10.4820   20.1220 C   0  0  0  0  0  3  0  0  0  0  0  0
  -22.0360   -7.2520   21.3210 O   0  0  0  0  0  0  0  0  0  0  0  0
  -21.8070   -6.5880   22.4990 C   0  0  0  0  0  0  0  0  0  0  0  0
  -21.1860   -7.2170   23.6010 C   0  0  0  0  0  3  0  0  0  0  0  0
  -20.9070   -6.4790   24.7680 C   0  0  0  0  0  3  0  0  0  0  0  0
  -21.2360   -5.1120   24.8330 C   0  0  0  0  0  0  0  0  0  0  0  0
  -21.8470   -4.4820   23.7350 C   0  0  0  0  0  3  0  0  0  0  0  0
  -22.1280   -5.2180   22.5700 C   0  0  0  0  0  0  0  0  0  0  0  0
  -22.6990   -4.6000   21.5070 F   0  0  0  0  0  0  0  0  0  0  0  0
  -20.9600   -4.4000   25.9500 F   0  0  0  0  0  0  0  0  0  0  0  0
  -23.3340  -13.8570   21.0410 C   0  0  0  0  0  0  0  0  0  0  0  0
  -22.5590  -13.2010   21.8970 N   0  0  0  0  0  0  0  0  0  0  0  0
  -22.9420  -14.8810   20.4820 O   0  0  0  0  0  0  0  0  0  0  0  0
  -22.8900  -12.3740   22.3700 H   0  0  0  0  0  0  0  0  0  0  0  0
  -21.6230  -13.5320   22.0810 H   0  0  0  0  0  0  0  0  0  0  0  0
  -26.0410  -15.4410   20.3210 N   0  0  0  0  0  0  0  0  0  0  0  0
  -25.2830  -16.1110   20.3890 H   0  0  0  0  0  0  0  0  0  0  0  0
  -26.8900  -15.8430   19.9470 H   0  0  0  0  0  0  0  0  0  0  0  0
  -30.6560  -22.1190   20.9420 C   0  0  0  0  0  2  0  0  0  0  0  0
  -29.4160  -24.2050   20.3160 C   0  0  0  0  0  0  0  0  0  0  0  0
  -28.0530  -24.1210   22.8970 C   0  0  0  0  0  2  0  0  0  0  0  0
  -28.1130  -25.4560   22.1550 C   0  0  0  0  0  2  0  0  0  0  0  0
  -29.3400  -23.3270   22.6480 C   0  0  0  0  0  2  0  0  0  0  0  0
  -28.2850  -25.2200   20.6450 C   0  0  0  0  0  3  0  0  0  0  0  0
  -29.7170  -23.2310   21.2260 N   0  0  0  0  0  0  0  0  0  0  0  0
  -29.9560  -24.2660   19.2060 O   0  0  0  0  0  0  0  0  0  0  0  0
  -28.4630  -26.4940   19.9680 O   0  0  0  0  0  0  0  0  0  0  0  0
  -24.5660  -31.6140   23.0340 C   0  0  0  0  0  0  0  0  0  0  0  0
  -27.3180  -27.2650   19.9150 C   0  0  0  0  0  0  0  0  0  0  0  0
  -23.4080  -30.2290   21.3440 C   0  0  0  0  0  3  0  0  0  0  0  0
  -24.9090  -28.7480   19.9070 C   0  0  0  0  0  0  0  0  0  0  0  0
  -25.9330  -30.6270   21.1970 C   0  0  0  0  0  2  0  0  0  0  0  0
  -26.0510  -29.2720   20.5260 C   0  0  0  0  0  0  0  0  0  0  0  0
  -27.2630  -28.5390   20.5250 C   0  0  0  0  0  3  0  0  0  0  0  0
  -26.1650  -26.7700   19.2670 C   0  0  0  0  0  3  0  0  0  0  0  0
  -24.9610  -27.4980   19.2710 C   0  0  0  0  0  3  0  0  0  0  0  0
  -23.6510  -29.5860   19.9530 C   0  0  0  0  0  2  0  0  0  0  0  0
  -24.6530  -30.8380   21.9160 N   0  0  0  0  0  0  0  0  0  0  0  0
  -23.4730  -31.8570   23.5620 O   0  0  0  0  0  0  0  0  0  0  0  0
  -22.7570  -29.1780   22.2710 C   0  0  0  0  0  0  0  0  0  0  0  0
  -21.4320  -29.0000   22.1380 N   0  0  0  0  0  0  0  0  0  0  0  0
  -23.4410  -28.5250   23.0650 O   0  0  0  0  0  0  0  0  0  0  0  0
  -20.9440  -29.5810   21.4700 H   0  0  0  0  0  0  0  0  0  0  0  0
  -18.0430  -27.8650   22.6700 C   0  0  0  0  0  0  0  0  0  0  0  0
  -20.6130  -28.0410   22.8780 C   0  0  0  0  0  3  0  0  0  0  0  0
  -20.6610  -26.6430   22.2160 C   0  0  0  0  0  2  0  0  0  0  0  0
  -19.5210  -26.4100   21.2200 C   0  0  0  0  0  2  0  0  0  0  0  0
  -18.1620  -26.5530   21.9130 C   0  0  0  0  0  2  0  0  0  0  0  0
  -19.1940  -28.5710   23.1090 C   0  0  0  0  0  0  0  0  0  0  0  0
  -19.0280  -29.8020   23.7790 C   0  0  0  0  0  3  0  0  0  0  0  0
  -17.7440  -30.3280   24.0120 C   0  0  0  0  0  3  0  0  0  0  0  0
  -16.6070  -29.6170   23.5900 C   0  0  0  0  0  3  0  0  0  0  0  0
  -16.7570  -28.3870   22.9250 C   0  0  0  0  0  3  0  0  0  0  0  0
  -25.8330  -32.2490   23.6880 C   0  0  0  0  0  3  0  0  0  0  0  0
  -26.3500  -31.4490   24.9460 C   0  0  1  0  0  0  0  0  0  0  0  0
  -25.2500  -31.1540   25.9920 C   0  0  0  0  0  1  0  0  0  0  0  0
  -26.9680  -30.0980   24.5160 C   0  0  0  0  0  1  0  0  0  0  0  0
  -27.4740  -32.2480   25.6490 C   0  0  0  0  0  1  0  0  0  0  0  0
  -25.4950  -33.6310   24.0540 N   0  0  0  0  0  0  0  0  0  0  0  0
  -25.8190  -34.7110   23.3280 C   0  0  0  0  0  0  0  0  0  0  0  0
  -26.5050  -34.6480   22.3040 O   0  0  0  0  0  0  0  0  0  0  0  0
  -24.8860  -33.7520   24.8510 H   0  0  0  0  0  0  0  0  0  0  0  0
  -24.0630  -36.4800   22.9980 C   0  0  0  0  0  1  0  0  0  0  0  0
  -25.2990  -36.0760   23.8170 C   0  0  0  0  0  3  0  0  0  0  0  0
  -27.3960  -36.9840   24.7130 C   0  0  0  0  0  1  0  0  0  0  0  0
  -26.3130  -37.1500   23.7480 N   0  0  0  0  0  0  0  0  0  0  0  0
  -25.8880  -38.0590   23.9050 H   0  0  0  0  0  0  0  0  0  0  0  0
  1  3  1  0
  2  4  2  0
  3  5  2  0
  3 50  1  0
  4  5  1  0
  5  9  1  0
  6  2  1  0
  6  1  2  0
  7  6  1  0
  9  8  1  0
 11 10  1  0
 11  4  1  0
 11 20  1  0
 12 20  1  0
 13 18  1  0
 14 15  1  0
 14 13  1  0
 16 15  1  0
 16 25  1  0
 16 17  1  0
 18 12  1  0
 18 17  1  0
 19 12  2  0
 20 21  1  0
 22 23  2  0
 23 42  1  0
 24 23  1  0
 24 27  1  0
 25 22  1  0
 25 26  1  0
 26 24  2  0
 27 28  1  0
 28 29  2  0
 30 33  1  0
 30 29  1  0
 31 30  2  0
 32 31  1  0
 32 27  2  0
 33 34  1  0
 34 39  2  0
 34 35  1  0
 35 36  2  0
 36 37  1  0
 37 41  1  0
 38 37  2  0
 39 38  1  0
 40 39  1  0
 42 43  1  0
 43 46  1  0
 43 45  1  0
 44 42  2  0
 47 48  1  0
 47 22  1  0
 49 47  1  0
 50 56  1  0
 51 55  1  0
 51 56  1  0
 53 52  1  0
 54 52  1  0
 55 58  1  0
 55 53  1  0
 56 54  1  0
 57 51  2  0
 59 70  2  0
 60 58  1  0
 60 65  1  0
 61 69  1  0
 61 71  1  0
 62 68  1  0
 62 64  1  0
 63 69  1  0
 64 63  1  0
 65 64  2  0
 66 67  1  0
 66 60  2  0
 67 62  2  0
 68 61  1  0
 69 59  1  0
 71 73  2  0
 72 71  1  0
 74 72  1  0
 75 84  2  0
 75 80  1  0
 76 72  1  0
 76 80  1  0
 77 76  1  0
 78 79  1  0
 78 77  1  0
 79 75  1  0
 80 81  2  0
 81 82  1  0
 83 82  2  0
 84 83  1  0
 85 59  1  0
 85 90  1  0
 85 86  1  0
 86 89  1  1
 86 87  1  0
 88 86  1  0
 90 93  1  0
 91 95  1  0
 91 90  1  0
 92 91  2  0
 95 94  1  0
 97 95  1  0
 97 98  1  0
 97 96  1  0
M  ISO  4  12 100  20 100  55 101  58 101
M  END
>  <TORSDO>  (8) 
F 20

>  <SCORE>  (8) 
-12.695

>  <name>  (8) 
7

>  <ligand_id>  (8) 
7

>  <original_smiles>  (8) 
[H]c1c([H])c([H])c2c(c1[H])C([H])([H])C([H])([H])C([H])([H])C2([H])N([H])C(=O)C1([H])N(C(=O)C([H])(N([H])C(=O)C([H])(N([H])C([H])([H])[H])C([H])([H])[H])C(C([H])([H])[H])(C([H])([H])[H])C([H])([H])[H])C([H])([H])c2c([H])c(OC3([H])C(=O)N(C([H])([H])c4c([H])c(Cl)c([H])c(C([H])(N([H])C(=O)N5C([H])([H])C([H])([H])C([H])([H])C([H])(n6nc(-c7c([H])c([H])c(Oc8c([H])c([H])c(F)c([H])c8F)c([H])c7[H])c(C(=O)N([H])[H])c6N([H])[H])C5([H])[H])C([H])([H])[H])c4C([H])([H])C([H])([H])[H])C([H])([H])C([H])([H])C3([H])[H])c([H])c([H])c2C1([H])[H]

>  <smiles>  (8) 
[H]c1c([H])c([H])c2c(c1[H])C([H])([H])C([H])([H])C([H])([H])C2([H])N([H])C(=O)C1([H])N(C(=O)C([H])(N([H])C(=O)C([H])(N([H])C([H])([H])[H])C([H])([H])[H])C(C([H])([H])[H])(C([H])([H])[H])C([H])([H])[H])C([H])([H])c2c([H])c(OC3([H])C(=O)N(C([H])([H])c4c([H])c(Cl)c([H])c(C([H])(N([H])C(=O)N5C([H])([H])C([H])([H])C([H])([H])C([H])(n6nc(-c7c([H])c([H])c(Oc8c([H])c([H])c(F)c([H])c8F)c([H])c7[H])c(C(=O)N([H])[H])c6N([H])[H])C5([H])[H])C([H])([H])[H])c4C([H])([H])C([H])([H])[H])C([H])([H])C([H])([H])C3([H])[H])c([H])c([H])c2C1([H])[H]

$$$$
8:0:0
     RDKit          3D

 94102  0  0  1  0  0  0  0  0999 V2000
  -27.6290  -22.0600   19.7480 C   0  0  0  0  0  0  0  0  0  0  0  0
  -26.4070  -21.6560   19.8620 N   0  0  0  0  0  4  0  0  0  0  0  0
  -25.6220  -22.2970   19.8180 H   0  0  0  0  0  0  0  0  0  0  0  0
  -26.1640  -20.6780   20.0130 H   0  0  0  0  0  0  0  0  0  0  0  0
  -28.5310  -19.8610   18.9000 C   0  0  0  0  0  3  0  0  0  0  0  0
  -29.2300  -18.6350   19.0680 C   0  0  0  0  0  3  0  0  0  0  0  0
  -30.1890  -19.4920   21.1130 C   0  0  0  0  0  3  0  0  0  0  0  0
  -28.6300  -20.9220   19.8360 C   0  0  0  0  0  0  0  0  0  0  0  0
  -30.0660  -18.4240   20.1870 C   0  0  0  0  0  0  0  0  0  0  0  0
  -29.4830  -20.7210   20.9570 C   0  0  0  0  0  0  0  0  0  0  0  0
  -29.6310  -21.7910   22.0270 C   0  0  0  0  0  1  0  0  0  0  0  0
  -30.9360  -17.1450   20.3370 C   0  0  0  0  0  2  0  0  0  0  0  0
  -30.9840  -14.6660   19.9110 C   0  0  0  0  0  0  0  0  0  0  0  0
  -30.6340  -12.4050   18.9770 C   0  0  0  0  0  2  0  0  0  0  0  0
  -29.6490  -12.4920   17.7950 C   0  0  0  0  0  2  0  0  0  0  0  0
  -28.1940  -12.3920   18.2940 C   0  0  0  0  0  2  0  0  0  0  0  0
  -27.9000  -13.3300   19.4970 C   0  0  0  0  0  3  0  0  0  0  0  0
  -29.0050  -13.2330   20.5730 C   0  0  0  0  0  2  0  0  0  0  0  0
  -30.2910  -13.4900   19.9120 N   0  0  0  0  0  0  0  0  0  0  0  0
  -32.1320  -14.7370   19.4700 O   0  0  0  0  0  0  0  0  0  0  0  0
  -30.3110  -15.7970   20.2510 N   0  0  0  0  0  0  0  0  0  0  0  0
  -29.3500  -15.7050   20.5400 H   0  0  0  0  0  0  0  0  0  0  0  0
  -25.5740  -14.0020   20.3590 C   0  0  0  0  0  0  0  0  0  0  0  0
  -24.5030  -13.2600   20.7770 C   0  0  0  0  0  0  0  0  0  0  0  0
  -24.9140  -11.8940   20.6990 C   0  0  0  0  0  0  0  0  0  0  0  0
  -26.5720  -13.0900   20.0550 N   0  0  0  0  0  0  0  0  0  0  0  0
  -26.1830  -11.8150   20.3180 N   0  0  0  0  0  0  0  0  0  0  0  0
  -24.1530  -10.6540   20.9080 C   0  0  0  0  0  0  0  0  0  0  0  0
  -24.5700   -9.6780   21.8380 C   0  0  0  0  0  3  0  0  0  0  0  0
  -23.8120   -8.5040   22.0360 C   0  0  0  0  0  3  0  0  0  0  0  0
  -22.6200   -8.2980   21.3020 C   0  0  0  0  0  0  0  0  0  0  0  0
  -22.2190   -9.2620   20.3590 C   0  0  0  0  0  3  0  0  0  0  0  0
  -22.9800  -10.4270   20.1590 C   0  0  0  0  0  3  0  0  0  0  0  0
  -21.8330   -7.1770   21.4070 O   0  0  0  0  0  0  0  0  0  0  0  0
  -21.7430   -6.4690   22.5790 C   0  0  0  0  0  0  0  0  0  0  0  0
  -21.2920   -7.0650   23.7770 C   0  0  0  0  0  3  0  0  0  0  0  0
  -21.1490   -6.2840   24.9420 C   0  0  0  0  0  3  0  0  0  0  0  0
  -21.4460   -4.9080   24.9090 C   0  0  0  0  0  0  0  0  0  0  0  0
  -21.8900   -4.3120   23.7150 C   0  0  0  0  0  3  0  0  0  0  0  0
  -22.0340   -5.0900   22.5520 C   0  0  0  0  0  0  0  0  0  0  0  0
  -22.4420   -4.5070   21.4000 F   0  0  0  0  0  0  0  0  0  0  0  0
  -21.3000   -4.1560   26.0240 F   0  0  0  0  0  0  0  0  0  0  0  0
  -23.1410  -13.7810   21.1350 C   0  0  0  0  0  0  0  0  0  0  0  0
  -22.4440  -13.1070   22.0420 N   0  0  0  0  0  0  0  0  0  0  0  0
  -22.7070  -14.8230   20.6430 O   0  0  0  0  0  0  0  0  0  0  0  0
  -22.8120  -12.2650   22.4620 H   0  0  0  0  0  0  0  0  0  0  0  0
  -21.5330  -13.4370   22.3240 H   0  0  0  0  0  0  0  0  0  0  0  0
  -25.7710  -15.3700   20.1920 N   0  0  0  0  0  0  0  0  0  0  0  0
  -25.0100  -16.0280   20.3170 H   0  0  0  0  0  0  0  0  0  0  0  0
  -26.5960  -15.7900   19.7840 H   0  0  0  0  0  0  0  0  0  0  0  0
  -28.7240  -24.1950   19.5440 C   0  0  0  0  0  3  0  0  0  0  0  0
  -27.6970  -23.4230   19.5590 N   0  0  0  0  0  0  0  0  0  0  0  0
  -28.6690  -25.6680   19.0340 C   0  0  0  0  0  2  0  0  0  0  0  0
  -28.4230  -26.7310   20.0000 O   0  0  0  0  0  0  0  0  0  0  0  0
  -24.5640  -31.8630   23.1780 C   0  0  0  0  0  0  0  0  0  0  0  0
  -27.2450  -27.4770   19.9760 C   0  0  0  0  0  0  0  0  0  0  0  0
  -23.3720  -30.4920   21.5040 C   0  0  0  0  0  3  0  0  0  0  0  0
  -24.8380  -29.0010   20.0340 C   0  0  0  0  0  0  0  0  0  0  0  0
  -25.8990  -30.8650   21.3150 C   0  0  0  0  0  2  0  0  0  0  0  0
  -25.9950  -29.5060   20.6380 C   0  0  0  0  0  0  0  0  0  0  0  0
  -27.1950  -28.7480   20.6120 C   0  0  0  0  0  3  0  0  0  0  0  0
  -26.0590  -26.9940   19.3780 C   0  0  0  0  0  3  0  0  0  0  0  0
  -24.8680  -27.7460   19.4020 C   0  0  0  0  0  3  0  0  0  0  0  0
  -23.5890  -29.8540   20.1050 C   0  0  0  0  0  2  0  0  0  0  0  0
  -24.6310  -31.0890   22.0570 N   0  0  0  0  0  0  0  0  0  0  0  0
  -23.4810  -32.1120   23.7260 O   0  0  0  0  0  0  0  0  0  0  0  0
  -22.7330  -29.4380   22.4390 C   0  0  0  0  0  0  0  0  0  0  0  0
  -21.4130  -29.2300   22.2930 N   0  0  0  0  0  0  0  0  0  0  0  0
  -23.4200  -28.8140   23.2510 O   0  0  0  0  0  0  0  0  0  0  0  0
  -20.9210  -29.7840   21.6070 H   0  0  0  0  0  0  0  0  0  0  0  0
  -18.0660  -27.9290   22.7170 C   0  0  0  0  0  0  0  0  0  0  0  0
  -20.6100  -28.2600   23.0380 C   0  0  0  0  0  3  0  0  0  0  0  0
  -20.7650  -26.8370   22.4530 C   0  0  0  0  0  2  0  0  0  0  0  0
  -19.6900  -26.4880   21.4180 C   0  0  0  0  0  2  0  0  0  0  0  0
  -18.2940  -26.5890   22.0400 C   0  0  0  0  0  2  0  0  0  0  0  0
  -19.1530  -28.7190   23.1760 C   0  0  0  0  0  0  0  0  0  0  0  0
  -18.8870  -29.9670   23.7770 C   0  0  0  0  0  3  0  0  0  0  0  0
  -17.5640  -30.4260   23.9260 C   0  0  0  0  0  3  0  0  0  0  0  0
  -16.4910  -29.6360   23.4810 C   0  0  0  0  0  3  0  0  0  0  0  0
  -16.7430  -28.3880   22.8790 C   0  0  0  0  0  3  0  0  0  0  0  0
  -25.8440  -32.4950   23.8110 C   0  0  0  0  0  3  0  0  0  0  0  0
  -26.3600  -31.7120   25.0810 C   0  0  1  0  0  0  0  0  0  0  0  0
  -25.2640  -31.4560   26.1420 C   0  0  0  0  0  1  0  0  0  0  0  0
  -26.9530  -30.3430   24.6730 C   0  0  0  0  0  1  0  0  0  0  0  0
  -27.5040  -32.5040   25.7560 C   0  0  0  0  0  1  0  0  0  0  0  0
  -25.5270  -33.8880   24.1560 N   0  0  0  0  0  0  0  0  0  0  0  0
  -25.8530  -34.9510   23.4070 C   0  0  0  0  0  0  0  0  0  0  0  0
  -26.5240  -34.8610   22.3760 O   0  0  0  0  0  0  0  0  0  0  0  0
  -24.9340  -34.0320   24.9600 H   0  0  0  0  0  0  0  0  0  0  0  0
  -24.1150  -36.7360   23.0670 C   0  0  0  0  0  1  0  0  0  0  0  0
  -25.3560  -36.3310   23.8770 C   0  0  0  0  0  3  0  0  0  0  0  0
  -27.4840  -37.2220   24.7220 C   0  0  0  0  0  1  0  0  0  0  0  0
  -26.3840  -37.3910   23.7750 N   0  0  0  0  0  0  0  0  0  0  0  0
  -25.9720  -38.3080   23.9280 H   0  0  0  0  0  0  0  0  0  0  0  0
  1  8  1  0
  1  2  2  0
  2  4  1  0
  3  2  1  0
  5  6  2  0
  5  8  1  0
  6  9  1  0
  8 10  2  0
  9 12  1  0
  9  7  2  0
 10  7  1  0
 10 11  1  0
 13 19  1  0
 13 21  1  0
 14 19  1  0
 15 16  1  0
 15 14  1  0
 17 16  1  0
 17 26  1  0
 17 18  1  0
 19 18  1  0
 20 13  2  0
 21 12  1  0
 21 22  1  0
 23 24  2  0
 24 43  1  0
 25 24  1  0
 25 28  1  0
 26 27  1  0
 26 23  1  0
 27 25  2  0
 28 29  1  0
 29 30  2  0
 31 34  1  0
 31 30  1  0
 32 31  2  0
 33 32  1  0
 33 28  2  0
 34 35  1  0
 35 36  1  0
 36 37  2  0
 38 37  1  0
 38 42  1  0
 39 38  2  0
 40 35  2  0
 40 39  1  0
 41 40  1  0
 43 44  1  0
 44 47  1  0
 44 46  1  0
 45 43  2  0
 48 49  1  0
 48 23  1  0
 50 48  1  0
 51 52  2  0
 52  1  1  0
 53 51  1  0
 53 54  1  0
 55 66  2  0
 56 54  1  0
 56 61  1  0
 57 65  1  0
 57 67  1  0
 58 64  1  0
 58 60  1  0
 59 65  1  0
 60 59  1  0
 61 60  2  0
 62 63  1  0
 62 56  2  0
 63 58  2  0
 64 57  1  0
 65 55  1  0
 67 69  2  0
 68 67  1  0
 70 68  1  0
 71 80  2  0
 71 76  1  0
 72 68  1  0
 72 76  1  0
 73 72  1  0
 74 75  1  0
 74 73  1  0
 75 71  1  0
 76 77  2  0
 77 78  1  0
 79 78  2  0
 80 79  1  0
 81 55  1  0
 81 86  1  0
 81 82  1  0
 82 85  1  1
 82 83  1  0
 84 82  1  0
 86 89  1  0
 87 91  1  0
 87 86  1  0
 88 87  2  0
 91 90  1  0
 93 91  1  0
 93 94  1  0
 93 92  1  0
M  ISO  4  13 100  21 100  53 101  54 101
M  END
>  <TORSDO>  (9) 
F 20

>  <SCORE>  (9) 
-13.693

>  <name>  (9) 
8

>  <ligand_id>  (9) 
8

>  <original_smiles>  (9) 
[H]C(=NC(c1c([H])c([H])c(C([H])([H])N([H])C(=O)N2C([H])([H])C([H])([H])C([H])([H])C([H])(n3nc(-c4c([H])c([H])c(Oc5c([H])c([H])c(F)c([H])c5F)c([H])c4[H])c(C(=O)N([H])[H])c3N([H])[H])C2([H])[H])c([H])c1C([H])([H])[H])=[N+]([H])[H])C([H])([H])Oc1c([H])c([H])c2c(c1[H])C([H])([H])N(C(=O)C([H])(N([H])C(=O)C([H])(N([H])C([H])([H])[H])C([H])([H])[H])C(C([H])([H])[H])(C([H])([H])[H])C([H])([H])[H])C([H])(C(=O)N([H])C1([H])c3c([H])c([H])c([H])c([H])c3C([H])([H])C([H])([H])C1([H])[H])C2([H])[H]

>  <smiles>  (9) 
[H]C(=NC(c1c([H])c([H])c(C([H])([H])N([H])C(=O)N2C([H])([H])C([H])([H])C([H])([H])C([H])(n3nc(-c4c([H])c([H])c(Oc5c([H])c([H])c(F)c([H])c5F)c([H])c4[H])c(C(=O)N([H])[H])c3N([H])[H])C2([H])[H])c([H])c1C([H])([H])[H])=[N+]([H])[H])C([H])([H])Oc1c([H])c([H])c2c(c1[H])C([H])([H])N(C(=O)C([H])(N([H])C(=O)C([H])(N([H])C([H])([H])[H])C([H])([H])[H])C(C([H])([H])[H])(C([H])([H])[H])C([H])([H])[H])C([H])(C(=O)N([H])C1([H])c3c([H])c([H])c([H])c([H])c3C([H])([H])C([H])([H])C1([H])[H])C2([H])[H]

$$$$
9:0:0
     RDKit          3D

 94103  0  0  1  0  0  0  0  0999 V2000
  -27.6110  -22.2540   20.0700 C   0  0  0  0  0  0  0  0  0  0  0  0
  -27.3290  -23.7870   19.6600 C   0  0  0  0  0  2  0  0  0  0  0  0
  -29.7090  -24.2380   19.9930 C   0  0  0  0  0  2  0  0  0  0  0  0
  -29.8760  -22.6850   19.5370 C   0  0  0  0  0  2  0  0  0  0  0  0
  -28.2900  -24.9140   20.2250 C   0  0  0  0  0  3  0  0  0  0  0  0
  -28.8440  -21.6520   19.9080 N   0  0  0  0  0  0  0  0  0  0  0  0
  -26.6480  -21.5880   20.4590 O   0  0  0  0  0  0  0  0  0  0  0  0
  -28.2580  -26.4420   19.8990 O   0  0  0  0  0  0  0  0  0  0  0  0
  -24.6050  -31.9680   23.1560 C   0  0  0  0  0  0  0  0  0  0  0  0
  -27.1420  -27.3450   19.9810 C   0  0  0  0  0  0  0  0  0  0  0  0
  -23.3690  -30.5910   21.5250 C   0  0  0  0  0  3  0  0  0  0  0  0
  -24.7900  -29.0480   20.0410 C   0  0  0  0  0  0  0  0  0  0  0  0
  -25.9110  -30.8920   21.2880 C   0  0  0  0  0  2  0  0  0  0  0  0
  -25.9800  -29.5080   20.6180 C   0  0  0  0  0  0  0  0  0  0  0  0
  -27.1580  -28.6740   20.5630 C   0  0  0  0  0  3  0  0  0  0  0  0
  -25.9230  -26.9730   19.3800 C   0  0  0  0  0  3  0  0  0  0  0  0
  -24.7710  -27.7940   19.4080 C   0  0  0  0  0  3  0  0  0  0  0  0
  -23.5590  -29.9370   20.1290 C   0  0  0  0  0  2  0  0  0  0  0  0
  -24.6490  -31.1710   22.0450 N   0  0  0  0  0  0  0  0  0  0  0  0
  -23.5330  -32.2300   23.7210 O   0  0  0  0  0  0  0  0  0  0  0  0
  -22.7300  -29.5580   22.4870 C   0  0  0  0  0  0  0  0  0  0  0  0
  -21.4000  -29.3760   22.3970 N   0  0  0  0  0  0  0  0  0  0  0  0
  -23.4310  -28.9260   23.2820 O   0  0  0  0  0  0  0  0  0  0  0  0
  -20.8880  -29.9420   21.7350 H   0  0  0  0  0  0  0  0  0  0  0  0
  -18.0540  -28.1000   22.9370 C   0  0  0  0  0  0  0  0  0  0  0  0
  -20.6100  -28.4160   23.1730 C   0  0  0  0  0  3  0  0  0  0  0  0
  -20.7330  -26.9880   22.5900 C   0  0  0  0  0  2  0  0  0  0  0  0
  -19.6260  -26.6480   21.5870 C   0  0  0  0  0  2  0  0  0  0  0  0
  -18.2500  -26.7590   22.2500 C   0  0  0  0  0  2  0  0  0  0  0  0
  -19.1620  -28.8840   23.3560 C   0  0  0  0  0  0  0  0  0  0  0  0
  -18.9230  -30.1380   23.9600 C   0  0  0  0  0  3  0  0  0  0  0  0
  -17.6080  -30.6080   24.1480 C   0  0  0  0  0  3  0  0  0  0  0  0
  -16.5160  -29.8220   23.7450 C   0  0  0  0  0  3  0  0  0  0  0  0
  -16.7400  -28.5700   23.1450 C   0  0  0  0  0  3  0  0  0  0  0  0
  -25.8950  -32.6040   23.7560 C   0  0  0  0  0  3  0  0  0  0  0  0
  -25.5740  -33.9880   24.1450 N   0  0  0  0  0  0  0  0  0  0  0  0
  -25.8640  -35.0740   23.4160 C   0  0  0  0  0  0  0  0  0  0  0  0
  -26.4980  -35.0170   22.3590 O   0  0  0  0  0  0  0  0  0  0  0  0
  -25.0070  -34.1020   24.9710 H   0  0  0  0  0  0  0  0  0  0  0  0
  -24.1050  -36.8590   23.1860 C   0  0  0  0  0  1  0  0  0  0  0  0
  -25.3770  -36.4380   23.9420 C   0  0  0  0  0  3  0  0  0  0  0  0
  -27.5240  -37.3240   24.7410 C   0  0  0  0  0  1  0  0  0  0  0  0
  -26.3910  -37.5100   23.8360 N   0  0  0  0  0  0  0  0  0  0  0  0
  -25.9770  -38.4170   24.0250 H   0  0  0  0  0  0  0  0  0  0  0  0
  -26.4620  -31.8040   24.9930 C   0  0  1  0  0  0  0  0  0  0  0  0
  -25.4090  -31.5180   26.0880 C   0  0  0  0  0  1  0  0  0  0  0  0
  -27.0530  -30.4460   24.5450 C   0  0  0  0  0  1  0  0  0  0  0  0
  -27.6220  -32.5950   25.6440 C   0  0  0  0  0  1  0  0  0  0  0  0
  -29.0710  -20.0660   19.7420 C   0  0  0  0  0  2  0  0  0  0  0  0
  -31.5210  -19.5280   22.6150 C   0  0  0  0  0  3  0  0  0  0  0  0
  -31.6310  -18.1680   22.8580 C   0  0  0  0  0  3  0  0  0  0  0  0
  -30.6640  -19.9630   21.6090 C   0  0  0  0  0  3  0  0  0  0  0  0
  -30.9440  -17.2340   22.0660 C   0  0  0  0  0  0  0  0  0  0  0  0
  -29.9630  -19.1080   20.7220 C   0  0  0  0  0  0  0  0  0  0  0  0
  -30.1990  -17.6000   20.8800 C   0  0  0  0  0  0  0  0  0  0  0  0
  -31.0120  -15.8210   22.6480 C   0  0  0  0  0  1  0  0  0  0  0  0
  -30.4490  -15.1660   19.7540 C   0  0  0  0  0  0  0  0  0  0  0  0
  -30.2400  -12.8550   18.7220 C   0  0  0  0  0  2  0  0  0  0  0  0
  -29.1830  -12.8230   17.5960 C   0  0  0  0  0  2  0  0  0  0  0  0
  -27.7800  -12.5650   18.1780 C   0  0  0  0  0  2  0  0  0  0  0  0
  -27.4850  -13.4410   19.4260 C   0  0  0  0  0  3  0  0  0  0  0  0
  -28.6580  -13.4550   20.4260 C   0  0  0  0  0  2  0  0  0  0  0  0
  -29.8360  -13.9160   19.6860 N   0  0  0  0  0  0  0  0  0  0  0  0
  -31.6060  -15.2390   19.3240 O   0  0  0  0  0  0  0  0  0  0  0  0
  -29.7390  -16.3550   20.1140 N   0  0  0  0  0  0  0  0  0  0  0  0
  -28.7350  -16.2470   20.0840 H   0  0  0  0  0  0  0  0  0  0  0  0
  -25.2060  -13.9350   20.4830 C   0  0  0  0  0  0  0  0  0  0  0  0
  -24.2000  -13.1230   20.9290 C   0  0  0  0  0  0  0  0  0  0  0  0
  -24.6670  -11.7840   20.7550 C   0  0  0  0  0  0  0  0  0  0  0  0
  -26.2180  -13.0920   20.0620 N   0  0  0  0  0  0  0  0  0  0  0  0
  -25.9120  -11.7870   20.2910 N   0  0  0  0  0  0  0  0  0  0  0  0
  -23.9750  -10.5010   20.9500 C   0  0  0  0  0  0  0  0  0  0  0  0
  -24.4500   -9.5370   21.8670 C   0  0  0  0  0  3  0  0  0  0  0  0
  -23.7560   -8.3220   22.0510 C   0  0  0  0  0  3  0  0  0  0  0  0
  -22.5730   -8.0600   21.3170 C   0  0  0  0  0  0  0  0  0  0  0  0
  -22.1170   -9.0130   20.3920 C   0  0  0  0  0  3  0  0  0  0  0  0
  -22.8120  -10.2200   20.2040 C   0  0  0  0  0  3  0  0  0  0  0  0
  -21.8490   -6.8970   21.4100 O   0  0  0  0  0  0  0  0  0  0  0  0
  -21.7530   -6.2000   22.5880 C   0  0  0  0  0  0  0  0  0  0  0  0
  -21.2170   -6.7830   23.7550 C   0  0  0  0  0  3  0  0  0  0  0  0
  -21.0700   -6.0100   24.9250 C   0  0  0  0  0  3  0  0  0  0  0  0
  -21.4550   -4.6550   24.9270 C   0  0  0  0  0  0  0  0  0  0  0  0
  -21.9850   -4.0720   23.7630 C   0  0  0  0  0  3  0  0  0  0  0  0
  -22.1310   -4.8420   22.5950 C   0  0  0  0  0  0  0  0  0  0  0  0
  -22.6240   -4.2680   21.4700 F   0  0  0  0  0  0  0  0  0  0  0  0
  -21.3090   -3.9110   26.0490 F   0  0  0  0  0  0  0  0  0  0  0  0
  -22.8400  -13.5630   21.3880 C   0  0  0  0  0  0  0  0  0  0  0  0
  -22.2220  -12.8080   22.2920 N   0  0  0  0  0  0  0  0  0  0  0  0
  -22.3340  -14.6080   20.9810 O   0  0  0  0  0  0  0  0  0  0  0  0
  -22.6440  -11.9640   22.6490 H   0  0  0  0  0  0  0  0  0  0  0  0
  -21.3130  -13.0840   22.6350 H   0  0  0  0  0  0  0  0  0  0  0  0
  -25.3340  -15.3150   20.3750 N   0  0  0  0  0  0  0  0  0  0  0  0
  -24.5810  -15.9490   20.6190 H   0  0  0  0  0  0  0  0  0  0  0  0
  -26.1240  -15.7870   19.9550 H   0  0  0  0  0  0  0  0  0  0  0  0
  1  7  2  0
  2  1  1  0
  2  5  1  0
  3  5  1  0
  4  6  1  0
  4  3  1  0
  5  8  1  0
  6  1  1  0
  8 10  1  0
  9 20  2  0
 10 15  1  0
 11 19  1  0
 11 21  1  0
 12 18  1  0
 12 14  1  0
 13 19  1  0
 14 13  1  0
 15 14  2  0
 16 17  1  0
 16 10  2  0
 17 12  2  0
 18 11  1  0
 19  9  1  0
 21 23  2  0
 22 21  1  0
 24 22  1  0
 25 34  2  0
 25 30  1  0
 26 22  1  0
 26 30  1  0
 27 26  1  0
 28 29  1  0
 28 27  1  0
 29 25  1  0
 30 31  2  0
 31 32  1  0
 33 32  2  0
 34 33  1  0
 35  9  1  0
 35 36  1  0
 35 45  1  0
 36 39  1  0
 37 41  1  0
 37 36  1  0
 38 37  2  0
 41 40  1  0
 43 41  1  0
 43 44  1  0
 43 42  1  0
 45 48  1  1
 45 46  1  0
 47 45  1  0
 49  6  1  0
 49 54  1  0
 50 51  1  0
 52 50  2  0
 53 56  1  0
 53 51  2  0
 54 55  2  0
 54 52  1  0
 55 53  1  0
 57 65  1  0
 58 63  1  0
 59 60  1  0
 59 58  1  0
 61 60  1  0
 61 70  1  0
 61 62  1  0
 63 57  1  0
 63 62  1  0
 64 57  2  0
 65 55  1  0
 66 65  1  0
 67 68  2  0
 68 87  1  0
 69 68  1  0
 69 72  1  0
 70 71  1  0
 70 67  1  0
 71 69  2  0
 72 73  1  0
 73 74  2  0
 75 78  1  0
 75 74  1  0
 76 75  2  0
 77 76  1  0
 77 72  2  0
 78 79  1  0
 79 84  2  0
 79 80  1  0
 80 81  2  0
 81 82  1  0
 82 86  1  0
 83 82  2  0
 84 83  1  0
 85 84  1  0
 87 88  1  0
 88 91  1  0
 88 90  1  0
 89 87  2  0
 92 67  1  0
 92 93  1  0
 94 92  1  0
M  ISO  4   5 101   8 101  57 100  65 100
M  END
>  <TORSDO>  (10) 
F 18

>  <SCORE>  (10) 
-12.619

>  <name>  (10) 
9

>  <ligand_id>  (10) 
9

>  <original_smiles>  (10) 
[H]c1c([H])c(C([H])([H])[H])c(N([H])C(=O)N2C([H])([H])C([H])([H])C([H])([H])C([H])(n3nc(-c4c([H])c([H])c(Oc5c([H])c([H])c(F)c([H])c5F)c([H])c4[H])c(C(=O)N([H])[H])c3N([H])[H])C2([H])[H])c(C([H])([H])N2C(=O)C([H])([H])C([H])(Oc3c([H])c([H])c4c(c3[H])C([H])([H])N(C(=O)C([H])(N([H])C(=O)C([H])(N([H])C([H])([H])[H])C([H])([H])[H])C(C([H])([H])[H])(C([H])([H])[H])C([H])([H])[H])C([H])(C(=O)N([H])C3([H])c5c([H])c([H])c([H])c([H])c5C([H])([H])C([H])([H])C3([H])[H])C4([H])[H])C([H])([H])C2([H])[H])c1[H]

>  <smiles>  (10) 
[H]c1c([H])c(C([H])([H])[H])c(N([H])C(=O)N2C([H])([H])C([H])([H])C([H])([H])C([H])(n3nc(-c4c([H])c([H])c(Oc5c([H])c([H])c(F)c([H])c5F)c([H])c4[H])c(C(=O)N([H])[H])c3N([H])[H])C2([H])[H])c(C([H])([H])N2C(=O)C([H])([H])C([H])(Oc3c([H])c([H])c4c(c3[H])C([H])([H])N(C(=O)C([H])(N([H])C(=O)C([H])(N([H])C([H])([H])[H])C([H])([H])[H])C(C([H])([H])[H])(C([H])([H])[H])C([H])([H])[H])C([H])(C(=O)N([H])C3([H])c5c([H])c([H])c([H])c([H])c5C([H])([H])C([H])([H])C3([H])[H])C4([H])[H])C([H])([H])C2([H])[H])c1[H]

$$$$
10:0:0
     RDKit          3D

 99107  0  0  1  0  0  0  0  0999 V2000
  -28.6870  -21.9230   19.7800 C   0  0  0  0  0  0  0  0  0  0  0  0
  -28.9600  -22.5990   18.6670 N   0  0  0  0  0  4  0  0  0  0  0  0
  -28.3390  -22.6200   20.8790 N   0  0  0  0  0  0  0  0  0  0  0  0
  -29.0880  -23.5960   18.6680 H   0  0  0  0  0  0  0  0  0  0  0  0
  -29.2330  -22.0820   17.8420 H   0  0  0  0  0  0  0  0  0  0  0  0
  -28.1950  -22.0650   21.7130 H   0  0  0  0  0  0  0  0  0  0  0  0
  -27.7290  -19.9230   18.7850 C   0  0  0  0  0  3  0  0  0  0  0  0
  -27.6210  -18.5450   18.5560 C   0  0  0  0  0  3  0  0  0  0  0  0
  -28.6650  -20.4370   19.7050 C   0  0  0  0  0  0  0  0  0  0  0  0
  -29.5060  -19.5210   20.4240 C   0  0  0  0  0  0  0  0  0  0  0  0
  -29.3820  -18.1000   20.2100 C   0  0  0  0  0  0  0  0  0  0  0  0
  -28.4480  -17.6450   19.2440 C   0  0  0  0  0  0  0  0  0  0  0  0
  -30.5750  -20.0480   21.3780 C   0  0  0  0  0  1  0  0  0  0  0  0
  -28.3330  -16.3320   18.9390 F   0  0  0  0  0  0  0  0  0  0  0  0
  -30.2850  -17.0880   20.9760 C   0  0  0  0  0  2  0  0  0  0  0  0
  -30.6730  -14.6190   20.5040 C   0  0  0  0  0  0  0  0  0  0  0  0
  -30.4250  -12.4320   19.3800 C   0  0  0  0  0  2  0  0  0  0  0  0
  -29.4890  -12.6220   18.1670 C   0  0  0  0  0  2  0  0  0  0  0  0
  -28.0130  -12.4640   18.5880 C   0  0  0  0  0  2  0  0  0  0  0  0
  -27.6580  -13.2740   19.8640 C   0  0  0  0  0  3  0  0  0  0  0  0
  -28.7190  -13.0860   20.9720 C   0  0  0  0  0  2  0  0  0  0  0  0
  -30.0310  -13.4190   20.3970 N   0  0  0  0  0  0  0  0  0  0  0  0
  -31.8100  -14.8040   20.0640 O   0  0  0  0  0  0  0  0  0  0  0  0
  -29.9260  -15.6460   20.9640 N   0  0  0  0  0  0  0  0  0  0  0  0
  -28.9940  -15.4150   21.2720 H   0  0  0  0  0  0  0  0  0  0  0  0
  -25.2590  -13.8450   20.5890 C   0  0  0  0  0  0  0  0  0  0  0  0
  -24.2010  -13.0560   20.9530 C   0  0  0  0  0  0  0  0  0  0  0  0
  -24.6760  -11.7090   20.9020 C   0  0  0  0  0  0  0  0  0  0  0  0
  -26.3100  -12.9770   20.3430 N   0  0  0  0  0  0  0  0  0  0  0  0
  -25.9640  -11.6860   20.5860 N   0  0  0  0  0  0  0  0  0  0  0  0
  -23.9650  -10.4360   21.0760 C   0  0  0  0  0  0  0  0  0  0  0  0
  -24.4050   -9.4660   22.0030 C   0  0  0  0  0  3  0  0  0  0  0  0
  -23.6970   -8.2550   22.1640 C   0  0  0  0  0  3  0  0  0  0  0  0
  -22.5330   -8.0080   21.3990 C   0  0  0  0  0  0  0  0  0  0  0  0
  -22.1100   -8.9680   20.4610 C   0  0  0  0  0  3  0  0  0  0  0  0
  -22.8200  -10.1700   20.2980 C   0  0  0  0  0  3  0  0  0  0  0  0
  -21.7940   -6.8530   21.4700 O   0  0  0  0  0  0  0  0  0  0  0  0
  -21.7410   -6.1050   22.6190 C   0  0  0  0  0  0  0  0  0  0  0  0
  -21.2600   -6.6370   23.8350 C   0  0  0  0  0  3  0  0  0  0  0  0
  -21.1540   -5.8130   24.9730 C   0  0  0  0  0  3  0  0  0  0  0  0
  -21.5200   -4.4560   24.8950 C   0  0  0  0  0  0  0  0  0  0  0  0
  -21.9990   -3.9240   23.6860 C   0  0  0  0  0  3  0  0  0  0  0  0
  -22.1050   -4.7450   22.5500 C   0  0  0  0  0  0  0  0  0  0  0  0
  -22.5430   -4.2200   21.3810 F   0  0  0  0  0  0  0  0  0  0  0  0
  -21.4130   -3.6620   25.9870 F   0  0  0  0  0  0  0  0  0  0  0  0
  -22.7980  -13.5140   21.2370 C   0  0  0  0  0  0  0  0  0  0  0  0
  -22.0750  -12.7940   22.0880 N   0  0  0  0  0  0  0  0  0  0  0  0
  -22.3490  -14.5450   20.7380 O   0  0  0  0  0  0  0  0  0  0  0  0
  -22.4450  -11.9590   22.5150 H   0  0  0  0  0  0  0  0  0  0  0  0
  -21.1360  -13.0890   22.3210 H   0  0  0  0  0  0  0  0  0  0  0  0
  -25.4110  -15.2200   20.4240 N   0  0  0  0  0  0  0  0  0  0  0  0
  -24.6330  -15.8670   20.5080 H   0  0  0  0  0  0  0  0  0  0  0  0
  -26.2390  -15.6480   20.0330 H   0  0  0  0  0  0  0  0  0  0  0  0
  -27.6920  -23.9690   20.8820 C   0  0  0  0  0  2  0  0  0  0  0  0
  -27.0680  -25.6490   22.6620 C   0  0  0  0  0  1  0  0  0  0  0  0
  -29.2240  -24.4520   22.8880 C   0  0  0  0  0  1  0  0  0  0  0  0
  -28.2510  -25.0610   21.8560 C   0  0  1  0  0  0  0  0  0  0  0  0
  -29.0060  -26.2230   21.1190 C   0  0  0  0  0  2  0  0  0  0  0  0
  -28.4250  -26.7390   19.9150 O   0  0  0  0  0  0  0  0  0  0  0  0
  -24.6530  -31.8950   23.1760 C   0  0  0  0  0  0  0  0  0  0  0  0
  -27.2920  -27.5110   20.0140 C   0  0  0  0  0  0  0  0  0  0  0  0
  -23.4400  -30.5050   21.5280 C   0  0  0  0  0  3  0  0  0  0  0  0
  -24.8950  -29.0000   20.0650 C   0  0  0  0  0  0  0  0  0  0  0  0
  -25.9580  -30.8820   21.3130 C   0  0  0  0  0  2  0  0  0  0  0  0
  -26.0500  -29.5150   20.6680 C   0  0  0  0  0  0  0  0  0  0  0  0
  -27.2530  -28.7710   20.6580 C   0  0  0  0  0  3  0  0  0  0  0  0
  -26.1320  -27.0250   19.3820 C   0  0  0  0  0  3  0  0  0  0  0  0
  -24.9310  -27.7520   19.4180 C   0  0  0  0  0  3  0  0  0  0  0  0
  -23.6430  -29.8440   20.1360 C   0  0  0  0  0  2  0  0  0  0  0  0
  -24.7020  -31.1080   22.0650 N   0  0  0  0  0  0  0  0  0  0  0  0
  -23.5770  -32.1530   23.7310 O   0  0  0  0  0  0  0  0  0  0  0  0
  -22.8090  -29.4660   22.4810 C   0  0  0  0  0  0  0  0  0  0  0  0
  -21.4820  -29.2880   22.3750 N   0  0  0  0  0  0  0  0  0  0  0  0
  -23.5060  -28.8240   23.2700 O   0  0  0  0  0  0  0  0  0  0  0  0
  -20.9810  -29.8620   21.7120 H   0  0  0  0  0  0  0  0  0  0  0  0
  -18.1200  -28.0780   22.9010 C   0  0  0  0  0  0  0  0  0  0  0  0
  -20.6800  -28.3330   23.1370 C   0  0  0  0  0  3  0  0  0  0  0  0
  -20.7740  -26.9150   22.5270 C   0  0  0  0  0  2  0  0  0  0  0  0
  -19.6560  -26.6100   21.5280 C   0  0  0  0  0  2  0  0  0  0  0  0
  -18.2860  -26.7410   22.1980 C   0  0  0  0  0  2  0  0  0  0  0  0
  -19.2450  -28.8320   23.3280 C   0  0  0  0  0  0  0  0  0  0  0  0
  -19.0360  -30.0850   23.9450 C   0  0  0  0  0  3  0  0  0  0  0  0
  -17.7340  -30.5840   24.1400 C   0  0  0  0  0  3  0  0  0  0  0  0
  -16.6240  -29.8250   23.7300 C   0  0  0  0  0  3  0  0  0  0  0  0
  -16.8170  -28.5740   23.1160 C   0  0  0  0  0  3  0  0  0  0  0  0
  -25.9440  -32.5260   23.7870 C   0  0  0  0  0  3  0  0  0  0  0  0
  -25.6250  -33.9120   24.1530 N   0  0  0  0  0  0  0  0  0  0  0  0
  -25.9310  -34.9850   23.4090 C   0  0  0  0  0  0  0  0  0  0  0  0
  -26.5810  -34.9090   22.3620 O   0  0  0  0  0  0  0  0  0  0  0  0
  -25.0430  -34.0420   24.9660 H   0  0  0  0  0  0  0  0  0  0  0  0
  -24.1780  -36.7650   23.1140 C   0  0  0  0  0  1  0  0  0  0  0  0
  -25.4320  -36.3540   23.9030 C   0  0  0  0  0  3  0  0  0  0  0  0
  -27.5630  -37.2480   24.7350 C   0  0  0  0  0  1  0  0  0  0  0  0
  -26.4520  -37.4210   23.8030 N   0  0  0  0  0  0  0  0  0  0  0  0
  -26.0360  -38.3340   23.9710 H   0  0  0  0  0  0  0  0  0  0  0  0
  -26.4940  -31.7280   25.0330 C   0  0  1  0  0  0  0  0  0  0  0  0
  -25.4240  -31.4520   26.1140 C   0  0  0  0  0  1  0  0  0  0  0  0
  -27.0820  -30.3660   24.5940 C   0  0  0  0  0  1  0  0  0  0  0  0
  -27.6470  -32.5200   25.6930 C   0  0  0  0  0  1  0  0  0  0  0  0
  1  3  1  0
  2  4  1  0
  2  1  2  0
  3 54  1  0
  3  6  1  0
  5  2  1  0
  7  9  1  0
  8  7  2  0
  8 12  1  0
  9  1  1  0
  9 10  2  0
 10 13  1  0
 11 10  1  0
 11 15  1  0
 12 11  2  0
 14 12  1  0
 16 24  1  0
 17 22  1  0
 18 19  1  0
 18 17  1  0
 20 19  1  0
 20 29  1  0
 20 21  1  0
 22 16  1  0
 22 21  1  0
 23 16  2  0
 24 15  1  0
 24 25  1  0
 26 27  2  0
 27 46  1  0
 28 27  1  0
 28 31  1  0
 29 30  1  0
 29 26  1  0
 30 28  2  0
 31 32  1  0
 32 33  2  0
 34 37  1  0
 34 33  1  0
 35 34  2  0
 36 35  1  0
 36 31  2  0
 37 38  1  0
 38 39  1  0
 39 40  2  0
 41 40  1  0
 41 45  1  0
 42 41  2  0
 43 38  2  0
 43 42  1  0
 44 43  1  0
 46 47  1  0
 47 50  1  0
 47 49  1  0
 48 46  2  0
 51 52  1  0
 51 26  1  0
 53 51  1  0
 54 57  1  0
 57 55  1  1
 57 56  1  0
 58 57  1  0
 59 61  1  0
 59 58  1  0
 60 71  2  0
 61 66  1  0
 62 70  1  0
 62 72  1  0
 63 69  1  0
 63 65  1  0
 64 70  1  0
 65 64  1  0
 66 65  2  0
 67 68  1  0
 67 61  2  0
 68 63  2  0
 69 62  1  0
 70 60  1  0
 72 74  2  0
 73 72  1  0
 75 73  1  0
 76 85  2  0
 76 81  1  0
 77 73  1  0
 77 81  1  0
 78 77  1  0
 79 80  1  0
 79 78  1  0
 80 76  1  0
 81 82  2  0
 82 83  1  0
 84 83  2  0
 85 84  1  0
 86 60  1  0
 86 87  1  0
 86 96  1  0
 87 90  1  0
 88 92  1  0
 88 87  1  0
 89 88  2  0
 92 91  1  0
 94 92  1  0
 94 95  1  0
 94 93  1  0
 96 99  1  1
 96 97  1  0
 98 96  1  0
M  ISO  4  16 100  24 100  58 101  59 101
M  END
>  <TORSDO>  (11) 
F 21

>  <SCORE>  (11) 
-14.102

>  <name>  (11) 
10

>  <ligand_id>  (11) 
10

>  <original_smiles>  (11) 
[H]c1c([H])c([H])c2c(c1[H])C([H])([H])C([H])([H])C([H])([H])C2([H])N([H])C(=O)C1([H])N(C(=O)C([H])(N([H])C(=O)C([H])(N([H])C([H])([H])[H])C([H])([H])[H])C(C([H])([H])[H])(C([H])([H])[H])C([H])([H])[H])C([H])([H])c2c([H])c(OC([H])([H])C(C([H])([H])[H])(C([H])([H])[H])C([H])([H])[N+]([H])=C(c3c([H])c([H])c(F)c(C([H])([H])N([H])C(=O)N4C([H])([H])C([H])([H])C([H])([H])C([H])(n5nc(-c6c([H])c([H])c(Oc7c([H])c([H])c(F)c([H])c7F)c([H])c6[H])c(C(=O)N([H])[H])c5N([H])[H])C4([H])[H])c3C([H])([H])[H])N([H])[H])c([H])c([H])c2C1([H])[H]

>  <smiles>  (11) 
[H]c1c([H])c([H])c2c(c1[H])C([H])([H])C([H])([H])C([H])([H])C2([H])N([H])C(=O)C1([H])N(C(=O)C([H])(N([H])C(=O)C([H])(N([H])C([H])([H])[H])C([H])([H])[H])C(C([H])([H])[H])(C([H])([H])[H])C([H])([H])[H])C([H])([H])c2c([H])c(OC([H])([H])C(C([H])([H])[H])(C([H])([H])[H])C([H])([H])[N+]([H])=C(c3c([H])c([H])c(F)c(C([H])([H])N([H])C(=O)N4C([H])([H])C([H])([H])C([H])([H])C([H])(n5nc(-c6c([H])c([H])c(Oc7c([H])c([H])c(F)c([H])c7F)c([H])c6[H])c(C(=O)N([H])[H])c5N([H])[H])C4([H])[H])c3C([H])([H])[H])N([H])[H])c([H])c([H])c2C1([H])[H]

$$$$
11:0:0
     RDKit          3D

 97106  0  0  1  0  0  0  0  0999 V2000
  -28.4750  -23.0810   20.4450 C   0  0  0  0  0  0  0  0  0  0  0  0
  -27.4480  -22.2090   20.4010 C   0  0  0  0  0  2  0  0  0  0  0  0
  -28.4750  -24.4260   19.7080 C   0  0  0  0  0  2  0  0  0  0  0  0
  -30.2040  -25.3550   21.2130 C   0  0  0  0  0  2  0  0  0  0  0  0
  -30.2110  -24.0390   22.0080 C   0  0  0  0  0  2  0  0  0  0  0  0
  -28.8140  -25.6080   20.6350 C   0  0  0  0  0  3  0  0  0  0  0  0
  -29.7560  -22.8470   21.2280 N   0  0  1  0  0  4  0  0  0  0  0  0
  -30.4900  -22.6710   20.5580 H   0  0  0  0  0  0  0  0  0  0  0  0
  -28.8150  -26.8790   19.9660 O   0  0  0  0  0  0  0  0  0  0  0  0
  -24.6300  -31.6390   23.2080 C   0  0  0  0  0  0  0  0  0  0  0  0
  -27.6030  -27.5300   19.9830 C   0  0  0  0  0  0  0  0  0  0  0  0
  -23.5330  -30.2060   21.5150 C   0  0  0  0  0  3  0  0  0  0  0  0
  -25.0990  -28.8360   20.0420 C   0  0  0  0  0  0  0  0  0  0  0  0
  -26.0220  -30.7690   21.3320 C   0  0  0  0  0  2  0  0  0  0  0  0
  -26.2140  -29.4310   20.6480 C   0  0  0  0  0  0  0  0  0  0  0  0
  -27.4710  -28.7860   20.6150 C   0  0  0  0  0  3  0  0  0  0  0  0
  -26.4740  -26.9450   19.3720 C   0  0  0  0  0  3  0  0  0  0  0  0
  -25.2240  -27.5910   19.4030 C   0  0  0  0  0  3  0  0  0  0  0  0
  -23.7920  -29.5920   20.1140 C   0  0  0  0  0  2  0  0  0  0  0  0
  -24.7460  -30.8850   22.0780 N   0  0  0  0  0  0  0  0  0  0  0  0
  -23.5310  -31.8080   23.7550 O   0  0  0  0  0  0  0  0  0  0  0  0
  -22.9640  -29.1050   22.4390 C   0  0  0  0  0  0  0  0  0  0  0  0
  -21.6840  -28.7510   22.2280 N   0  0  0  0  0  0  0  0  0  0  0  0
  -23.6710  -28.5720   23.2980 O   0  0  0  0  0  0  0  0  0  0  0  0
  -21.1690  -29.2420   21.5110 H   0  0  0  0  0  0  0  0  0  0  0  0
  -18.5240  -27.0100   22.4010 C   0  0  0  0  0  0  0  0  0  0  0  0
  -20.9500  -27.7120   22.9500 C   0  0  0  0  0  3  0  0  0  0  0  0
  -21.3600  -26.3020   22.4640 C   0  0  0  0  0  2  0  0  0  0  0  0
  -20.4580  -25.7630   21.3500 C   0  0  0  0  0  2  0  0  0  0  0  0
  -19.0040  -25.6890   21.8240 C   0  0  0  0  0  2  0  0  0  0  0  0
  -19.4390  -27.9670   22.9160 C   0  0  0  0  0  0  0  0  0  0  0  0
  -18.9430  -29.1920   23.4090 C   0  0  0  0  0  3  0  0  0  0  0  0
  -17.5620  -29.4690   23.3960 C   0  0  0  0  0  3  0  0  0  0  0  0
  -16.6600  -28.5130   22.9010 C   0  0  0  0  0  3  0  0  0  0  0  0
  -17.1400  -27.2850   22.4090 C   0  0  0  0  0  3  0  0  0  0  0  0
  -25.8640  -32.3430   23.8520 C   0  0  0  0  0  3  0  0  0  0  0  0
  -26.3960  -31.6090   25.1440 C   0  0  1  0  0  0  0  0  0  0  0  0
  -25.2960  -31.3190   26.1910 C   0  0  0  0  0  1  0  0  0  0  0  0
  -27.0610  -30.2640   24.7700 C   0  0  0  0  0  1  0  0  0  0  0  0
  -27.4890  -32.4680   25.8220 C   0  0  0  0  0  1  0  0  0  0  0  0
  -25.4730  -33.7250   24.1620 N   0  0  0  0  0  0  0  0  0  0  0  0
  -25.7810  -34.7880   23.4080 C   0  0  0  0  0  0  0  0  0  0  0  0
  -26.4940  -34.7140   22.4030 O   0  0  0  0  0  0  0  0  0  0  0  0
  -24.8450  -33.8540   24.9410 H   0  0  0  0  0  0  0  0  0  0  0  0
  -23.9780  -36.4850   22.9740 C   0  0  0  0  0  1  0  0  0  0  0  0
  -25.2060  -36.1520   23.8370 C   0  0  0  0  0  3  0  0  0  0  0  0
  -27.2600  -37.1480   24.7390 C   0  0  0  0  0  1  0  0  0  0  0  0
  -26.1870  -37.2560   23.7540 N   0  0  0  0  0  0  0  0  0  0  0  0
  -25.7290  -38.1550   23.8820 H   0  0  0  0  0  0  0  0  0  0  0  0
  -29.7980  -21.6530   22.1280 C   0  0  0  0  0  2  0  0  0  0  0  0
  -32.1970  -18.8370   20.9960 C   0  0  0  0  0  3  0  0  0  0  0  0
  -29.4690  -19.2350   21.4320 C   0  0  0  0  0  3  0  0  0  0  0  0
  -31.7270  -20.1350   21.2980 C   0  0  0  0  0  0  0  0  0  0  0  0
  -29.9430  -17.9320   21.1510 C   0  0  0  0  0  0  0  0  0  0  0  0
  -31.3320  -17.7210   20.9550 C   0  0  0  0  0  0  0  0  0  0  0  0
  -30.3470  -20.3380   21.5500 C   0  0  0  0  0  0  0  0  0  0  0  0
  -32.7410  -21.2640   21.4070 C   0  0  0  0  0  1  0  0  0  0  0  0
  -28.9440  -16.7870   21.1460 C   0  0  0  0  0  1  0  0  0  0  0  0
  -31.9710  -16.3300   20.8480 C   0  0  0  0  0  2  0  0  0  0  0  0
  -31.4320  -14.2760   19.5380 C   0  0  0  0  0  0  0  0  0  0  0  0
  -30.8700  -12.0550   18.6130 C   0  0  0  0  0  2  0  0  0  0  0  0
  -29.8350  -12.1580   17.4780 C   0  0  0  0  0  2  0  0  0  0  0  0
  -28.4030  -12.1530   18.0450 C   0  0  0  0  0  2  0  0  0  0  0  0
  -28.2180  -13.1650   19.2070 C   0  0  0  0  0  3  0  0  0  0  0  0
  -29.3520  -13.0250   20.2460 C   0  0  0  0  0  2  0  0  0  0  0  0
  -30.6420  -13.1690   19.5460 N   0  0  0  0  0  0  0  0  0  0  0  0
  -32.4140  -14.3940   18.8010 O   0  0  0  0  0  0  0  0  0  0  0  0
  -31.1110  -15.2180   20.4340 N   0  0  0  0  0  0  0  0  0  0  0  0
  -30.2890  -15.0450   20.9910 H   0  0  0  0  0  0  0  0  0  0  0  0
  -25.9960  -14.0170   20.1880 C   0  0  0  0  0  0  0  0  0  0  0  0
  -24.8900  -13.3580   20.6560 C   0  0  0  0  0  0  0  0  0  0  0  0
  -25.1840  -11.9640   20.5410 C   0  0  0  0  0  0  0  0  0  0  0  0
  -26.9000  -13.0320   19.8230 N   0  0  0  0  0  0  0  0  0  0  0  0
  -26.4190  -11.7890   20.0910 N   0  0  0  0  0  0  0  0  0  0  0  0
  -24.3390  -10.7870   20.7810 C   0  0  0  0  0  0  0  0  0  0  0  0
  -24.7230   -9.7750   21.6890 C   0  0  0  0  0  3  0  0  0  0  0  0
  -23.8850   -8.6620   21.9150 C   0  0  0  0  0  3  0  0  0  0  0  0
  -22.6480   -8.5530   21.2360 C   0  0  0  0  0  0  0  0  0  0  0  0
  -22.2820   -9.5530   20.3170 C   0  0  0  0  0  3  0  0  0  0  0  0
  -23.1190  -10.6580   20.0880 C   0  0  0  0  0  3  0  0  0  0  0  0
  -21.7830   -7.4960   21.3740 O   0  0  0  0  0  0  0  0  0  0  0  0
  -21.6720   -6.8060   22.5540 C   0  0  0  0  0  0  0  0  0  0  0  0
  -21.3170   -7.4460   23.7610 C   0  0  0  0  0  3  0  0  0  0  0  0
  -21.1470   -6.6870   24.9370 C   0  0  0  0  0  3  0  0  0  0  0  0
  -21.3210   -5.2900   24.9060 C   0  0  0  0  0  0  0  0  0  0  0  0
  -21.6700   -4.6510   23.7040 C   0  0  0  0  0  3  0  0  0  0  0  0
  -21.8410   -5.4060   22.5310 C   0  0  0  0  0  0  0  0  0  0  0  0
  -22.1560   -4.7820   21.3700 F   0  0  0  0  0  0  0  0  0  0  0  0
  -21.1500   -4.5610   26.0330 F   0  0  0  0  0  0  0  0  0  0  0  0
  -23.5970  -13.9810   21.0930 C   0  0  0  0  0  0  0  0  0  0  0  0
  -22.9040  -13.3560   22.0390 N   0  0  0  0  0  0  0  0  0  0  0  0
  -23.2140  -15.0550   20.6290 O   0  0  0  0  0  0  0  0  0  0  0  0
  -23.2260  -12.4840   22.4330 H   0  0  0  0  0  0  0  0  0  0  0  0
  -22.0370  -13.7540   22.3740 H   0  0  0  0  0  0  0  0  0  0  0  0
  -26.3010  -15.3650   20.0260 N   0  0  0  0  0  0  0  0  0  0  0  0
  -25.6340  -16.1000   20.2320 H   0  0  0  0  0  0  0  0  0  0  0  0
  -27.1540  -15.7110   19.6030 H   0  0  0  0  0  0  0  0  0  0  0  0
  1  7  1  0
  2  1  2  0
  3  1  1  0
  3  6  1  0
  4  5  1  0
  6  9  1  0
  6  4  1  0
  7  5  1  0
  7 50  1  0
  7  8  1  6
  9 11  1  0
 10 21  2  0
 11 16  1  0
 12 20  1  0
 12 22  1  0
 13 19  1  0
 13 15  1  0
 14 20  1  0
 15 14  1  0
 16 15  2  0
 17 18  1  0
 17 11  2  0
 18 13  2  0
 19 12  1  0
 20 10  1  0
 22 24  2  0
 23 22  1  0
 25 23  1  0
 26 35  2  0
 26 31  1  0
 27 23  1  0
 28 27  1  0
 29 30  1  0
 29 28  1  0
 30 26  1  0
 31 27  1  0
 31 32  2  0
 33 32  1  0
 34 33  2  0
 35 34  1  0
 36 10  1  0
 36 41  1  0
 36 37  1  0
 37 40  1  1
 37 38  1  0
 39 37  1  0
 41 44  1  0
 42 46  1  0
 42 41  1  0
 43 42  2  0
 46 45  1  0
 48 46  1  0
 48 49  1  0
 48 47  1  0
 51 53  1  0
 52 56  1  0
 53 57  1  0
 53 56  2  0
 54 52  2  0
 55 51  2  0
 55 54  1  0
 56 50  1  0
 58 54  1  0
 59 55  1  0
 60 66  1  0
 60 68  1  0
 61 66  1  0
 62 63  1  0
 62 61  1  0
 64 63  1  0
 64 73  1  0
 64 65  1  0
 66 65  1  0
 67 60  2  0
 68 59  1  0
 68 69  1  0
 70 71  2  0
 71 90  1  0
 72 71  1  0
 72 75  1  0
 73 74  1  0
 73 70  1  0
 74 72  2  0
 75 76  1  0
 76 77  2  0
 78 81  1  0
 78 77  1  0
 79 78  2  0
 80 79  1  0
 80 75  2  0
 81 82  1  0
 82 83  1  0
 83 84  2  0
 85 84  1  0
 85 89  1  0
 86 85  2  0
 87 82  2  0
 87 86  1  0
 88 87  1  0
 90 91  1  0
 91 94  1  0
 91 93  1  0
 92 90  2  0
 95 70  1  0
 95 96  1  0
 97 95  1  0
M  ISO  4   6 101   9 101  60 100  68 100
M  END
>  <TORSDO>  (12) 
F 19

>  <SCORE>  (12) 
-12.499

>  <name>  (12) 
11

>  <ligand_id>  (12) 
11

>  <original_smiles>  (12) 
[H]C([H])=C1C([H])([H])C([H])(Oc2c([H])c([H])c3c(c2[H])C([H])([H])N(C(=O)C([H])(N([H])C(=O)C([H])(N([H])C([H])([H])[H])C([H])([H])[H])C(C([H])([H])[H])(C([H])([H])[H])C([H])([H])[H])C([H])(C(=O)N([H])C2([H])c4c([H])c([H])c([H])c([H])c4C([H])([H])C([H])([H])C2([H])[H])C3([H])[H])C([H])([H])C([H])([H])[N+]1([H])C([H])([H])c1c([H])c(C([H])([H])[H])c(C([H])([H])N([H])C(=O)N2C([H])([H])C([H])([H])C([H])([H])C([H])(n3nc(-c4c([H])c([H])c(Oc5c([H])c([H])c(F)c([H])c5F)c([H])c4[H])c(C(=O)N([H])[H])c3N([H])[H])C2([H])[H])c([H])c1C([H])([H])[H]

>  <smiles>  (12) 
[H]C([H])=C1C([H])([H])C([H])(Oc2c([H])c([H])c3c(c2[H])C([H])([H])N(C(=O)C([H])(N([H])C(=O)C([H])(N([H])C([H])([H])[H])C([H])([H])[H])C(C([H])([H])[H])(C([H])([H])[H])C([H])([H])[H])C([H])(C(=O)N([H])C2([H])c4c([H])c([H])c([H])c([H])c4C([H])([H])C([H])([H])C2([H])[H])C3([H])[H])C([H])([H])C([H])([H])[N+]1([H])C([H])([H])c1c([H])c(C([H])([H])[H])c(C([H])([H])N([H])C(=O)N2C([H])([H])C([H])([H])C([H])([H])C([H])(n3nc(-c4c([H])c([H])c(Oc5c([H])c([H])c(F)c([H])c5F)c([H])c4[H])c(C(=O)N([H])[H])c3N([H])[H])C2([H])[H])c([H])c1C([H])([H])[H]

$$$$
12:0:0
     RDKit          3D

 99108  0  0  1  0  0  0  0  0999 V2000
  -29.2870  -23.0630   21.2620 C   0  0  0  0  0  0  0  0  0  0  0  0
  -29.5340  -22.9630   22.6010 C   0  0  0  0  0  0  0  0  0  0  0  0
  -29.6240  -24.3880   20.5060 C   0  0  0  0  0  2  0  0  0  0  0  0
  -27.6550  -24.1670   19.1610 C   0  0  0  0  0  2  0  0  0  0  0  0
  -28.3230  -22.0740   20.5030 C   0  0  0  0  0  3  0  0  0  0  0  0
  -28.3090  -25.1680   20.1590 C   0  0  0  0  0  3  0  0  0  0  0  0
  -30.3240  -23.9810   23.4240 C   0  0  0  0  0  1  0  0  0  0  0  0
  -28.9510  -21.8760   23.4950 C   0  0  0  0  0  1  0  0  0  0  0  0
  -25.8850  -22.4000   19.6720 C   0  0  0  0  0  1  0  0  0  0  0  0
  -27.2360  -22.9520   19.9360 N   0  0  2  0  0  4  0  0  0  0  0  0
  -26.9940  -23.4010   20.8100 H   0  0  0  0  0  0  0  0  0  0  0  0
  -29.4620  -19.6650   20.5840 C   0  0  0  0  0  3  0  0  0  0  0  0
  -29.2740  -17.9950   18.8290 C   0  0  0  0  0  3  0  0  0  0  0  0
  -28.7840  -20.6880   19.8070 C   0  0  0  0  0  0  0  0  0  0  0  0
  -29.7100  -18.3180   20.1150 C   0  0  0  0  0  0  0  0  0  0  0  0
  -28.4320  -20.2840   18.4640 C   0  0  0  0  0  0  0  0  0  0  0  0
  -28.6590  -18.9510   18.0190 C   0  0  0  0  0  0  0  0  0  0  0  0
  -27.7940  -21.1880   17.4130 C   0  0  0  0  0  1  0  0  0  0  0  0
  -28.1830  -18.4210   16.4380 Cl  0  0  0  0  0  0  0  0  0  0  0  0
  -30.4840  -17.2030   20.8940 C   0  0  0  0  0  2  0  0  0  0  0  0
  -30.8040  -14.7360   20.1040 C   0  0  0  0  0  0  0  0  0  0  0  0
  -30.5070  -12.5480   18.9410 C   0  0  0  0  0  2  0  0  0  0  0  0
  -29.5000  -12.7200   17.7840 C   0  0  0  0  0  2  0  0  0  0  0  0
  -28.0480  -12.5720   18.2810 C   0  0  0  0  0  2  0  0  0  0  0  0
  -27.7640  -13.3820   19.5760 C   0  0  0  0  0  3  0  0  0  0  0  0
  -28.8780  -13.1780   20.6270 C   0  0  0  0  0  2  0  0  0  0  0  0
  -30.1580  -13.5320   19.9900 N   0  0  0  0  0  0  0  0  0  0  0  0
  -31.9170  -14.9190   19.6010 O   0  0  0  0  0  0  0  0  0  0  0  0
  -30.0990  -15.7640   20.6610 N   0  0  0  0  0  0  0  0  0  0  0  0
  -29.1930  -15.5050   21.0190 H   0  0  0  0  0  0  0  0  0  0  0  0
  -25.4130  -13.9780   20.4240 C   0  0  0  0  0  0  0  0  0  0  0  0
  -24.3600  -13.2010   20.8310 C   0  0  0  0  0  0  0  0  0  0  0  0
  -24.8090  -11.8480   20.7400 C   0  0  0  0  0  0  0  0  0  0  0  0
  -26.4360  -13.0940   20.1150 N   0  0  0  0  0  0  0  0  0  0  0  0
  -26.0800  -11.8050   20.3610 N   0  0  0  0  0  0  0  0  0  0  0  0
  -24.0790  -10.5870   20.9420 C   0  0  0  0  0  0  0  0  0  0  0  0
  -24.5150   -9.6250   21.8780 C   0  0  0  0  0  3  0  0  0  0  0  0
  -23.7880   -8.4290   22.0670 C   0  0  0  0  0  3  0  0  0  0  0  0
  -22.6110   -8.1900   21.3180 C   0  0  0  0  0  0  0  0  0  0  0  0
  -22.1930   -9.1430   20.3740 C   0  0  0  0  0  3  0  0  0  0  0  0
  -22.9210  -10.3300   20.1850 C   0  0  0  0  0  3  0  0  0  0  0  0
  -21.8560   -7.0450   21.4140 O   0  0  0  0  0  0  0  0  0  0  0  0
  -21.7790   -6.3300   22.5820 C   0  0  0  0  0  0  0  0  0  0  0  0
  -21.2790   -6.9010   23.7740 C   0  0  0  0  0  3  0  0  0  0  0  0
  -21.1500   -6.1110   24.9340 C   0  0  0  0  0  3  0  0  0  0  0  0
  -21.5110   -4.7500   24.9030 C   0  0  0  0  0  0  0  0  0  0  0  0
  -22.0040   -4.1790   23.7170 C   0  0  0  0  0  3  0  0  0  0  0  0
  -22.1350   -4.9660   22.5600 C   0  0  0  0  0  0  0  0  0  0  0  0
  -22.5900   -4.4050   21.4140 F   0  0  0  0  0  0  0  0  0  0  0  0
  -21.3820   -3.9910   26.0160 F   0  0  0  0  0  0  0  0  0  0  0  0
  -22.9830  -13.6860   21.1840 C   0  0  0  0  0  0  0  0  0  0  0  0
  -22.2940  -12.9790   22.0750 N   0  0  0  0  0  0  0  0  0  0  0  0
  -22.5260  -14.7250   20.7130 O   0  0  0  0  0  0  0  0  0  0  0  0
  -22.6720  -12.1390   22.4840 H   0  0  0  0  0  0  0  0  0  0  0  0
  -21.3720  -13.2870   22.3480 H   0  0  0  0  0  0  0  0  0  0  0  0
  -25.5710  -15.3520   20.2740 N   0  0  0  0  0  0  0  0  0  0  0  0
  -24.8000  -15.9920   20.4370 H   0  0  0  0  0  0  0  0  0  0  0  0
  -26.3900  -15.8140   19.9020 H   0  0  0  0  0  0  0  0  0  0  0  0
  -28.4350  -26.6110   19.8240 O   0  0  0  0  0  0  0  0  0  0  0  0
  -24.6720  -31.8230   23.1910 C   0  0  0  0  0  0  0  0  0  0  0  0
  -27.2850  -27.4200   19.9070 C   0  0  0  0  0  0  0  0  0  0  0  0
  -23.4420  -30.4330   21.5700 C   0  0  0  0  0  3  0  0  0  0  0  0
  -24.8770  -28.9630   20.0640 C   0  0  0  0  0  0  0  0  0  0  0  0
  -25.9690  -30.8300   21.2920 C   0  0  0  0  0  2  0  0  0  0  0  0
  -26.0650  -29.4770   20.5980 C   0  0  0  0  0  0  0  0  0  0  0  0
  -27.2800  -28.7310   20.4860 C   0  0  0  0  0  3  0  0  0  0  0  0
  -26.0490  -26.9470   19.4120 C   0  0  0  0  0  3  0  0  0  0  0  0
  -24.8700  -27.7030   19.4650 C   0  0  0  0  0  3  0  0  0  0  0  0
  -23.6170  -29.7950   20.1730 C   0  0  0  0  0  2  0  0  0  0  0  0
  -24.7170  -31.0400   22.0730 N   0  0  0  0  0  0  0  0  0  0  0  0
  -23.6010  -32.0540   23.7710 O   0  0  0  0  0  0  0  0  0  0  0  0
  -22.8440  -29.3720   22.5300 C   0  0  0  0  0  0  0  0  0  0  0  0
  -21.5380  -29.0830   22.3820 N   0  0  0  0  0  0  0  0  0  0  0  0
  -23.5580  -28.8050   23.3650 O   0  0  0  0  0  0  0  0  0  0  0  0
  -21.0160  -29.5910   21.6820 H   0  0  0  0  0  0  0  0  0  0  0  0
  -18.2870  -27.5520   22.7850 C   0  0  0  0  0  0  0  0  0  0  0  0
  -20.7920  -28.0900   23.1580 C   0  0  0  0  0  3  0  0  0  0  0  0
  -21.0710  -26.6560   22.6460 C   0  0  0  0  0  2  0  0  0  0  0  0
  -20.0570  -26.1890   21.5950 C   0  0  0  0  0  2  0  0  0  0  0  0
  -18.6340  -26.2090   22.1610 C   0  0  0  0  0  2  0  0  0  0  0  0
  -19.2990  -28.4420   23.2370 C   0  0  0  0  0  0  0  0  0  0  0  0
  -18.9230  -29.6900   23.7800 C   0  0  0  0  0  3  0  0  0  0  0  0
  -17.5680  -30.0570   23.8730 C   0  0  0  0  0  3  0  0  0  0  0  0
  -16.5730  -29.1700   23.4290 C   0  0  0  0  0  3  0  0  0  0  0  0
  -16.9300  -27.9230   22.8900 C   0  0  0  0  0  3  0  0  0  0  0  0
  -25.9610  -32.4810   23.7750 C   0  0  0  0  0  3  0  0  0  0  0  0
  -25.6260  -33.8650   24.1380 N   0  0  0  0  0  0  0  0  0  0  0  0
  -25.9140  -34.9400   23.3910 C   0  0  0  0  0  0  0  0  0  0  0  0
  -26.5620  -34.8660   22.3450 O   0  0  0  0  0  0  0  0  0  0  0  0
  -25.0430  -33.9930   24.9530 H   0  0  0  0  0  0  0  0  0  0  0  0
  -24.1430  -36.7000   23.0970 C   0  0  0  0  0  1  0  0  0  0  0  0
  -25.4040  -36.3080   23.8810 C   0  0  0  0  0  3  0  0  0  0  0  0
  -27.5280  -37.2220   24.7060 C   0  0  0  0  0  1  0  0  0  0  0  0
  -26.4130  -37.3830   23.7750 N   0  0  0  0  0  0  0  0  0  0  0  0
  -25.9880  -38.2920   23.9350 H   0  0  0  0  0  0  0  0  0  0  0  0
  -26.5420  -31.7080   25.0230 C   0  0  1  0  0  0  0  0  0  0  0  0
  -25.4850  -31.4180   26.1140 C   0  0  0  0  0  1  0  0  0  0  0  0
  -27.1590  -30.3570   24.5930 C   0  0  0  0  0  1  0  0  0  0  0  0
  -27.6820  -32.5280   25.6680 C   0  0  0  0  0  1  0  0  0  0  0  0
  1  2  2  0
  2  7  1  0
  2  8  1  0
  3  1  1  0
  4 10  1  0
  4  6  1  0
  5 14  1  0
  5  1  1  0
  6 59  1  0
  6  3  1  0
  9 10  1  0
 10  5  1  0
 10 11  1  1
 13 15  2  0
 14 12  2  0
 15 12  1  0
 15 20  1  0
 16 14  1  0
 17 16  2  0
 17 13  1  0
 18 16  1  0
 19 17  1  0
 21 29  1  0
 22 27  1  0
 23 24  1  0
 23 22  1  0
 25 24  1  0
 25 34  1  0
 25 26  1  0
 27 21  1  0
 27 26  1  0
 28 21  2  0
 29 20  1  0
 29 30  1  0
 31 32  2  0
 32 51  1  0
 33 32  1  0
 33 36  1  0
 34 35  1  0
 34 31  1  0
 35 33  2  0
 36 37  1  0
 37 38  2  0
 39 42  1  0
 39 38  1  0
 40 39  2  0
 41 40  1  0
 41 36  2  0
 42 43  1  0
 43 44  1  0
 44 45  2  0
 46 45  1  0
 46 50  1  0
 47 46  2  0
 48 43  2  0
 48 47  1  0
 49 48  1  0
 51 52  1  0
 52 55  1  0
 52 54  1  0
 53 51  2  0
 56 31  1  0
 56 57  1  0
 58 56  1  0
 59 61  1  0
 60 71  2  0
 61 66  1  0
 62 70  1  0
 62 72  1  0
 63 69  1  0
 63 65  1  0
 64 70  1  0
 65 64  1  0
 66 65  2  0
 67 68  1  0
 67 61  2  0
 68 63  2  0
 69 62  1  0
 70 60  1  0
 72 74  2  0
 73 72  1  0
 75 73  1  0
 76 85  2  0
 76 81  1  0
 77 73  1  0
 77 81  1  0
 78 77  1  0
 79 80  1  0
 79 78  1  0
 80 76  1  0
 81 82  2  0
 82 83  1  0
 84 83  2  0
 85 84  1  0
 86 60  1  0
 86 87  1  0
 86 96  1  0
 87 90  1  0
 88 92  1  0
 88 87  1  0
 89 88  2  0
 92 91  1  0
 94 92  1  0
 94 95  1  0
 94 93  1  0
 96 99  1  1
 96 97  1  0
 98 96  1  0
M  ISO  4   6 101  21 100  29 100  59 101
M  END
>  <TORSDO>  (13) 
F 18

>  <SCORE>  (13) 
-12.939

>  <name>  (13) 
12

>  <ligand_id>  (13) 
12

>  <original_smiles>  (13) 
[H]c1c([H])c([H])c2c(c1[H])C([H])([H])C([H])([H])C([H])([H])C2([H])N([H])C(=O)C1([H])N(C(=O)C([H])(N([H])C(=O)C([H])(N([H])C([H])([H])[H])C([H])([H])[H])C(C([H])([H])[H])(C([H])([H])[H])C([H])([H])[H])C([H])([H])c2c([H])c(OC3([H])C([H])([H])C(=C(C([H])([H])[H])C([H])([H])[H])C([H])(c4c([H])c(C([H])([H])N([H])C(=O)N5C([H])([H])C([H])([H])C([H])([H])C([H])(n6nc(-c7c([H])c([H])c(Oc8c([H])c([H])c(F)c([H])c8F)c([H])c7[H])c(C(=O)N([H])[H])c6N([H])[H])C5([H])[H])c([H])c(Cl)c4C([H])([H])[H])[N+]([H])(C([H])([H])[H])C3([H])[H])c([H])c([H])c2C1([H])[H]

>  <smiles>  (13) 
[H]c1c([H])c([H])c2c(c1[H])C([H])([H])C([H])([H])C([H])([H])C2([H])N([H])C(=O)C1([H])N(C(=O)C([H])(N([H])C(=O)C([H])(N([H])C([H])([H])[H])C([H])([H])[H])C(C([H])([H])[H])(C([H])([H])[H])C([H])([H])[H])C([H])([H])c2c([H])c(OC3([H])C([H])([H])C(=C(C([H])([H])[H])C([H])([H])[H])C([H])(c4c([H])c(C([H])([H])N([H])C(=O)N5C([H])([H])C([H])([H])C([H])([H])C([H])(n6nc(-c7c([H])c([H])c(Oc8c([H])c([H])c(F)c([H])c8F)c([H])c7[H])c(C(=O)N([H])[H])c6N([H])[H])C5([H])[H])c([H])c(Cl)c4C([H])([H])[H])[N+]([H])(C([H])([H])[H])C3([H])[H])c([H])c([H])c2C1([H])[H]

$$$$
13:0:0
     RDKit          3D

 93101  0  0  1  0  0  0  0  0999 V2000
  -28.4320  -22.9500   20.6560 C   0  0  0  0  0  0  0  0  0  0  0  0
  -29.1800  -21.8590   20.9250 N   0  0  0  0  0  0  0  0  0  0  0  0
  -27.2260  -22.8550   20.4200 O   0  0  0  0  0  0  0  0  0  0  0  0
  -30.1590  -22.0020   21.1360 H   0  0  0  0  0  0  0  0  0  0  0  0
  -28.6800  -20.4780   21.0980 C   0  0  0  0  0  2  0  0  0  0  0  0
  -29.3500  -18.0190   20.7820 C   0  0  0  0  0  3  0  0  0  0  0  0
  -30.3070  -19.6900   19.2840 C   0  0  0  0  0  3  0  0  0  0  0  0
  -30.9010  -17.3340   19.0420 C   0  0  0  0  0  3  0  0  0  0  0  0
  -29.4690  -19.3760   20.3730 C   0  0  0  0  0  0  0  0  0  0  0  0
  -30.0760  -16.9780   20.1400 C   0  0  0  0  0  0  0  0  0  0  0  0
  -31.0150  -18.6730   18.6190 C   0  0  0  0  0  0  0  0  0  0  0  0
  -32.0280  -19.0670   17.2750 Cl  0  0  0  0  0  0  0  0  0  0  0  0
  -30.6660  -14.5330   20.2420 C   0  0  0  0  0  0  0  0  0  0  0  0
  -30.3520  -12.3480   19.1610 C   0  0  0  0  0  2  0  0  0  0  0  0
  -29.4060  -12.5650   17.9610 C   0  0  0  0  0  2  0  0  0  0  0  0
  -27.9310  -12.4640   18.3990 C   0  0  0  0  0  2  0  0  0  0  0  0
  -27.6130  -13.2840   19.6790 C   0  0  0  0  0  3  0  0  0  0  0  0
  -28.6860  -13.0650   20.7710 C   0  0  0  0  0  2  0  0  0  0  0  0
  -30.0000  -13.3480   20.1810 N   0  0  0  0  0  0  0  0  0  0  0  0
  -31.8320  -14.6530   19.8550 O   0  0  0  0  0  0  0  0  0  0  0  0
  -29.9140  -15.6130   20.5770 N   0  0  0  0  0  0  0  0  0  0  0  0
  -29.0440  -15.3970   21.0390 H   0  0  0  0  0  0  0  0  0  0  0  0
  -25.2290  -13.8850   20.4400 C   0  0  0  0  0  0  0  0  0  0  0  0
  -24.1660  -13.1110   20.8240 C   0  0  0  0  0  0  0  0  0  0  0  0
  -24.6280  -11.7590   20.7810 C   0  0  0  0  0  0  0  0  0  0  0  0
  -26.2690  -13.0060   20.1830 N   0  0  0  0  0  0  0  0  0  0  0  0
  -25.9130  -11.7210   20.4460 N   0  0  0  0  0  0  0  0  0  0  0  0
  -23.9030  -10.4950   20.9760 C   0  0  0  0  0  0  0  0  0  0  0  0
  -24.3350   -9.5340   21.9160 C   0  0  0  0  0  3  0  0  0  0  0  0
  -23.6100   -8.3360   22.1010 C   0  0  0  0  0  3  0  0  0  0  0  0
  -22.4380   -8.0930   21.3450 C   0  0  0  0  0  0  0  0  0  0  0  0
  -22.0270   -9.0420   20.3940 C   0  0  0  0  0  3  0  0  0  0  0  0
  -22.7540  -10.2290   20.2060 C   0  0  0  0  0  3  0  0  0  0  0  0
  -21.6850   -6.9470   21.4380 O   0  0  0  0  0  0  0  0  0  0  0  0
  -21.6160   -6.2250   22.6020 C   0  0  0  0  0  0  0  0  0  0  0  0
  -21.1680   -6.7990   23.8120 C   0  0  0  0  0  3  0  0  0  0  0  0
  -21.0470   -6.0030   24.9690 C   0  0  0  0  0  3  0  0  0  0  0  0
  -21.3640   -4.6320   24.9170 C   0  0  0  0  0  0  0  0  0  0  0  0
  -21.8070   -4.0580   23.7130 C   0  0  0  0  0  3  0  0  0  0  0  0
  -21.9300   -4.8520   22.5580 C   0  0  0  0  0  0  0  0  0  0  0  0
  -22.3370   -4.2880   21.3960 F   0  0  0  0  0  0  0  0  0  0  0  0
  -21.2400   -3.8650   26.0240 F   0  0  0  0  0  0  0  0  0  0  0  0
  -22.7750  -13.5890   21.1200 C   0  0  0  0  0  0  0  0  0  0  0  0
  -22.0580  -12.8900   21.9940 N   0  0  0  0  0  0  0  0  0  0  0  0
  -22.3320  -14.6180   20.6150 O   0  0  0  0  0  0  0  0  0  0  0  0
  -22.4300  -12.0610   22.4340 H   0  0  0  0  0  0  0  0  0  0  0  0
  -21.1240  -13.1920   22.2300 H   0  0  0  0  0  0  0  0  0  0  0  0
  -25.3910  -15.2560   20.2670 N   0  0  0  0  0  0  0  0  0  0  0  0
  -24.6280  -15.9110   20.4060 H   0  0  0  0  0  0  0  0  0  0  0  0
  -26.2270  -15.6960   19.9080 H   0  0  0  0  0  0  0  0  0  0  0  0
  -29.0970  -24.3510   20.6910 C   0  0  0  0  0  2  0  0  0  0  0  0
  -28.5720  -25.3680   19.6290 C   0  0  0  0  0  2  0  0  0  0  0  0
  -28.4570  -26.7270   20.1250 O   0  0  0  0  0  0  0  0  0  0  0  0
  -24.6090  -31.8770   23.2240 C   0  0  0  0  0  0  0  0  0  0  0  0
  -27.2550  -27.4250   20.1080 C   0  0  0  0  0  0  0  0  0  0  0  0
  -23.4020  -30.4830   21.5800 C   0  0  0  0  0  3  0  0  0  0  0  0
  -24.8540  -28.9560   20.1430 C   0  0  0  0  0  0  0  0  0  0  0  0
  -25.9350  -30.8340   21.3870 C   0  0  0  0  0  2  0  0  0  0  0  0
  -26.0170  -29.4680   20.7310 C   0  0  0  0  0  0  0  0  0  0  0  0
  -27.2150  -28.7120   20.7060 C   0  0  0  0  0  3  0  0  0  0  0  0
  -26.0620  -26.9390   19.5190 C   0  0  0  0  0  3  0  0  0  0  0  0
  -24.8750  -27.6920   19.5360 C   0  0  0  0  0  3  0  0  0  0  0  0
  -23.6110  -29.8150   20.1960 C   0  0  0  0  0  2  0  0  0  0  0  0
  -24.6680  -31.0800   22.1200 N   0  0  0  0  0  0  0  0  0  0  0  0
  -23.5270  -32.1440   23.7660 O   0  0  0  0  0  0  0  0  0  0  0  0
  -22.7530  -29.4550   22.5350 C   0  0  0  0  0  0  0  0  0  0  0  0
  -21.4290  -29.2720   22.4100 N   0  0  0  0  0  0  0  0  0  0  0  0
  -23.4380  -28.8190   23.3400 O   0  0  0  0  0  0  0  0  0  0  0  0
  -20.9340  -29.8330   21.7300 H   0  0  0  0  0  0  0  0  0  0  0  0
  -18.0490  -28.0920   22.9260 C   0  0  0  0  0  0  0  0  0  0  0  0
  -20.6130  -28.3310   23.1780 C   0  0  0  0  0  3  0  0  0  0  0  0
  -20.7010  -26.9050   22.5830 C   0  0  0  0  0  2  0  0  0  0  0  0
  -19.5880  -26.6030   21.5760 C   0  0  0  0  0  2  0  0  0  0  0  0
  -18.2130  -26.7480   22.2330 C   0  0  0  0  0  2  0  0  0  0  0  0
  -19.1770  -28.8420   23.3540 C   0  0  0  0  0  0  0  0  0  0  0  0
  -18.9710  -30.1010   23.9590 C   0  0  0  0  0  3  0  0  0  0  0  0
  -17.6710  -30.6090   24.1380 C   0  0  0  0  0  3  0  0  0  0  0  0
  -16.5590  -29.8550   23.7270 C   0  0  0  0  0  3  0  0  0  0  0  0
  -16.7490  -28.5980   23.1280 C   0  0  0  0  0  3  0  0  0  0  0  0
  -25.8930  -32.5070   23.8460 C   0  0  0  0  0  3  0  0  0  0  0  0
  -26.4150  -31.7330   25.1170 C   0  0  1  0  0  0  0  0  0  0  0  0
  -25.3250  -31.4910   26.1870 C   0  0  0  0  0  1  0  0  0  0  0  0
  -26.9970  -30.3570   24.7190 C   0  0  0  0  0  1  0  0  0  0  0  0
  -27.5630  -32.5290   25.7780 C   0  0  0  0  0  1  0  0  0  0  0  0
  -25.5820  -33.9030   24.1790 N   0  0  0  0  0  0  0  0  0  0  0  0
  -25.9140  -34.9580   23.4220 C   0  0  0  0  0  0  0  0  0  0  0  0
  -26.5830  -34.8590   22.3890 O   0  0  0  0  0  0  0  0  0  0  0  0
  -24.9920  -34.0550   24.9830 H   0  0  0  0  0  0  0  0  0  0  0  0
  -24.1830  -36.7480   23.0750 C   0  0  0  0  0  1  0  0  0  0  0  0
  -25.4260  -36.3450   23.8840 C   0  0  0  0  0  3  0  0  0  0  0  0
  -27.5630  -37.2270   24.7130 C   0  0  0  0  0  1  0  0  0  0  0  0
  -26.4580  -37.3990   23.7730 N   0  0  0  0  0  0  0  0  0  0  0  0
  -26.0510  -38.3190   23.9250 H   0  0  0  0  0  0  0  0  0  0  0  0
  1 51  1  0
  1  2  1  0
  2  5  1  0
  2  4  1  0
  3  1  2  0
  7  9  2  0
  8 10  1  0
  9  6  1  0
  9  5  1  0
 10 21  1  0
 10  6  2  0
 11  8  2  0
 11  7  1  0
 12 11  1  0
 13 21  1  0
 14 19  1  0
 15 16  1  0
 15 14  1  0
 17 16  1  0
 17 26  1  0
 17 18  1  0
 19 13  1  0
 19 18  1  0
 20 13  2  0
 21 22  1  0
 23 24  2  0
 24 43  1  0
 25 24  1  0
 25 28  1  0
 26 23  1  0
 26 27  1  0
 27 25  2  0
 28 29  1  0
 29 30  2  0
 31 34  1  0
 31 30  1  0
 32 31  2  0
 33 32  1  0
 33 28  2  0
 34 35  1  0
 35 36  1  0
 36 37  2  0
 38 37  1  0
 38 42  1  0
 39 38  2  0
 40 35  2  0
 40 39  1  0
 41 40  1  0
 43 44  1  0
 44 47  1  0
 44 46  1  0
 45 43  2  0
 48 49  1  0
 48 23  1  0
 50 48  1  0
 52 53  1  0
 52 51  1  0
 54 65  2  0
 55 53  1  0
 55 60  1  0
 56 64  1  0
 56 66  1  0
 57 63  1  0
 57 59  1  0
 58 64  1  0
 59 58  1  0
 60 59  2  0
 61 62  1  0
 61 55  2  0
 62 57  2  0
 63 56  1  0
 64 54  1  0
 66 68  2  0
 67 66  1  0
 69 67  1  0
 70 79  2  0
 70 75  1  0
 71 67  1  0
 71 75  1  0
 72 71  1  0
 73 74  1  0
 73 72  1  0
 74 70  1  0
 75 76  2  0
 76 77  1  0
 78 77  2  0
 79 78  1  0
 80 54  1  0
 80 85  1  0
 80 81  1  0
 81 84  1  1
 81 82  1  0
 83 81  1  0
 85 88  1  0
 86 90  1  0
 86 85  1  0
 87 86  2  0
 90 89  1  0
 92 90  1  0
 92 93  1  0
 92 91  1  0
M  ISO  4  13 100  21 100  52 101  53 101
M  END
>  <TORSDO>  (14) 
F 20

>  <SCORE>  (14) 
-13.894

>  <name>  (14) 
13

>  <ligand_id>  (14) 
13

>  <original_smiles>  (14) 
[H]c1c([H])c([H])c2c(c1[H])C([H])([H])C([H])([H])C([H])([H])C2([H])N([H])C(=O)C1([H])N(C(=O)C([H])(N([H])C(=O)C([H])(N([H])C([H])([H])[H])C([H])([H])[H])C(C([H])([H])[H])(C([H])([H])[H])C([H])([H])[H])C([H])([H])c2c([H])c(OC([H])([H])C([H])([H])C(=O)N([H])C([H])([H])c3c([H])c(Cl)c([H])c(N([H])C(=O)N4C([H])([H])C([H])([H])C([H])([H])C([H])(n5nc(-c6c([H])c([H])c(Oc7c([H])c([H])c(F)c([H])c7F)c([H])c6[H])c(C(=O)N([H])[H])c5N([H])[H])C4([H])[H])c3[H])c([H])c([H])c2C1([H])[H]

>  <smiles>  (14) 
[H]c1c([H])c([H])c2c(c1[H])C([H])([H])C([H])([H])C([H])([H])C2([H])N([H])C(=O)C1([H])N(C(=O)C([H])(N([H])C(=O)C([H])(N([H])C([H])([H])[H])C([H])([H])[H])C(C([H])([H])[H])(C([H])([H])[H])C([H])([H])[H])C([H])([H])c2c([H])c(OC([H])([H])C([H])([H])C(=O)N([H])C([H])([H])c3c([H])c(Cl)c([H])c(N([H])C(=O)N4C([H])([H])C([H])([H])C([H])([H])C([H])(n5nc(-c6c([H])c([H])c(Oc7c([H])c([H])c(F)c([H])c7F)c([H])c6[H])c(C(=O)N([H])[H])c5N([H])[H])C4([H])[H])c3[H])c([H])c([H])c2C1([H])[H]

$$$$
14:0:0
     RDKit          3D

 96104  0  0  1  0  0  0  0  0999 V2000
  -28.7350  -20.8390   19.8740 C   0  0  0  0  0  0  0  0  0  0  0  0
  -29.2350  -21.9990   19.4240 N   0  0  0  0  0  0  0  0  0  0  0  0
  -27.5320  -20.6690   20.0890 O   0  0  0  0  0  0  0  0  0  0  0  0
  -30.2420  -22.0800   19.3610 H   0  0  0  0  0  0  0  0  0  0  0  0
  -29.9950  -19.4180   21.4700 C   0  0  0  0  0  3  0  0  0  0  0  0
  -30.7770  -18.3090   21.8050 C   0  0  0  0  0  3  0  0  0  0  0  0
  -29.7010  -19.7110   20.1260 C   0  0  0  0  0  0  0  0  0  0  0  0
  -31.2060  -17.4130   20.8130 C   0  0  0  0  0  0  0  0  0  0  0  0
  -30.2090  -18.8630   19.0880 C   0  0  0  0  0  0  0  0  0  0  0  0
  -30.8890  -17.6510   19.4430 C   0  0  0  0  0  0  0  0  0  0  0  0
  -31.9990  -16.2040   21.2880 C   0  0  0  0  0  1  0  0  0  0  0  0
  -29.9830  -19.2780   17.6270 C   0  0  0  0  0  1  0  0  0  0  0  0
  -31.2480  -16.5740   18.4010 C   0  0  0  0  0  2  0  0  0  0  0  0
  -31.3880  -14.0760   18.4580 C   0  0  0  0  0  0  0  0  0  0  0  0
  -31.0890  -11.6250   18.4360 C   0  0  0  0  0  2  0  0  0  0  0  0
  -29.9770  -11.2260   17.4440 C   0  0  0  0  0  2  0  0  0  0  0  0
  -28.5890  -11.2940   18.1100 C   0  0  0  0  0  2  0  0  0  0  0  0
  -28.3580  -12.6250   18.8690 C   0  0  0  0  0  3  0  0  0  0  0  0
  -29.5600  -12.9420   19.7830 C   0  0  0  0  0  2  0  0  0  0  0  0
  -30.7770  -12.9660   18.9520 N   0  0  0  0  0  0  0  0  0  0  0  0
  -32.3650  -14.0380   17.7070 O   0  0  0  0  0  0  0  0  0  0  0  0
  -30.8100  -15.2350   18.7980 N   0  0  0  0  0  0  0  0  0  0  0  0
  -29.9760  -15.1810   19.3620 H   0  0  0  0  0  0  0  0  0  0  0  0
  -26.3670  -13.6640   20.1260 C   0  0  0  0  0  0  0  0  0  0  0  0
  -25.2360  -13.1070   20.6660 C   0  0  0  0  0  0  0  0  0  0  0  0
  -25.3490  -11.6990   20.4470 C   0  0  0  0  0  0  0  0  0  0  0  0
  -27.1010  -12.6060   19.6150 N   0  0  0  0  0  0  0  0  0  0  0  0
  -26.5030  -11.4130   19.8610 N   0  0  0  0  0  0  0  0  0  0  0  0
  -24.3990  -10.6110   20.7090 C   0  0  0  0  0  0  0  0  0  0  0  0
  -24.7200   -9.5420   21.5730 C   0  0  0  0  0  3  0  0  0  0  0  0
  -23.7820   -8.5170   21.8210 C   0  0  0  0  0  3  0  0  0  0  0  0
  -22.5080   -8.5560   21.2060 C   0  0  0  0  0  0  0  0  0  0  0  0
  -22.2040   -9.6110   20.3270 C   0  0  0  0  0  3  0  0  0  0  0  0
  -23.1400  -10.6290   20.0770 C   0  0  0  0  0  3  0  0  0  0  0  0
  -21.5430   -7.5930   21.3660 O   0  0  0  0  0  0  0  0  0  0  0  0
  -21.3960   -6.9110   22.5480 C   0  0  0  0  0  0  0  0  0  0  0  0
  -21.1290   -7.5800   23.7630 C   0  0  0  0  0  3  0  0  0  0  0  0
  -20.9140   -6.8380   24.9420 C   0  0  0  0  0  3  0  0  0  0  0  0
  -20.9580   -5.4310   24.9080 C   0  0  0  0  0  0  0  0  0  0  0  0
  -21.2180   -4.7650   23.6980 C   0  0  0  0  0  3  0  0  0  0  0  0
  -21.4340   -5.5020   22.5220 C   0  0  0  0  0  0  0  0  0  0  0  0
  -21.6620   -4.8550   21.3540 F   0  0  0  0  0  0  0  0  0  0  0  0
  -20.7460   -4.7190   26.0380 F   0  0  0  0  0  0  0  0  0  0  0  0
  -24.0770  -13.8440   21.2680 C   0  0  0  0  0  0  0  0  0  0  0  0
  -23.4250  -13.2540   22.2640 N   0  0  0  0  0  0  0  0  0  0  0  0
  -23.7670  -14.9730   20.8880 O   0  0  0  0  0  0  0  0  0  0  0  0
  -23.6960  -12.3370   22.5890 H   0  0  0  0  0  0  0  0  0  0  0  0
  -22.6500  -13.7260   22.7070 H   0  0  0  0  0  0  0  0  0  0  0  0
  -26.8200  -14.9740   20.0140 N   0  0  0  0  0  0  0  0  0  0  0  0
  -26.2890  -15.7670   20.3550 H   0  0  0  0  0  0  0  0  0  0  0  0
  -27.6990  -15.2460   19.5930 H   0  0  0  0  0  0  0  0  0  0  0  0
  -28.4290  -23.1080   18.9110 C   0  0  0  0  0  2  0  0  0  0  0  0
  -28.2820  -24.5810   21.0060 C   0  0  0  0  0  1  0  0  0  0  0  0
  -28.7870  -24.4680   19.5550 C   0  0  0  0  0  3  0  0  0  0  0  0
  -28.2860  -25.6290   18.6600 C   0  0  0  0  0  2  0  0  0  0  0  0
  -28.2010  -26.8730   19.3650 O   0  0  0  0  0  0  0  0  0  0  0  0
  -24.7120  -31.6750   23.2750 C   0  0  0  0  0  0  0  0  0  0  0  0
  -26.9970  -27.5330   19.5390 C   0  0  0  0  0  0  0  0  0  0  0  0
  -23.3350  -30.4530   21.6210 C   0  0  0  0  0  3  0  0  0  0  0  0
  -24.6260  -29.0400   19.9340 C   0  0  0  0  0  0  0  0  0  0  0  0
  -25.8400  -30.8000   21.2290 C   0  0  0  0  0  2  0  0  0  0  0  0
  -25.8420  -29.4970   20.4560 C   0  0  0  0  0  0  0  0  0  0  0  0
  -27.0230  -28.7490   20.2590 C   0  0  0  0  0  3  0  0  0  0  0  0
  -25.7520  -27.0740   19.0430 C   0  0  0  0  0  3  0  0  0  0  0  0
  -24.5750  -27.8230   19.2310 C   0  0  0  0  0  3  0  0  0  0  0  0
  -23.4080  -29.9070   20.1700 C   0  0  0  0  0  2  0  0  0  0  0  0
  -24.6520  -30.9860   22.0990 N   0  0  0  0  0  0  0  0  0  0  0  0
  -23.6900  -31.9090   23.9330 O   0  0  0  0  0  0  0  0  0  0  0  0
  -22.7520  -29.3500   22.5350 C   0  0  0  0  0  0  0  0  0  0  0  0
  -21.4470  -29.0720   22.3780 N   0  0  0  0  0  0  0  0  0  0  0  0
  -23.4700  -28.7490   23.3410 O   0  0  0  0  0  0  0  0  0  0  0  0
  -20.9210  -29.6200   21.7120 H   0  0  0  0  0  0  0  0  0  0  0  0
  -18.2130  -27.4810   22.6310 C   0  0  0  0  0  0  0  0  0  0  0  0
  -20.6940  -28.0460   23.0970 C   0  0  0  0  0  3  0  0  0  0  0  0
  -21.0100  -26.6340   22.5450 C   0  0  0  0  0  2  0  0  0  0  0  0
  -20.0390  -26.1920   21.4460 C   0  0  0  0  0  2  0  0  0  0  0  0
  -18.6020  -26.1650   21.9750 C   0  0  0  0  0  2  0  0  0  0  0  0
  -19.1980  -28.3730   23.1360 C   0  0  0  0  0  0  0  0  0  0  0  0
  -18.7840  -29.6000   23.6980 C   0  0  0  0  0  3  0  0  0  0  0  0
  -17.4220  -29.9410   23.7550 C   0  0  0  0  0  3  0  0  0  0  0  0
  -16.4520  -29.0480   23.2690 C   0  0  0  0  0  3  0  0  0  0  0  0
  -16.8460  -27.8180   22.7140 C   0  0  0  0  0  3  0  0  0  0  0  0
  -26.0630  -32.2240   23.8320 C   0  0  0  0  0  3  0  0  0  0  0  0
  -25.8180  -33.5940   24.3030 N   0  0  0  0  0  0  0  0  0  0  0  0
  -26.1520  -34.7010   23.6280 C   0  0  0  0  0  0  0  0  0  0  0  0
  -26.7700  -34.6760   22.5600 O   0  0  0  0  0  0  0  0  0  0  0  0
  -25.2680  -33.6940   25.1430 H   0  0  0  0  0  0  0  0  0  0  0  0
  -24.4900  -36.5860   23.5070 C   0  0  0  0  0  1  0  0  0  0  0  0
  -25.7320  -36.0520   24.2350 C   0  0  0  0  0  3  0  0  0  0  0  0
  -27.9230  -36.7680   25.0820 C   0  0  0  0  0  1  0  0  0  0  0  0
  -26.8030  -37.0710   24.1940 N   0  0  0  0  0  0  0  0  0  0  0  0
  -26.4390  -37.9850   24.4490 H   0  0  0  0  0  0  0  0  0  0  0  0
  -26.6680  -31.3350   24.9880 C   0  0  1  0  0  0  0  0  0  0  0  0
  -25.6590  -31.0030   26.1110 C   0  0  0  0  0  1  0  0  0  0  0  0
  -27.2050  -30.0000   24.4190 C   0  0  0  0  0  1  0  0  0  0  0  0
  -27.8730  -32.0600   25.6340 C   0  0  0  0  0  1  0  0  0  0  0  0
  1  3  2  0
  1  7  1  0
  2  1  1  0
  4  2  1  0
  5  6  1  0
  7  5  2  0
  8 11  1  0
  8  6  2  0
  9 10  2  0
  9  7  1  0
 10  8  1  0
 12  9  1  0
 13 22  1  0
 13 10  1  0
 14 22  1  0
 14 20  1  0
 15 20  1  0
 16 17  1  0
 16 15  1  0
 18 17  1  0
 18 27  1  0
 18 19  1  0
 20 19  1  0
 21 14  2  0
 22 23  1  0
 24 25  2  0
 25 44  1  0
 26 25  1  0
 26 29  1  0
 27 28  1  0
 27 24  1  0
 28 26  2  0
 29 30  1  0
 30 31  2  0
 32 35  1  0
 32 31  1  0
 33 32  2  0
 34 33  1  0
 34 29  2  0
 35 36  1  0
 36 37  1  0
 37 38  2  0
 39 38  1  0
 39 43  1  0
 40 39  2  0
 41 36  2  0
 41 40  1  0
 42 41  1  0
 44 45  1  0
 45 47  1  0
 45 48  1  0
 46 44  2  0
 49 24  1  0
 49 50  1  0
 51 49  1  0
 52  2  1  0
 52 54  1  0
 54 53  1  0
 55 56  1  0
 55 54  1  0
 56 58  1  0
 57 68  2  0
 58 63  1  0
 59 67  1  0
 59 69  1  0
 60 66  1  0
 60 62  1  0
 61 67  1  0
 62 61  1  0
 63 62  2  0
 64 65  1  0
 64 58  2  0
 65 60  2  0
 66 59  1  0
 67 57  1  0
 69 71  2  0
 70 69  1  0
 72 70  1  0
 73 82  2  0
 73 78  1  0
 74 70  1  0
 74 78  1  0
 75 74  1  0
 76 77  1  0
 76 75  1  0
 77 73  1  0
 78 79  2  0
 79 80  1  0
 81 80  2  0
 82 81  1  0
 83 57  1  0
 83 84  1  0
 83 93  1  0
 84 87  1  0
 85 89  1  0
 85 84  1  0
 86 85  2  0
 89 88  1  0
 91 89  1  0
 91 92  1  0
 91 90  1  0
 93 96  1  1
 93 94  1  0
 95 93  1  0
M  ISO  4  14 100  22 100  55 101  56 101
M  END
>  <TORSDO>  (15) 
F 21

>  <SCORE>  (15) 
-10.365

>  <name>  (15) 
14

>  <ligand_id>  (15) 
14

>  <original_smiles>  (15) 
[H]c1c([H])c([H])c2c(c1[H])C([H])([H])C([H])([H])C([H])([H])C2([H])N([H])C(=O)C1([H])N(C(=O)C([H])(N([H])C(=O)C([H])(N([H])C([H])([H])[H])C([H])([H])[H])C(C([H])([H])[H])(C([H])([H])[H])C([H])([H])[H])C([H])([H])c2c([H])c(OC([H])([H])C([H])(C([H])([H])[H])C([H])([H])N([H])C(=O)c3c([H])c([H])c(C([H])([H])[H])c(C([H])([H])N([H])C(=O)N4C([H])([H])C([H])([H])C([H])([H])C([H])(n5nc(-c6c([H])c([H])c(Oc7c([H])c([H])c(F)c([H])c7F)c([H])c6[H])c(C(=O)N([H])[H])c5N([H])[H])C4([H])[H])c3C([H])([H])[H])c([H])c([H])c2C1([H])[H]

>  <smiles>  (15) 
[H]c1c([H])c([H])c2c(c1[H])C([H])([H])C([H])([H])C([H])([H])C2([H])N([H])C(=O)C1([H])N(C(=O)C([H])(N([H])C(=O)C([H])(N([H])C([H])([H])[H])C([H])([H])[H])C(C([H])([H])[H])(C([H])([H])[H])C([H])([H])[H])C([H])([H])c2c([H])c(OC([H])([H])C([H])(C([H])([H])[H])C([H])([H])N([H])C(=O)c3c([H])c([H])c(C([H])([H])[H])c(C([H])([H])N([H])C(=O)N4C([H])([H])C([H])([H])C([H])([H])C([H])(n5nc(-c6c([H])c([H])c(Oc7c([H])c([H])c(F)c([H])c7F)c([H])c6[H])c(C(=O)N([H])[H])c5N([H])[H])C4([H])[H])c3C([H])([H])[H])c([H])c([H])c2C1([H])[H]

$$$$
15:0:0
     RDKit          3D

 93101  0  0  1  0  0  0  0  0999 V2000
  -29.1550  -21.0360   20.3860 C   0  0  0  0  0  2  0  0  0  0  0  0
  -29.3110  -20.5150   22.8330 C   0  0  0  0  0  3  0  0  0  0  0  0
  -29.6250  -19.8390   24.0210 C   0  0  0  0  0  3  0  0  0  0  0  0
  -30.1550  -17.8800   22.7280 C   0  0  0  0  0  3  0  0  0  0  0  0
  -29.4520  -19.9480   21.5360 C   0  0  0  0  0  0  0  0  0  0  0  0
  -29.8220  -18.4990   21.4970 C   0  0  0  0  0  0  0  0  0  0  0  0
  -30.0840  -18.5260   23.9650 C   0  0  0  0  0  0  0  0  0  0  0  0
  -30.5610  -17.6980   25.4020 Cl  0  0  0  0  0  0  0  0  0  0  0  0
  -29.9840  -17.4360   20.3170 C   0  0  0  0  0  2  0  0  0  0  0  0
  -30.5910  -14.7990   20.4340 C   0  0  0  0  0  0  0  0  0  0  0  0
  -30.4420  -12.4940   19.4670 C   0  0  0  0  0  2  0  0  0  0  0  0
  -29.5200  -12.5400   18.2280 C   0  0  0  0  0  2  0  0  0  0  0  0
  -28.0390  -12.3720   18.6270 C   0  0  0  0  0  2  0  0  0  0  0  0
  -27.6420  -13.2470   19.8450 C   0  0  0  0  0  3  0  0  0  0  0  0
  -28.6900  -13.1910   20.9800 C   0  0  0  0  0  2  0  0  0  0  0  0
  -29.9890  -13.5550   20.3990 N   0  0  0  0  0  0  0  0  0  0  0  0
  -31.7780  -14.9060   20.1150 O   0  0  0  0  0  0  0  0  0  0  0  0
  -29.7870  -15.9240   20.6070 N   0  0  0  0  0  0  0  0  0  0  0  0
  -28.8350  -15.6930   20.8440 H   0  0  0  0  0  0  0  0  0  0  0  0
  -25.2500  -13.8210   20.5670 C   0  0  0  0  0  0  0  0  0  0  0  0
  -24.1810  -13.0460   20.9200 C   0  0  0  0  0  0  0  0  0  0  0  0
  -24.6440  -11.6940   20.8720 C   0  0  0  0  0  0  0  0  0  0  0  0
  -26.2960  -12.9470   20.3220 N   0  0  0  0  0  0  0  0  0  0  0  0
  -25.9370  -11.6610   20.5690 N   0  0  0  0  0  0  0  0  0  0  0  0
  -23.9110  -10.4320   21.0350 C   0  0  0  0  0  0  0  0  0  0  0  0
  -24.3640   -9.4210   21.9120 C   0  0  0  0  0  3  0  0  0  0  0  0
  -23.6310   -8.2250   22.0720 C   0  0  0  0  0  3  0  0  0  0  0  0
  -22.4280   -8.0290   21.3530 C   0  0  0  0  0  0  0  0  0  0  0  0
  -21.9930   -9.0260   20.4600 C   0  0  0  0  0  3  0  0  0  0  0  0
  -22.7270  -10.2140   20.2980 C   0  0  0  0  0  3  0  0  0  0  0  0
  -21.6660   -6.8880   21.4220 O   0  0  0  0  0  0  0  0  0  0  0  0
  -21.6870   -6.0720   22.5250 C   0  0  0  0  0  0  0  0  0  0  0  0
  -21.4040   -6.5620   23.8180 C   0  0  0  0  0  3  0  0  0  0  0  0
  -21.3670   -5.6760   24.9140 C   0  0  0  0  0  3  0  0  0  0  0  0
  -21.6050   -4.3030   24.7180 C   0  0  0  0  0  0  0  0  0  0  0  0
  -21.8840   -3.8140   23.4300 C   0  0  0  0  0  3  0  0  0  0  0  0
  -21.9220   -4.6960   22.3370 C   0  0  0  0  0  0  0  0  0  0  0  0
  -22.1670   -4.2160   21.0940 F   0  0  0  0  0  0  0  0  0  0  0  0
  -21.5640   -3.4500   25.7690 F   0  0  0  0  0  0  0  0  0  0  0  0
  -22.7820  -13.5210   21.1870 C   0  0  0  0  0  0  0  0  0  0  0  0
  -22.0510  -12.8180   22.0420 N   0  0  0  0  0  0  0  0  0  0  0  0
  -22.3470  -14.5500   20.6680 O   0  0  0  0  0  0  0  0  0  0  0  0
  -22.4190  -11.9900   22.4850 H   0  0  0  0  0  0  0  0  0  0  0  0
  -21.1080  -13.1090   22.2550 H   0  0  0  0  0  0  0  0  0  0  0  0
  -25.4170  -15.1940   20.4060 N   0  0  0  0  0  0  0  0  0  0  0  0
  -24.6500  -15.8480   20.5020 H   0  0  0  0  0  0  0  0  0  0  0  0
  -26.2520  -15.6320   20.0410 H   0  0  0  0  0  0  0  0  0  0  0  0
  -28.4160  -23.6110   20.2290 C   0  0  0  0  0  0  0  0  0  0  0  0
  -30.5060  -22.9610   21.3290 C   0  0  0  0  0  1  0  0  0  0  0  0
  -29.2470  -22.5690   20.6820 N   0  0  0  0  0  0  0  0  0  0  0  0
  -27.6160  -23.3870   19.3150 O   0  0  0  0  0  0  0  0  0  0  0  0
  -28.3380  -25.0870   20.9160 C   0  0  0  0  0  2  0  0  0  0  0  0
  -28.3310  -26.3540   20.0920 O   0  0  0  0  0  0  0  0  0  0  0  0
  -24.6370  -31.8490   23.1920 C   0  0  0  0  0  0  0  0  0  0  0  0
  -27.2320  -27.2440   20.1370 C   0  0  0  0  0  0  0  0  0  0  0  0
  -23.4380  -30.4700   21.5340 C   0  0  0  0  0  3  0  0  0  0  0  0
  -24.8880  -28.9110   20.1090 C   0  0  0  0  0  0  0  0  0  0  0  0
  -25.9890  -30.7630   21.3720 C   0  0  0  0  0  2  0  0  0  0  0  0
  -26.0630  -29.3830   20.7130 C   0  0  0  0  0  0  0  0  0  0  0  0
  -27.2440  -28.5700   20.6930 C   0  0  0  0  0  3  0  0  0  0  0  0
  -26.0310  -26.8340   19.5220 C   0  0  0  0  0  3  0  0  0  0  0  0
  -24.8790  -27.6480   19.4970 C   0  0  0  0  0  3  0  0  0  0  0  0
  -23.6590  -29.7990   20.1540 C   0  0  0  0  0  2  0  0  0  0  0  0
  -24.7070  -31.0440   22.0880 N   0  0  0  0  0  0  0  0  0  0  0  0
  -23.5530  -32.1290   23.7220 O   0  0  0  0  0  0  0  0  0  0  0  0
  -22.7540  -29.4540   22.4810 C   0  0  0  0  0  0  0  0  0  0  0  0
  -21.4230  -29.3060   22.3610 N   0  0  0  0  0  0  0  0  0  0  0  0
  -23.4210  -28.8080   23.2930 O   0  0  0  0  0  0  0  0  0  0  0  0
  -20.9380  -29.8740   21.6790 H   0  0  0  0  0  0  0  0  0  0  0  0
  -18.0320  -28.1430   22.8460 C   0  0  0  0  0  0  0  0  0  0  0  0
  -20.5940  -28.3730   23.1260 C   0  0  0  0  0  3  0  0  0  0  0  0
  -20.6800  -26.9420   22.5420 C   0  0  0  0  0  2  0  0  0  0  0  0
  -19.5780  -26.6380   21.5220 C   0  0  0  0  0  2  0  0  0  0  0  0
  -18.1950  -26.7970   22.1620 C   0  0  0  0  0  2  0  0  0  0  0  0
  -19.1570  -28.8890   23.2850 C   0  0  0  0  0  0  0  0  0  0  0  0
  -18.9490  -30.1500   23.8870 C   0  0  0  0  0  3  0  0  0  0  0  0
  -17.6480  -30.6610   24.0580 C   0  0  0  0  0  3  0  0  0  0  0  0
  -16.5370  -29.9100   23.6350 C   0  0  0  0  0  3  0  0  0  0  0  0
  -16.7310  -28.6550   23.0330 C   0  0  0  0  0  3  0  0  0  0  0  0
  -25.9180  -32.4720   23.8270 C   0  0  0  0  0  3  0  0  0  0  0  0
  -26.4530  -31.6590   25.0700 C   0  0  1  0  0  0  0  0  0  0  0  0
  -25.3720  -31.3790   26.1410 C   0  0  0  0  0  1  0  0  0  0  0  0
  -27.0440  -30.3000   24.6270 C   0  0  0  0  0  1  0  0  0  0  0  0
  -27.6060  -32.4360   25.7500 C   0  0  0  0  0  1  0  0  0  0  0  0
  -25.5960  -33.8510   24.2160 N   0  0  0  0  0  0  0  0  0  0  0  0
  -25.9080  -34.9390   23.5010 C   0  0  0  0  0  0  0  0  0  0  0  0
  -26.5660  -34.8880   22.4580 O   0  0  0  0  0  0  0  0  0  0  0  0
  -25.0140  -33.9640   25.0340 H   0  0  0  0  0  0  0  0  0  0  0  0
  -24.1510  -36.7270   23.2640 C   0  0  0  0  0  1  0  0  0  0  0  0
  -25.4140  -36.3010   24.0290 C   0  0  0  0  0  3  0  0  0  0  0  0
  -27.5570  -37.1780   24.8430 C   0  0  0  0  0  1  0  0  0  0  0  0
  -26.4290  -37.3730   23.9380 N   0  0  0  0  0  0  0  0  0  0  0  0
  -26.0120  -38.2770   24.1450 H   0  0  0  0  0  0  0  0  0  0  0  0
  1 50  1  0
  1  5  1  0
  2  3  1  0
  4  7  1  0
  5  2  2  0
  6  5  1  0
  6  4  2  0
  7  3  2  0
  7  8  1  0
  9 18  1  0
  9  6  1  0
 10 18  1  0
 11 16  1  0
 12 13  1  0
 12 11  1  0
 14 13  1  0
 14 23  1  0
 14 15  1  0
 16 10  1  0
 16 15  1  0
 17 10  2  0
 18 19  1  0
 20 21  2  0
 21 40  1  0
 22 21  1  0
 22 25  1  0
 23 20  1  0
 23 24  1  0
 24 22  2  0
 25 26  1  0
 26 27  2  0
 28 31  1  0
 28 27  1  0
 29 28  2  0
 30 29  1  0
 30 25  2  0
 31 32  1  0
 32 33  1  0
 33 34  2  0
 35 34  1  0
 35 39  1  0
 36 35  2  0
 37 32  2  0
 37 36  1  0
 38 37  1  0
 40 41  1  0
 41 44  1  0
 41 43  1  0
 42 40  2  0
 45 46  1  0
 45 20  1  0
 47 45  1  0
 48 50  1  0
 48 52  1  0
 50 49  1  0
 51 48  2  0
 53 55  1  0
 53 52  1  0
 54 65  2  0
 55 60  1  0
 56 64  1  0
 56 66  1  0
 57 63  1  0
 57 59  1  0
 58 64  1  0
 59 58  1  0
 60 59  2  0
 61 55  2  0
 62 61  1  0
 62 57  2  0
 63 56  1  0
 64 54  1  0
 66 68  2  0
 67 66  1  0
 69 67  1  0
 70 79  2  0
 70 75  1  0
 71 67  1  0
 71 75  1  0
 72 71  1  0
 73 74  1  0
 73 72  1  0
 74 70  1  0
 75 76  2  0
 76 77  1  0
 78 77  2  0
 79 78  1  0
 80 54  1  0
 80 85  1  0
 80 81  1  0
 81 84  1  1
 81 82  1  0
 83 81  1  0
 85 88  1  0
 86 90  1  0
 86 85  1  0
 87 86  2  0
 90 89  1  0
 92 90  1  0
 92 93  1  0
 92 91  1  0
M  ISO  4  10 100  18 100  52 101  53 101
M  END
>  <TORSDO>  (16) 
F 20

>  <SCORE>  (16) 
-6.250

>  <name>  (16) 
15

>  <ligand_id>  (16) 
15

>  <original_smiles>  (16) 
[H]c1c([H])c([H])c2c(c1[H])C([H])([H])C([H])([H])C([H])([H])C2([H])N([H])C(=O)C1([H])N(C(=O)C([H])(N([H])C(=O)C([H])(N([H])C([H])([H])[H])C([H])([H])[H])C(C([H])([H])[H])(C([H])([H])[H])C([H])([H])[H])C([H])([H])c2c([H])c(OC([H])([H])C(=O)N(C([H])([H])[H])C([H])([H])c3c([H])c([H])c(Cl)c([H])c3C([H])([H])N([H])C(=O)N3C([H])([H])C([H])([H])C([H])([H])C([H])(n4nc(-c5c([H])c([H])c(Oc6c([H])c([H])c(F)c([H])c6F)c([H])c5[H])c(C(=O)N([H])[H])c4N([H])[H])C3([H])[H])c([H])c([H])c2C1([H])[H]

>  <smiles>  (16) 
[H]c1c([H])c([H])c2c(c1[H])C([H])([H])C([H])([H])C([H])([H])C2([H])N([H])C(=O)C1([H])N(C(=O)C([H])(N([H])C(=O)C([H])(N([H])C([H])([H])[H])C([H])([H])[H])C(C([H])([H])[H])(C([H])([H])[H])C([H])([H])[H])C([H])([H])c2c([H])c(OC([H])([H])C(=O)N(C([H])([H])[H])C([H])([H])c3c([H])c([H])c(Cl)c([H])c3C([H])([H])N([H])C(=O)N3C([H])([H])C([H])([H])C([H])([H])C([H])(n4nc(-c5c([H])c([H])c(Oc6c([H])c([H])c(F)c([H])c6F)c([H])c5[H])c(C(=O)N([H])[H])c4N([H])[H])C3([H])[H])c([H])c([H])c2C1([H])[H]

$$$$
16:0:0
     RDKit          3D

 97106  0  0  1  0  0  0  0  0999 V2000
  -28.5900  -21.1220   20.7170 C   0  0  0  0  0  2  0  0  0  0  0  0
  -30.7110  -23.8410   18.9480 C   0  0  0  0  0  2  0  0  0  0  0  0
  -30.1850  -25.1660   19.5310 C   0  0  0  0  0  2  0  0  0  0  0  0
  -30.4010  -22.6330   19.8560 C   0  0  0  0  0  2  0  0  0  0  0  0
  -28.3400  -23.7880   20.6160 C   0  0  0  0  0  2  0  0  0  0  0  0
  -28.6700  -25.1620   19.8130 C   0  0  0  0  0  3  0  0  0  0  0  0
  -28.9390  -22.4740   20.0480 N   0  0  2  0  0  4  0  0  0  0  0  0
  -28.5440  -22.3850   19.1200 H   0  0  0  0  0  0  0  0  0  0  0  0
  -28.4810  -26.5250   20.4140 O   0  0  0  0  0  0  0  0  0  0  0  0
  -24.6390  -31.9490   23.2580 C   0  0  0  0  0  0  0  0  0  0  0  0
  -27.3380  -27.3450   20.2960 C   0  0  0  0  0  0  0  0  0  0  0  0
  -23.4730  -30.5170   21.6170 C   0  0  0  0  0  3  0  0  0  0  0  0
  -24.9580  -28.9570   20.2290 C   0  0  0  0  0  0  0  0  0  0  0  0
  -26.0110  -30.8500   21.4690 C   0  0  0  0  0  2  0  0  0  0  0  0
  -26.1140  -29.4610   20.8390 C   0  0  0  0  0  0  0  0  0  0  0  0
  -27.3000  -28.6650   20.8620 C   0  0  0  0  0  3  0  0  0  0  0  0
  -26.1580  -26.8970   19.6660 C   0  0  0  0  0  3  0  0  0  0  0  0
  -24.9860  -27.6830   19.6340 C   0  0  0  0  0  3  0  0  0  0  0  0
  -23.7140  -29.8230   20.2500 C   0  0  0  0  0  2  0  0  0  0  0  0
  -24.7260  -31.1250   22.1710 N   0  0  0  0  0  0  0  0  0  0  0  0
  -23.5450  -32.2240   23.7740 O   0  0  0  0  0  0  0  0  0  0  0  0
  -22.8060  -29.5080   22.5840 C   0  0  0  0  0  0  0  0  0  0  0  0
  -21.4830  -29.3180   22.4430 N   0  0  0  0  0  0  0  0  0  0  0  0
  -23.4790  -28.8980   23.4200 O   0  0  0  0  0  0  0  0  0  0  0  0
  -20.9980  -29.8640   21.7440 H   0  0  0  0  0  0  0  0  0  0  0  0
  -18.1040  -28.1270   22.9480 C   0  0  0  0  0  0  0  0  0  0  0  0
  -20.6640  -28.3820   23.2140 C   0  0  0  0  0  3  0  0  0  0  0  0
  -20.7630  -26.9500   22.6380 C   0  0  0  0  0  2  0  0  0  0  0  0
  -19.6600  -26.6300   21.6230 C   0  0  0  0  0  2  0  0  0  0  0  0
  -18.2790  -26.7770   22.2680 C   0  0  0  0  0  2  0  0  0  0  0  0
  -19.2250  -28.8860   23.3770 C   0  0  0  0  0  0  0  0  0  0  0  0
  -19.0110  -30.1480   23.9710 C   0  0  0  0  0  3  0  0  0  0  0  0
  -17.7080  -30.6520   24.1410 C   0  0  0  0  0  3  0  0  0  0  0  0
  -16.6010  -29.8900   23.7280 C   0  0  0  0  0  3  0  0  0  0  0  0
  -16.8000  -28.6290   23.1370 C   0  0  0  0  0  3  0  0  0  0  0  0
  -25.9060  -32.6040   23.8900 C   0  0  0  0  0  3  0  0  0  0  0  0
  -26.4070  -31.8610   25.1900 C   0  0  1  0  0  0  0  0  0  0  0  0
  -25.2950  -31.6230   26.2370 C   0  0  0  0  0  1  0  0  0  0  0  0
  -27.0200  -30.4870   24.8350 C   0  0  0  0  0  1  0  0  0  0  0  0
  -27.5320  -32.6830   25.8630 C   0  0  0  0  0  1  0  0  0  0  0  0
  -25.5790  -34.0050   24.1940 N   0  0  0  0  0  0  0  0  0  0  0  0
  -25.9100  -35.0500   23.4220 C   0  0  0  0  0  0  0  0  0  0  0  0
  -26.5940  -34.9360   22.4020 O   0  0  0  0  0  0  0  0  0  0  0  0
  -24.9720  -34.1670   24.9840 H   0  0  0  0  0  0  0  0  0  0  0  0
  -24.1850  -36.8340   23.0070 C   0  0  0  0  0  1  0  0  0  0  0  0
  -25.4060  -36.4410   23.8540 C   0  0  0  0  0  3  0  0  0  0  0  0
  -27.5060  -37.3550   24.7390 C   0  0  0  0  0  1  0  0  0  0  0  0
  -26.4360  -37.4980   23.7560 N   0  0  0  0  0  0  0  0  0  0  0  0
  -26.0190  -38.4180   23.8720 H   0  0  0  0  0  0  0  0  0  0  0  0
  -28.5460  -18.2350   18.0160 C   0  0  0  0  0  3  0  0  0  0  0  0
  -29.0870  -17.1240   18.6890 C   0  0  0  0  0  3  0  0  0  0  0  0
  -29.3140  -18.5140   20.6640 C   0  0  0  0  0  3  0  0  0  0  0  0
  -28.3470  -19.4920   18.6400 C   0  0  0  0  0  0  0  0  0  0  0  0
  -28.7960  -19.7010   19.9820 C   0  0  0  0  0  0  0  0  0  0  0  0
  -29.4500  -17.1990   20.0480 C   0  0  0  0  0  0  0  0  0  0  0  0
  -30.5290  -14.8460   20.3170 C   0  0  0  0  0  0  0  0  0  0  0  0
  -30.3850  -12.5790   19.2840 C   0  0  0  0  0  2  0  0  0  0  0  0
  -29.4230  -12.6710   18.0770 C   0  0  0  0  0  2  0  0  0  0  0  0
  -27.9650  -12.4540   18.5260 C   0  0  0  0  0  2  0  0  0  0  0  0
  -27.5980  -13.2930   19.7800 C   0  0  0  0  0  3  0  0  0  0  0  0
  -28.6780  -13.1940   20.8810 C   0  0  0  0  0  2  0  0  0  0  0  0
  -29.9590  -13.5910   20.2810 N   0  0  0  0  0  0  0  0  0  0  0  0
  -31.6700  -15.0120   19.8750 O   0  0  0  0  0  0  0  0  0  0  0  0
  -29.7640  -15.9250   20.7430 N   0  0  0  0  0  0  0  0  0  0  0  0
  -29.0630  -15.6600   21.4200 H   0  0  0  0  0  0  0  0  0  0  0  0
  -25.2090  -13.7990   20.5630 C   0  0  0  0  0  0  0  0  0  0  0  0
  -24.1750  -12.9860   20.9370 C   0  0  0  0  0  0  0  0  0  0  0  0
  -24.6760  -11.6500   20.8690 C   0  0  0  0  0  0  0  0  0  0  0  0
  -26.2720  -12.9550   20.2870 N   0  0  0  0  0  0  0  0  0  0  0  0
  -25.9600  -11.6560   20.5310 N   0  0  0  0  0  0  0  0  0  0  0  0
  -23.9910  -10.3630   21.0450 C   0  0  0  0  0  0  0  0  0  0  0  0
  -24.4270   -9.4170   21.9980 C   0  0  0  0  0  3  0  0  0  0  0  0
  -23.7390   -8.1960   22.1640 C   0  0  0  0  0  3  0  0  0  0  0  0
  -22.5990   -7.9100   21.3730 C   0  0  0  0  0  0  0  0  0  0  0  0
  -22.1830   -8.8440   20.4080 C   0  0  0  0  0  3  0  0  0  0  0  0
  -22.8740  -10.0580   20.2420 C   0  0  0  0  0  3  0  0  0  0  0  0
  -21.8850   -6.7390   21.4440 O   0  0  0  0  0  0  0  0  0  0  0  0
  -21.7700   -6.0360   22.6160 C   0  0  0  0  0  0  0  0  0  0  0  0
  -21.1420   -6.5840   23.7560 C   0  0  0  0  0  3  0  0  0  0  0  0
  -20.9890   -5.8020   24.9180 C   0  0  0  0  0  3  0  0  0  0  0  0
  -21.4490   -4.4700   24.9390 C   0  0  0  0  0  0  0  0  0  0  0  0
  -22.0670   -3.9220   23.8010 C   0  0  0  0  0  3  0  0  0  0  0  0
  -22.2250   -4.7020   22.6420 C   0  0  0  0  0  0  0  0  0  0  0  0
  -22.8040   -4.1620   21.5430 F   0  0  0  0  0  0  0  0  0  0  0  0
  -21.2920   -3.7150   26.0500 F   0  0  0  0  0  0  0  0  0  0  0  0
  -22.7700  -13.4150   21.2500 C   0  0  0  0  0  0  0  0  0  0  0  0
  -22.0800  -12.6760   22.1100 N   0  0  0  0  0  0  0  0  0  0  0  0
  -22.2940  -14.4420   20.7670 O   0  0  0  0  0  0  0  0  0  0  0  0
  -22.4790  -11.8460   22.5230 H   0  0  0  0  0  0  0  0  0  0  0  0
  -21.1390  -12.9430   22.3620 H   0  0  0  0  0  0  0  0  0  0  0  0
  -25.3290  -15.1770   20.4100 N   0  0  0  0  0  0  0  0  0  0  0  0
  -24.5360  -15.8020   20.5110 H   0  0  0  0  0  0  0  0  0  0  0  0
  -26.1610  -15.6430   20.0710 H   0  0  0  0  0  0  0  0  0  0  0  0
  -27.6200  -20.5710   17.8250 C   0  0  1  0  0  0  0  0  0  0  0  0
  -26.9230  -20.0550   16.8130 F   0  0  0  0  0  0  0  0  0  0  0  0
  -26.7690  -21.2570   18.5850 F   0  0  0  0  0  0  0  0  0  0  0  0
  -28.5060  -21.4230   17.3200 F   0  0  0  0  0  0  0  0  0  0  0  0
  2  3  1  0
  2  4  1  0
  3  6  1  0
  4  7  1  0
  6  9  1  0
  6  5  1  0
  7  5  1  0
  7  1  1  0
  7  8  1  6
 10 21  2  0
 11  9  1  0
 11 16  1  0
 12 20  1  0
 12 22  1  0
 13 19  1  0
 13 15  1  0
 14 20  1  0
 15 16  2  0
 15 14  1  0
 17 11  2  0
 18 17  1  0
 18 13  2  0
 19 12  1  0
 20 10  1  0
 22 24  2  0
 23 22  1  0
 25 23  1  0
 26 35  2  0
 26 31  1  0
 27 23  1  0
 27 31  1  0
 28 27  1  0
 29 30  1  0
 29 28  1  0
 30 26  1  0
 31 32  2  0
 32 33  1  0
 34 33  2  0
 35 34  1  0
 36 10  1  0
 36 41  1  0
 36 37  1  0
 37 40  1  1
 37 38  1  0
 39 37  1  0
 41 44  1  0
 42 46  1  0
 42 41  1  0
 43 42  2  0
 46 45  1  0
 48 46  1  0
 48 49  1  0
 48 47  1  0
 50 53  2  0
 50 51  1  0
 51 55  2  0
 53 54  1  0
 54 52  2  0
 54  1  1  0
 55 52  1  0
 55 64  1  0
 56 64  1  0
 57 62  1  0
 58 59  1  0
 58 57  1  0
 60 59  1  0
 60 69  1  0
 60 61  1  0
 62 56  1  0
 62 61  1  0
 63 56  2  0
 64 65  1  0
 66 67  2  0
 67 86  1  0
 68 67  1  0
 68 71  1  0
 69 70  1  0
 69 66  1  0
 70 68  2  0
 71 72  1  0
 72 73  2  0
 74 77  1  0
 74 73  1  0
 75 74  2  0
 76 75  1  0
 76 71  2  0
 77 78  1  0
 78 83  2  0
 78 79  1  0
 79 80  2  0
 80 81  1  0
 81 85  1  0
 82 81  2  0
 83 82  1  0
 84 83  1  0
 86 87  1  0
 87 90  1  0
 87 89  1  0
 88 86  2  0
 91 92  1  0
 91 66  1  0
 93 91  1  0
 94 96  1  1
 94 53  1  0
 95 94  1  0
 97 94  1  0
M  ISO  4   6 101   9 101  56 100  64 100
M  END
>  <TORSDO>  (17) 
F 19

>  <SCORE>  (17) 
-14.783

>  <name>  (17) 
16

>  <ligand_id>  (17) 
16

>  <original_smiles>  (17) 
[H]c1c([H])c([H])c2c(c1[H])C([H])([H])C([H])([H])C([H])([H])C2([H])N([H])C(=O)C1([H])N(C(=O)C([H])(N([H])C(=O)C([H])(N([H])C([H])([H])[H])C([H])([H])[H])C(C([H])([H])[H])(C([H])([H])[H])C([H])([H])[H])C([H])([H])c2c([H])c(OC3([H])C([H])([H])C([H])([H])C([H])([H])[N+]([H])(C([H])([H])c4c([H])c(N([H])C(=O)N5C([H])([H])C([H])([H])C([H])([H])C([H])(n6nc(-c7c([H])c([H])c(Oc8c([H])c([H])c(F)c([H])c8F)c([H])c7[H])c(C(=O)N([H])[H])c6N([H])[H])C5([H])[H])c([H])c([H])c4C(F)(F)F)C3([H])[H])c([H])c([H])c2C1([H])[H]

>  <smiles>  (17) 
[H]c1c([H])c([H])c2c(c1[H])C([H])([H])C([H])([H])C([H])([H])C2([H])N([H])C(=O)C1([H])N(C(=O)C([H])(N([H])C(=O)C([H])(N([H])C([H])([H])[H])C([H])([H])[H])C(C([H])([H])[H])(C([H])([H])[H])C([H])([H])[H])C([H])([H])c2c([H])c(OC3([H])C([H])([H])C([H])([H])C([H])([H])[N+]([H])(C([H])([H])c4c([H])c(N([H])C(=O)N5C([H])([H])C([H])([H])C([H])([H])C([H])(n6nc(-c7c([H])c([H])c(Oc8c([H])c([H])c(F)c([H])c8F)c([H])c7[H])c(C(=O)N([H])[H])c6N([H])[H])C5([H])[H])c([H])c([H])c4C(F)(F)F)C3([H])[H])c([H])c([H])c2C1([H])[H]

$$$$
17:0:0
     RDKit          3D

 95104  0  0  1  0  0  0  0  0999 V2000
  -29.4420  -22.8650   20.6740 C   0  0  0  0  0  0  0  0  0  0  0  0
  -28.8980  -22.8350   17.8010 C   0  0  0  0  0  2  0  0  0  0  0  0
  -28.8720  -24.1590   18.6090 C   0  0  0  0  0  2  0  0  0  0  0  0
  -28.9170  -21.5680   18.6890 C   0  0  0  0  0  2  0  0  0  0  0  0
  -28.4420  -23.9210   20.0760 C   0  0  0  0  0  3  0  0  0  0  0  0
  -29.7270  -21.7760   19.8930 N   0  0  0  0  0  0  0  0  0  0  0  0
  -29.9900  -23.0550   21.7650 O   0  0  0  0  0  0  0  0  0  0  0  0
  -30.9450  -20.9210   19.9750 C   0  0  0  0  0  2  0  0  0  0  0  0
  -30.9100  -19.6240   22.1370 C   0  0  0  0  0  3  0  0  0  0  0  0
  -30.9460  -18.4370   22.8860 C   0  0  0  0  0  3  0  0  0  0  0  0
  -30.7840  -18.3040   20.0880 C   0  0  0  0  0  3  0  0  0  0  0  0
  -30.8520  -19.5800   20.7350 C   0  0  0  0  0  0  0  0  0  0  0  0
  -30.9120  -17.1770   22.2520 C   0  0  0  0  0  0  0  0  0  0  0  0
  -30.8020  -17.0850   20.8420 C   0  0  0  0  0  0  0  0  0  0  0  0
  -30.9880  -15.9340   23.1230 C   0  0  0  0  0  1  0  0  0  0  0  0
  -31.2400  -14.7330   19.9260 C   0  0  0  0  0  0  0  0  0  0  0  0
  -30.8620  -12.5460   18.8030 C   0  0  0  0  0  2  0  0  0  0  0  0
  -29.8570  -12.7190   17.6420 C   0  0  0  0  0  2  0  0  0  0  0  0
  -28.4020  -12.6280   18.1470 C   0  0  0  0  0  2  0  0  0  0  0  0
  -28.1490  -13.5110   19.3990 C   0  0  0  0  0  3  0  0  0  0  0  0
  -29.2500  -13.2760   20.4580 C   0  0  0  0  0  2  0  0  0  0  0  0
  -30.5450  -13.5590   19.8230 N   0  0  0  0  0  0  0  0  0  0  0  0
  -32.3920  -14.8580   19.5040 O   0  0  0  0  0  0  0  0  0  0  0  0
  -30.4730  -15.8010   20.2720 N   0  0  0  0  0  0  0  0  0  0  0  0
  -29.5100  -15.5410   20.4090 H   0  0  0  0  0  0  0  0  0  0  0  0
  -25.8300  -14.2420   20.2460 C   0  0  0  0  0  0  0  0  0  0  0  0
  -24.7380  -13.5260   20.6530 C   0  0  0  0  0  0  0  0  0  0  0  0
  -25.1180  -12.1520   20.5760 C   0  0  0  0  0  0  0  0  0  0  0  0
  -26.8090  -13.3060   19.9470 N   0  0  0  0  0  0  0  0  0  0  0  0
  -26.3870  -12.0420   20.2070 N   0  0  0  0  0  0  0  0  0  0  0  0
  -24.3300  -10.9290   20.7780 C   0  0  0  0  0  0  0  0  0  0  0  0
  -24.7380   -9.9270   21.6860 C   0  0  0  0  0  3  0  0  0  0  0  0
  -23.9530   -8.7690   21.8750 C   0  0  0  0  0  3  0  0  0  0  0  0
  -22.7450   -8.6080   21.1570 C   0  0  0  0  0  0  0  0  0  0  0  0
  -22.3570   -9.5970   20.2350 C   0  0  0  0  0  3  0  0  0  0  0  0
  -23.1440  -10.7450   20.0430 C   0  0  0  0  0  3  0  0  0  0  0  0
  -21.9310   -7.5060   21.2580 O   0  0  0  0  0  0  0  0  0  0  0  0
  -21.8550   -6.7670   22.4110 C   0  0  0  0  0  0  0  0  0  0  0  0
  -21.5040   -7.3490   23.6480 C   0  0  0  0  0  3  0  0  0  0  0  0
  -21.3700   -6.5420   24.7950 C   0  0  0  0  0  3  0  0  0  0  0  0
  -21.5810   -5.1530   24.7080 C   0  0  0  0  0  0  0  0  0  0  0  0
  -21.9280   -4.5700   23.4770 C   0  0  0  0  0  3  0  0  0  0  0  0
  -22.0640   -5.3740   22.3310 C   0  0  0  0  0  0  0  0  0  0  0  0
  -22.3770   -4.8030   21.1440 F   0  0  0  0  0  0  0  0  0  0  0  0
  -21.4440   -4.3770   25.8090 F   0  0  0  0  0  0  0  0  0  0  0  0
  -23.3850  -14.0800   20.9960 C   0  0  0  0  0  0  0  0  0  0  0  0
  -22.6670  -13.4220   21.8990 N   0  0  0  0  0  0  0  0  0  0  0  0
  -22.9770  -15.1300   20.4990 O   0  0  0  0  0  0  0  0  0  0  0  0
  -23.0100  -12.5750   22.3230 H   0  0  0  0  0  0  0  0  0  0  0  0
  -21.7590  -13.7750   22.1690 H   0  0  0  0  0  0  0  0  0  0  0  0
  -26.0640  -15.6040   20.0830 N   0  0  0  0  0  0  0  0  0  0  0  0
  -25.3310  -16.2910   20.2330 H   0  0  0  0  0  0  0  0  0  0  0  0
  -26.9120  -16.0150   19.7140 H   0  0  0  0  0  0  0  0  0  0  0  0
  -28.1840  -25.2300   20.9210 C   0  0  0  0  0  2  0  0  0  0  0  0
  -28.3150  -26.5370   20.2840 O   0  0  0  0  0  0  0  0  0  0  0  0
  -24.5800  -31.8920   23.2770 C   0  0  0  0  0  0  0  0  0  0  0  0
  -27.1760  -27.3310   20.2800 C   0  0  0  0  0  0  0  0  0  0  0  0
  -23.3660  -30.4750   21.6540 C   0  0  0  0  0  3  0  0  0  0  0  0
  -24.8080  -28.8920   20.2550 C   0  0  0  0  0  0  0  0  0  0  0  0
  -25.9010  -30.7900   21.4640 C   0  0  0  0  0  2  0  0  0  0  0  0
  -25.9730  -29.4070   20.8370 C   0  0  0  0  0  0  0  0  0  0  0  0
  -27.1670  -28.6380   20.8340 C   0  0  0  0  0  3  0  0  0  0  0  0
  -25.9900  -26.8350   19.7010 C   0  0  0  0  0  3  0  0  0  0  0  0
  -24.8140  -27.6100   19.6830 C   0  0  0  0  0  3  0  0  0  0  0  0
  -23.5720  -29.7670   20.2890 C   0  0  0  0  0  2  0  0  0  0  0  0
  -24.6330  -31.0710   22.1880 N   0  0  0  0  0  0  0  0  0  0  0  0
  -23.5000  -32.1830   23.8090 O   0  0  0  0  0  0  0  0  0  0  0  0
  -22.6980  -29.4800   22.6320 C   0  0  0  0  0  0  0  0  0  0  0  0
  -21.3740  -29.3010   22.4960 N   0  0  0  0  0  0  0  0  0  0  0  0
  -23.3710  -28.8700   23.4670 O   0  0  0  0  0  0  0  0  0  0  0  0
  -20.8880  -29.8400   21.7920 H   0  0  0  0  0  0  0  0  0  0  0  0
  -17.9930  -28.1040   22.9560 C   0  0  0  0  0  0  0  0  0  0  0  0
  -20.5460  -28.3790   23.2770 C   0  0  0  0  0  3  0  0  0  0  0  0
  -20.6660  -26.9340   22.7390 C   0  0  0  0  0  2  0  0  0  0  0  0
  -19.5850  -26.5820   21.7120 C   0  0  0  0  0  2  0  0  0  0  0  0
  -18.1920  -26.7380   22.3240 C   0  0  0  0  0  2  0  0  0  0  0  0
  -19.1020  -28.8820   23.3900 C   0  0  0  0  0  0  0  0  0  0  0  0
  -18.8640  -30.1610   23.9400 C   0  0  0  0  0  3  0  0  0  0  0  0
  -17.5540  -30.6620   24.0650 C   0  0  0  0  0  3  0  0  0  0  0  0
  -16.4610  -29.8800   23.6490 C   0  0  0  0  0  3  0  0  0  0  0  0
  -16.6820  -28.6040   23.1010 C   0  0  0  0  0  3  0  0  0  0  0  0
  -25.8690  -32.5220   23.8940 C   0  0  0  0  0  3  0  0  0  0  0  0
  -26.3810  -31.7560   25.1740 C   0  0  1  0  0  0  0  0  0  0  0  0
  -25.2900  -31.5230   26.2440 C   0  0  0  0  0  1  0  0  0  0  0  0
  -26.9540  -30.3730   24.7880 C   0  0  0  0  0  1  0  0  0  0  0  0
  -27.5340  -32.5450   25.8340 C   0  0  0  0  0  1  0  0  0  0  0  0
  -25.5700  -33.9240   24.2120 N   0  0  0  0  0  0  0  0  0  0  0  0
  -25.9070  -34.9680   23.4440 C   0  0  0  0  0  0  0  0  0  0  0  0
  -26.5760  -34.8520   22.4150 O   0  0  0  0  0  0  0  0  0  0  0  0
  -24.9770  -34.0910   25.0140 H   0  0  0  0  0  0  0  0  0  0  0  0
  -24.1830  -36.7580   23.0780 C   0  0  0  0  0  1  0  0  0  0  0  0
  -25.4270  -36.3630   23.8890 C   0  0  0  0  0  3  0  0  0  0  0  0
  -27.5690  -37.2400   24.7020 C   0  0  0  0  0  1  0  0  0  0  0  0
  -26.4630  -37.4100   23.7630 N   0  0  0  0  0  0  0  0  0  0  0  0
  -26.0630  -38.3320   23.9140 H   0  0  0  0  0  0  0  0  0  0  0  0
  1  7  2  0
  2  3  1  0
  2  4  1  0
  3  5  1  0
  4  6  1  0
  5  1  1  0
  5 54  1  0
  6  8  1  0
  6  1  1  0
  8 12  1  0
  9 10  1  0
 11 12  1  0
 11 14  2  0
 12  9  2  0
 13 10  2  0
 13 15  1  0
 14 13  1  0
 16 24  1  0
 17 22  1  0
 18 19  1  0
 18 17  1  0
 20 19  1  0
 20 29  1  0
 20 21  1  0
 22 16  1  0
 22 21  1  0
 23 16  2  0
 24 25  1  0
 24 14  1  0
 26 27  2  0
 27 46  1  0
 28 27  1  0
 28 31  1  0
 29 30  1  0
 29 26  1  0
 30 28  2  0
 31 32  1  0
 32 33  2  0
 34 37  1  0
 34 33  1  0
 35 34  2  0
 36 35  1  0
 36 31  2  0
 37 38  1  0
 38 39  1  0
 39 40  2  0
 41 40  1  0
 41 45  1  0
 42 41  2  0
 43 38  2  0
 43 42  1  0
 44 43  1  0
 46 47  1  0
 47 50  1  0
 47 49  1  0
 48 46  2  0
 51 52  1  0
 51 26  1  0
 53 51  1  0
 55 54  1  0
 56 67  2  0
 57 55  1  0
 57 62  1  0
 58 66  1  0
 58 68  1  0
 59 65  1  0
 59 61  1  0
 60 66  1  0
 61 60  1  0
 62 61  2  0
 63 57  2  0
 64 63  1  0
 64 59  2  0
 65 58  1  0
 66 56  1  0
 68 70  2  0
 69 68  1  0
 71 69  1  0
 72 81  2  0
 72 77  1  0
 73 69  1  0
 73 77  1  0
 74 73  1  0
 75 76  1  0
 75 74  1  0
 76 72  1  0
 77 78  2  0
 78 79  1  0
 80 79  2  0
 81 80  1  0
 82 56  1  0
 82 87  1  0
 82 83  1  0
 83 86  1  1
 83 84  1  0
 85 83  1  0
 87 90  1  0
 88 92  1  0
 88 87  1  0
 89 88  2  0
 92 91  1  0
 94 92  1  0
 94 95  1  0
 94 93  1  0
M  ISO  4  16 100  24 100  54 101  55 101
M  END
>  <TORSDO>  (18) 
F 19

>  <SCORE>  (18) 
-12.152

>  <name>  (18) 
17

>  <ligand_id>  (18) 
17

>  <original_smiles>  (18) 
[H]c1c([H])c([H])c2c(c1[H])C([H])([H])C([H])([H])C([H])([H])C2([H])N([H])C(=O)C1([H])N(C(=O)C([H])(N([H])C(=O)C([H])(N([H])C([H])([H])[H])C([H])([H])[H])C(C([H])([H])[H])(C([H])([H])[H])C([H])([H])[H])C([H])([H])c2c([H])c(OC([H])([H])C3([H])C(=O)N(C([H])([H])c4c([H])c([H])c(C([H])([H])[H])c(N([H])C(=O)N5C([H])([H])C([H])([H])C([H])([H])C([H])(n6nc(-c7c([H])c([H])c(Oc8c([H])c([H])c(F)c([H])c8F)c([H])c7[H])c(C(=O)N([H])[H])c6N([H])[H])C5([H])[H])c4[H])C([H])([H])C([H])([H])C3([H])[H])c([H])c([H])c2C1([H])[H]

>  <smiles>  (18) 
[H]c1c([H])c([H])c2c(c1[H])C([H])([H])C([H])([H])C([H])([H])C2([H])N([H])C(=O)C1([H])N(C(=O)C([H])(N([H])C(=O)C([H])(N([H])C([H])([H])[H])C([H])([H])[H])C(C([H])([H])[H])(C([H])([H])[H])C([H])([H])[H])C([H])([H])c2c([H])c(OC([H])([H])C3([H])C(=O)N(C([H])([H])c4c([H])c([H])c(C([H])([H])[H])c(N([H])C(=O)N5C([H])([H])C([H])([H])C([H])([H])C([H])(n6nc(-c7c([H])c([H])c(Oc8c([H])c([H])c(F)c([H])c8F)c([H])c7[H])c(C(=O)N([H])[H])c6N([H])[H])C5([H])[H])c4[H])C([H])([H])C([H])([H])C3([H])[H])c([H])c([H])c2C1([H])[H]

$$$$
18:0:0
     RDKit          3D

 92100  0  0  1  0  0  0  0  0999 V2000
  -29.5980  -21.2580   20.7890 C   0  0  0  0  0  2  0  0  0  0  0  0
  -29.8250  -18.5470   17.9340 C   0  0  0  0  0  3  0  0  0  0  0  0
  -29.8890  -17.3260   18.6350 C   0  0  0  0  0  3  0  0  0  0  0  0
  -29.7550  -18.5700   20.7130 C   0  0  0  0  0  3  0  0  0  0  0  0
  -29.7370  -19.7950   18.5920 C   0  0  0  0  0  0  0  0  0  0  0  0
  -29.6670  -19.8550   20.0160 C   0  0  0  0  0  0  0  0  0  0  0  0
  -29.8830  -17.2770   20.0470 C   0  0  0  0  0  0  0  0  0  0  0  0
  -29.7600  -21.0430   17.7150 C   0  0  0  0  0  1  0  0  0  0  0  0
  -30.6020  -14.7940   20.3710 C   0  0  0  0  0  0  0  0  0  0  0  0
  -30.3900  -12.5130   19.3870 C   0  0  0  0  0  2  0  0  0  0  0  0
  -29.4770  -12.6100   18.1450 C   0  0  0  0  0  2  0  0  0  0  0  0
  -27.9960  -12.4490   18.5400 C   0  0  0  0  0  2  0  0  0  0  0  0
  -27.6150  -13.3160   19.7690 C   0  0  0  0  0  3  0  0  0  0  0  0
  -28.6570  -13.2290   20.9060 C   0  0  0  0  0  2  0  0  0  0  0  0
  -29.9680  -13.5700   20.3380 N   0  0  0  0  0  0  0  0  0  0  0  0
  -31.7740  -14.8770   19.9930 O   0  0  0  0  0  0  0  0  0  0  0  0
  -29.8830  -15.9370   20.7020 N   0  0  0  0  0  0  0  0  0  0  0  0
  -29.0900  -15.7650   21.3010 H   0  0  0  0  0  0  0  0  0  0  0  0
  -25.2110  -13.9040   20.4430 C   0  0  0  0  0  0  0  0  0  0  0  0
  -24.1420  -13.1310   20.8070 C   0  0  0  0  0  0  0  0  0  0  0  0
  -24.6090  -11.7820   20.8020 C   0  0  0  0  0  0  0  0  0  0  0  0
  -26.2620  -13.0270   20.2390 N   0  0  0  0  0  0  0  0  0  0  0  0
  -25.9060  -11.7460   20.5180 N   0  0  0  0  0  0  0  0  0  0  0  0
  -23.8780  -10.5230   20.9990 C   0  0  0  0  0  0  0  0  0  0  0  0
  -24.3050   -9.5660   21.9470 C   0  0  0  0  0  3  0  0  0  0  0  0
  -23.5810   -8.3690   22.1330 C   0  0  0  0  0  3  0  0  0  0  0  0
  -22.4150   -8.1190   21.3730 C   0  0  0  0  0  0  0  0  0  0  0  0
  -22.0060   -9.0620   20.4150 C   0  0  0  0  0  3  0  0  0  0  0  0
  -22.7300  -10.2520   20.2270 C   0  0  0  0  0  3  0  0  0  0  0  0
  -21.6590   -6.9750   21.4690 O   0  0  0  0  0  0  0  0  0  0  0  0
  -21.6090   -6.2390   22.6270 C   0  0  0  0  0  0  0  0  0  0  0  0
  -21.1870   -6.8000   23.8510 C   0  0  0  0  0  3  0  0  0  0  0  0
  -21.0870   -5.9890   24.9990 C   0  0  0  0  0  3  0  0  0  0  0  0
  -21.3980   -4.6180   24.9230 C   0  0  0  0  0  0  0  0  0  0  0  0
  -21.8150   -4.0560   23.7050 C   0  0  0  0  0  3  0  0  0  0  0  0
  -21.9190   -4.8650   22.5590 C   0  0  0  0  0  0  0  0  0  0  0  0
  -22.3000   -4.3150   21.3810 F   0  0  0  0  0  0  0  0  0  0  0  0
  -21.2920   -3.8380   26.0230 F   0  0  0  0  0  0  0  0  0  0  0  0
  -22.7420  -13.6090   21.0470 C   0  0  0  0  0  0  0  0  0  0  0  0
  -22.0000  -12.9270   21.9110 N   0  0  0  0  0  0  0  0  0  0  0  0
  -22.3130  -14.6230   20.4990 O   0  0  0  0  0  0  0  0  0  0  0  0
  -22.3520  -12.1020   22.3740 H   0  0  0  0  0  0  0  0  0  0  0  0
  -21.0580  -13.2310   22.1080 H   0  0  0  0  0  0  0  0  0  0  0  0
  -25.3700  -15.2730   20.2450 N   0  0  0  0  0  0  0  0  0  0  0  0
  -24.6030  -15.9260   20.3660 H   0  0  0  0  0  0  0  0  0  0  0  0
  -26.1920  -15.7000   19.8370 H   0  0  0  0  0  0  0  0  0  0  0  0
  -29.1000  -23.8460   20.4940 C   0  0  0  0  0  0  0  0  0  0  0  0
  -28.8860  -22.4960   20.2410 N   0  0  0  0  0  0  0  0  0  0  0  0
  -30.0710  -24.2130   21.1610 O   0  0  0  0  0  0  0  0  0  0  0  0
  -28.0620  -22.2940   19.6940 H   0  0  0  0  0  0  0  0  0  0  0  0
  -28.0810  -24.9570   19.9510 C   0  0  0  0  0  2  0  0  0  0  0  0
  -28.2980  -26.4130   20.2870 O   0  0  0  0  0  0  0  0  0  0  0  0
  -24.5980  -31.9130   23.2620 C   0  0  0  0  0  0  0  0  0  0  0  0
  -27.1940  -27.3020   20.2120 C   0  0  0  0  0  0  0  0  0  0  0  0
  -23.3870  -30.5100   21.6270 C   0  0  0  0  0  3  0  0  0  0  0  0
  -24.8290  -28.9500   20.2030 C   0  0  0  0  0  0  0  0  0  0  0  0
  -25.9300  -30.8100   21.4410 C   0  0  0  0  0  2  0  0  0  0  0  0
  -26.0020  -29.4290   20.7980 C   0  0  0  0  0  0  0  0  0  0  0  0
  -27.1850  -28.6150   20.7940 C   0  0  0  0  0  3  0  0  0  0  0  0
  -25.9950  -26.9030   19.5750 C   0  0  0  0  0  3  0  0  0  0  0  0
  -24.8310  -27.6930   19.5850 C   0  0  0  0  0  3  0  0  0  0  0  0
  -23.5950  -29.8260   20.2510 C   0  0  0  0  0  2  0  0  0  0  0  0
  -24.6570  -31.0960   22.1660 N   0  0  0  0  0  0  0  0  0  0  0  0
  -23.5160  -32.1950   23.7950 O   0  0  0  0  0  0  0  0  0  0  0  0
  -22.7200  -29.5040   22.5950 C   0  0  0  0  0  0  0  0  0  0  0  0
  -21.3930  -29.3250   22.4650 N   0  0  0  0  0  0  0  0  0  0  0  0
  -23.3940  -28.8820   23.4200 O   0  0  0  0  0  0  0  0  0  0  0  0
  -20.9060  -29.8770   21.7710 H   0  0  0  0  0  0  0  0  0  0  0  0
  -18.0190  -28.1210   22.9650 C   0  0  0  0  0  0  0  0  0  0  0  0
  -20.5750  -28.3910   23.2410 C   0  0  0  0  0  3  0  0  0  0  0  0
  -20.6830  -26.9540   22.6790 C   0  0  0  0  0  2  0  0  0  0  0  0
  -19.5870  -26.6190   21.6630 C   0  0  0  0  0  2  0  0  0  0  0  0
  -18.2030  -26.7670   22.2990 C   0  0  0  0  0  2  0  0  0  0  0  0
  -19.1330  -28.8900   23.3930 C   0  0  0  0  0  0  0  0  0  0  0  0
  -18.9070  -30.1570   23.9740 C   0  0  0  0  0  3  0  0  0  0  0  0
  -17.6000  -30.6540   24.1320 C   0  0  0  0  0  3  0  0  0  0  0  0
  -16.5010  -29.8800   23.7200 C   0  0  0  0  0  3  0  0  0  0  0  0
  -16.7110  -28.6170   23.1430 C   0  0  0  0  0  3  0  0  0  0  0  0
  -25.8840  -32.5420   23.8780 C   0  0  0  0  0  3  0  0  0  0  0  0
  -26.4000  -31.7740   25.1580 C   0  0  1  0  0  0  0  0  0  0  0  0
  -25.3080  -31.5470   26.2280 C   0  0  0  0  0  1  0  0  0  0  0  0
  -26.9780  -30.3920   24.7760 C   0  0  0  0  0  1  0  0  0  0  0  0
  -27.5590  -32.5660   25.8110 C   0  0  0  0  0  1  0  0  0  0  0  0
  -25.5830  -33.9440   24.2040 N   0  0  0  0  0  0  0  0  0  0  0  0
  -25.9090  -34.9920   23.4370 C   0  0  0  0  0  0  0  0  0  0  0  0
  -26.5670  -34.8840   22.4000 O   0  0  0  0  0  0  0  0  0  0  0  0
  -25.0020  -34.1050   25.0140 H   0  0  0  0  0  0  0  0  0  0  0  0
  -24.1800  -36.7870   23.0940 C   0  0  0  0  0  1  0  0  0  0  0  0
  -25.4290  -36.3830   23.8950 C   0  0  0  0  0  3  0  0  0  0  0  0
  -27.5750  -37.2650   24.6980 C   0  0  0  0  0  1  0  0  0  0  0  0
  -26.4600  -37.4350   23.7690 N   0  0  0  0  0  0  0  0  0  0  0  0
  -26.0560  -38.3550   23.9280 H   0  0  0  0  0  0  0  0  0  0  0  0
  2  5  2  0
  2  3  1  0
  3  7  2  0
  5  6  1  0
  6  4  2  0
  6  1  1  0
  7 17  1  0
  7  4  1  0
  8  5  1  0
  9 17  1  0
 10 15  1  0
 11 12  1  0
 11 10  1  0
 13 12  1  0
 13 22  1  0
 13 14  1  0
 15  9  1  0
 15 14  1  0
 16  9  2  0
 17 18  1  0
 19 20  2  0
 20 39  1  0
 21 20  1  0
 21 24  1  0
 22 19  1  0
 22 23  1  0
 23 21  2  0
 24 25  1  0
 25 26  2  0
 27 30  1  0
 27 26  1  0
 28 27  2  0
 29 28  1  0
 29 24  2  0
 30 31  1  0
 31 32  1  0
 32 33  2  0
 34 33  1  0
 34 38  1  0
 35 34  2  0
 36 31  2  0
 36 35  1  0
 37 36  1  0
 39 40  1  0
 40 43  1  0
 40 42  1  0
 41 39  2  0
 44 45  1  0
 44 19  1  0
 46 44  1  0
 47 49  2  0
 48 47  1  0
 48  1  1  0
 50 48  1  0
 51 52  1  0
 51 47  1  0
 53 64  2  0
 54 52  1  0
 54 59  1  0
 55 63  1  0
 55 65  1  0
 56 62  1  0
 56 58  1  0
 57 63  1  0
 58 57  1  0
 59 58  2  0
 60 61  1  0
 60 54  2  0
 61 56  2  0
 62 55  1  0
 63 53  1  0
 65 67  2  0
 66 65  1  0
 68 66  1  0
 69 78  2  0
 69 74  1  0
 70 66  1  0
 70 74  1  0
 71 70  1  0
 72 73  1  0
 72 71  1  0
 73 69  1  0
 74 75  2  0
 75 76  1  0
 77 76  2  0
 78 77  1  0
 79 53  1  0
 79 84  1  0
 79 80  1  0
 80 83  1  1
 80 81  1  0
 82 80  1  0
 84 87  1  0
 85 89  1  0
 85 84  1  0
 86 85  2  0
 89 88  1  0
 91 89  1  0
 91 92  1  0
 91 90  1  0
M  ISO  4   9 100  17 100  51 101  52 101
M  END
>  <TORSDO>  (19) 
F 19

>  <SCORE>  (19) 
-14.208

>  <name>  (19) 
18

>  <ligand_id>  (19) 
18

>  <original_smiles>  (19) 
[H]c1c([H])c([H])c2c(c1[H])C([H])([H])C([H])([H])C([H])([H])C2([H])N([H])C(=O)C1([H])N(C(=O)C([H])(N([H])C(=O)C([H])(N([H])C([H])([H])[H])C([H])([H])[H])C(C([H])([H])[H])(C([H])([H])[H])C([H])([H])[H])C([H])([H])c2c([H])c(OC([H])([H])C(=O)N([H])C([H])([H])c3c([H])c(N([H])C(=O)N4C([H])([H])C([H])([H])C([H])([H])C([H])(n5nc(-c6c([H])c([H])c(Oc7c([H])c([H])c(F)c([H])c7F)c([H])c6[H])c(C(=O)N([H])[H])c5N([H])[H])C4([H])[H])c([H])c([H])c3C([H])([H])[H])c([H])c([H])c2C1([H])[H]

>  <smiles>  (19) 
[H]c1c([H])c([H])c2c(c1[H])C([H])([H])C([H])([H])C([H])([H])C2([H])N([H])C(=O)C1([H])N(C(=O)C([H])(N([H])C(=O)C([H])(N([H])C([H])([H])[H])C([H])([H])[H])C(C([H])([H])[H])(C([H])([H])[H])C([H])([H])[H])C([H])([H])c2c([H])c(OC([H])([H])C(=O)N([H])C([H])([H])c3c([H])c(N([H])C(=O)N4C([H])([H])C([H])([H])C([H])([H])C([H])(n5nc(-c6c([H])c([H])c(Oc7c([H])c([H])c(F)c([H])c7F)c([H])c6[H])c(C(=O)N([H])[H])c5N([H])[H])C4([H])[H])c([H])c([H])c3C([H])([H])[H])c([H])c([H])c2C1([H])[H]

$$$$
19:0:0
     RDKit          3D

 93101  0  0  1  0  0  0  0  0999 V2000
  -28.4320  -22.9500   20.6560 C   0  0  0  0  0  0  0  0  0  0  0  0
  -29.1800  -21.8590   20.9250 N   0  0  0  0  0  0  0  0  0  0  0  0
  -27.2260  -22.8550   20.4200 O   0  0  0  0  0  0  0  0  0  0  0  0
  -30.1590  -22.0020   21.1360 H   0  0  0  0  0  0  0  0  0  0  0  0
  -28.6800  -20.4780   21.0980 C   0  0  0  0  0  2  0  0  0  0  0  0
  -29.3500  -18.0190   20.7820 C   0  0  0  0  0  3  0  0  0  0  0  0
  -30.3070  -19.6900   19.2840 C   0  0  0  0  0  3  0  0  0  0  0  0
  -30.9010  -17.3340   19.0420 C   0  0  0  0  0  3  0  0  0  0  0  0
  -29.4690  -19.3760   20.3730 C   0  0  0  0  0  0  0  0  0  0  0  0
  -30.0760  -16.9780   20.1400 C   0  0  0  0  0  0  0  0  0  0  0  0
  -31.0150  -18.6730   18.6190 C   0  0  0  0  0  0  0  0  0  0  0  0
  -32.0280  -19.0670   17.2750 Cl  0  0  0  0  0  0  0  0  0  0  0  0
  -30.6660  -14.5330   20.2420 C   0  0  0  0  0  0  0  0  0  0  0  0
  -30.3520  -12.3480   19.1610 C   0  0  0  0  0  2  0  0  0  0  0  0
  -29.4060  -12.5650   17.9610 C   0  0  0  0  0  2  0  0  0  0  0  0
  -27.9310  -12.4640   18.3990 C   0  0  0  0  0  2  0  0  0  0  0  0
  -27.6130  -13.2840   19.6790 C   0  0  0  0  0  3  0  0  0  0  0  0
  -28.6860  -13.0650   20.7710 C   0  0  0  0  0  2  0  0  0  0  0  0
  -30.0000  -13.3480   20.1810 N   0  0  0  0  0  0  0  0  0  0  0  0
  -31.8320  -14.6530   19.8550 O   0  0  0  0  0  0  0  0  0  0  0  0
  -29.9140  -15.6130   20.5770 N   0  0  0  0  0  0  0  0  0  0  0  0
  -29.0440  -15.3970   21.0390 H   0  0  0  0  0  0  0  0  0  0  0  0
  -25.2290  -13.8850   20.4400 C   0  0  0  0  0  0  0  0  0  0  0  0
  -24.1660  -13.1110   20.8240 C   0  0  0  0  0  0  0  0  0  0  0  0
  -24.6280  -11.7590   20.7810 C   0  0  0  0  0  0  0  0  0  0  0  0
  -26.2690  -13.0060   20.1830 N   0  0  0  0  0  0  0  0  0  0  0  0
  -25.9130  -11.7210   20.4460 N   0  0  0  0  0  0  0  0  0  0  0  0
  -23.9030  -10.4950   20.9760 C   0  0  0  0  0  0  0  0  0  0  0  0
  -24.3350   -9.5340   21.9160 C   0  0  0  0  0  3  0  0  0  0  0  0
  -23.6100   -8.3360   22.1010 C   0  0  0  0  0  3  0  0  0  0  0  0
  -22.4380   -8.0930   21.3450 C   0  0  0  0  0  0  0  0  0  0  0  0
  -22.0270   -9.0420   20.3940 C   0  0  0  0  0  3  0  0  0  0  0  0
  -22.7540  -10.2290   20.2060 C   0  0  0  0  0  3  0  0  0  0  0  0
  -21.6850   -6.9470   21.4380 O   0  0  0  0  0  0  0  0  0  0  0  0
  -21.6160   -6.2250   22.6020 C   0  0  0  0  0  0  0  0  0  0  0  0
  -21.1680   -6.7990   23.8120 C   0  0  0  0  0  3  0  0  0  0  0  0
  -21.0470   -6.0030   24.9690 C   0  0  0  0  0  3  0  0  0  0  0  0
  -21.3640   -4.6320   24.9170 C   0  0  0  0  0  0  0  0  0  0  0  0
  -21.8070   -4.0580   23.7130 C   0  0  0  0  0  3  0  0  0  0  0  0
  -21.9300   -4.8520   22.5580 C   0  0  0  0  0  0  0  0  0  0  0  0
  -22.3370   -4.2880   21.3960 F   0  0  0  0  0  0  0  0  0  0  0  0
  -21.2400   -3.8650   26.0240 F   0  0  0  0  0  0  0  0  0  0  0  0
  -22.7750  -13.5890   21.1200 C   0  0  0  0  0  0  0  0  0  0  0  0
  -22.0580  -12.8900   21.9940 N   0  0  0  0  0  0  0  0  0  0  0  0
  -22.3320  -14.6180   20.6150 O   0  0  0  0  0  0  0  0  0  0  0  0
  -22.4300  -12.0610   22.4340 H   0  0  0  0  0  0  0  0  0  0  0  0
  -21.1240  -13.1920   22.2300 H   0  0  0  0  0  0  0  0  0  0  0  0
  -25.3910  -15.2560   20.2670 N   0  0  0  0  0  0  0  0  0  0  0  0
  -24.6280  -15.9110   20.4060 H   0  0  0  0  0  0  0  0  0  0  0  0
  -26.2270  -15.6960   19.9080 H   0  0  0  0  0  0  0  0  0  0  0  0
  -29.0970  -24.3510   20.6910 C   0  0  0  0  0  2  0  0  0  0  0  0
  -28.5720  -25.3680   19.6290 C   0  0  0  0  0  2  0  0  0  0  0  0
  -28.4570  -26.7270   20.1250 O   0  0  0  0  0  0  0  0  0  0  0  0
  -24.6090  -31.8770   23.2240 C   0  0  0  0  0  0  0  0  0  0  0  0
  -27.2550  -27.4250   20.1080 C   0  0  0  0  0  0  0  0  0  0  0  0
  -23.4020  -30.4830   21.5800 C   0  0  0  0  0  3  0  0  0  0  0  0
  -24.8540  -28.9560   20.1430 C   0  0  0  0  0  0  0  0  0  0  0  0
  -25.9350  -30.8340   21.3870 C   0  0  0  0  0  2  0  0  0  0  0  0
  -26.0170  -29.4680   20.7310 C   0  0  0  0  0  0  0  0  0  0  0  0
  -27.2150  -28.7120   20.7060 C   0  0  0  0  0  3  0  0  0  0  0  0
  -26.0620  -26.9390   19.5190 C   0  0  0  0  0  3  0  0  0  0  0  0
  -24.8750  -27.6920   19.5360 C   0  0  0  0  0  3  0  0  0  0  0  0
  -23.6110  -29.8150   20.1960 C   0  0  0  0  0  2  0  0  0  0  0  0
  -24.6680  -31.0800   22.1200 N   0  0  0  0  0  0  0  0  0  0  0  0
  -23.5270  -32.1440   23.7660 O   0  0  0  0  0  0  0  0  0  0  0  0
  -22.7530  -29.4550   22.5350 C   0  0  0  0  0  0  0  0  0  0  0  0
  -21.4290  -29.2720   22.4100 N   0  0  0  0  0  0  0  0  0  0  0  0
  -23.4380  -28.8190   23.3400 O   0  0  0  0  0  0  0  0  0  0  0  0
  -20.9340  -29.8330   21.7300 H   0  0  0  0  0  0  0  0  0  0  0  0
  -18.0490  -28.0920   22.9260 C   0  0  0  0  0  0  0  0  0  0  0  0
  -20.6130  -28.3310   23.1780 C   0  0  0  0  0  3  0  0  0  0  0  0
  -20.7010  -26.9050   22.5830 C   0  0  0  0  0  2  0  0  0  0  0  0
  -19.5880  -26.6030   21.5760 C   0  0  0  0  0  2  0  0  0  0  0  0
  -18.2130  -26.7480   22.2330 C   0  0  0  0  0  2  0  0  0  0  0  0
  -19.1770  -28.8420   23.3540 C   0  0  0  0  0  0  0  0  0  0  0  0
  -18.9710  -30.1010   23.9590 C   0  0  0  0  0  3  0  0  0  0  0  0
  -17.6710  -30.6090   24.1380 C   0  0  0  0  0  3  0  0  0  0  0  0
  -16.5590  -29.8550   23.7270 C   0  0  0  0  0  3  0  0  0  0  0  0
  -16.7490  -28.5980   23.1280 C   0  0  0  0  0  3  0  0  0  0  0  0
  -25.8930  -32.5070   23.8460 C   0  0  0  0  0  3  0  0  0  0  0  0
  -26.4150  -31.7330   25.1170 C   0  0  1  0  0  0  0  0  0  0  0  0
  -25.3250  -31.4910   26.1870 C   0  0  0  0  0  1  0  0  0  0  0  0
  -26.9970  -30.3570   24.7190 C   0  0  0  0  0  1  0  0  0  0  0  0
  -27.5630  -32.5290   25.7780 C   0  0  0  0  0  1  0  0  0  0  0  0
  -25.5820  -33.9030   24.1790 N   0  0  0  0  0  0  0  0  0  0  0  0
  -25.9140  -34.9580   23.4220 C   0  0  0  0  0  0  0  0  0  0  0  0
  -26.5830  -34.8590   22.3890 O   0  0  0  0  0  0  0  0  0  0  0  0
  -24.9920  -34.0550   24.9830 H   0  0  0  0  0  0  0  0  0  0  0  0
  -24.1830  -36.7480   23.0750 C   0  0  0  0  0  1  0  0  0  0  0  0
  -25.4260  -36.3450   23.8840 C   0  0  0  0  0  3  0  0  0  0  0  0
  -27.5630  -37.2270   24.7130 C   0  0  0  0  0  1  0  0  0  0  0  0
  -26.4580  -37.3990   23.7730 N   0  0  0  0  0  0  0  0  0  0  0  0
  -26.0510  -38.3190   23.9250 H   0  0  0  0  0  0  0  0  0  0  0  0
  1 51  1  0
  1  2  1  0
  2  5  1  0
  2  4  1  0
  3  1  2  0
  7  9  2  0
  8 10  1  0
  9  6  1  0
  9  5  1  0
 10 21  1  0
 10  6  2  0
 11  8  2  0
 11  7  1  0
 12 11  1  0
 13 21  1  0
 14 19  1  0
 15 16  1  0
 15 14  1  0
 17 16  1  0
 17 26  1  0
 17 18  1  0
 19 13  1  0
 19 18  1  0
 20 13  2  0
 21 22  1  0
 23 24  2  0
 24 43  1  0
 25 24  1  0
 25 28  1  0
 26 23  1  0
 26 27  1  0
 27 25  2  0
 28 29  1  0
 29 30  2  0
 31 34  1  0
 31 30  1  0
 32 31  2  0
 33 32  1  0
 33 28  2  0
 34 35  1  0
 35 36  1  0
 36 37  2  0
 38 37  1  0
 38 42  1  0
 39 38  2  0
 40 35  2  0
 40 39  1  0
 41 40  1  0
 43 44  1  0
 44 47  1  0
 44 46  1  0
 45 43  2  0
 48 49  1  0
 48 23  1  0
 50 48  1  0
 52 53  1  0
 52 51  1  0
 54 65  2  0
 55 53  1  0
 55 60  1  0
 56 64  1  0
 56 66  1  0
 57 63  1  0
 57 59  1  0
 58 64  1  0
 59 58  1  0
 60 59  2  0
 61 62  1  0
 61 55  2  0
 62 57  2  0
 63 56  1  0
 64 54  1  0
 66 68  2  0
 67 66  1  0
 69 67  1  0
 70 79  2  0
 70 75  1  0
 71 67  1  0
 71 75  1  0
 72 71  1  0
 73 74  1  0
 73 72  1  0
 74 70  1  0
 75 76  2  0
 76 77  1  0
 78 77  2  0
 79 78  1  0
 80 54  1  0
 80 85  1  0
 80 81  1  0
 81 84  1  1
 81 82  1  0
 83 81  1  0
 85 88  1  0
 86 90  1  0
 86 85  1  0
 87 86  2  0
 90 89  1  0
 92 90  1  0
 92 93  1  0
 92 91  1  0
M  ISO  4  13 100  21 100  52 101  53 101
M  END
>  <TORSDO>  (20) 
F 20

>  <SCORE>  (20) 
-13.894

>  <name>  (20) 
19

>  <ligand_id>  (20) 
19

>  <original_smiles>  (20) 
[H]c1c([H])c([H])c2c(c1[H])C([H])([H])C([H])([H])C([H])([H])C2([H])N([H])C(=O)C1([H])N(C(=O)C([H])(N([H])C(=O)C([H])(N([H])C([H])([H])[H])C([H])([H])[H])C(C([H])([H])[H])(C([H])([H])[H])C([H])([H])[H])C([H])([H])c2c([H])c(OC([H])([H])C([H])([H])C(=O)N([H])C([H])([H])c3c([H])c(Cl)c([H])c(N([H])C(=O)N4C([H])([H])C([H])([H])C([H])([H])C([H])(n5nc(-c6c([H])c([H])c(Oc7c([H])c([H])c(F)c([H])c7F)c([H])c6[H])c(C(=O)N([H])[H])c5N([H])[H])C4([H])[H])c3[H])c([H])c([H])c2C1([H])[H]

>  <smiles>  (20) 
[H]c1c([H])c([H])c2c(c1[H])C([H])([H])C([H])([H])C([H])([H])C2([H])N([H])C(=O)C1([H])N(C(=O)C([H])(N([H])C(=O)C([H])(N([H])C([H])([H])[H])C([H])([H])[H])C(C([H])([H])[H])(C([H])([H])[H])C([H])([H])[H])C([H])([H])c2c([H])c(OC([H])([H])C([H])([H])C(=O)N([H])C([H])([H])c3c([H])c(Cl)c([H])c(N([H])C(=O)N4C([H])([H])C([H])([H])C([H])([H])C([H])(n5nc(-c6c([H])c([H])c(Oc7c([H])c([H])c(F)c([H])c7F)c([H])c6[H])c(C(=O)N([H])[H])c5N([H])[H])C4([H])[H])c3[H])c([H])c([H])c2C1([H])[H]

$$$$
20:0:0
     RDKit          3D

 98107  0  0  1  0  0  0  0  0999 V2000
  -29.3950  -23.0660   21.4340 C   0  0  0  0  0  0  0  0  0  0  0  0
  -29.9810  -22.6870   22.5900 C   0  0  0  0  0  3  0  0  0  0  0  0
  -29.4670  -24.5420   20.9260 C   0  0  0  0  0  2  0  0  0  0  0  0
  -27.6530  -24.2190   19.3730 C   0  0  0  0  0  2  0  0  0  0  0  0
  -27.3390  -22.8200   19.9890 C   0  0  0  0  0  2  0  0  0  0  0  0
  -28.1290  -25.2020   20.4730 C   0  0  0  0  0  3  0  0  0  0  0  0
  -28.5020  -22.1140   20.6270 N   0  0  1  0  0  4  0  0  0  0  0  0
  -28.0320  -21.5370   21.3080 H   0  0  0  0  0  0  0  0  0  0  0  0
  -30.5930  -21.0680   24.3230 C   0  0  0  0  0  2  0  0  0  0  0  0
  -29.8720  -21.3910   23.2370 C   0  0  0  0  0  3  0  0  0  0  0  0
  -28.2710  -26.6440   20.1370 O   0  0  0  0  0  0  0  0  0  0  0  0
  -24.5880  -32.0110   23.2900 C   0  0  0  0  0  0  0  0  0  0  0  0
  -27.1360  -27.4730   20.1590 C   0  0  0  0  0  0  0  0  0  0  0  0
  -23.3470  -30.6130   21.6780 C   0  0  0  0  0  3  0  0  0  0  0  0
  -24.7660  -29.0750   20.2140 C   0  0  0  0  0  0  0  0  0  0  0  0
  -25.8800  -30.9450   21.4290 C   0  0  0  0  0  2  0  0  0  0  0  0
  -25.9500  -29.5700   20.7760 C   0  0  0  0  0  0  0  0  0  0  0  0
  -27.1410  -28.7830   20.7320 C   0  0  0  0  0  3  0  0  0  0  0  0
  -25.9220  -27.0300   19.5920 C   0  0  0  0  0  3  0  0  0  0  0  0
  -24.7540  -27.8110   19.6110 C   0  0  0  0  0  3  0  0  0  0  0  0
  -23.5280  -29.9450   20.2920 C   0  0  0  0  0  2  0  0  0  0  0  0
  -24.6250  -31.2060   22.1890 N   0  0  0  0  0  0  0  0  0  0  0  0
  -23.5170  -32.2830   23.8530 O   0  0  0  0  0  0  0  0  0  0  0  0
  -22.7130  -29.5910   22.6510 C   0  0  0  0  0  0  0  0  0  0  0  0
  -21.4010  -29.3440   22.4970 N   0  0  0  0  0  0  0  0  0  0  0  0
  -23.4000  -29.0220   23.5020 O   0  0  0  0  0  0  0  0  0  0  0  0
  -20.9030  -29.8580   21.7830 H   0  0  0  0  0  0  0  0  0  0  0  0
  -18.1020  -27.9080   22.8660 C   0  0  0  0  0  0  0  0  0  0  0  0
  -20.6080  -28.3890   23.2730 C   0  0  0  0  0  3  0  0  0  0  0  0
  -20.8590  -26.9390   22.8000 C   0  0  0  0  0  2  0  0  0  0  0  0
  -19.8550  -26.4680   21.7430 C   0  0  0  0  0  2  0  0  0  0  0  0
  -18.4270  -26.5390   22.2900 C   0  0  0  0  0  2  0  0  0  0  0  0
  -19.1270  -28.7810   23.3130 C   0  0  0  0  0  0  0  0  0  0  0  0
  -18.7730  -30.0560   23.8070 C   0  0  0  0  0  3  0  0  0  0  0  0
  -17.4250  -30.4580   23.8620 C   0  0  0  0  0  3  0  0  0  0  0  0
  -16.4130  -29.5830   23.4330 C   0  0  0  0  0  3  0  0  0  0  0  0
  -16.7510  -28.3100   22.9390 C   0  0  0  0  0  3  0  0  0  0  0  0
  -25.8830  -32.6460   23.8810 C   0  0  0  0  0  3  0  0  0  0  0  0
  -26.4250  -31.8820   25.1520 C   0  0  1  0  0  0  0  0  0  0  0  0
  -25.3480  -31.6360   26.2350 C   0  0  0  0  0  1  0  0  0  0  0  0
  -27.0140  -30.5080   24.7540 C   0  0  0  0  0  1  0  0  0  0  0  0
  -27.5760  -32.6870   25.7960 C   0  0  0  0  0  1  0  0  0  0  0  0
  -25.5810  -34.0460   24.2090 N   0  0  0  0  0  0  0  0  0  0  0  0
  -25.9080  -35.0950   23.4410 C   0  0  0  0  0  0  0  0  0  0  0  0
  -26.5640  -34.9850   22.4020 O   0  0  0  0  0  0  0  0  0  0  0  0
  -24.9920  -34.2040   25.0130 H   0  0  0  0  0  0  0  0  0  0  0  0
  -24.1820  -36.8940   23.1040 C   0  0  0  0  0  1  0  0  0  0  0  0
  -25.4320  -36.4860   23.9000 C   0  0  0  0  0  3  0  0  0  0  0  0
  -27.5790  -37.3690   24.7020 C   0  0  0  0  0  1  0  0  0  0  0  0
  -26.4650  -37.5350   23.7700 N   0  0  0  0  0  0  0  0  0  0  0  0
  -26.0640  -38.4570   23.9180 H   0  0  0  0  0  0  0  0  0  0  0  0
  -29.1240  -21.0510   19.7230 C   0  0  0  0  0  2  0  0  0  0  0  0
  -31.2240  -20.0250   20.7270 C   0  0  0  0  0  3  0  0  0  0  0  0
  -31.6190  -17.6290   21.0170 C   0  0  0  0  0  3  0  0  0  0  0  0
  -29.9020  -19.8020   20.2880 C   0  0  0  0  0  0  0  0  0  0  0  0
  -30.3190  -17.3160   20.5600 C   0  0  0  0  0  0  0  0  0  0  0  0
  -32.0640  -18.9610   21.1010 C   0  0  0  0  0  0  0  0  0  0  0  0
  -29.4530  -18.4250   20.2250 C   0  0  0  0  0  0  0  0  0  0  0  0
  -33.6680  -19.2950   21.6450 Cl  0  0  0  0  0  0  0  0  0  0  0  0
  -27.8490  -18.0690   19.6840 Cl  0  0  0  0  0  0  0  0  0  0  0  0
  -30.6670  -14.7950   20.2470 C   0  0  0  0  0  0  0  0  0  0  0  0
  -30.4460  -12.5240   19.2630 C   0  0  0  0  0  2  0  0  0  0  0  0
  -29.4940  -12.5780   18.0500 C   0  0  0  0  0  2  0  0  0  0  0  0
  -28.0290  -12.4120   18.4990 C   0  0  0  0  0  2  0  0  0  0  0  0
  -27.6620  -13.3220   19.7020 C   0  0  0  0  0  3  0  0  0  0  0  0
  -28.7340  -13.2570   20.8140 C   0  0  0  0  0  2  0  0  0  0  0  0
  -30.0270  -13.5850   20.1980 N   0  0  0  0  0  0  0  0  0  0  0  0
  -31.8390  -14.8990   19.8790 O   0  0  0  0  0  0  0  0  0  0  0  0
  -29.9020  -15.9110   20.4840 N   0  0  0  0  0  0  0  0  0  0  0  0
  -28.9100  -15.7460   20.5520 H   0  0  0  0  0  0  0  0  0  0  0  0
  -25.2820  -13.9040   20.4700 C   0  0  0  0  0  0  0  0  0  0  0  0
  -24.2250  -13.1230   20.8530 C   0  0  0  0  0  0  0  0  0  0  0  0
  -24.6920  -11.7740   20.8050 C   0  0  0  0  0  0  0  0  0  0  0  0
  -26.3260  -13.0290   20.2110 N   0  0  0  0  0  0  0  0  0  0  0  0
  -25.9780  -11.7430   20.4740 N   0  0  0  0  0  0  0  0  0  0  0  0
  -23.9730  -10.5080   20.9970 C   0  0  0  0  0  0  0  0  0  0  0  0
  -24.4030   -9.5500   21.9420 C   0  0  0  0  0  3  0  0  0  0  0  0
  -23.6840   -8.3490   22.1220 C   0  0  0  0  0  3  0  0  0  0  0  0
  -22.5210   -8.0960   21.3560 C   0  0  0  0  0  0  0  0  0  0  0  0
  -22.1100   -9.0420   20.3990 C   0  0  0  0  0  3  0  0  0  0  0  0
  -22.8300  -10.2350   20.2180 C   0  0  0  0  0  3  0  0  0  0  0  0
  -21.7740   -6.9460   21.4430 O   0  0  0  0  0  0  0  0  0  0  0  0
  -21.6890   -6.2300   22.6110 C   0  0  0  0  0  0  0  0  0  0  0  0
  -21.1950   -6.8030   23.8020 C   0  0  0  0  0  3  0  0  0  0  0  0
  -21.0610   -6.0120   24.9600 C   0  0  0  0  0  3  0  0  0  0  0  0
  -21.4100   -4.6480   24.9280 C   0  0  0  0  0  0  0  0  0  0  0  0
  -21.8980   -4.0760   23.7410 C   0  0  0  0  0  3  0  0  0  0  0  0
  -22.0350   -4.8630   22.5850 C   0  0  0  0  0  0  0  0  0  0  0  0
  -22.4850   -4.3000   21.4370 F   0  0  0  0  0  0  0  0  0  0  0  0
  -21.2750   -3.8870   26.0390 F   0  0  0  0  0  0  0  0  0  0  0  0
  -22.8310  -13.5930   21.1510 C   0  0  0  0  0  0  0  0  0  0  0  0
  -22.1200  -12.8870   22.0220 N   0  0  0  0  0  0  0  0  0  0  0  0
  -22.3810  -14.6220   20.6470 O   0  0  0  0  0  0  0  0  0  0  0  0
  -22.4960  -12.0540   22.4500 H   0  0  0  0  0  0  0  0  0  0  0  0
  -21.1850  -13.1830   22.2650 H   0  0  0  0  0  0  0  0  0  0  0  0
  -25.4360  -15.2760   20.2990 N   0  0  0  0  0  0  0  0  0  0  0  0
  -24.6610  -15.9190   20.4170 H   0  0  0  0  0  0  0  0  0  0  0  0
  -26.2640  -15.7250   19.9270 H   0  0  0  0  0  0  0  0  0  0  0  0
  1  2  2  0
  2 10  1  0
  3  1  1  0
  4  5  1  0
  4  6  1  0
  5  7  1  0
  6 11  1  0
  6  3  1  0
  7  8  1  1
  7  1  1  0
 10  9  2  0
 11 13  1  0
 12 23  2  0
 13 18  1  0
 14 22  1  0
 14 24  1  0
 15 21  1  0
 15 17  1  0
 16 22  1  0
 17 16  1  0
 18 17  2  0
 19 20  1  0
 19 13  2  0
 20 15  2  0
 21 14  1  0
 22 12  1  0
 24 26  2  0
 25 24  1  0
 27 25  1  0
 28 37  2  0
 28 33  1  0
 29 25  1  0
 29 33  1  0
 30 29  1  0
 31 32  1  0
 31 30  1  0
 32 28  1  0
 33 34  2  0
 34 35  1  0
 36 35  2  0
 37 36  1  0
 38 12  1  0
 38 43  1  0
 38 39  1  0
 39 42  1  1
 39 40  1  0
 41 39  1  0
 43 46  1  0
 44 48  1  0
 44 43  1  0
 45 44  2  0
 48 47  1  0
 50 48  1  0
 50 51  1  0
 50 49  1  0
 52 55  1  0
 52  7  1  0
 53 57  1  0
 54 57  2  0
 55 53  2  0
 56 54  1  0
 57 59  1  0
 58 55  1  0
 58 56  2  0
 60 58  1  0
 61 69  1  0
 62 67  1  0
 63 64  1  0
 63 62  1  0
 65 64  1  0
 65 74  1  0
 65 66  1  0
 67 61  1  0
 67 66  1  0
 68 61  2  0
 69 70  1  0
 69 56  1  0
 71 72  2  0
 72 91  1  0
 73 72  1  0
 73 76  1  0
 74 71  1  0
 74 75  1  0
 75 73  2  0
 76 77  1  0
 77 78  2  0
 79 82  1  0
 79 78  1  0
 80 79  2  0
 81 80  1  0
 81 76  2  0
 82 83  1  0
 83 84  1  0
 84 85  2  0
 86 85  1  0
 86 90  1  0
 87 86  2  0
 88 83  2  0
 88 87  1  0
 89 88  1  0
 91 92  1  0
 92 95  1  0
 92 94  1  0
 93 91  2  0
 96 97  1  0
 96 71  1  0
 98 96  1  0
M  ISO  4   6 101  11 101  61 100  69 100
M  END
>  <TORSDO>  (21) 
F 19

>  <SCORE>  (21) 
-15.113

>  <name>  (21) 
20

>  <ligand_id>  (21) 
20

>  <original_smiles>  (21) 
[H]C([H])=C([H])C([H])=C1C([H])([H])C([H])(Oc2c([H])c([H])c3c(c2[H])C([H])([H])N(C(=O)C([H])(N([H])C(=O)C([H])(N([H])C([H])([H])[H])C([H])([H])[H])C(C([H])([H])[H])(C([H])([H])[H])C([H])([H])[H])C([H])(C(=O)N([H])C2([H])c4c([H])c([H])c([H])c([H])c4C([H])([H])C([H])([H])C2([H])[H])C3([H])[H])C([H])([H])C([H])([H])[N+]1([H])C([H])([H])c1c([H])c(Cl)c([H])c(N([H])C(=O)N2C([H])([H])C([H])([H])C([H])([H])C([H])(n3nc(-c4c([H])c([H])c(Oc5c([H])c([H])c(F)c([H])c5F)c([H])c4[H])c(C(=O)N([H])[H])c3N([H])[H])C2([H])[H])c1Cl

>  <smiles>  (21) 
[H]C([H])=C([H])C([H])=C1C([H])([H])C([H])(Oc2c([H])c([H])c3c(c2[H])C([H])([H])N(C(=O)C([H])(N([H])C(=O)C([H])(N([H])C([H])([H])[H])C([H])([H])[H])C(C([H])([H])[H])(C([H])([H])[H])C([H])([H])[H])C([H])(C(=O)N([H])C2([H])c4c([H])c([H])c([H])c([H])c4C([H])([H])C([H])([H])C2([H])[H])C3([H])[H])C([H])([H])C([H])([H])[N+]1([H])C([H])([H])c1c([H])c(Cl)c([H])c(N([H])C(=O)N2C([H])([H])C([H])([H])C([H])([H])C([H])(n3nc(-c4c([H])c([H])c(Oc5c([H])c([H])c(F)c([H])c5F)c([H])c4[H])c(C(=O)N([H])[H])c3N([H])[H])C2([H])[H])c1Cl

$$$$
21:0:0
     RDKit          3D

 93101  0  0  1  0  0  0  0  0999 V2000
  -29.4110  -23.0780   21.0450 C   0  0  0  0  0  0  0  0  0  0  0  0
  -28.4900  -21.8780   19.0920 C   0  0  0  0  0  1  0  0  0  0  0  0
  -29.1030  -21.9030   20.4270 N   0  0  0  0  0  0  0  0  0  0  0  0
  -29.6900  -23.1250   22.2490 O   0  0  0  0  0  0  0  0  0  0  0  0
  -29.1600  -20.5910   21.1360 C   0  0  0  0  0  2  0  0  0  0  0  0
  -30.7620  -19.6490   19.3540 C   0  0  0  0  0  3  0  0  0  0  0  0
  -31.2960  -18.5680   18.6360 C   0  0  0  0  0  3  0  0  0  0  0  0
  -29.6660  -18.0830   20.8570 C   0  0  0  0  0  3  0  0  0  0  0  0
  -29.8830  -19.4230   20.4330 C   0  0  0  0  0  0  0  0  0  0  0  0
  -30.2480  -16.9740   20.1820 C   0  0  0  0  0  0  0  0  0  0  0  0
  -31.0080  -17.2400   19.0000 C   0  0  0  0  0  0  0  0  0  0  0  0
  -31.5320  -16.0160   17.8910 Cl  0  0  0  0  0  0  0  0  0  0  0  0
  -30.7500  -14.5520   20.6130 C   0  0  0  0  0  0  0  0  0  0  0  0
  -30.5090  -12.3490   19.5680 C   0  0  0  0  0  2  0  0  0  0  0  0
  -29.6230  -12.5280   18.3150 C   0  0  0  0  0  2  0  0  0  0  0  0
  -28.1300  -12.4020   18.6820 C   0  0  0  0  0  2  0  0  0  0  0  0
  -27.7350  -13.2660   19.9080 C   0  0  0  0  0  3  0  0  0  0  0  0
  -28.7460  -13.0940   21.0650 C   0  0  0  0  0  2  0  0  0  0  0  0
  -30.0920  -13.3650   20.5410 N   0  0  0  0  0  0  0  0  0  0  0  0
  -31.9630  -14.6490   20.4140 O   0  0  0  0  0  0  0  0  0  0  0  0
  -29.9580  -15.6460   20.6660 N   0  0  0  0  0  0  0  0  0  0  0  0
  -29.0130  -15.4890   20.9780 H   0  0  0  0  0  0  0  0  0  0  0  0
  -25.3100  -13.8850   20.5060 C   0  0  0  0  0  0  0  0  0  0  0  0
  -24.2270  -13.1190   20.8450 C   0  0  0  0  0  0  0  0  0  0  0  0
  -24.6890  -11.7680   20.8630 C   0  0  0  0  0  0  0  0  0  0  0  0
  -26.3630  -12.9990   20.3370 N   0  0  0  0  0  0  0  0  0  0  0  0
  -25.9910  -11.7230   20.6130 N   0  0  0  0  0  0  0  0  0  0  0  0
  -23.9560  -10.5110   21.0480 C   0  0  0  0  0  0  0  0  0  0  0  0
  -24.3580   -9.5540   22.0050 C   0  0  0  0  0  3  0  0  0  0  0  0
  -23.6260   -8.3600   22.1750 C   0  0  0  0  0  3  0  0  0  0  0  0
  -22.4780   -8.1130   21.3880 C   0  0  0  0  0  0  0  0  0  0  0  0
  -22.0940   -9.0580   20.4190 C   0  0  0  0  0  3  0  0  0  0  0  0
  -22.8270  -10.2440   20.2480 C   0  0  0  0  0  3  0  0  0  0  0  0
  -21.7200   -6.9700   21.4670 O   0  0  0  0  0  0  0  0  0  0  0  0
  -21.6430   -6.2360   22.6230 C   0  0  0  0  0  0  0  0  0  0  0  0
  -21.1980   -6.8020   23.8380 C   0  0  0  0  0  3  0  0  0  0  0  0
  -21.0660   -5.9940   24.9840 C   0  0  0  0  0  3  0  0  0  0  0  0
  -21.3710   -4.6220   24.9180 C   0  0  0  0  0  0  0  0  0  0  0  0
  -21.8120   -4.0550   23.7090 C   0  0  0  0  0  3  0  0  0  0  0  0
  -21.9440   -4.8610   22.5650 C   0  0  0  0  0  0  0  0  0  0  0  0
  -22.3480   -4.3070   21.3960 F   0  0  0  0  0  0  0  0  0  0  0  0
  -21.2380   -3.8430   26.0170 F   0  0  0  0  0  0  0  0  0  0  0  0
  -22.8190  -13.6020   21.0400 C   0  0  0  0  0  0  0  0  0  0  0  0
  -22.0510  -12.9310   21.8920 N   0  0  0  0  0  0  0  0  0  0  0  0
  -22.4050  -14.6140   20.4740 O   0  0  0  0  0  0  0  0  0  0  0  0
  -22.3930  -12.1190   22.3830 H   0  0  0  0  0  0  0  0  0  0  0  0
  -21.1020  -13.2380   22.0550 H   0  0  0  0  0  0  0  0  0  0  0  0
  -25.4790  -15.2520   20.3080 N   0  0  0  0  0  0  0  0  0  0  0  0
  -24.6970  -15.8970   20.3580 H   0  0  0  0  0  0  0  0  0  0  0  0
  -26.3280  -15.6870   19.9710 H   0  0  0  0  0  0  0  0  0  0  0  0
  -29.4820  -24.4100   20.2550 C   0  0  0  0  0  2  0  0  0  0  0  0
  -28.1700  -25.2310   20.2970 C   0  0  0  0  0  2  0  0  0  0  0  0
  -28.3530  -26.6530   20.0930 O   0  0  0  0  0  0  0  0  0  0  0  0
  -24.6150  -31.8830   23.2180 C   0  0  0  0  0  0  0  0  0  0  0  0
  -27.1960  -27.4160   20.0930 C   0  0  0  0  0  0  0  0  0  0  0  0
  -23.3870  -30.4930   21.5870 C   0  0  0  0  0  3  0  0  0  0  0  0
  -24.8160  -28.9560   20.1420 C   0  0  0  0  0  0  0  0  0  0  0  0
  -25.9160  -30.8330   21.3650 C   0  0  0  0  0  2  0  0  0  0  0  0
  -25.9880  -29.4650   20.7170 C   0  0  0  0  0  0  0  0  0  0  0  0
  -27.1820  -28.7020   20.6880 C   0  0  0  0  0  3  0  0  0  0  0  0
  -26.0020  -26.9380   19.5050 C   0  0  0  0  0  3  0  0  0  0  0  0
  -24.8170  -27.6910   19.5390 C   0  0  0  0  0  3  0  0  0  0  0  0
  -23.5780  -29.8210   20.2010 C   0  0  0  0  0  2  0  0  0  0  0  0
  -24.6590  -31.0840   22.1140 N   0  0  0  0  0  0  0  0  0  0  0  0
  -23.5390  -32.1600   23.7670 O   0  0  0  0  0  0  0  0  0  0  0  0
  -22.7420  -29.4690   22.5490 C   0  0  0  0  0  0  0  0  0  0  0  0
  -21.4180  -29.2840   22.4250 N   0  0  0  0  0  0  0  0  0  0  0  0
  -23.4300  -28.8450   23.3610 O   0  0  0  0  0  0  0  0  0  0  0  0
  -20.9250  -29.8360   21.7380 H   0  0  0  0  0  0  0  0  0  0  0  0
  -18.0500  -28.0670   22.9220 C   0  0  0  0  0  0  0  0  0  0  0  0
  -20.6050  -28.3450   23.1980 C   0  0  0  0  0  3  0  0  0  0  0  0
  -20.7200  -26.9110   22.6310 C   0  0  0  0  0  2  0  0  0  0  0  0
  -19.6210  -26.5740   21.6170 C   0  0  0  0  0  2  0  0  0  0  0  0
  -18.2370  -26.7150   22.2550 C   0  0  0  0  0  2  0  0  0  0  0  0
  -19.1630  -28.8380   23.3500 C   0  0  0  0  0  0  0  0  0  0  0  0
  -18.9340  -30.1050   23.9330 C   0  0  0  0  0  3  0  0  0  0  0  0
  -17.6250  -30.5990   24.0900 C   0  0  0  0  0  3  0  0  0  0  0  0
  -16.5270  -29.8250   23.6780 C   0  0  0  0  0  3  0  0  0  0  0  0
  -16.7400  -28.5590   23.1000 C   0  0  0  0  0  3  0  0  0  0  0  0
  -25.9100  -32.5070   23.8270 C   0  0  0  0  0  3  0  0  0  0  0  0
  -26.4450  -31.7210   25.0850 C   0  0  1  0  0  0  0  0  0  0  0  0
  -25.3680  -31.4760   26.1670 C   0  0  0  0  0  1  0  0  0  0  0  0
  -27.0220  -30.3480   24.6690 C   0  0  0  0  0  1  0  0  0  0  0  0
  -27.6060  -32.5090   25.7380 C   0  0  0  0  0  1  0  0  0  0  0  0
  -25.6060  -33.9010   24.1760 N   0  0  0  0  0  0  0  0  0  0  0  0
  -25.9260  -34.9600   23.4200 C   0  0  0  0  0  0  0  0  0  0  0  0
  -26.5790  -34.8650   22.3770 O   0  0  0  0  0  0  0  0  0  0  0  0
  -25.0320  -34.0500   24.9930 H   0  0  0  0  0  0  0  0  0  0  0  0
  -24.1940  -36.7530   23.1000 C   0  0  0  0  0  1  0  0  0  0  0  0
  -25.4440  -36.3430   23.8950 C   0  0  0  0  0  3  0  0  0  0  0  0
  -27.5900  -37.2170   24.7090 C   0  0  0  0  0  1  0  0  0  0  0  0
  -26.4770  -37.3960   23.7790 N   0  0  0  0  0  0  0  0  0  0  0  0
  -26.0750  -38.3160   23.9370 H   0  0  0  0  0  0  0  0  0  0  0  0
  1  4  2  0
  2  3  1  0
  3  1  1  0
  3  5  1  0
  6  9  1  0
  7 11  1  0
  7  6  2  0
  9  8  2  0
  9  5  1  0
 10 21  1  0
 10  8  1  0
 11 10  2  0
 12 11  1  0
 13 21  1  0
 14 19  1  0
 15 16  1  0
 15 14  1  0
 17 16  1  0
 17 26  1  0
 17 18  1  0
 19 13  1  0
 19 18  1  0
 20 13  2  0
 21 22  1  0
 23 24  2  0
 24 25  1  0
 24 43  1  0
 25 28  1  0
 26 23  1  0
 26 27  1  0
 27 25  2  0
 28 29  1  0
 29 30  2  0
 31 34  1  0
 31 30  1  0
 32 31  2  0
 33 32  1  0
 33 28  2  0
 34 35  1  0
 35 36  1  0
 36 37  2  0
 38 37  1  0
 38 42  1  0
 39 38  2  0
 40 35  2  0
 40 39  1  0
 41 40  1  0
 43 44  1  0
 44 47  1  0
 44 46  1  0
 45 43  2  0
 48 49  1  0
 48 23  1  0
 50 48  1  0
 51 52  1  0
 51  1  1  0
 53 52  1  0
 54 65  2  0
 55 53  1  0
 55 60  1  0
 56 64  1  0
 56 66  1  0
 57 63  1  0
 57 59  1  0
 58 64  1  0
 59 58  1  0
 60 59  2  0
 61 62  1  0
 61 55  2  0
 62 57  2  0
 63 56  1  0
 64 54  1  0
 66 68  2  0
 67 66  1  0
 69 67  1  0
 70 79  2  0
 70 75  1  0
 71 67  1  0
 71 75  1  0
 72 71  1  0
 73 74  1  0
 73 72  1  0
 74 70  1  0
 75 76  2  0
 76 77  1  0
 78 77  2  0
 79 78  1  0
 80 54  1  0
 80 85  1  0
 80 81  1  0
 81 84  1  1
 81 82  1  0
 83 81  1  0
 85 88  1  0
 86 90  1  0
 86 85  1  0
 87 86  2  0
 90 89  1  0
 92 90  1  0
 92 93  1  0
 92 91  1  0
M  ISO  4  13 100  21 100  52 101  53 101
M  END
>  <TORSDO>  (22) 
F 20

>  <SCORE>  (22) 
-13.885

>  <name>  (22) 
21

>  <ligand_id>  (22) 
21

>  <original_smiles>  (22) 
[H]c1c([H])c([H])c2c(c1[H])C([H])([H])C([H])([H])C([H])([H])C2([H])N([H])C(=O)C1([H])N(C(=O)C([H])(N([H])C(=O)C([H])(N([H])C([H])([H])[H])C([H])([H])[H])C(C([H])([H])[H])(C([H])([H])[H])C([H])([H])[H])C([H])([H])c2c([H])c(OC([H])([H])C([H])([H])C(=O)N(C([H])([H])[H])C([H])([H])c3c([H])c([H])c(Cl)c(N([H])C(=O)N4C([H])([H])C([H])([H])C([H])([H])C([H])(n5nc(-c6c([H])c([H])c(Oc7c([H])c([H])c(F)c([H])c7F)c([H])c6[H])c(C(=O)N([H])[H])c5N([H])[H])C4([H])[H])c3[H])c([H])c([H])c2C1([H])[H]

>  <smiles>  (22) 
[H]c1c([H])c([H])c2c(c1[H])C([H])([H])C([H])([H])C([H])([H])C2([H])N([H])C(=O)C1([H])N(C(=O)C([H])(N([H])C(=O)C([H])(N([H])C([H])([H])[H])C([H])([H])[H])C(C([H])([H])[H])(C([H])([H])[H])C([H])([H])[H])C([H])([H])c2c([H])c(OC([H])([H])C([H])([H])C(=O)N(C([H])([H])[H])C([H])([H])c3c([H])c([H])c(Cl)c(N([H])C(=O)N4C([H])([H])C([H])([H])C([H])([H])C([H])(n5nc(-c6c([H])c([H])c(Oc7c([H])c([H])c(F)c([H])c7F)c([H])c6[H])c(C(=O)N([H])[H])c5N([H])[H])C4([H])[H])c3[H])c([H])c([H])c2C1([H])[H]

$$$$
22:0:0
     RDKit          3D

101110  0  0  1  0  0  0  0  0999 V2000
  -31.0370  -20.0930   21.1130 C   0  0  0  0  0  3  0  0  0  0  0  0
  -31.8560  -17.7940   20.9290 C   0  0  0  0  0  3  0  0  0  0  0  0
  -32.1080  -19.1810   21.0410 C   0  0  0  0  0  0  0  0  0  0  0  0
  -29.7010  -19.6630   20.9860 C   0  0  0  0  0  0  0  0  0  0  0  0
  -30.5250  -17.3110   20.8510 C   0  0  0  0  0  0  0  0  0  0  0  0
  -29.4550  -18.2590   20.8780 C   0  0  0  0  0  0  0  0  0  0  0  0
  -27.8320  -17.6780   20.7800 Cl  0  0  0  0  0  0  0  0  0  0  0  0
  -30.9490  -14.8780   20.2740 C   0  0  0  0  0  0  0  0  0  0  0  0
  -30.7180  -12.6390   19.2270 C   0  0  0  0  0  2  0  0  0  0  0  0
  -29.7530  -12.7180   18.0240 C   0  0  0  0  0  2  0  0  0  0  0  0
  -28.2940  -12.5400   18.4850 C   0  0  0  0  0  2  0  0  0  0  0  0
  -27.9360  -13.4390   19.6980 C   0  0  0  0  0  3  0  0  0  0  0  0
  -29.0100  -13.3360   20.8040 C   0  0  0  0  0  2  0  0  0  0  0  0
  -30.3130  -13.6700   20.2010 N   0  0  0  0  0  0  0  0  0  0  0  0
  -32.0600  -15.0630   19.7700 O   0  0  0  0  0  0  0  0  0  0  0  0
  -30.2290  -15.8960   20.8090 N   0  0  0  0  0  0  0  0  0  0  0  0
  -29.2880  -15.6510   21.0800 H   0  0  0  0  0  0  0  0  0  0  0  0
  -25.5560  -14.0060   20.4880 C   0  0  0  0  0  0  0  0  0  0  0  0
  -24.5040  -13.2200   20.8650 C   0  0  0  0  0  0  0  0  0  0  0  0
  -24.9700  -11.8710   20.7810 C   0  0  0  0  0  0  0  0  0  0  0  0
  -26.6010  -13.1400   20.2050 N   0  0  0  0  0  0  0  0  0  0  0  0
  -26.2510  -11.8480   20.4360 N   0  0  0  0  0  0  0  0  0  0  0  0
  -24.2530  -10.6030   20.9570 C   0  0  0  0  0  0  0  0  0  0  0  0
  -24.6680   -9.6440   21.9070 C   0  0  0  0  0  3  0  0  0  0  0  0
  -23.9510   -8.4390   22.0680 C   0  0  0  0  0  3  0  0  0  0  0  0
  -22.8050   -8.1850   21.2800 C   0  0  0  0  0  0  0  0  0  0  0  0
  -22.4080   -9.1330   20.3180 C   0  0  0  0  0  3  0  0  0  0  0  0
  -23.1260  -10.3300   20.1560 C   0  0  0  0  0  3  0  0  0  0  0  0
  -22.0600   -7.0320   21.3500 O   0  0  0  0  0  0  0  0  0  0  0  0
  -21.9030   -6.3490   22.5290 C   0  0  0  0  0  0  0  0  0  0  0  0
  -21.3320   -6.9530   23.6700 C   0  0  0  0  0  3  0  0  0  0  0  0
  -21.1240   -6.1950   24.8400 C   0  0  0  0  0  3  0  0  0  0  0  0
  -21.4780   -4.8320   24.8680 C   0  0  0  0  0  0  0  0  0  0  0  0
  -22.0410   -4.2270   23.7310 C   0  0  0  0  0  3  0  0  0  0  0  0
  -22.2500   -4.9830   22.5640 C   0  0  0  0  0  0  0  0  0  0  0  0
  -22.7740   -4.3890   21.4640 F   0  0  0  0  0  0  0  0  0  0  0  0
  -21.2710   -4.1020   25.9890 F   0  0  0  0  0  0  0  0  0  0  0  0
  -23.1140  -13.6840   21.1950 C   0  0  0  0  0  0  0  0  0  0  0  0
  -22.4220  -12.9670   22.0730 N   0  0  0  0  0  0  0  0  0  0  0  0
  -22.6530  -14.7180   20.7120 O   0  0  0  0  0  0  0  0  0  0  0  0
  -22.8070  -12.1270   22.4800 H   0  0  0  0  0  0  0  0  0  0  0  0
  -21.4920  -13.2570   22.3400 H   0  0  0  0  0  0  0  0  0  0  0  0
  -25.7080  -15.3820   20.3480 N   0  0  0  0  0  0  0  0  0  0  0  0
  -24.9490  -16.0310   20.5190 H   0  0  0  0  0  0  0  0  0  0  0  0
  -26.5670  -15.8440   20.0760 H   0  0  0  0  0  0  0  0  0  0  0  0
  -34.4280  -19.2090   21.8600 C   0  0  0  0  0  3  0  0  0  0  0  0
  -33.4710  -19.7430   21.0740 C   0  0  0  0  0  0  0  0  0  0  0  0
  -35.8480  -19.7470   21.9750 C   0  0  0  0  0  2  0  0  0  0  0  0
  -33.7910  -20.9170   20.1490 C   0  0  0  0  0  2  0  0  0  0  0  0
  -36.0200  -21.1240   21.3070 C   0  0  0  0  0  2  0  0  0  0  0  0
  -35.2940  -21.1670   19.9590 C   0  0  0  0  0  2  0  0  0  0  0  0
  -28.5650  -20.7250   20.9840 C   0  0  0  0  0  2  0  0  0  0  0  0
  -28.8420  -21.9970   20.2250 N   0  0  1  0  0  4  0  0  0  0  0  0
  -29.5660  -22.4640   20.7510 H   0  0  0  0  0  0  0  0  0  0  0  0
  -28.6090  -21.2450   17.8700 C   0  0  0  0  0  2  0  0  0  0  0  0
  -29.3760  -21.7460   18.8520 C   0  0  0  0  0  3  0  0  0  0  0  0
  -27.7060  -22.9800   20.2530 C   0  0  0  0  0  2  0  0  0  0  0  0
  -28.1180  -24.4020   19.7710 C   0  0  0  0  0  0  0  0  0  0  0  0
  -28.5860  -24.5880   18.6420 O   0  0  0  0  0  0  0  0  0  0  0  0
  -27.9000  -25.5990   20.7200 C   0  0  0  0  0  2  0  0  0  0  0  0
  -28.0840  -26.8670   20.0460 O   0  0  0  0  0  0  0  0  0  0  0  0
  -24.6130  -32.0600   23.4500 C   0  0  0  0  0  0  0  0  0  0  0  0
  -26.9750  -27.6830   20.0780 C   0  0  0  0  0  0  0  0  0  0  0  0
  -23.3010  -30.7910   21.7820 C   0  0  0  0  0  3  0  0  0  0  0  0
  -24.6480  -29.2800   20.2290 C   0  0  0  0  0  0  0  0  0  0  0  0
  -25.8280  -31.0740   21.5070 C   0  0  0  0  0  2  0  0  0  0  0  0
  -25.8440  -29.7340   20.7990 C   0  0  0  0  0  0  0  0  0  0  0  0
  -27.0170  -28.9430   20.7170 C   0  0  0  0  0  3  0  0  0  0  0  0
  -25.7630  -27.2480   19.4930 C   0  0  0  0  0  3  0  0  0  0  0  0
  -24.6020  -28.0390   19.5720 C   0  0  0  0  0  3  0  0  0  0  0  0
  -23.4380  -30.1810   20.3640 C   0  0  0  0  0  2  0  0  0  0  0  0
  -24.6020  -31.3190   22.3060 N   0  0  0  0  0  0  0  0  0  0  0  0
  -23.5610  -32.3420   24.0400 O   0  0  0  0  0  0  0  0  0  0  0  0
  -22.6460  -29.7420   22.7100 C   0  0  0  0  0  0  0  0  0  0  0  0
  -21.3260  -29.5450   22.5470 N   0  0  0  0  0  0  0  0  0  0  0  0
  -23.3200  -29.1130   23.5280 O   0  0  0  0  0  0  0  0  0  0  0  0
  -20.8460  -30.1010   21.8530 H   0  0  0  0  0  0  0  0  0  0  0  0
  -17.9760  -28.2340   22.8840 C   0  0  0  0  0  0  0  0  0  0  0  0
  -20.5060  -28.5850   23.2830 C   0  0  0  0  0  3  0  0  0  0  0  0
  -20.6890  -27.1560   22.7230 C   0  0  0  0  0  2  0  0  0  0  0  0
  -19.6530  -26.7890   21.6550 C   0  0  0  0  0  2  0  0  0  0  0  0
  -18.2350  -26.8880   22.2260 C   0  0  0  0  0  2  0  0  0  0  0  0
  -19.0430  -29.0390   23.3640 C   0  0  0  0  0  0  0  0  0  0  0  0
  -18.7530  -30.2960   23.9350 C   0  0  0  0  0  3  0  0  0  0  0  0
  -17.4260  -30.7550   24.0270 C   0  0  0  0  0  3  0  0  0  0  0  0
  -16.3700  -29.9490   23.5650 C   0  0  0  0  0  3  0  0  0  0  0  0
  -16.6450  -28.6900   23.0020 C   0  0  0  0  0  3  0  0  0  0  0  0
  -25.9420  -32.6080   24.0580 C   0  0  0  0  0  3  0  0  0  0  0  0
  -25.7090  -34.0080   24.4360 N   0  0  0  0  0  0  0  0  0  0  0  0
  -26.0840  -35.0650   23.7030 C   0  0  0  0  0  0  0  0  0  0  0  0
  -26.7370  -34.9600   22.6620 O   0  0  0  0  0  0  0  0  0  0  0  0
  -25.1230  -34.1660   25.2430 H   0  0  0  0  0  0  0  0  0  0  0  0
  -24.4400  -36.9510   23.4320 C   0  0  0  0  0  1  0  0  0  0  0  0
  -25.6720  -36.4620   24.2080 C   0  0  0  0  0  3  0  0  0  0  0  0
  -27.8600  -37.2170   25.0270 C   0  0  0  0  0  1  0  0  0  0  0  0
  -26.7530  -37.4660   24.1060 N   0  0  0  0  0  0  0  0  0  0  0  0
  -26.3950  -38.3990   24.2930 H   0  0  0  0  0  0  0  0  0  0  0  0
  -26.4540  -31.7710   25.2950 C   0  0  1  0  0  0  0  0  0  0  0  0
  -25.3720  -31.5220   26.3720 C   0  0  0  0  0  1  0  0  0  0  0  0
  -26.9840  -30.3930   24.8350 C   0  0  0  0  0  1  0  0  0  0  0  0
  -27.6460  -32.4970   25.9650 C   0  0  0  0  0  1  0  0  0  0  0  0
  2  3  2  0
  3 47  1  0
  3  1  1  0
  4  1  2  0
  5  6  2  0
  5  2  1  0
  6  4  1  0
  7  6  1  0
  8 16  1  0
  9 14  1  0
 10 11  1  0
 10  9  1  0
 12 11  1  0
 12 21  1  0
 12 13  1  0
 14  8  1  0
 14 13  1  0
 15  8  2  0
 16  5  1  0
 16 17  1  0
 18 19  2  0
 19 38  1  0
 20 19  1  0
 20 23  1  0
 21 22  1  0
 21 18  1  0
 22 20  2  0
 23 24  1  0
 24 25  2  0
 26 29  1  0
 26 25  1  0
 27 26  2  0
 28 27  1  0
 28 23  2  0
 29 30  1  0
 30 35  2  0
 30 31  1  0
 31 32  2  0
 32 33  1  0
 33 37  1  0
 34 33  2  0
 35 34  1  0
 36 35  1  0
 38 39  1  0
 39 42  1  0
 39 41  1  0
 40 38  2  0
 43 18  1  0
 43 44  1  0
 45 43  1  0
 46 48  1  0
 47 46  2  0
 49 47  1  0
 50 48  1  0
 51 49  1  0
 51 50  1  0
 52  4  1  0
 53 57  1  0
 53 54  1  1
 53 52  1  0
 55 56  2  0
 56 53  1  0
 58 57  1  0
 58 60  1  0
 59 58  2  0
 61 63  1  0
 61 60  1  0
 62 73  2  0
 63 68  1  0
 64 72  1  0
 64 74  1  0
 65 71  1  0
 65 67  1  0
 66 72  1  0
 67 66  1  0
 68 67  2  0
 69 70  1  0
 69 63  2  0
 70 65  2  0
 71 64  1  0
 72 62  1  0
 74 76  2  0
 75 74  1  0
 77 75  1  0
 78 87  2  0
 78 83  1  0
 79 75  1  0
 79 83  1  0
 80 79  1  0
 81 82  1  0
 81 80  1  0
 82 78  1  0
 83 84  2  0
 84 85  1  0
 86 85  2  0
 87 86  1  0
 88 62  1  0
 88 89  1  0
 88 98  1  0
 89 92  1  0
 90 94  1  0
 90 89  1  0
 91 90  2  0
 94 93  1  0
 96 94  1  0
 96 97  1  0
 96 95  1  0
 98101  1  1
 98 99  1  0
100 98  1  0
M  ISO  4   8 100  16 100  60 101  61 101
M  END
>  <TORSDO>  (23) 
F 23

>  <SCORE>  (23) 
-12.510

>  <name>  (23) 
22

>  <ligand_id>  (23) 
22

>  <original_smiles>  (23) 
[H]C([H])=C([H])[N+]([H])(C([H])([H])C(=O)C([H])([H])Oc1c([H])c([H])c2c(c1[H])C([H])([H])N(C(=O)C([H])(N([H])C(=O)C([H])(N([H])C([H])([H])[H])C([H])([H])[H])C(C([H])([H])[H])(C([H])([H])[H])C([H])([H])[H])C([H])(C(=O)N([H])C1([H])c3c([H])c([H])c([H])c([H])c3C([H])([H])C([H])([H])C1([H])[H])C2([H])[H])C([H])([H])c1c([H])c(C2=C([H])C([H])([H])C([H])([H])C([H])([H])C2([H])[H])c([H])c(N([H])C(=O)N2C([H])([H])C([H])([H])C([H])([H])C([H])(n3nc(-c4c([H])c([H])c(Oc5c([H])c([H])c(F)c([H])c5F)c([H])c4[H])c(C(=O)N([H])[H])c3N([H])[H])C2([H])[H])c1Cl

>  <smiles>  (23) 
[H]C([H])=C([H])[N+]([H])(C([H])([H])C(=O)C([H])([H])Oc1c([H])c([H])c2c(c1[H])C([H])([H])N(C(=O)C([H])(N([H])C(=O)C([H])(N([H])C([H])([H])[H])C([H])([H])[H])C(C([H])([H])[H])(C([H])([H])[H])C([H])([H])[H])C([H])(C(=O)N([H])C1([H])c3c([H])c([H])c([H])c([H])c3C([H])([H])C([H])([H])C1([H])[H])C2([H])[H])C([H])([H])c1c([H])c(C2=C([H])C([H])([H])C([H])([H])C([H])([H])C2([H])[H])c([H])c(N([H])C(=O)N2C([H])([H])C([H])([H])C([H])([H])C([H])(n3nc(-c4c([H])c([H])c(Oc5c([H])c([H])c(F)c([H])c5F)c([H])c4[H])c(C(=O)N([H])[H])c3N([H])[H])C2([H])[H])c1Cl

$$$$
23:0:0
     RDKit          3D

 95103  0  0  1  0  0  0  0  0999 V2000
  -28.7870  -21.4190   20.6720 C   0  0  0  0  0  0  0  0  0  0  0  0
  -27.8230  -20.5900   18.5440 C   0  0  0  0  0  1  0  0  0  0  0  0
  -28.5750  -20.3740   19.7900 N   0  0  0  0  0  0  0  0  0  0  0  0
  -29.5030  -21.2610   21.6660 O   0  0  0  0  0  0  0  0  0  0  0  0
  -28.0340  -22.6920   20.4670 C   0  0  0  0  0  3  0  0  0  0  0  0
  -28.5460  -23.9470   20.6910 C   0  0  0  0  0  3  0  0  0  0  0  0
  -27.7130  -25.2600   20.8110 C   0  0  0  0  0  2  0  0  0  0  0  0
  -28.1220  -26.5070   20.1370 O   0  0  0  0  0  0  0  0  0  0  0  0
  -24.5840  -31.9470   23.2170 C   0  0  0  0  0  0  0  0  0  0  0  0
  -27.0660  -27.4180   20.0680 C   0  0  0  0  0  0  0  0  0  0  0  0
  -23.3150  -30.5590   21.6130 C   0  0  0  0  0  3  0  0  0  0  0  0
  -24.7130  -29.0180   20.1310 C   0  0  0  0  0  0  0  0  0  0  0  0
  -25.8430  -30.8830   21.3390 C   0  0  0  0  0  2  0  0  0  0  0  0
  -25.8980  -29.5050   20.6940 C   0  0  0  0  0  0  0  0  0  0  0  0
  -27.0820  -28.7140   20.6620 C   0  0  0  0  0  3  0  0  0  0  0  0
  -25.8740  -26.9960   19.4460 C   0  0  0  0  0  3  0  0  0  0  0  0
  -24.7000  -27.7690   19.4940 C   0  0  0  0  0  3  0  0  0  0  0  0
  -23.4810  -29.8900   20.2220 C   0  0  0  0  0  2  0  0  0  0  0  0
  -24.6010  -31.1460   22.1130 N   0  0  0  0  0  0  0  0  0  0  0  0
  -23.5230  -32.2240   23.7930 O   0  0  0  0  0  0  0  0  0  0  0  0
  -22.6890  -29.5370   22.5920 C   0  0  0  0  0  0  0  0  0  0  0  0
  -21.3650  -29.3350   22.4870 N   0  0  0  0  0  0  0  0  0  0  0  0
  -23.3940  -28.9280   23.4040 O   0  0  0  0  0  0  0  0  0  0  0  0
  -20.8560  -29.8820   21.8080 H   0  0  0  0  0  0  0  0  0  0  0  0
  -18.0300  -28.0390   23.0030 C   0  0  0  0  0  0  0  0  0  0  0  0
  -20.5760  -28.3930   23.2810 C   0  0  0  0  0  3  0  0  0  0  0  0
  -20.7310  -26.9500   22.7510 C   0  0  0  0  0  2  0  0  0  0  0  0
  -19.6490  -26.5600   21.7380 C   0  0  0  0  0  2  0  0  0  0  0  0
  -18.2580  -26.6760   22.3690 C   0  0  0  0  0  2  0  0  0  0  0  0
  -19.1180  -28.8520   23.4180 C   0  0  0  0  0  0  0  0  0  0  0  0
  -18.8530  -30.1260   23.9670 C   0  0  0  0  0  3  0  0  0  0  0  0
  -17.5310  -30.5860   24.1100 C   0  0  0  0  0  3  0  0  0  0  0  0
  -16.4570  -29.7710   23.7130 C   0  0  0  0  0  3  0  0  0  0  0  0
  -16.7070  -28.5010   23.1640 C   0  0  0  0  0  3  0  0  0  0  0  0
  -25.8920  -32.5710   23.7920 C   0  0  0  0  0  3  0  0  0  0  0  0
  -26.4780  -31.7700   25.0170 C   0  0  1  0  0  0  0  0  0  0  0  0
  -25.4360  -31.4730   26.1200 C   0  0  0  0  0  1  0  0  0  0  0  0
  -27.0820  -30.4230   24.5530 C   0  0  0  0  0  1  0  0  0  0  0  0
  -27.6280  -32.5740   25.6690 C   0  0  0  0  0  1  0  0  0  0  0  0
  -25.5910  -33.9580   24.1760 N   0  0  0  0  0  0  0  0  0  0  0  0
  -25.9060  -35.0350   23.4480 C   0  0  0  0  0  0  0  0  0  0  0  0
  -26.5590  -34.9680   22.4030 O   0  0  0  0  0  0  0  0  0  0  0  0
  -25.0180  -34.0830   24.9980 H   0  0  0  0  0  0  0  0  0  0  0  0
  -24.2010  -36.8610   23.1540 C   0  0  0  0  0  1  0  0  0  0  0  0
  -25.4260  -36.4080   23.9650 C   0  0  0  0  0  3  0  0  0  0  0  0
  -27.5590  -37.2290   24.8650 C   0  0  0  0  0  1  0  0  0  0  0  0
  -26.4690  -37.4560   23.9170 N   0  0  0  0  0  0  0  0  0  0  0  0
  -26.0690  -38.3710   24.1060 H   0  0  0  0  0  0  0  0  0  0  0  0
  -28.9350  -18.9030   19.9980 C   0  0  0  0  0  2  0  0  0  0  0  0
  -32.9950  -17.7990   21.1060 C   0  0  0  0  0  3  0  0  0  0  0  0
  -32.7660  -18.9950   20.4140 C   0  0  0  0  0  3  0  0  0  0  0  0
  -30.4060  -18.3750   20.0830 C   0  0  0  0  0  0  0  0  0  0  0  0
  -30.7460  -17.0090   20.4710 C   0  0  0  0  0  0  0  0  0  0  0  0
  -32.0120  -16.7980   21.0880 C   0  0  0  0  0  0  0  0  0  0  0  0
  -31.5030  -19.2640   19.8630 C   0  0  0  0  0  0  0  0  0  0  0  0
  -32.3030  -15.6070   21.6680 F   0  0  0  0  0  0  0  0  0  0  0  0
  -31.4200  -20.6560   18.8280 Cl  0  0  0  0  0  0  0  0  0  0  0  0
  -30.4470  -14.6900   19.5840 C   0  0  0  0  0  0  0  0  0  0  0  0
  -29.9420  -12.5530   18.4130 C   0  0  0  0  0  2  0  0  0  0  0  0
  -28.8290  -12.7550   17.3640 C   0  0  0  0  0  2  0  0  0  0  0  0
  -27.4470  -12.5530   18.0160 C   0  0  0  0  0  2  0  0  0  0  0  0
  -27.2950  -13.3480   19.3390 C   0  0  0  0  0  3  0  0  0  0  0  0
  -28.5170  -13.1660   20.2690 C   0  0  0  0  0  2  0  0  0  0  0  0
  -29.7150  -13.5320   19.5040 N   0  0  0  0  0  0  0  0  0  0  0  0
  -31.4870  -14.7960   18.9300 O   0  0  0  0  0  0  0  0  0  0  0  0
  -29.9500  -15.7980   20.2360 N   0  0  0  0  0  0  0  0  0  0  0  0
  -29.0080  -15.7680   20.5940 H   0  0  0  0  0  0  0  0  0  0  0  0
  -25.0400  -13.8750   20.4540 C   0  0  0  0  0  0  0  0  0  0  0  0
  -24.0450  -13.0710   20.9480 C   0  0  0  0  0  0  0  0  0  0  0  0
  -24.5050  -11.7280   20.7800 C   0  0  0  0  0  0  0  0  0  0  0  0
  -26.0390  -13.0210   20.0160 N   0  0  0  0  0  0  0  0  0  0  0  0
  -25.7320  -11.7220   20.2700 N   0  0  0  0  0  0  0  0  0  0  0  0
  -23.8220  -10.4480   21.0160 C   0  0  0  0  0  0  0  0  0  0  0  0
  -24.3360   -9.4920   21.9220 C   0  0  0  0  0  3  0  0  0  0  0  0
  -23.6520   -8.2770   22.1460 C   0  0  0  0  0  3  0  0  0  0  0  0
  -22.4400   -8.0100   21.4650 C   0  0  0  0  0  0  0  0  0  0  0  0
  -21.9450   -8.9530   20.5490 C   0  0  0  0  0  3  0  0  0  0  0  0
  -22.6300  -10.1590   20.3220 C   0  0  0  0  0  3  0  0  0  0  0  0
  -21.7200   -6.8470   21.6000 O   0  0  0  0  0  0  0  0  0  0  0  0
  -21.7030   -6.1430   22.7780 C   0  0  0  0  0  0  0  0  0  0  0  0
  -21.2270   -6.7110   23.9790 C   0  0  0  0  0  3  0  0  0  0  0  0
  -21.1620   -5.9300   25.1510 C   0  0  0  0  0  3  0  0  0  0  0  0
  -21.5650   -4.5810   25.1230 C   0  0  0  0  0  0  0  0  0  0  0  0
  -22.0370   -4.0140   23.9270 C   0  0  0  0  0  3  0  0  0  0  0  0
  -22.1030   -4.7910   22.7580 C   0  0  0  0  0  0  0  0  0  0  0  0
  -22.5390   -4.2320   21.6030 F   0  0  0  0  0  0  0  0  0  0  0  0
  -21.4980   -3.8300   26.2470 F   0  0  0  0  0  0  0  0  0  0  0  0
  -22.7040  -13.5160   21.4580 C   0  0  0  0  0  0  0  0  0  0  0  0
  -22.1350  -12.7950   22.4180 N   0  0  0  0  0  0  0  0  0  0  0  0
  -22.1700  -14.5430   21.0400 O   0  0  0  0  0  0  0  0  0  0  0  0
  -22.5820  -11.9710   22.7920 H   0  0  0  0  0  0  0  0  0  0  0  0
  -21.2420  -13.0800   22.7960 H   0  0  0  0  0  0  0  0  0  0  0  0
  -25.1730  -15.2530   20.3140 N   0  0  0  0  0  0  0  0  0  0  0  0
  -24.4330  -15.9040   20.5540 H   0  0  0  0  0  0  0  0  0  0  0  0
  -25.9610  -15.6970   19.8550 H   0  0  0  0  0  0  0  0  0  0  0  0
  1  4  2  0
  2  3  1  0
  3 49  1  0
  3  1  1  0
  5  1  1  0
  5  6  2  0
  6  7  1  0
  8  7  1  0
  9 20  2  0
 10  8  1  0
 10 15  1  0
 11 19  1  0
 11 21  1  0
 12 18  1  0
 12 14  1  0
 13 19  1  0
 14 13  1  0
 15 14  2  0
 16 17  1  0
 16 10  2  0
 17 12  2  0
 18 11  1  0
 19  9  1  0
 21 23  2  0
 22 21  1  0
 24 22  1  0
 25 34  2  0
 25 30  1  0
 26 22  1  0
 26 30  1  0
 27 26  1  0
 28 29  1  0
 28 27  1  0
 29 25  1  0
 30 31  2  0
 31 32  1  0
 33 32  2  0
 34 33  1  0
 35  9  1  0
 35 40  1  0
 35 36  1  0
 36 39  1  1
 36 37  1  0
 38 36  1  0
 40 43  1  0
 41 45  1  0
 41 40  1  0
 42 41  2  0
 45 44  1  0
 47 45  1  0
 47 48  1  0
 47 46  1  0
 49 52  1  0
 51 50  2  0
 52 53  1  0
 53 54  2  0
 54 50  1  0
 54 56  1  0
 55 52  2  0
 55 51  1  0
 57 55  1  0
 58 66  1  0
 59 64  1  0
 60 61  1  0
 60 59  1  0
 62 61  1  0
 62 71  1  0
 62 63  1  0
 64 58  1  0
 64 63  1  0
 65 58  2  0
 66 53  1  0
 66 67  1  0
 68 69  2  0
 69 88  1  0
 70 69  1  0
 70 73  1  0
 71 72  1  0
 71 68  1  0
 72 70  2  0
 73 74  1  0
 74 75  2  0
 76 79  1  0
 76 75  1  0
 77 76  2  0
 78 77  1  0
 78 73  2  0
 79 80  1  0
 80 81  1  0
 81 82  2  0
 83 82  1  0
 83 87  1  0
 84 83  2  0
 85 80  2  0
 85 84  1  0
 86 85  1  0
 88 89  1  0
 89 91  1  0
 89 92  1  0
 90 88  2  0
 93 68  1  0
 93 94  1  0
 95 93  1  0
M  ISO  4   7 101   8 101  58 100  66 100
M  END
>  <TORSDO>  (24) 
F 20

>  <SCORE>  (24) 
-11.818

>  <name>  (24) 
23

>  <ligand_id>  (24) 
23

>  <original_smiles>  (24) 
[H]C(C(=O)N(C([H])([H])[H])C([H])([H])c1c(Cl)c([H])c([H])c(F)c1N([H])C(=O)N1C([H])([H])C([H])([H])C([H])([H])C([H])(n2nc(-c3c([H])c([H])c(Oc4c([H])c([H])c(F)c([H])c4F)c([H])c3[H])c(C(=O)N([H])[H])c2N([H])[H])C1([H])[H])=C([H])C([H])([H])Oc1c([H])c([H])c2c(c1[H])C([H])([H])N(C(=O)C([H])(N([H])C(=O)C([H])(N([H])C([H])([H])[H])C([H])([H])[H])C(C([H])([H])[H])(C([H])([H])[H])C([H])([H])[H])C([H])(C(=O)N([H])C1([H])c3c([H])c([H])c([H])c([H])c3C([H])([H])C([H])([H])C1([H])[H])C2([H])[H]

>  <smiles>  (24) 
[H]C(C(=O)N(C([H])([H])[H])C([H])([H])c1c(Cl)c([H])c([H])c(F)c1N([H])C(=O)N1C([H])([H])C([H])([H])C([H])([H])C([H])(n2nc(-c3c([H])c([H])c(Oc4c([H])c([H])c(F)c([H])c4F)c([H])c3[H])c(C(=O)N([H])[H])c2N([H])[H])C1([H])[H])=C([H])C([H])([H])Oc1c([H])c([H])c2c(c1[H])C([H])([H])N(C(=O)C([H])(N([H])C(=O)C([H])(N([H])C([H])([H])[H])C([H])([H])[H])C(C([H])([H])[H])(C([H])([H])[H])C([H])([H])[H])C([H])(C(=O)N([H])C1([H])c3c([H])c([H])c([H])c([H])c3C([H])([H])C([H])([H])C1([H])[H])C2([H])[H]

$$$$
24:0:0
     RDKit          3D

 99108  0  0  1  0  0  0  0  0999 V2000
  -30.4430  -21.6550   20.4830 C   0  0  0  0  0  2  0  0  0  0  0  0
  -29.5610  -23.2100   18.5330 C   0  0  0  0  0  0  0  0  0  0  0  0
  -28.7410  -24.2830   18.7790 C   0  0  0  0  0  3  0  0  0  0  0  0
  -29.7330  -22.5520   17.1800 C   0  0  0  0  0  2  0  0  0  0  0  0
  -31.2440  -22.5340   16.9850 C   0  0  0  0  0  2  0  0  0  0  0  0
  -31.7800  -22.2240   18.3960 C   0  0  0  0  0  2  0  0  0  0  0  0
  -30.7080  -22.6310   19.3490 N   0  0  2  0  0  4  0  0  0  0  0  0
  -31.1180  -23.4170   19.8310 H   0  0  0  0  0  0  0  0  0  0  0  0
  -28.5380  -25.1430   20.0500 C   0  0  0  0  0  2  0  0  0  0  0  0
  -28.5280  -26.6060   19.8900 O   0  0  0  0  0  0  0  0  0  0  0  0
  -24.6450  -31.7750   23.1350 C   0  0  0  0  0  0  0  0  0  0  0  0
  -27.3390  -27.3370   19.9650 C   0  0  0  0  0  0  0  0  0  0  0  0
  -23.4640  -30.3930   21.4630 C   0  0  0  0  0  3  0  0  0  0  0  0
  -24.9320  -28.8710   20.0260 C   0  0  0  0  0  0  0  0  0  0  0  0
  -25.9960  -30.7450   21.2910 C   0  0  0  0  0  2  0  0  0  0  0  0
  -26.0920  -29.3790   20.6210 C   0  0  0  0  0  0  0  0  0  0  0  0
  -27.2970  -28.6230   20.5770 C   0  0  0  0  0  3  0  0  0  0  0  0
  -26.1470  -26.8530   19.3820 C   0  0  0  0  0  3  0  0  0  0  0  0
  -24.9570  -27.6110   19.4030 C   0  0  0  0  0  3  0  0  0  0  0  0
  -23.6900  -29.7360   20.0750 C   0  0  0  0  0  2  0  0  0  0  0  0
  -24.7210  -30.9890   22.0200 N   0  0  0  0  0  0  0  0  0  0  0  0
  -23.5570  -32.0330   23.6710 O   0  0  0  0  0  0  0  0  0  0  0  0
  -22.8040  -29.3590   22.4060 C   0  0  0  0  0  0  0  0  0  0  0  0
  -21.4760  -29.1920   22.2850 N   0  0  0  0  0  0  0  0  0  0  0  0
  -23.4870  -28.7090   23.2000 O   0  0  0  0  0  0  0  0  0  0  0  0
  -20.9830  -29.7630   21.6130 H   0  0  0  0  0  0  0  0  0  0  0  0
  -18.0940  -28.0200   22.8040 C   0  0  0  0  0  0  0  0  0  0  0  0
  -20.6600  -28.2370   23.0370 C   0  0  0  0  0  3  0  0  0  0  0  0
  -20.7340  -26.8250   22.4090 C   0  0  0  0  0  2  0  0  0  0  0  0
  -19.6110  -26.5550   21.4030 C   0  0  0  0  0  2  0  0  0  0  0  0
  -18.2420  -26.6950   22.0740 C   0  0  0  0  0  2  0  0  0  0  0  0
  -19.2300  -28.7510   23.2420 C   0  0  0  0  0  0  0  0  0  0  0  0
  -19.0360  -29.9950   23.8820 C   0  0  0  0  0  3  0  0  0  0  0  0
  -17.7390  -30.5050   24.0840 C   0  0  0  0  0  3  0  0  0  0  0  0
  -16.6200  -29.7710   23.6610 C   0  0  0  0  0  3  0  0  0  0  0  0
  -16.7980  -28.5290   23.0260 C   0  0  0  0  0  3  0  0  0  0  0  0
  -25.9210  -32.4050   23.7760 C   0  0  0  0  0  3  0  0  0  0  0  0
  -26.4300  -31.6190   25.0470 C   0  0  1  0  0  0  0  0  0  0  0  0
  -25.3290  -31.3580   26.1020 C   0  0  0  0  0  1  0  0  0  0  0  0
  -27.0220  -30.2490   24.6370 C   0  0  0  0  0  1  0  0  0  0  0  0
  -27.5720  -32.4040   25.7320 C   0  0  0  0  0  1  0  0  0  0  0  0
  -25.6010  -33.7970   24.1250 N   0  0  0  0  0  0  0  0  0  0  0  0
  -25.9260  -34.8610   23.3790 C   0  0  0  0  0  0  0  0  0  0  0  0
  -26.5960  -34.7770   22.3480 O   0  0  0  0  0  0  0  0  0  0  0  0
  -25.0090  -33.9360   24.9300 H   0  0  0  0  0  0  0  0  0  0  0  0
  -24.1850  -36.6490   23.0420 C   0  0  0  0  0  1  0  0  0  0  0  0
  -25.4230  -36.2400   23.8540 C   0  0  0  0  0  3  0  0  0  0  0  0
  -27.5500  -37.1310   24.7010 C   0  0  0  0  0  1  0  0  0  0  0  0
  -26.4450  -37.3040   23.7630 N   0  0  0  0  0  0  0  0  0  0  0  0
  -26.0260  -38.2150   23.9300 H   0  0  0  0  0  0  0  0  0  0  0  0
  -31.4370  -19.2550   20.8000 C   0  0  0  0  0  3  0  0  0  0  0  0
  -31.3400  -17.8360   20.8650 C   0  0  0  0  0  3  0  0  0  0  0  0
  -30.3790  -20.0800   20.3270 C   0  0  0  0  0  0  0  0  0  0  0  0
  -29.1870  -19.4030   19.9390 C   0  0  0  0  0  0  0  0  0  0  0  0
  -29.0410  -17.9750   20.1230 C   0  0  0  0  0  0  0  0  0  0  0  0
  -30.1430  -17.1500   20.5350 C   0  0  0  0  0  0  0  0  0  0  0  0
  -28.0520  -20.2300   19.3300 C   0  0  0  0  0  1  0  0  0  0  0  0
  -30.7390  -14.6190   20.2370 C   0  0  0  0  0  0  0  0  0  0  0  0
  -30.4300  -12.4050   19.1480 C   0  0  0  0  0  2  0  0  0  0  0  0
  -29.4770  -12.5880   17.9470 C   0  0  0  0  0  2  0  0  0  0  0  0
  -28.0090  -12.4420   18.3960 C   0  0  0  0  0  2  0  0  0  0  0  0
  -27.6700  -13.2850   19.6560 C   0  0  0  0  0  3  0  0  0  0  0  0
  -28.7560  -13.1140   20.7510 C   0  0  0  0  0  2  0  0  0  0  0  0
  -30.0700  -13.4230   20.1550 N   0  0  0  0  0  0  0  0  0  0  0  0
  -31.8880  -14.7470   19.8110 O   0  0  0  0  0  0  0  0  0  0  0  0
  -29.9930  -15.6870   20.6470 N   0  0  0  0  0  0  0  0  0  0  0  0
  -29.0680  -15.3990   20.9380 H   0  0  0  0  0  0  0  0  0  0  0  0
  -25.2760  -13.8550   20.4300 C   0  0  0  0  0  0  0  0  0  0  0  0
  -24.2270  -13.0810   20.8330 C   0  0  0  0  0  0  0  0  0  0  0  0
  -24.6930  -11.7380   20.7760 C   0  0  0  0  0  0  0  0  0  0  0  0
  -26.3280  -12.9890   20.1660 N   0  0  0  0  0  0  0  0  0  0  0  0
  -25.9790  -11.7050   20.4310 N   0  0  0  0  0  0  0  0  0  0  0  0
  -23.9670  -10.4780   20.9700 C   0  0  0  0  0  0  0  0  0  0  0  0
  -24.3960   -9.5170   21.9070 C   0  0  0  0  0  3  0  0  0  0  0  0
  -23.6680   -8.3210   22.0910 C   0  0  0  0  0  3  0  0  0  0  0  0
  -22.4970   -8.0810   21.3350 C   0  0  0  0  0  0  0  0  0  0  0  0
  -22.0850   -9.0360   20.3880 C   0  0  0  0  0  3  0  0  0  0  0  0
  -22.8130  -10.2210   20.2010 C   0  0  0  0  0  3  0  0  0  0  0  0
  -21.7400   -6.9400   21.4270 O   0  0  0  0  0  0  0  0  0  0  0  0
  -21.6600   -6.2200   22.5910 C   0  0  0  0  0  0  0  0  0  0  0  0
  -21.1970   -6.7980   23.7940 C   0  0  0  0  0  3  0  0  0  0  0  0
  -21.0640   -6.0030   24.9500 C   0  0  0  0  0  3  0  0  0  0  0  0
  -21.3860   -4.6330   24.9050 C   0  0  0  0  0  0  0  0  0  0  0  0
  -21.8440   -4.0560   23.7070 C   0  0  0  0  0  3  0  0  0  0  0  0
  -21.9770   -4.8480   22.5530 C   0  0  0  0  0  0  0  0  0  0  0  0
  -22.3980   -4.2820   21.3960 F   0  0  0  0  0  0  0  0  0  0  0  0
  -21.2520   -3.8690   26.0140 F   0  0  0  0  0  0  0  0  0  0  0  0
  -22.8370  -13.5670   21.1400 C   0  0  0  0  0  0  0  0  0  0  0  0
  -22.1320  -12.8780   22.0310 N   0  0  0  0  0  0  0  0  0  0  0  0
  -22.3850  -14.5890   20.6280 O   0  0  0  0  0  0  0  0  0  0  0  0
  -22.5150  -12.0540   22.4670 H   0  0  0  0  0  0  0  0  0  0  0  0
  -21.2000  -13.1810   22.2790 H   0  0  0  0  0  0  0  0  0  0  0  0
  -25.3840  -15.2170   20.2510 N   0  0  0  0  0  0  0  0  0  0  0  0
  -24.6350  -15.8470   20.5150 H   0  0  0  0  0  0  0  0  0  0  0  0
  -26.2210  -15.7010   19.9490 H   0  0  0  0  0  0  0  0  0  0  0  0
  -27.6810  -17.3270   19.8380 C   0  0  1  0  0  0  0  0  0  0  0  0
  -26.6300  -18.1110   20.0770 F   0  0  0  0  0  0  0  0  0  0  0  0
  -27.6840  -16.9750   18.5540 F   0  0  0  0  0  0  0  0  0  0  0  0
  -27.4770  -16.2450   20.5900 F   0  0  0  0  0  0  0  0  0  0  0  0
  2  3  2  0
  2  7  1  0
  3  9  1  0
  4  2  1  0
  5  4  1  0
  5  6  1  0
  6  7  1  0
  7  8  1  1
  7  1  1  0
 10 12  1  0
 10  9  1  0
 11 22  2  0
 12 17  1  0
 13 21  1  0
 13 23  1  0
 14 20  1  0
 14 16  1  0
 15 21  1  0
 16 15  1  0
 17 16  2  0
 18 19  1  0
 18 12  2  0
 19 14  2  0
 20 13  1  0
 21 11  1  0
 23 25  2  0
 24 23  1  0
 26 24  1  0
 27 36  2  0
 27 32  1  0
 28 24  1  0
 28 32  1  0
 29 28  1  0
 30 31  1  0
 30 29  1  0
 31 27  1  0
 32 33  2  0
 33 34  1  0
 35 34  2  0
 36 35  1  0
 37 11  1  0
 37 42  1  0
 37 38  1  0
 38 41  1  1
 38 39  1  0
 40 38  1  0
 42 45  1  0
 43 47  1  0
 43 42  1  0
 44 43  2  0
 47 46  1  0
 49 47  1  0
 49 50  1  0
 49 48  1  0
 51 52  1  0
 53  1  1  0
 53 51  2  0
 54 55  2  0
 54 53  1  0
 55 56  1  0
 56 66  1  0
 56 52  2  0
 57 54  1  0
 58 66  1  0
 59 64  1  0
 60 61  1  0
 60 59  1  0
 62 61  1  0
 62 71  1  0
 62 63  1  0
 64 58  1  0
 64 63  1  0
 65 58  2  0
 66 67  1  0
 68 69  2  0
 69 88  1  0
 70 69  1  0
 70 73  1  0
 71 68  1  0
 71 72  1  0
 72 70  2  0
 73 74  1  0
 74 75  2  0
 76 79  1  0
 76 75  1  0
 77 76  2  0
 78 77  1  0
 78 73  2  0
 79 80  1  0
 80 81  1  0
 81 82  2  0
 83 82  1  0
 83 87  1  0
 84 83  2  0
 85 80  2  0
 85 84  1  0
 86 85  1  0
 88 89  1  0
 89 92  1  0
 89 91  1  0
 90 88  2  0
 93 68  1  0
 93 94  1  0
 95 93  1  0
 96 97  1  6
 96 55  1  0
 96 99  1  0
 98 96  1  0
M  ISO  4   9 101  10 101  58 100  66 100
M  END
>  <TORSDO>  (25) 
F 20

>  <SCORE>  (25) 
-14.546

>  <name>  (25) 
24

>  <ligand_id>  (25) 
24

>  <original_smiles>  (25) 
[H]C(=C1C([H])([H])C([H])([H])C([H])([H])[N+]1([H])C([H])([H])c1c([H])c([H])c(N([H])C(=O)N2C([H])([H])C([H])([H])C([H])([H])C([H])(n3nc(-c4c([H])c([H])c(Oc5c([H])c([H])c(F)c([H])c5F)c([H])c4[H])c(C(=O)N([H])[H])c3N([H])[H])C2([H])[H])c(C(F)(F)F)c1C([H])([H])[H])C([H])([H])Oc1c([H])c([H])c2c(c1[H])C([H])([H])N(C(=O)C([H])(N([H])C(=O)C([H])(N([H])C([H])([H])[H])C([H])([H])[H])C(C([H])([H])[H])(C([H])([H])[H])C([H])([H])[H])C([H])(C(=O)N([H])C1([H])c3c([H])c([H])c([H])c([H])c3C([H])([H])C([H])([H])C1([H])[H])C2([H])[H]

>  <smiles>  (25) 
[H]C(=C1C([H])([H])C([H])([H])C([H])([H])[N+]1([H])C([H])([H])c1c([H])c([H])c(N([H])C(=O)N2C([H])([H])C([H])([H])C([H])([H])C([H])(n3nc(-c4c([H])c([H])c(Oc5c([H])c([H])c(F)c([H])c5F)c([H])c4[H])c(C(=O)N([H])[H])c3N([H])[H])C2([H])[H])c(C(F)(F)F)c1C([H])([H])[H])C([H])([H])Oc1c([H])c([H])c2c(c1[H])C([H])([H])N(C(=O)C([H])(N([H])C(=O)C([H])(N([H])C([H])([H])[H])C([H])([H])[H])C(C([H])([H])[H])(C([H])([H])[H])C([H])([H])[H])C([H])(C(=O)N([H])C1([H])c3c([H])c([H])c([H])c([H])c3C([H])([H])C([H])([H])C1([H])[H])C2([H])[H]

$$$$
25:0:0
     RDKit          3D

 93101  0  0  1  0  0  0  0  0999 V2000
  -28.0500  -23.6200   20.2470 C   0  0  0  0  0  0  0  0  0  0  0  0
  -28.7940  -22.5680   20.5660 N   0  0  0  0  0  0  0  0  0  0  0  0
  -26.9070  -23.4710   19.3210 C   0  0  0  0  0  3  0  0  0  0  0  0
  -25.6330  -23.4810   19.7560 C   0  0  0  0  0  3  0  0  0  0  0  0
  -24.4040  -23.3610   18.8750 C   0  0  0  0  0  1  0  0  0  0  0  0
  -28.5010  -21.1430   20.0800 C   0  0  0  0  0  2  0  0  0  0  0  0
  -31.5030  -19.1210   21.5630 C   0  0  0  0  0  3  0  0  0  0  0  0
  -30.6260  -20.1600   21.1900 C   0  0  0  0  0  3  0  0  0  0  0  0
  -31.2150  -17.7670   21.2890 C   0  0  0  0  0  3  0  0  0  0  0  0
  -29.4110  -19.8960   20.5260 C   0  0  0  0  0  0  0  0  0  0  0  0
  -29.1150  -18.4770   20.2740 C   0  0  0  0  0  0  0  0  0  0  0  0
  -30.0170  -17.3830   20.6470 C   0  0  0  0  0  0  0  0  0  0  0  0
  -27.8220  -18.0970   19.5730 C   0  0  0  0  0  1  0  0  0  0  0  0
  -30.5360  -14.8000   20.3610 C   0  0  0  0  0  0  0  0  0  0  0  0
  -30.3550  -12.5100   19.3570 C   0  0  0  0  0  2  0  0  0  0  0  0
  -29.3990  -12.5430   18.1440 C   0  0  0  0  0  2  0  0  0  0  0  0
  -27.9350  -12.3670   18.5950 C   0  0  0  0  0  2  0  0  0  0  0  0
  -27.5660  -13.2710   19.7990 C   0  0  0  0  0  3  0  0  0  0  0  0
  -28.6370  -13.2100   20.9090 C   0  0  0  0  0  2  0  0  0  0  0  0
  -29.9180  -13.5710   20.2930 N   0  0  0  0  0  0  0  0  0  0  0  0
  -31.7350  -14.8900   20.0860 O   0  0  0  0  0  0  0  0  0  0  0  0
  -29.7230  -15.9300   20.4650 N   0  0  0  0  0  0  0  0  0  0  0  0
  -28.7430  -15.7070   20.4210 H   0  0  0  0  0  0  0  0  0  0  0  0
  -25.1880  -13.8590   20.5540 C   0  0  0  0  0  0  0  0  0  0  0  0
  -24.1270  -13.0840   20.9340 C   0  0  0  0  0  0  0  0  0  0  0  0
  -24.5910  -11.7330   20.8930 C   0  0  0  0  0  0  0  0  0  0  0  0
  -26.2300  -12.9810   20.3080 N   0  0  0  0  0  0  0  0  0  0  0  0
  -25.8780  -11.6970   20.5730 N   0  0  0  0  0  0  0  0  0  0  0  0
  -23.8660  -10.4710   21.0790 C   0  0  0  0  0  0  0  0  0  0  0  0
  -24.3090   -9.4930   21.9970 C   0  0  0  0  0  3  0  0  0  0  0  0
  -23.5830   -8.2950   22.1730 C   0  0  0  0  0  3  0  0  0  0  0  0
  -22.3980   -8.0690   21.4330 C   0  0  0  0  0  0  0  0  0  0  0  0
  -21.9750   -9.0350   20.5030 C   0  0  0  0  0  3  0  0  0  0  0  0
  -22.7010  -10.2230   20.3250 C   0  0  0  0  0  3  0  0  0  0  0  0
  -21.6400   -6.9260   21.5230 O   0  0  0  0  0  0  0  0  0  0  0  0
  -21.6110   -6.1700   22.6660 C   0  0  0  0  0  0  0  0  0  0  0  0
  -21.2090   -6.7090   23.9070 C   0  0  0  0  0  3  0  0  0  0  0  0
  -21.1290   -5.8770   25.0420 C   0  0  0  0  0  3  0  0  0  0  0  0
  -21.4380   -4.5090   24.9370 C   0  0  0  0  0  0  0  0  0  0  0  0
  -21.8360   -3.9700   23.7000 C   0  0  0  0  0  3  0  0  0  0  0  0
  -21.9180   -4.7970   22.5670 C   0  0  0  0  0  0  0  0  0  0  0  0
  -22.2790   -4.2680   21.3730 F   0  0  0  0  0  0  0  0  0  0  0  0
  -21.3530   -3.7080   26.0260 F   0  0  0  0  0  0  0  0  0  0  0  0
  -22.7330  -13.5600   21.2160 C   0  0  0  0  0  0  0  0  0  0  0  0
  -22.0140  -12.8590   22.0870 N   0  0  0  0  0  0  0  0  0  0  0  0
  -22.2930  -14.5880   20.7020 O   0  0  0  0  0  0  0  0  0  0  0  0
  -22.3870  -12.0280   22.5190 H   0  0  0  0  0  0  0  0  0  0  0  0
  -21.0800  -13.1600   22.3260 H   0  0  0  0  0  0  0  0  0  0  0  0
  -25.3440  -15.2280   20.3690 N   0  0  0  0  0  0  0  0  0  0  0  0
  -24.5550  -15.8600   20.4480 H   0  0  0  0  0  0  0  0  0  0  0  0
  -26.1330  -15.6430   19.8940 H   0  0  0  0  0  0  0  0  0  0  0  0
  -28.1590  -25.0870   20.9250 C   0  0  0  0  0  2  0  0  0  0  0  0
  -28.2710  -26.3760   20.1560 O   0  0  0  0  0  0  0  0  0  0  0  0
  -24.6220  -31.8800   23.2270 C   0  0  0  0  0  0  0  0  0  0  0  0
  -27.1930  -27.2810   20.1700 C   0  0  0  0  0  0  0  0  0  0  0  0
  -23.4140  -30.4910   21.5870 C   0  0  0  0  0  3  0  0  0  0  0  0
  -24.8610  -28.9400   20.1530 C   0  0  0  0  0  0  0  0  0  0  0  0
  -25.9600  -30.7920   21.4070 C   0  0  0  0  0  2  0  0  0  0  0  0
  -26.0350  -29.4100   20.7580 C   0  0  0  0  0  0  0  0  0  0  0  0
  -27.2130  -28.5910   20.7530 C   0  0  0  0  0  3  0  0  0  0  0  0
  -26.0060  -26.8880   19.5230 C   0  0  0  0  0  3  0  0  0  0  0  0
  -24.8490  -27.6880   19.5220 C   0  0  0  0  0  3  0  0  0  0  0  0
  -23.6260  -29.8210   20.2050 C   0  0  0  0  0  2  0  0  0  0  0  0
  -24.6860  -31.0720   22.1310 N   0  0  0  0  0  0  0  0  0  0  0  0
  -23.5380  -32.1630   23.7600 O   0  0  0  0  0  0  0  0  0  0  0  0
  -22.7480  -29.4730   22.5450 C   0  0  0  0  0  0  0  0  0  0  0  0
  -21.4210  -29.3030   22.4210 N   0  0  0  0  0  0  0  0  0  0  0  0
  -23.4270  -28.8370   23.3550 O   0  0  0  0  0  0  0  0  0  0  0  0
  -20.9330  -29.8680   21.7390 H   0  0  0  0  0  0  0  0  0  0  0  0
  -18.0380  -28.1200   22.9260 C   0  0  0  0  0  0  0  0  0  0  0  0
  -20.5980  -28.3660   23.1870 C   0  0  0  0  0  3  0  0  0  0  0  0
  -20.6950  -26.9360   22.6050 C   0  0  0  0  0  2  0  0  0  0  0  0
  -19.5880  -26.6230   21.5920 C   0  0  0  0  0  2  0  0  0  0  0  0
  -18.2080  -26.7750   22.2400 C   0  0  0  0  0  2  0  0  0  0  0  0
  -19.1620  -28.8760   23.3550 C   0  0  0  0  0  0  0  0  0  0  0  0
  -18.9500  -30.1370   23.9550 C   0  0  0  0  0  3  0  0  0  0  0  0
  -17.6470  -30.6440   24.1250 C   0  0  0  0  0  3  0  0  0  0  0  0
  -16.5370  -29.8840   23.7120 C   0  0  0  0  0  3  0  0  0  0  0  0
  -16.7340  -28.6240   23.1200 C   0  0  0  0  0  3  0  0  0  0  0  0
  -25.9050  -32.5100   23.8520 C   0  0  0  0  0  3  0  0  0  0  0  0
  -26.4220  -31.7380   25.1280 C   0  0  1  0  0  0  0  0  0  0  0  0
  -25.3280  -31.4980   26.1950 C   0  0  0  0  0  1  0  0  0  0  0  0
  -27.0050  -30.3600   24.7370 C   0  0  0  0  0  1  0  0  0  0  0  0
  -27.5760  -32.5280   25.7920 C   0  0  0  0  0  1  0  0  0  0  0  0
  -25.5980  -33.9080   24.1860 N   0  0  0  0  0  0  0  0  0  0  0  0
  -25.9220  -34.9640   23.4260 C   0  0  0  0  0  0  0  0  0  0  0  0
  -26.5850  -34.8640   22.3910 O   0  0  0  0  0  0  0  0  0  0  0  0
  -25.0160  -34.0570   24.9970 H   0  0  0  0  0  0  0  0  0  0  0  0
  -24.1920  -36.7620   23.1000 C   0  0  0  0  0  1  0  0  0  0  0  0
  -25.4430  -36.3530   23.8920 C   0  0  0  0  0  3  0  0  0  0  0  0
  -27.5880  -37.2380   24.7040 C   0  0  0  0  0  1  0  0  0  0  0  0
  -26.4760  -37.4050   23.7720 N   0  0  0  0  0  0  0  0  0  0  0  0
  -26.0700  -38.3230   23.9280 H   0  0  0  0  0  0  0  0  0  0  0  0
  1  2  2  0
  1 52  1  0
  3  4  2  0
  3  1  1  0
  5  4  1  0
  6 10  1  0
  6  2  1  0
  8  7  2  0
  9  7  1  0
 10  8  1  0
 11 10  2  0
 11 12  1  0
 12  9  2  0
 13 11  1  0
 14 22  1  0
 15 20  1  0
 16 17  1  0
 16 15  1  0
 18 17  1  0
 18 27  1  0
 18 19  1  0
 20 14  1  0
 20 19  1  0
 21 14  2  0
 22 12  1  0
 23 22  1  0
 24 25  2  0
 25 44  1  0
 26 25  1  0
 26 29  1  0
 27 24  1  0
 27 28  1  0
 28 26  2  0
 29 30  1  0
 30 31  2  0
 32 35  1  0
 32 31  1  0
 33 32  2  0
 34 33  1  0
 34 29  2  0
 35 36  1  0
 36 37  1  0
 37 38  2  0
 39 38  1  0
 39 43  1  0
 40 39  2  0
 41 36  2  0
 41 40  1  0
 42 41  1  0
 44 45  1  0
 45 48  1  0
 45 47  1  0
 46 44  2  0
 49 50  1  0
 49 24  1  0
 51 49  1  0
 53 55  1  0
 53 52  1  0
 54 65  2  0
 55 60  1  0
 56 64  1  0
 56 66  1  0
 57 63  1  0
 57 59  1  0
 58 64  1  0
 59 58  1  0
 60 59  2  0
 61 55  2  0
 62 61  1  0
 62 57  2  0
 63 56  1  0
 64 54  1  0
 66 68  2  0
 67 66  1  0
 69 67  1  0
 70 79  2  0
 70 75  1  0
 71 67  1  0
 71 75  1  0
 72 71  1  0
 73 74  1  0
 73 72  1  0
 74 70  1  0
 75 76  2  0
 76 77  1  0
 78 77  2  0
 79 78  1  0
 80 54  1  0
 80 85  1  0
 80 81  1  0
 81 84  1  1
 81 82  1  0
 83 81  1  0
 85 88  1  0
 86 90  1  0
 86 85  1  0
 87 86  2  0
 90 89  1  0
 92 90  1  0
 92 93  1  0
 92 91  1  0
M  ISO  4  14 100  22 100  52 101  53 101
M  END
>  <TORSDO>  (26) 
F 20

>  <SCORE>  (26) 
-14.448

>  <name>  (26) 
25

>  <ligand_id>  (26) 
25

>  <original_smiles>  (26) 
[H]C(C(=NC([H])([H])c1c([H])c([H])c([H])c(N([H])C(=O)N2C([H])([H])C([H])([H])C([H])([H])C([H])(n3nc(-c4c([H])c([H])c(Oc5c([H])c([H])c(F)c([H])c5F)c([H])c4[H])c(C(=O)N([H])[H])c3N([H])[H])C2([H])[H])c1C([H])([H])[H])C([H])([H])Oc1c([H])c([H])c2c(c1[H])C([H])([H])N(C(=O)C([H])(N([H])C(=O)C([H])(N([H])C([H])([H])[H])C([H])([H])[H])C(C([H])([H])[H])(C([H])([H])[H])C([H])([H])[H])C([H])(C(=O)N([H])C1([H])c3c([H])c([H])c([H])c([H])c3C([H])([H])C([H])([H])C1([H])[H])C2([H])[H])=C([H])C([H])([H])[H]

>  <smiles>  (26) 
[H]C(C(=NC([H])([H])c1c([H])c([H])c([H])c(N([H])C(=O)N2C([H])([H])C([H])([H])C([H])([H])C([H])(n3nc(-c4c([H])c([H])c(Oc5c([H])c([H])c(F)c([H])c5F)c([H])c4[H])c(C(=O)N([H])[H])c3N([H])[H])C2([H])[H])c1C([H])([H])[H])C([H])([H])Oc1c([H])c([H])c2c(c1[H])C([H])([H])N(C(=O)C([H])(N([H])C(=O)C([H])(N([H])C([H])([H])[H])C([H])([H])[H])C(C([H])([H])[H])(C([H])([H])[H])C([H])([H])[H])C([H])(C(=O)N([H])C1([H])c3c([H])c([H])c([H])c([H])c3C([H])([H])C([H])([H])C1([H])[H])C2([H])[H])=C([H])C([H])([H])[H]

$$$$
26:0:0
     RDKit          3D

 94103  0  0  1  0  0  0  0  0999 V2000
  -28.8260  -22.2230   21.3070 C   0  0  0  0  0  0  0  0  0  0  0  0
  -28.3660  -23.7700   21.3750 C   0  0  0  0  0  2  0  0  0  0  0  0
  -29.0280  -23.9940   19.0270 C   0  0  0  0  0  2  0  0  0  0  0  0
  -28.9370  -22.3940   18.9240 C   0  0  0  0  0  2  0  0  0  0  0  0
  -28.1140  -24.6890   20.0910 C   0  0  0  0  0  3  0  0  0  0  0  0
  -29.1790  -21.5550   20.1530 N   0  0  0  0  0  0  0  0  0  0  0  0
  -28.8660  -21.6240   22.3860 O   0  0  0  0  0  0  0  0  0  0  0  0
  -31.8040  -18.9790   18.2430 C   0  0  0  0  0  3  0  0  0  0  0  0
  -30.5890  -18.3950   18.6350 C   0  0  0  0  0  3  0  0  0  0  0  0
  -32.2790  -20.1060   18.9250 C   0  0  0  0  0  3  0  0  0  0  0  0
  -29.8970  -18.8930   19.7580 C   0  0  0  0  0  0  0  0  0  0  0  0
  -30.1220  -20.3450   20.0920 C   0  0  0  0  0  0  0  0  0  0  0  0
  -31.4420  -20.8030   19.8130 C   0  0  0  0  0  0  0  0  0  0  0  0
  -32.0370  -22.3120   20.4210 Cl  0  0  0  0  0  0  0  0  0  0  0  0
  -29.8120  -17.6430   20.7940 C   0  0  0  0  0  2  0  0  0  0  0  0
  -30.5010  -14.9670   20.2880 C   0  0  0  0  0  0  0  0  0  0  0  0
  -30.3800  -12.6460   19.2820 C   0  0  0  0  0  2  0  0  0  0  0  0
  -29.4140  -12.6150   18.0760 C   0  0  0  0  0  2  0  0  0  0  0  0
  -27.9560  -12.4030   18.5320 C   0  0  0  0  0  2  0  0  0  0  0  0
  -27.5700  -13.3180   19.7240 C   0  0  0  0  0  3  0  0  0  0  0  0
  -28.6480  -13.2980   20.8280 C   0  0  0  0  0  2  0  0  0  0  0  0
  -29.9100  -13.7140   20.2030 N   0  0  0  0  0  0  0  0  0  0  0  0
  -31.7100  -15.0520   20.0550 O   0  0  0  0  0  0  0  0  0  0  0  0
  -29.6760  -16.1080   20.4350 N   0  0  0  0  0  0  0  0  0  0  0  0
  -28.7100  -15.8260   20.4670 H   0  0  0  0  0  0  0  0  0  0  0  0
  -25.1990  -13.9040   20.4980 C   0  0  0  0  0  0  0  0  0  0  0  0
  -24.1370  -13.1330   20.8800 C   0  0  0  0  0  0  0  0  0  0  0  0
  -24.5990  -11.7810   20.8440 C   0  0  0  0  0  0  0  0  0  0  0  0
  -26.2380  -13.0250   20.2430 N   0  0  0  0  0  0  0  0  0  0  0  0
  -25.8870  -11.7410   20.5200 N   0  0  0  0  0  0  0  0  0  0  0  0
  -23.8690  -10.5200   21.0400 C   0  0  0  0  0  0  0  0  0  0  0  0
  -24.3120   -9.5460   21.9630 C   0  0  0  0  0  3  0  0  0  0  0  0
  -23.5830   -8.3530   22.1500 C   0  0  0  0  0  3  0  0  0  0  0  0
  -22.3970   -8.1210   21.4120 C   0  0  0  0  0  0  0  0  0  0  0  0
  -21.9720   -9.0820   20.4790 C   0  0  0  0  0  3  0  0  0  0  0  0
  -22.7010  -10.2690   20.2910 C   0  0  0  0  0  3  0  0  0  0  0  0
  -21.6390   -6.9790   21.5060 O   0  0  0  0  0  0  0  0  0  0  0  0
  -21.6110   -6.2260   22.6530 C   0  0  0  0  0  0  0  0  0  0  0  0
  -21.2110   -6.7730   23.8920 C   0  0  0  0  0  3  0  0  0  0  0  0
  -21.1300   -5.9480   25.0320 C   0  0  0  0  0  3  0  0  0  0  0  0
  -21.4390   -4.5780   24.9330 C   0  0  0  0  0  0  0  0  0  0  0  0
  -21.8320   -4.0320   23.6980 C   0  0  0  0  0  3  0  0  0  0  0  0
  -21.9150   -4.8540   22.5620 C   0  0  0  0  0  0  0  0  0  0  0  0
  -22.2730   -4.3180   21.3700 F   0  0  0  0  0  0  0  0  0  0  0  0
  -21.3550   -3.7830   26.0250 F   0  0  0  0  0  0  0  0  0  0  0  0
  -22.7440  -13.6140   21.1570 C   0  0  0  0  0  0  0  0  0  0  0  0
  -22.0180  -12.9260   22.0310 N   0  0  0  0  0  0  0  0  0  0  0  0
  -22.3040  -14.6360   20.6310 O   0  0  0  0  0  0  0  0  0  0  0  0
  -22.3820  -12.1020   22.4850 H   0  0  0  0  0  0  0  0  0  0  0  0
  -21.0820  -13.2340   22.2520 H   0  0  0  0  0  0  0  0  0  0  0  0
  -25.3620  -15.2750   20.3180 N   0  0  0  0  0  0  0  0  0  0  0  0
  -24.5910  -15.9230   20.4300 H   0  0  0  0  0  0  0  0  0  0  0  0
  -26.1860  -15.7100   19.9240 H   0  0  0  0  0  0  0  0  0  0  0  0
  -28.2460  -26.2400   20.2250 O   0  0  0  0  0  0  0  0  0  0  0  0
  -24.6170  -31.8940   23.2430 C   0  0  0  0  0  0  0  0  0  0  0  0
  -27.1630  -27.1860   20.1770 C   0  0  0  0  0  0  0  0  0  0  0  0
  -23.4060  -30.5070   21.6060 C   0  0  0  0  0  3  0  0  0  0  0  0
  -24.8380  -28.9330   20.1660 C   0  0  0  0  0  0  0  0  0  0  0  0
  -25.9600  -30.7580   21.4370 C   0  0  0  0  0  2  0  0  0  0  0  0
  -26.0210  -29.3710   20.7770 C   0  0  0  0  0  0  0  0  0  0  0  0
  -27.1790  -28.5130   20.7670 C   0  0  0  0  0  3  0  0  0  0  0  0
  -25.9560  -26.8520   19.5210 C   0  0  0  0  0  3  0  0  0  0  0  0
  -24.8190  -27.6870   19.5250 C   0  0  0  0  0  3  0  0  0  0  0  0
  -23.6170  -29.8350   20.2230 C   0  0  0  0  0  2  0  0  0  0  0  0
  -24.6820  -31.0740   22.1500 N   0  0  0  0  0  0  0  0  0  0  0  0
  -23.5330  -32.1840   23.7730 O   0  0  0  0  0  0  0  0  0  0  0  0
  -22.7270  -29.4980   22.5660 C   0  0  0  0  0  0  0  0  0  0  0  0
  -21.3990  -29.3240   22.4350 N   0  0  0  0  0  0  0  0  0  0  0  0
  -23.3980  -28.8710   23.3910 O   0  0  0  0  0  0  0  0  0  0  0  0
  -20.9140  -29.8800   21.7450 H   0  0  0  0  0  0  0  0  0  0  0  0
  -18.0210  -28.1180   22.9310 C   0  0  0  0  0  0  0  0  0  0  0  0
  -20.5780  -28.3880   23.2090 C   0  0  0  0  0  3  0  0  0  0  0  0
  -20.6860  -26.9530   22.6410 C   0  0  0  0  0  2  0  0  0  0  0  0
  -19.5890  -26.6230   21.6240 C   0  0  0  0  0  2  0  0  0  0  0  0
  -18.2030  -26.7680   22.2590 C   0  0  0  0  0  2  0  0  0  0  0  0
  -19.1350  -28.8850   23.3610 C   0  0  0  0  0  0  0  0  0  0  0  0
  -18.9080  -30.1500   23.9460 C   0  0  0  0  0  3  0  0  0  0  0  0
  -17.6000  -30.6460   24.1050 C   0  0  0  0  0  3  0  0  0  0  0  0
  -16.5010  -29.8760   23.6890 C   0  0  0  0  0  3  0  0  0  0  0  0
  -16.7120  -28.6140   23.1060 C   0  0  0  0  0  3  0  0  0  0  0  0
  -25.9010  -32.5210   23.8660 C   0  0  0  0  0  3  0  0  0  0  0  0
  -25.5970  -33.9220   24.2030 N   0  0  0  0  0  0  0  0  0  0  0  0
  -25.9170  -34.9780   23.4430 C   0  0  0  0  0  0  0  0  0  0  0  0
  -26.5690  -34.8780   22.4010 O   0  0  0  0  0  0  0  0  0  0  0  0
  -25.0190  -34.0750   25.0150 H   0  0  0  0  0  0  0  0  0  0  0  0
  -24.1820  -36.7720   23.1310 C   0  0  0  0  0  1  0  0  0  0  0  0
  -25.4410  -36.3660   23.9150 C   0  0  0  0  0  3  0  0  0  0  0  0
  -27.5930  -37.2500   24.7010 C   0  0  0  0  0  1  0  0  0  0  0  0
  -26.4710  -37.4210   23.7800 N   0  0  0  0  0  0  0  0  0  0  0  0
  -26.0690  -38.3410   23.9380 H   0  0  0  0  0  0  0  0  0  0  0  0
  -26.4100  -31.7510   25.1450 C   0  0  1  0  0  0  0  0  0  0  0  0
  -25.3120  -31.5260   26.2120 C   0  0  0  0  0  1  0  0  0  0  0  0
  -26.9880  -30.3700   24.7640 C   0  0  0  0  0  1  0  0  0  0  0  0
  -27.5640  -32.5410   25.8060 C   0  0  0  0  0  1  0  0  0  0  0  0
  1  2  1  0
  1  7  2  0
  3  5  1  0
  4  3  1  0
  4  6  1  0
  5 54  1  0
  5  2  1  0
  6  1  1  0
  8  9  2  0
  8 10  1  0
  9 11  1  0
 10 13  2  0
 11 12  2  3
 11 15  1  0
 12  6  1  0
 13 12  1  0
 13 14  1  0
 16 24  1  0
 17 22  1  0
 18 19  1  0
 18 17  1  0
 20 19  1  0
 20 29  1  0
 20 21  1  0
 22 16  1  0
 22 21  1  0
 23 16  2  0
 24 25  1  0
 24 15  1  0
 26 27  2  0
 27 46  1  0
 28 27  1  0
 28 31  1  0
 29 26  1  0
 29 30  1  0
 30 28  2  0
 31 32  1  0
 32 33  2  0
 34 37  1  0
 34 33  1  0
 35 34  2  0
 36 35  1  0
 36 31  2  0
 37 38  1  0
 38 39  1  0
 39 40  2  0
 41 40  1  0
 41 45  1  0
 42 41  2  0
 43 38  2  0
 43 42  1  0
 44 43  1  0
 46 47  1  0
 47 50  1  0
 47 49  1  0
 48 46  2  0
 51 52  1  0
 51 26  1  0
 53 51  1  0
 55 66  2  0
 56 54  1  0
 56 61  1  0
 57 65  1  0
 57 67  1  0
 58 64  1  0
 58 60  1  0
 59 65  1  0
 60 59  1  0
 61 60  2  0
 62 63  1  0
 62 56  2  0
 63 58  2  0
 64 57  1  0
 65 55  1  0
 67 69  2  0
 68 67  1  0
 70 68  1  0
 71 80  2  0
 71 76  1  0
 72 68  1  0
 72 76  1  0
 73 72  1  0
 74 75  1  0
 74 73  1  0
 75 71  1  0
 76 77  2  0
 77 78  1  0
 79 78  2  0
 80 79  1  0
 81 55  1  0
 81 82  1  0
 81 91  1  0
 82 85  1  0
 83 87  1  0
 83 82  1  0
 84 83  2  0
 87 86  1  0
 89 87  1  0
 89 90  1  0
 89 88  1  0
 91 94  1  1
 91 92  1  0
 93 91  1  0
M  ISO  4   5 101  16 100  24 100  54 101
M  END
>  <TORSDO>  (27) 
F 18

>  <SCORE>  (27) 
-14.950

>  <name>  (27) 
26

>  <ligand_id>  (27) 
26

>  <original_smiles>  (27) 
[H]c1c([H])c(Cl)c(N2C(=O)C([H])([H])C([H])(Oc3c([H])c([H])c4c(c3[H])C([H])([H])N(C(=O)C([H])(N([H])C(=O)C([H])(N([H])C([H])([H])[H])C([H])([H])[H])C(C([H])([H])[H])(C([H])([H])[H])C([H])([H])[H])C([H])(C(=O)N([H])C3([H])c5c([H])c([H])c([H])c([H])c5C([H])([H])C([H])([H])C3([H])[H])C4([H])[H])C([H])([H])C2([H])[H])c(C([H])([H])N([H])C(=O)N2C([H])([H])C([H])([H])C([H])([H])C([H])(n3nc(-c4c([H])c([H])c(Oc5c([H])c([H])c(F)c([H])c5F)c([H])c4[H])c(C(=O)N([H])[H])c3N([H])[H])C2([H])[H])c1[H]

>  <smiles>  (27) 
[H]c1c([H])c(Cl)c(N2C(=O)C([H])([H])C([H])(Oc3c([H])c([H])c4c(c3[H])C([H])([H])N(C(=O)C([H])(N([H])C(=O)C([H])(N([H])C([H])([H])[H])C([H])([H])[H])C(C([H])([H])[H])(C([H])([H])[H])C([H])([H])[H])C([H])(C(=O)N([H])C3([H])c5c([H])c([H])c([H])c([H])c5C([H])([H])C([H])([H])C3([H])[H])C4([H])[H])C([H])([H])C2([H])[H])c(C([H])([H])N([H])C(=O)N2C([H])([H])C([H])([H])C([H])([H])C([H])(n3nc(-c4c([H])c([H])c(Oc5c([H])c([H])c(F)c([H])c5F)c([H])c4[H])c(C(=O)N([H])[H])c3N([H])[H])C2([H])[H])c1[H]

$$$$
27:0:0
     RDKit          3D

 94102  0  0  1  0  0  0  0  0999 V2000
  -29.3670  -20.7250   20.8760 C   0  0  0  0  0  0  0  0  0  0  0  0
  -29.4440  -19.3960   20.4730 N   0  0  0  0  0  0  0  0  0  0  0  0
  -29.7640  -21.0610   21.9940 O   0  0  0  0  0  0  0  0  0  0  0  0
  -28.7170  -19.1270   19.8240 H   0  0  0  0  0  0  0  0  0  0  0  0
  -33.0050  -18.9530   19.6240 C   0  0  0  0  0  3  0  0  0  0  0  0
  -31.8710  -19.3410   20.3510 C   0  0  0  0  0  3  0  0  0  0  0  0
  -32.9160  -17.8450   18.7770 C   0  0  0  0  0  3  0  0  0  0  0  0
  -30.6650  -18.5830   20.3250 C   0  0  0  0  0  0  0  0  0  0  0  0
  -30.7690  -17.2070   19.8140 C   0  0  0  0  0  0  0  0  0  0  0  0
  -31.7940  -17.0070   18.8310 C   0  0  0  0  0  0  0  0  0  0  0  0
  -31.7070  -15.7530   17.6330 Cl  0  0  0  0  0  0  0  0  0  0  0  0
  -30.6690  -14.7490   20.4710 C   0  0  0  0  0  0  0  0  0  0  0  0
  -30.4070  -12.4680   19.5330 C   0  0  0  0  0  2  0  0  0  0  0  0
  -29.5170  -12.5050   18.2750 C   0  0  0  0  0  2  0  0  0  0  0  0
  -28.0370  -12.3390   18.6710 C   0  0  0  0  0  2  0  0  0  0  0  0
  -27.6190  -13.2780   19.8360 C   0  0  0  0  0  3  0  0  0  0  0  0
  -28.6450  -13.2780   20.9880 C   0  0  0  0  0  2  0  0  0  0  0  0
  -29.9550  -13.5790   20.4000 N   0  0  0  0  0  0  0  0  0  0  0  0
  -31.8970  -14.6830   20.4480 O   0  0  0  0  0  0  0  0  0  0  0  0
  -30.0510  -15.9830   20.2680 N   0  0  0  0  0  0  0  0  0  0  0  0
  -29.0510  -16.0410   20.3770 H   0  0  0  0  0  0  0  0  0  0  0  0
  -25.2140  -13.8700   20.4910 C   0  0  0  0  0  0  0  0  0  0  0  0
  -24.1390  -13.0970   20.8370 C   0  0  0  0  0  0  0  0  0  0  0  0
  -24.6080  -11.7480   20.8460 C   0  0  0  0  0  0  0  0  0  0  0  0
  -26.2670  -12.9900   20.3020 N   0  0  0  0  0  0  0  0  0  0  0  0
  -25.9090  -11.7110   20.5830 N   0  0  0  0  0  0  0  0  0  0  0  0
  -23.8800  -10.4850   21.0320 C   0  0  0  0  0  0  0  0  0  0  0  0
  -24.2860   -9.5300   21.9890 C   0  0  0  0  0  3  0  0  0  0  0  0
  -23.5560   -8.3340   22.1620 C   0  0  0  0  0  3  0  0  0  0  0  0
  -22.4050   -8.0840   21.3760 C   0  0  0  0  0  0  0  0  0  0  0  0
  -22.0190   -9.0280   20.4070 C   0  0  0  0  0  3  0  0  0  0  0  0
  -22.7510  -10.2140   20.2330 C   0  0  0  0  0  3  0  0  0  0  0  0
  -21.6500   -6.9400   21.4560 O   0  0  0  0  0  0  0  0  0  0  0  0
  -21.5700   -6.2080   22.6150 C   0  0  0  0  0  0  0  0  0  0  0  0
  -21.1140   -6.7760   23.8240 C   0  0  0  0  0  3  0  0  0  0  0  0
  -20.9840   -5.9730   24.9740 C   0  0  0  0  0  3  0  0  0  0  0  0
  -21.2990   -4.6020   24.9150 C   0  0  0  0  0  0  0  0  0  0  0  0
  -21.7490   -4.0340   23.7100 C   0  0  0  0  0  3  0  0  0  0  0  0
  -21.8810   -4.8350   22.5630 C   0  0  0  0  0  0  0  0  0  0  0  0
  -22.2940   -4.2790   21.3990 F   0  0  0  0  0  0  0  0  0  0  0  0
  -21.1670   -3.8260   26.0170 F   0  0  0  0  0  0  0  0  0  0  0  0
  -22.7330  -13.5730   21.0510 C   0  0  0  0  0  0  0  0  0  0  0  0
  -21.9770  -12.8880   21.9020 N   0  0  0  0  0  0  0  0  0  0  0  0
  -22.3120  -14.5890   20.4990 O   0  0  0  0  0  0  0  0  0  0  0  0
  -22.3310  -12.0670   22.3700 H   0  0  0  0  0  0  0  0  0  0  0  0
  -21.0320  -13.1900   22.0910 H   0  0  0  0  0  0  0  0  0  0  0  0
  -25.3800  -15.2380   20.2950 N   0  0  0  0  0  0  0  0  0  0  0  0
  -24.6070  -15.8910   20.3650 H   0  0  0  0  0  0  0  0  0  0  0  0
  -26.2350  -15.6690   19.9730 H   0  0  0  0  0  0  0  0  0  0  0  0
  -28.5710  -23.0630   19.9450 C   0  0  0  0  0  3  0  0  0  0  0  0
  -28.8320  -21.6970   19.8760 C   0  0  0  0  0  3  0  0  0  0  0  0
  -28.5990  -24.0520   21.0610 C   0  0  0  0  0  3  0  0  0  0  0  0
  -28.4410  -25.4320   21.1210 C   0  0  0  0  0  3  0  0  0  0  0  0
  -28.3200  -26.4380   20.1430 O   0  0  0  0  0  0  0  0  0  0  0  0
  -24.6120  -31.8920   23.2380 C   0  0  0  0  0  0  0  0  0  0  0  0
  -27.2330  -27.3230   20.1960 C   0  0  0  0  0  0  0  0  0  0  0  0
  -23.4130  -30.4830   21.6050 C   0  0  0  0  0  3  0  0  0  0  0  0
  -24.8690  -28.9330   20.1830 C   0  0  0  0  0  0  0  0  0  0  0  0
  -25.9520  -30.8100   21.4150 C   0  0  0  0  0  2  0  0  0  0  0  0
  -26.0390  -29.4270   20.7780 C   0  0  0  0  0  0  0  0  0  0  0  0
  -27.2300  -28.6330   20.7770 C   0  0  0  0  0  3  0  0  0  0  0  0
  -26.0430  -26.8840   19.5850 C   0  0  0  0  0  3  0  0  0  0  0  0
  -24.8730  -27.6660   19.5790 C   0  0  0  0  0  3  0  0  0  0  0  0
  -23.6290  -29.8050   20.2280 C   0  0  0  0  0  2  0  0  0  0  0  0
  -24.6790  -31.0800   22.1420 N   0  0  0  0  0  0  0  0  0  0  0  0
  -23.5290  -32.1640   23.7740 O   0  0  0  0  0  0  0  0  0  0  0  0
  -22.7590  -29.4650   22.5680 C   0  0  0  0  0  0  0  0  0  0  0  0
  -21.4340  -29.2760   22.4430 N   0  0  0  0  0  0  0  0  0  0  0  0
  -23.4420  -28.8470   23.3890 O   0  0  0  0  0  0  0  0  0  0  0  0
  -20.9400  -29.8250   21.7530 H   0  0  0  0  0  0  0  0  0  0  0  0
  -18.0660  -28.0540   22.9520 C   0  0  0  0  0  0  0  0  0  0  0  0
  -20.6230  -28.3360   23.2190 C   0  0  0  0  0  3  0  0  0  0  0  0
  -20.7370  -26.9030   22.6500 C   0  0  0  0  0  2  0  0  0  0  0  0
  -19.6360  -26.5670   21.6380 C   0  0  0  0  0  2  0  0  0  0  0  0
  -18.2540  -26.7050   22.2810 C   0  0  0  0  0  2  0  0  0  0  0  0
  -19.1780  -28.8280   23.3780 C   0  0  0  0  0  0  0  0  0  0  0  0
  -18.9480  -30.0920   23.9660 C   0  0  0  0  0  3  0  0  0  0  0  0
  -17.6390  -30.5820   24.1310 C   0  0  0  0  0  3  0  0  0  0  0  0
  -16.5410  -29.8070   23.7200 C   0  0  0  0  0  3  0  0  0  0  0  0
  -16.7560  -28.5450   23.1370 C   0  0  0  0  0  3  0  0  0  0  0  0
  -25.8920  -32.5350   23.8550 C   0  0  0  0  0  3  0  0  0  0  0  0
  -26.4130  -31.7730   25.1360 C   0  0  1  0  0  0  0  0  0  0  0  0
  -25.3220  -31.5360   26.2060 C   0  0  0  0  0  1  0  0  0  0  0  0
  -27.0020  -30.3950   24.7520 C   0  0  0  0  0  1  0  0  0  0  0  0
  -27.5620  -32.5740   25.7910 C   0  0  0  0  0  1  0  0  0  0  0  0
  -25.5740  -33.9330   24.1800 N   0  0  0  0  0  0  0  0  0  0  0  0
  -25.9050  -34.9850   23.4200 C   0  0  0  0  0  0  0  0  0  0  0  0
  -26.5770  -34.8820   22.3910 O   0  0  0  0  0  0  0  0  0  0  0  0
  -24.9770  -34.0870   24.9780 H   0  0  0  0  0  0  0  0  0  0  0  0
  -24.1740  -36.7740   23.0560 C   0  0  0  0  0  1  0  0  0  0  0  0
  -25.4130  -36.3730   23.8720 C   0  0  0  0  0  3  0  0  0  0  0  0
  -27.5420  -37.2660   24.7120 C   0  0  0  0  0  1  0  0  0  0  0  0
  -26.4440  -37.4280   23.7610 N   0  0  0  0  0  0  0  0  0  0  0  0
  -26.0360  -38.3480   23.9050 H   0  0  0  0  0  0  0  0  0  0  0  0
  1  3  2  0
  2  1  1  0
  4  2  1  0
  5  6  1  0
  7 10  1  0
  7  5  2  0
  8  6  2  0
  8  2  1  0
  9 20  1  0
  9  8  1  0
 10  9  2  0
 11 10  1  0
 13 18  1  0
 14 15  1  0
 14 13  1  0
 16 15  1  0
 16 25  1  0
 16 17  1  0
 18 12  1  0
 18 17  1  0
 19 12  2  0
 20 21  1  0
 20 12  1  0
 22 23  2  0
 23 24  1  0
 23 42  1  0
 24 27  1  0
 25 22  1  0
 25 26  1  0
 26 24  2  0
 27 28  1  0
 28 29  2  0
 30 33  1  0
 30 29  1  0
 31 30  2  0
 32 31  1  0
 32 27  2  0
 33 34  1  0
 34 35  1  0
 35 36  2  0
 37 36  1  0
 37 41  1  0
 38 37  2  0
 39 34  2  0
 39 38  1  0
 40 39  1  0
 42 43  1  0
 43 46  1  0
 43 45  1  0
 44 42  2  0
 47 48  1  0
 47 22  1  0
 49 47  1  0
 50 52  1  0
 51 50  2  0
 51  1  1  0
 52 53  2  0
 54 56  1  0
 54 53  1  0
 55 66  2  0
 56 61  1  0
 57 65  1  0
 57 67  1  0
 58 64  1  0
 58 60  1  0
 59 65  1  0
 60 59  1  0
 61 60  2  0
 62 56  2  0
 63 62  1  0
 63 58  2  0
 64 57  1  0
 65 55  1  0
 67 69  2  0
 68 67  1  0
 70 68  1  0
 71 80  2  0
 71 76  1  0
 72 68  1  0
 72 76  1  0
 73 72  1  0
 74 75  1  0
 74 73  1  0
 75 71  1  0
 76 77  2  0
 77 78  1  0
 79 78  2  0
 80 79  1  0
 81 55  1  0
 81 86  1  0
 81 82  1  0
 82 85  1  1
 82 83  1  0
 84 82  1  0
 86 89  1  0
 87 91  1  0
 87 86  1  0
 88 87  2  0
 91 90  1  0
 93 91  1  0
 93 94  1  0
 93 92  1  0
M  ISO  4  12 100  20 100  53 101  54 101
M  END
>  <TORSDO>  (28) 
F 19

>  <SCORE>  (28) 
-14.276

>  <name>  (28) 
27

>  <ligand_id>  (28) 
27

>  <original_smiles>  (28) 
[H]C(Oc1c([H])c([H])c2c(c1[H])C([H])([H])N(C(=O)C([H])(N([H])C(=O)C([H])(N([H])C([H])([H])[H])C([H])([H])[H])C(C([H])([H])[H])(C([H])([H])[H])C([H])([H])[H])C([H])(C(=O)N([H])C1([H])c3c([H])c([H])c([H])c([H])c3C([H])([H])C([H])([H])C1([H])[H])C2([H])[H])=C([H])C([H])=C([H])C(=O)N([H])c1c([H])c([H])c([H])c(Cl)c1N([H])C(=O)N1C([H])([H])C([H])([H])C([H])([H])C([H])(n2nc(-c3c([H])c([H])c(Oc4c([H])c([H])c(F)c([H])c4F)c([H])c3[H])c(C(=O)N([H])[H])c2N([H])[H])C1([H])[H]

>  <smiles>  (28) 
[H]C(Oc1c([H])c([H])c2c(c1[H])C([H])([H])N(C(=O)C([H])(N([H])C(=O)C([H])(N([H])C([H])([H])[H])C([H])([H])[H])C(C([H])([H])[H])(C([H])([H])[H])C([H])([H])[H])C([H])(C(=O)N([H])C1([H])c3c([H])c([H])c([H])c([H])c3C([H])([H])C([H])([H])C1([H])[H])C2([H])[H])=C([H])C([H])=C([H])C(=O)N([H])c1c([H])c([H])c([H])c(Cl)c1N([H])C(=O)N1C([H])([H])C([H])([H])C([H])([H])C([H])(n2nc(-c3c([H])c([H])c(Oc4c([H])c([H])c(F)c([H])c4F)c([H])c3[H])c(C(=O)N([H])[H])c2N([H])[H])C1([H])[H]

$$$$
28:0:0
     RDKit          3D

 95104  0  0  1  0  0  0  0  0999 V2000
  -29.6070  -23.3010   22.0830 C   0  0  0  0  0  0  0  0  0  0  0  0
  -29.5460  -24.7980   21.6290 C   0  0  0  0  0  2  0  0  0  0  0  0
  -28.2910  -24.1270   19.6330 C   0  0  0  0  0  2  0  0  0  0  0  0
  -28.1320  -22.6850   20.2160 C   0  0  0  0  0  2  0  0  0  0  0  0
  -28.3320  -25.2060   20.7390 C   0  0  0  0  0  3  0  0  0  0  0  0
  -29.0500  -22.3140   21.3190 N   0  0  0  0  0  0  0  0  0  0  0  0
  -30.2030  -23.0470   23.1350 O   0  0  0  0  0  0  0  0  0  0  0  0
  -28.4210  -26.5970   20.2420 O   0  0  0  0  0  0  0  0  0  0  0  0
  -24.6220  -31.8950   23.2270 C   0  0  0  0  0  0  0  0  0  0  0  0
  -27.2630  -27.3840   20.1900 C   0  0  0  0  0  0  0  0  0  0  0  0
  -23.4130  -30.4910   21.5900 C   0  0  0  0  0  3  0  0  0  0  0  0
  -24.8710  -28.9450   20.1610 C   0  0  0  0  0  0  0  0  0  0  0  0
  -25.9450  -30.8390   21.3870 C   0  0  0  0  0  2  0  0  0  0  0  0
  -26.0340  -29.4630   20.7440 C   0  0  0  0  0  0  0  0  0  0  0  0
  -27.2330  -28.6990   20.7350 C   0  0  0  0  0  3  0  0  0  0  0  0
  -26.0790  -26.9030   19.5880 C   0  0  0  0  0  3  0  0  0  0  0  0
  -24.8930  -27.6700   19.5690 C   0  0  0  0  0  3  0  0  0  0  0  0
  -23.6260  -29.8070   20.2100 C   0  0  0  0  0  2  0  0  0  0  0  0
  -24.6770  -31.0930   22.1240 N   0  0  0  0  0  0  0  0  0  0  0  0
  -23.5420  -32.1690   23.7700 O   0  0  0  0  0  0  0  0  0  0  0  0
  -22.7620  -29.4750   22.5550 C   0  0  0  0  0  0  0  0  0  0  0  0
  -21.4370  -29.2900   22.4300 N   0  0  0  0  0  0  0  0  0  0  0  0
  -23.4460  -28.8530   23.3730 O   0  0  0  0  0  0  0  0  0  0  0  0
  -20.9460  -29.8400   21.7390 H   0  0  0  0  0  0  0  0  0  0  0  0
  -18.0680  -28.0700   22.9250 C   0  0  0  0  0  0  0  0  0  0  0  0
  -20.6230  -28.3500   23.2020 C   0  0  0  0  0  3  0  0  0  0  0  0
  -20.7390  -26.9170   22.6310 C   0  0  0  0  0  2  0  0  0  0  0  0
  -19.6420  -26.5830   21.6140 C   0  0  0  0  0  2  0  0  0  0  0  0
  -18.2580  -26.7190   22.2530 C   0  0  0  0  0  2  0  0  0  0  0  0
  -19.1790  -28.8420   23.3550 C   0  0  0  0  0  0  0  0  0  0  0  0
  -18.9500  -30.1050   23.9430 C   0  0  0  0  0  3  0  0  0  0  0  0
  -17.6410  -30.5960   24.1040 C   0  0  0  0  0  3  0  0  0  0  0  0
  -16.5430  -29.8210   23.6910 C   0  0  0  0  0  3  0  0  0  0  0  0
  -16.7570  -28.5590   23.1090 C   0  0  0  0  0  3  0  0  0  0  0  0
  -25.9060  -32.5290   23.8440 C   0  0  0  0  0  3  0  0  0  0  0  0
  -25.5980  -33.9270   24.1810 N   0  0  0  0  0  0  0  0  0  0  0  0
  -25.9240  -34.9830   23.4230 C   0  0  0  0  0  0  0  0  0  0  0  0
  -26.5900  -34.8820   22.3880 O   0  0  0  0  0  0  0  0  0  0  0  0
  -25.0040  -34.0780   24.9830 H   0  0  0  0  0  0  0  0  0  0  0  0
  -24.1910  -36.7730   23.0830 C   0  0  0  0  0  1  0  0  0  0  0  0
  -25.4390  -36.3700   23.8860 C   0  0  0  0  0  3  0  0  0  0  0  0
  -27.5790  -37.2530   24.7050 C   0  0  0  0  0  1  0  0  0  0  0  0
  -26.4700  -37.4250   23.7700 N   0  0  0  0  0  0  0  0  0  0  0  0
  -26.0650  -38.3450   23.9230 H   0  0  0  0  0  0  0  0  0  0  0  0
  -26.4360  -31.7550   25.1140 C   0  0  1  0  0  0  0  0  0  0  0  0
  -25.3520  -31.5090   26.1880 C   0  0  0  0  0  1  0  0  0  0  0  0
  -27.0180  -30.3790   24.7140 C   0  0  0  0  0  1  0  0  0  0  0  0
  -27.5910  -32.5490   25.7680 C   0  0  0  0  0  1  0  0  0  0  0  0
  -29.0970  -20.8460   21.6960 C   0  0  0  0  0  2  0  0  0  0  0  0
  -29.6270  -18.3420   21.0760 C   0  0  0  0  0  3  0  0  0  0  0  0
  -31.1840  -19.0890   18.9130 C   0  0  0  0  0  3  0  0  0  0  0  0
  -29.8240  -19.7550   20.8240 C   0  0  0  0  0  0  0  0  0  0  0  0
  -30.8900  -17.7240   19.1030 C   0  0  0  0  0  0  0  0  0  0  0  0
  -30.1880  -17.2840   20.2640 C   0  0  0  0  0  0  0  0  0  0  0  0
  -30.7020  -20.0910   19.7600 C   0  0  0  0  0  0  0  0  0  0  0  0
  -31.3130  -16.8150   17.9660 C   0  0  0  0  0  1  0  0  0  0  0  0
  -31.2330  -21.6970   19.4060 Cl  0  0  0  0  0  0  0  0  0  0  0  0
  -30.6890  -14.7270   20.2770 C   0  0  0  0  0  0  0  0  0  0  0  0
  -30.4190  -12.5170   19.1710 C   0  0  0  0  0  2  0  0  0  0  0  0
  -29.4580  -12.6560   17.9690 C   0  0  0  0  0  2  0  0  0  0  0  0
  -27.9970  -12.4770   18.4240 C   0  0  0  0  0  2  0  0  0  0  0  0
  -27.6560  -13.3350   19.6720 C   0  0  0  0  0  3  0  0  0  0  0  0
  -28.7290  -13.1890   20.7720 C   0  0  0  0  0  2  0  0  0  0  0  0
  -30.0280  -13.5290   20.1780 N   0  0  0  0  0  0  0  0  0  0  0  0
  -31.8750  -14.8030   19.9470 O   0  0  0  0  0  0  0  0  0  0  0  0
  -29.9470  -15.8560   20.5700 N   0  0  0  0  0  0  0  0  0  0  0  0
  -29.0600  -15.6570   21.0090 H   0  0  0  0  0  0  0  0  0  0  0  0
  -25.2740  -13.9300   20.4160 C   0  0  0  0  0  0  0  0  0  0  0  0
  -24.2130  -13.1570   20.7990 C   0  0  0  0  0  0  0  0  0  0  0  0
  -24.6770  -11.8050   20.7720 C   0  0  0  0  0  0  0  0  0  0  0  0
  -26.3170  -13.0500   20.1740 N   0  0  0  0  0  0  0  0  0  0  0  0
  -25.9650  -11.7690   20.4520 N   0  0  0  0  0  0  0  0  0  0  0  0
  -23.9550  -10.5430   20.9770 C   0  0  0  0  0  0  0  0  0  0  0  0
  -24.4000   -9.5820   21.9110 C   0  0  0  0  0  3  0  0  0  0  0  0
  -23.6790   -8.3840   22.1020 C   0  0  0  0  0  3  0  0  0  0  0  0
  -22.4970   -8.1390   21.3600 C   0  0  0  0  0  0  0  0  0  0  0  0
  -22.0710   -9.0900   20.4160 C   0  0  0  0  0  3  0  0  0  0  0  0
  -22.7930  -10.2800   20.2230 C   0  0  0  0  0  3  0  0  0  0  0  0
  -21.7490   -6.9910   21.4590 O   0  0  0  0  0  0  0  0  0  0  0  0
  -21.7090   -6.2560   22.6170 C   0  0  0  0  0  0  0  0  0  0  0  0
  -21.2920   -6.8170   23.8450 C   0  0  0  0  0  3  0  0  0  0  0  0
  -21.2000   -6.0070   24.9950 C   0  0  0  0  0  3  0  0  0  0  0  0
  -21.5120   -4.6360   24.9190 C   0  0  0  0  0  0  0  0  0  0  0  0
  -21.9210   -4.0740   23.6960 C   0  0  0  0  0  3  0  0  0  0  0  0
  -22.0170   -4.8810   22.5490 C   0  0  0  0  0  0  0  0  0  0  0  0
  -22.3890   -4.3300   21.3680 F   0  0  0  0  0  0  0  0  0  0  0  0
  -21.4170   -3.8570   26.0210 F   0  0  0  0  0  0  0  0  0  0  0  0
  -22.8160  -13.6320   21.0790 C   0  0  0  0  0  0  0  0  0  0  0  0
  -22.1020  -12.9430   21.9620 N   0  0  0  0  0  0  0  0  0  0  0  0
  -22.3730  -14.6550   20.5570 O   0  0  0  0  0  0  0  0  0  0  0  0
  -22.4730  -12.1150   22.4060 H   0  0  0  0  0  0  0  0  0  0  0  0
  -21.1640  -13.2400   22.1870 H   0  0  0  0  0  0  0  0  0  0  0  0
  -25.4380  -15.3000   20.2260 N   0  0  0  0  0  0  0  0  0  0  0  0
  -24.6720  -15.9580   20.3270 H   0  0  0  0  0  0  0  0  0  0  0  0
  -26.2830  -15.7270   19.8700 H   0  0  0  0  0  0  0  0  0  0  0  0
  1  7  2  0
  2  1  1  0
  3  4  1  0
  3  5  1  0
  4  6  1  0
  5  8  1  0
  5  2  1  0
  6 49  1  0
  6  1  1  0
  9 20  2  0
 10  8  1  0
 10 15  1  0
 11 19  1  0
 11 21  1  0
 12 18  1  0
 12 14  1  0
 13 19  1  0
 14 13  1  0
 15 14  2  0
 16 10  2  0
 17 16  1  0
 17 12  2  0
 18 11  1  0
 19  9  1  0
 21 23  2  0
 22 21  1  0
 24 22  1  0
 25 34  2  0
 25 30  1  0
 26 22  1  0
 26 30  1  0
 27 26  1  0
 28 29  1  0
 28 27  1  0
 29 25  1  0
 30 31  2  0
 31 32  1  0
 33 32  2  0
 34 33  1  0
 35  9  1  0
 35 36  1  0
 35 45  1  0
 36 39  1  0
 37 41  1  0
 37 36  1  0
 38 37  2  0
 41 40  1  0
 43 41  1  0
 43 44  1  0
 43 42  1  0
 45 48  1  1
 45 46  1  0
 47 45  1  0
 51 53  2  0
 51 55  1  0
 52 50  1  0
 52 49  1  0
 53 54  1  0
 54 66  1  0
 54 50  2  0
 55 52  2  0
 56 53  1  0
 57 55  1  0
 58 66  1  0
 59 64  1  0
 60 61  1  0
 60 59  1  0
 62 61  1  0
 62 71  1  0
 62 63  1  0
 64 58  1  0
 64 63  1  0
 65 58  2  0
 66 67  1  0
 68 69  2  0
 69 88  1  0
 70 69  1  0
 70 73  1  0
 71 68  1  0
 71 72  1  0
 72 70  2  0
 73 74  1  0
 74 75  2  0
 76 79  1  0
 76 75  1  0
 77 76  2  0
 78 77  1  0
 78 73  2  0
 79 80  1  0
 80 81  1  0
 81 82  2  0
 83 82  1  0
 83 87  1  0
 84 83  2  0
 85 80  2  0
 85 84  1  0
 86 85  1  0
 88 89  1  0
 89 92  1  0
 89 91  1  0
 90 88  2  0
 93 94  1  0
 93 68  1  0
 95 93  1  0
M  ISO  4   5 101   8 101  58 100  66 100
M  END
>  <TORSDO>  (29) 
F 18

>  <SCORE>  (29) 
-14.749

>  <name>  (29) 
28

>  <ligand_id>  (29) 
28

>  <original_smiles>  (29) 
[H]c1c([H])c([H])c2c(c1[H])C([H])([H])C([H])([H])C([H])([H])C2([H])N([H])C(=O)C1([H])N(C(=O)C([H])(N([H])C(=O)C([H])(N([H])C([H])([H])[H])C([H])([H])[H])C(C([H])([H])[H])(C([H])([H])[H])C([H])([H])[H])C([H])([H])c2c([H])c(OC3([H])C([H])([H])C(=O)N(C([H])([H])c4c([H])c(N([H])C(=O)N5C([H])([H])C([H])([H])C([H])([H])C([H])(n6nc(-c7c([H])c([H])c(Oc8c([H])c([H])c(F)c([H])c8F)c([H])c7[H])c(C(=O)N([H])[H])c6N([H])[H])C5([H])[H])c(C([H])([H])[H])c([H])c4Cl)C([H])([H])C3([H])[H])c([H])c([H])c2C1([H])[H]

>  <smiles>  (29) 
[H]c1c([H])c([H])c2c(c1[H])C([H])([H])C([H])([H])C([H])([H])C2([H])N([H])C(=O)C1([H])N(C(=O)C([H])(N([H])C(=O)C([H])(N([H])C([H])([H])[H])C([H])([H])[H])C(C([H])([H])[H])(C([H])([H])[H])C([H])([H])[H])C([H])([H])c2c([H])c(OC3([H])C([H])([H])C(=O)N(C([H])([H])c4c([H])c(N([H])C(=O)N5C([H])([H])C([H])([H])C([H])([H])C([H])(n6nc(-c7c([H])c([H])c(Oc8c([H])c([H])c(F)c([H])c8F)c([H])c7[H])c(C(=O)N([H])[H])c6N([H])[H])C5([H])[H])c(C([H])([H])[H])c([H])c4Cl)C([H])([H])C3([H])[H])c([H])c([H])c2C1([H])[H]

$$$$
29:0:0
     RDKit          3D

 96104  0  0  1  0  0  0  0  0999 V2000
  -29.4430  -20.6710   21.1010 C   0  0  0  0  0  0  0  0  0  0  0  0
  -29.2310  -20.6840   22.4150 N   0  0  0  0  0  4  0  0  0  0  0  0
  -29.0870  -21.7540   20.3750 N   0  0  0  0  0  0  0  0  0  0  0  0
  -29.5930  -19.9300   22.9770 H   0  0  0  0  0  0  0  0  0  0  0  0
  -28.7370  -21.4280   22.8770 H   0  0  0  0  0  0  0  0  0  0  0  0
  -29.1340  -21.6460   19.3680 H   0  0  0  0  0  0  0  0  0  0  0  0
  -31.2270  -19.8540   19.6510 C   0  0  0  0  0  3  0  0  0  0  0  0
  -31.6880  -17.5060   19.2550 C   0  0  0  0  0  3  0  0  0  0  0  0
  -30.1330  -19.5210   20.4750 C   0  0  0  0  0  0  0  0  0  0  0  0
  -29.8070  -18.1360   20.6900 C   0  0  0  0  0  0  0  0  0  0  0  0
  -30.6220  -17.1120   20.1090 C   0  0  0  0  0  0  0  0  0  0  0  0
  -31.9890  -18.8570   19.0330 C   0  0  0  0  0  0  0  0  0  0  0  0
  -28.5950  -17.7170   21.5240 C   0  0  0  0  0  1  0  0  0  0  0  0
  -33.3100  -19.2930   18.0090 Cl  0  0  0  0  0  0  0  0  0  0  0  0
  -31.0140  -14.6220   19.9630 C   0  0  0  0  0  0  0  0  0  0  0  0
  -30.6040  -12.4840   18.8280 C   0  0  0  0  0  2  0  0  0  0  0  0
  -29.6050  -12.7310   17.6800 C   0  0  0  0  0  2  0  0  0  0  0  0
  -28.1580  -12.5960   18.1920 C   0  0  0  0  0  2  0  0  0  0  0  0
  -27.8990  -13.4110   19.4890 C   0  0  0  0  0  3  0  0  0  0  0  0
  -29.0170  -13.1840   20.5320 C   0  0  0  0  0  2  0  0  0  0  0  0
  -30.3060  -13.4640   19.8860 N   0  0  0  0  0  0  0  0  0  0  0  0
  -32.1640  -14.7040   19.5300 O   0  0  0  0  0  0  0  0  0  0  0  0
  -30.3280  -15.7170   20.3660 N   0  0  0  0  0  0  0  0  0  0  0  0
  -29.4430  -15.5220   20.8100 H   0  0  0  0  0  0  0  0  0  0  0  0
  -25.5520  -14.0070   20.3530 C   0  0  0  0  0  0  0  0  0  0  0  0
  -24.5030  -13.2300   20.7640 C   0  0  0  0  0  0  0  0  0  0  0  0
  -24.9550  -11.8770   20.6750 C   0  0  0  0  0  0  0  0  0  0  0  0
  -26.5760  -13.1280   20.0400 N   0  0  0  0  0  0  0  0  0  0  0  0
  -26.2250  -11.8410   20.2940 N   0  0  0  0  0  0  0  0  0  0  0  0
  -24.2330  -10.6140   20.8740 C   0  0  0  0  0  0  0  0  0  0  0  0
  -24.6390   -9.6780   21.8520 C   0  0  0  0  0  3  0  0  0  0  0  0
  -23.9180   -8.4790   22.0380 C   0  0  0  0  0  3  0  0  0  0  0  0
  -22.7780   -8.2060   21.2450 C   0  0  0  0  0  0  0  0  0  0  0  0
  -22.3920   -9.1300   20.2580 C   0  0  0  0  0  3  0  0  0  0  0  0
  -23.1140  -10.3200   20.0710 C   0  0  0  0  0  3  0  0  0  0  0  0
  -22.0310   -7.0560   21.3370 O   0  0  0  0  0  0  0  0  0  0  0  0
  -21.8410   -6.4160   22.5350 C   0  0  0  0  0  0  0  0  0  0  0  0
  -21.2420   -7.0620   23.6380 C   0  0  0  0  0  3  0  0  0  0  0  0
  -21.0030   -6.3450   24.8280 C   0  0  0  0  0  3  0  0  0  0  0  0
  -21.3530   -4.9850   24.9140 C   0  0  0  0  0  0  0  0  0  0  0  0
  -21.9440   -4.3390   23.8150 C   0  0  0  0  0  3  0  0  0  0  0  0
  -22.1850   -5.0510   22.6280 C   0  0  0  0  0  0  0  0  0  0  0  0
  -22.7360   -4.4190   21.5640 F   0  0  0  0  0  0  0  0  0  0  0  0
  -21.1150   -4.2940   26.0540 F   0  0  0  0  0  0  0  0  0  0  0  0
  -23.1250  -13.7060   21.1260 C   0  0  0  0  0  0  0  0  0  0  0  0
  -22.4500  -12.9990   22.0270 N   0  0  0  0  0  0  0  0  0  0  0  0
  -22.6590  -14.7380   20.6460 O   0  0  0  0  0  0  0  0  0  0  0  0
  -22.8420  -12.1640   22.4350 H   0  0  0  0  0  0  0  0  0  0  0  0
  -21.5290  -13.2990   22.3120 H   0  0  0  0  0  0  0  0  0  0  0  0
  -25.7130  -15.3800   20.1950 N   0  0  0  0  0  0  0  0  0  0  0  0
  -24.9470  -16.0280   20.3430 H   0  0  0  0  0  0  0  0  0  0  0  0
  -26.5190  -15.8150   19.7660 H   0  0  0  0  0  0  0  0  0  0  0  0
  -28.5290  -23.0360   20.8760 C   0  0  0  0  0  2  0  0  0  0  0  0
  -28.6930  -24.2380   19.9090 C   0  0  0  0  0  2  0  0  0  0  0  0
  -28.3970  -25.5840   20.6180 C   0  0  0  0  0  2  0  0  0  0  0  0
  -28.4340  -26.7350   19.7570 O   0  0  0  0  0  0  0  0  0  0  0  0
  -24.6690  -31.8090   23.0480 C   0  0  0  0  0  0  0  0  0  0  0  0
  -27.2810  -27.4840   19.7890 C   0  0  0  0  0  0  0  0  0  0  0  0
  -23.4370  -30.4320   21.4040 C   0  0  0  0  0  3  0  0  0  0  0  0
  -24.8720  -28.9510   19.9000 C   0  0  0  0  0  0  0  0  0  0  0  0
  -25.9510  -30.8320   21.1460 C   0  0  0  0  0  2  0  0  0  0  0  0
  -26.0390  -29.4800   20.4680 C   0  0  0  0  0  0  0  0  0  0  0  0
  -27.2510  -28.7540   20.4060 C   0  0  0  0  0  3  0  0  0  0  0  0
  -26.1020  -26.9680   19.2140 C   0  0  0  0  0  3  0  0  0  0  0  0
  -24.8970  -27.6950   19.2690 C   0  0  0  0  0  3  0  0  0  0  0  0
  -23.6170  -29.7900   20.0040 C   0  0  0  0  0  2  0  0  0  0  0  0
  -24.7060  -31.0370   21.9250 N   0  0  0  0  0  0  0  0  0  0  0  0
  -23.6000  -32.0520   23.6240 O   0  0  0  0  0  0  0  0  0  0  0  0
  -22.8260  -29.3790   22.3560 C   0  0  0  0  0  0  0  0  0  0  0  0
  -21.5020  -29.1780   22.2550 N   0  0  0  0  0  0  0  0  0  0  0  0
  -23.5390  -28.7460   23.1390 O   0  0  0  0  0  0  0  0  0  0  0  0
  -20.9870  -29.7400   21.5920 H   0  0  0  0  0  0  0  0  0  0  0  0
  -18.1600  -27.9200   22.7990 C   0  0  0  0  0  0  0  0  0  0  0  0
  -20.7180  -28.2080   23.0210 C   0  0  0  0  0  3  0  0  0  0  0  0
  -20.8290  -26.7940   22.4060 C   0  0  0  0  0  2  0  0  0  0  0  0
  -19.7090  -26.4800   21.4110 C   0  0  0  0  0  2  0  0  0  0  0  0
  -18.3400  -26.5900   22.0880 C   0  0  0  0  0  2  0  0  0  0  0  0
  -19.2760  -28.6880   23.2240 C   0  0  0  0  0  0  0  0  0  0  0  0
  -19.0530  -29.9340   23.8480 C   0  0  0  0  0  3  0  0  0  0  0  0
  -17.7450  -30.4130   24.0540 C   0  0  0  0  0  3  0  0  0  0  0  0
  -16.6430  -29.6410   23.6480 C   0  0  0  0  0  3  0  0  0  0  0  0
  -16.8510  -28.3970   23.0260 C   0  0  0  0  0  3  0  0  0  0  0  0
  -25.9630  -32.4420   23.6490 C   0  0  0  0  0  3  0  0  0  0  0  0
  -26.5390  -31.6320   24.8740 C   0  0  1  0  0  0  0  0  0  0  0  0
  -25.4890  -31.3230   25.9670 C   0  0  0  0  0  1  0  0  0  0  0  0
  -27.1400  -30.2880   24.4030 C   0  0  0  0  0  1  0  0  0  0  0  0
  -27.6920  -32.4250   25.5330 C   0  0  0  0  0  1  0  0  0  0  0  0
  -25.6420  -33.8200   24.0430 N   0  0  0  0  0  0  0  0  0  0  0  0
  -25.9350  -34.9060   23.3160 C   0  0  0  0  0  0  0  0  0  0  0  0
  -26.5790  -34.8540   22.2640 O   0  0  0  0  0  0  0  0  0  0  0  0
  -25.0680  -33.9350   24.8660 H   0  0  0  0  0  0  0  0  0  0  0  0
  -24.1760  -36.6830   23.0640 C   0  0  0  0  0  1  0  0  0  0  0  0
  -25.4370  -36.2670   23.8380 C   0  0  0  0  0  3  0  0  0  0  0  0
  -27.5690  -37.1530   24.6720 C   0  0  0  0  0  1  0  0  0  0  0  0
  -26.4520  -37.3390   23.7500 N   0  0  0  0  0  0  0  0  0  0  0  0
  -26.0350  -38.2460   23.9380 H   0  0  0  0  0  0  0  0  0  0  0  0
  1  2  2  0
  2  5  1  0
  2  4  1  0
  3 53  1  0
  3  1  1  0
  6  3  1  0
  7  9  1  0
  8 11  2  0
  9 10  2  0
  9  1  1  0
 10 13  1  0
 11 23  1  0
 11 10  1  0
 12  8  1  0
 12  7  2  0
 14 12  1  0
 15 23  1  0
 16 21  1  0
 17 18  1  0
 17 16  1  0
 19 18  1  0
 19 28  1  0
 19 20  1  0
 21 15  1  0
 21 20  1  0
 22 15  2  0
 23 24  1  0
 25 26  2  0
 26 45  1  0
 27 26  1  0
 27 30  1  0
 28 29  1  0
 28 25  1  0
 29 27  2  0
 30 31  1  0
 31 32  2  0
 33 36  1  0
 33 32  1  0
 34 33  2  0
 35 34  1  0
 35 30  2  0
 36 37  1  0
 37 42  2  0
 37 38  1  0
 38 39  2  0
 39 40  1  0
 40 44  1  0
 41 40  2  0
 42 41  1  0
 43 42  1  0
 45 46  1  0
 46 49  1  0
 46 48  1  0
 47 45  2  0
 50 51  1  0
 50 25  1  0
 52 50  1  0
 54 55  1  0
 54 53  1  0
 56 58  1  0
 56 55  1  0
 57 68  2  0
 58 63  1  0
 59 67  1  0
 59 69  1  0
 60 66  1  0
 60 62  1  0
 61 67  1  0
 62 61  1  0
 63 62  2  0
 64 65  1  0
 64 58  2  0
 65 60  2  0
 66 59  1  0
 67 57  1  0
 69 71  2  0
 70 69  1  0
 72 70  1  0
 73 82  2  0
 73 78  1  0
 74 70  1  0
 74 78  1  0
 75 74  1  0
 76 77  1  0
 76 75  1  0
 77 73  1  0
 78 79  2  0
 79 80  1  0
 81 80  2  0
 82 81  1  0
 83 57  1  0
 83 88  1  0
 83 84  1  0
 84 87  1  1
 84 85  1  0
 86 84  1  0
 88 91  1  0
 89 93  1  0
 89 88  1  0
 90 89  2  0
 93 92  1  0
 95 93  1  0
 95 96  1  0
 95 94  1  0
M  ISO  4  15 100  23 100  55 101  56 101
M  END
>  <TORSDO>  (30) 
F 20

>  <SCORE>  (30) 
-11.881

>  <name>  (30) 
29

>  <ligand_id>  (30) 
29

>  <original_smiles>  (30) 
[H]c1c([H])c([H])c2c(c1[H])C([H])([H])C([H])([H])C([H])([H])C2([H])N([H])C(=O)C1([H])N(C(=O)C([H])(N([H])C(=O)C([H])(N([H])C([H])([H])[H])C([H])([H])[H])C(C([H])([H])[H])(C([H])([H])[H])C([H])([H])[H])C([H])([H])c2c([H])c(OC([H])([H])C([H])([H])C([H])([H])[N+]([H])=C(c3c([H])c(Cl)c([H])c(N([H])C(=O)N4C([H])([H])C([H])([H])C([H])([H])C([H])(n5nc(-c6c([H])c([H])c(Oc7c([H])c([H])c(F)c([H])c7F)c([H])c6[H])c(C(=O)N([H])[H])c5N([H])[H])C4([H])[H])c3C([H])([H])[H])N([H])[H])c([H])c([H])c2C1([H])[H]

>  <smiles>  (30) 
[H]c1c([H])c([H])c2c(c1[H])C([H])([H])C([H])([H])C([H])([H])C2([H])N([H])C(=O)C1([H])N(C(=O)C([H])(N([H])C(=O)C([H])(N([H])C([H])([H])[H])C([H])([H])[H])C(C([H])([H])[H])(C([H])([H])[H])C([H])([H])[H])C([H])([H])c2c([H])c(OC([H])([H])C([H])([H])C([H])([H])[N+]([H])=C(c3c([H])c(Cl)c([H])c(N([H])C(=O)N4C([H])([H])C([H])([H])C([H])([H])C([H])(n5nc(-c6c([H])c([H])c(Oc7c([H])c([H])c(F)c([H])c7F)c([H])c6[H])c(C(=O)N([H])[H])c5N([H])[H])C4([H])[H])c3C([H])([H])[H])N([H])[H])c([H])c([H])c2C1([H])[H]

$$$$
30:0:0
     RDKit          3D

 96105  0  0  1  0  0  0  0  0999 V2000
  -26.7900  -23.3420   19.6720 C   0  0  0  0  0  3  0  0  0  0  0  0
  -26.2340  -22.2370   19.1750 C   0  0  0  0  0  3  0  0  0  0  0  0
  -28.2080  -23.2580   19.4750 C   0  0  0  0  0  0  0  0  0  0  0  0
  -27.2740  -21.3770   18.6490 C   0  0  0  0  0  0  0  0  0  0  0  0
  -29.0960  -24.2440   19.7610 C   0  0  0  0  0  3  0  0  0  0  0  0
  -28.4560  -21.9820   18.9240 N   0  0  0  0  0  0  0  0  0  0  0  0
  -27.1020  -20.3010   18.0660 O   0  0  0  0  0  0  0  0  0  0  0  0
  -29.8020  -21.3960   18.7120 C   0  0  0  0  0  2  0  0  0  0  0  0
  -30.2960  -18.9570   18.1680 C   0  0  0  0  0  3  0  0  0  0  0  0
  -30.4590  -17.5940   18.4900 C   0  0  0  0  0  3  0  0  0  0  0  0
  -30.0230  -19.9250   19.1600 C   0  0  0  0  0  0  0  0  0  0  0  0
  -29.9540  -19.4950   20.5180 C   0  0  0  0  0  0  0  0  0  0  0  0
  -30.0840  -18.1080   20.8410 C   0  0  0  0  0  0  0  0  0  0  0  0
  -30.3400  -17.1430   19.8260 C   0  0  0  0  0  0  0  0  0  0  0  0
  -29.7310  -20.5110   21.6360 C   0  0  0  0  0  1  0  0  0  0  0  0
  -29.9110  -17.6230   22.2810 C   0  0  0  0  0  1  0  0  0  0  0  0
  -31.1130  -14.7260   19.6830 C   0  0  0  0  0  0  0  0  0  0  0  0
  -30.8800  -12.4110   18.8620 C   0  0  0  0  0  2  0  0  0  0  0  0
  -29.8470  -12.4090   17.7150 C   0  0  0  0  0  2  0  0  0  0  0  0
  -28.4140  -12.2670   18.2650 C   0  0  0  0  0  2  0  0  0  0  0  0
  -28.1210  -13.2510   19.4290 C   0  0  0  0  0  3  0  0  0  0  0  0
  -29.2560  -13.2110   20.4770 C   0  0  0  0  0  2  0  0  0  0  0  0
  -30.5250  -13.5020   19.7840 N   0  0  0  0  0  0  0  0  0  0  0  0
  -32.1900  -14.9000   19.1060 O   0  0  0  0  0  0  0  0  0  0  0  0
  -30.3820  -15.7480   20.1840 N   0  0  0  0  0  0  0  0  0  0  0  0
  -29.6300  -15.4460   20.7810 H   0  0  0  0  0  0  0  0  0  0  0  0
  -25.8440  -13.8900   20.4500 C   0  0  0  0  0  0  0  0  0  0  0  0
  -24.7860  -13.1310   20.8740 C   0  0  0  0  0  0  0  0  0  0  0  0
  -25.1750  -11.7710   20.6810 C   0  0  0  0  0  0  0  0  0  0  0  0
  -26.8140  -12.9910   20.0320 N   0  0  0  0  0  0  0  0  0  0  0  0
  -26.4200  -11.7060   20.2270 N   0  0  0  0  0  0  0  0  0  0  0  0
  -24.4140  -10.5250   20.8500 C   0  0  0  0  0  0  0  0  0  0  0  0
  -24.8230   -9.5280   21.7610 C   0  0  0  0  0  3  0  0  0  0  0  0
  -24.0640   -8.3470   21.9180 C   0  0  0  0  0  3  0  0  0  0  0  0
  -22.8840   -8.1570   21.1630 C   0  0  0  0  0  0  0  0  0  0  0  0
  -22.4940   -9.1430   20.2390 C   0  0  0  0  0  3  0  0  0  0  0  0
  -23.2530  -10.3140   20.0790 C   0  0  0  0  0  3  0  0  0  0  0  0
  -22.0990   -7.0320   21.2290 O   0  0  0  0  0  0  0  0  0  0  0  0
  -21.9340   -6.3380   22.4010 C   0  0  0  0  0  0  0  0  0  0  0  0
  -21.4180   -6.9510   23.5640 C   0  0  0  0  0  3  0  0  0  0  0  0
  -21.2000   -6.1840   24.7260 C   0  0  0  0  0  3  0  0  0  0  0  0
  -21.4860   -4.8050   24.7260 C   0  0  0  0  0  0  0  0  0  0  0  0
  -21.9950   -4.1920   23.5670 C   0  0  0  0  0  3  0  0  0  0  0  0
  -22.2150   -4.9560   22.4070 C   0  0  0  0  0  0  0  0  0  0  0  0
  -22.6850   -4.3550   21.2870 F   0  0  0  0  0  0  0  0  0  0  0  0
  -21.2700   -4.0680   25.8390 F   0  0  0  0  0  0  0  0  0  0  0  0
  -23.4530  -13.6370   21.3420 C   0  0  0  0  0  0  0  0  0  0  0  0
  -22.8070  -12.9140   22.2500 N   0  0  0  0  0  0  0  0  0  0  0  0
  -22.9960  -14.7070   20.9380 O   0  0  0  0  0  0  0  0  0  0  0  0
  -23.1900  -12.0460   22.5950 H   0  0  0  0  0  0  0  0  0  0  0  0
  -21.9160  -13.2320   22.6040 H   0  0  0  0  0  0  0  0  0  0  0  0
  -26.0560  -15.2630   20.3670 N   0  0  0  0  0  0  0  0  0  0  0  0
  -25.3380  -15.9360   20.6090 H   0  0  0  0  0  0  0  0  0  0  0  0
  -26.8860  -15.6940   19.9750 H   0  0  0  0  0  0  0  0  0  0  0  0
  -28.7720  -25.5600   20.4860 C   0  0  0  0  0  2  0  0  0  0  0  0
  -28.8780  -26.7570   19.6870 O   0  0  0  0  0  0  0  0  0  0  0  0
  -24.9850  -31.5220   23.3050 C   0  0  0  0  0  0  0  0  0  0  0  0
  -27.7360  -27.5290   19.7370 C   0  0  0  0  0  0  0  0  0  0  0  0
  -23.8200  -30.3080   21.4920 C   0  0  0  0  0  3  0  0  0  0  0  0
  -25.3170  -28.9850   19.9020 C   0  0  0  0  0  0  0  0  0  0  0  0
  -26.3410  -30.7320   21.3670 C   0  0  0  0  0  2  0  0  0  0  0  0
  -26.4600  -29.4510   20.5640 C   0  0  0  0  0  0  0  0  0  0  0  0
  -27.6760  -28.7300   20.4830 C   0  0  0  0  0  3  0  0  0  0  0  0
  -26.5840  -27.0880   19.0560 C   0  0  0  0  0  3  0  0  0  0  0  0
  -25.3740  -27.8030   19.1420 C   0  0  0  0  0  3  0  0  0  0  0  0
  -24.0550  -29.8060   20.0410 C   0  0  0  0  0  2  0  0  0  0  0  0
  -25.0660  -30.8620   22.1150 N   0  0  0  0  0  0  0  0  0  0  0  0
  -23.8940  -31.7060   23.8630 O   0  0  0  0  0  0  0  0  0  0  0  0
  -23.1790  -29.1660   22.3140 C   0  0  0  0  0  0  0  0  0  0  0  0
  -21.8590  -28.9760   22.1480 N   0  0  0  0  0  0  0  0  0  0  0  0
  -23.8660  -28.4610   23.0560 O   0  0  0  0  0  0  0  0  0  0  0  0
  -21.3650  -29.6040   21.5300 H   0  0  0  0  0  0  0  0  0  0  0  0
  -18.5140  -27.6350   22.4130 C   0  0  0  0  0  0  0  0  0  0  0  0
  -21.0530  -27.9360   22.7880 C   0  0  0  0  0  3  0  0  0  0  0  0
  -21.2180  -26.5800   22.0660 C   0  0  0  0  0  2  0  0  0  0  0  0
  -20.1540  -26.3370   20.9900 C   0  0  0  0  0  2  0  0  0  0  0  0
  -18.7520  -26.3720   21.6030 C   0  0  0  0  0  2  0  0  0  0  0  0
  -19.5950  -28.3780   22.9560 C   0  0  0  0  0  0  0  0  0  0  0  0
  -19.3210  -29.5640   23.6710 C   0  0  0  0  0  3  0  0  0  0  0  0
  -17.9970  -30.0080   23.8480 C   0  0  0  0  0  3  0  0  0  0  0  0
  -16.9290  -29.2610   23.3230 C   0  0  0  0  0  3  0  0  0  0  0  0
  -17.1880  -28.0750   22.6120 C   0  0  0  0  0  3  0  0  0  0  0  0
  -26.2540  -32.0950   24.0100 C   0  0  0  0  0  3  0  0  0  0  0  0
  -26.7310  -31.2230   25.2350 C   0  0  1  0  0  0  0  0  0  0  0  0
  -25.6120  -30.9210   26.2570 C   0  0  0  0  0  1  0  0  0  0  0  0
  -27.3070  -29.8710   24.7520 C   0  0  0  0  0  1  0  0  0  0  0  0
  -27.8750  -31.9490   25.9810 C   0  0  0  0  0  1  0  0  0  0  0  0
  -25.9400  -33.4640   24.4380 N   0  0  0  0  0  0  0  0  0  0  0  0
  -26.2890  -34.5700   23.7660 C   0  0  0  0  0  0  0  0  0  0  0  0
  -26.9790  -34.5420   22.7430 O   0  0  0  0  0  0  0  0  0  0  0  0
  -25.3310  -33.5600   25.2370 H   0  0  0  0  0  0  0  0  0  0  0  0
  -24.5570  -36.3770   23.5240 C   0  0  0  0  0  1  0  0  0  0  0  0
  -25.7930  -35.9210   24.3150 C   0  0  0  0  0  3  0  0  0  0  0  0
  -27.9180  -36.7530   25.2220 C   0  0  0  0  0  1  0  0  0  0  0  0
  -26.8230  -36.9820   24.2830 N   0  0  0  0  0  0  0  0  0  0  0  0
  -26.4130  -37.8890   24.4900 H   0  0  0  0  0  0  0  0  0  0  0  0
  2  1  2  0
  3  1  1  0
  3  5  2  0
  4  6  1  0
  4  2  1  0
  5 55  1  0
  6  3  1  0
  7  4  2  0
  8  6  1  0
  8 11  1  0
  9 10  2  0
  9 11  1  0
 10 14  1  0
 11 12  2  0
 12 13  1  0
 12 15  1  0
 13 16  1  0
 14 25  1  0
 14 13  2  0
 17 23  1  0
 17 25  1  0
 18 23  1  0
 19 20  1  0
 19 18  1  0
 21 20  1  0
 21 30  1  0
 21 22  1  0
 23 22  1  0
 24 17  2  0
 25 26  1  0
 27 28  2  0
 28 47  1  0
 29 32  1  0
 29 28  1  0
 30 31  1  0
 30 27  1  0
 31 29  2  0
 32 33  1  0
 33 34  2  0
 35 38  1  0
 35 34  1  0
 36 35  2  0
 37 36  1  0
 37 32  2  0
 38 39  1  0
 39 44  2  0
 39 40  1  0
 40 41  2  0
 42 41  1  0
 42 46  1  0
 43 42  2  0
 44 43  1  0
 45 44  1  0
 47 48  1  0
 48 50  1  0
 48 51  1  0
 49 47  2  0
 52 27  1  0
 52 53  1  0
 54 52  1  0
 56 58  1  0
 56 55  1  0
 57 68  2  0
 58 63  1  0
 59 67  1  0
 59 69  1  0
 60 66  1  0
 60 62  1  0
 61 67  1  0
 62 61  1  0
 63 62  2  0
 64 65  1  0
 64 58  2  0
 65 60  2  0
 66 59  1  0
 67 57  1  0
 69 71  2  0
 70 69  1  0
 72 70  1  0
 73 82  2  0
 73 78  1  0
 74 70  1  0
 74 78  1  0
 75 74  1  0
 76 77  1  0
 76 75  1  0
 77 73  1  0
 78 79  2  0
 79 80  1  0
 81 80  2  0
 82 81  1  0
 83 57  1  0
 83 88  1  0
 83 84  1  0
 84 87  1  1
 84 85  1  0
 86 84  1  0
 88 91  1  0
 89 93  1  0
 89 88  1  0
 90 89  2  0
 93 92  1  0
 95 93  1  0
 95 96  1  0
 95 94  1  0
M  ISO  4  17 100  25 100  55 101  56 101
M  END
>  <TORSDO>  (31) 
F 19

>  <SCORE>  (31) 
-12.050

>  <name>  (31) 
30

>  <ligand_id>  (31) 
30

>  <original_smiles>  (31) 
[H]C1=C([H])C(=C([H])C([H])([H])Oc2c([H])c([H])c3c(c2[H])C([H])([H])N(C(=O)C([H])(N([H])C(=O)C([H])(N([H])C([H])([H])[H])C([H])([H])[H])C(C([H])([H])[H])(C([H])([H])[H])C([H])([H])[H])C([H])(C(=O)N([H])C2([H])c4c([H])c([H])c([H])c([H])c4C([H])([H])C([H])([H])C2([H])[H])C3([H])[H])N(C([H])([H])c2c([H])c([H])c(N([H])C(=O)N3C([H])([H])C([H])([H])C([H])([H])C([H])(n4nc(-c5c([H])c([H])c(Oc6c([H])c([H])c(F)c([H])c6F)c([H])c5[H])c(C(=O)N([H])[H])c4N([H])[H])C3([H])[H])c(C([H])([H])[H])c2C([H])([H])[H])C1=O

>  <smiles>  (31) 
[H]C1=C([H])C(=C([H])C([H])([H])Oc2c([H])c([H])c3c(c2[H])C([H])([H])N(C(=O)C([H])(N([H])C(=O)C([H])(N([H])C([H])([H])[H])C([H])([H])[H])C(C([H])([H])[H])(C([H])([H])[H])C([H])([H])[H])C([H])(C(=O)N([H])C2([H])c4c([H])c([H])c([H])c([H])c4C([H])([H])C([H])([H])C2([H])[H])C3([H])[H])N(C([H])([H])c2c([H])c([H])c(N([H])C(=O)N3C([H])([H])C([H])([H])C([H])([H])C([H])(n4nc(-c5c([H])c([H])c(Oc6c([H])c([H])c(F)c([H])c6F)c([H])c5[H])c(C(=O)N([H])[H])c4N([H])[H])C3([H])[H])c(C([H])([H])[H])c2C([H])([H])[H])C1=O

$$$$
31:0:0
     RDKit          3D

 97106  0  0  1  0  0  0  0  0999 V2000
  -30.0150  -22.9350   21.5640 C   0  0  0  0  0  0  0  0  0  0  0  0
  -30.5560  -22.8460   22.7990 C   0  0  0  0  0  3  0  0  0  0  0  0
  -30.0060  -24.3320   20.8040 C   0  0  0  0  0  2  0  0  0  0  0  0
  -27.8450  -23.7920   19.8090 C   0  0  0  0  0  2  0  0  0  0  0  0
  -28.5620  -22.3350   19.6570 C   0  0  0  0  0  2  0  0  0  0  0  0
  -28.6030  -25.0030   20.5100 C   0  0  0  0  0  3  0  0  0  0  0  0
  -29.2730  -21.7500   20.8760 N   0  0  1  0  0  4  0  0  0  0  0  0
  -28.4840  -21.5620   21.4780 H   0  0  0  0  0  0  0  0  0  0  0  0
  -29.7820  -21.9950   25.0370 C   0  0  0  0  0  1  0  0  0  0  0  0
  -30.5790  -21.6790   23.7680 C   0  0  0  0  0  2  0  0  0  0  0  0
  -28.6050  -26.4510   19.9480 O   0  0  0  0  0  0  0  0  0  0  0  0
  -24.7170  -31.7880   23.1980 C   0  0  0  0  0  0  0  0  0  0  0  0
  -27.4730  -27.3300   19.9870 C   0  0  0  0  0  0  0  0  0  0  0  0
  -23.5600  -30.3860   21.5350 C   0  0  0  0  0  3  0  0  0  0  0  0
  -25.0570  -28.9290   20.0450 C   0  0  0  0  0  0  0  0  0  0  0  0
  -26.0910  -30.7930   21.3360 C   0  0  0  0  0  2  0  0  0  0  0  0
  -26.2230  -29.4290   20.6410 C   0  0  0  0  0  0  0  0  0  0  0  0
  -27.4330  -28.6480   20.5880 C   0  0  0  0  0  3  0  0  0  0  0  0
  -26.2750  -26.9120   19.3740 C   0  0  0  0  0  3  0  0  0  0  0  0
  -25.0920  -27.6830   19.3980 C   0  0  0  0  0  3  0  0  0  0  0  0
  -23.7890  -29.7600   20.1340 C   0  0  0  0  0  2  0  0  0  0  0  0
  -24.8100  -31.0090   22.0790 N   0  0  0  0  0  0  0  0  0  0  0  0
  -23.6280  -32.0020   23.7500 O   0  0  0  0  0  0  0  0  0  0  0  0
  -22.9480  -29.3170   22.4770 C   0  0  0  0  0  0  0  0  0  0  0  0
  -21.6410  -29.0460   22.3260 N   0  0  0  0  0  0  0  0  0  0  0  0
  -23.6530  -28.7350   23.3050 O   0  0  0  0  0  0  0  0  0  0  0  0
  -21.1240  -29.5730   21.6350 H   0  0  0  0  0  0  0  0  0  0  0  0
  -18.3790  -27.5070   22.6710 C   0  0  0  0  0  0  0  0  0  0  0  0
  -20.8770  -28.0420   23.0710 C   0  0  0  0  0  3  0  0  0  0  0  0
  -21.1610  -26.6210   22.5350 C   0  0  0  0  0  2  0  0  0  0  0  0
  -20.1570  -26.1650   21.4720 C   0  0  0  0  0  2  0  0  0  0  0  0
  -18.7340  -26.1720   22.0360 C   0  0  0  0  0  2  0  0  0  0  0  0
  -19.3850  -28.3920   23.1420 C   0  0  0  0  0  0  0  0  0  0  0  0
  -18.9980  -29.6330   23.6940 C   0  0  0  0  0  3  0  0  0  0  0  0
  -17.6400  -29.9920   23.7780 C   0  0  0  0  0  3  0  0  0  0  0  0
  -16.6490  -29.1070   23.3220 C   0  0  0  0  0  3  0  0  0  0  0  0
  -17.0190  -27.8660   22.7750 C   0  0  0  0  0  3  0  0  0  0  0  0
  -25.9750  -32.4640   23.8280 C   0  0  0  0  0  3  0  0  0  0  0  0
  -26.5340  -31.6850   25.0820 C   0  0  1  0  0  0  0  0  0  0  0  0
  -25.4600  -31.3760   26.1530 C   0  0  0  0  0  1  0  0  0  0  0  0
  -27.1700  -30.3410   24.6580 C   0  0  0  0  0  1  0  0  0  0  0  0
  -27.6580  -32.5110   25.7510 C   0  0  0  0  0  1  0  0  0  0  0  0
  -25.6060  -33.8380   24.1990 N   0  0  0  0  0  0  0  0  0  0  0  0
  -25.9860  -34.9360   23.5310 C   0  0  0  0  0  0  0  0  0  0  0  0
  -26.7490  -34.8980   22.5610 O   0  0  0  0  0  0  0  0  0  0  0  0
  -24.9400  -33.9400   24.9510 H   0  0  0  0  0  0  0  0  0  0  0  0
  -24.2790  -36.7330   23.1060 C   0  0  0  0  0  1  0  0  0  0  0  0
  -25.4370  -36.2930   24.0160 C   0  0  0  0  0  3  0  0  0  0  0  0
  -27.4680  -37.1410   25.1050 C   0  0  0  0  0  1  0  0  0  0  0  0
  -26.4620  -37.3580   24.0690 N   0  0  0  0  0  0  0  0  0  0  0  0
  -26.0310  -38.2650   24.2290 H   0  0  0  0  0  0  0  0  0  0  0  0
  -29.9330  -20.2770   20.9000 C   0  0  0  0  0  2  0  0  0  0  0  0
  -30.4980  -19.7600   18.5040 C   0  0  0  0  0  3  0  0  0  0  0  0
  -30.7030  -19.0840   17.2960 C   0  0  0  0  0  3  0  0  0  0  0  0
  -30.7310  -17.0150   18.5070 C   0  0  0  0  0  3  0  0  0  0  0  0
  -30.3310  -19.1340   19.7780 C   0  0  0  0  0  0  0  0  0  0  0  0
  -30.5860  -17.6260   19.7900 C   0  0  0  0  0  0  0  0  0  0  0  0
  -30.7750  -17.7000   17.2910 C   0  0  0  0  0  0  0  0  0  0  0  0
  -30.9000  -17.0190   16.1260 F   0  0  0  0  0  0  0  0  0  0  0  0
  -31.3610  -15.2700   20.7220 C   0  0  0  0  0  0  0  0  0  0  0  0
  -31.1810  -12.9490   19.7450 C   0  0  0  0  0  2  0  0  0  0  0  0
  -30.3330  -12.9640   18.4500 C   0  0  0  0  0  2  0  0  0  0  0  0
  -28.8290  -12.8630   18.7770 C   0  0  0  0  0  2  0  0  0  0  0  0
  -28.3990  -13.7720   19.9590 C   0  0  0  0  0  3  0  0  0  0  0  0
  -29.3790  -13.6900   21.1480 C   0  0  0  0  0  2  0  0  0  0  0  0
  -30.7030  -14.0480   20.6350 N   0  0  0  0  0  0  0  0  0  0  0  0
  -32.5760  -15.2710   20.4980 O   0  0  0  0  0  0  0  0  0  0  0  0
  -30.6590  -16.5110   20.8240 N   0  0  0  0  0  0  0  0  0  0  0  0
  -29.8220  -16.4370   21.3860 H   0  0  0  0  0  0  0  0  0  0  0  0
  -25.9990  -14.4290   20.5620 C   0  0  0  0  0  0  0  0  0  0  0  0
  -24.8830  -13.6880   20.8460 C   0  0  0  0  0  0  0  0  0  0  0  0
  -25.2990  -12.3220   20.8140 C   0  0  0  0  0  0  0  0  0  0  0  0
  -27.0210  -13.5170   20.3670 N   0  0  0  0  0  0  0  0  0  0  0  0
  -26.6050  -12.2420   20.5870 N   0  0  0  0  0  0  0  0  0  0  0  0
  -24.5140  -11.0840   20.9270 C   0  0  0  0  0  0  0  0  0  0  0  0
  -24.8710  -10.0600   21.8300 C   0  0  0  0  0  3  0  0  0  0  0  0
  -24.0870   -8.8910   21.9330 C   0  0  0  0  0  3  0  0  0  0  0  0
  -22.9330   -8.7380   21.1290 C   0  0  0  0  0  0  0  0  0  0  0  0
  -22.5970   -9.7490   20.2110 C   0  0  0  0  0  3  0  0  0  0  0  0
  -23.3810  -10.9100   20.1060 C   0  0  0  0  0  3  0  0  0  0  0  0
  -22.1260   -7.6260   21.1440 O   0  0  0  0  0  0  0  0  0  0  0  0
  -21.9620   -6.8700   22.2770 C   0  0  0  0  0  0  0  0  0  0  0  0
  -21.4870   -7.4280   23.4840 C   0  0  0  0  0  3  0  0  0  0  0  0
  -21.2670   -6.6010   24.6040 C   0  0  0  0  0  3  0  0  0  0  0  0
  -21.5100   -5.2180   24.5180 C   0  0  0  0  0  0  0  0  0  0  0  0
  -21.9760   -4.6590   23.3150 C   0  0  0  0  0  3  0  0  0  0  0  0
  -22.1990   -5.4820   22.1980 C   0  0  0  0  0  0  0  0  0  0  0  0
  -22.6280   -4.9340   21.0350 F   0  0  0  0  0  0  0  0  0  0  0  0
  -21.2920   -4.4220   25.5910 F   0  0  0  0  0  0  0  0  0  0  0  0
  -23.4900  -14.2140   21.0350 C   0  0  0  0  0  0  0  0  0  0  0  0
  -22.6920  -13.5470   21.8640 N   0  0  0  0  0  0  0  0  0  0  0  0
  -23.1180  -15.2520   20.4910 O   0  0  0  0  0  0  0  0  0  0  0  0
  -23.0080  -12.7080   22.3260 H   0  0  0  0  0  0  0  0  0  0  0  0
  -21.7540  -13.8790   22.0340 H   0  0  0  0  0  0  0  0  0  0  0  0
  -26.2270  -15.7940   20.4280 N   0  0  0  0  0  0  0  0  0  0  0  0
  -25.4830  -16.4800   20.5110 H   0  0  0  0  0  0  0  0  0  0  0  0
  -27.1090  -16.2050   20.1530 H   0  0  0  0  0  0  0  0  0  0  0  0
  1  2  2  0
  2 10  1  0
  3  1  1  0
  4  6  1  0
  5  4  1  0
  5  7  1  0
  6 11  1  0
  6  3  1  0
  7 52  1  0
  7  8  1  1
  7  1  1  0
 10  9  1  0
 11 13  1  0
 12 23  2  0
 13 18  1  0
 14 22  1  0
 14 24  1  0
 15 21  1  0
 15 17  1  0
 16 22  1  0
 17 16  1  0
 18 17  2  0
 19 20  1  0
 19 13  2  0
 20 15  2  0
 21 14  1  0
 22 12  1  0
 24 26  2  0
 25 24  1  0
 27 25  1  0
 28 37  2  0
 28 33  1  0
 29 25  1  0
 29 33  1  0
 30 29  1  0
 31 32  1  0
 31 30  1  0
 32 28  1  0
 33 34  2  0
 34 35  1  0
 36 35  2  0
 37 36  1  0
 38 12  1  0
 38 43  1  0
 38 39  1  0
 39 42  1  1
 39 40  1  0
 41 39  1  0
 43 46  1  0
 44 48  1  0
 44 43  1  0
 45 44  2  0
 48 47  1  0
 48 50  1  0
 50 51  1  0
 50 49  1  0
 53 56  1  0
 54 53  2  0
 55 57  1  0
 56 57  2  0
 56 52  1  0
 57 68  1  0
 58 54  1  0
 58 55  2  0
 59 58  1  0
 60 68  1  0
 61 66  1  0
 62 63  1  0
 62 61  1  0
 64 63  1  0
 64 73  1  0
 64 65  1  0
 66 60  1  0
 66 65  1  0
 67 60  2  0
 68 69  1  0
 70 71  2  0
 71 90  1  0
 72 71  1  0
 72 75  1  0
 73 70  1  0
 73 74  1  0
 74 72  2  0
 75 76  1  0
 76 77  2  0
 78 81  1  0
 78 77  1  0
 79 78  2  0
 80 79  1  0
 80 75  2  0
 81 82  1  0
 82 83  1  0
 83 84  2  0
 85 84  1  0
 85 89  1  0
 86 85  2  0
 87 82  2  0
 87 86  1  0
 88 87  1  0
 90 91  1  0
 91 94  1  0
 91 93  1  0
 92 90  2  0
 95 96  1  0
 95 70  1  0
 97 95  1  0
M  ISO  4   6 101  11 101  60 100  68 100
M  END
>  <TORSDO>  (32) 
F 19

>  <SCORE>  (32) 
-12.597

>  <name>  (32) 
31

>  <ligand_id>  (32) 
31

>  <original_smiles>  (32) 
[H]C(=C1C([H])([H])C([H])(Oc2c([H])c([H])c3c(c2[H])C([H])([H])N(C(=O)C([H])(N([H])C(=O)C([H])(N([H])C([H])([H])[H])C([H])([H])[H])C(C([H])([H])[H])(C([H])([H])[H])C([H])([H])[H])C([H])(C(=O)N([H])C2([H])c4c([H])c([H])c([H])c([H])c4C([H])([H])C([H])([H])C2([H])[H])C3([H])[H])C([H])([H])C([H])([H])[N+]1([H])C([H])([H])c1c([H])c([H])c(F)c([H])c1N([H])C(=O)N1C([H])([H])C([H])([H])C([H])([H])C([H])(n2nc(-c3c([H])c([H])c(Oc4c([H])c([H])c(F)c([H])c4F)c([H])c3[H])c(C(=O)N([H])[H])c2N([H])[H])C1([H])[H])C([H])([H])C([H])([H])[H]

>  <smiles>  (32) 
[H]C(=C1C([H])([H])C([H])(Oc2c([H])c([H])c3c(c2[H])C([H])([H])N(C(=O)C([H])(N([H])C(=O)C([H])(N([H])C([H])([H])[H])C([H])([H])[H])C(C([H])([H])[H])(C([H])([H])[H])C([H])([H])[H])C([H])(C(=O)N([H])C2([H])c4c([H])c([H])c([H])c([H])c4C([H])([H])C([H])([H])C2([H])[H])C3([H])[H])C([H])([H])C([H])([H])[N+]1([H])C([H])([H])c1c([H])c([H])c(F)c([H])c1N([H])C(=O)N1C([H])([H])C([H])([H])C([H])([H])C([H])(n2nc(-c3c([H])c([H])c(Oc4c([H])c([H])c(F)c([H])c4F)c([H])c3[H])c(C(=O)N([H])[H])c2N([H])[H])C1([H])[H])C([H])([H])C([H])([H])[H]

$$$$
32:0:0
     RDKit          3D

 94102  0  0  1  0  0  0  0  0999 V2000
  -29.7160  -20.8490   19.9020 C   0  0  0  0  0  2  0  0  0  0  0  0
  -31.1410  -18.3660   22.6450 C   0  0  0  0  0  3  0  0  0  0  0  0
  -31.3840  -19.2960   23.6680 C   0  0  0  0  0  3  0  0  0  0  0  0
  -30.5680  -21.0670   22.2320 C   0  0  0  0  0  3  0  0  0  0  0  0
  -30.6010  -18.7470   21.3910 C   0  0  0  0  0  0  0  0  0  0  0  0
  -30.3020  -20.1590   21.1760 C   0  0  0  0  0  0  0  0  0  0  0  0
  -31.0970  -20.6490   23.4610 C   0  0  0  0  0  0  0  0  0  0  0  0
  -31.3950  -21.8000   24.7110 Cl  0  0  0  0  0  0  0  0  0  0  0  0
  -30.4270  -17.5900   20.3660 C   0  0  0  0  0  2  0  0  0  0  0  0
  -31.0780  -15.1130   20.8200 C   0  0  0  0  0  0  0  0  0  0  0  0
  -31.0270  -12.7280   20.1380 C   0  0  0  0  0  2  0  0  0  0  0  0
  -30.2410  -12.6190   18.8120 C   0  0  0  0  0  2  0  0  0  0  0  0
  -28.7300  -12.4780   19.0820 C   0  0  0  0  0  2  0  0  0  0  0  0
  -28.2050  -13.5220   20.1030 C   0  0  0  0  0  3  0  0  0  0  0  0
  -29.1190  -13.6010   21.3480 C   0  0  0  0  0  2  0  0  0  0  0  0
  -30.4870  -13.8800   20.8850 N   0  0  0  0  0  0  0  0  0  0  0  0
  -32.2650  -15.2450   20.5130 O   0  0  0  0  0  0  0  0  0  0  0  0
  -30.2420  -16.1890   20.8940 N   0  0  0  0  0  0  0  0  0  0  0  0
  -29.2990  -15.9640   21.1670 H   0  0  0  0  0  0  0  0  0  0  0  0
  -25.7640  -14.1710   20.5790 C   0  0  0  0  0  0  0  0  0  0  0  0
  -24.6540  -13.4210   20.8580 C   0  0  0  0  0  0  0  0  0  0  0  0
  -25.0930  -12.0620   20.8900 C   0  0  0  0  0  0  0  0  0  0  0  0
  -26.8120  -13.2710   20.4600 N   0  0  0  0  0  0  0  0  0  0  0  0
  -26.4060  -11.9980   20.7070 N   0  0  0  0  0  0  0  0  0  0  0  0
  -24.3300  -10.8150   21.0280 C   0  0  0  0  0  0  0  0  0  0  0  0
  -24.6590   -9.8530   22.0090 C   0  0  0  0  0  3  0  0  0  0  0  0
  -23.8980   -8.6710   22.1360 C   0  0  0  0  0  3  0  0  0  0  0  0
  -22.7940   -8.4410   21.2810 C   0  0  0  0  0  0  0  0  0  0  0  0
  -22.4850   -9.3910   20.2920 C   0  0  0  0  0  3  0  0  0  0  0  0
  -23.2460  -10.5650   20.1640 C   0  0  0  0  0  3  0  0  0  0  0  0
  -22.0150   -7.3100   21.3140 O   0  0  0  0  0  0  0  0  0  0  0  0
  -21.8450   -6.5860   22.4670 C   0  0  0  0  0  0  0  0  0  0  0  0
  -21.2790   -7.1560   23.6280 C   0  0  0  0  0  3  0  0  0  0  0  0
  -21.0600   -6.3570   24.7680 C   0  0  0  0  0  3  0  0  0  0  0  0
  -21.3970   -4.9900   24.7480 C   0  0  0  0  0  0  0  0  0  0  0  0
  -21.9550   -4.4200   23.5900 C   0  0  0  0  0  3  0  0  0  0  0  0
  -22.1760   -5.2160   22.4520 C   0  0  0  0  0  0  0  0  0  0  0  0
  -22.6950   -4.6560   21.3320 F   0  0  0  0  0  0  0  0  0  0  0  0
  -21.1780   -4.2210   25.8400 F   0  0  0  0  0  0  0  0  0  0  0  0
  -23.2450  -13.9250   20.9900 C   0  0  0  0  0  0  0  0  0  0  0  0
  -22.4300  -13.2590   21.8020 N   0  0  0  0  0  0  0  0  0  0  0  0
  -22.8730  -14.9430   20.4080 O   0  0  0  0  0  0  0  0  0  0  0  0
  -22.7390  -12.4350   22.2960 H   0  0  0  0  0  0  0  0  0  0  0  0
  -21.4800  -13.5800   21.9330 H   0  0  0  0  0  0  0  0  0  0  0  0
  -25.9690  -15.5360   20.3970 N   0  0  0  0  0  0  0  0  0  0  0  0
  -25.2050  -16.2030   20.4200 H   0  0  0  0  0  0  0  0  0  0  0  0
  -26.8490  -15.9540   20.1290 H   0  0  0  0  0  0  0  0  0  0  0  0
  -28.2310  -22.9820   20.3680 C   0  0  0  0  0  0  0  0  0  0  0  0
  -27.3280  -20.7220   20.3640 C   0  0  0  0  0  1  0  0  0  0  0  0
  -28.4630  -21.6340   20.1510 N   0  0  0  0  0  0  0  0  0  0  0  0
  -27.2420  -23.3090   21.0340 O   0  0  0  0  0  0  0  0  0  0  0  0
  -29.0500  -24.1840   19.7710 C   0  0  0  0  0  2  0  0  0  0  0  0
  -28.1510  -25.3980   19.2430 C   0  0  0  0  0  2  0  0  0  0  0  0
  -28.3490  -26.8110   19.6500 O   0  0  0  0  0  0  0  0  0  0  0  0
  -24.5140  -31.7980   23.1770 C   0  0  0  0  0  0  0  0  0  0  0  0
  -27.2120  -27.6430   19.6640 C   0  0  0  0  0  0  0  0  0  0  0  0
  -23.3270  -30.5240   21.4300 C   0  0  0  0  0  3  0  0  0  0  0  0
  -24.7990  -29.1740   19.8380 C   0  0  0  0  0  0  0  0  0  0  0  0
  -25.8530  -30.9400   21.2450 C   0  0  0  0  0  2  0  0  0  0  0  0
  -25.9620  -29.6350   20.4670 C   0  0  0  0  0  0  0  0  0  0  0  0
  -27.1690  -28.8810   20.3770 C   0  0  0  0  0  3  0  0  0  0  0  0
  -26.0260  -27.2540   18.9930 C   0  0  0  0  0  3  0  0  0  0  0  0
  -24.8330  -27.9890   19.0910 C   0  0  0  0  0  3  0  0  0  0  0  0
  -23.5370  -29.9960   19.9880 C   0  0  0  0  0  2  0  0  0  0  0  0
  -24.5840  -31.0980   22.0080 N   0  0  0  0  0  0  0  0  0  0  0  0
  -23.4320  -31.9890   23.7500 O   0  0  0  0  0  0  0  0  0  0  0  0
  -22.7130  -29.3970   22.2950 C   0  0  0  0  0  0  0  0  0  0  0  0
  -21.3940  -29.1790   22.1580 N   0  0  0  0  0  0  0  0  0  0  0  0
  -23.4210  -28.7280   23.0520 O   0  0  0  0  0  0  0  0  0  0  0  0
  -20.8790  -29.7770   21.5280 H   0  0  0  0  0  0  0  0  0  0  0  0
  -18.0690  -27.8180   22.5730 C   0  0  0  0  0  0  0  0  0  0  0  0
  -20.6190  -28.1440   22.8440 C   0  0  0  0  0  3  0  0  0  0  0  0
  -20.7660  -26.7770   22.1380 C   0  0  0  0  0  2  0  0  0  0  0  0
  -19.6640  -26.5080   21.1090 C   0  0  0  0  0  2  0  0  0  0  0  0
  -18.2860  -26.5430   21.7750 C   0  0  0  0  0  2  0  0  0  0  0  0
  -19.1650  -28.5770   23.0610 C   0  0  0  0  0  0  0  0  0  0  0  0
  -18.9100  -29.7730   23.7670 C   0  0  0  0  0  3  0  0  0  0  0  0
  -17.5900  -30.2110   23.9880 C   0  0  0  0  0  3  0  0  0  0  0  0
  -16.5090  -29.4480   23.5130 C   0  0  0  0  0  3  0  0  0  0  0  0
  -16.7490  -28.2520   22.8140 C   0  0  0  0  0  3  0  0  0  0  0  0
  -25.7880  -32.4090   23.8380 C   0  0  0  0  0  3  0  0  0  0  0  0
  -25.4740  -33.7960   24.2050 N   0  0  0  0  0  0  0  0  0  0  0  0
  -25.8250  -34.8720   23.4880 C   0  0  0  0  0  0  0  0  0  0  0  0
  -26.5170  -34.8000   22.4680 O   0  0  0  0  0  0  0  0  0  0  0  0
  -24.8620  -33.9270   24.9980 H   0  0  0  0  0  0  0  0  0  0  0  0
  -24.1140  -36.6840   23.1460 C   0  0  0  0  0  1  0  0  0  0  0  0
  -25.3290  -36.2460   23.9770 C   0  0  0  0  0  3  0  0  0  0  0  0
  -27.4370  -37.0990   24.9050 C   0  0  0  0  0  1  0  0  0  0  0  0
  -26.3690  -37.2970   23.9300 N   0  0  0  0  0  0  0  0  0  0  0  0
  -25.9620  -38.2150   24.0870 H   0  0  0  0  0  0  0  0  0  0  0  0
  -26.2830  -31.5980   25.0980 C   0  0  1  0  0  0  0  0  0  0  0  0
  -25.1740  -31.3320   26.1420 C   0  0  0  0  0  1  0  0  0  0  0  0
  -26.8710  -30.2320   24.6750 C   0  0  0  0  0  1  0  0  0  0  0  0
  -27.4250  -32.3700   25.8010 C   0  0  0  0  0  1  0  0  0  0  0  0
  1 50  1  0
  1  6  1  0
  2  3  1  0
  4  7  1  0
  5  2  2  0
  6  5  1  0
  6  4  2  0
  7  3  2  0
  7  8  1  0
  9 18  1  0
  9  5  1  0
 10 16  1  0
 10 18  1  0
 11 16  1  0
 12 13  1  0
 12 11  1  0
 14 13  1  0
 14 23  1  0
 14 15  1  0
 16 15  1  0
 17 10  2  0
 18 19  1  0
 20 21  2  0
 21 22  1  0
 21 40  1  0
 22 25  1  0
 23 20  1  0
 23 24  1  0
 24 22  2  0
 25 26  1  0
 26 27  2  0
 28 31  1  0
 28 27  1  0
 29 28  2  0
 30 29  1  0
 30 25  2  0
 31 32  1  0
 32 33  1  0
 33 34  2  0
 35 34  1  0
 35 39  1  0
 36 35  2  0
 37 32  2  0
 37 36  1  0
 38 37  1  0
 40 41  1  0
 41 44  1  0
 41 43  1  0
 42 40  2  0
 45 46  1  0
 45 20  1  0
 47 45  1  0
 48 51  2  0
 50 49  1  0
 50 48  1  0
 52 48  1  0
 53 54  1  0
 53 52  1  0
 54 56  1  0
 55 66  2  0
 56 61  1  0
 57 65  1  0
 57 67  1  0
 58 64  1  0
 58 60  1  0
 59 65  1  0
 60 59  1  0
 61 60  2  0
 62 63  1  0
 62 56  2  0
 63 58  2  0
 64 57  1  0
 65 55  1  0
 67 69  2  0
 68 67  1  0
 70 68  1  0
 71 80  2  0
 71 76  1  0
 72 68  1  0
 72 76  1  0
 73 72  1  0
 74 75  1  0
 74 73  1  0
 75 71  1  0
 76 77  2  0
 77 78  1  0
 79 78  2  0
 80 79  1  0
 81 55  1  0
 81 82  1  0
 81 91  1  0
 82 85  1  0
 83 87  1  0
 83 82  1  0
 84 83  2  0
 87 86  1  0
 89 87  1  0
 89 90  1  0
 89 88  1  0
 91 94  1  1
 91 92  1  0
 93 91  1  0
M  ISO  4  10 100  18 100  53 101  54 101
M  END
>  <TORSDO>  (33) 
F 21

>  <SCORE>  (33) 
-12.427

>  <name>  (33) 
32

>  <ligand_id>  (33) 
32

>  <original_smiles>  (33) 
[H]c1c([H])c([H])c2c(c1[H])C([H])([H])C([H])([H])C([H])([H])C2([H])N([H])C(=O)C1([H])N(C(=O)C([H])(N([H])C(=O)C([H])(N([H])C([H])([H])[H])C([H])([H])[H])C(C([H])([H])[H])(C([H])([H])[H])C([H])([H])[H])C([H])([H])c2c([H])c(OC([H])([H])C([H])([H])C(=O)N(C([H])([H])[H])C([H])([H])c3c([H])c(Cl)c([H])c([H])c3C([H])([H])N([H])C(=O)N3C([H])([H])C([H])([H])C([H])([H])C([H])(n4nc(-c5c([H])c([H])c(Oc6c([H])c([H])c(F)c([H])c6F)c([H])c5[H])c(C(=O)N([H])[H])c4N([H])[H])C3([H])[H])c([H])c([H])c2C1([H])[H]

>  <smiles>  (33) 
[H]c1c([H])c([H])c2c(c1[H])C([H])([H])C([H])([H])C([H])([H])C2([H])N([H])C(=O)C1([H])N(C(=O)C([H])(N([H])C(=O)C([H])(N([H])C([H])([H])[H])C([H])([H])[H])C(C([H])([H])[H])(C([H])([H])[H])C([H])([H])[H])C([H])([H])c2c([H])c(OC([H])([H])C([H])([H])C(=O)N(C([H])([H])[H])C([H])([H])c3c([H])c(Cl)c([H])c([H])c3C([H])([H])N([H])C(=O)N3C([H])([H])C([H])([H])C([H])([H])C([H])(n4nc(-c5c([H])c([H])c(Oc6c([H])c([H])c(F)c([H])c6F)c([H])c5[H])c(C(=O)N([H])[H])c4N([H])[H])C3([H])[H])c([H])c([H])c2C1([H])[H]

$$$$
33:0:0
     RDKit          3D

104112  0  0  1  0  0  0  0  0999 V2000
  -27.6550  -19.5610   17.3780 C   0  0  0  0  0  0  0  0  0  0  0  0
  -26.9140  -19.1910   16.3350 N   0  0  0  0  0  4  0  0  0  0  0  0
  -27.3230  -20.6240   18.1140 N   0  0  0  0  0  0  0  0  0  0  0  0
  -27.1670  -18.3650   15.8150 H   0  0  0  0  0  0  0  0  0  0  0  0
  -26.0640  -19.6680   16.0850 H   0  0  0  0  0  0  0  0  0  0  0  0
  -27.9980  -20.8770   18.8230 H   0  0  0  0  0  0  0  0  0  0  0  0
  -29.9240  -18.8470   16.8330 C   0  0  0  0  0  3  0  0  0  0  0  0
  -28.8640  -18.8320   17.7550 C   0  0  0  0  0  0  0  0  0  0  0  0
  -29.0340  -18.2320   19.0370 C   0  0  0  0  0  0  0  0  0  0  0  0
  -30.3170  -17.7420   19.4190 C   0  0  0  0  0  0  0  0  0  0  0  0
  -31.4110  -17.8670   18.5030 C   0  0  0  0  0  0  0  0  0  0  0  0
  -31.1890  -18.3780   17.2040 C   0  0  0  0  0  0  0  0  0  0  0  0
  -27.8440  -18.1410   20.0020 C   0  0  0  0  0  1  0  0  0  0  0  0
  -32.8500  -17.5060   18.8590 C   0  0  0  0  0  1  0  0  0  0  0  0
  -32.2090  -18.4730   16.3140 F   0  0  0  0  0  0  0  0  0  0  0  0
  -30.5060  -17.1270   20.8180 C   0  0  0  0  0  2  0  0  0  0  0  0
  -30.7890  -14.6640   20.6320 C   0  0  0  0  0  0  0  0  0  0  0  0
  -30.5120  -12.4910   19.5460 C   0  0  0  0  0  2  0  0  0  0  0  0
  -29.6080  -12.6820   18.3140 C   0  0  0  0  0  2  0  0  0  0  0  0
  -28.1210  -12.5360   18.6970 C   0  0  0  0  0  2  0  0  0  0  0  0
  -27.7370  -13.3970   19.9320 C   0  0  0  0  0  3  0  0  0  0  0  0
  -28.7660  -13.2230   21.0760 C   0  0  0  0  0  2  0  0  0  0  0  0
  -30.1080  -13.4960   20.5360 N   0  0  0  0  0  0  0  0  0  0  0  0
  -31.9570  -14.8000   20.2740 O   0  0  0  0  0  0  0  0  0  0  0  0
  -30.0460  -15.7360   20.9260 N   0  0  0  0  0  0  0  0  0  0  0  0
  -29.0800  -15.5740   21.1580 H   0  0  0  0  0  0  0  0  0  0  0  0
  -25.3100  -13.9740   20.5730 C   0  0  0  0  0  0  0  0  0  0  0  0
  -24.2460  -13.1890   20.9190 C   0  0  0  0  0  0  0  0  0  0  0  0
  -24.7260  -11.8420   20.9040 C   0  0  0  0  0  0  0  0  0  0  0  0
  -26.3750  -13.1080   20.3780 N   0  0  0  0  0  0  0  0  0  0  0  0
  -26.0270  -11.8210   20.6370 N   0  0  0  0  0  0  0  0  0  0  0  0
  -24.0120  -10.5700   21.0720 C   0  0  0  0  0  0  0  0  0  0  0  0
  -24.4290   -9.6140   22.0240 C   0  0  0  0  0  3  0  0  0  0  0  0
  -23.7200   -8.4030   22.1820 C   0  0  0  0  0  3  0  0  0  0  0  0
  -22.5770   -8.1430   21.3880 C   0  0  0  0  0  0  0  0  0  0  0  0
  -22.1790   -9.0890   20.4250 C   0  0  0  0  0  3  0  0  0  0  0  0
  -22.8900  -10.2900   20.2650 C   0  0  0  0  0  3  0  0  0  0  0  0
  -21.8380   -6.9870   21.4550 O   0  0  0  0  0  0  0  0  0  0  0  0
  -21.7540   -6.2500   22.6080 C   0  0  0  0  0  0  0  0  0  0  0  0
  -21.2520   -6.7990   23.8080 C   0  0  0  0  0  3  0  0  0  0  0  0
  -21.1180   -5.9870   24.9520 C   0  0  0  0  0  3  0  0  0  0  0  0
  -21.4760   -4.6270   24.8970 C   0  0  0  0  0  0  0  0  0  0  0  0
  -21.9710   -4.0780   23.7000 C   0  0  0  0  0  3  0  0  0  0  0  0
  -22.1080   -4.8880   22.5600 C   0  0  0  0  0  0  0  0  0  0  0  0
  -22.5620   -4.3460   21.4030 F   0  0  0  0  0  0  0  0  0  0  0  0
  -21.3430   -3.8440   25.9930 F   0  0  0  0  0  0  0  0  0  0  0  0
  -22.8330  -13.6420   21.1530 C   0  0  0  0  0  0  0  0  0  0  0  0
  -22.0890  -12.9320   21.9940 N   0  0  0  0  0  0  0  0  0  0  0  0
  -22.3920  -14.6640   20.6250 O   0  0  0  0  0  0  0  0  0  0  0  0
  -22.4530  -12.1030   22.4430 H   0  0  0  0  0  0  0  0  0  0  0  0
  -21.1400  -13.2180   22.1950 H   0  0  0  0  0  0  0  0  0  0  0  0
  -25.4570  -15.3460   20.3780 N   0  0  0  0  0  0  0  0  0  0  0  0
  -24.6680  -15.9790   20.4190 H   0  0  0  0  0  0  0  0  0  0  0  0
  -26.2830  -15.7700   19.9840 H   0  0  0  0  0  0  0  0  0  0  0  0
  -26.1980  -21.5600   17.9880 C   0  0  0  0  0  2  0  0  0  0  0  0
  -24.8430  -23.3030   19.2900 C   0  0  0  0  0  1  0  0  0  0  0  0
  -25.7980  -22.1010   19.3730 C   0  0  0  0  0  3  0  0  0  0  0  0
  -27.8440  -23.2190   20.4970 C   0  0  0  0  0  0  0  0  0  0  0  0
  -26.9540  -22.2330   20.2890 N   0  0  0  0  0  0  0  0  0  0  0  0
  -28.8360  -22.9870   21.1850 O   0  0  0  0  0  0  0  0  0  0  0  0
  -27.1310  -21.4020   20.8340 H   0  0  0  0  0  0  0  0  0  0  0  0
  -27.6090  -24.6290   19.9380 C   0  0  0  0  0  3  0  0  0  0  0  0
  -28.5440  -25.7410   20.4850 C   0  0  0  0  0  3  0  0  0  0  0  0
  -28.4380  -27.0370   19.8750 O   0  0  0  0  0  0  0  0  0  0  0  0
  -24.5970  -31.9850   23.3100 C   0  0  0  0  0  0  0  0  0  0  0  0
  -27.2450  -27.7150   19.9920 C   0  0  0  0  0  0  0  0  0  0  0  0
  -23.3850  -30.6240   21.6390 C   0  0  0  0  0  3  0  0  0  0  0  0
  -24.8310  -29.1700   20.1290 C   0  0  0  0  0  0  0  0  0  0  0  0
  -25.8990  -31.0290   21.4100 C   0  0  0  0  0  2  0  0  0  0  0  0
  -25.9900  -29.6850   20.7220 C   0  0  0  0  0  0  0  0  0  0  0  0
  -27.2000  -28.9590   20.6600 C   0  0  0  0  0  3  0  0  0  0  0  0
  -26.0760  -27.2340   19.3670 C   0  0  0  0  0  3  0  0  0  0  0  0
  -24.8680  -27.9420   19.4540 C   0  0  0  0  0  3  0  0  0  0  0  0
  -23.5720  -29.9990   20.2310 C   0  0  0  0  0  2  0  0  0  0  0  0
  -24.6460  -31.2250   22.1770 N   0  0  0  0  0  0  0  0  0  0  0  0
  -23.5230  -32.2180   23.8800 O   0  0  0  0  0  0  0  0  0  0  0  0
  -22.7710  -29.5550   22.5700 C   0  0  0  0  0  0  0  0  0  0  0  0
  -21.4520  -29.3420   22.4410 N   0  0  0  0  0  0  0  0  0  0  0  0
  -23.4770  -28.9180   23.3560 O   0  0  0  0  0  0  0  0  0  0  0  0
  -20.9380  -29.9200   21.7890 H   0  0  0  0  0  0  0  0  0  0  0  0
  -18.1240  -28.0060   22.8850 C   0  0  0  0  0  0  0  0  0  0  0  0
  -20.6660  -28.3520   23.1780 C   0  0  0  0  0  3  0  0  0  0  0  0
  -20.8290  -26.9380   22.5710 C   0  0  0  0  0  2  0  0  0  0  0  0
  -19.7410  -26.5890   21.5490 C   0  0  0  0  0  2  0  0  0  0  0  0
  -18.3530  -26.6750   22.1870 C   0  0  0  0  0  2  0  0  0  0  0  0
  -19.2110  -28.7990   23.3370 C   0  0  0  0  0  0  0  0  0  0  0  0
  -18.9450  -30.0350   23.9640 C   0  0  0  0  0  3  0  0  0  0  0  0
  -17.6210  -30.4810   24.1430 C   0  0  0  0  0  3  0  0  0  0  0  0
  -16.5480  -29.6910   23.6980 C   0  0  0  0  0  3  0  0  0  0  0  0
  -16.7980  -28.4560   23.0710 C   0  0  0  0  0  3  0  0  0  0  0  0
  -25.8900  -32.6110   23.9230 C   0  0  0  0  0  3  0  0  0  0  0  0
  -25.5950  -34.0160   24.2300 N   0  0  0  0  0  0  0  0  0  0  0  0
  -25.9410  -35.0510   23.4540 C   0  0  0  0  0  0  0  0  0  0  0  0
  -26.6170  -34.9270   22.4290 O   0  0  0  0  0  0  0  0  0  0  0  0
  -25.0060  -34.1890   25.0290 H   0  0  0  0  0  0  0  0  0  0  0  0
  -24.2390  -36.8580   23.0480 C   0  0  0  0  0  1  0  0  0  0  0  0
  -25.4620  -36.4520   23.8860 C   0  0  0  0  0  3  0  0  0  0  0  0
  -27.5880  -37.3250   24.7450 C   0  0  0  0  0  1  0  0  0  0  0  0
  -26.5080  -37.4920   23.7760 N   0  0  0  0  0  0  0  0  0  0  0  0
  -26.1060  -38.4170   23.9070 H   0  0  0  0  0  0  0  0  0  0  0  0
  -26.3990  -31.8550   25.2090 C   0  0  1  0  0  0  0  0  0  0  0  0
  -25.3000  -31.6340   26.2750 C   0  0  0  0  0  1  0  0  0  0  0  0
  -26.9800  -30.4720   24.8320 C   0  0  0  0  0  1  0  0  0  0  0  0
  -27.5530  -32.6480   25.8610 C   0  0  0  0  0  1  0  0  0  0  0  0
  1  8  1  0
  1  3  1  0
  2  1  2  0
  3  6  1  0
  4  2  1  0
  5  2  1  0
  7 12  2  0
  7  8  1  0
  8  9  2  0
  9 10  1  0
  9 13  1  0
 10 16  1  0
 11 14  1  0
 11 10  2  0
 12 11  1  0
 15 12  1  0
 16 25  1  0
 17 25  1  0
 18 23  1  0
 19 20  1  0
 19 18  1  0
 21 20  1  0
 21 30  1  0
 21 22  1  0
 23 17  1  0
 23 22  1  0
 24 17  2  0
 25 26  1  0
 27 28  2  0
 28 47  1  0
 29 28  1  0
 29 32  1  0
 30 27  1  0
 30 31  1  0
 31 29  2  0
 32 33  1  0
 33 34  2  0
 35 38  1  0
 35 34  1  0
 36 35  2  0
 37 36  1  0
 37 32  2  0
 38 39  1  0
 39 40  1  0
 40 41  2  0
 42 41  1  0
 42 46  1  0
 43 42  2  0
 44 39  2  0
 44 43  1  0
 45 44  1  0
 47 48  1  0
 48 51  1  0
 48 50  1  0
 49 47  2  0
 52 53  1  0
 52 27  1  0
 54 52  1  0
 55  3  1  0
 55 57  1  0
 57 56  1  0
 57 59  1  0
 58 60  2  0
 59 58  1  0
 59 61  1  0
 62 63  2  0
 62 58  1  0
 64 66  1  0
 64 63  1  0
 65 76  2  0
 66 71  1  0
 67 75  1  0
 67 77  1  0
 68 74  1  0
 68 70  1  0
 69 75  1  0
 70 69  1  0
 71 70  2  0
 72 73  1  0
 72 66  2  0
 73 68  2  0
 74 67  1  0
 75 65  1  0
 77 79  2  0
 78 77  1  0
 80 78  1  0
 81 90  2  0
 81 86  1  0
 82 78  1  0
 82 86  1  0
 83 82  1  0
 84 85  1  0
 84 83  1  0
 85 81  1  0
 86 87  2  0
 87 88  1  0
 89 88  2  0
 90 89  1  0
 91 65  1  0
 91 92  1  0
 91101  1  0
 92 95  1  0
 93 97  1  0
 93 92  1  0
 94 93  2  0
 97 96  1  0
 99 97  1  0
 99100  1  0
 99 98  1  0
101104  1  1
101102  1  0
103101  1  0
M  ISO  4  17 100  25 100  63 101  64 101
M  END
>  <TORSDO>  (34) 
F 23

>  <SCORE>  (34) 
-13.062

>  <name>  (34) 
33

>  <ligand_id>  (34) 
33

>  <original_smiles>  (34) 
[H]c1c([H])c([H])c2c(c1[H])C([H])([H])C([H])([H])C([H])([H])C2([H])N([H])C(=O)C1([H])N(C(=O)C([H])(N([H])C(=O)C([H])(N([H])C([H])([H])[H])C([H])([H])[H])C(C([H])([H])[H])(C([H])([H])[H])C([H])([H])[H])C([H])([H])c2c([H])c(OC([H])([H])C([H])([H])C(=O)N([H])C([H])(C([H])([H])[H])C([H])([H])[N+]([H])=C(c3c([H])c(F)c(C([H])([H])[H])c(C([H])([H])N([H])C(=O)N4C([H])([H])C([H])([H])C([H])([H])C([H])(n5nc(-c6c([H])c([H])c(Oc7c([H])c([H])c(F)c([H])c7F)c([H])c6[H])c(C(=O)N([H])[H])c5N([H])[H])C4([H])[H])c3C([H])([H])[H])N([H])[H])c([H])c([H])c2C1([H])[H]

>  <smiles>  (34) 
[H]c1c([H])c([H])c2c(c1[H])C([H])([H])C([H])([H])C([H])([H])C2([H])N([H])C(=O)C1([H])N(C(=O)C([H])(N([H])C(=O)C([H])(N([H])C([H])([H])[H])C([H])([H])[H])C(C([H])([H])[H])(C([H])([H])[H])C([H])([H])[H])C([H])([H])c2c([H])c(OC([H])([H])C([H])([H])C(=O)N([H])C([H])(C([H])([H])[H])C([H])([H])[N+]([H])=C(c3c([H])c(F)c(C([H])([H])[H])c(C([H])([H])N([H])C(=O)N4C([H])([H])C([H])([H])C([H])([H])C([H])(n5nc(-c6c([H])c([H])c(Oc7c([H])c([H])c(F)c([H])c7F)c([H])c6[H])c(C(=O)N([H])[H])c5N([H])[H])C4([H])[H])c3C([H])([H])[H])N([H])[H])c([H])c([H])c2C1([H])[H]

$$$$
34:0:0
     RDKit          3D

 92100  0  0  1  0  0  0  0  0999 V2000
  -29.6150  -19.5960   21.1240 C   0  0  0  0  0  3  0  0  0  0  0  0
  -28.1710  -20.4360   19.3510 C   0  0  0  0  0  3  0  0  0  0  0  0
  -29.0020  -18.1300   19.2690 C   0  0  0  0  0  3  0  0  0  0  0  0
  -28.8330  -20.6700   20.5760 C   0  0  0  0  0  0  0  0  0  0  0  0
  -29.7120  -18.3170   20.4760 C   0  0  0  0  0  0  0  0  0  0  0  0
  -28.2410  -19.1780   18.7120 C   0  0  0  0  0  0  0  0  0  0  0  0
  -27.3550  -18.9190   17.2520 Cl  0  0  0  0  0  0  0  0  0  0  0  0
  -28.4740  -21.9540   21.3780 C   0  0  0  0  0  2  0  0  0  0  0  0
  -28.2430  -24.3700   21.1620 C   0  0  0  0  0  3  0  0  0  0  0  0
  -26.7840  -24.3530   21.6100 C   0  0  0  0  0  1  0  0  0  0  0  0
  -28.9390  -23.2950   20.9110 N   0  0  0  0  0  2  0  0  0  0  0  0
  -28.8440  -25.8180   21.1910 C   0  0  0  0  0  2  0  0  0  0  0  0
  -28.4850  -26.7560   20.1480 O   0  0  0  0  0  0  0  0  0  0  0  0
  -24.5660  -31.9480   23.2860 C   0  0  0  0  0  0  0  0  0  0  0  0
  -27.3290  -27.5110   20.2570 C   0  0  0  0  0  0  0  0  0  0  0  0
  -23.4180  -30.5310   21.6190 C   0  0  0  0  0  3  0  0  0  0  0  0
  -24.9250  -29.0190   20.2140 C   0  0  0  0  0  0  0  0  0  0  0  0
  -25.9460  -30.9210   21.4730 C   0  0  0  0  0  2  0  0  0  0  0  0
  -26.0670  -29.5470   20.8350 C   0  0  0  0  0  0  0  0  0  0  0  0
  -27.2750  -28.7980   20.8580 C   0  0  0  0  0  3  0  0  0  0  0  0
  -26.1750  -27.0180   19.6190 C   0  0  0  0  0  3  0  0  0  0  0  0
  -24.9740  -27.7540   19.6060 C   0  0  0  0  0  3  0  0  0  0  0  0
  -23.6710  -29.8670   20.2390 C   0  0  0  0  0  2  0  0  0  0  0  0
  -24.6610  -31.1510   22.1840 N   0  0  0  0  0  0  0  0  0  0  0  0
  -23.4700  -32.1990   23.8070 O   0  0  0  0  0  0  0  0  0  0  0  0
  -22.7690  -29.4920   22.5640 C   0  0  0  0  0  0  0  0  0  0  0  0
  -21.4470  -29.3040   22.4340 N   0  0  0  0  0  0  0  0  0  0  0  0
  -23.4510  -28.8630   23.3800 O   0  0  0  0  0  0  0  0  0  0  0  0
  -20.9480  -29.8830   21.7740 H   0  0  0  0  0  0  0  0  0  0  0  0
  -18.0720  -28.1040   22.9190 C   0  0  0  0  0  0  0  0  0  0  0  0
  -20.6320  -28.3450   23.1790 C   0  0  0  0  0  3  0  0  0  0  0  0
  -20.7250  -26.9310   22.5590 C   0  0  0  0  0  2  0  0  0  0  0  0
  -19.6140  -26.6340   21.5530 C   0  0  0  0  0  2  0  0  0  0  0  0
  -18.2390  -26.7700   22.2090 C   0  0  0  0  0  2  0  0  0  0  0  0
  -19.1990  -28.8520   23.3560 C   0  0  0  0  0  0  0  0  0  0  0  0
  -18.9960  -30.1070   23.9680 C   0  0  0  0  0  3  0  0  0  0  0  0
  -17.6950  -30.6110   24.1530 C   0  0  0  0  0  3  0  0  0  0  0  0
  -16.5800  -29.8550   23.7480 C   0  0  0  0  0  3  0  0  0  0  0  0
  -16.7680  -28.6040   23.1330 C   0  0  0  0  0  3  0  0  0  0  0  0
  -25.8310  -32.5960   23.9320 C   0  0  0  0  0  3  0  0  0  0  0  0
  -26.3160  -31.8540   25.2370 C   0  0  1  0  0  0  0  0  0  0  0  0
  -25.1940  -31.6150   26.2730 C   0  0  0  0  0  1  0  0  0  0  0  0
  -26.9320  -30.4780   24.8890 C   0  0  0  0  0  1  0  0  0  0  0  0
  -27.4330  -32.6750   25.9280 C   0  0  0  0  0  1  0  0  0  0  0  0
  -25.5070  -34.0020   24.2270 N   0  0  0  0  0  0  0  0  0  0  0  0
  -25.8630  -35.0400   23.4560 C   0  0  0  0  0  0  0  0  0  0  0  0
  -26.5700  -34.9200   22.4520 O   0  0  0  0  0  0  0  0  0  0  0  0
  -24.8800  -34.1700   25.0000 H   0  0  0  0  0  0  0  0  0  0  0  0
  -24.1550  -36.8290   22.9890 C   0  0  0  0  0  1  0  0  0  0  0  0
  -25.3550  -36.4360   23.8670 C   0  0  0  0  0  3  0  0  0  0  0  0
  -27.4420  -37.3380   24.7960 C   0  0  0  0  0  1  0  0  0  0  0  0
  -26.3950  -37.4860   23.7860 N   0  0  0  0  0  0  0  0  0  0  0  0
  -25.9830  -38.4070   23.8950 H   0  0  0  0  0  0  0  0  0  0  0  0
  -30.6020  -17.1710   21.0410 C   0  0  0  0  0  2  0  0  0  0  0  0
  -30.8590  -14.7110   20.3480 C   0  0  0  0  0  0  0  0  0  0  0  0
  -30.5460  -12.5660   19.1430 C   0  0  0  0  0  2  0  0  0  0  0  0
  -29.5760  -12.8080   17.9630 C   0  0  0  0  0  2  0  0  0  0  0  0
  -28.1130  -12.6550   18.4240 C   0  0  0  0  0  2  0  0  0  0  0  0
  -27.8130  -13.4300   19.7380 C   0  0  0  0  0  3  0  0  0  0  0  0
  -28.9000  -13.1910   20.8110 C   0  0  0  0  0  2  0  0  0  0  0  0
  -30.1950  -13.5280   20.2090 N   0  0  0  0  0  0  0  0  0  0  0  0
  -31.9930  -14.8780   19.8940 O   0  0  0  0  0  0  0  0  0  0  0  0
  -30.1510  -15.7550   20.8630 N   0  0  0  0  0  0  0  0  0  0  0  0
  -29.2190  -15.5380   21.1760 H   0  0  0  0  0  0  0  0  0  0  0  0
  -25.4410  -14.0100   20.5270 C   0  0  0  0  0  0  0  0  0  0  0  0
  -24.3830  -13.2280   20.9040 C   0  0  0  0  0  0  0  0  0  0  0  0
  -24.8490  -11.8800   20.8350 C   0  0  0  0  0  0  0  0  0  0  0  0
  -26.4770  -13.1350   20.2450 N   0  0  0  0  0  0  0  0  0  0  0  0
  -26.1280  -11.8470   20.4870 N   0  0  0  0  0  0  0  0  0  0  0  0
  -24.1280  -10.6120   21.0130 C   0  0  0  0  0  0  0  0  0  0  0  0
  -24.5470   -9.6490   21.9540 C   0  0  0  0  0  3  0  0  0  0  0  0
  -23.8260   -8.4480   22.1200 C   0  0  0  0  0  3  0  0  0  0  0  0
  -22.6680   -8.2020   21.3440 C   0  0  0  0  0  0  0  0  0  0  0  0
  -22.2680   -9.1560   20.3900 C   0  0  0  0  0  3  0  0  0  0  0  0
  -22.9910  -10.3480   20.2240 C   0  0  0  0  0  3  0  0  0  0  0  0
  -21.9220   -7.0510   21.4150 O   0  0  0  0  0  0  0  0  0  0  0  0
  -21.8220   -6.3310   22.5780 C   0  0  0  0  0  0  0  0  0  0  0  0
  -21.2910   -6.8890   23.7610 C   0  0  0  0  0  3  0  0  0  0  0  0
  -21.1470   -6.0910   24.9130 C   0  0  0  0  0  3  0  0  0  0  0  0
  -21.5200   -4.7340   24.8800 C   0  0  0  0  0  0  0  0  0  0  0  0
  -22.0440   -4.1740   23.7020 C   0  0  0  0  0  3  0  0  0  0  0  0
  -22.1930   -4.9710   22.5530 C   0  0  0  0  0  0  0  0  0  0  0  0
  -22.6780   -4.4210   21.4140 F   0  0  0  0  0  0  0  0  0  0  0  0
  -21.3750   -3.9650   25.9850 F   0  0  0  0  0  0  0  0  0  0  0  0
  -22.9970  -13.7000   21.2280 C   0  0  0  0  0  0  0  0  0  0  0  0
  -22.3000  -12.9860   22.1040 N   0  0  0  0  0  0  0  0  0  0  0  0
  -22.5450  -14.7390   20.7500 O   0  0  0  0  0  0  0  0  0  0  0  0
  -22.6890  -12.1510   22.5160 H   0  0  0  0  0  0  0  0  0  0  0  0
  -21.3710  -13.2790   22.3660 H   0  0  0  0  0  0  0  0  0  0  0  0
  -25.5970  -15.3820   20.3720 N   0  0  0  0  0  0  0  0  0  0  0  0
  -24.8150  -16.0150   20.4970 H   0  0  0  0  0  0  0  0  0  0  0  0
  -26.4200  -15.8350   19.9960 H   0  0  0  0  0  0  0  0  0  0  0  0
  2  4  2  0
  3  5  1  0
  4  1  1  0
  4  8  1  0
  5 54  1  0
  5  1  2  0
  6  3  2  0
  6  2  1  0
  7  6  1  0
  9 12  1  0
  9 10  1  0
 11  9  1  0
 11  8  1  0
 13 15  1  0
 13 12  1  0
 14 25  2  0
 15 20  1  0
 16 24  1  0
 16 26  1  0
 17 23  1  0
 17 19  1  0
 18 24  1  0
 19 20  2  0
 19 18  1  0
 21 15  2  0
 22 21  1  0
 22 17  2  0
 23 16  1  0
 24 14  1  0
 26 28  2  0
 27 26  1  0
 29 27  1  0
 30 39  2  0
 30 35  1  0
 31 27  1  0
 31 35  1  0
 32 31  1  0
 33 34  1  0
 33 32  1  0
 34 30  1  0
 35 36  2  0
 36 37  1  0
 38 37  2  0
 39 38  1  0
 40 14  1  0
 40 45  1  0
 40 41  1  0
 41 44  1  1
 41 42  1  0
 43 41  1  0
 45 48  1  0
 46 50  1  0
 46 45  1  0
 47 46  2  0
 50 49  1  0
 52 50  1  0
 52 53  1  0
 52 51  1  0
 55 63  1  0
 56 61  1  0
 57 58  1  0
 57 56  1  0
 59 58  1  0
 59 68  1  0
 59 60  1  0
 61 55  1  0
 61 60  1  0
 62 55  2  0
 63 54  1  0
 63 64  1  0
 65 66  2  0
 66 85  1  0
 67 66  1  0
 67 70  1  0
 68 69  1  0
 68 65  1  0
 69 67  2  0
 70 71  1  0
 71 72  2  0
 73 76  1  0
 73 72  1  0
 74 73  2  0
 75 74  1  0
 75 70  2  0
 76 77  1  0
 77 78  1  0
 78 79  2  0
 80 79  1  0
 80 84  1  0
 81 80  2  0
 82 77  2  0
 82 81  1  0
 83 82  1  0
 85 86  1  0
 86 89  1  0
 86 88  1  0
 87 85  2  0
 90 91  1  0
 90 65  1  0
 92 90  1  0
M  ISO  4  12 101  13 101  55 100  63 100
M  END
>  <TORSDO>  (35) 
F 20

>  <SCORE>  (35) 
-13.876

>  <name>  (35) 
34

>  <ligand_id>  (35) 
34

>  <original_smiles>  (35) 
[H]c1c([H])c([H])c2c(c1[H])C([H])([H])C([H])([H])C([H])([H])C2([H])N([H])C(=O)C1([H])N(C(=O)C([H])(N([H])C(=O)C([H])(N([H])C([H])([H])[H])C([H])([H])[H])C(C([H])([H])[H])(C([H])([H])[H])C([H])([H])[H])C([H])([H])c2c([H])c(OC([H])([H])C(=NC([H])([H])c3c([H])c(Cl)c([H])c(C([H])([H])N([H])C(=O)N4C([H])([H])C([H])([H])C([H])([H])C([H])(n5nc(-c6c([H])c([H])c(Oc7c([H])c([H])c(F)c([H])c7F)c([H])c6[H])c(C(=O)N([H])[H])c5N([H])[H])C4([H])[H])c3[H])C([H])([H])[H])c([H])c([H])c2C1([H])[H]

>  <smiles>  (35) 
[H]c1c([H])c([H])c2c(c1[H])C([H])([H])C([H])([H])C([H])([H])C2([H])N([H])C(=O)C1([H])N(C(=O)C([H])(N([H])C(=O)C([H])(N([H])C([H])([H])[H])C([H])([H])[H])C(C([H])([H])[H])(C([H])([H])[H])C([H])([H])[H])C([H])([H])c2c([H])c(OC([H])([H])C(=NC([H])([H])c3c([H])c(Cl)c([H])c(C([H])([H])N([H])C(=O)N4C([H])([H])C([H])([H])C([H])([H])C([H])(n5nc(-c6c([H])c([H])c(Oc7c([H])c([H])c(F)c([H])c7F)c([H])c6[H])c(C(=O)N([H])[H])c5N([H])[H])C4([H])[H])c3[H])C([H])([H])[H])c([H])c([H])c2C1([H])[H]

$$$$
35:0:0
     RDKit          3D

106115  0  0  1  0  0  0  0  0999 V2000
  -29.7900  -21.6560   23.0350 C   0  0  0  0  0  0  0  0  0  0  0  0
  -29.7880  -24.1880   21.4830 C   0  0  0  0  0  0  0  0  0  0  0  0
  -30.2500  -20.7270   23.8950 C   0  0  0  0  0  3  0  0  0  0  0  0
  -28.7820  -22.7610   23.3410 C   0  0  0  0  0  2  0  0  0  0  0  0
  -30.7650  -23.0560   21.2150 C   0  0  0  0  0  2  0  0  0  0  0  0
  -29.2140  -24.1780   22.9050 C   0  0  0  0  0  3  0  0  0  0  0  0
  -30.1870  -24.8280   23.9050 C   0  0  0  0  0  1  0  0  0  0  0  0
  -29.5460  -25.0350   20.5620 N   0  0  0  0  0  0  0  0  0  0  0  0
  -30.2370  -21.7250   21.6190 N   0  0  2  0  0  4  0  0  0  0  0  0
  -31.0590  -21.1420   21.5650 H   0  0  0  0  0  0  0  0  0  0  0  0
  -31.7210  -18.8370   24.4600 C   0  0  0  0  0  2  0  0  0  0  0  0
  -31.1820  -19.6650   23.5510 C   0  0  0  0  0  3  0  0  0  0  0  0
  -29.3210  -21.0660   20.6490 C   0  0  0  0  0  2  0  0  0  0  0  0
  -29.6590  -18.5700   20.3390 C   0  0  0  0  0  3  0  0  0  0  0  0
  -31.4340  -17.6770   18.9590 C   0  0  0  0  0  3  0  0  0  0  0  0
  -30.0280  -19.8890   19.9660 C   0  0  0  0  0  0  0  0  0  0  0  0
  -31.7870  -18.9650   18.5160 C   0  0  0  0  0  0  0  0  0  0  0  0
  -31.0570  -20.0880   18.9990 C   0  0  0  0  0  0  0  0  0  0  0  0
  -30.3280  -17.4480   19.8090 C   0  0  0  0  0  0  0  0  0  0  0  0
  -31.3920  -21.4860   18.4780 C   0  0  0  0  0  1  0  0  0  0  0  0
  -30.4780  -14.9920   19.6850 C   0  0  0  0  0  0  0  0  0  0  0  0
  -30.3530  -12.5810   19.2530 C   0  0  0  0  0  2  0  0  0  0  0  0
  -29.4200  -12.3170   18.0570 C   0  0  0  0  0  2  0  0  0  0  0  0
  -27.9770  -12.1360   18.5540 C   0  0  0  0  0  2  0  0  0  0  0  0
  -27.5260  -13.2710   19.5140 C   0  0  0  0  0  3  0  0  0  0  0  0
  -28.5880  -13.5650   20.6040 C   0  0  0  0  0  2  0  0  0  0  0  0
  -29.8790  -13.7970   19.9380 N   0  0  0  0  0  0  0  0  0  0  0  0
  -31.5110  -15.0550   19.0190 O   0  0  0  0  0  0  0  0  0  0  0  0
  -29.8790  -16.1210   20.1260 N   0  0  0  0  0  0  0  0  0  0  0  0
  -28.9770  -16.0200   20.5710 H   0  0  0  0  0  0  0  0  0  0  0  0
  -25.2310  -13.8590   20.5120 C   0  0  0  0  0  0  0  0  0  0  0  0
  -24.1760  -13.0780   20.9060 C   0  0  0  0  0  0  0  0  0  0  0  0
  -24.5850  -11.7260   20.6960 C   0  0  0  0  0  0  0  0  0  0  0  0
  -26.2190  -12.9790   20.0980 N   0  0  0  0  0  0  0  0  0  0  0  0
  -25.8380  -11.6860   20.2610 N   0  0  0  0  0  0  0  0  0  0  0  0
  -23.8340  -10.4690   20.8320 C   0  0  0  0  0  0  0  0  0  0  0  0
  -24.2510   -9.4530   21.7210 C   0  0  0  0  0  3  0  0  0  0  0  0
  -23.5030   -8.2620   21.8490 C   0  0  0  0  0  3  0  0  0  0  0  0
  -22.3250   -8.0810   21.0870 C   0  0  0  0  0  0  0  0  0  0  0  0
  -21.9270   -9.0850   20.1870 C   0  0  0  0  0  3  0  0  0  0  0  0
  -22.6740  -10.2670   20.0570 C   0  0  0  0  0  3  0  0  0  0  0  0
  -21.5480   -6.9470   21.1270 O   0  0  0  0  0  0  0  0  0  0  0  0
  -21.3990   -6.2170   22.2780 C   0  0  0  0  0  0  0  0  0  0  0  0
  -20.8500   -6.7780   23.4520 C   0  0  0  0  0  3  0  0  0  0  0  0
  -20.6510   -5.9730   24.5920 C   0  0  0  0  0  3  0  0  0  0  0  0
  -20.9930   -4.6070   24.5560 C   0  0  0  0  0  0  0  0  0  0  0  0
  -21.5330   -4.0450   23.3860 C   0  0  0  0  0  3  0  0  0  0  0  0
  -21.7350   -4.8480   22.2500 C   0  0  0  0  0  0  0  0  0  0  0  0
  -22.2360   -4.2970   21.1180 F   0  0  0  0  0  0  0  0  0  0  0  0
  -20.7950   -3.8310   25.6460 F   0  0  0  0  0  0  0  0  0  0  0  0
  -22.8290  -13.5620   21.3630 C   0  0  0  0  0  0  0  0  0  0  0  0
  -22.1740  -12.8100   22.2390 N   0  0  0  0  0  0  0  0  0  0  0  0
  -22.3720  -14.6380   20.9810 O   0  0  0  0  0  0  0  0  0  0  0  0
  -22.5560  -11.9360   22.5660 H   0  0  0  0  0  0  0  0  0  0  0  0
  -21.2750  -13.1120   22.5860 H   0  0  0  0  0  0  0  0  0  0  0  0
  -25.4240  -15.2330   20.4500 N   0  0  0  0  0  0  0  0  0  0  0  0
  -24.6980  -15.8970   20.6980 H   0  0  0  0  0  0  0  0  0  0  0  0
  -26.2530  -15.6770   20.0740 H   0  0  0  0  0  0  0  0  0  0  0  0
  -32.9360  -19.1060   17.5140 C   0  0  1  0  0  0  0  0  0  0  0  0
  -33.5230  -17.9380   17.2500 F   0  0  0  0  0  0  0  0  0  0  0  0
  -32.4760  -19.5930   16.3600 F   0  0  0  0  0  0  0  0  0  0  0  0
  -33.8730  -19.9220   17.9950 F   0  0  0  0  0  0  0  0  0  0  0  0
  -28.5980  -26.1220   20.7370 C   0  0  0  0  0  2  0  0  0  0  0  0
  -29.9240  -26.9810   18.6560 C   0  0  0  0  0  1  0  0  0  0  0  0
  -28.7870  -27.2340   19.6620 C   0  0  0  0  0  3  0  0  0  0  0  0
  -27.6360  -27.2610   18.8330 O   0  0  0  0  0  0  0  0  0  0  0  0
  -24.4350  -31.9450   23.2150 C   0  0  0  0  0  0  0  0  0  0  0  0
  -26.5300  -27.9660   19.2390 C   0  0  0  0  0  0  0  0  0  0  0  0
  -22.9810  -30.7680   21.5980 C   0  0  0  0  0  3  0  0  0  0  0  0
  -24.1850  -29.4260   19.8010 C   0  0  0  0  0  0  0  0  0  0  0  0
  -25.4570  -31.1480   21.0890 C   0  0  0  0  0  2  0  0  0  0  0  0
  -25.4220  -29.8690   20.2850 C   0  0  0  0  0  0  0  0  0  0  0  0
  -26.6000  -29.1450   20.0110 C   0  0  0  0  0  3  0  0  0  0  0  0
  -25.2830  -27.5280   18.7560 C   0  0  0  0  0  3  0  0  0  0  0  0
  -24.1080  -28.2470   19.0410 C   0  0  0  0  0  3  0  0  0  0  0  0
  -22.9790  -30.2760   20.1270 C   0  0  0  0  0  2  0  0  0  0  0  0
  -24.3180  -31.2950   22.0240 N   0  0  0  0  0  0  0  0  0  0  0  0
  -23.4460  -32.1450   23.9350 O   0  0  0  0  0  0  0  0  0  0  0  0
  -22.4540  -29.6290   22.4990 C   0  0  0  0  0  0  0  0  0  0  0  0
  -21.1480  -29.3390   22.3910 N   0  0  0  0  0  0  0  0  0  0  0  0
  -23.2140  -29.0150   23.2510 O   0  0  0  0  0  0  0  0  0  0  0  0
  -20.5880  -29.8860   21.7520 H   0  0  0  0  0  0  0  0  0  0  0  0
  -17.9670  -27.6640   22.7160 C   0  0  0  0  0  0  0  0  0  0  0  0
  -20.4420  -28.2840   23.1190 C   0  0  0  0  0  3  0  0  0  0  0  0
  -20.7850  -26.8910   22.5440 C   0  0  0  0  0  2  0  0  0  0  0  0
  -19.7920  -26.4230   21.4760 C   0  0  0  0  0  2  0  0  0  0  0  0
  -18.3720  -26.3630   22.0470 C   0  0  0  0  0  2  0  0  0  0  0  0
  -18.9400  -28.5740   23.2060 C   0  0  0  0  0  0  0  0  0  0  0  0
  -18.5110  -29.7880   23.7850 C   0  0  0  0  0  3  0  0  0  0  0  0
  -17.1410  -30.0910   23.8900 C   0  0  0  0  0  3  0  0  0  0  0  0
  -16.1810  -29.1760   23.4210 C   0  0  0  0  0  3  0  0  0  0  0  0
  -16.5950  -27.9670   22.8350 C   0  0  0  0  0  3  0  0  0  0  0  0
  -25.8090  -32.4850   23.7200 C   0  0  0  0  0  3  0  0  0  0  0  0
  -25.5950  -33.8620   24.1870 N   0  0  0  0  0  0  0  0  0  0  0  0
  -25.9260  -34.9600   23.4950 C   0  0  0  0  0  0  0  0  0  0  0  0
  -26.5140  -34.9170   22.4100 O   0  0  0  0  0  0  0  0  0  0  0  0
  -25.0670  -33.9790   25.0380 H   0  0  0  0  0  0  0  0  0  0  0  0
  -24.2890  -36.8680   23.3910 C   0  0  0  0  0  1  0  0  0  0  0  0
  -25.5370  -36.3220   24.1020 C   0  0  0  0  0  3  0  0  0  0  0  0
  -27.7500  -37.0080   24.9130 C   0  0  0  0  0  1  0  0  0  0  0  0
  -26.6230  -37.3230   24.0390 N   0  0  0  0  0  0  0  0  0  0  0  0
  -26.2770  -38.2440   24.2910 H   0  0  0  0  0  0  0  0  0  0  0  0
  -26.4540  -31.6000   24.8550 C   0  0  1  0  0  0  0  0  0  0  0  0
  -25.4920  -31.3010   26.0290 C   0  0  0  0  0  1  0  0  0  0  0  0
  -26.9360  -30.2440   24.2840 C   0  0  0  0  0  1  0  0  0  0  0  0
  -27.7080  -32.3080   25.4240 C   0  0  0  0  0  1  0  0  0  0  0  0
  1  4  1  0
  1  3  2  0
  2  6  1  0
  5  2  1  0
  5  9  1  0
  6  4  1  0
  6  7  1  0
  8 63  1  0
  8  2  2  0
  9  1  1  0
  9 10  1  1
 12  3  1  0
 12 11  2  0
 13  9  1  0
 15 19  1  0
 16 14  1  0
 16 13  1  0
 17 15  2  0
 17 18  1  0
 18 16  2  0
 19 29  1  0
 19 14  2  0
 20 18  1  0
 21 27  1  0
 21 29  1  0
 22 27  1  0
 23 24  1  0
 23 22  1  0
 25 24  1  0
 25 34  1  0
 25 26  1  0
 27 26  1  0
 28 21  2  0
 29 30  1  0
 31 32  2  0
 32 51  1  0
 33 36  1  0
 33 32  1  0
 34 35  1  0
 34 31  1  0
 35 33  2  0
 36 37  1  0
 37 38  2  0
 39 42  1  0
 39 38  1  0
 40 39  2  0
 41 40  1  0
 41 36  2  0
 42 43  1  0
 43 44  1  0
 44 45  2  0
 46 45  1  0
 46 50  1  0
 47 46  2  0
 48 43  2  0
 48 47  1  0
 49 48  1  0
 51 52  1  0
 52 54  1  0
 52 55  1  0
 53 51  2  0
 56 31  1  0
 56 57  1  0
 58 56  1  0
 59 62  1  1
 59 17  1  0
 60 59  1  0
 61 59  1  0
 65 64  1  0
 65 63  1  0
 66 68  1  0
 66 65  1  0
 67 78  2  0
 68 73  1  0
 69 77  1  0
 69 79  1  0
 70 76  1  0
 70 72  1  0
 71 77  1  0
 72 71  1  0
 73 72  2  0
 74 75  1  0
 74 68  2  0
 75 70  2  0
 76 69  1  0
 77 67  1  0
 79 81  2  0
 80 79  1  0
 82 80  1  0
 83 92  2  0
 83 88  1  0
 84 80  1  0
 84 88  1  0
 85 84  1  0
 86 87  1  0
 86 85  1  0
 87 83  1  0
 88 89  2  0
 89 90  1  0
 91 90  2  0
 92 91  1  0
 93 67  1  0
 93 94  1  0
 93103  1  0
 94 97  1  0
 95 99  1  0
 95 94  1  0
 96 95  2  0
 99 98  1  0
101 99  1  0
101102  1  0
101100  1  0
103106  1  1
103104  1  0
105103  1  0
M  ISO  4  21 100  29 100  65 101  66 101
M  END
>  <TORSDO>  (36) 
F 22

>  <SCORE>  (36) 
-9.040

>  <name>  (36) 
35

>  <ligand_id>  (36) 
35

>  <original_smiles>  (36) 
[H]C([H])=C([H])C([H])=C1C([H])([H])C([H])(C([H])([H])[H])C(=NC([H])([H])C([H])(Oc2c([H])c([H])c3c(c2[H])C([H])([H])N(C(=O)C([H])(N([H])C(=O)C([H])(N([H])C([H])([H])[H])C([H])([H])[H])C(C([H])([H])[H])(C([H])([H])[H])C([H])([H])[H])C([H])(C(=O)N([H])C2([H])c4c([H])c([H])c([H])c([H])c4C([H])([H])C([H])([H])C2([H])[H])C3([H])[H])C([H])([H])[H])C([H])([H])[N+]1([H])C([H])([H])c1c([H])c(N([H])C(=O)N2C([H])([H])C([H])([H])C([H])([H])C([H])(n3nc(-c4c([H])c([H])c(Oc5c([H])c([H])c(F)c([H])c5F)c([H])c4[H])c(C(=O)N([H])[H])c3N([H])[H])C2([H])[H])c([H])c(C(F)(F)F)c1C([H])([H])[H]

>  <smiles>  (36) 
[H]C([H])=C([H])C([H])=C1C([H])([H])C([H])(C([H])([H])[H])C(=NC([H])([H])C([H])(Oc2c([H])c([H])c3c(c2[H])C([H])([H])N(C(=O)C([H])(N([H])C(=O)C([H])(N([H])C([H])([H])[H])C([H])([H])[H])C(C([H])([H])[H])(C([H])([H])[H])C([H])([H])[H])C([H])(C(=O)N([H])C2([H])c4c([H])c([H])c([H])c([H])c4C([H])([H])C([H])([H])C2([H])[H])C3([H])[H])C([H])([H])[H])C([H])([H])[N+]1([H])C([H])([H])c1c([H])c(N([H])C(=O)N2C([H])([H])C([H])([H])C([H])([H])C([H])(n3nc(-c4c([H])c([H])c(Oc5c([H])c([H])c(F)c([H])c5F)c([H])c4[H])c(C(=O)N([H])[H])c3N([H])[H])C2([H])[H])c([H])c(C(F)(F)F)c1C([H])([H])[H]

$$$$
36:0:0
     RDKit          3D

 95 96  0  0  1  0  0  0  0  0999 V2000
  -25.8960  -19.4260   19.6960 C   0  0  0  0  0  0  0  0  0  0  0  0
  -26.0230  -18.0030   20.0030 N   0  0  0  0  0  0  0  0  0  0  0  0
  -24.8780  -19.7490   19.0830 O   0  0  0  0  0  0  0  0  0  0  0  0
  -26.9030  -17.7860   20.4550 H   0  0  0  0  0  0  0  0  0  0  0  0
  -24.9900  -16.7270   20.0270 C   0  0  0  0  0  2  0  0  0  0  0  0
  -26.4330  -14.2320   18.5200 C   0  0  0  0  0 15  0  0  0  0  0  0
  -24.9820  -13.7780   21.9570 C   0  0  0  0  0 15  0  0  0  0  0  0
  -27.1950  -10.8900   20.4540 C   0  0  0  0  0 15  0  0  0  0  0  0
  -25.2110  -15.0330   20.1140 C   0  0  0  0  0  1  0  0  0  0  0  0
  -27.5760  -12.4140   18.6950 C   0  0  0  0  0  1  0  0  0  0  0  0
  -25.8930  -11.7690   22.1440 C   0  0  0  0  0  2  0  0  0  0  0  0
  -25.7620  -11.1160   23.3260 F   0  0  0  0  0  0  0  0  0  0  0  0
  -29.1520  -13.1500   18.2720 C   0  0  0  0  0  2  0  0  0  0  0  0
  -31.4120  -13.4290   20.3310 C   0  0  0  0  0  0  0  0  0  0  0  0
  -31.8250  -11.1300   20.3470 C   0  0  0  0  0  2  0  0  0  0  0  0
  -31.0270  -10.9110   19.0800 C   0  0  0  0  0  2  0  0  0  0  0  0
  -29.5780  -10.8980   19.5730 C   0  0  0  0  0  2  0  0  0  0  0  0
  -29.0790  -12.0050   20.7700 C   0  0  0  0  0  3  0  0  0  0  0  0
  -30.0540  -12.0210   21.8300 C   0  0  0  0  0  2  0  0  0  0  0  0
  -31.2290  -12.2770   21.0110 N   0  0  0  0  0  0  0  0  0  0  0  0
  -32.4480  -14.0060   20.7100 O   0  0  0  0  0  0  0  0  0  0  0  0
  -30.5310  -13.7260   19.1480 N   0  0  0  0  0  0  0  0  0  0  0  0
  -30.8670  -14.5750   18.7130 H   0  0  0  0  0  0  0  0  0  0  0  0
  -26.8970  -13.1560   20.7840 C   0  0  0  0  0  0  0  0  0  0  0  0
  -25.1560  -12.5030   20.3680 C   0  0  0  0  0  0  0  0  0  0  0  0
  -24.9970  -11.2590   20.1210 C   0  0  0  0  0  2  0  0  0  0  0  0
  -27.7020  -12.6340   21.1110 N   0  0  0  0  0  2  0  0  0  0  0  0
  -25.9370  -12.3960   20.4760 N   0  0  0  0  0  0  0  0  0  0  0  0
  -24.4770   -9.9240   20.7790 C   0  0  0  0  0  3  0  0  0  0  0  0
  -24.9530   -8.9770   21.7760 C   0  0  0  0  0  3  0  0  0  0  0  0
  -24.2250   -7.8070   22.1330 C   0  0  0  0  0  3  0  0  0  0  0  0
  -23.0170   -7.5150   21.4640 C   0  0  0  0  0  0  0  0  0  0  0  0
  -22.5940   -8.3810   20.4500 C   0  0  0  0  0  3  0  0  0  0  0  0
  -23.3060   -9.5390   20.1230 C   0  0  0  0  0  3  0  0  0  0  0  0
  -22.2400   -6.3960   21.6350 O   0  0  0  0  0  0  0  0  0  0  0  0
  -22.0620   -5.7830   22.8470 C   0  0  0  0  0  0  0  0  0  0  0  0
  -21.6280   -6.4820   23.9940 C   0  0  0  0  0  3  0  0  0  0  0  0
  -21.3770   -5.7790   25.1910 C   0  0  0  0  0  3  0  0  0  0  0  0
  -21.5530   -4.3820   25.2390 C   0  0  0  0  0  0  0  0  0  0  0  0
  -21.9730   -3.6850   24.0940 C   0  0  0  0  0  3  0  0  0  0  0  0
  -22.2210   -4.3830   22.9000 C   0  0  0  0  0  0  0  0  0  0  0  0
  -22.5980   -3.7040   21.7900 F   0  0  0  0  0  0  0  0  0  0  0  0
  -21.3140   -3.7080   26.3880 F   0  0  0  0  0  0  0  0  0  0  0  0
  -23.5590  -12.9640   20.4180 C   0  0  0  0  0  0  0  0  0  0  0  0
  -22.7770  -12.4180   21.3610 N   0  0  0  0  0  0  0  0  0  0  0  0
  -23.1000  -13.7950   19.6440 O   0  0  0  0  0  0  0  0  0  0  0  0
  -23.1550  -11.7570   22.0220 H   0  0  0  0  0  0  0  0  0  0  0  0
  -21.8040  -12.6810   21.4230 H   0  0  0  0  0  0  0  0  0  0  0  0
  -27.7340  -14.3830   20.9640 N   0  0  0  0  0  4  0  0  0  0  0  0
  -27.2580  -15.1470   20.5060 H   0  0  0  0  0  0  0  0  0  0  0  0
  -28.7040  -14.3240   20.7050 H   0  0  0  0  0  0  0  0  0  0  0  0
  -26.8980  -20.7570   20.1190 C   0  0  0  0  0  2  0  0  0  0  0  0
  -27.0400  -22.3940   19.4630 C   0  0  0  0  0  3  0  0  0  0  0  0
  -27.6280  -23.8820   20.2020 C   0  0  0  0  0  3  0  0  0  0  0  0
  -28.1820  -25.3410   19.7500 O   0  0  0  0  0  0  0  0  0  0  0  0
  -24.8420  -31.1280   22.8970 C   0  0  0  0  0  0  0  0  0  0  0  0
  -27.3530  -26.5150   19.6840 C   0  0  0  0  0  0  0  0  0  0  0  0
  -23.6980  -29.8110   21.1670 C   0  0  0  0  0  3  0  0  0  0  0  0
  -25.1690  -28.3810   19.6380 C   0  0  0  0  0  0  0  0  0  0  0  0
  -26.2540  -30.1040   21.0610 C   0  0  0  0  0  2  0  0  0  0  0  0
  -26.3370  -28.7520   20.3180 C   0  0  0  0  0  0  0  0  0  0  0  0
  -27.4580  -27.8290   20.3210 C   0  0  0  0  0  3  0  0  0  0  0  0
  -26.2140  -26.3060   18.9090 C   0  0  0  0  0  3  0  0  0  0  0  0
  -25.1330  -27.1940   18.9000 C   0  0  0  0  0  3  0  0  0  0  0  0
  -23.9440  -29.2690   19.7390 C   0  0  0  0  0  2  0  0  0  0  0  0
  -24.9530  -30.3730   21.7620 N   0  0  0  0  0  0  0  0  0  0  0  0
  -23.7400  -31.3490   23.4240 O   0  0  0  0  0  0  0  0  0  0  0  0
  -23.0480  -28.7100   22.0460 C   0  0  0  0  0  0  0  0  0  0  0  0
  -21.7300  -28.4900   21.8850 N   0  0  0  0  0  0  0  0  0  0  0  0
  -23.7320  -28.0640   22.8450 O   0  0  0  0  0  0  0  0  0  0  0  0
  -21.2310  -29.0670   21.2230 H   0  0  0  0  0  0  0  0  0  0  0  0
  -18.3950  -27.1240   22.2590 C   0  0  0  0  0  0  0  0  0  0  0  0
  -20.9370  -27.4790   22.5900 C   0  0  0  0  0  3  0  0  0  0  0  0
  -21.1090  -26.0850   21.9420 C   0  0  0  0  0  2  0  0  0  0  0  0
  -20.0400  -25.7710   20.8900 C   0  0  0  0  0  2  0  0  0  0  0  0
  -18.6420  -25.8230   21.5130 C   0  0  0  0  0  2  0  0  0  0  0  0
  -19.4730  -27.9080   22.7510 C   0  0  0  0  0  0  0  0  0  0  0  0
  -19.1880  -29.1230   23.4100 C   0  0  0  0  0  3  0  0  0  0  0  0
  -17.8600  -29.5580   23.5800 C   0  0  0  0  0  3  0  0  0  0  0  0
  -16.7980  -28.7710   23.1040 C   0  0  0  0  0  3  0  0  0  0  0  0
  -17.0650  -27.5560   22.4500 C   0  0  0  0  0  3  0  0  0  0  0  0
  -26.0890  -31.7680   23.5740 C   0  0  0  0  0  3  0  0  0  0  0  0
  -25.7180  -33.1310   23.9920 N   0  0  0  0  0  0  0  0  0  0  0  0
  -26.0050  -34.2480   23.3110 C   0  0  0  0  0  0  0  0  0  0  0  0
  -26.6770  -34.2410   22.2760 O   0  0  0  0  0  0  0  0  0  0  0  0
  -25.1190  -33.2070   24.8010 H   0  0  0  0  0  0  0  0  0  0  0  0
  -24.1920  -35.9810   23.0970 C   0  0  0  0  0  1  0  0  0  0  0  0
  -25.4640  -35.5820   23.8630 C   0  0  0  0  0  3  0  0  0  0  0  0
  -27.5680  -36.5140   24.7210 C   0  0  0  0  0  1  0  0  0  0  0  0
  -26.4460  -36.6870   23.8020 N   0  0  0  0  0  0  0  0  0  0  0  0
  -26.0000  -37.5770   24.0100 H   0  0  0  0  0  0  0  0  0  0  0  0
  -26.6130  -30.9420   24.8140 C   0  0  1  0  0  0  0  0  0  0  0  0
  -25.5140  -30.6060   25.8490 C   0  0  0  0  0  1  0  0  0  0  0  0
  -27.2530  -29.6100   24.3620 C   0  0  0  0  0  1  0  0  0  0  0  0
  -27.7230  -31.7380   25.5400 C   0  0  0  0  0  1  0  0  0  0  0  0
  1  2  1  0
  1 52  1  0
  2  5  1  0
  2  4  1  0
  3  1  2  0
  5  9  1  0
 11 12  1  0
 13 10  1  0
 13 22  1  0
 14 21  2  0
 14 20  1  0
 15 20  1  0
 16 17  1  0
 16 15  1  0
 17 18  1  0
 18 27  1  0
 18 19  1  0
 20 19  1  0
 22 14  1  0
 23 22  1  0
 24 49  2  0
 24 27  1  0
 25 44  1  0
 25 28  1  0
 26 25  2  0
 28 24  1  0
 28 11  1  0
 29 30  1  0
 30 31  2  0
 32 35  1  0
 32 31  1  0
 33 32  2  0
 34 33  1  0
 34 29  2  0
 35 36  1  0
 36 41  2  0
 36 37  1  0
 37 38  2  0
 38 39  1  0
 39 43  1  0
 40 39  2  0
 41 40  1  0
 42 41  1  0
 44 45  1  0
 45 48  1  0
 45 47  1  0
 46 44  2  0
 50 49  1  0
 51 49  1  0
 53 52  1  0
 53 54  2  0
 55 54  1  0
 56 67  2  0
 57 55  1  0
 57 62  1  0
 58 66  1  0
 58 68  1  0
 59 65  1  0
 59 61  1  0
 60 66  1  0
 61 62  2  0
 61 60  1  0
 63 57  2  0
 64 63  1  0
 64 59  2  0
 65 58  1  0
 66 56  1  0
 68 70  2  0
 69 68  1  0
 71 69  1  0
 72 81  2  0
 72 77  1  0
 73 69  1  0
 73 77  1  0
 74 73  1  0
 75 76  1  0
 75 74  1  0
 76 72  1  0
 77 78  2  0
 78 79  1  0
 80 79  2  0
 81 80  1  0
 82 56  1  0
 82 83  1  0
 82 92  1  0
 83 86  1  0
 84 88  1  0
 84 83  1  0
 85 84  2  0
 88 87  1  0
 90 88  1  0
 90 91  1  0
 90 89  1  0
 92 95  1  1
 92 93  1  0
 94 92  1  0
M  ISO  4  14 100  22 100  54 101  55 101
M  END
>  <TORSDO>  (37) 
F 22

>  <SCORE>  (37) 
-5.676

>  <name>  (37) 
36

>  <ligand_id>  (37) 
36

>  <original_smiles>  (37) 
[H]c1c([H])c([H])c2c(c1[H])C([H])([H])C([H])([H])C([H])([H])C2([H])N([H])C(=O)C1([H])N(C(=O)C([H])(N([H])C(=O)C([H])(N([H])C([H])([H])[H])C([H])([H])[H])C(C([H])([H])[H])(C([H])([H])[H])C([H])([H])[H])C([H])([H])c2c([H])c(OC([H])([H])C([H])([H])C([H])([H])C(=O)N([H])C([H])([H])c3c([H])c(F)c([H])c(C([H])([H])N([H])C(=O)N4C([H])([H])C([H])([H])C([H])([H])C([H])(n5nc(-c6c([H])c([H])c(Oc7c([H])c([H])c(F)c([H])c7F)c([H])c6[H])c(C(=O)N([H])[H])c5N([H])[H])C4([H])[H])c3[H])c([H])c([H])c2C1([H])[H]

>  <smiles>  (37) 
[H]c1c([H])c([H])c2c(c1[H])C([H])([H])C([H])([H])C([H])([H])C2([H])N([H])C(=O)C1([H])N(C(=O)C([H])(N([H])C(=O)C([H])(N([H])C([H])([H])[H])C([H])([H])[H])C(C([H])([H])[H])(C([H])([H])[H])C([H])([H])[H])C([H])([H])c2c([H])c(OC([H])([H])C([H])([H])C([H])([H])C(=O)N([H])C([H])([H])c3c([H])c(F)c([H])c(C([H])([H])N([H])C(=O)N4C([H])([H])C([H])([H])C([H])([H])C([H])(n5nc(-c6c([H])c([H])c(Oc7c([H])c([H])c(F)c([H])c7F)c([H])c6[H])c(C(=O)N([H])[H])c5N([H])[H])C4([H])[H])c3[H])c([H])c([H])c2C1([H])[H]

$$$$
37:0:0
     RDKit          3D

 95103  0  0  1  0  0  0  0  0999 V2000
  -28.9070  -21.6690   19.9550 C   0  0  0  0  0  0  0  0  0  0  0  0
  -28.6980  -20.7120   22.2490 C   0  0  0  0  0  1  0  0  0  0  0  0
  -29.0740  -20.6040   20.8250 N   0  0  0  0  0  0  0  0  0  0  0  0
  -28.9480  -21.4980   18.7340 O   0  0  0  0  0  0  0  0  0  0  0  0
  -28.7580  -23.0230   20.5620 C   0  0  0  0  0  3  0  0  0  0  0  0
  -28.6130  -24.2020   19.8770 C   0  0  0  0  0  3  0  0  0  0  0  0
  -28.4610  -25.5870   20.5700 C   0  0  0  0  0  2  0  0  0  0  0  0
  -28.5700  -26.8070   19.7600 O   0  0  0  0  0  0  0  0  0  0  0  0
  -24.6310  -31.8120   23.0900 C   0  0  0  0  0  0  0  0  0  0  0  0
  -27.4320  -27.6060   19.7720 C   0  0  0  0  0  0  0  0  0  0  0  0
  -23.4760  -30.4320   21.3970 C   0  0  0  0  0  3  0  0  0  0  0  0
  -24.9850  -29.0490   19.8690 C   0  0  0  0  0  0  0  0  0  0  0  0
  -25.9840  -30.9180   21.1890 C   0  0  0  0  0  2  0  0  0  0  0  0
  -26.1320  -29.5850   20.4710 C   0  0  0  0  0  0  0  0  0  0  0  0
  -27.3640  -28.8750   20.4120 C   0  0  0  0  0  3  0  0  0  0  0  0
  -26.2700  -27.1120   19.1450 C   0  0  0  0  0  3  0  0  0  0  0  0
  -25.0550  -27.8190   19.1940 C   0  0  0  0  0  3  0  0  0  0  0  0
  -23.7000  -29.8420   19.9800 C   0  0  0  0  0  2  0  0  0  0  0  0
  -24.7150  -31.0690   21.9500 N   0  0  0  0  0  0  0  0  0  0  0  0
  -23.5460  -31.9990   23.6570 O   0  0  0  0  0  0  0  0  0  0  0  0
  -22.8940  -29.3280   22.3130 C   0  0  0  0  0  0  0  0  0  0  0  0
  -21.5800  -29.0780   22.1940 N   0  0  0  0  0  0  0  0  0  0  0  0
  -23.6230  -28.7040   23.0890 O   0  0  0  0  0  0  0  0  0  0  0  0
  -21.0490  -29.6380   21.5410 H   0  0  0  0  0  0  0  0  0  0  0  0
  -18.2870  -27.6610   22.6690 C   0  0  0  0  0  0  0  0  0  0  0  0
  -20.8290  -28.0590   22.9280 C   0  0  0  0  0  3  0  0  0  0  0  0
  -21.0090  -26.6630   22.2860 C   0  0  0  0  0  2  0  0  0  0  0  0
  -19.9150  -26.3230   21.2680 C   0  0  0  0  0  2  0  0  0  0  0  0
  -18.5350  -26.3570   21.9300 C   0  0  0  0  0  2  0  0  0  0  0  0
  -19.3640  -28.4680   23.1230 C   0  0  0  0  0  0  0  0  0  0  0  0
  -19.0780  -29.6880   23.7740 C   0  0  0  0  0  3  0  0  0  0  0  0
  -17.7470  -30.1030   23.9750 C   0  0  0  0  0  3  0  0  0  0  0  0
  -16.6860  -29.2920   23.5360 C   0  0  0  0  0  3  0  0  0  0  0  0
  -16.9560  -28.0730   22.8890 C   0  0  0  0  0  3  0  0  0  0  0  0
  -25.8900  -32.4830   23.7220 C   0  0  0  0  0  3  0  0  0  0  0  0
  -26.4460  -31.7020   24.9760 C   0  0  1  0  0  0  0  0  0  0  0  0
  -25.3700  -31.3910   26.0410 C   0  0  0  0  0  1  0  0  0  0  0  0
  -27.0870  -30.3620   24.5460 C   0  0  0  0  0  1  0  0  0  0  0  0
  -27.5650  -32.5280   25.6550 C   0  0  0  0  0  1  0  0  0  0  0  0
  -25.5230  -33.8570   24.0900 N   0  0  0  0  0  0  0  0  0  0  0  0
  -25.8100  -34.9430   23.3590 C   0  0  0  0  0  0  0  0  0  0  0  0
  -26.4810  -34.8950   22.3250 O   0  0  0  0  0  0  0  0  0  0  0  0
  -24.9270  -33.9650   24.8970 H   0  0  0  0  0  0  0  0  0  0  0  0
  -24.0110  -36.6720   23.0430 C   0  0  0  0  0  1  0  0  0  0  0  0
  -25.2630  -36.2970   23.8520 C   0  0  0  0  0  3  0  0  0  0  0  0
  -27.3470  -37.2490   24.7320 C   0  0  0  0  0  1  0  0  0  0  0  0
  -26.2520  -37.3930   23.7770 N   0  0  0  0  0  0  0  0  0  0  0  0
  -25.8070  -38.2920   23.9400 H   0  0  0  0  0  0  0  0  0  0  0  0
  -29.4770  -19.1950   20.4300 C   0  0  0  0  0  2  0  0  0  0  0  0
  -33.2730  -19.6480   19.8270 C   0  0  0  0  0  3  0  0  0  0  0  0
  -32.5900  -17.5360   18.8990 C   0  0  0  0  0  3  0  0  0  0  0  0
  -33.5340  -18.5700   18.9840 C   0  0  0  0  0  0  0  0  0  0  0  0
  -32.0170  -19.7750   20.4420 C   0  0  0  0  0  0  0  0  0  0  0  0
  -30.9760  -18.8120   20.2050 C   0  0  0  0  0  0  0  0  0  0  0  0
  -31.3730  -17.5250   19.6440 C   0  0  0  0  0  0  0  0  0  0  0  0
  -34.8590  -18.4890   18.2450 C   0  0  0  0  0  1  0  0  0  0  0  0
  -31.9070  -20.9570   21.3960 C   0  0  0  0  0  1  0  0  0  0  0  0
  -31.2220  -14.9750   19.8710 C   0  0  0  0  0  0  0  0  0  0  0  0
  -30.8420  -12.6580   19.1020 C   0  0  0  0  0  2  0  0  0  0  0  0
  -29.8910  -12.6160   17.8930 C   0  0  0  0  0  2  0  0  0  0  0  0
  -28.4380  -12.4980   18.3810 C   0  0  0  0  0  2  0  0  0  0  0  0
  -28.0890  -13.5160   19.5000 C   0  0  0  0  0  3  0  0  0  0  0  0
  -29.1820  -13.6050   20.5880 C   0  0  0  0  0  2  0  0  0  0  0  0
  -30.4570  -13.8380   19.9070 N   0  0  0  0  0  0  0  0  0  0  0  0
  -32.4210  -14.8360   19.6690 O   0  0  0  0  0  0  0  0  0  0  0  0
  -30.6470  -16.2370   19.8040 N   0  0  0  0  0  0  0  0  0  0  0  0
  -29.6510  -16.2830   19.9550 H   0  0  0  0  0  0  0  0  0  0  0  0
  -25.7710  -14.1580   20.3860 C   0  0  0  0  0  0  0  0  0  0  0  0
  -24.6960  -13.4080   20.7810 C   0  0  0  0  0  0  0  0  0  0  0  0
  -25.1060  -12.0430   20.6790 C   0  0  0  0  0  0  0  0  0  0  0  0
  -26.7670  -13.2530   20.0640 N   0  0  0  0  0  0  0  0  0  0  0  0
  -26.3770  -11.9730   20.3050 N   0  0  0  0  0  0  0  0  0  0  0  0
  -24.3410  -10.8010   20.8580 C   0  0  0  0  0  0  0  0  0  0  0  0
  -24.7260   -9.8270   21.8070 C   0  0  0  0  0  3  0  0  0  0  0  0
  -23.9630   -8.6520   21.9740 C   0  0  0  0  0  3  0  0  0  0  0  0
  -22.8020   -8.4410   21.1940 C   0  0  0  0  0  0  0  0  0  0  0  0
  -22.4360   -9.4020   20.2350 C   0  0  0  0  0  3  0  0  0  0  0  0
  -23.1990  -10.5690   20.0660 C   0  0  0  0  0  3  0  0  0  0  0  0
  -22.0150   -7.3170   21.2710 O   0  0  0  0  0  0  0  0  0  0  0  0
  -21.8450   -6.6360   22.4480 C   0  0  0  0  0  0  0  0  0  0  0  0
  -21.2720   -7.2460   23.5860 C   0  0  0  0  0  3  0  0  0  0  0  0
  -21.0510   -6.4890   24.7530 C   0  0  0  0  0  3  0  0  0  0  0  0
  -21.3960   -5.1240   24.7860 C   0  0  0  0  0  0  0  0  0  0  0  0
  -21.9640   -4.5150   23.6540 C   0  0  0  0  0  3  0  0  0  0  0  0
  -22.1850   -5.2680   22.4880 C   0  0  0  0  0  0  0  0  0  0  0  0
  -22.7120   -4.6710   21.3910 F   0  0  0  0  0  0  0  0  0  0  0  0
  -21.1780   -4.3950   25.9060 F   0  0  0  0  0  0  0  0  0  0  0  0
  -23.3320  -13.9240   21.1360 C   0  0  0  0  0  0  0  0  0  0  0  0
  -22.6260  -13.2360   22.0260 N   0  0  0  0  0  0  0  0  0  0  0  0
  -22.9040  -14.9760   20.6580 O   0  0  0  0  0  0  0  0  0  0  0  0
  -22.9860  -12.3870   22.4370 H   0  0  0  0  0  0  0  0  0  0  0  0
  -21.7150  -13.5670   22.3080 H   0  0  0  0  0  0  0  0  0  0  0  0
  -25.9770  -15.5270   20.2500 N   0  0  0  0  0  0  0  0  0  0  0  0
  -25.2380  -16.2020   20.4190 H   0  0  0  0  0  0  0  0  0  0  0  0
  -26.8140  -15.9460   19.8680 H   0  0  0  0  0  0  0  0  0  0  0  0
  1  5  1  0
  1  3  1  0
  3  2  1  0
  4  1  2  0
  6  5  2  0
  6  7  1  0
  8 10  1  0
  8  7  1  0
  9 20  2  0
 10 15  1  0
 11 19  1  0
 11 21  1  0
 12 18  1  0
 12 14  1  0
 13 19  1  0
 14 13  1  0
 15 14  2  0
 16 17  1  0
 16 10  2  0
 17 12  2  0
 18 11  1  0
 19  9  1  0
 21 23  2  0
 22 21  1  0
 24 22  1  0
 25 34  2  0
 25 30  1  0
 26 22  1  0
 26 30  1  0
 27 26  1  0
 28 29  1  0
 28 27  1  0
 29 25  1  0
 30 31  2  0
 31 32  1  0
 33 32  2  0
 34 33  1  0
 35  9  1  0
 35 40  1  0
 35 36  1  0
 36 39  1  1
 36 37  1  0
 38 36  1  0
 40 43  1  0
 41 45  1  0
 41 40  1  0
 42 41  2  0
 45 44  1  0
 47 45  1  0
 47 48  1  0
 47 46  1  0
 49  3  1  0
 50 53  1  0
 51 52  1  0
 51 55  2  0
 52 50  2  0
 53 57  1  0
 54 49  1  0
 54 53  2  0
 55 66  1  0
 55 54  1  0
 56 52  1  0
 58 64  1  0
 59 64  1  0
 60 61  1  0
 60 59  1  0
 62 61  1  0
 62 71  1  0
 62 63  1  0
 64 63  1  0
 65 58  2  0
 66 58  1  0
 66 67  1  0
 68 69  2  0
 69 88  1  0
 70 69  1  0
 70 73  1  0
 71 72  1  0
 71 68  1  0
 72 70  2  0
 73 74  1  0
 74 75  2  0
 76 79  1  0
 76 75  1  0
 77 76  2  0
 78 77  1  0
 78 73  2  0
 79 80  1  0
 80 85  2  0
 80 81  1  0
 81 82  2  0
 82 83  1  0
 83 87  1  0
 84 83  2  0
 85 84  1  0
 86 85  1  0
 88 89  1  0
 89 92  1  0
 89 91  1  0
 90 88  2  0
 93 68  1  0
 93 94  1  0
 95 93  1  0
M  ISO  4   7 101   8 101  58 100  66 100
M  END
>  <TORSDO>  (38) 
F 20

>  <SCORE>  (38) 
-12.201

>  <name>  (38) 
37

>  <ligand_id>  (38) 
37

>  <original_smiles>  (38) 
[H]C(C(=O)N(C([H])([H])[H])C([H])([H])c1c(N([H])C(=O)N2C([H])([H])C([H])([H])C([H])([H])C([H])(n3nc(-c4c([H])c([H])c(Oc5c([H])c([H])c(F)c([H])c5F)c([H])c4[H])c(C(=O)N([H])[H])c3N([H])[H])C2([H])[H])c([H])c(C([H])([H])[H])c([H])c1C([H])([H])[H])=C([H])C([H])([H])Oc1c([H])c([H])c2c(c1[H])C([H])([H])N(C(=O)C([H])(N([H])C(=O)C([H])(N([H])C([H])([H])[H])C([H])([H])[H])C(C([H])([H])[H])(C([H])([H])[H])C([H])([H])[H])C([H])(C(=O)N([H])C1([H])c3c([H])c([H])c([H])c([H])c3C([H])([H])C([H])([H])C1([H])[H])C2([H])[H]

>  <smiles>  (38) 
[H]C(C(=O)N(C([H])([H])[H])C([H])([H])c1c(N([H])C(=O)N2C([H])([H])C([H])([H])C([H])([H])C([H])(n3nc(-c4c([H])c([H])c(Oc5c([H])c([H])c(F)c([H])c5F)c([H])c4[H])c(C(=O)N([H])[H])c3N([H])[H])C2([H])[H])c([H])c(C([H])([H])[H])c([H])c1C([H])([H])[H])=C([H])C([H])([H])Oc1c([H])c([H])c2c(c1[H])C([H])([H])N(C(=O)C([H])(N([H])C(=O)C([H])(N([H])C([H])([H])[H])C([H])([H])[H])C(C([H])([H])[H])(C([H])([H])[H])C([H])([H])[H])C([H])(C(=O)N([H])C1([H])c3c([H])c([H])c([H])c([H])c3C([H])([H])C([H])([H])C1([H])[H])C2([H])[H]

$$$$
38:0:0
     RDKit          3D

 93 99  0  0  1  0  0  0  0  0999 V2000
  -28.9430  -20.5070   19.0760 C   0  0  0  0  0  0  0  0  0  0  0  0
  -29.6870  -19.1810   19.3080 N   0  0  0  0  0  0  0  0  0  0  0  0
  -27.9690  -20.3610   18.3350 O   0  0  0  0  0  0  0  0  0  0  0  0
  -30.4870  -19.3020   19.9170 H   0  0  0  0  0  0  0  0  0  0  0  0
  -29.5480  -17.5160   18.8010 C   0  0  0  0  0  2  0  0  0  0  0  0
  -31.0050  -12.3010   18.2140 C   0  0  0  0  0  2  0  0  0  0  0  0
  -31.6400  -13.6380   17.5480 C   0  0  0  0  0  3  0  0  0  0  0  0
  -29.9090  -12.5140   19.4190 C   0  0  0  0  0  1  0  0  0  0  0  0
  -31.2770  -15.1890   17.8790 C   0  0  0  0  0  0  0  0  0  0  0  0
  -30.2320  -15.8090   18.9360 C   0  0  0  0  0  3  0  0  0  0  0  0
  -29.5570  -14.6210   19.8240 C   0  0  0  0  0  2  0  0  0  0  0  0
  -31.9620  -16.1810   16.9570 C   0  0  0  0  0  1  0  0  0  0  0  0
  -30.7010  -14.7480   21.7710 C   0  0  0  0  0  0  0  0  0  0  0  0
  -31.5880  -13.7710   19.9730 C   0  0  0  0  0  1  0  0  0  0  0  0
  -29.2360  -13.8060   17.7880 C   0  0  0  0  0  1  0  0  0  0  0  0
  -27.7480  -13.1910   18.6840 C   0  0  0  0  0  2  0  0  0  0  0  0
  -27.6990  -13.1520   20.4840 C   0  0  0  0  0  3  0  0  0  0  0  0
  -29.0510  -12.9010   21.7140 C   0  0  0  0  0  2  0  0  0  0  0  0
  -30.6920  -13.4770   21.4860 N   0  0  0  0  0  0  0  0  0  0  0  0
  -31.7550  -15.3850   21.8440 O   0  0  0  0  0  0  0  0  0  0  0  0
  -29.6400  -15.2410   21.1230 N   0  0  0  0  0  0  0  0  0  0  0  0
  -28.7930  -15.2180   21.6690 H   0  0  0  0  0  0  0  0  0  0  0  0
  -25.3110  -13.7590   20.8110 C   0  0  0  0  0  0  0  0  0  0  0  0
  -24.2230  -12.9810   21.0210 C   0  0  0  0  0  0  0  0  0  0  0  0
  -24.7050  -11.6350   21.0650 C   0  0  0  0  0  0  0  0  0  0  0  0
  -26.3720  -12.8610   20.8180 N   0  0  0  0  0  0  0  0  0  0  0  0
  -26.0230  -11.5820   20.9570 N   0  0  0  0  0  0  0  0  0  0  0  0
  -23.9880  -10.3800   21.1540 C   0  0  0  0  0  0  0  0  0  0  0  0
  -24.3630   -9.4000   22.0950 C   0  0  0  0  0  3  0  0  0  0  0  0
  -23.6370   -8.1990   22.1870 C   0  0  0  0  0  3  0  0  0  0  0  0
  -22.5300   -7.9790   21.3350 C   0  0  0  0  0  0  0  0  0  0  0  0
  -22.1830   -8.9480   20.3790 C   0  0  0  0  0  3  0  0  0  0  0  0
  -22.9110  -10.1430   20.2820 C   0  0  0  0  0  3  0  0  0  0  0  0
  -21.7750   -6.8360   21.3450 O   0  0  0  0  0  0  0  0  0  0  0  0
  -21.6820   -6.0520   22.4670 C   0  0  0  0  0  0  0  0  0  0  0  0
  -21.2140   -6.5640   23.6960 C   0  0  0  0  0  3  0  0  0  0  0  0
  -21.0700   -5.7070   24.8030 C   0  0  0  0  0  3  0  0  0  0  0  0
  -21.3800   -4.3390   24.6800 C   0  0  0  0  0  0  0  0  0  0  0  0
  -21.8460   -3.8290   23.4550 C   0  0  0  0  0  3  0  0  0  0  0  0
  -21.9940   -4.6840   22.3510 C   0  0  0  0  0  0  0  0  0  0  0  0
  -22.4240   -4.1870   21.1650 F   0  0  0  0  0  0  0  0  0  0  0  0
  -21.2310   -3.5110   25.7400 F   0  0  0  0  0  0  0  0  0  0  0  0
  -22.8090  -13.4650   21.0870 C   0  0  0  0  0  0  0  0  0  0  0  0
  -21.9810  -12.7930   21.8730 N   0  0  0  0  0  0  0  0  0  0  0  0
  -22.4520  -14.4830   20.4940 O   0  0  0  0  0  0  0  0  0  0  0  0
  -22.2820  -11.9710   22.3740 H   0  0  0  0  0  0  0  0  0  0  0  0
  -21.0260  -13.1060   21.9780 H   0  0  0  0  0  0  0  0  0  0  0  0
  -25.4640  -15.1350   20.5980 N   0  0  0  0  0  0  0  0  0  0  0  0
  -24.6760  -15.7720   20.5730 H   0  0  0  0  0  0  0  0  0  0  0  0
  -26.3450  -15.5860   20.3770 H   0  0  0  0  0  0  0  0  0  0  0  0
  -29.1010  -22.2630   19.5940 C   0  0  0  0  0  3  0  0  0  0  0  0
  -28.1430  -23.9030   19.3860 C   0  0  0  0  0  3  0  0  0  0  0  0
  -28.2860  -25.6090   19.6900 O   0  0  0  0  0  0  0  0  0  0  0  0
  -24.5730  -31.6590   22.9310 C   0  0  0  0  0  0  0  0  0  0  0  0
  -27.2560  -26.7500   19.7630 C   0  0  0  0  0  0  0  0  0  0  0  0
  -23.4170  -30.2160   21.3200 C   0  0  0  0  0  3  0  0  0  0  0  0
  -24.8940  -28.6380   19.8730 C   0  0  0  0  0  0  0  0  0  0  0  0
  -25.9890  -30.4590   21.1570 C   0  0  0  0  0  2  0  0  0  0  0  0
  -26.0940  -29.0450   20.4680 C   0  0  0  0  0  0  0  0  0  0  0  0
  -27.2600  -28.1230   20.3910 C   0  0  0  0  0  3  0  0  0  0  0  0
  -26.0010  -26.5250   19.1560 C   0  0  0  0  0  3  0  0  0  0  0  0
  -24.8790  -27.4010   19.2070 C   0  0  0  0  0  3  0  0  0  0  0  0
  -23.6520  -29.5340   19.9470 C   0  0  0  0  0  2  0  0  0  0  0  0
  -24.6840  -30.8110   21.8520 N   0  0  0  0  0  0  0  0  0  0  0  0
  -23.4770  -31.9190   23.4540 O   0  0  0  0  0  0  0  0  0  0  0  0
  -22.7560  -29.2100   22.2990 C   0  0  0  0  0  0  0  0  0  0  0  0
  -21.4280  -29.0150   22.2010 N   0  0  0  0  0  0  0  0  0  0  0  0
  -23.4490  -28.6020   23.1190 O   0  0  0  0  0  0  0  0  0  0  0  0
  -20.9200  -29.5470   21.5060 H   0  0  0  0  0  0  0  0  0  0  0  0
  -18.0940  -27.6910   22.7720 C   0  0  0  0  0  0  0  0  0  0  0  0
  -20.6480  -28.0550   22.9900 C   0  0  0  0  0  3  0  0  0  0  0  0
  -20.7920  -26.6250   22.4200 C   0  0  0  0  0  2  0  0  0  0  0  0
  -19.6860  -26.2560   21.4260 C   0  0  0  0  0  2  0  0  0  0  0  0
  -18.3100  -26.3510   22.0910 C   0  0  0  0  0  2  0  0  0  0  0  0
  -19.1910  -28.4990   23.1790 C   0  0  0  0  0  0  0  0  0  0  0  0
  -18.9300  -29.7500   23.7800 C   0  0  0  0  0  3  0  0  0  0  0  0
  -17.6090  -30.1940   23.9760 C   0  0  0  0  0  3  0  0  0  0  0  0
  -16.5290  -29.3860   23.5810 C   0  0  0  0  0  3  0  0  0  0  0  0
  -16.7720  -28.1370   22.9830 C   0  0  0  0  0  3  0  0  0  0  0  0
  -25.8180  -32.3610   23.5540 C   0  0  0  0  0  3  0  0  0  0  0  0
  -26.4010  -31.5890   24.8020 C   0  0  1  0  0  0  0  0  0  0  0  0
  -25.3450  -31.2720   25.8870 C   0  0  0  0  0  1  0  0  0  0  0  0
  -27.0450  -30.2500   24.3800 C   0  0  0  0  0  1  0  0  0  0  0  0
  -27.5270  -32.4290   25.4560 C   0  0  0  0  0  1  0  0  0  0  0  0
  -25.4220  -33.7250   23.9540 N   0  0  0  0  0  0  0  0  0  0  0  0
  -25.7390  -34.8470   23.2930 C   0  0  0  0  0  0  0  0  0  0  0  0
  -26.4530  -34.8450   22.2880 O   0  0  0  0  0  0  0  0  0  0  0  0
  -24.7830  -33.7970   24.7320 H   0  0  0  0  0  0  0  0  0  0  0  0
  -23.9500  -36.6000   23.0080 C   0  0  0  0  0  1  0  0  0  0  0  0
  -25.1800  -36.1830   23.8300 C   0  0  0  0  0  3  0  0  0  0  0  0
  -27.2490  -37.0900   24.7930 C   0  0  0  0  0  1  0  0  0  0  0  0
  -26.1700  -37.2830   23.8290 N   0  0  0  0  0  0  0  0  0  0  0  0
  -25.7200  -38.1730   24.0260 H   0  0  0  0  0  0  0  0  0  0  0  0
  1  2  1  0
  1 51  1  0
  2  4  1  0
  3  1  2  0
  5  2  1  0
  6  8  1  0
  7  9  2  0
  7  6  1  0
  9 10  1  0
 10  5  1  0
 10 11  1  0
 11 21  1  0
 12  9  1  0
 13 20  2  0
 14 19  1  0
 15 16  1  0
 17 16  1  0
 17 26  1  0
 17 18  1  0
 19 18  1  0
 19 13  1  0
 21 22  1  0
 21 13  1  0
 23 26  1  0
 23 24  2  0
 24 25  1  0
 24 43  1  0
 25 28  1  0
 26 27  1  0
 27 25  2  0
 28 29  1  0
 29 30  2  0
 31 34  1  0
 31 30  1  0
 32 31  2  0
 33 32  1  0
 33 28  2  0
 34 35  1  0
 35 36  1  0
 36 37  2  0
 38 37  1  0
 38 42  1  0
 39 38  2  0
 40 35  2  0
 40 39  1  0
 41 40  1  0
 43 44  1  0
 44 47  1  0
 44 46  1  0
 45 43  2  0
 48 23  1  0
 49 48  1  0
 50 48  1  0
 52 51  2  0
 52 53  1  0
 53 55  1  0
 54 65  2  0
 55 60  1  0
 56 64  1  0
 56 66  1  0
 57 63  1  0
 57 59  1  0
 58 64  1  0
 59 58  1  0
 60 59  2  0
 61 62  1  0
 61 55  2  0
 62 57  2  0
 63 56  1  0
 64 54  1  0
 66 68  2  0
 67 66  1  0
 69 67  1  0
 70 79  2  0
 70 75  1  0
 71 67  1  0
 71 75  1  0
 72 71  1  0
 73 74  1  0
 73 72  1  0
 74 70  1  0
 75 76  2  0
 76 77  1  0
 78 77  2  0
 79 78  1  0
 80 54  1  0
 80 85  1  0
 80 81  1  0
 81 84  1  1
 81 82  1  0
 83 81  1  0
 85 88  1  0
 86 90  1  0
 86 85  1  0
 87 86  2  0
 90 89  1  0
 92 90  1  0
 92 93  1  0
 92 91  1  0
M  ISO  4  13 100  21 100  52 101  53 101
M  END
>  <TORSDO>  (39) 
F 20

>  <SCORE>  (39) 
-13.777

>  <name>  (39) 
38

>  <ligand_id>  (39) 
38

>  <original_smiles>  (39) 
[H]c1c([H])c(N([H])C(=O)N2C([H])([H])C([H])([H])C([H])([H])C([H])(n3nc(-c4c([H])c([H])c(Oc5c([H])c([H])c(F)c([H])c5F)c([H])c4[H])c(C(=O)N([H])[H])c3N([H])[H])C2([H])[H])c(C([H])([H])N([H])C(=O)C([H])([H])C([H])([H])Oc2c([H])c([H])c3c(c2[H])C([H])([H])N(C(=O)C([H])(N([H])C(=O)C([H])(N([H])C([H])([H])[H])C([H])([H])[H])C(C([H])([H])[H])(C([H])([H])[H])C([H])([H])[H])C([H])(C(=O)N([H])C2([H])c4c([H])c([H])c([H])c([H])c4C([H])([H])C([H])([H])C2([H])[H])C3([H])[H])c(C([H])([H])[H])c1[H]

>  <smiles>  (39) 
[H]c1c([H])c(N([H])C(=O)N2C([H])([H])C([H])([H])C([H])([H])C([H])(n3nc(-c4c([H])c([H])c(Oc5c([H])c([H])c(F)c([H])c5F)c([H])c4[H])c(C(=O)N([H])[H])c3N([H])[H])C2([H])[H])c(C([H])([H])N([H])C(=O)C([H])([H])C([H])([H])Oc2c([H])c([H])c3c(c2[H])C([H])([H])N(C(=O)C([H])(N([H])C(=O)C([H])(N([H])C([H])([H])[H])C([H])([H])[H])C(C([H])([H])[H])(C([H])([H])[H])C([H])([H])[H])C([H])(C(=O)N([H])C2([H])c4c([H])c([H])c([H])c([H])c4C([H])([H])C([H])([H])C2([H])[H])C3([H])[H])c(C([H])([H])[H])c1[H]

$$$$
39:0:0
     RDKit          3D

 98106  0  0  1  0  0  0  0  0999 V2000
  -28.9860  -21.4930   20.8110 C   0  0  0  0  0  0  0  0  0  0  0  0
  -28.3390  -21.7030   21.9600 N   0  0  0  0  0  4  0  0  0  0  0  0
  -29.2410  -22.6210   20.0690 N   0  0  0  0  0  0  0  0  0  0  0  0
  -28.1920  -20.9320   22.5930 H   0  0  0  0  0  0  0  0  0  0  0  0
  -27.9280  -22.5890   22.1940 H   0  0  0  0  0  0  0  0  0  0  0  0
  -29.6870  -22.4600   19.1750 H   0  0  0  0  0  0  0  0  0  0  0  0
  -28.2800  -19.0860   20.5830 C   0  0  0  0  0  3  0  0  0  0  0  0
  -30.8680  -18.0780   20.2490 C   0  0  0  0  0  3  0  0  0  0  0  0
  -29.3270  -20.0410   20.5100 C   0  0  0  0  0  0  0  0  0  0  0  0
  -29.8090  -17.1350   20.4020 C   0  0  0  0  0  0  0  0  0  0  0  0
  -28.5160  -17.6890   20.5470 C   0  0  0  0  0  0  0  0  0  0  0  0
  -30.6330  -19.4970   20.3070 C   0  0  0  0  0  0  0  0  0  0  0  0
  -27.4670  -16.8450   20.6820 F   0  0  0  0  0  0  0  0  0  0  0  0
  -31.6930  -20.3380   20.2160 F   0  0  0  0  0  0  0  0  0  0  0  0
  -30.6500  -14.6880   19.9240 C   0  0  0  0  0  0  0  0  0  0  0  0
  -30.3760  -12.4780   18.8030 C   0  0  0  0  0  2  0  0  0  0  0  0
  -29.3420  -12.6470   17.6650 C   0  0  0  0  0  2  0  0  0  0  0  0
  -27.8990  -12.4940   18.1910 C   0  0  0  0  0  2  0  0  0  0  0  0
  -27.6420  -13.3140   19.4840 C   0  0  0  0  0  3  0  0  0  0  0  0
  -28.7760  -13.0920   20.5110 C   0  0  0  0  0  2  0  0  0  0  0  0
  -30.0470  -13.4550   19.8590 N   0  0  0  0  0  0  0  0  0  0  0  0
  -31.7590  -14.8940   19.4220 O   0  0  0  0  0  0  0  0  0  0  0  0
  -29.8700  -15.6720   20.4640 N   0  0  0  0  0  0  0  0  0  0  0  0
  -29.0390  -15.2880   20.8910 H   0  0  0  0  0  0  0  0  0  0  0  0
  -25.3150  -13.9250   20.3880 C   0  0  0  0  0  0  0  0  0  0  0  0
  -24.2630  -13.1570   20.8050 C   0  0  0  0  0  0  0  0  0  0  0  0
  -24.6950  -11.8000   20.6910 C   0  0  0  0  0  0  0  0  0  0  0  0
  -26.3240  -13.0370   20.0510 N   0  0  0  0  0  0  0  0  0  0  0  0
  -25.9600  -11.7510   20.2900 N   0  0  0  0  0  0  0  0  0  0  0  0
  -23.9600  -10.5440   20.8880 C   0  0  0  0  0  0  0  0  0  0  0  0
  -24.4170   -9.5530   21.7820 C   0  0  0  0  0  3  0  0  0  0  0  0
  -23.6800   -8.3630   21.9670 C   0  0  0  0  0  3  0  0  0  0  0  0
  -22.4730   -8.1570   21.2590 C   0  0  0  0  0  0  0  0  0  0  0  0
  -22.0350   -9.1380   20.3520 C   0  0  0  0  0  3  0  0  0  0  0  0
  -22.7720  -10.3190   20.1640 C   0  0  0  0  0  3  0  0  0  0  0  0
  -21.7070   -7.0200   21.3540 O   0  0  0  0  0  0  0  0  0  0  0  0
  -21.6610   -6.2790   22.5070 C   0  0  0  0  0  0  0  0  0  0  0  0
  -21.2420   -6.8380   23.7350 C   0  0  0  0  0  3  0  0  0  0  0  0
  -21.1420   -6.0230   24.8810 C   0  0  0  0  0  3  0  0  0  0  0  0
  -21.4510   -4.6520   24.7990 C   0  0  0  0  0  0  0  0  0  0  0  0
  -21.8640   -4.0940   23.5760 C   0  0  0  0  0  3  0  0  0  0  0  0
  -21.9650   -4.9060   22.4340 C   0  0  0  0  0  0  0  0  0  0  0  0
  -22.3430   -4.3590   21.2520 F   0  0  0  0  0  0  0  0  0  0  0  0
  -21.3480   -3.8660   25.8970 F   0  0  0  0  0  0  0  0  0  0  0  0
  -22.9000  -13.6470   21.2020 C   0  0  0  0  0  0  0  0  0  0  0  0
  -22.2290  -12.9330   22.0980 N   0  0  0  0  0  0  0  0  0  0  0  0
  -22.4420  -14.6980   20.7540 O   0  0  0  0  0  0  0  0  0  0  0  0
  -22.6130  -12.0830   22.4810 H   0  0  0  0  0  0  0  0  0  0  0  0
  -21.3160  -13.2400   22.4050 H   0  0  0  0  0  0  0  0  0  0  0  0
  -25.4850  -15.2970   20.2540 N   0  0  0  0  0  0  0  0  0  0  0  0
  -24.7550  -15.9520   20.5090 H   0  0  0  0  0  0  0  0  0  0  0  0
  -26.3660  -15.7550   20.0580 H   0  0  0  0  0  0  0  0  0  0  0  0
  -29.1150  -24.0980   20.4640 C   0  0  0  0  0  3  0  0  0  0  0  0
  -31.3020  -24.8030   19.2830 C   0  0  0  0  0  1  0  0  0  0  0  0
  -31.3660  -24.0010   21.6830 C   0  0  0  0  0  1  0  0  0  0  0  0
  -30.5290  -24.7160   20.6080 C   0  0  0  0  0  3  0  0  0  0  0  0
  -28.1550  -25.0200   19.5910 C   0  0  0  0  0  2  0  0  0  0  0  0
  -28.2510  -26.4870   19.7870 O   0  0  0  0  0  0  0  0  0  0  0  0
  -24.4920  -31.7090   23.0100 C   0  0  0  0  0  0  0  0  0  0  0  0
  -27.1010  -27.2900   19.7630 C   0  0  0  0  0  0  0  0  0  0  0  0
  -23.2670  -30.3280   21.3710 C   0  0  0  0  0  3  0  0  0  0  0  0
  -24.7040  -28.8470   19.8590 C   0  0  0  0  0  0  0  0  0  0  0  0
  -25.7930  -30.7050   21.1210 C   0  0  0  0  0  2  0  0  0  0  0  0
  -25.8780  -29.3460   20.4350 C   0  0  0  0  0  0  0  0  0  0  0  0
  -27.0790  -28.5800   20.3760 C   0  0  0  0  0  3  0  0  0  0  0  0
  -25.9040  -26.8490   19.1520 C   0  0  0  0  0  3  0  0  0  0  0  0
  -24.7170  -27.6040   19.2090 C   0  0  0  0  0  3  0  0  0  0  0  0
  -23.4520  -29.6950   19.9660 C   0  0  0  0  0  2  0  0  0  0  0  0
  -24.5370  -30.9300   21.8900 N   0  0  0  0  0  0  0  0  0  0  0  0
  -23.4200  -31.9510   23.5850 O   0  0  0  0  0  0  0  0  0  0  0  0
  -22.6520  -29.2740   22.3210 C   0  0  0  0  0  0  0  0  0  0  0  0
  -21.3290  -29.0630   22.2160 N   0  0  0  0  0  0  0  0  0  0  0  0
  -23.3620  -28.6510   23.1140 O   0  0  0  0  0  0  0  0  0  0  0  0
  -20.8120  -29.6200   21.5490 H   0  0  0  0  0  0  0  0  0  0  0  0
  -17.9990  -27.7580   22.7380 C   0  0  0  0  0  0  0  0  0  0  0  0
  -20.5520  -28.0900   22.9830 C   0  0  0  0  0  3  0  0  0  0  0  0
  -20.6910  -26.6700   22.3870 C   0  0  0  0  0  2  0  0  0  0  0  0
  -19.5860  -26.3290   21.3810 C   0  0  0  0  0  2  0  0  0  0  0  0
  -18.2080  -26.4250   22.0420 C   0  0  0  0  0  2  0  0  0  0  0  0
  -19.0990  -28.5460   23.1670 C   0  0  0  0  0  0  0  0  0  0  0  0
  -18.8490  -29.7950   23.7790 C   0  0  0  0  0  3  0  0  0  0  0  0
  -17.5310  -30.2530   23.9680 C   0  0  0  0  0  3  0  0  0  0  0  0
  -16.4460  -29.4600   23.5570 C   0  0  0  0  0  3  0  0  0  0  0  0
  -16.6800  -28.2160   22.9470 C   0  0  0  0  0  3  0  0  0  0  0  0
  -25.7790  -32.3490   23.6120 C   0  0  0  0  0  3  0  0  0  0  0  0
  -26.3670  -31.5360   24.8300 C   0  0  1  0  0  0  0  0  0  0  0  0
  -25.3220  -31.2180   25.9260 C   0  0  0  0  0  1  0  0  0  0  0  0
  -26.9700  -30.1970   24.3490 C   0  0  0  0  0  1  0  0  0  0  0  0
  -27.5180  -32.3350   25.4870 C   0  0  0  0  0  1  0  0  0  0  0  0
  -25.4440  -33.7220   24.0200 N   0  0  0  0  0  0  0  0  0  0  0  0
  -25.7390  -34.8190   23.3100 C   0  0  0  0  0  0  0  0  0  0  0  0
  -26.3870  -34.7840   22.2610 O   0  0  0  0  0  0  0  0  0  0  0  0
  -24.8620  -33.8220   24.8380 H   0  0  0  0  0  0  0  0  0  0  0  0
  -23.9580  -36.5800   23.0920 C   0  0  0  0  0  1  0  0  0  0  0  0
  -25.2320  -36.1710   23.8490 C   0  0  0  0  0  3  0  0  0  0  0  0
  -27.3640  -37.0700   24.6700 C   0  0  0  0  0  1  0  0  0  0  0  0
  -26.2360  -37.2540   23.7600 N   0  0  0  0  0  0  0  0  0  0  0  0
  -25.8110  -38.1550   23.9630 H   0  0  0  0  0  0  0  0  0  0  0  0
  1  2  2  0
  2  5  1  0
  2  4  1  0
  3 53  1  0
  3  1  1  0
  6  3  1  0
  8 12  2  0
  8 10  1  0
  9  7  2  0
  9  1  1  0
 10 23  1  0
 10 11  2  0
 11  7  1  0
 11 13  1  0
 12  9  1  0
 14 12  1  0
 15 23  1  0
 16 21  1  0
 17 18  1  0
 17 16  1  0
 19 18  1  0
 19 28  1  0
 19 20  1  0
 21 15  1  0
 21 20  1  0
 22 15  2  0
 23 24  1  0
 25 26  2  0
 26 45  1  0
 27 26  1  0
 27 30  1  0
 28 29  1  0
 28 25  1  0
 29 27  2  0
 30 31  1  0
 31 32  2  0
 33 36  1  0
 33 32  1  0
 34 33  2  0
 35 34  1  0
 35 30  2  0
 36 37  1  0
 37 38  1  0
 38 39  2  0
 40 39  1  0
 40 44  1  0
 41 40  2  0
 42 37  2  0
 42 41  1  0
 43 42  1  0
 45 46  1  0
 46 49  1  0
 46 48  1  0
 47 45  2  0
 50 25  1  0
 50 51  1  0
 52 50  1  0
 53 57  1  0
 53 56  1  0
 54 56  1  0
 56 55  1  0
 57 58  1  0
 59 70  2  0
 60 58  1  0
 60 65  1  0
 61 69  1  0
 61 71  1  0
 62 68  1  0
 62 64  1  0
 63 69  1  0
 64 63  1  0
 65 64  2  0
 66 67  1  0
 66 60  2  0
 67 62  2  0
 68 61  1  0
 69 59  1  0
 71 73  2  0
 72 71  1  0
 74 72  1  0
 75 84  2  0
 75 80  1  0
 76 72  1  0
 76 80  1  0
 77 76  1  0
 78 79  1  0
 78 77  1  0
 79 75  1  0
 80 81  2  0
 81 82  1  0
 83 82  2  0
 84 83  1  0
 85 59  1  0
 85 90  1  0
 85 86  1  0
 86 89  1  1
 86 87  1  0
 88 86  1  0
 90 93  1  0
 91 95  1  0
 91 90  1  0
 92 91  2  0
 95 94  1  0
 97 95  1  0
 97 98  1  0
 97 96  1  0
M  ISO  4  15 100  23 100  57 101  58 101
M  END
>  <TORSDO>  (40) 
F 20

>  <SCORE>  (40) 
-13.019

>  <name>  (40) 
39

>  <ligand_id>  (40) 
39

>  <original_smiles>  (40) 
[H]c1c([H])c([H])c2c(c1[H])C([H])([H])C([H])([H])C([H])([H])C2([H])N([H])C(=O)C1([H])N(C(=O)C([H])(N([H])C(=O)C([H])(N([H])C([H])([H])[H])C([H])([H])[H])C(C([H])([H])[H])(C([H])([H])[H])C([H])([H])[H])C([H])([H])c2c([H])c(OC([H])([H])C([H])([N+]([H])=C(c3c([H])c(F)c(N([H])C(=O)N4C([H])([H])C([H])([H])C([H])([H])C([H])(n5nc(-c6c([H])c([H])c(Oc7c([H])c([H])c(F)c([H])c7F)c([H])c6[H])c(C(=O)N([H])[H])c5N([H])[H])C4([H])[H])c([H])c3F)N([H])[H])C([H])(C([H])([H])[H])C([H])([H])[H])c([H])c([H])c2C1([H])[H]

>  <smiles>  (40) 
[H]c1c([H])c([H])c2c(c1[H])C([H])([H])C([H])([H])C([H])([H])C2([H])N([H])C(=O)C1([H])N(C(=O)C([H])(N([H])C(=O)C([H])(N([H])C([H])([H])[H])C([H])([H])[H])C(C([H])([H])[H])(C([H])([H])[H])C([H])([H])[H])C([H])([H])c2c([H])c(OC([H])([H])C([H])([N+]([H])=C(c3c([H])c(F)c(N([H])C(=O)N4C([H])([H])C([H])([H])C([H])([H])C([H])(n5nc(-c6c([H])c([H])c(Oc7c([H])c([H])c(F)c([H])c7F)c([H])c6[H])c(C(=O)N([H])[H])c5N([H])[H])C4([H])[H])c([H])c3F)N([H])[H])C([H])(C([H])([H])[H])C([H])([H])[H])c([H])c([H])c2C1([H])[H]

$$$$
40:0:0
     RDKit          3D

 90 98  0  0  1  0  0  0  0  0999 V2000
  -30.6000  -18.5260   20.4180 C   0  0  0  0  0  3  0  0  0  0  0  0
  -28.3510  -18.0490   19.9430 C   0  0  0  0  0  3  0  0  0  0  0  0
  -28.9840  -20.5200   20.1190 C   0  0  0  0  0  0  0  0  0  0  0  0
  -30.2980  -19.9660   20.3750 C   0  0  0  0  0  0  0  0  0  0  0  0
  -29.6310  -17.4830   20.2130 C   0  0  0  0  0  0  0  0  0  0  0  0
  -28.0400  -19.4540   19.8860 C   0  0  0  0  0  0  0  0  0  0  0  0
  -31.4370  -20.9320   20.6340 C   0  0  0  0  0  1  0  0  0  0  0  0
  -26.3880  -19.8160   19.5100 Cl  0  0  0  0  0  0  0  0  0  0  0  0
  -30.5840  -14.8950   19.9590 C   0  0  0  0  0  0  0  0  0  0  0  0
  -30.4280  -12.5810   18.9470 C   0  0  0  0  0  2  0  0  0  0  0  0
  -29.4010  -12.5990   17.7890 C   0  0  0  0  0  2  0  0  0  0  0  0
  -27.9670  -12.3870   18.3140 C   0  0  0  0  0  2  0  0  0  0  0  0
  -27.6530  -13.2710   19.5470 C   0  0  0  0  0  3  0  0  0  0  0  0
  -28.7850  -13.2020   20.5990 C   0  0  0  0  0  2  0  0  0  0  0  0
  -30.0260  -13.6220   19.9300 N   0  0  0  0  0  0  0  0  0  0  0  0
  -31.7390  -15.0460   19.5490 O   0  0  0  0  0  0  0  0  0  0  0  0
  -29.7310  -15.9620   20.3030 N   0  0  0  0  0  0  0  0  0  0  0  0
  -28.8630  -15.5600   20.6170 H   0  0  0  0  0  0  0  0  0  0  0  0
  -25.3290  -13.8510   20.4630 C   0  0  0  0  0  0  0  0  0  0  0  0
  -24.2860  -13.0740   20.8860 C   0  0  0  0  0  0  0  0  0  0  0  0
  -24.7340  -11.7200   20.7770 C   0  0  0  0  0  0  0  0  0  0  0  0
  -26.3460  -12.9720   20.1230 N   0  0  0  0  0  0  0  0  0  0  0  0
  -26.0000  -11.6830   20.3740 N   0  0  0  0  0  0  0  0  0  0  0  0
  -24.0090  -10.4600   20.9760 C   0  0  0  0  0  0  0  0  0  0  0  0
  -24.4720   -9.4760   21.8770 C   0  0  0  0  0  3  0  0  0  0  0  0
  -23.7480   -8.2790   22.0670 C   0  0  0  0  0  3  0  0  0  0  0  0
  -22.5470   -8.0550   21.3520 C   0  0  0  0  0  0  0  0  0  0  0  0
  -22.1010   -9.0280   20.4400 C   0  0  0  0  0  3  0  0  0  0  0  0
  -22.8260  -10.2160   20.2490 C   0  0  0  0  0  3  0  0  0  0  0  0
  -21.7910   -6.9110   21.4510 O   0  0  0  0  0  0  0  0  0  0  0  0
  -21.7400   -6.1810   22.6120 C   0  0  0  0  0  0  0  0  0  0  0  0
  -21.2890   -6.7440   23.8240 C   0  0  0  0  0  3  0  0  0  0  0  0
  -21.1840   -5.9390   24.9770 C   0  0  0  0  0  3  0  0  0  0  0  0
  -21.5210   -4.5750   24.9170 C   0  0  0  0  0  0  0  0  0  0  0  0
  -21.9680   -4.0120   23.7080 C   0  0  0  0  0  3  0  0  0  0  0  0
  -22.0740   -4.8130   22.5570 C   0  0  0  0  0  0  0  0  0  0  0  0
  -22.4820   -4.2610   21.3890 F   0  0  0  0  0  0  0  0  0  0  0  0
  -21.4160   -3.8010   26.0230 F   0  0  0  0  0  0  0  0  0  0  0  0
  -22.9150  -13.5530   21.2660 C   0  0  0  0  0  0  0  0  0  0  0  0
  -22.2480  -12.8470   22.1720 N   0  0  0  0  0  0  0  0  0  0  0  0
  -22.4480  -14.5900   20.7990 O   0  0  0  0  0  0  0  0  0  0  0  0
  -22.6380  -12.0100   22.5750 H   0  0  0  0  0  0  0  0  0  0  0  0
  -21.3310  -13.1550   22.4680 H   0  0  0  0  0  0  0  0  0  0  0  0
  -25.4920  -15.2240   20.3100 N   0  0  0  0  0  0  0  0  0  0  0  0
  -24.7250  -15.8680   20.4600 H   0  0  0  0  0  0  0  0  0  0  0  0
  -26.2620  -15.6360   19.7980 H   0  0  0  0  0  0  0  0  0  0  0  0
  -28.4710  -22.0430   20.0770 C   0  0  0  0  0  3  0  0  0  0  0  0
  -28.8970  -23.3880   20.1250 C   0  0  0  0  0  3  0  0  0  0  0  0
  -27.9070  -24.6880   20.0790 C   0  0  0  0  0  2  0  0  0  0  0  0
  -28.2990  -26.1750   19.9140 O   0  0  0  0  0  0  0  0  0  0  0  0
  -24.6950  -31.7190   23.1490 C   0  0  0  0  0  0  0  0  0  0  0  0
  -27.2530  -27.1650   19.9030 C   0  0  0  0  0  0  0  0  0  0  0  0
  -23.4920  -30.4210   21.4350 C   0  0  0  0  0  3  0  0  0  0  0  0
  -24.9370  -28.9140   19.9410 C   0  0  0  0  0  0  0  0  0  0  0  0
  -26.0490  -30.6780   21.2980 C   0  0  0  0  0  2  0  0  0  0  0  0
  -26.1150  -29.3210   20.5800 C   0  0  0  0  0  0  0  0  0  0  0  0
  -27.2750  -28.4620   20.5490 C   0  0  0  0  0  3  0  0  0  0  0  0
  -26.0540  -26.8680   19.2140 C   0  0  0  0  0  3  0  0  0  0  0  0
  -24.9190  -27.7010   19.2430 C   0  0  0  0  0  3  0  0  0  0  0  0
  -23.7150  -29.8130   20.0260 C   0  0  0  0  0  2  0  0  0  0  0  0
  -24.7650  -30.9560   22.0170 N   0  0  0  0  0  0  0  0  0  0  0  0
  -23.6100  -31.9860   23.6840 O   0  0  0  0  0  0  0  0  0  0  0  0
  -22.8010  -29.3700   22.3400 C   0  0  0  0  0  0  0  0  0  0  0  0
  -21.4690  -29.2380   22.2210 N   0  0  0  0  0  0  0  0  0  0  0  0
  -23.4660  -28.6750   23.1140 O   0  0  0  0  0  0  0  0  0  0  0  0
  -20.9900  -29.8500   21.5750 H   0  0  0  0  0  0  0  0  0  0  0  0
  -18.0550  -28.1420   22.7430 C   0  0  0  0  0  0  0  0  0  0  0  0
  -20.6310  -28.2780   22.9420 C   0  0  0  0  0  3  0  0  0  0  0  0
  -20.6520  -26.8920   22.2540 C   0  0  0  0  0  2  0  0  0  0  0  0
  -19.5060  -26.6970   21.2560 C   0  0  0  0  0  2  0  0  0  0  0  0
  -18.1520  -26.8460   21.9570 C   0  0  0  0  0  2  0  0  0  0  0  0
  -19.2190  -28.8220   23.1920 C   0  0  0  0  0  0  0  0  0  0  0  0
  -19.0720  -30.0410   23.8910 C   0  0  0  0  0  3  0  0  0  0  0  0
  -17.7950  -30.5780   24.1410 C   0  0  0  0  0  3  0  0  0  0  0  0
  -16.6470  -29.8930   23.7080 C   0  0  0  0  0  3  0  0  0  0  0  0
  -16.7780  -28.6770   23.0140 C   0  0  0  0  0  3  0  0  0  0  0  0
  -25.9760  -32.3100   23.8130 C   0  0  0  0  0  3  0  0  0  0  0  0
  -25.6830  -33.7020   24.1910 N   0  0  0  0  0  0  0  0  0  0  0  0
  -26.0280  -34.7780   23.4680 C   0  0  0  0  0  0  0  0  0  0  0  0
  -26.6940  -34.7010   22.4340 O   0  0  0  0  0  0  0  0  0  0  0  0
  -25.0910  -33.8360   24.9970 H   0  0  0  0  0  0  0  0  0  0  0  0
  -24.3190  -36.6050   23.1930 C   0  0  0  0  0  1  0  0  0  0  0  0
  -25.5630  -36.1570   23.9770 C   0  0  0  0  0  3  0  0  0  0  0  0
  -27.7140  -36.9930   24.8190 C   0  0  0  0  0  1  0  0  0  0  0  0
  -26.6080  -37.2000   23.8880 N   0  0  0  0  0  0  0  0  0  0  0  0
  -26.2150  -38.1210   24.0620 H   0  0  0  0  0  0  0  0  0  0  0  0
  -26.4560  -31.4880   25.0710 C   0  0  1  0  0  0  0  0  0  0  0  0
  -25.3430  -31.2430   26.1180 C   0  0  0  0  0  1  0  0  0  0  0  0
  -27.0130  -30.1090   24.6490 C   0  0  0  0  0  1  0  0  0  0  0  0
  -27.6150  -32.2350   25.7720 C   0  0  0  0  0  1  0  0  0  0  0  0
  2  5  1  0
  3  4  2  0
  4  1  1  0
  4  7  1  0
  5 17  1  0
  5  1  2  0
  6  2  2  0
  6  3  1  0
  8  6  1  0
  9 17  1  0
 10 15  1  0
 11 12  1  0
 11 10  1  0
 13 12  1  0
 13 22  1  0
 13 14  1  0
 15  9  1  0
 15 14  1  0
 16  9  2  0
 17 18  1  0
 19 20  2  0
 20 39  1  0
 21 20  1  0
 21 24  1  0
 22 23  1  0
 22 19  1  0
 23 21  2  0
 24 25  1  0
 25 26  2  0
 27 30  1  0
 27 26  1  0
 28 27  2  0
 29 28  1  0
 29 24  2  0
 30 31  1  0
 31 32  1  0
 32 33  2  0
 34 33  1  0
 34 38  1  0
 35 34  2  0
 36 31  2  0
 36 35  1  0
 37 36  1  0
 39 40  1  0
 40 43  1  0
 40 42  1  0
 41 39  2  0
 44 45  1  0
 44 19  1  0
 46 44  1  0
 47  3  1  0
 47 48  2  0
 49 48  1  0
 50 49  1  0
 51 62  2  0
 52 50  1  0
 52 57  1  0
 53 61  1  0
 53 63  1  0
 54 60  1  0
 54 56  1  0
 55 61  1  0
 56 55  1  0
 57 56  2  0
 58 59  1  0
 58 52  2  0
 59 54  2  0
 60 53  1  0
 61 51  1  0
 63 65  2  0
 64 63  1  0
 66 64  1  0
 67 76  2  0
 67 72  1  0
 68 64  1  0
 68 72  1  0
 69 68  1  0
 70 71  1  0
 70 69  1  0
 71 67  1  0
 72 73  2  0
 73 74  1  0
 75 74  2  0
 76 75  1  0
 77 51  1  0
 77 78  1  0
 77 87  1  0
 78 81  1  0
 79 83  1  0
 79 78  1  0
 80 79  2  0
 83 82  1  0
 85 83  1  0
 85 86  1  0
 85 84  1  0
 87 90  1  1
 87 88  1  0
 89 87  1  0
M  ISO  4   9 100  17 100  49 101  50 101
M  END
>  <TORSDO>  (41) 
F 18

>  <SCORE>  (41) 
-13.904

>  <name>  (41) 
40

>  <ligand_id>  (41) 
40

>  <original_smiles>  (41) 
[H]C(=C([H])C([H])([H])Oc1c([H])c([H])c2c(c1[H])C([H])([H])N(C(=O)C([H])(N([H])C(=O)C([H])(N([H])C([H])([H])[H])C([H])([H])[H])C(C([H])([H])[H])(C([H])([H])[H])C([H])([H])[H])C([H])(C(=O)N([H])C1([H])c3c([H])c([H])c([H])c([H])c3C([H])([H])C([H])([H])C1([H])[H])C2([H])[H])c1c(Cl)c([H])c(N([H])C(=O)N2C([H])([H])C([H])([H])C([H])([H])C([H])(n3nc(-c4c([H])c([H])c(Oc5c([H])c([H])c(F)c([H])c5F)c([H])c4[H])c(C(=O)N([H])[H])c3N([H])[H])C2([H])[H])c([H])c1C([H])([H])[H]

>  <smiles>  (41) 
[H]C(=C([H])C([H])([H])Oc1c([H])c([H])c2c(c1[H])C([H])([H])N(C(=O)C([H])(N([H])C(=O)C([H])(N([H])C([H])([H])[H])C([H])([H])[H])C(C([H])([H])[H])(C([H])([H])[H])C([H])([H])[H])C([H])(C(=O)N([H])C1([H])c3c([H])c([H])c([H])c([H])c3C([H])([H])C([H])([H])C1([H])[H])C2([H])[H])c1c(Cl)c([H])c(N([H])C(=O)N2C([H])([H])C([H])([H])C([H])([H])C([H])(n3nc(-c4c([H])c([H])c(Oc5c([H])c([H])c(F)c([H])c5F)c([H])c4[H])c(C(=O)N([H])[H])c3N([H])[H])C2([H])[H])c([H])c1C([H])([H])[H]

$$$$
41:0:0
     RDKit          3D

 94102  0  0  1  0  0  0  0  0999 V2000
  -29.3100  -20.3920   20.2410 C   0  0  0  0  0  0  0  0  0  0  0  0
  -29.6920  -21.6660   20.4950 N   0  0  0  0  0  0  0  0  0  0  0  0
  -28.3090  -20.1690   19.5550 O   0  0  0  0  0  0  0  0  0  0  0  0
  -30.5210  -21.8310   21.0490 H   0  0  0  0  0  0  0  0  0  0  0  0
  -30.7360  -19.4240   22.0950 C   0  0  0  0  0  3  0  0  0  0  0  0
  -31.2740  -18.3390   22.8150 C   0  0  0  0  0  3  0  0  0  0  0  0
  -30.0700  -19.2250   20.8630 C   0  0  0  0  0  0  0  0  0  0  0  0
  -29.9880  -17.8850   20.3480 C   0  0  0  0  0  0  0  0  0  0  0  0
  -30.4450  -16.7840   21.1280 C   0  0  0  0  0  0  0  0  0  0  0  0
  -31.1060  -17.0200   22.3540 C   0  0  0  0  0  0  0  0  0  0  0  0
  -29.4010  -17.5760   18.9710 C   0  0  0  0  0  1  0  0  0  0  0  0
  -31.6600  -15.7140   23.3450 Cl  0  0  0  0  0  0  0  0  0  0  0  0
  -30.7530  -14.4730   20.1980 C   0  0  0  0  0  0  0  0  0  0  0  0
  -30.3930  -12.3370   19.0050 C   0  0  0  0  0  2  0  0  0  0  0  0
  -29.4040  -12.5520   17.8380 C   0  0  0  0  0  2  0  0  0  0  0  0
  -27.9440  -12.4420   18.3180 C   0  0  0  0  0  2  0  0  0  0  0  0
  -27.6690  -13.2740   19.5980 C   0  0  0  0  0  3  0  0  0  0  0  0
  -28.7530  -13.0050   20.6650 C   0  0  0  0  0  2  0  0  0  0  0  0
  -30.0640  -13.3080   20.0590 N   0  0  0  0  0  0  0  0  0  0  0  0
  -31.8580  -14.6740   19.6850 O   0  0  0  0  0  0  0  0  0  0  0  0
  -30.0520  -15.4500   20.7990 N   0  0  0  0  0  0  0  0  0  0  0  0
  -29.1250  -15.1800   21.0900 H   0  0  0  0  0  0  0  0  0  0  0  0
  -25.3040  -13.9410   20.3720 C   0  0  0  0  0  0  0  0  0  0  0  0
  -24.2300  -13.1930   20.7780 C   0  0  0  0  0  0  0  0  0  0  0  0
  -24.6580  -11.8320   20.7310 C   0  0  0  0  0  0  0  0  0  0  0  0
  -26.3210  -13.0340   20.1150 N   0  0  0  0  0  0  0  0  0  0  0  0
  -25.9360  -11.7610   20.3820 N   0  0  0  0  0  0  0  0  0  0  0  0
  -23.9100  -10.5870   20.9420 C   0  0  0  0  0  0  0  0  0  0  0  0
  -24.3440   -9.6120   21.8660 C   0  0  0  0  0  3  0  0  0  0  0  0
  -23.5980   -8.4300   22.0630 C   0  0  0  0  0  3  0  0  0  0  0  0
  -22.4030   -8.2140   21.3350 C   0  0  0  0  0  0  0  0  0  0  0  0
  -21.9880   -9.1770   20.3980 C   0  0  0  0  0  3  0  0  0  0  0  0
  -22.7340  -10.3510   20.2000 C   0  0  0  0  0  3  0  0  0  0  0  0
  -21.6280   -7.0850   21.4440 O   0  0  0  0  0  0  0  0  0  0  0  0
  -21.5750   -6.3570   22.6060 C   0  0  0  0  0  0  0  0  0  0  0  0
  -21.1820   -6.9370   23.8310 C   0  0  0  0  0  3  0  0  0  0  0  0
  -21.0740   -6.1380   24.9860 C   0  0  0  0  0  3  0  0  0  0  0  0
  -21.3490   -4.7580   24.9170 C   0  0  0  0  0  0  0  0  0  0  0  0
  -21.7350   -4.1780   23.6960 C   0  0  0  0  0  3  0  0  0  0  0  0
  -21.8450   -4.9750   22.5430 C   0  0  0  0  0  0  0  0  0  0  0  0
  -22.1970   -4.4050   21.3660 F   0  0  0  0  0  0  0  0  0  0  0  0
  -21.2360   -3.9870   26.0250 F   0  0  0  0  0  0  0  0  0  0  0  0
  -22.8550  -13.7030   21.0960 C   0  0  0  0  0  0  0  0  0  0  0  0
  -22.1440  -13.0210   21.9880 N   0  0  0  0  0  0  0  0  0  0  0  0
  -22.4210  -14.7380   20.5910 O   0  0  0  0  0  0  0  0  0  0  0  0
  -22.5110  -12.1840   22.4160 H   0  0  0  0  0  0  0  0  0  0  0  0
  -21.2190  -13.3370   22.2440 H   0  0  0  0  0  0  0  0  0  0  0  0
  -25.5010  -15.3030   20.1790 N   0  0  0  0  0  0  0  0  0  0  0  0
  -24.7550  -15.9810   20.2860 H   0  0  0  0  0  0  0  0  0  0  0  0
  -26.3350  -15.7010   19.7690 H   0  0  0  0  0  0  0  0  0  0  0  0
  -28.8100  -22.7990   20.1300 C   0  0  0  0  0  2  0  0  0  0  0  0
  -29.2480  -24.2560   20.4760 C   0  0  0  0  0  2  0  0  0  0  0  0
  -28.1390  -25.2460   20.0110 C   0  0  0  0  0  2  0  0  0  0  0  0
  -28.3050  -26.6580   20.2920 O   0  0  0  0  0  0  0  0  0  0  0  0
  -24.5800  -31.9670   23.3050 C   0  0  0  0  0  0  0  0  0  0  0  0
  -27.1540  -27.4400   20.2460 C   0  0  0  0  0  0  0  0  0  0  0  0
  -23.3550  -30.5700   21.6770 C   0  0  0  0  0  3  0  0  0  0  0  0
  -24.7810  -29.0090   20.2490 C   0  0  0  0  0  0  0  0  0  0  0  0
  -25.8870  -30.8840   21.4690 C   0  0  0  0  0  2  0  0  0  0  0  0
  -25.9500  -29.5050   20.8410 C   0  0  0  0  0  0  0  0  0  0  0  0
  -27.1340  -28.7250   20.8430 C   0  0  0  0  0  3  0  0  0  0  0  0
  -25.9610  -26.9800   19.6300 C   0  0  0  0  0  3  0  0  0  0  0  0
  -24.7810  -27.7440   19.6440 C   0  0  0  0  0  3  0  0  0  0  0  0
  -23.5470  -29.8830   20.3000 C   0  0  0  0  0  2  0  0  0  0  0  0
  -24.6280  -31.1580   22.2080 N   0  0  0  0  0  0  0  0  0  0  0  0
  -23.5020  -32.2560   23.8440 O   0  0  0  0  0  0  0  0  0  0  0  0
  -22.6880  -29.5680   22.6430 C   0  0  0  0  0  0  0  0  0  0  0  0
  -21.3610  -29.4000   22.5160 N   0  0  0  0  0  0  0  0  0  0  0  0
  -23.3630  -28.9380   23.4630 O   0  0  0  0  0  0  0  0  0  0  0  0
  -20.8740  -29.9740   21.8420 H   0  0  0  0  0  0  0  0  0  0  0  0
  -17.9830  -28.1950   22.9740 C   0  0  0  0  0  0  0  0  0  0  0  0
  -20.5350  -28.4670   23.2790 C   0  0  0  0  0  3  0  0  0  0  0  0
  -20.6540  -27.0310   22.7160 C   0  0  0  0  0  2  0  0  0  0  0  0
  -19.5630  -26.6940   21.6960 C   0  0  0  0  0  2  0  0  0  0  0  0
  -18.1770  -26.8290   22.3370 C   0  0  0  0  0  2  0  0  0  0  0  0
  -19.0920  -28.9710   23.4030 C   0  0  0  0  0  0  0  0  0  0  0  0
  -18.8620  -30.2490   23.9560 C   0  0  0  0  0  3  0  0  0  0  0  0
  -17.5510  -30.7490   24.0920 C   0  0  0  0  0  3  0  0  0  0  0  0
  -16.4540  -29.9680   23.6840 C   0  0  0  0  0  3  0  0  0  0  0  0
  -16.6710  -28.6930   23.1280 C   0  0  0  0  0  3  0  0  0  0  0  0
  -25.8740  -32.5840   23.9210 C   0  0  0  0  0  3  0  0  0  0  0  0
  -26.3840  -31.8050   25.1950 C   0  0  1  0  0  0  0  0  0  0  0  0
  -25.2950  -31.5730   26.2680 C   0  0  0  0  0  1  0  0  0  0  0  0
  -26.9510  -30.4230   24.7950 C   0  0  0  0  0  1  0  0  0  0  0  0
  -27.5460  -32.5840   25.8550 C   0  0  0  0  0  1  0  0  0  0  0  0
  -25.5840  -33.9870   24.2500 N   0  0  0  0  0  0  0  0  0  0  0  0
  -25.9090  -35.0300   23.4760 C   0  0  0  0  0  0  0  0  0  0  0  0
  -26.5570  -34.9150   22.4320 O   0  0  0  0  0  0  0  0  0  0  0  0
  -25.0110  -34.1510   25.0640 H   0  0  0  0  0  0  0  0  0  0  0  0
  -24.1770  -36.8220   23.1580 C   0  0  0  0  0  1  0  0  0  0  0  0
  -25.4440  -36.4260   23.9320 C   0  0  0  0  0  3  0  0  0  0  0  0
  -27.6110  -37.3090   24.6740 C   0  0  0  0  0  1  0  0  0  0  0  0
  -26.4770  -37.4720   23.7670 N   0  0  0  0  0  0  0  0  0  0  0  0
  -26.0820  -38.3980   23.9180 H   0  0  0  0  0  0  0  0  0  0  0  0
  1  2  1  0
  1  7  1  0
  2  4  1  0
  3  1  2  0
  5  6  1  0
  7  5  2  0
  8  7  1  0
  8  9  2  0
  9 10  1  0
 10  6  2  0
 10 12  1  0
 11  8  1  0
 13 21  1  0
 14 19  1  0
 15 16  1  0
 15 14  1  0
 17 16  1  0
 17 26  1  0
 17 18  1  0
 19 13  1  0
 19 18  1  0
 20 13  2  0
 21 22  1  0
 21  9  1  0
 23 24  2  0
 24 43  1  0
 25 24  1  0
 25 28  1  0
 26 23  1  0
 26 27  1  0
 27 25  2  0
 28 29  1  0
 29 30  2  0
 31 34  1  0
 31 30  1  0
 32 31  2  0
 33 32  1  0
 33 28  2  0
 34 35  1  0
 35 36  1  0
 36 37  2  0
 38 37  1  0
 38 42  1  0
 39 38  2  0
 40 35  2  0
 40 39  1  0
 41 40  1  0
 43 44  1  0
 44 47  1  0
 44 46  1  0
 45 43  2  0
 48 49  1  0
 48 23  1  0
 50 48  1  0
 51 52  1  0
 51  2  1  0
 53 54  1  0
 53 52  1  0
 55 66  2  0
 56 54  1  0
 56 61  1  0
 57 65  1  0
 57 67  1  0
 58 64  1  0
 58 60  1  0
 59 65  1  0
 60 61  2  0
 60 59  1  0
 62 63  1  0
 62 56  2  0
 63 58  2  0
 64 57  1  0
 65 55  1  0
 67 69  2  0
 68 67  1  0
 70 68  1  0
 71 80  2  0
 71 76  1  0
 72 68  1  0
 72 76  1  0
 73 72  1  0
 74 75  1  0
 74 73  1  0
 75 71  1  0
 76 77  2  0
 77 78  1  0
 79 78  2  0
 80 79  1  0
 81 55  1  0
 81 86  1  0
 81 82  1  0
 82 85  1  1
 82 83  1  0
 84 82  1  0
 86 89  1  0
 87 91  1  0
 87 86  1  0
 88 87  2  0
 91 90  1  0
 93 94  1  0
 93 91  1  0
 93 92  1  0
M  ISO  4  13 100  21 100  53 101  54 101
M  END
>  <TORSDO>  (42) 
F 20

>  <SCORE>  (42) 
-11.583

>  <name>  (42) 
41

>  <ligand_id>  (42) 
41

>  <original_smiles>  (42) 
[H]c1c([H])c([H])c2c(c1[H])C([H])([H])C([H])([H])C([H])([H])C2([H])N([H])C(=O)C1([H])N(C(=O)C([H])(N([H])C(=O)C([H])(N([H])C([H])([H])[H])C([H])([H])[H])C(C([H])([H])[H])(C([H])([H])[H])C([H])([H])[H])C([H])([H])c2c([H])c(OC([H])([H])C([H])([H])C([H])([H])N([H])C(=O)c3c([H])c([H])c(Cl)c(N([H])C(=O)N4C([H])([H])C([H])([H])C([H])([H])C([H])(n5nc(-c6c([H])c([H])c(Oc7c([H])c([H])c(F)c([H])c7F)c([H])c6[H])c(C(=O)N([H])[H])c5N([H])[H])C4([H])[H])c3C([H])([H])[H])c([H])c([H])c2C1([H])[H]

>  <smiles>  (42) 
[H]c1c([H])c([H])c2c(c1[H])C([H])([H])C([H])([H])C([H])([H])C2([H])N([H])C(=O)C1([H])N(C(=O)C([H])(N([H])C(=O)C([H])(N([H])C([H])([H])[H])C([H])([H])[H])C(C([H])([H])[H])(C([H])([H])[H])C([H])([H])[H])C([H])([H])c2c([H])c(OC([H])([H])C([H])([H])C([H])([H])N([H])C(=O)c3c([H])c([H])c(Cl)c(N([H])C(=O)N4C([H])([H])C([H])([H])C([H])([H])C([H])(n5nc(-c6c([H])c([H])c(Oc7c([H])c([H])c(F)c([H])c7F)c([H])c6[H])c(C(=O)N([H])[H])c5N([H])[H])C4([H])[H])c3C([H])([H])[H])c([H])c([H])c2C1([H])[H]

$$$$
42:0:0
     RDKit          3D

 92101  0  0  1  0  0  0  0  0999 V2000
  -28.7530  -23.7140   20.1540 C   0  0  0  0  0  3  0  0  0  0  0  0
  -27.5320  -22.2800   21.6710 C   0  0  0  0  0  3  0  0  0  0  0  0
  -28.4630  -22.2810   20.6930 C   0  0  0  0  0  0  0  0  0  0  0  0
  -28.0090  -24.8930   20.4360 C   0  0  0  0  0  0  0  0  0  0  0  0
  -26.8650  -23.5040   22.2890 C   0  0  0  0  0  2  0  0  0  0  0  0
  -26.8220  -24.7570   21.3890 C   0  0  0  0  0  2  0  0  0  0  0  0
  -28.0780  -19.7330   20.0880 C   0  0  0  0  0  3  0  0  0  0  0  0
  -28.3900  -18.3210   20.0310 C   0  0  0  0  0  3  0  0  0  0  0  0
  -30.6280  -18.7790   20.5850 C   0  0  0  0  0  3  0  0  0  0  0  0
  -29.0040  -20.7830   20.4030 C   0  0  0  0  0  0  0  0  0  0  0  0
  -30.3160  -20.2180   20.6440 C   0  0  0  0  0  0  0  0  0  0  0  0
  -29.6700  -17.7380   20.2950 C   0  0  0  0  0  0  0  0  0  0  0  0
  -31.4130  -21.1560   21.1090 C   0  0  0  0  0  1  0  0  0  0  0  0
  -30.6810  -15.1390   20.0680 C   0  0  0  0  0  0  0  0  0  0  0  0
  -30.6060  -12.8030   19.0760 C   0  0  0  0  0  2  0  0  0  0  0  0
  -29.6120  -12.7850   17.8880 C   0  0  0  0  0  2  0  0  0  0  0  0
  -28.1610  -12.5630   18.3690 C   0  0  0  0  0  2  0  0  0  0  0  0
  -27.8060  -13.4430   19.5950 C   0  0  0  0  0  3  0  0  0  0  0  0
  -28.9100  -13.3980   20.6720 C   0  0  0  0  0  2  0  0  0  0  0  0
  -30.1540  -13.8490   20.0340 N   0  0  0  0  0  0  0  0  0  0  0  0
  -31.8510  -15.2980   19.6980 O   0  0  0  0  0  0  0  0  0  0  0  0
  -29.7880  -16.2050   20.3470 N   0  0  0  0  0  0  0  0  0  0  0  0
  -28.9010  -15.7890   20.5840 H   0  0  0  0  0  0  0  0  0  0  0  0
  -25.4590  -13.9940   20.4670 C   0  0  0  0  0  0  0  0  0  0  0  0
  -24.4170  -13.2060   20.8700 C   0  0  0  0  0  0  0  0  0  0  0  0
  -24.8800  -11.8580   20.7660 C   0  0  0  0  0  0  0  0  0  0  0  0
  -26.4890  -13.1270   20.1430 N   0  0  0  0  0  0  0  0  0  0  0  0
  -26.1520  -11.8340   20.3870 N   0  0  0  0  0  0  0  0  0  0  0  0
  -24.1630  -10.5880   20.9480 C   0  0  0  0  0  0  0  0  0  0  0  0
  -24.5790   -9.6370   21.9050 C   0  0  0  0  0  3  0  0  0  0  0  0
  -23.8600   -8.4340   22.0760 C   0  0  0  0  0  3  0  0  0  0  0  0
  -22.7130   -8.1730   21.2900 C   0  0  0  0  0  0  0  0  0  0  0  0
  -22.3180   -9.1130   20.3230 C   0  0  0  0  0  3  0  0  0  0  0  0
  -23.0360  -10.3080   20.1500 C   0  0  0  0  0  3  0  0  0  0  0  0
  -21.9710   -7.0200   21.3680 O   0  0  0  0  0  0  0  0  0  0  0  0
  -21.8090   -6.3460   22.5520 C   0  0  0  0  0  0  0  0  0  0  0  0
  -21.2010   -6.9500   23.6740 C   0  0  0  0  0  3  0  0  0  0  0  0
  -20.9910   -6.1990   24.8490 C   0  0  0  0  0  3  0  0  0  0  0  0
  -21.3800   -4.8480   24.9010 C   0  0  0  0  0  0  0  0  0  0  0  0
  -21.9810   -4.2440   23.7820 C   0  0  0  0  0  3  0  0  0  0  0  0
  -22.1920   -4.9920   22.6100 C   0  0  0  0  0  0  0  0  0  0  0  0
  -22.7520   -4.3990   21.5280 F   0  0  0  0  0  0  0  0  0  0  0  0
  -21.1720   -4.1250   26.0250 F   0  0  0  0  0  0  0  0  0  0  0  0
  -23.0360  -13.6710   21.2280 C   0  0  0  0  0  0  0  0  0  0  0  0
  -22.3540  -12.9480   22.1090 N   0  0  0  0  0  0  0  0  0  0  0  0
  -22.5700  -14.7090   20.7590 O   0  0  0  0  0  0  0  0  0  0  0  0
  -22.7480  -12.1100   22.5130 H   0  0  0  0  0  0  0  0  0  0  0  0
  -21.4280  -13.2350   22.3880 H   0  0  0  0  0  0  0  0  0  0  0  0
  -25.6080  -15.3700   20.3220 N   0  0  0  0  0  0  0  0  0  0  0  0
  -24.8240  -15.9990   20.4640 H   0  0  0  0  0  0  0  0  0  0  0  0
  -26.3790  -15.8070   19.8380 H   0  0  0  0  0  0  0  0  0  0  0  0
  -28.2400  -26.2880   20.0200 O   0  0  0  0  0  0  0  0  0  0  0  0
  -24.6070  -31.8790   23.1510 C   0  0  0  0  0  0  0  0  0  0  0  0
  -27.2040  -27.2940   19.9830 C   0  0  0  0  0  0  0  0  0  0  0  0
  -23.4160  -30.5380   21.4580 C   0  0  0  0  0  3  0  0  0  0  0  0
  -24.8770  -29.0300   19.9740 C   0  0  0  0  0  0  0  0  0  0  0  0
  -25.9670  -30.8240   21.3100 C   0  0  0  0  0  2  0  0  0  0  0  0
  -26.0490  -29.4580   20.6130 C   0  0  0  0  0  0  0  0  0  0  0  0
  -27.2160  -28.6030   20.6060 C   0  0  0  0  0  3  0  0  0  0  0  0
  -26.0210  -26.9790   19.2810 C   0  0  0  0  0  3  0  0  0  0  0  0
  -24.8760  -27.8040   19.2890 C   0  0  0  0  0  3  0  0  0  0  0  0
  -23.6450  -29.9170   20.0530 C   0  0  0  0  0  2  0  0  0  0  0  0
  -24.6830  -31.1000   22.0300 N   0  0  0  0  0  0  0  0  0  0  0  0
  -23.5180  -32.1360   23.6890 O   0  0  0  0  0  0  0  0  0  0  0  0
  -22.7420  -29.4910   22.3780 C   0  0  0  0  0  0  0  0  0  0  0  0
  -21.4120  -29.3360   22.2540 N   0  0  0  0  0  0  0  0  0  0  0  0
  -23.4170  -28.8250   23.1670 O   0  0  0  0  0  0  0  0  0  0  0  0
  -20.9290  -29.9240   21.5900 H   0  0  0  0  0  0  0  0  0  0  0  0
  -18.0170  -28.1920   22.8000 C   0  0  0  0  0  0  0  0  0  0  0  0
  -20.5890  -28.3680   22.9880 C   0  0  0  0  0  3  0  0  0  0  0  0
  -20.6290  -26.9770   22.3140 C   0  0  0  0  0  2  0  0  0  0  0  0
  -19.4830  -26.7550   21.3210 C   0  0  0  0  0  2  0  0  0  0  0  0
  -18.1300  -26.8890   22.0240 C   0  0  0  0  0  2  0  0  0  0  0  0
  -19.1710  -28.8930   23.2390 C   0  0  0  0  0  0  0  0  0  0  0  0
  -19.0110  -30.1120   23.9310 C   0  0  0  0  0  3  0  0  0  0  0  0
  -17.7270  -30.6350   24.1800 C   0  0  0  0  0  3  0  0  0  0  0  0
  -16.5870  -29.9290   23.7560 C   0  0  0  0  0  3  0  0  0  0  0  0
  -16.7330  -28.7080   23.0750 C   0  0  0  0  0  3  0  0  0  0  0  0
  -25.8800  -32.4950   23.8050 C   0  0  0  0  0  3  0  0  0  0  0  0
  -25.5700  -33.8870   24.1660 N   0  0  0  0  0  0  0  0  0  0  0  0
  -25.8720  -34.9580   23.4180 C   0  0  0  0  0  0  0  0  0  0  0  0
  -26.5110  -34.8770   22.3660 O   0  0  0  0  0  0  0  0  0  0  0  0
  -24.9910  -34.0220   24.9810 H   0  0  0  0  0  0  0  0  0  0  0  0
  -24.1060  -36.7340   23.1760 C   0  0  0  0  0  1  0  0  0  0  0  0
  -25.3940  -36.3360   23.9170 C   0  0  0  0  0  3  0  0  0  0  0  0
  -27.5510  -37.2440   24.6570 C   0  0  0  0  0  1  0  0  0  0  0  0
  -26.4070  -37.4030   23.7620 N   0  0  0  0  0  0  0  0  0  0  0  0
  -25.9990  -38.3170   23.9300 H   0  0  0  0  0  0  0  0  0  0  0  0
  -26.3730  -31.6950   25.0740 C   0  0  1  0  0  0  0  0  0  0  0  0
  -25.2620  -31.4400   26.1200 C   0  0  0  0  0  1  0  0  0  0  0  0
  -26.9580  -30.3210   24.6700 C   0  0  0  0  0  1  0  0  0  0  0  0
  -27.5140  -32.4710   25.7720 C   0  0  0  0  0  1  0  0  0  0  0  0
  1  4  2  0
  1  3  1  0
  2  5  1  0
  3  2  2  0
  4  6  1  0
  6  5  1  0
  7 10  1  0
  8  7  2  0
  8 12  1  0
  9 11  1  0
 10 11  2  0
 10  3  1  0
 11 13  1  0
 12 22  1  0
 12  9  2  0
 14 22  1  0
 15 20  1  0
 16 17  1  0
 16 15  1  0
 18 17  1  0
 18 27  1  0
 18 19  1  0
 20 14  1  0
 20 19  1  0
 21 14  2  0
 22 23  1  0
 24 25  2  0
 25 44  1  0
 26 25  1  0
 26 29  1  0
 27 28  1  0
 27 24  1  0
 28 26  2  0
 29 30  1  0
 30 31  2  0
 32 35  1  0
 32 31  1  0
 33 32  2  0
 34 33  1  0
 34 29  2  0
 35 36  1  0
 36 41  2  0
 36 37  1  0
 37 38  2  0
 38 39  1  0
 39 43  1  0
 40 39  2  0
 41 40  1  0
 42 41  1  0
 44 45  1  0
 45 48  1  0
 45 47  1  0
 46 44  2  0
 49 50  1  0
 49 24  1  0
 51 49  1  0
 52  4  1  0
 53 64  2  0
 54 52  1  0
 54 59  1  0
 55 63  1  0
 55 65  1  0
 56 62  1  0
 56 58  1  0
 57 63  1  0
 58 57  1  0
 59 58  2  0
 60 61  1  0
 60 54  2  0
 61 56  2  0
 62 55  1  0
 63 53  1  0
 65 67  2  0
 66 65  1  0
 68 66  1  0
 69 78  2  0
 69 74  1  0
 70 66  1  0
 70 74  1  0
 71 70  1  0
 72 73  1  0
 72 71  1  0
 73 69  1  0
 74 75  2  0
 75 76  1  0
 77 76  2  0
 78 77  1  0
 79 53  1  0
 79 80  1  0
 79 89  1  0
 80 83  1  0
 81 85  1  0
 81 80  1  0
 82 81  2  0
 85 84  1  0
 87 85  1  0
 87 88  1  0
 87 86  1  0
 89 92  1  1
 89 90  1  0
 91 89  1  0
M  ISO  4   4 101  14 100  22 100  52 101
M  END
>  <TORSDO>  (43) 
F 17

>  <SCORE>  (43) 
-14.670

>  <name>  (43) 
42

>  <ligand_id>  (43) 
42

>  <original_smiles>  (43) 
[H]C1=C(Oc2c([H])c([H])c3c(c2[H])C([H])([H])N(C(=O)C([H])(N([H])C(=O)C([H])(N([H])C([H])([H])[H])C([H])([H])[H])C(C([H])([H])[H])(C([H])([H])[H])C([H])([H])[H])C([H])(C(=O)N([H])C2([H])c4c([H])c([H])c([H])c([H])c4C([H])([H])C([H])([H])C2([H])[H])C3([H])[H])C([H])([H])C([H])([H])C([H])=C1c1c([H])c([H])c(N([H])C(=O)N2C([H])([H])C([H])([H])C([H])([H])C([H])(n3nc(-c4c([H])c([H])c(Oc5c([H])c([H])c(F)c([H])c5F)c([H])c4[H])c(C(=O)N([H])[H])c3N([H])[H])C2([H])[H])c([H])c1C([H])([H])[H]

>  <smiles>  (43) 
[H]C1=C(Oc2c([H])c([H])c3c(c2[H])C([H])([H])N(C(=O)C([H])(N([H])C(=O)C([H])(N([H])C([H])([H])[H])C([H])([H])[H])C(C([H])([H])[H])(C([H])([H])[H])C([H])([H])[H])C([H])(C(=O)N([H])C2([H])c4c([H])c([H])c([H])c([H])c4C([H])([H])C([H])([H])C2([H])[H])C3([H])[H])C([H])([H])C([H])([H])C([H])=C1c1c([H])c([H])c(N([H])C(=O)N2C([H])([H])C([H])([H])C([H])([H])C([H])(n3nc(-c4c([H])c([H])c(Oc5c([H])c([H])c(F)c([H])c5F)c([H])c4[H])c(C(=O)N([H])[H])c3N([H])[H])C2([H])[H])c([H])c1C([H])([H])[H]

$$$$
43:0:0
     RDKit          3D

 93102  0  0  1  0  0  0  0  0999 V2000
  -28.7310  -23.4720   20.0510 C   0  0  0  0  0  0  0  0  0  0  0  0
  -26.5160  -23.8600   19.4710 C   0  0  0  0  0  2  0  0  0  0  0  0
  -26.8050  -22.3430   19.7900 C   0  0  0  0  0  2  0  0  0  0  0  0
  -27.5990  -24.6810   20.1910 C   0  0  0  0  0  3  0  0  0  0  0  0
  -28.2560  -22.1280   19.9500 N   0  0  0  0  0  0  0  0  0  0  0  0
  -29.9340  -23.7500   20.0350 O   0  0  0  0  0  0  0  0  0  0  0  0
  -27.8310  -26.2500   19.9340 O   0  0  0  0  0  0  0  0  0  0  0  0
  -24.3190  -31.9690   23.2540 C   0  0  0  0  0  0  0  0  0  0  0  0
  -26.7930  -27.2820   20.0070 C   0  0  0  0  0  0  0  0  0  0  0  0
  -23.0740  -30.6160   21.6160 C   0  0  0  0  0  3  0  0  0  0  0  0
  -24.4780  -29.0820   20.1020 C   0  0  0  0  0  0  0  0  0  0  0  0
  -25.6270  -30.8740   21.3820 C   0  0  0  0  0  2  0  0  0  0  0  0
  -25.6810  -29.4930   20.6900 C   0  0  0  0  0  0  0  0  0  0  0  0
  -26.8390  -28.6120   20.6220 C   0  0  0  0  0  3  0  0  0  0  0  0
  -25.5640  -27.0080   19.3720 C   0  0  0  0  0  3  0  0  0  0  0  0
  -24.4370  -27.8560   19.4260 C   0  0  0  0  0  3  0  0  0  0  0  0
  -23.2560  -29.9830   20.2120 C   0  0  0  0  0  2  0  0  0  0  0  0
  -24.3630  -31.1760   22.1380 N   0  0  0  0  0  0  0  0  0  0  0  0
  -23.2490  -32.2330   23.8230 O   0  0  0  0  0  0  0  0  0  0  0  0
  -22.4280  -29.5800   22.5720 C   0  0  0  0  0  0  0  0  0  0  0  0
  -21.1060  -29.3580   22.4410 N   0  0  0  0  0  0  0  0  0  0  0  0
  -23.1170  -28.9770   23.3980 O   0  0  0  0  0  0  0  0  0  0  0  0
  -20.6020  -29.8990   21.7520 H   0  0  0  0  0  0  0  0  0  0  0  0
  -17.7800  -27.9920   22.9040 C   0  0  0  0  0  0  0  0  0  0  0  0
  -20.3200  -28.3840   23.2040 C   0  0  0  0  0  3  0  0  0  0  0  0
  -20.5000  -26.9570   22.6360 C   0  0  0  0  0  2  0  0  0  0  0  0
  -19.4290  -26.5750   21.6110 C   0  0  0  0  0  2  0  0  0  0  0  0
  -18.0330  -26.6530   22.2340 C   0  0  0  0  0  2  0  0  0  0  0  0
  -18.8530  -28.8110   23.3460 C   0  0  0  0  0  0  0  0  0  0  0  0
  -18.5620  -30.0620   23.9330 C   0  0  0  0  0  3  0  0  0  0  0  0
  -17.2310  -30.4940   24.0850 C   0  0  0  0  0  3  0  0  0  0  0  0
  -16.1730  -29.6730   23.6590 C   0  0  0  0  0  3  0  0  0  0  0  0
  -16.4480  -28.4240   23.0740 C   0  0  0  0  0  3  0  0  0  0  0  0
  -25.6110  -32.5980   23.8590 C   0  0  0  0  0  3  0  0  0  0  0  0
  -25.3130  -33.9990   24.2020 N   0  0  0  0  0  0  0  0  0  0  0  0
  -25.6080  -35.0540   23.4320 C   0  0  0  0  0  0  0  0  0  0  0  0
  -26.2270  -34.9530   22.3700 O   0  0  0  0  0  0  0  0  0  0  0  0
  -24.7620  -34.1520   25.0330 H   0  0  0  0  0  0  0  0  0  0  0  0
  -23.8540  -36.8440   23.1910 C   0  0  0  0  0  1  0  0  0  0  0  0
  -25.1480  -36.4440   23.9180 C   0  0  0  0  0  3  0  0  0  0  0  0
  -27.3220  -37.3490   24.6130 C   0  0  0  0  0  1  0  0  0  0  0  0
  -26.1650  -37.5010   23.7340 N   0  0  0  0  0  0  0  0  0  0  0  0
  -25.7620  -38.4210   23.8970 H   0  0  0  0  0  0  0  0  0  0  0  0
  -26.1370  -31.8260   25.1320 C   0  0  1  0  0  0  0  0  0  0  0  0
  -25.0530  -31.5930   26.2110 C   0  0  0  0  0  1  0  0  0  0  0  0
  -26.7140  -30.4480   24.7400 C   0  0  0  0  0  1  0  0  0  0  0  0
  -27.2960  -32.6180   25.7830 C   0  0  0  0  0  1  0  0  0  0  0  0
  -28.8110  -20.6070   19.6680 C   0  0  0  0  0  2  0  0  0  0  0  0
  -30.0370  -20.3270   21.7510 C   0  0  0  0  0  3  0  0  0  0  0  0
  -30.7930  -19.8640   22.8280 C   0  0  0  0  0  3  0  0  0  0  0  0
  -30.5370  -17.6160   21.9980 C   0  0  0  0  0  3  0  0  0  0  0  0
  -29.4930  -19.5090   20.7260 C   0  0  0  0  0  0  0  0  0  0  0  0
  -29.7580  -17.9730   20.8550 C   0  0  0  0  0  0  0  0  0  0  0  0
  -31.0480  -18.5060   22.9480 C   0  0  0  0  0  0  0  0  0  0  0  0
  -31.9820  -17.9200   24.2750 Cl  0  0  0  0  0  0  0  0  0  0  0  0
  -30.1040  -15.3730   19.9670 C   0  0  0  0  0  0  0  0  0  0  0  0
  -30.0140  -13.0410   18.9040 C   0  0  0  0  0  2  0  0  0  0  0  0
  -29.0000  -12.9300   17.7440 C   0  0  0  0  0  2  0  0  0  0  0  0
  -27.5960  -12.6020   18.2830 C   0  0  0  0  0  2  0  0  0  0  0  0
  -27.2190  -13.4730   19.5100 C   0  0  0  0  0  3  0  0  0  0  0  0
  -28.3530  -13.5560   20.5510 C   0  0  0  0  0  2  0  0  0  0  0  0
  -29.5220  -14.0990   19.8460 N   0  0  0  0  0  0  0  0  0  0  0  0
  -31.3030  -15.4170   19.6590 O   0  0  0  0  0  0  0  0  0  0  0  0
  -29.3620  -16.6160   20.1750 N   0  0  0  0  0  0  0  0  0  0  0  0
  -28.3690  -16.5040   20.0370 H   0  0  0  0  0  0  0  0  0  0  0  0
  -24.8780  -13.8840   20.4390 C   0  0  0  0  0  0  0  0  0  0  0  0
  -23.8870  -13.0370   20.8530 C   0  0  0  0  0  0  0  0  0  0  0  0
  -24.4250  -11.7180   20.7490 C   0  0  0  0  0  0  0  0  0  0  0  0
  -25.9480  -13.0760   20.0980 N   0  0  0  0  0  0  0  0  0  0  0  0
  -25.6920  -11.7660   20.3520 N   0  0  0  0  0  0  0  0  0  0  0  0
  -23.7840  -10.4100   20.9430 C   0  0  0  0  0  0  0  0  0  0  0  0
  -24.2780   -9.4780   21.8820 C   0  0  0  0  0  3  0  0  0  0  0  0
  -23.6300   -8.2360   22.0670 C   0  0  0  0  0  3  0  0  0  0  0  0
  -22.4760   -7.9190   21.3120 C   0  0  0  0  0  0  0  0  0  0  0  0
  -22.0040   -8.8400   20.3610 C   0  0  0  0  0  3  0  0  0  0  0  0
  -22.6520  -10.0720   20.1750 C   0  0  0  0  0  3  0  0  0  0  0  0
  -21.7970   -6.7280   21.4050 O   0  0  0  0  0  0  0  0  0  0  0  0
  -21.7490   -6.0170   22.5790 C   0  0  0  0  0  0  0  0  0  0  0  0
  -21.2110   -6.5690   23.7620 C   0  0  0  0  0  3  0  0  0  0  0  0
  -21.1180   -5.7800   24.9260 C   0  0  0  0  0  3  0  0  0  0  0  0
  -21.5510   -4.4400   24.9070 C   0  0  0  0  0  0  0  0  0  0  0  0
  -22.0810   -3.8880   23.7280 C   0  0  0  0  0  3  0  0  0  0  0  0
  -22.1760   -4.6750   22.5650 C   0  0  0  0  0  0  0  0  0  0  0  0
  -22.6680   -4.1310   21.4260 F   0  0  0  0  0  0  0  0  0  0  0  0
  -21.4540   -3.6800   26.0230 F   0  0  0  0  0  0  0  0  0  0  0  0
  -22.4870  -13.4240   21.2280 C   0  0  0  0  0  0  0  0  0  0  0  0
  -21.8630  -12.6680   22.1230 N   0  0  0  0  0  0  0  0  0  0  0  0
  -21.9570  -14.4320   20.7610 O   0  0  0  0  0  0  0  0  0  0  0  0
  -22.3100  -11.8550   22.5210 H   0  0  0  0  0  0  0  0  0  0  0  0
  -20.9260  -12.9050   22.4170 H   0  0  0  0  0  0  0  0  0  0  0  0
  -24.9510  -15.2670   20.2970 N   0  0  0  0  0  0  0  0  0  0  0  0
  -24.1580  -15.8700   20.4870 H   0  0  0  0  0  0  0  0  0  0  0  0
  -25.7460  -15.7660   19.9220 H   0  0  0  0  0  0  0  0  0  0  0  0
  1  4  1  0
  2  3  1  0
  2  4  1  0
  3  5  1  0
  4  7  1  0
  5  1  1  0
  6  1  2  0
  7  9  1  0
  8 19  2  0
  9 14  1  0
 10 18  1  0
 10 20  1  0
 11 17  1  0
 11 13  1  0
 12 18  1  0
 13 12  1  0
 14 13  2  0
 15 16  1  0
 15  9  2  0
 16 11  2  0
 17 10  1  0
 18  8  1  0
 20 22  2  0
 21 20  1  0
 23 21  1  0
 24 33  2  0
 24 29  1  0
 25 21  1  0
 25 29  1  0
 26 25  1  0
 27 28  1  0
 27 26  1  0
 28 24  1  0
 29 30  2  0
 30 31  1  0
 32 31  2  0
 33 32  1  0
 34  8  1  0
 34 35  1  0
 34 44  1  0
 35 38  1  0
 36 40  1  0
 36 35  1  0
 37 36  2  0
 40 39  1  0
 42 43  1  0
 42 40  1  0
 42 41  1  0
 44 47  1  1
 44 45  1  0
 46 44  1  0
 48  5  1  0
 48 52  1  0
 49 50  1  0
 50 54  2  0
 51 54  1  0
 52 53  1  0
 52 49  2  0
 53 51  2  0
 54 55  1  0
 56 64  1  0
 57 62  1  0
 58 59  1  0
 58 57  1  0
 60 59  1  0
 60 69  1  0
 60 61  1  0
 62 56  1  0
 62 61  1  0
 63 56  2  0
 64 53  1  0
 65 64  1  0
 66 67  2  0
 67 86  1  0
 68 67  1  0
 68 71  1  0
 69 70  1  0
 69 66  1  0
 70 68  2  0
 71 72  1  0
 72 73  2  0
 74 77  1  0
 74 73  1  0
 75 74  2  0
 76 75  1  0
 76 71  2  0
 77 78  1  0
 78 79  1  0
 79 80  2  0
 81 80  1  0
 81 85  1  0
 82 81  2  0
 83 78  2  0
 83 82  1  0
 84 83  1  0
 86 87  1  0
 87 90  1  0
 87 89  1  0
 88 86  2  0
 91 66  1  0
 91 92  1  0
 93 91  1  0
M  ISO  4   4 101   7 101  56 100  64 100
M  END
>  <TORSDO>  (44) 
F 18

>  <SCORE>  (44) 
-10.314

>  <name>  (44) 
43

>  <ligand_id>  (44) 
43

>  <original_smiles>  (44) 
[H]c1c([H])c([H])c2c(c1[H])C([H])([H])C([H])([H])C([H])([H])C2([H])N([H])C(=O)C1([H])N(C(=O)C([H])(N([H])C(=O)C([H])(N([H])C([H])([H])[H])C([H])([H])[H])C(C([H])([H])[H])(C([H])([H])[H])C([H])([H])[H])C([H])([H])c2c([H])c(OC3([H])C(=O)N(C([H])([H])c4c([H])c([H])c(Cl)c([H])c4N([H])C(=O)N4C([H])([H])C([H])([H])C([H])([H])C([H])(n5nc(-c6c([H])c([H])c(Oc7c([H])c([H])c(F)c([H])c7F)c([H])c6[H])c(C(=O)N([H])[H])c5N([H])[H])C4([H])[H])C([H])([H])C3([H])[H])c([H])c([H])c2C1([H])[H]

>  <smiles>  (44) 
[H]c1c([H])c([H])c2c(c1[H])C([H])([H])C([H])([H])C([H])([H])C2([H])N([H])C(=O)C1([H])N(C(=O)C([H])(N([H])C(=O)C([H])(N([H])C([H])([H])[H])C([H])([H])[H])C(C([H])([H])[H])(C([H])([H])[H])C([H])([H])[H])C([H])([H])c2c([H])c(OC3([H])C(=O)N(C([H])([H])c4c([H])c([H])c(Cl)c([H])c4N([H])C(=O)N4C([H])([H])C([H])([H])C([H])([H])C([H])(n5nc(-c6c([H])c([H])c(Oc7c([H])c([H])c(F)c([H])c7F)c([H])c6[H])c(C(=O)N([H])[H])c5N([H])[H])C4([H])[H])C([H])([H])C3([H])[H])c([H])c([H])c2C1([H])[H]

$$$$
44:0:0
     RDKit          3D

 97105  0  0  1  0  0  0  0  0999 V2000
  -30.8450  -21.5640   21.9080 C   0  0  0  0  0  0  0  0  0  0  0  0
  -31.3850  -22.2100   22.9460 N   0  0  0  0  0  4  0  0  0  0  0  0
  -29.7980  -22.1300   21.2850 N   0  0  0  0  0  0  0  0  0  0  0  0
  -32.1940  -21.8410   23.4230 H   0  0  0  0  0  0  0  0  0  0  0  0
  -30.9930  -23.0710   23.2870 H   0  0  0  0  0  0  0  0  0  0  0  0
  -29.3580  -21.5110   20.6090 H   0  0  0  0  0  0  0  0  0  0  0  0
  -32.7590  -20.0230   21.4040 C   0  0  0  0  0  3  0  0  0  0  0  0
  -32.3710  -17.7510   20.5980 C   0  0  0  0  0  3  0  0  0  0  0  0
  -31.3650  -20.2560   21.4580 C   0  0  0  0  0  0  0  0  0  0  0  0
  -30.9740  -17.9530   20.6460 C   0  0  0  0  0  0  0  0  0  0  0  0
  -33.2550  -18.7780   20.9730 C   0  0  0  0  0  0  0  0  0  0  0  0
  -30.4830  -19.2150   21.0680 C   0  0  0  0  0  0  0  0  0  0  0  0
  -34.5930  -18.5730   20.9060 F   0  0  0  0  0  0  0  0  0  0  0  0
  -29.1430  -19.4310   21.0610 F   0  0  0  0  0  0  0  0  0  0  0  0
  -29.9940  -16.8920   20.1320 C   0  0  0  0  0  2  0  0  0  0  0  0
  -30.7010  -14.5330   20.2320 C   0  0  0  0  0  0  0  0  0  0  0  0
  -30.3590  -12.3780   19.1180 C   0  0  0  0  0  2  0  0  0  0  0  0
  -29.4040  -12.6290   17.9330 C   0  0  0  0  0  2  0  0  0  0  0  0
  -27.9390  -12.4790   18.3850 C   0  0  0  0  0  2  0  0  0  0  0  0
  -27.6260  -13.2970   19.6680 C   0  0  0  0  0  3  0  0  0  0  0  0
  -28.7060  -13.0730   20.7570 C   0  0  0  0  0  2  0  0  0  0  0  0
  -30.0280  -13.3540   20.1670 N   0  0  0  0  0  0  0  0  0  0  0  0
  -31.7800  -14.7290   19.6730 O   0  0  0  0  0  0  0  0  0  0  0  0
  -30.0090  -15.5570   20.7470 N   0  0  0  0  0  0  0  0  0  0  0  0
  -29.1650  -15.2890   21.2310 H   0  0  0  0  0  0  0  0  0  0  0  0
  -25.2310  -13.8790   20.4040 C   0  0  0  0  0  0  0  0  0  0  0  0
  -24.1780  -13.0940   20.7910 C   0  0  0  0  0  0  0  0  0  0  0  0
  -24.6550  -11.7490   20.7560 C   0  0  0  0  0  0  0  0  0  0  0  0
  -26.2840  -13.0100   20.1660 N   0  0  0  0  0  0  0  0  0  0  0  0
  -25.9410  -11.7230   20.4310 N   0  0  0  0  0  0  0  0  0  0  0  0
  -23.9490  -10.4770   20.9610 C   0  0  0  0  0  0  0  0  0  0  0  0
  -24.3890   -9.5330   21.9130 C   0  0  0  0  0  3  0  0  0  0  0  0
  -23.6820   -8.3280   22.1100 C   0  0  0  0  0  3  0  0  0  0  0  0
  -22.5210   -8.0570   21.3490 C   0  0  0  0  0  0  0  0  0  0  0  0
  -22.0980   -8.9890   20.3840 C   0  0  0  0  0  3  0  0  0  0  0  0
  -22.8060  -10.1860   20.1890 C   0  0  0  0  0  3  0  0  0  0  0  0
  -21.7870   -6.9000   21.4510 O   0  0  0  0  0  0  0  0  0  0  0  0
  -21.7150   -6.1920   22.6240 C   0  0  0  0  0  0  0  0  0  0  0  0
  -21.2400   -6.7750   23.8180 C   0  0  0  0  0  3  0  0  0  0  0  0
  -21.1150   -5.9920   24.9830 C   0  0  0  0  0  3  0  0  0  0  0  0
  -21.4560   -4.6260   24.9540 C   0  0  0  0  0  0  0  0  0  0  0  0
  -21.9250   -4.0430   23.7640 C   0  0  0  0  0  3  0  0  0  0  0  0
  -22.0500   -4.8240   22.6000 C   0  0  0  0  0  0  0  0  0  0  0  0
  -22.4800   -4.2520   21.4500 F   0  0  0  0  0  0  0  0  0  0  0  0
  -21.3320   -3.8700   26.0690 F   0  0  0  0  0  0  0  0  0  0  0  0
  -22.7800  -13.5560   21.0890 C   0  0  0  0  0  0  0  0  0  0  0  0
  -22.0800  -12.8500   21.9700 N   0  0  0  0  0  0  0  0  0  0  0  0
  -22.3190  -14.5760   20.5780 O   0  0  0  0  0  0  0  0  0  0  0  0
  -22.4710  -12.0290   22.4060 H   0  0  0  0  0  0  0  0  0  0  0  0
  -21.1410  -13.1350   22.2110 H   0  0  0  0  0  0  0  0  0  0  0  0
  -25.3770  -15.2500   20.2180 N   0  0  0  0  0  0  0  0  0  0  0  0
  -24.6060  -15.9000   20.3340 H   0  0  0  0  0  0  0  0  0  0  0  0
  -26.2230  -15.6950   19.8870 H   0  0  0  0  0  0  0  0  0  0  0  0
  -28.9820  -23.3020   21.6670 C   0  0  0  0  0  2  0  0  0  0  0  0
  -29.3600  -24.6290   20.9700 C   0  0  0  0  0  2  0  0  0  0  0  0
  -28.1100  -25.5200   20.8160 C   0  0  0  0  0  2  0  0  0  0  0  0
  -28.3560  -26.8540   20.3470 O   0  0  0  0  0  0  0  0  0  0  0  0
  -24.5580  -32.0640   23.3550 C   0  0  0  0  0  0  0  0  0  0  0  0
  -27.2090  -27.6200   20.2940 C   0  0  0  0  0  0  0  0  0  0  0  0
  -23.3610  -30.6630   21.7090 C   0  0  0  0  0  3  0  0  0  0  0  0
  -24.8200  -29.1330   20.2880 C   0  0  0  0  0  0  0  0  0  0  0  0
  -25.8890  -31.0220   21.5230 C   0  0  0  0  0  2  0  0  0  0  0  0
  -25.9770  -29.6540   20.8800 C   0  0  0  0  0  0  0  0  0  0  0  0
  -27.1770  -28.9060   20.8810 C   0  0  0  0  0  3  0  0  0  0  0  0
  -26.0390  -27.1260   19.6730 C   0  0  0  0  0  3  0  0  0  0  0  0
  -24.8450  -27.8680   19.6800 C   0  0  0  0  0  3  0  0  0  0  0  0
  -23.5780  -29.9920   20.3270 C   0  0  0  0  0  2  0  0  0  0  0  0
  -24.6200  -31.2640   22.2540 N   0  0  0  0  0  0  0  0  0  0  0  0
  -23.4750  -32.3360   23.8890 O   0  0  0  0  0  0  0  0  0  0  0  0
  -22.7100  -29.6360   22.6660 C   0  0  0  0  0  0  0  0  0  0  0  0
  -21.3920  -29.4220   22.5100 N   0  0  0  0  0  0  0  0  0  0  0  0
  -23.3880  -29.0340   23.5030 O   0  0  0  0  0  0  0  0  0  0  0  0
  -20.9040  -29.9640   21.8110 H   0  0  0  0  0  0  0  0  0  0  0  0
  -18.0470  -28.1250   22.9100 C   0  0  0  0  0  0  0  0  0  0  0  0
  -20.5810  -28.4800   23.2790 C   0  0  0  0  0  3  0  0  0  0  0  0
  -20.7560  -27.0350   22.7570 C   0  0  0  0  0  2  0  0  0  0  0  0
  -19.7110  -26.6420   21.7100 C   0  0  0  0  0  2  0  0  0  0  0  0
  -18.2970  -26.7620   22.2880 C   0  0  0  0  0  2  0  0  0  0  0  0
  -19.1200  -28.9370   23.3640 C   0  0  0  0  0  0  0  0  0  0  0  0
  -18.8360  -30.2100   23.9030 C   0  0  0  0  0  3  0  0  0  0  0  0
  -17.5100  -30.6700   24.0010 C   0  0  0  0  0  3  0  0  0  0  0  0
  -16.4500  -29.8570   23.5670 C   0  0  0  0  0  3  0  0  0  0  0  0
  -16.7190  -28.5880   23.0250 C   0  0  0  0  0  3  0  0  0  0  0  0
  -25.8410  -32.7000   23.9740 C   0  0  0  0  0  3  0  0  0  0  0  0
  -25.5380  -34.1060   24.2710 N   0  0  0  0  0  0  0  0  0  0  0  0
  -25.8850  -35.1410   23.4940 C   0  0  0  0  0  0  0  0  0  0  0  0
  -26.5700  -35.0120   22.4750 O   0  0  0  0  0  0  0  0  0  0  0  0
  -24.9360  -34.2820   25.0620 H   0  0  0  0  0  0  0  0  0  0  0  0
  -24.1700  -36.9310   23.0820 C   0  0  0  0  0  1  0  0  0  0  0  0
  -25.3990  -36.5400   23.9170 C   0  0  0  0  0  3  0  0  0  0  0  0
  -27.5310  -37.4320   24.7460 C   0  0  0  0  0  1  0  0  0  0  0  0
  -26.4360  -37.5870   23.7910 N   0  0  0  0  0  0  0  0  0  0  0  0
  -26.0340  -38.5110   23.9210 H   0  0  0  0  0  0  0  0  0  0  0  0
  -26.3420  -31.9510   25.2700 C   0  0  1  0  0  0  0  0  0  0  0  0
  -25.2350  -31.7240   26.3250 C   0  0  0  0  0  1  0  0  0  0  0  0
  -26.9390  -30.5730   24.9010 C   0  0  0  0  0  1  0  0  0  0  0  0
  -27.4760  -32.7620   25.9400 C   0  0  0  0  0  1  0  0  0  0  0  0
  1  2  2  0
  2  5  1  0
  2  4  1  0
  3 54  1  0
  3  1  1  0
  6  3  1  0
  7  9  1  0
  8 10  2  0
  8 11  1  0
  9  1  1  0
 10 12  1  0
 11  7  2  0
 12  9  2  0
 13 11  1  0
 14 12  1  0
 15 10  1  0
 15 24  1  0
 16 24  1  0
 17 22  1  0
 18 19  1  0
 18 17  1  0
 20 19  1  0
 20 29  1  0
 20 21  1  0
 22 16  1  0
 22 21  1  0
 23 16  2  0
 24 25  1  0
 26 27  2  0
 27 46  1  0
 28 27  1  0
 28 31  1  0
 29 26  1  0
 29 30  1  0
 30 28  2  0
 31 32  1  0
 32 33  2  0
 34 37  1  0
 34 33  1  0
 35 34  2  0
 36 35  1  0
 36 31  2  0
 37 38  1  0
 38 39  1  0
 39 40  2  0
 41 40  1  0
 41 45  1  0
 42 41  2  0
 43 38  2  0
 43 42  1  0
 44 43  1  0
 46 47  1  0
 47 50  1  0
 47 49  1  0
 48 46  2  0
 51 52  1  0
 51 26  1  0
 53 51  1  0
 55 54  1  0
 56 55  1  0
 57 56  1  0
 58 69  2  0
 59 57  1  0
 59 64  1  0
 60 68  1  0
 60 70  1  0
 61 67  1  0
 61 63  1  0
 62 68  1  0
 63 64  2  0
 63 62  1  0
 65 66  1  0
 65 59  2  0
 66 61  2  0
 67 60  1  0
 68 58  1  0
 70 72  2  0
 71 70  1  0
 73 71  1  0
 74 83  2  0
 74 79  1  0
 75 71  1  0
 75 79  1  0
 76 75  1  0
 77 78  1  0
 77 76  1  0
 78 74  1  0
 79 80  2  0
 80 81  1  0
 82 81  2  0
 83 82  1  0
 84 58  1  0
 84 85  1  0
 84 94  1  0
 85 88  1  0
 86 90  1  0
 86 85  1  0
 87 86  2  0
 90 89  1  0
 92 90  1  0
 92 93  1  0
 92 91  1  0
 94 97  1  1
 94 95  1  0
 96 94  1  0
M  ISO  4  16 100  24 100  56 101  57 101
M  END
>  <TORSDO>  (45) 
F 21

>  <SCORE>  (45) 
-13.682

>  <name>  (45) 
44

>  <ligand_id>  (45) 
44

>  <original_smiles>  (45) 
[H]c1c([H])c([H])c2c(c1[H])C([H])([H])C([H])([H])C([H])([H])C2([H])N([H])C(=O)C1([H])N(C(=O)C([H])(N([H])C(=O)C([H])(N([H])C([H])([H])[H])C([H])([H])[H])C(C([H])([H])[H])(C([H])([H])[H])C([H])([H])[H])C([H])([H])c2c([H])c(OC([H])([H])C([H])([H])C([H])([H])[N+]([H])=C(c3c([H])c(F)c([H])c(C([H])([H])N([H])C(=O)N4C([H])([H])C([H])([H])C([H])([H])C([H])(n5nc(-c6c([H])c([H])c(Oc7c([H])c([H])c(F)c([H])c7F)c([H])c6[H])c(C(=O)N([H])[H])c5N([H])[H])C4([H])[H])c3F)N([H])[H])c([H])c([H])c2C1([H])[H]

>  <smiles>  (45) 
[H]c1c([H])c([H])c2c(c1[H])C([H])([H])C([H])([H])C([H])([H])C2([H])N([H])C(=O)C1([H])N(C(=O)C([H])(N([H])C(=O)C([H])(N([H])C([H])([H])[H])C([H])([H])[H])C(C([H])([H])[H])(C([H])([H])[H])C([H])([H])[H])C([H])([H])c2c([H])c(OC([H])([H])C([H])([H])C([H])([H])[N+]([H])=C(c3c([H])c(F)c([H])c(C([H])([H])N([H])C(=O)N4C([H])([H])C([H])([H])C([H])([H])C([H])(n5nc(-c6c([H])c([H])c(Oc7c([H])c([H])c(F)c([H])c7F)c([H])c6[H])c(C(=O)N([H])[H])c5N([H])[H])C4([H])[H])c3F)N([H])[H])c([H])c([H])c2C1([H])[H]

$$$$
45:0:0
     RDKit          3D

104114  0  0  1  0  0  0  0  0999 V2000
  -29.8530  -18.8390   18.4180 C   0  0  0  0  0  3  0  0  0  0  0  0
  -30.4670  -17.7220   19.0180 C   0  0  0  0  0  3  0  0  0  0  0  0
  -27.7150  -18.1230   19.3060 C   0  0  0  0  0  3  0  0  0  0  0  0
  -28.4650  -19.0510   18.5460 C   0  0  0  0  0  0  0  0  0  0  0  0
  -28.3250  -17.0110   19.9340 C   0  0  0  0  0  0  0  0  0  0  0  0
  -29.7200  -16.7770   19.7680 C   0  0  0  0  0  0  0  0  0  0  0  0
  -27.4440  -16.0800   20.7500 C   0  0  0  0  0  1  0  0  0  0  0  0
  -30.8600  -14.6420   19.5600 C   0  0  0  0  0  0  0  0  0  0  0  0
  -30.4210  -12.4560   18.4930 C   0  0  0  0  0  2  0  0  0  0  0  0
  -29.3540  -12.6010   17.3920 C   0  0  0  0  0  2  0  0  0  0  0  0
  -27.9340  -12.4800   17.9820 C   0  0  0  0  0  2  0  0  0  0  0  0
  -27.7290  -13.3640   19.2430 C   0  0  0  0  0  3  0  0  0  0  0  0
  -28.9030  -13.1720   20.2320 C   0  0  0  0  0  2  0  0  0  0  0  0
  -30.1490  -13.4800   19.5130 N   0  0  0  0  0  0  0  0  0  0  0  0
  -31.8860  -14.8100   18.8920 O   0  0  0  0  0  0  0  0  0  0  0  0
  -30.3770  -15.6320   20.3500 N   0  0  0  0  0  0  0  0  0  0  0  0
  -25.4430  -13.9980   20.2510 C   0  0  0  0  0  0  0  0  0  0  0  0
  -24.4100  -13.2380   20.7260 C   0  0  0  0  0  0  0  0  0  0  0  0
  -24.8180  -11.8800   20.5690 C   0  0  0  0  0  0  0  0  0  0  0  0
  -26.4320  -13.1040   19.8680 N   0  0  0  0  0  0  0  0  0  0  0  0
  -26.0600  -11.8200   20.1070 N   0  0  0  0  0  0  0  0  0  0  0  0
  -24.0740  -10.6310   20.7820 C   0  0  0  0  0  0  0  0  0  0  0  0
  -24.5350   -9.6370   21.6730 C   0  0  0  0  0  3  0  0  0  0  0  0
  -23.7910   -8.4560   21.8750 C   0  0  0  0  0  3  0  0  0  0  0  0
  -22.5710   -8.2600   21.1840 C   0  0  0  0  0  0  0  0  0  0  0  0
  -22.1300   -9.2400   20.2790 C   0  0  0  0  0  3  0  0  0  0  0  0
  -22.8750  -10.4150   20.0760 C   0  0  0  0  0  3  0  0  0  0  0  0
  -21.7920   -7.1330   21.3000 O   0  0  0  0  0  0  0  0  0  0  0  0
  -21.7290   -6.4190   22.4700 C   0  0  0  0  0  0  0  0  0  0  0  0
  -21.3020   -7.0080   23.6800 C   0  0  0  0  0  3  0  0  0  0  0  0
  -21.1860   -6.2200   24.8430 C   0  0  0  0  0  3  0  0  0  0  0  0
  -21.4850   -4.8450   24.7970 C   0  0  0  0  0  0  0  0  0  0  0  0
  -21.9040   -4.2570   23.5910 C   0  0  0  0  0  3  0  0  0  0  0  0
  -22.0230   -5.0410   22.4290 C   0  0  0  0  0  0  0  0  0  0  0  0
  -22.4070   -4.4630   21.2660 F   0  0  0  0  0  0  0  0  0  0  0  0
  -21.3650   -4.0880   25.9110 F   0  0  0  0  0  0  0  0  0  0  0  0
  -23.0770  -13.7420   21.2000 C   0  0  0  0  0  0  0  0  0  0  0  0
  -22.4490  -13.0280   22.1260 N   0  0  0  0  0  0  0  0  0  0  0  0
  -22.6080  -14.8000   20.7820 O   0  0  0  0  0  0  0  0  0  0  0  0
  -22.8500  -12.1720   22.4790 H   0  0  0  0  0  0  0  0  0  0  0  0
  -21.5580  -13.3380   22.4840 H   0  0  0  0  0  0  0  0  0  0  0  0
  -25.6080  -15.3700   20.0930 N   0  0  0  0  0  0  0  0  0  0  0  0
  -24.8740  -16.0250   20.3370 H   0  0  0  0  0  0  0  0  0  0  0  0
  -26.4280  -15.8110   19.6970 H   0  0  0  0  0  0  0  0  0  0  0  0
  -30.9710  -15.7600   21.6940 C   0  0  0  0  0  2  0  0  0  0  0  0
  -30.6840  -17.7390   23.2700 C   0  0  0  0  0  3  0  0  0  0  0  0
  -32.1250  -17.9990   21.3210 C   0  0  0  0  0  3  0  0  0  0  0  0
  -31.7880  -19.8710   22.8500 C   0  0  0  0  0  3  0  0  0  0  0  0
  -31.2710  -17.1950   22.1070 C   0  0  0  0  0  0  0  0  0  0  0  0
  -30.9330  -19.0740   23.6350 C   0  0  0  0  0  0  0  0  0  0  0  0
  -32.3860  -19.3310   21.6960 C   0  0  0  0  0  0  0  0  0  0  0  0
  -30.1780  -19.7330   25.0400 Cl  0  0  0  0  0  0  0  0  0  0  0  0
  -33.4370  -20.3050   20.7310 Cl  0  0  0  0  0  0  0  0  0  0  0  0
  -27.7590  -20.1440   17.7260 C   0  0  0  0  0  2  0  0  0  0  0  0
  -27.2940  -22.2520   19.1490 C   0  0  0  0  0  0  0  0  0  0  0  0
  -26.8980  -21.6300   20.2720 C   0  0  0  0  0  2  0  0  0  0  0  0
  -27.1270  -23.7370   18.8390 C   0  0  0  0  0  2  0  0  0  0  0  0
  -29.3240  -23.6210   17.5250 C   0  0  0  0  0  2  0  0  0  0  0  0
  -29.3900  -22.1070   17.8520 C   0  0  0  0  0  2  0  0  0  0  0  0
  -28.4640  -24.4510   18.5180 C   0  0  0  0  0  3  0  0  0  0  0  0
  -28.0130  -21.5890   18.0170 N   0  0  1  0  0  4  0  0  0  0  0  0
  -27.5750  -21.9740   17.1940 H   0  0  0  0  0  0  0  0  0  0  0  0
  -28.2490  -25.8940   17.9760 C   0  0  0  0  0  2  0  0  0  0  0  0
  -28.0740  -26.8810   18.9990 O   0  0  0  0  0  0  0  0  0  0  0  0
  -24.4960  -31.5470   22.9770 C   0  0  0  0  0  0  0  0  0  0  0  0
  -26.8720  -27.5460   19.1530 C   0  0  0  0  0  0  0  0  0  0  0  0
  -23.1430  -30.3110   21.3130 C   0  0  0  0  0  3  0  0  0  0  0  0
  -24.4650  -28.9780   19.5810 C   0  0  0  0  0  0  0  0  0  0  0  0
  -25.6340  -30.7410   20.9180 C   0  0  0  0  0  2  0  0  0  0  0  0
  -25.6660  -29.4540   20.1180 C   0  0  0  0  0  0  0  0  0  0  0  0
  -26.8670  -28.7370   19.9150 C   0  0  0  0  0  3  0  0  0  0  0  0
  -25.6510  -27.0840   18.6090 C   0  0  0  0  0  3  0  0  0  0  0  0
  -24.4510  -27.7910   18.8250 C   0  0  0  0  0  3  0  0  0  0  0  0
  -23.2180  -29.7920   19.8520 C   0  0  0  0  0  2  0  0  0  0  0  0
  -24.4450  -30.8770   21.7920 N   0  0  0  0  0  0  0  0  0  0  0  0
  -23.4710  -31.7360   23.6490 O   0  0  0  0  0  0  0  0  0  0  0  0
  -22.6060  -29.1740   22.2130 C   0  0  0  0  0  0  0  0  0  0  0  0
  -21.2870  -28.9290   22.1460 N   0  0  0  0  0  0  0  0  0  0  0  0
  -23.3680  -28.5180   22.9290 O   0  0  0  0  0  0  0  0  0  0  0  0
  -20.7270  -29.5200   21.5470 H   0  0  0  0  0  0  0  0  0  0  0  0
  -18.0300  -27.4460   22.6400 C   0  0  0  0  0  0  0  0  0  0  0  0
  -20.5680  -27.8850   22.8740 C   0  0  0  0  0  3  0  0  0  0  0  0
  -20.7640  -26.5040   22.2050 C   0  0  0  0  0  2  0  0  0  0  0  0
  -19.6640  -26.1590   21.1950 C   0  0  0  0  0  2  0  0  0  0  0  0
  -18.2930  -26.1560   21.8780 C   0  0  0  0  0  2  0  0  0  0  0  0
  -19.1000  -28.2650   23.0940 C   0  0  0  0  0  0  0  0  0  0  0  0
  -18.8000  -29.4700   23.7660 C   0  0  0  0  0  3  0  0  0  0  0  0
  -17.4660  -29.8570   23.9880 C   0  0  0  0  0  3  0  0  0  0  0  0
  -16.4120  -29.0350   23.5490 C   0  0  0  0  0  3  0  0  0  0  0  0
  -16.6960  -27.8310   22.8820 C   0  0  0  0  0  3  0  0  0  0  0  0
  -25.8300  -32.1330   23.5340 C   0  0  0  0  0  3  0  0  0  0  0  0
  -25.5550  -33.4990   23.9940 N   0  0  0  0  0  0  0  0  0  0  0  0
  -25.8770  -34.6100   23.3160 C   0  0  0  0  0  0  0  0  0  0  0  0
  -26.5050  -34.5900   22.2530 O   0  0  0  0  0  0  0  0  0  0  0  0
  -24.9820  -33.5910   24.8180 H   0  0  0  0  0  0  0  0  0  0  0  0
  -24.1740  -36.4560   23.1720 C   0  0  0  0  0  1  0  0  0  0  0  0
  -25.4250  -35.9550   23.9130 C   0  0  0  0  0  3  0  0  0  0  0  0
  -27.5930  -36.7200   24.7730 C   0  0  0  0  0  1  0  0  0  0  0  0
  -26.4740  -36.9990   23.8780 N   0  0  0  0  0  0  0  0  0  0  0  0
  -26.0870  -37.9060   24.1250 H   0  0  0  0  0  0  0  0  0  0  0  0
  -26.4590  -31.2640   24.6920 C   0  0  1  0  0  0  0  0  0  0  0  0
  -25.4650  -30.9390   25.8310 C   0  0  0  0  0  1  0  0  0  0  0  0
  -26.9970  -29.9210   24.1430 C   0  0  0  0  0  1  0  0  0  0  0  0
  -27.6690  -32.0060   25.3080 C   0  0  0  0  0  1  0  0  0  0  0  0
  1  4  2  0
  1  2  1  0
  2  6  2  0
  3  5  2  0
  4  3  1  0
  5  7  1  0
  6  5  1  0
  6 16  1  0
  8 16  1  0
  9 14  1  0
 10 11  1  0
 10  9  1  0
 12 11  1  0
 12 20  1  0
 12 13  1  0
 14  8  1  0
 14 13  1  0
 15  8  2  0
 16 45  1  0
 17 18  2  0
 18 37  1  0
 19 18  1  0
 19 22  1  0
 20 21  1  0
 20 17  1  0
 21 19  2  0
 22 23  1  0
 23 24  2  0
 25 28  1  0
 25 24  1  0
 26 25  2  0
 27 26  1  0
 27 22  2  0
 28 29  1  0
 29 30  1  0
 30 31  2  0
 32 31  1  0
 32 36  1  0
 33 32  2  0
 34 29  2  0
 34 33  1  0
 35 34  1  0
 37 38  1  0
 38 40  1  0
 38 41  1  0
 39 37  2  0
 42 17  1  0
 42 43  1  0
 44 42  1  0
 45 49  1  0
 46 50  1  0
 47 51  2  0
 47 49  1  0
 48 50  2  0
 49 46  2  0
 50 52  1  0
 51 48  1  0
 53 51  1  0
 54 61  1  0
 54  4  1  0
 55 56  2  0
 57 55  1  0
 58 59  1  0
 58 60  1  0
 59 61  1  0
 60 63  1  0
 60 57  1  0
 61 55  1  0
 61 62  1  6
 63 64  1  0
 64 66  1  0
 65 76  2  0
 66 71  1  0
 67 75  1  0
 67 77  1  0
 68 74  1  0
 68 70  1  0
 69 75  1  0
 70 69  1  0
 71 70  2  0
 72 73  1  0
 72 66  2  0
 73 68  2  0
 74 67  1  0
 75 65  1  0
 77 79  2  0
 78 77  1  0
 80 78  1  0
 81 90  2  0
 81 86  1  0
 82 78  1  0
 82 86  1  0
 83 82  1  0
 84 85  1  0
 84 83  1  0
 85 81  1  0
 86 87  2  0
 87 88  1  0
 89 88  2  0
 90 89  1  0
 91 65  1  0
 91 92  1  0
 91101  1  0
 92 95  1  0
 93 97  1  0
 93 92  1  0
 94 93  2  0
 97 96  1  0
 99 97  1  0
 99100  1  0
 99 98  1  0
101104  1  1
101102  1  0
103101  1  0
M  ISO  4   8 100  16 100  63 101  64 101
M  END
>  <TORSDO>  (46) 
F 21

>  <SCORE>  (46) 
-10.689

>  <name>  (46) 
45

>  <ligand_id>  (46) 
45

>  <original_smiles>  (46) 
[H]C([H])=C1C([H])([H])C([H])(C([H])([H])Oc2c([H])c([H])c3c(c2[H])C([H])([H])N(C(=O)C([H])(N([H])C(=O)C([H])(N([H])C([H])([H])[H])C([H])([H])[H])C(C([H])([H])[H])(C([H])([H])[H])C([H])([H])[H])C([H])(C(=O)N([H])C2([H])c4c([H])c([H])c([H])c([H])c4C([H])([H])C([H])([H])C2([H])[H])C3([H])[H])C([H])([H])C([H])([H])[N+]1([H])C([H])([H])c1c([H])c([H])c(N(C(=O)N2C([H])([H])C([H])([H])C([H])([H])C([H])(n3nc(-c4c([H])c([H])c(Oc5c([H])c([H])c(F)c([H])c5F)c([H])c4[H])c(C(=O)N([H])[H])c3N([H])[H])C2([H])[H])C([H])([H])c2c([H])c(Cl)c([H])c(Cl)c2[H])c(C([H])([H])[H])c1[H]

>  <smiles>  (46) 
[H]C([H])=C1C([H])([H])C([H])(C([H])([H])Oc2c([H])c([H])c3c(c2[H])C([H])([H])N(C(=O)C([H])(N([H])C(=O)C([H])(N([H])C([H])([H])[H])C([H])([H])[H])C(C([H])([H])[H])(C([H])([H])[H])C([H])([H])[H])C([H])(C(=O)N([H])C2([H])c4c([H])c([H])c([H])c([H])c4C([H])([H])C([H])([H])C2([H])[H])C3([H])[H])C([H])([H])C([H])([H])[N+]1([H])C([H])([H])c1c([H])c([H])c(N(C(=O)N2C([H])([H])C([H])([H])C([H])([H])C([H])(n3nc(-c4c([H])c([H])c(Oc5c([H])c([H])c(F)c([H])c5F)c([H])c4[H])c(C(=O)N([H])[H])c3N([H])[H])C2([H])[H])C([H])([H])c2c([H])c(Cl)c([H])c(Cl)c2[H])c(C([H])([H])[H])c1[H]

$$$$
46:0:0
     RDKit          3D

102111  0  0  1  0  0  0  0  0999 V2000
  -31.0490  -19.1540   21.4680 C   0  0  0  0  0  3  0  0  0  0  0  0
  -30.9150  -17.7590   21.3490 C   0  0  0  0  0  3  0  0  0  0  0  0
  -30.1710  -20.0590   20.8350 C   0  0  0  0  0  0  0  0  0  0  0  0
  -29.1380  -19.5900   19.9760 C   0  0  0  0  0  0  0  0  0  0  0  0
  -28.9620  -18.1240   19.9340 C   0  0  0  0  0  0  0  0  0  0  0  0
  -29.8580  -17.1780   20.6200 C   0  0  0  0  0  0  0  0  0  0  0  0
  -30.5460  -14.6200   20.9080 C   0  0  0  0  0  0  0  0  0  0  0  0
  -30.6090  -12.1800   20.3430 C   0  0  0  0  0  2  0  0  0  0  0  0
  -29.8450  -11.9270   19.0250 C   0  0  0  0  0  2  0  0  0  0  0  0
  -28.3400  -11.7190   19.2900 C   0  0  0  0  0  2  0  0  0  0  0  0
  -27.7470  -12.7950   20.2400 C   0  0  0  0  0  3  0  0  0  0  0  0
  -28.6460  -13.0270   21.4750 C   0  0  0  0  0  2  0  0  0  0  0  0
  -29.9910  -13.3600   20.9870 N   0  0  0  0  0  0  0  0  0  0  0  0
  -31.7670  -14.7410   20.7800 O   0  0  0  0  0  0  0  0  0  0  0  0
  -29.6830  -15.6900   20.7000 N   0  0  0  0  0  0  0  0  0  0  0  0
  -28.7310  -15.3900   20.5530 H   0  0  0  0  0  0  0  0  0  0  0  0
  -25.2920  -13.3640   20.7190 C   0  0  0  0  0  0  0  0  0  0  0  0
  -24.2040  -12.5850   20.9990 C   0  0  0  0  0  0  0  0  0  0  0  0
  -24.6840  -11.2420   21.0370 C   0  0  0  0  0  0  0  0  0  0  0  0
  -26.3670  -12.4960   20.6090 N   0  0  0  0  0  0  0  0  0  0  0  0
  -26.0000  -11.2140   20.8600 N   0  0  0  0  0  0  0  0  0  0  0  0
  -23.9520   -9.9770   21.1700 C   0  0  0  0  0  0  0  0  0  0  0  0
  -24.3440   -8.9920   22.1030 C   0  0  0  0  0  3  0  0  0  0  0  0
  -23.6120   -7.7930   22.2280 C   0  0  0  0  0  3  0  0  0  0  0  0
  -22.4720   -7.5710   21.4210 C   0  0  0  0  0  0  0  0  0  0  0  0
  -22.0970   -8.5450   20.4770 C   0  0  0  0  0  3  0  0  0  0  0  0
  -22.8320   -9.7360   20.3500 C   0  0  0  0  0  3  0  0  0  0  0  0
  -21.7140   -6.4260   21.4540 O   0  0  0  0  0  0  0  0  0  0  0  0
  -21.6280   -5.6540   22.5840 C   0  0  0  0  0  0  0  0  0  0  0  0
  -21.1340   -6.1700   23.8020 C   0  0  0  0  0  3  0  0  0  0  0  0
  -20.9960   -5.3240   24.9210 C   0  0  0  0  0  3  0  0  0  0  0  0
  -21.3420   -3.9630   24.8210 C   0  0  0  0  0  0  0  0  0  0  0  0
  -21.8310   -3.4460   23.6080 C   0  0  0  0  0  3  0  0  0  0  0  0
  -21.9690   -4.2900   22.4920 C   0  0  0  0  0  0  0  0  0  0  0  0
  -22.4190   -3.7820   21.3180 F   0  0  0  0  0  0  0  0  0  0  0  0
  -21.2020   -3.1480   25.8930 F   0  0  0  0  0  0  0  0  0  0  0  0
  -22.7850  -13.0560   21.1220 C   0  0  0  0  0  0  0  0  0  0  0  0
  -21.9820  -12.3700   21.9280 N   0  0  0  0  0  0  0  0  0  0  0  0
  -22.3930  -14.0700   20.5440 O   0  0  0  0  0  0  0  0  0  0  0  0
  -22.3110  -11.5530   22.4190 H   0  0  0  0  0  0  0  0  0  0  0  0
  -21.0250  -12.6690   22.0570 H   0  0  0  0  0  0  0  0  0  0  0  0
  -25.4400  -14.7290   20.5240 N   0  0  0  0  0  0  0  0  0  0  0  0
  -24.6360  -15.3440   20.4660 H   0  0  0  0  0  0  0  0  0  0  0  0
  -26.3000  -15.1890   20.2420 H   0  0  0  0  0  0  0  0  0  0  0  0
  -29.7510  -21.8570   22.3630 C   0  0  0  0  0  3  0  0  0  0  0  0
  -30.3680  -21.4750   21.2250 C   0  0  0  0  0  0  0  0  0  0  0  0
  -29.9590  -23.1140   23.1930 C   0  0  0  0  0  2  0  0  0  0  0  0
  -31.4420  -22.2990   20.5220 C   0  0  0  0  0  2  0  0  0  0  0  0
  -29.8970  -24.4350   22.4220 C   0  0  0  0  0  2  0  0  0  0  0  0
  -31.1590  -23.7990   20.2850 C   0  0  0  0  0  2  0  0  0  0  0  0
  -31.1140  -24.6920   21.5300 C   0  0  0  0  0  2  0  0  0  0  0  0
  -27.7540  -17.5740   19.1590 C   0  0  1  0  0  0  0  0  0  0  0  0
  -27.9310  -17.7430   17.8490 F   0  0  0  0  0  0  0  0  0  0  0  0
  -27.5480  -16.2770   19.3720 F   0  0  0  0  0  0  0  0  0  0  0  0
  -26.6320  -18.1920   19.5300 F   0  0  0  0  0  0  0  0  0  0  0  0
  -28.1460  -20.6330   19.2560 C   0  0  0  0  0  2  0  0  0  0  0  0
  -27.7040  -23.2430   19.2020 C   0  0  0  0  0  0  0  0  0  0  0  0
  -28.4630  -22.1030   18.9630 N   0  0  0  0  0  0  0  0  0  0  0  0
  -26.7500  -23.1970   19.9830 O   0  0  0  0  0  0  0  0  0  0  0  0
  -29.2460  -22.2440   18.3390 H   0  0  0  0  0  0  0  0  0  0  0  0
  -27.9760  -24.6200   18.4210 C   0  0  0  0  0  2  0  0  0  0  0  0
  -28.0110  -25.9130   19.1840 O   0  0  0  0  0  0  0  0  0  0  0  0
  -24.7940  -31.1910   22.9620 C   0  0  0  0  0  0  0  0  0  0  0  0
  -26.9560  -26.8500   19.2480 C   0  0  0  0  0  0  0  0  0  0  0  0
  -23.4490  -30.1160   21.1960 C   0  0  0  0  0  3  0  0  0  0  0  0
  -24.7390  -28.6590   19.5260 C   0  0  0  0  0  0  0  0  0  0  0  0
  -26.0060  -30.2400   20.9840 C   0  0  0  0  0  2  0  0  0  0  0  0
  -25.9560  -28.9610   20.1500 C   0  0  0  0  0  0  0  0  0  0  0  0
  -27.0610  -28.0650   20.0050 C   0  0  0  0  0  3  0  0  0  0  0  0
  -25.7170  -26.6100   18.6160 C   0  0  0  0  0  3  0  0  0  0  0  0
  -24.6250  -27.4910   18.7560 C   0  0  0  0  0  3  0  0  0  0  0  0
  -23.5810  -29.6200   19.7300 C   0  0  0  0  0  2  0  0  0  0  0  0
  -24.7700  -30.5270   21.7680 N   0  0  0  0  0  0  0  0  0  0  0  0
  -23.7480  -31.4750   23.5630 O   0  0  0  0  0  0  0  0  0  0  0  0
  -22.7290  -29.0340   22.0360 C   0  0  0  0  0  0  0  0  0  0  0  0
  -21.3860  -29.0000   21.9700 N   0  0  0  0  0  0  0  0  0  0  0  0
  -23.3770  -28.2310   22.7130 O   0  0  0  0  0  0  0  0  0  0  0  0
  -20.9220  -29.6970   21.4040 H   0  0  0  0  0  0  0  0  0  0  0  0
  -17.9350  -28.0620   22.5120 C   0  0  0  0  0  0  0  0  0  0  0  0
  -20.5170  -28.0360   22.6480 C   0  0  0  0  0  3  0  0  0  0  0  0
  -20.4430  -26.7030   21.8670 C   0  0  0  0  0  2  0  0  0  0  0  0
  -19.2650  -26.6410   20.8920 C   0  0  0  0  0  2  0  0  0  0  0  0
  -17.9390  -26.8210   21.6360 C   0  0  0  0  0  2  0  0  0  0  0  0
  -19.1470  -28.6420   22.9760 C   0  0  0  0  0  0  0  0  0  0  0  0
  -19.0890  -29.8160   23.7590 C   0  0  0  0  0  3  0  0  0  0  0  0
  -17.8520  -30.4070   24.0790 C   0  0  0  0  0  3  0  0  0  0  0  0
  -16.6560  -29.8190   23.6330 C   0  0  0  0  0  3  0  0  0  0  0  0
  -16.6980  -28.6470   22.8570 C   0  0  0  0  0  3  0  0  0  0  0  0
  -26.1370  -31.6450   23.6160 C   0  0  0  0  0  3  0  0  0  0  0  0
  -25.9270  -32.9790   24.1950 N   0  0  0  0  0  0  0  0  0  0  0  0
  -26.3330  -34.1270   23.6370 C   0  0  0  0  0  0  0  0  0  0  0  0
  -26.9970  -34.1660   22.5970 O   0  0  0  0  0  0  0  0  0  0  0  0
  -25.3540  -33.0290   25.0250 H   0  0  0  0  0  0  0  0  0  0  0  0
  -24.7540  -36.0820   23.6140 C   0  0  0  0  0  1  0  0  0  0  0  0
  -25.9430  -35.4380   24.3420 C   0  0  0  0  0  3  0  0  0  0  0  0
  -28.1190  -35.9860   25.3410 C   0  0  0  0  0  1  0  0  0  0  0  0
  -27.0520  -36.4110   24.4390 N   0  0  0  0  0  0  0  0  0  0  0  0
  -26.7110  -37.3130   24.7590 H   0  0  0  0  0  0  0  0  0  0  0  0
  -26.6650  -30.6430   24.7160 C   0  0  1  0  0  0  0  0  0  0  0  0
  -25.6090  -30.2880   25.7900 C   0  0  0  0  0  1  0  0  0  0  0  0
  -27.1470  -29.3200   24.0770 C   0  0  0  0  0  1  0  0  0  0  0  0
  -27.8930  -31.2530   25.4350 C   0  0  0  0  0  1  0  0  0  0  0  0
  2  1  1  0
  3 46  1  0
  3  1  2  0
  4  3  1  0
  5  4  2  0
  5  6  1  0
  6 15  1  0
  6  2  2  0
  7 13  1  0
  8 13  1  0
  9 10  1  0
  9  8  1  0
 11 10  1  0
 11 20  1  0
 11 12  1  0
 13 12  1  0
 14  7  2  0
 15  7  1  0
 16 15  1  0
 17 18  2  0
 18 19  1  0
 18 37  1  0
 19 22  1  0
 20 17  1  0
 20 21  1  0
 21 19  2  0
 22 23  1  0
 23 24  2  0
 25 28  1  0
 25 24  1  0
 26 25  2  0
 27 26  1  0
 27 22  2  0
 28 29  1  0
 29 30  1  0
 30 31  2  0
 32 31  1  0
 32 36  1  0
 33 32  2  0
 34 29  2  0
 34 33  1  0
 35 34  1  0
 37 38  1  0
 38 41  1  0
 38 40  1  0
 39 37  2  0
 42 17  1  0
 43 42  1  0
 44 42  1  0
 45 47  1  0
 46 45  2  0
 48 46  1  0
 49 47  1  0
 50 48  1  0
 50 51  1  0
 51 49  1  0
 52 54  1  6
 52 55  1  0
 52  5  1  0
 53 52  1  0
 56  4  1  0
 57 59  2  0
 58 57  1  0
 58 56  1  0
 60 58  1  0
 61 62  1  0
 61 57  1  0
 62 64  1  0
 63 74  2  0
 64 69  1  0
 65 73  1  0
 65 75  1  0
 66 72  1  0
 66 68  1  0
 67 73  1  0
 68 67  1  0
 69 68  2  0
 70 71  1  0
 70 64  2  0
 71 66  2  0
 72 65  1  0
 73 63  1  0
 75 77  2  0
 76 75  1  0
 78 76  1  0
 79 88  2  0
 79 84  1  0
 80 76  1  0
 80 84  1  0
 81 80  1  0
 82 83  1  0
 82 81  1  0
 83 79  1  0
 84 85  2  0
 85 86  1  0
 87 86  2  0
 88 87  1  0
 89 63  1  0
 89 90  1  0
 89 99  1  0
 90 93  1  0
 91 90  1  0
 91 95  1  0
 92 91  2  0
 95 94  1  0
 95 97  1  0
 97 98  1  0
 97 96  1  0
 99102  1  1
 99100  1  0
101 99  1  0
M  ISO  4   7 100  15 100  61 101  62 101
M  END
>  <TORSDO>  (47) 
F 21

>  <SCORE>  (47) 
-12.411

>  <name>  (47) 
46

>  <ligand_id>  (47) 
46

>  <original_smiles>  (47) 
[H]C1=C(c2c([H])c([H])c(N([H])C(=O)N3C([H])([H])C([H])([H])C([H])([H])C([H])(n4nc(-c5c([H])c([H])c(Oc6c([H])c([H])c(F)c([H])c6F)c([H])c5[H])c(C(=O)N([H])[H])c4N([H])[H])C3([H])[H])c(C(F)(F)F)c2C([H])([H])N([H])C(=O)C([H])([H])Oc2c([H])c([H])c3c(c2[H])C([H])([H])N(C(=O)C([H])(N([H])C(=O)C([H])(N([H])C([H])([H])[H])C([H])([H])[H])C(C([H])([H])[H])(C([H])([H])[H])C([H])([H])[H])C([H])(C(=O)N([H])C2([H])c4c([H])c([H])c([H])c([H])c4C([H])([H])C([H])([H])C2([H])[H])C3([H])[H])C([H])([H])C([H])([H])C([H])([H])C([H])([H])C1([H])[H]

>  <smiles>  (47) 
[H]C1=C(c2c([H])c([H])c(N([H])C(=O)N3C([H])([H])C([H])([H])C([H])([H])C([H])(n4nc(-c5c([H])c([H])c(Oc6c([H])c([H])c(F)c([H])c6F)c([H])c5[H])c(C(=O)N([H])[H])c4N([H])[H])C3([H])[H])c(C(F)(F)F)c2C([H])([H])N([H])C(=O)C([H])([H])Oc2c([H])c([H])c3c(c2[H])C([H])([H])N(C(=O)C([H])(N([H])C(=O)C([H])(N([H])C([H])([H])[H])C([H])([H])[H])C(C([H])([H])[H])(C([H])([H])[H])C([H])([H])[H])C([H])(C(=O)N([H])C2([H])c4c([H])c([H])c([H])c([H])c4C([H])([H])C([H])([H])C2([H])[H])C3([H])[H])C([H])([H])C([H])([H])C([H])([H])C([H])([H])C1([H])[H]

$$$$
47:0:0
     RDKit          3D

 96105  0  0  1  0  0  0  0  0999 V2000
  -28.1360  -19.4490   20.2870 C   0  0  0  0  0  3  0  0  0  0  0  0
  -28.3140  -18.0260   20.3540 C   0  0  0  0  0  3  0  0  0  0  0  0
  -30.6510  -18.3120   20.6420 C   0  0  0  0  0  3  0  0  0  0  0  0
  -30.4840  -19.7580   20.6410 C   0  0  0  0  0  0  0  0  0  0  0  0
  -29.1970  -20.3910   20.4130 C   0  0  0  0  0  0  0  0  0  0  0  0
  -29.5750  -17.3840   20.5250 C   0  0  0  0  0  0  0  0  0  0  0  0
  -30.5240  -14.8560   20.4150 C   0  0  0  0  0  0  0  0  0  0  0  0
  -30.4300  -12.5720   19.3870 C   0  0  0  0  0  2  0  0  0  0  0  0
  -29.4760  -12.6350   18.1700 C   0  0  0  0  0  2  0  0  0  0  0  0
  -28.0070  -12.4410   18.6010 C   0  0  0  0  0  2  0  0  0  0  0  0
  -27.6260  -13.3040   19.8320 C   0  0  0  0  0  3  0  0  0  0  0  0
  -28.6900  -13.1900   20.9480 C   0  0  0  0  0  2  0  0  0  0  0  0
  -29.9770  -13.5900   20.3620 N   0  0  0  0  0  0  0  0  0  0  0  0
  -31.7040  -15.0320   20.0900 O   0  0  0  0  0  0  0  0  0  0  0  0
  -29.6230  -15.8930   20.6480 N   0  0  0  0  0  0  0  0  0  0  0  0
  -28.7200  -15.4990   20.8590 H   0  0  0  0  0  0  0  0  0  0  0  0
  -25.2320  -13.8780   20.5570 C   0  0  0  0  0  0  0  0  0  0  0  0
  -24.1700  -13.0980   20.9220 C   0  0  0  0  0  0  0  0  0  0  0  0
  -24.6390  -11.7500   20.8780 C   0  0  0  0  0  0  0  0  0  0  0  0
  -26.2810  -13.0050   20.3150 N   0  0  0  0  0  0  0  0  0  0  0  0
  -25.9300  -11.7180   20.5690 N   0  0  0  0  0  0  0  0  0  0  0  0
  -23.9160  -10.4840   21.0540 C   0  0  0  0  0  0  0  0  0  0  0  0
  -24.3340   -9.5200   21.9970 C   0  0  0  0  0  3  0  0  0  0  0  0
  -23.6120   -8.3180   22.1600 C   0  0  0  0  0  3  0  0  0  0  0  0
  -22.4570   -8.0730   21.3790 C   0  0  0  0  0  0  0  0  0  0  0  0
  -22.0590   -9.0260   20.4260 C   0  0  0  0  0  3  0  0  0  0  0  0
  -22.7820  -10.2200   20.2610 C   0  0  0  0  0  3  0  0  0  0  0  0
  -21.7090   -6.9220   21.4510 O   0  0  0  0  0  0  0  0  0  0  0  0
  -21.6090   -6.2000   22.6120 C   0  0  0  0  0  0  0  0  0  0  0  0
  -21.0730   -6.7570   23.7940 C   0  0  0  0  0  3  0  0  0  0  0  0
  -20.9240   -5.9580   24.9450 C   0  0  0  0  0  3  0  0  0  0  0  0
  -21.3030   -4.6030   24.9160 C   0  0  0  0  0  0  0  0  0  0  0  0
  -21.8340   -4.0460   23.7390 C   0  0  0  0  0  3  0  0  0  0  0  0
  -21.9840   -4.8420   22.5910 C   0  0  0  0  0  0  0  0  0  0  0  0
  -22.4750   -4.2940   21.4530 F   0  0  0  0  0  0  0  0  0  0  0  0
  -21.1550   -3.8320   26.0190 F   0  0  0  0  0  0  0  0  0  0  0  0
  -22.7700  -13.5710   21.1920 C   0  0  0  0  0  0  0  0  0  0  0  0
  -22.0370  -12.8650   22.0450 N   0  0  0  0  0  0  0  0  0  0  0  0
  -22.3350  -14.6020   20.6840 O   0  0  0  0  0  0  0  0  0  0  0  0
  -22.4030  -12.0370   22.4880 H   0  0  0  0  0  0  0  0  0  0  0  0
  -21.0980  -13.1660   22.2640 H   0  0  0  0  0  0  0  0  0  0  0  0
  -25.3840  -15.2500   20.3840 N   0  0  0  0  0  0  0  0  0  0  0  0
  -24.5880  -15.8730   20.4570 H   0  0  0  0  0  0  0  0  0  0  0  0
  -26.1740  -15.6690   19.9150 H   0  0  0  0  0  0  0  0  0  0  0  0
  -29.2050  -22.6400   19.2150 C   0  0  0  0  0  0  0  0  0  0  0  0
  -28.8390  -24.1820   19.0890 C   0  0  0  0  0  2  0  0  0  0  0  0
  -27.6580  -24.0590   21.2520 C   0  0  0  0  0  2  0  0  0  0  0  0
  -28.2330  -22.5820   21.4570 C   0  0  0  0  0  2  0  0  0  0  0  0
  -28.5490  -24.9930   20.3930 C   0  0  0  0  0  3  0  0  0  0  0  0
  -28.9060  -21.8760   20.3190 N   0  0  0  0  0  0  0  0  0  0  0  0
  -29.7580  -22.1330   18.2310 O   0  0  0  0  0  0  0  0  0  0  0  0
  -28.3890  -26.5070   20.3370 O   0  0  0  0  0  0  0  0  0  0  0  0
  -24.6040  -31.9680   23.2440 C   0  0  0  0  0  0  0  0  0  0  0  0
  -27.2200  -27.3040   20.2880 C   0  0  0  0  0  0  0  0  0  0  0  0
  -23.4010  -30.5470   21.6180 C   0  0  0  0  0  3  0  0  0  0  0  0
  -24.8530  -28.9490   20.2260 C   0  0  0  0  0  0  0  0  0  0  0  0
  -25.9420  -30.8440   21.4390 C   0  0  0  0  0  2  0  0  0  0  0  0
  -26.0190  -29.4470   20.8180 C   0  0  0  0  0  0  0  0  0  0  0  0
  -27.2000  -28.6380   20.8260 C   0  0  0  0  0  3  0  0  0  0  0  0
  -26.0290  -26.8590   19.6780 C   0  0  0  0  0  3  0  0  0  0  0  0
  -24.8660  -27.6650   19.6420 C   0  0  0  0  0  3  0  0  0  0  0  0
  -23.6170  -29.8340   20.2540 C   0  0  0  0  0  2  0  0  0  0  0  0
  -24.6680  -31.1400   22.1560 N   0  0  0  0  0  0  0  0  0  0  0  0
  -23.5200  -32.2600   23.7690 O   0  0  0  0  0  0  0  0  0  0  0  0
  -22.7250  -29.5590   22.5980 C   0  0  0  0  0  0  0  0  0  0  0  0
  -21.3980  -29.3830   22.4620 N   0  0  0  0  0  0  0  0  0  0  0  0
  -23.3930  -28.9500   23.4360 O   0  0  0  0  0  0  0  0  0  0  0  0
  -20.9190  -29.9210   21.7540 H   0  0  0  0  0  0  0  0  0  0  0  0
  -18.0090  -28.2250   22.9790 C   0  0  0  0  0  0  0  0  0  0  0  0
  -20.5710  -28.4600   23.2420 C   0  0  0  0  0  3  0  0  0  0  0  0
  -20.6570  -27.0230   22.6750 C   0  0  0  0  0  2  0  0  0  0  0  0
  -19.5490  -26.7070   21.6640 C   0  0  0  0  0  2  0  0  0  0  0  0
  -18.1700  -26.8700   22.3110 C   0  0  0  0  0  2  0  0  0  0  0  0
  -19.1380  -28.9780   23.4020 C   0  0  0  0  0  0  0  0  0  0  0  0
  -18.9330  -30.2460   23.9870 C   0  0  0  0  0  3  0  0  0  0  0  0
  -17.6340  -30.7620   24.1530 C   0  0  0  0  0  3  0  0  0  0  0  0
  -16.5210  -30.0060   23.7480 C   0  0  0  0  0  3  0  0  0  0  0  0
  -16.7090  -28.7400   23.1670 C   0  0  0  0  0  3  0  0  0  0  0  0
  -25.8850  -32.6040   23.8660 C   0  0  0  0  0  3  0  0  0  0  0  0
  -26.4010  -31.8360   25.1460 C   0  0  1  0  0  0  0  0  0  0  0  0
  -25.3050  -31.5970   26.2100 C   0  0  0  0  0  1  0  0  0  0  0  0
  -26.9930  -30.4600   24.7610 C   0  0  0  0  0  1  0  0  0  0  0  0
  -27.5450  -32.6370   25.8120 C   0  0  0  0  0  1  0  0  0  0  0  0
  -25.5750  -34.0030   24.1950 N   0  0  0  0  0  0  0  0  0  0  0  0
  -25.8990  -35.0560   23.4340 C   0  0  0  0  0  0  0  0  0  0  0  0
  -26.5580  -34.9530   22.3960 O   0  0  0  0  0  0  0  0  0  0  0  0
  -24.9840  -34.1570   25.0000 H   0  0  0  0  0  0  0  0  0  0  0  0
  -24.1670  -36.8490   23.0950 C   0  0  0  0  0  1  0  0  0  0  0  0
  -25.4160  -36.4450   23.8940 C   0  0  0  0  0  3  0  0  0  0  0  0
  -27.5530  -37.3390   24.7130 C   0  0  0  0  0  1  0  0  0  0  0  0
  -26.4470  -37.4990   23.7710 N   0  0  0  0  0  0  0  0  0  0  0  0
  -26.0400  -38.4200   23.9120 H   0  0  0  0  0  0  0  0  0  0  0  0
  -32.4990  -20.0660   22.1910 C   0  0  0  0  0  1  0  0  0  0  0  0
  -31.7440  -20.5760   20.9500 C   0  0  2  0  0  0  0  0  0  0  0  0
  -31.4810  -21.8570   21.1950 F   0  0  0  0  0  0  0  0  0  0  0  0
  -32.5620  -20.5150   19.8990 F   0  0  0  0  0  0  0  0  0  0  0  0
  1  2  2  0
  1  5  1  0
  2  6  1  0
  4  3  1  0
  4 94  1  0
  5  4  2  0
  6  3  2  0
  6 15  1  0
  7 15  1  0
  8 13  1  0
  9 10  1  0
  9  8  1  0
 11 10  1  0
 11 20  1  0
 11 12  1  0
 13  7  1  0
 13 12  1  0
 14  7  2  0
 15 16  1  0
 17 18  2  0
 18 37  1  0
 19 18  1  0
 19 22  1  0
 20 17  1  0
 20 21  1  0
 21 19  2  0
 22 23  1  0
 23 24  2  0
 25 28  1  0
 25 24  1  0
 26 25  2  0
 27 26  1  0
 27 22  2  0
 28 29  1  0
 29 30  1  0
 30 31  2  0
 32 31  1  0
 32 36  1  0
 33 32  2  0
 34 29  2  0
 34 33  1  0
 35 34  1  0
 37 38  1  0
 38 41  1  0
 38 40  1  0
 39 37  2  0
 42 43  1  0
 42 17  1  0
 44 42  1  0
 45 50  1  0
 46 45  1  0
 46 49  1  0
 47 48  1  0
 49 52  1  0
 49 47  1  0
 50  5  1  0
 50 48  1  0
 51 45  2  0
 53 64  2  0
 54 52  1  0
 54 59  1  0
 55 63  1  0
 55 65  1  0
 56 62  1  0
 56 58  1  0
 57 63  1  0
 58 59  2  0
 58 57  1  0
 60 54  2  0
 61 60  1  0
 61 56  2  0
 62 55  1  0
 63 53  1  0
 65 67  2  0
 66 65  1  0
 68 66  1  0
 69 78  2  0
 69 74  1  0
 70 66  1  0
 70 74  1  0
 71 70  1  0
 72 73  1  0
 72 71  1  0
 73 69  1  0
 74 75  2  0
 75 76  1  0
 77 76  2  0
 78 77  1  0
 79 53  1  0
 79 84  1  0
 79 80  1  0
 80 83  1  1
 80 81  1  0
 82 80  1  0
 84 87  1  0
 85 89  1  0
 85 84  1  0
 86 85  2  0
 89 88  1  0
 91 89  1  0
 91 92  1  0
 91 90  1  0
 94 95  1  0
 94 93  1  1
 96 94  1  0
M  ISO  4   7 100  15 100  49 101  52 101
M  END
>  <TORSDO>  (48) 
F 18

>  <SCORE>  (48) 
-15.363

>  <name>  (48) 
47

>  <ligand_id>  (48) 
47

>  <original_smiles>  (48) 
[H]c1c([H])c([H])c2c(c1[H])C([H])([H])C([H])([H])C([H])([H])C2([H])N([H])C(=O)C1([H])N(C(=O)C([H])(N([H])C(=O)C([H])(N([H])C([H])([H])[H])C([H])([H])[H])C(C([H])([H])[H])(C([H])([H])[H])C([H])([H])[H])C([H])([H])c2c([H])c(OC3([H])C([H])([H])C(=O)N(c4c([H])c([H])c(N([H])C(=O)N5C([H])([H])C([H])([H])C([H])([H])C([H])(n6nc(-c7c([H])c([H])c(Oc8c([H])c([H])c(F)c([H])c8F)c([H])c7[H])c(C(=O)N([H])[H])c6N([H])[H])C5([H])[H])c([H])c4C(F)(F)C([H])([H])[H])C([H])([H])C3([H])[H])c([H])c([H])c2C1([H])[H]

>  <smiles>  (48) 
[H]c1c([H])c([H])c2c(c1[H])C([H])([H])C([H])([H])C([H])([H])C2([H])N([H])C(=O)C1([H])N(C(=O)C([H])(N([H])C(=O)C([H])(N([H])C([H])([H])[H])C([H])([H])[H])C(C([H])([H])[H])(C([H])([H])[H])C([H])([H])[H])C([H])([H])c2c([H])c(OC3([H])C([H])([H])C(=O)N(c4c([H])c([H])c(N([H])C(=O)N5C([H])([H])C([H])([H])C([H])([H])C([H])(n6nc(-c7c([H])c([H])c(Oc8c([H])c([H])c(F)c([H])c8F)c([H])c7[H])c(C(=O)N([H])[H])c6N([H])[H])C5([H])[H])c([H])c4C(F)(F)C([H])([H])[H])C([H])([H])C3([H])[H])c([H])c([H])c2C1([H])[H]

$$$$
48:0:0
     RDKit          3D

 95103  0  0  1  0  0  0  0  0999 V2000
  -30.3710  -19.1020   22.3100 C   0  0  0  0  0  2  0  0  0  0  0  0
  -30.7550  -19.1000   21.0200 C   0  0  0  0  0  0  0  0  0  0  0  0
  -30.6810  -20.4960   20.2930 C   0  0  0  0  0  0  0  0  0  0  0  0
  -31.4910  -20.5750   19.0120 C   0  0  0  0  0  1  0  0  0  0  0  0
  -30.0010  -21.5560   20.7340 N   0  0  0  0  0  0  0  0  0  0  0  0
  -30.2600  -22.8990   20.1500 O   0  0  0  0  0  0  0  0  0  0  0  0
  -29.0870  -23.8450   20.1040 C   0  0  0  0  0  2  0  0  0  0  0  0
  -29.0120  -25.2870   20.8820 C   0  0  0  0  0  2  0  0  0  0  0  0
  -28.9530  -26.6710   20.2820 O   0  0  0  0  0  0  0  0  0  0  0  0
  -24.6500  -31.7720   23.2600 C   0  0  0  0  0  0  0  0  0  0  0  0
  -27.7690  -27.4490   20.2840 C   0  0  0  0  0  0  0  0  0  0  0  0
  -23.6650  -30.3750   21.4770 C   0  0  0  0  0  3  0  0  0  0  0  0
  -25.3150  -28.9480   20.1310 C   0  0  0  0  0  0  0  0  0  0  0  0
  -26.1910  -30.8310   21.5140 C   0  0  0  0  0  2  0  0  0  0  0  0
  -26.4050  -29.4780   20.8340 C   0  0  0  0  0  0  0  0  0  0  0  0
  -27.6360  -28.7440   20.8930 C   0  0  0  0  0  3  0  0  0  0  0  0
  -26.6510  -26.9740   19.5680 C   0  0  0  0  0  3  0  0  0  0  0  0
  -25.4430  -27.7040   19.4890 C   0  0  0  0  0  3  0  0  0  0  0  0
  -24.0310  -29.7570   20.1010 C   0  0  0  0  0  2  0  0  0  0  0  0
  -24.8480  -31.0120   22.1430 N   0  0  0  0  0  0  0  0  0  0  0  0
  -23.5130  -31.9690   23.7150 O   0  0  0  0  0  0  0  0  0  0  0  0
  -22.9830  -29.2920   22.3470 C   0  0  0  0  0  0  0  0  0  0  0  0
  -21.6610  -29.1150   22.1720 N   0  0  0  0  0  0  0  0  0  0  0  0
  -23.6430  -28.6150   23.1390 O   0  0  0  0  0  0  0  0  0  0  0  0
  -21.1860  -29.7150   21.5130 H   0  0  0  0  0  0  0  0  0  0  0  0
  -18.2690  -27.9170   22.5670 C   0  0  0  0  0  0  0  0  0  0  0  0
  -20.8320  -28.1170   22.8500 C   0  0  0  0  0  3  0  0  0  0  0  0
  -20.9140  -26.7480   22.1360 C   0  0  0  0  0  2  0  0  0  0  0  0
  -19.8050  -26.5410   21.1000 C   0  0  0  0  0  2  0  0  0  0  0  0
  -18.4260  -26.6390   21.7600 C   0  0  0  0  0  2  0  0  0  0  0  0
  -19.3990  -28.6180   23.0660 C   0  0  0  0  0  0  0  0  0  0  0  0
  -19.1980  -29.8180   23.7820 C   0  0  0  0  0  3  0  0  0  0  0  0
  -17.8990  -30.3160   24.0040 C   0  0  0  0  0  3  0  0  0  0  0  0
  -16.7850  -29.6100   23.5220 C   0  0  0  0  0  3  0  0  0  0  0  0
  -16.9710  -28.4110   22.8080 C   0  0  0  0  0  3  0  0  0  0  0  0
  -25.8400  -32.4500   24.0090 C   0  0  0  0  0  3  0  0  0  0  0  0
  -25.4570  -33.8420   24.2870 N   0  0  0  0  0  0  0  0  0  0  0  0
  -25.8290  -34.8970   23.5500 C   0  0  0  0  0  0  0  0  0  0  0  0
  -26.5980  -34.8040   22.5890 O   0  0  0  0  0  0  0  0  0  0  0  0
  -24.7840  -33.9870   25.0250 H   0  0  0  0  0  0  0  0  0  0  0  0
  -24.0830  -36.6290   23.0190 C   0  0  0  0  0  1  0  0  0  0  0  0
  -25.2620  -36.2760   23.9410 C   0  0  0  0  0  3  0  0  0  0  0  0
  -27.2790  -37.2520   24.9470 C   0  0  0  0  0  1  0  0  0  0  0  0
  -26.2670  -37.3610   23.8990 N   0  0  0  0  0  0  0  0  0  0  0  0
  -25.8190  -38.2690   23.9830 H   0  0  0  0  0  0  0  0  0  0  0  0
  -26.2350  -31.7090   25.3450 C   0  0  1  0  0  0  0  0  0  0  0  0
  -25.0420  -31.4650   26.2990 C   0  0  0  0  0  1  0  0  0  0  0  0
  -26.8820  -30.3370   25.0400 C   0  0  0  0  0  1  0  0  0  0  0  0
  -27.2960  -32.5360   26.1090 C   0  0  0  0  0  1  0  0  0  0  0  0
  -31.3730  -17.7150   20.4390 C   0  0  0  0  0  2  0  0  0  0  0  0
  -31.2190  -15.0970   20.4980 C   0  0  0  0  0  0  0  0  0  0  0  0
  -31.0630  -12.7070   19.7000 C   0  0  0  0  0  2  0  0  0  0  0  0
  -30.2620  -12.5750   18.3880 C   0  0  0  0  0  2  0  0  0  0  0  0
  -28.7620  -12.4020   18.6900 C   0  0  0  0  0  2  0  0  0  0  0  0
  -28.2440  -13.4250   19.7330 C   0  0  0  0  0  3  0  0  0  0  0  0
  -29.1910  -13.5590   20.9490 C   0  0  0  0  0  2  0  0  0  0  0  0
  -30.5280  -13.8880   20.4330 N   0  0  0  0  0  0  0  0  0  0  0  0
  -32.4470  -15.0460   20.3720 O   0  0  0  0  0  0  0  0  0  0  0  0
  -30.5940  -16.3740   20.4390 N   0  0  0  0  0  0  0  0  0  0  0  0
  -28.4080  -17.7720   17.8180 C   0  0  0  0  0  3  0  0  0  0  0  0
  -27.2410  -18.0250   18.5610 C   0  0  0  0  0  3  0  0  0  0  0  0
  -29.4850  -17.0980   18.4160 C   0  0  0  0  0  3  0  0  0  0  0  0
  -27.1160  -17.5380   19.8780 C   0  0  0  0  0  0  0  0  0  0  0  0
  -28.1600  -16.7680   20.4530 C   0  0  0  0  0  0  0  0  0  0  0  0
  -29.3830  -16.6200   19.7430 C   0  0  0  0  0  0  0  0  0  0  0  0
  -25.8400  -17.8290   20.6500 C   0  0  0  0  0  1  0  0  0  0  0  0
  -27.9570  -16.1210   21.8210 C   0  0  0  0  0  1  0  0  0  0  0  0
  -25.8020  -14.0530   20.1820 C   0  0  0  0  0  0  0  0  0  0  0  0
  -24.6990  -13.3220   20.5020 C   0  0  0  0  0  0  0  0  0  0  0  0
  -25.1520  -11.9740   20.5970 C   0  0  0  0  0  0  0  0  0  0  0  0
  -26.8630  -13.1680   20.1190 N   0  0  0  0  0  0  0  0  0  0  0  0
  -26.4680  -11.9070   20.4300 N   0  0  0  0  0  0  0  0  0  0  0  0
  -24.3890  -10.7380   20.7750 C   0  0  0  0  0  0  0  0  0  0  0  0
  -24.7820   -9.7620   21.7150 C   0  0  0  0  0  3  0  0  0  0  0  0
  -24.0180   -8.5890   21.8840 C   0  0  0  0  0  3  0  0  0  0  0  0
  -22.8480   -8.3870   21.1120 C   0  0  0  0  0  0  0  0  0  0  0  0
  -22.4750   -9.3520   20.1620 C   0  0  0  0  0  3  0  0  0  0  0  0
  -23.2400  -10.5170   19.9900 C   0  0  0  0  0  3  0  0  0  0  0  0
  -22.0580   -7.2660   21.1930 O   0  0  0  0  0  0  0  0  0  0  0  0
  -21.9440   -6.5510   22.3570 C   0  0  0  0  0  0  0  0  0  0  0  0
  -21.4540   -7.1350   23.5450 C   0  0  0  0  0  3  0  0  0  0  0  0
  -21.2870   -6.3460   24.7010 C   0  0  0  0  0  3  0  0  0  0  0  0
  -21.6000   -4.9750   24.6670 C   0  0  0  0  0  0  0  0  0  0  0  0
  -22.0840   -4.3900   23.4840 C   0  0  0  0  0  3  0  0  0  0  0  0
  -22.2520   -5.1770   22.3310 C   0  0  0  0  0  0  0  0  0  0  0  0
  -22.6990   -4.6050   21.1870 F   0  0  0  0  0  0  0  0  0  0  0  0
  -21.4320   -4.2140   25.7750 F   0  0  0  0  0  0  0  0  0  0  0  0
  -23.2930  -13.8390   20.6020 C   0  0  0  0  0  0  0  0  0  0  0  0
  -22.4870  -13.2480   21.4760 N   0  0  0  0  0  0  0  0  0  0  0  0
  -22.9180  -14.8080   19.9440 O   0  0  0  0  0  0  0  0  0  0  0  0
  -22.8020  -12.4680   22.0330 H   0  0  0  0  0  0  0  0  0  0  0  0
  -21.5400  -13.5810   21.5890 H   0  0  0  0  0  0  0  0  0  0  0  0
  -25.9550  -15.3930   19.9080 N   0  0  0  0  0  0  0  0  0  0  0  0
  -25.1650  -16.0240   19.8950 H   0  0  0  0  0  0  0  0  0  0  0  0
  -26.8310  -15.8670   19.7100 H   0  0  0  0  0  0  0  0  0  0  0  0
  2  1  2  0
  3  5  2  0
  3  2  1  0
  4  3  1  0
  6  5  1  0
  7  6  1  0
  7  8  1  0
  9 11  1  0
  9  8  1  0
 10 21  2  0
 11 16  1  0
 12 20  1  0
 12 22  1  0
 13 15  1  0
 14 20  1  0
 15 16  2  0
 15 14  1  0
 17 11  2  0
 18 17  1  0
 18 13  2  0
 19 13  1  0
 19 12  1  0
 20 10  1  0
 22 24  2  0
 23 22  1  0
 25 23  1  0
 26 35  2  0
 26 31  1  0
 27 23  1  0
 27 31  1  0
 28 27  1  0
 29 30  1  0
 29 28  1  0
 30 26  1  0
 31 32  2  0
 32 33  1  0
 34 33  2  0
 35 34  1  0
 36 10  1  0
 36 37  1  0
 36 46  1  0
 37 40  1  0
 38 42  1  0
 38 37  1  0
 39 38  2  0
 42 41  1  0
 44 42  1  0
 44 45  1  0
 44 43  1  0
 46 49  1  1
 46 47  1  0
 48 46  1  0
 50  2  1  0
 52 57  1  0
 53 54  1  0
 53 52  1  0
 55 54  1  0
 55 71  1  0
 55 56  1  0
 57 51  1  0
 57 56  1  0
 58 51  2  0
 59 50  1  0
 59 51  1  0
 60 62  2  0
 60 61  1  0
 61 63  2  0
 62 65  1  0
 63 64  1  0
 63 66  1  0
 64 67  1  0
 65 59  1  0
 65 64  2  0
 68 69  2  0
 69 70  1  0
 69 88  1  0
 70 73  1  0
 71 68  1  0
 71 72  1  0
 72 70  2  0
 73 74  1  0
 74 75  2  0
 76 79  1  0
 76 75  1  0
 77 76  2  0
 78 77  1  0
 78 73  2  0
 79 80  1  0
 80 81  1  0
 81 82  2  0
 83 82  1  0
 83 87  1  0
 84 83  2  0
 85 80  2  0
 85 84  1  0
 86 85  1  0
 88 89  1  0
 89 92  1  0
 89 91  1  0
 90 88  2  0
 93 68  1  0
 94 93  1  0
 95 93  1  0
M  ISO  4   8 101   9 101  51 100  59 100
M  END
>  <TORSDO>  (49) 
F 22

>  <SCORE>  (49) 
-9.119

>  <name>  (49) 
48

>  <ligand_id>  (49) 
48

>  <original_smiles>  (49) 
[H]C([H])=C(C(=NOC([H])([H])C([H])([H])Oc1c([H])c([H])c2c(c1[H])C([H])([H])N(C(=O)C([H])(N([H])C(=O)C([H])(N([H])C([H])([H])[H])C([H])([H])[H])C(C([H])([H])[H])(C([H])([H])[H])C([H])([H])[H])C([H])(C(=O)N([H])C1([H])c3c([H])c([H])c([H])c([H])c3C([H])([H])C([H])([H])C1([H])[H])C2([H])[H])C([H])([H])[H])C([H])([H])N(C(=O)N1C([H])([H])C([H])([H])C([H])([H])C([H])(n2nc(-c3c([H])c([H])c(Oc4c([H])c([H])c(F)c([H])c4F)c([H])c3[H])c(C(=O)N([H])[H])c2N([H])[H])C1([H])[H])c1c([H])c([H])c([H])c(C([H])([H])[H])c1C([H])([H])[H]

>  <smiles>  (49) 
[H]C([H])=C(C(=NOC([H])([H])C([H])([H])Oc1c([H])c([H])c2c(c1[H])C([H])([H])N(C(=O)C([H])(N([H])C(=O)C([H])(N([H])C([H])([H])[H])C([H])([H])[H])C(C([H])([H])[H])(C([H])([H])[H])C([H])([H])[H])C([H])(C(=O)N([H])C1([H])c3c([H])c([H])c([H])c([H])c3C([H])([H])C([H])([H])C1([H])[H])C2([H])[H])C([H])([H])[H])C([H])([H])N(C(=O)N1C([H])([H])C([H])([H])C([H])([H])C([H])(n2nc(-c3c([H])c([H])c(Oc4c([H])c([H])c(F)c([H])c4F)c([H])c3[H])c(C(=O)N([H])[H])c2N([H])[H])C1([H])[H])c1c([H])c([H])c([H])c(C([H])([H])[H])c1C([H])([H])[H]

$$$$
49:0:0
     RDKit          3D

 94 94  0  0  1  0  0  0  0  0999 V2000
  -23.6960  -25.1650   20.2770 C   0  0  0  0  0 15  0  0  0  0  0  0
  -25.9230  -22.2850   20.2130 C   0  0  0  0  0  3  0  0  0  0  0  0
  -25.9210  -20.7560   18.3840 C   0  0  0  0  0  3  0  0  0  0  0  0
  -24.3900  -22.8820   18.5020 C   0  0  0  0  0  3  0  0  0  0  0  0
  -26.6440  -20.8420   19.6040 C   0  0  0  0  0  3  0  0  0  0  0  0
  -24.7370  -23.4490   19.7630 C   0  0  0  0  0  3  0  0  0  0  0  0
  -24.9160  -21.6760   17.8920 C   0  0  0  0  0  0  0  0  0  0  0  0
  -24.2530  -21.2850   16.3470 Cl  0  0  0  0  0  0  0  0  0  0  0  0
  -28.0890  -19.3990   19.8930 C   0  0  0  0  0 15  0  0  0  0  0  0
  -29.8630  -16.3120   19.7240 C   0  0  0  0  0  0  0  0  0  0  0  0
  -30.6260  -13.7080   19.0410 C   0  0  0  0  0  2  0  0  0  0  0  0
  -29.8410  -13.0120   17.8810 C   0  0  0  0  0  2  0  0  0  0  0  0
  -28.4610  -12.5370   18.3620 C   0  0  0  0  0  2  0  0  0  0  0  0
  -27.8720  -13.5690   19.3440 C   0  0  0  0  0  3  0  0  0  0  0  0
  -28.8210  -13.9900   20.4610 C   0  0  0  0  0  2  0  0  0  0  0  0
  -29.7720  -14.8180   19.7410 N   0  0  0  0  0  0  0  0  0  0  0  0
  -31.1170  -16.4230   19.5360 O   0  0  0  0  0  0  0  0  0  0  0  0
  -28.6900  -17.5270   19.7880 N   0  0  0  0  0  2  0  0  0  0  0  0
  -27.8380  -16.9870   19.8920 H   0  0  0  0  0  0  0  0  0  0  0  0
  -25.6190  -14.1550   20.2360 C   0  0  0  0  0  0  0  0  0  0  0  0
  -24.5720  -13.3940   20.6600 C   0  0  0  0  0  0  0  0  0  0  0  0
  -25.0130  -12.0360   20.5890 C   0  0  0  0  0  0  0  0  0  0  0  0
  -26.6000  -13.2480   19.9010 N   0  0  0  0  0  0  0  0  0  0  0  0
  -26.2760  -11.9700   20.1960 N   0  0  0  0  0  0  0  0  0  0  0  0
  -24.2830  -10.7870   20.7990 C   0  0  0  0  0  0  0  0  0  0  0  0
  -24.6990   -9.8400   21.7580 C   0  0  0  0  0  3  0  0  0  0  0  0
  -23.9610   -8.6530   21.9470 C   0  0  0  0  0  3  0  0  0  0  0  0
  -22.7980   -8.4100   21.1780 C   0  0  0  0  0  0  0  0  0  0  0  0
  -22.4070   -9.3490   20.2070 C   0  0  0  0  0  3  0  0  0  0  0  0
  -23.1430  -10.5260   20.0150 C   0  0  0  0  0  3  0  0  0  0  0  0
  -22.0290   -7.2780   21.2790 O   0  0  0  0  0  0  0  0  0  0  0  0
  -21.8740   -6.6210   22.4720 C   0  0  0  0  0  0  0  0  0  0  0  0
  -21.3600   -7.2660   23.6180 C   0  0  0  0  0  3  0  0  0  0  0  0
  -21.1510   -6.5330   24.8040 C   0  0  0  0  0  3  0  0  0  0  0  0
  -21.4490   -5.1570   24.8430 C   0  0  0  0  0  0  0  0  0  0  0  0
  -21.9560   -4.5130   23.7010 C   0  0  0  0  0  3  0  0  0  0  0  0
  -22.1650   -5.2430   22.5180 C   0  0  0  0  0  0  0  0  0  0  0  0
  -22.6350   -4.6140   21.4140 F   0  0  0  0  0  0  0  0  0  0  0  0
  -21.2420   -4.4510   25.9790 F   0  0  0  0  0  0  0  0  0  0  0  0
  -23.2030  -13.9000   20.9900 C   0  0  0  0  0  0  0  0  0  0  0  0
  -22.5010  -13.2170   21.8850 N   0  0  0  0  0  0  0  0  0  0  0  0
  -22.7710  -14.9350   20.4860 O   0  0  0  0  0  0  0  0  0  0  0  0
  -22.8720  -12.3800   22.3080 H   0  0  0  0  0  0  0  0  0  0  0  0
  -21.5830  -13.5370   22.1570 H   0  0  0  0  0  0  0  0  0  0  0  0
  -25.8110  -15.5260   20.0600 N   0  0  0  0  0  0  0  0  0  0  0  0
  -25.0060  -16.1340   20.1710 H   0  0  0  0  0  0  0  0  0  0  0  0
  -26.4040  -15.8220   19.2950 H   0  0  0  0  0  0  0  0  0  0  0  0
  -21.7250  -28.1870   20.5500 C   0  0  0  0  0  3  0  0  0  0  0  0
  -21.8260  -26.3490   18.7030 C   0  0  0  0  0  1  0  0  0  0  0  0
  -22.4160  -26.6730   20.0080 N   0  0  0  0  0  2  0  0  0  0  0  0
  -20.9330  -28.7300   19.7770 O   0  0  0  0  0  0  0  0  0  0  0  0
  -22.0670  -29.4750   22.3110 C   0  0  0  0  0 15  0  0  0  0  0  0
  -23.9140  -29.2160   23.6740 C   0  0  0  0  0 15  0  0  0  0  0  0
  -25.7200  -28.5650   22.9390 O   0  0  0  0  0  1  0  0  0  0  0  0
  -24.5660  -31.6830   22.8920 C   0  0  0  0  0  0  0  0  0  0  0  0
  -26.4860  -27.8390   21.8060 C   0  0  0  0  0  3  0  0  0  0  0  0
  -24.1060  -29.2220   21.2340 C   0  0  0  0  0  2  0  0  0  0  0  0
  -25.5180  -28.8220   19.6780 C   0  0  0  0  0  3  0  0  0  0  0  0
  -26.0560  -30.8650   21.1370 C   0  0  0  0  0  2  0  0  0  0  0  0
  -26.4590  -29.5490   20.4800 C   0  0  0  0  0  3  0  0  0  0  0  0
  -27.3300  -28.7700   21.2310 C   0  0  0  0  0  2  0  0  0  0  0  0
  -26.0850  -26.8830   20.7820 C   0  0  0  0  0  2  0  0  0  0  0  0
  -25.5330  -27.4270   19.6190 C   0  0  0  0  0  2  0  0  0  0  0  0
  -24.1900  -29.3110   19.7070 C   0  0  0  0  0  2  0  0  0  0  0  0
  -24.7730  -30.7100   21.8040 N   0  0  0  0  0  0  0  0  0  0  0  0
  -23.4220  -31.9640   23.3120 O   0  0  0  0  0  0  0  0  0  0  0  0
  -23.5490  -27.4330   22.2710 C   0  0  0  0  0  2  0  0  0  0  0  0
  -22.2640  -27.2120   23.0780 N   0  0  0  0  0  0  0  0  0  0  0  0
  -24.2020  -26.7870   23.0310 O   0  0  0  0  0  1  0  0  0  0  0  0
  -22.5600  -26.5290   23.7610 H   0  0  0  0  0  0  0  0  0  0  0  0
  -18.0320  -27.8890   22.7220 C   0  0  0  0  0  0  0  0  0  0  0  0
  -20.6340  -27.3680   23.2850 C   0  0  0  0  0  3  0  0  0  0  0  0
  -20.2470  -26.0590   22.6520 C   0  0  0  0  0  2  0  0  0  0  0  0
  -19.2640  -26.1200   21.4970 C   0  0  0  0  0  2  0  0  0  0  0  0
  -17.9390  -26.5520   22.0380 C   0  0  0  0  0  2  0  0  0  0  0  0
  -19.2900  -28.4060   23.2260 C   0  0  0  0  0  0  0  0  0  0  0  0
  -19.0870  -29.6860   23.8740 C   0  0  0  0  0  3  0  0  0  0  0  0
  -17.8300  -30.3630   23.9560 C   0  0  0  0  0  3  0  0  0  0  0  0
  -16.6540  -29.7770   23.4630 C   0  0  0  0  0  3  0  0  0  0  0  0
  -16.7720  -28.5280   22.8530 C   0  0  0  0  0  3  0  0  0  0  0  0
  -25.7050  -32.2920   23.8780 C   0  0  0  0  0  3  0  0  0  0  0  0
  -25.3470  -33.6890   24.1980 N   0  0  0  0  0  0  0  0  0  0  0  0
  -25.8090  -34.7520   23.5340 C   0  0  0  0  0  0  0  0  0  0  0  0
  -26.5780  -34.6390   22.5780 O   0  0  0  0  0  0  0  0  0  0  0  0
  -24.6600  -33.8280   24.9240 H   0  0  0  0  0  0  0  0  0  0  0  0
  -24.1360  -36.5770   23.1120 C   0  0  0  0  0  1  0  0  0  0  0  0
  -25.3350  -36.1520   23.9750 C   0  0  0  0  0  3  0  0  0  0  0  0
  -27.4500  -37.0180   24.8820 C   0  0  0  0  0  1  0  0  0  0  0  0
  -26.3910  -37.1850   23.8890 N   0  0  0  0  0  0  0  0  0  0  0  0
  -25.9960  -38.1160   23.9920 H   0  0  0  0  0  0  0  0  0  0  0  0
  -26.0290  -31.6040   25.3120 C   0  0  1  0  0  0  0  0  0  0  0  0
  -24.8230  -31.4560   26.2930 C   0  0  0  0  0  1  0  0  0  0  0  0
  -26.7360  -30.2430   25.1540 C   0  0  0  0  0  1  0  0  0  0  0  0
  -27.0690  -32.4560   26.1030 C   0  0  0  0  0  1  0  0  0  0  0  0
  3  5  1  0
  4  6  2  0
  5  2  2  0
  6  2  1  0
  7  3  2  0
  7  4  1  0
  8  7  1  0
 10 16  1  0
 10 18  1  0
 11 16  1  0
 12 13  1  0
 12 11  1  0
 14 13  1  0
 14 23  1  0
 14 15  1  0
 16 15  1  0
 17 10  2  0
 18 19  1  0
 20 21  2  0
 21 40  1  0
 22 21  1  0
 22 25  1  0
 23 24  1  0
 23 20  1  0
 24 22  2  0
 25 26  1  0
 26 27  2  0
 28 31  1  0
 28 27  1  0
 29 28  2  0
 30 29  1  0
 30 25  2  0
 31 32  1  0
 32 37  2  0
 32 33  1  0
 33 34  2  0
 34 35  1  0
 35 39  1  0
 36 35  2  0
 37 36  1  0
 38 37  1  0
 40 41  1  0
 41 44  1  0
 41 43  1  0
 42 40  2  0
 45 46  1  0
 45 20  1  0
 47 45  1  0
 49 50  1  0
 50 48  1  0
 51 48  2  0
 55 66  2  0
 56 54  1  0
 57 65  1  0
 58 63  1  0
 58 64  1  0
 58 60  1  0
 59 65  1  0
 60 59  1  0
 60 61  1  0
 61 56  1  0
 62 56  1  0
 63 62  1  0
 64 57  1  0
 65 55  1  0
 67 69  1  0
 67 68  1  0
 68 70  1  0
 71 80  2  0
 71 76  1  0
 72 68  1  0
 73 72  1  0
 74 75  1  0
 74 73  1  0
 75 71  1  0
 76 72  1  0
 76 77  2  0
 77 78  1  0
 79 78  2  0
 80 79  1  0
 81 55  1  0
 81 82  1  0
 81 91  1  0
 82 85  1  0
 83 87  1  0
 83 82  1  0
 84 83  2  0
 87 86  1  0
 89 87  1  0
 89 90  1  0
 89 88  1  0
 91 94  1  1
 91 92  1  0
 93 91  1  0
M  ISO  4  10 100  18 100  53 101  54 101
M  END
>  <TORSDO>  (50) 
F 21

>  <SCORE>  (50) 
-14.763

>  <name>  (50) 
49

>  <ligand_id>  (50) 
49

>  <original_smiles>  (50) 
[H]c1c([H])c([H])c2c(c1[H])C([H])([H])C([H])([H])C([H])([H])C2([H])N([H])C(=O)C1([H])N(C(=O)C([H])(N([H])C(=O)C([H])(N([H])C([H])([H])[H])C([H])([H])[H])C(C([H])([H])[H])(C([H])([H])[H])C([H])([H])[H])C([H])([H])c2c([H])c(OC([H])([H])C([H])([H])C(=O)N(C([H])([H])[H])C([H])([H])c3c([H])c(Cl)c([H])c(C([H])([H])N([H])C(=O)N4C([H])([H])C([H])([H])C([H])([H])C([H])(n5nc(-c6c([H])c([H])c(Oc7c([H])c([H])c(F)c([H])c7F)c([H])c6[H])c(C(=O)N([H])[H])c5N([H])[H])C4([H])[H])c3[H])c([H])c([H])c2C1([H])[H]

>  <smiles>  (50) 
[H]c1c([H])c([H])c2c(c1[H])C([H])([H])C([H])([H])C([H])([H])C2([H])N([H])C(=O)C1([H])N(C(=O)C([H])(N([H])C(=O)C([H])(N([H])C([H])([H])[H])C([H])([H])[H])C(C([H])([H])[H])(C([H])([H])[H])C([H])([H])[H])C([H])([H])c2c([H])c(OC([H])([H])C([H])([H])C(=O)N(C([H])([H])[H])C([H])([H])c3c([H])c(Cl)c([H])c(C([H])([H])N([H])C(=O)N4C([H])([H])C([H])([H])C([H])([H])C([H])(n5nc(-c6c([H])c([H])c(Oc7c([H])c([H])c(F)c([H])c7F)c([H])c6[H])c(C(=O)N([H])[H])c5N([H])[H])C4([H])[H])c3[H])c([H])c([H])c2C1([H])[H]

$$$$
50:0:0
     RDKit          3D

 98107  0  0  1  0  0  0  0  0999 V2000
  -27.8680  -22.9970   21.0590 C   0  0  0  0  0  0  0  0  0  0  0  0
  -27.6530  -22.3900   22.2410 C   0  0  0  0  0  2  0  0  0  0  0  0
  -27.3970  -24.4530   20.7430 C   0  0  0  0  0  2  0  0  0  0  0  0
  -29.3110  -24.6640   19.1510 C   0  0  0  0  0  2  0  0  0  0  0  0
  -28.8210  -23.2300   18.7590 C   0  0  0  0  0  2  0  0  0  0  0  0
  -28.5460  -25.4090   20.2890 C   0  0  1  0  0  0  0  0  0  0  0  0
  -28.5090  -22.2660   19.8720 N   0  0  1  0  0  4  0  0  0  0  0  0
  -27.7750  -21.6890   19.4870 H   0  0  0  0  0  0  0  0  0  0  0  0
  -28.3110  -26.8240   19.8980 O   0  0  0  0  0  0  0  0  0  0  0  0
  -24.5090  -31.9740   23.2370 C   0  0  0  0  0  0  0  0  0  0  0  0
  -27.1190  -27.5430   20.0140 C   0  0  0  0  0  0  0  0  0  0  0  0
  -23.2880  -30.6090   21.5770 C   0  0  0  0  0  3  0  0  0  0  0  0
  -24.7250  -29.1030   20.0910 C   0  0  0  0  0  0  0  0  0  0  0  0
  -25.8150  -30.9650   21.3520 C   0  0  0  0  0  2  0  0  0  0  0  0
  -25.8950  -29.6000   20.6780 C   0  0  0  0  0  0  0  0  0  0  0  0
  -27.0920  -28.8340   20.6240 C   0  0  0  0  0  3  0  0  0  0  0  0
  -25.9300  -27.0890   19.4060 C   0  0  0  0  0  3  0  0  0  0  0  0
  -24.7440  -27.8510   19.4490 C   0  0  0  0  0  3  0  0  0  0  0  0
  -23.4800  -29.9630   20.1780 C   0  0  0  0  0  2  0  0  0  0  0  0
  -24.5580  -31.2000   22.1130 N   0  0  0  0  0  0  0  0  0  0  0  0
  -23.4340  -32.2240   23.8000 O   0  0  0  0  0  0  0  0  0  0  0  0
  -22.6540  -29.5610   22.5210 C   0  0  0  0  0  0  0  0  0  0  0  0
  -21.3300  -29.3650   22.4050 N   0  0  0  0  0  0  0  0  0  0  0  0
  -23.3520  -28.9280   23.3170 O   0  0  0  0  0  0  0  0  0  0  0  0
  -20.8250  -29.9320   21.7370 H   0  0  0  0  0  0  0  0  0  0  0  0
  -17.9790  -28.0970   22.9030 C   0  0  0  0  0  0  0  0  0  0  0  0
  -20.5340  -28.3970   23.1590 C   0  0  0  0  0  3  0  0  0  0  0  0
  -20.6560  -26.9800   22.5520 C   0  0  0  0  0  2  0  0  0  0  0  0
  -19.5530  -26.6600   21.5380 C   0  0  0  0  0  2  0  0  0  0  0  0
  -18.1740  -26.7660   22.1950 C   0  0  0  0  0  2  0  0  0  0  0  0
  -19.0870  -28.8700   23.3410 C   0  0  0  0  0  0  0  0  0  0  0  0
  -18.8500  -30.1150   23.9630 C   0  0  0  0  0  3  0  0  0  0  0  0
  -17.5370  -30.5900   24.1480 C   0  0  0  0  0  3  0  0  0  0  0  0
  -16.4440  -29.8140   23.7240 C   0  0  0  0  0  3  0  0  0  0  0  0
  -16.6660  -28.5690   23.1100 C   0  0  0  0  0  3  0  0  0  0  0  0
  -25.7980  -32.5990   23.8540 C   0  0  0  0  0  3  0  0  0  0  0  0
  -26.3230  -31.8180   25.1210 C   0  0  1  0  0  0  0  0  0  0  0  0
  -25.2370  -31.5700   26.1940 C   0  0  0  0  0  1  0  0  0  0  0  0
  -26.9050  -30.4440   24.7120 C   0  0  0  0  0  1  0  0  0  0  0  0
  -27.4790  -32.6060   25.7800 C   0  0  0  0  0  1  0  0  0  0  0  0
  -25.4930  -33.9960   24.1980 N   0  0  0  0  0  0  0  0  0  0  0  0
  -25.8370  -35.0570   23.4540 C   0  0  0  0  0  0  0  0  0  0  0  0
  -26.5120  -34.9600   22.4270 O   0  0  0  0  0  0  0  0  0  0  0  0
  -24.8920  -34.1440   24.9960 H   0  0  0  0  0  0  0  0  0  0  0  0
  -24.1440  -36.8810   23.0840 C   0  0  0  0  0  1  0  0  0  0  0  0
  -25.3550  -36.4440   23.9240 C   0  0  0  0  0  3  0  0  0  0  0  0
  -27.4730  -37.2860   24.8390 C   0  0  0  0  0  1  0  0  0  0  0  0
  -26.4040  -37.4840   23.8620 N   0  0  0  0  0  0  0  0  0  0  0  0
  -26.0070  -38.4070   24.0080 H   0  0  0  0  0  0  0  0  0  0  0  0
  -29.5890  -21.2030   20.1330 C   0  0  0  0  0  2  0  0  0  0  0  0
  -29.2270  -17.9650   17.9060 C   0  0  0  0  0  3  0  0  0  0  0  0
  -29.4900  -16.9300   18.8110 C   0  0  0  0  0  3  0  0  0  0  0  0
  -29.6710  -18.5850   20.5840 C   0  0  0  0  0  3  0  0  0  0  0  0
  -29.2120  -19.3200   18.3020 C   0  0  0  0  0  0  0  0  0  0  0  0
  -29.4350  -19.6860   19.6670 C   0  0  0  0  0  0  0  0  0  0  0  0
  -29.7370  -17.2020   20.1670 C   0  0  0  0  0  0  0  0  0  0  0  0
  -28.9950  -20.3120   17.1770 C   0  0  0  0  0  1  0  0  0  0  0  0
  -30.7550  -14.9770   20.8010 C   0  0  0  0  0  0  0  0  0  0  0  0
  -30.6860  -12.6700   19.8960 C   0  0  0  0  0  2  0  0  0  0  0  0
  -29.8460  -12.7000   18.5990 C   0  0  0  0  0  2  0  0  0  0  0  0
  -28.3480  -12.5280   18.9150 C   0  0  0  0  0  2  0  0  0  0  0  0
  -27.8690  -13.4520   20.0660 C   0  0  0  0  0  3  0  0  0  0  0  0
  -28.8330  -13.3990   21.2730 C   0  0  0  0  0  2  0  0  0  0  0  0
  -30.1760  -13.7360   20.7850 N   0  0  0  0  0  0  0  0  0  0  0  0
  -31.9320  -15.1360   20.4670 O   0  0  0  0  0  0  0  0  0  0  0  0
  -29.9400  -16.0560   21.0480 N   0  0  0  0  0  0  0  0  0  0  0  0
  -29.1270  -15.8220   21.5990 H   0  0  0  0  0  0  0  0  0  0  0  0
  -25.4230  -14.0250   20.5940 C   0  0  0  0  0  0  0  0  0  0  0  0
  -24.3440  -13.2410   20.9000 C   0  0  0  0  0  0  0  0  0  0  0  0
  -24.8270  -11.8970   20.9300 C   0  0  0  0  0  0  0  0  0  0  0  0
  -26.4940  -13.1580   20.4550 N   0  0  0  0  0  0  0  0  0  0  0  0
  -26.1360  -11.8740   20.7170 N   0  0  0  0  0  0  0  0  0  0  0  0
  -24.1070  -10.6270   21.0920 C   0  0  0  0  0  0  0  0  0  0  0  0
  -24.4810   -9.6850   22.0760 C   0  0  0  0  0  3  0  0  0  0  0  0
  -23.7610   -8.4800   22.2220 C   0  0  0  0  0  3  0  0  0  0  0  0
  -22.6540   -8.2080   21.3860 C   0  0  0  0  0  0  0  0  0  0  0  0
  -22.3000   -9.1380   20.3920 C   0  0  0  0  0  3  0  0  0  0  0  0
  -23.0210  -10.3350   20.2430 C   0  0  0  0  0  3  0  0  0  0  0  0
  -21.9110   -7.0530   21.4390 O   0  0  0  0  0  0  0  0  0  0  0  0
  -21.7740   -6.3390   22.6040 C   0  0  0  0  0  0  0  0  0  0  0  0
  -21.1970   -6.9060   23.7610 C   0  0  0  0  0  3  0  0  0  0  0  0
  -21.0110   -6.1170   24.9140 C   0  0  0  0  0  3  0  0  0  0  0  0
  -21.3930   -4.7620   24.9090 C   0  0  0  0  0  0  0  0  0  0  0  0
  -21.9640   -4.1940   23.7560 C   0  0  0  0  0  3  0  0  0  0  0  0
  -22.1510   -4.9810   22.6060 C   0  0  0  0  0  0  0  0  0  0  0  0
  -22.6810   -4.4250   21.4910 F   0  0  0  0  0  0  0  0  0  0  0  0
  -21.2070   -4.0010   26.0130 F   0  0  0  0  0  0  0  0  0  0  0  0
  -22.9230  -13.7010   21.0610 C   0  0  0  0  0  0  0  0  0  0  0  0
  -22.1470  -13.0110   21.8890 N   0  0  0  0  0  0  0  0  0  0  0  0
  -22.5090  -14.7070   20.4880 O   0  0  0  0  0  0  0  0  0  0  0  0
  -22.4940  -12.1970   22.3740 H   0  0  0  0  0  0  0  0  0  0  0  0
  -21.1920  -13.3030   22.0400 H   0  0  0  0  0  0  0  0  0  0  0  0
  -25.5810  -15.3940   20.4020 N   0  0  0  0  0  0  0  0  0  0  0  0
  -24.7990  -16.0390   20.4410 H   0  0  0  0  0  0  0  0  0  0  0  0
  -26.4460  -15.8400   20.1260 H   0  0  0  0  0  0  0  0  0  0  0  0
  -29.5450  -25.5910   21.4610 C   0  0  0  0  0  2  0  0  0  0  0  0
  -29.8790  -26.4810   23.6110 C   0  0  0  0  0  1  0  0  0  0  0  0
  -28.9300  -26.1890   22.5940 O   0  0  0  0  0  0  0  0  0  0  0  0
  1  2  2  0
  3  1  1  0
  4  6  1  0
  5  4  1  0
  5  7  1  0
  6  3  1  0
  6 96  1  1
  7 50  1  0
  7  1  1  0
  7  8  1  6
  9 11  1  0
  9  6  1  0
 10 21  2  0
 11 16  1  0
 12 20  1  0
 12 22  1  0
 13 19  1  0
 13 15  1  0
 14 20  1  0
 15 14  1  0
 16 15  2  0
 17 18  1  0
 17 11  2  0
 18 13  2  0
 19 12  1  0
 20 10  1  0
 22 24  2  0
 23 22  1  0
 25 23  1  0
 26 35  2  0
 26 31  1  0
 27 23  1  0
 27 31  1  0
 28 27  1  0
 29 30  1  0
 29 28  1  0
 30 26  1  0
 31 32  2  0
 32 33  1  0
 34 33  2  0
 35 34  1  0
 36 10  1  0
 36 41  1  0
 36 37  1  0
 37 40  1  1
 37 38  1  0
 39 37  1  0
 41 44  1  0
 42 46  1  0
 42 41  1  0
 43 42  2  0
 46 45  1  0
 48 46  1  0
 48 49  1  0
 48 47  1  0
 51 54  2  0
 51 52  1  0
 52 56  2  0
 54 55  1  0
 55 50  1  0
 55 53  2  0
 56 53  1  0
 56 66  1  0
 57 54  1  0
 58 66  1  0
 59 64  1  0
 60 61  1  0
 60 59  1  0
 62 61  1  0
 62 71  1  0
 62 63  1  0
 64 58  1  0
 64 63  1  0
 65 58  2  0
 66 67  1  0
 68 69  2  0
 69 70  1  0
 69 88  1  0
 70 73  1  0
 71 68  1  0
 71 72  1  0
 72 70  2  0
 73 74  1  0
 74 75  2  0
 76 79  1  0
 76 75  1  0
 77 76  2  0
 78 77  1  0
 78 73  2  0
 79 80  1  0
 80 85  2  0
 80 81  1  0
 81 82  2  0
 83 82  1  0
 83 87  1  0
 84 83  2  0
 85 84  1  0
 86 85  1  0
 88 89  1  0
 89 92  1  0
 89 91  1  0
 90 88  2  0
 93 94  1  0
 93 68  1  0
 95 93  1  0
 96 98  1  0
 98 97  1  0
M  ISO  4   6 101   9 101  58 100  66 100
M  END
>  <TORSDO>  (51) 
F 20

>  <SCORE>  (51) 
-13.405

>  <name>  (51) 
50

>  <ligand_id>  (51) 
50

>  <original_smiles>  (51) 
[H]C([H])=C1C([H])([H])C(Oc2c([H])c([H])c3c(c2[H])C([H])([H])N(C(=O)C([H])(N([H])C(=O)C([H])(N([H])C([H])([H])[H])C([H])([H])[H])C(C([H])([H])[H])(C([H])([H])[H])C([H])([H])[H])C([H])(C(=O)N([H])C2([H])c4c([H])c([H])c([H])c([H])c4C([H])([H])C([H])([H])C2([H])[H])C3([H])[H])(C([H])([H])OC([H])([H])[H])C([H])([H])C([H])([H])[N+]1([H])C([H])([H])c1c([H])c(N([H])C(=O)N2C([H])([H])C([H])([H])C([H])([H])C([H])(n3nc(-c4c([H])c([H])c(Oc5c([H])c([H])c(F)c([H])c5F)c([H])c4[H])c(C(=O)N([H])[H])c3N([H])[H])C2([H])[H])c([H])c([H])c1C([H])([H])[H]

>  <smiles>  (51) 
[H]C([H])=C1C([H])([H])C(Oc2c([H])c([H])c3c(c2[H])C([H])([H])N(C(=O)C([H])(N([H])C(=O)C([H])(N([H])C([H])([H])[H])C([H])([H])[H])C(C([H])([H])[H])(C([H])([H])[H])C([H])([H])[H])C([H])(C(=O)N([H])C2([H])c4c([H])c([H])c([H])c([H])c4C([H])([H])C([H])([H])C2([H])[H])C3([H])[H])(C([H])([H])OC([H])([H])[H])C([H])([H])C([H])([H])[N+]1([H])C([H])([H])c1c([H])c(N([H])C(=O)N2C([H])([H])C([H])([H])C([H])([H])C([H])(n3nc(-c4c([H])c([H])c(Oc5c([H])c([H])c(F)c([H])c5F)c([H])c4[H])c(C(=O)N([H])[H])c3N([H])[H])C2([H])[H])c([H])c([H])c1C([H])([H])[H]

$$$$
51:0:0
     RDKit          3D

 95104  0  0  1  0  0  0  0  0999 V2000
  -27.9650  -22.5570   19.3380 C   0  0  0  0  0  0  0  0  0  0  0  0
  -28.7330  -24.3490   20.7050 C   0  0  0  0  0  0  0  0  0  0  0  0
  -27.2520  -23.5530   18.4150 C   0  0  0  0  0  2  0  0  0  0  0  0
  -28.0620  -24.8410   18.2150 C   0  0  0  0  0  2  0  0  0  0  0  0
  -28.6530  -25.3800   19.5270 C   0  0  0  0  0  3  0  0  0  0  0  0
  -28.5740  -22.9990   20.4730 N   0  0  0  0  0  0  0  0  0  0  0  0
  -27.8780  -21.3630   19.0340 O   0  0  0  0  0  0  0  0  0  0  0  0
  -29.0240  -24.7870   21.8240 O   0  0  0  0  0  0  0  0  0  0  0  0
  -28.4080  -26.7760   19.8950 O   0  0  0  0  0  0  0  0  0  0  0  0
  -24.5210  -31.7630   23.1590 C   0  0  0  0  0  0  0  0  0  0  0  0
  -27.1860  -27.4380   19.9020 C   0  0  0  0  0  0  0  0  0  0  0  0
  -23.3060  -30.3970   21.4880 C   0  0  0  0  0  3  0  0  0  0  0  0
  -24.7640  -28.9330   19.9820 C   0  0  0  0  0  0  0  0  0  0  0  0
  -25.8230  -30.8020   21.2610 C   0  0  0  0  0  2  0  0  0  0  0  0
  -25.9200  -29.4490   20.5770 C   0  0  0  0  0  0  0  0  0  0  0  0
  -27.1280  -28.7120   20.5270 C   0  0  0  0  0  3  0  0  0  0  0  0
  -26.0070  -26.9440   19.3020 C   0  0  0  0  0  3  0  0  0  0  0  0
  -24.8070  -27.6860   19.3340 C   0  0  0  0  0  3  0  0  0  0  0  0
  -23.5060  -29.7730   20.0790 C   0  0  0  0  0  2  0  0  0  0  0  0
  -24.5680  -31.0030   22.0270 N   0  0  0  0  0  0  0  0  0  0  0  0
  -23.4450  -31.9960   23.7270 O   0  0  0  0  0  0  0  0  0  0  0  0
  -22.6890  -29.3330   22.4260 C   0  0  0  0  0  0  0  0  0  0  0  0
  -21.3720  -29.1090   22.2920 N   0  0  0  0  0  0  0  0  0  0  0  0
  -23.3940  -28.7120   23.2250 O   0  0  0  0  0  0  0  0  0  0  0  0
  -20.8620  -29.6580   21.6120 H   0  0  0  0  0  0  0  0  0  0  0  0
  -18.0500  -27.7400   22.7100 C   0  0  0  0  0  0  0  0  0  0  0  0
  -20.5850  -28.1220   23.0310 C   0  0  0  0  0  3  0  0  0  0  0  0
  -20.7740  -26.7090   22.4270 C   0  0  0  0  0  2  0  0  0  0  0  0
  -19.7000  -26.3420   21.4010 C   0  0  0  0  0  2  0  0  0  0  0  0
  -18.3060  -26.4060   22.0260 C   0  0  0  0  0  2  0  0  0  0  0  0
  -19.1210  -28.5520   23.1670 C   0  0  0  0  0  0  0  0  0  0  0  0
  -18.8280  -29.7970   23.7670 C   0  0  0  0  0  3  0  0  0  0  0  0
  -17.4980  -30.2330   23.9100 C   0  0  0  0  0  3  0  0  0  0  0  0
  -16.4400  -29.4200   23.4670 C   0  0  0  0  0  3  0  0  0  0  0  0
  -16.7170  -28.1750   22.8720 C   0  0  0  0  0  3  0  0  0  0  0  0
  -25.8080  -32.3940   23.7780 C   0  0  0  0  0  3  0  0  0  0  0  0
  -26.3540  -31.5950   25.0240 C   0  0  1  0  0  0  0  0  0  0  0  0
  -25.2810  -31.3190   26.1020 C   0  0  0  0  0  1  0  0  0  0  0  0
  -26.9460  -30.2350   24.5830 C   0  0  0  0  0  1  0  0  0  0  0  0
  -27.5030  -32.3880   25.6910 C   0  0  0  0  0  1  0  0  0  0  0  0
  -25.4880  -33.7780   24.1490 N   0  0  0  0  0  0  0  0  0  0  0  0
  -25.7870  -34.8550   23.4090 C   0  0  0  0  0  0  0  0  0  0  0  0
  -26.4340  -34.7870   22.3610 O   0  0  0  0  0  0  0  0  0  0  0  0
  -24.9160  -33.9060   24.9700 H   0  0  0  0  0  0  0  0  0  0  0  0
  -24.0230  -36.6290   23.1410 C   0  0  0  0  0  1  0  0  0  0  0  0
  -25.2890  -36.2240   23.9130 C   0  0  0  0  0  3  0  0  0  0  0  0
  -27.4250  -37.1230   24.7200 C   0  0  0  0  0  1  0  0  0  0  0  0
  -26.3020  -37.2970   23.8040 N   0  0  0  0  0  0  0  0  0  0  0  0
  -25.8820  -38.2060   23.9820 H   0  0  0  0  0  0  0  0  0  0  0  0
  -28.8970  -22.0090   21.5560 C   0  0  0  0  0  2  0  0  0  0  0  0
  -28.8420  -19.4390   21.2880 C   0  0  0  0  0  3  0  0  0  0  0  0
  -30.9650  -20.5630   20.9790 C   0  0  0  0  0  3  0  0  0  0  0  0
  -29.4680  -18.1780   21.1080 C   0  0  0  0  0  3  0  0  0  0  0  0
  -31.5920  -19.3030   20.8080 C   0  0  0  0  0  3  0  0  0  0  0  0
  -29.5780  -20.6510   21.2300 C   0  0  0  0  0  0  0  0  0  0  0  0
  -30.8580  -18.0950   20.8750 C   0  0  0  0  0  0  0  0  0  0  0  0
  -31.6120  -16.7540   20.7890 C   0  0  0  0  0  2  0  0  0  0  0  0
  -31.2950  -14.4980   19.7470 C   0  0  0  0  0  0  0  0  0  0  0  0
  -30.8200  -12.2750   18.7730 C   0  0  0  0  0  2  0  0  0  0  0  0
  -29.8020  -12.4140   17.6260 C   0  0  0  0  0  2  0  0  0  0  0  0
  -28.3660  -12.3320   18.1740 C   0  0  0  0  0  2  0  0  0  0  0  0
  -28.1370  -13.2950   19.3700 C   0  0  0  0  0  3  0  0  0  0  0  0
  -29.2580  -13.1460   20.4220 C   0  0  0  0  0  2  0  0  0  0  0  0
  -30.5500  -13.3550   19.7420 N   0  0  0  0  0  0  0  0  0  0  0  0
  -32.3340  -14.6050   19.0880 O   0  0  0  0  0  0  0  0  0  0  0  0
  -30.8390  -15.5350   20.4810 N   0  0  0  0  0  0  0  0  0  0  0  0
  -29.9650  -15.4130   20.9650 H   0  0  0  0  0  0  0  0  0  0  0  0
  -25.8700  -14.0600   20.3220 C   0  0  0  0  0  0  0  0  0  0  0  0
  -24.7760  -13.3590   20.7560 C   0  0  0  0  0  0  0  0  0  0  0  0
  -25.1150  -11.9780   20.6280 C   0  0  0  0  0  0  0  0  0  0  0  0
  -26.8110  -13.1090   19.9590 N   0  0  0  0  0  0  0  0  0  0  0  0
  -26.3650  -11.8490   20.2000 N   0  0  0  0  0  0  0  0  0  0  0  0
  -24.3040  -10.7700   20.8320 C   0  0  0  0  0  0  0  0  0  0  0  0
  -24.6960   -9.7590   21.7350 C   0  0  0  0  0  3  0  0  0  0  0  0
  -23.8890   -8.6160   21.9230 C   0  0  0  0  0  3  0  0  0  0  0  0
  -22.6760   -8.4780   21.2090 C   0  0  0  0  0  0  0  0  0  0  0  0
  -22.3010   -9.4780   20.2940 C   0  0  0  0  0  3  0  0  0  0  0  0
  -23.1080  -10.6120   20.1040 C   0  0  0  0  0  3  0  0  0  0  0  0
  -21.8410   -7.3900   21.3100 O   0  0  0  0  0  0  0  0  0  0  0  0
  -21.7160   -6.6850   22.4800 C   0  0  0  0  0  0  0  0  0  0  0  0
  -21.3050   -7.3030   23.6820 C   0  0  0  0  0  3  0  0  0  0  0  0
  -21.1270   -6.5290   24.8450 C   0  0  0  0  0  3  0  0  0  0  0  0
  -21.3450   -5.1390   24.8070 C   0  0  0  0  0  0  0  0  0  0  0  0
  -21.7440   -4.5200   23.6080 C   0  0  0  0  0  3  0  0  0  0  0  0
  -21.9280   -5.2920   22.4480 C   0  0  0  0  0  0  0  0  0  0  0  0
  -22.2960   -4.6890   21.2930 F   0  0  0  0  0  0  0  0  0  0  0  0
  -21.1640   -4.3920   25.9220 F   0  0  0  0  0  0  0  0  0  0  0  0
  -23.4550  -13.9380   21.1810 C   0  0  0  0  0  0  0  0  0  0  0  0
  -22.7560  -13.2700   22.0930 N   0  0  0  0  0  0  0  0  0  0  0  0
  -23.0560  -15.0130   20.7360 O   0  0  0  0  0  0  0  0  0  0  0  0
  -23.0930  -12.3970   22.4750 H   0  0  0  0  0  0  0  0  0  0  0  0
  -21.8720  -13.6340   22.4160 H   0  0  0  0  0  0  0  0  0  0  0  0
  -26.1360  -15.4180   20.1760 N   0  0  0  0  0  0  0  0  0  0  0  0
  -25.4300  -16.1250   20.3510 H   0  0  0  0  0  0  0  0  0  0  0  0
  -26.9760  -15.7870   19.7460 H   0  0  0  0  0  0  0  0  0  0  0  0
  1  6  1  0
  2  8  2  0
  3  1  1  0
  4  3  1  0
  4  5  1  0
  5  9  1  0
  5  2  1  0
  6  2  1  0
  6 50  1  0
  7  1  2  0
  9 11  1  0
 10 21  2  0
 11 16  1  0
 12 20  1  0
 12 22  1  0
 13 19  1  0
 13 15  1  0
 14 20  1  0
 15 14  1  0
 16 15  2  0
 17 18  1  0
 17 11  2  0
 18 13  2  0
 19 12  1  0
 20 10  1  0
 22 24  2  0
 23 22  1  0
 25 23  1  0
 26 35  2  0
 26 31  1  0
 27 23  1  0
 27 31  1  0
 28 27  1  0
 29 30  1  0
 29 28  1  0
 30 26  1  0
 31 32  2  0
 32 33  1  0
 34 33  2  0
 35 34  1  0
 36 10  1  0
 36 41  1  0
 36 37  1  0
 37 40  1  1
 37 38  1  0
 39 37  1  0
 41 44  1  0
 42 46  1  0
 42 41  1  0
 43 42  2  0
 46 45  1  0
 48 46  1  0
 48 49  1  0
 48 47  1  0
 52 55  2  0
 53 51  2  0
 54 56  2  0
 54 52  1  0
 55 51  1  0
 55 50  1  0
 56 53  1  0
 57 56  1  0
 58 66  1  0
 59 64  1  0
 60 61  1  0
 60 59  1  0
 62 61  1  0
 62 71  1  0
 62 63  1  0
 64 58  1  0
 64 63  1  0
 65 58  2  0
 66 57  1  0
 66 67  1  0
 68 69  2  0
 69 88  1  0
 70 69  1  0
 70 73  1  0
 71 72  1  0
 71 68  1  0
 72 70  2  0
 73 74  1  0
 74 75  2  0
 76 79  1  0
 76 75  1  0
 77 76  2  0
 78 77  1  0
 78 73  2  0
 79 80  1  0
 80 81  1  0
 81 82  2  0
 83 82  1  0
 83 87  1  0
 84 83  2  0
 85 80  2  0
 85 84  1  0
 86 85  1  0
 88 89  1  0
 89 92  1  0
 89 91  1  0
 90 88  2  0
 93 68  1  0
 93 94  1  0
 95 93  1  0
M  ISO  4   5 101   9 101  58 100  66 100
M  END
>  <TORSDO>  (52) 
F 19

>  <SCORE>  (52) 
-13.260

>  <name>  (52) 
51

>  <ligand_id>  (52) 
51

>  <original_smiles>  (52) 
[H]c1c([H])c([H])c2c(c1[H])C([H])([H])C([H])([H])C([H])([H])C2([H])N([H])C(=O)C1([H])N(C(=O)C([H])(N([H])C(=O)C([H])(N([H])C([H])([H])[H])C([H])([H])[H])C(C([H])([H])[H])(C([H])([H])[H])C([H])([H])[H])C([H])([H])c2c([H])c(OC3([H])C(=O)N(C([H])([H])c4c([H])c([H])c(C([H])([H])N([H])C(=O)N5C([H])([H])C([H])([H])C([H])([H])C([H])(n6nc(-c7c([H])c([H])c(Oc8c([H])c([H])c(F)c([H])c8F)c([H])c7[H])c(C(=O)N([H])[H])c6N([H])[H])C5([H])[H])c([H])c4[H])C(=O)C([H])([H])C3([H])[H])c([H])c([H])c2C1([H])[H]

>  <smiles>  (52) 
[H]c1c([H])c([H])c2c(c1[H])C([H])([H])C([H])([H])C([H])([H])C2([H])N([H])C(=O)C1([H])N(C(=O)C([H])(N([H])C(=O)C([H])(N([H])C([H])([H])[H])C([H])([H])[H])C(C([H])([H])[H])(C([H])([H])[H])C([H])([H])[H])C([H])([H])c2c([H])c(OC3([H])C(=O)N(C([H])([H])c4c([H])c([H])c(C([H])([H])N([H])C(=O)N5C([H])([H])C([H])([H])C([H])([H])C([H])(n6nc(-c7c([H])c([H])c(Oc8c([H])c([H])c(F)c([H])c8F)c([H])c7[H])c(C(=O)N([H])[H])c6N([H])[H])C5([H])[H])c([H])c4[H])C(=O)C([H])([H])C3([H])[H])c([H])c([H])c2C1([H])[H]

$$$$
52:0:0
     RDKit          3D

 96105  0  0  1  0  0  0  0  0999 V2000
  -29.4650  -22.7330   21.6740 C   0  0  0  0  0  0  0  0  0  0  0  0
  -28.7570  -21.8240   22.3630 C   0  0  0  0  0  2  0  0  0  0  0  0
  -30.0730  -23.9830   22.2780 C   0  0  0  0  0  2  0  0  0  0  0  0
  -29.3160  -25.2510   21.8410 C   0  0  0  0  0  2  0  0  0  0  0  0
  -29.4640  -24.0660   19.5300 C   0  0  0  0  0  2  0  0  0  0  0  0
  -28.7420  -25.1960   20.4090 C   0  0  0  0  0  3  0  0  0  0  0  0
  -29.7510  -22.7100   20.1960 N   0  0  2  0  0  4  0  0  0  0  0  0
  -30.7570  -22.6520   20.1240 H   0  0  0  0  0  0  0  0  0  0  0  0
  -28.7720  -26.6080   19.9620 O   0  0  0  0  0  0  0  0  0  0  0  0
  -24.6300  -31.6490   23.1000 C   0  0  0  0  0  0  0  0  0  0  0  0
  -27.5930  -27.3580   19.9940 C   0  0  0  0  0  0  0  0  0  0  0  0
  -23.5560  -30.2340   21.3850 C   0  0  0  0  0  3  0  0  0  0  0  0
  -25.1350  -28.8090   19.9650 C   0  0  0  0  0  0  0  0  0  0  0  0
  -26.0730  -30.7090   21.2830 C   0  0  0  0  0  2  0  0  0  0  0  0
  -26.2550  -29.3570   20.6050 C   0  0  0  0  0  0  0  0  0  0  0  0
  -27.4890  -28.6440   20.6080 C   0  0  0  0  0  3  0  0  0  0  0  0
  -26.4480  -26.8490   19.3440 C   0  0  0  0  0  3  0  0  0  0  0  0
  -25.2330  -27.5600   19.3290 C   0  0  0  0  0  3  0  0  0  0  0  0
  -23.8490  -29.6080   19.9940 C   0  0  0  0  0  2  0  0  0  0  0  0
  -24.7680  -30.8810   21.9810 N   0  0  0  0  0  0  0  0  0  0  0  0
  -23.5180  -31.8470   23.6120 O   0  0  0  0  0  0  0  0  0  0  0  0
  -22.9270  -29.1540   22.2960 C   0  0  0  0  0  0  0  0  0  0  0  0
  -21.6100  -28.9290   22.1480 N   0  0  0  0  0  0  0  0  0  0  0  0
  -23.6240  -28.5200   23.0940 O   0  0  0  0  0  0  0  0  0  0  0  0
  -21.1080  -29.4930   21.4770 H   0  0  0  0  0  0  0  0  0  0  0  0
  -18.2640  -27.6390   22.6200 C   0  0  0  0  0  0  0  0  0  0  0  0
  -20.8230  -27.9280   22.8690 C   0  0  0  0  0  3  0  0  0  0  0  0
  -20.9430  -26.5400   22.1970 C   0  0  0  0  0  2  0  0  0  0  0  0
  -19.8300  -26.2610   21.1830 C   0  0  0  0  0  2  0  0  0  0  0  0
  -18.4560  -26.3390   21.8560 C   0  0  0  0  0  2  0  0  0  0  0  0
  -19.3770  -28.3930   23.0810 C   0  0  0  0  0  0  0  0  0  0  0  0
  -19.1470  -29.6090   23.7590 C   0  0  0  0  0  3  0  0  0  0  0  0
  -17.8360  -30.0730   23.9780 C   0  0  0  0  0  3  0  0  0  0  0  0
  -16.7390  -29.3180   23.5320 C   0  0  0  0  0  3  0  0  0  0  0  0
  -16.9540  -28.1020   22.8590 C   0  0  0  0  0  3  0  0  0  0  0  0
  -25.8580  -32.3310   23.7800 C   0  0  0  0  0  3  0  0  0  0  0  0
  -25.4670  -33.7070   24.1170 N   0  0  0  0  0  0  0  0  0  0  0  0
  -25.7720  -34.7870   23.3830 C   0  0  0  0  0  0  0  0  0  0  0  0
  -26.4810  -34.7320   22.3730 O   0  0  0  0  0  0  0  0  0  0  0  0
  -24.8290  -33.8190   24.8920 H   0  0  0  0  0  0  0  0  0  0  0  0
  -23.9740  -36.5030   22.9930 C   0  0  0  0  0  1  0  0  0  0  0  0
  -25.2030  -36.1430   23.8420 C   0  0  0  0  0  3  0  0  0  0  0  0
  -27.2570  -37.1180   24.7680 C   0  0  0  0  0  1  0  0  0  0  0  0
  -26.1860  -37.2460   23.7830 N   0  0  0  0  0  0  0  0  0  0  0  0
  -25.7300  -38.1440   23.9250 H   0  0  0  0  0  0  0  0  0  0  0  0
  -26.3580  -31.5630   25.0650 C   0  0  1  0  0  0  0  0  0  0  0  0
  -25.2310  -31.2390   26.0710 C   0  0  0  0  0  1  0  0  0  0  0  0
  -27.0400  -30.2300   24.6770 C   0  0  0  0  0  1  0  0  0  0  0  0
  -27.4220  -32.4100   25.8030 C   0  0  0  0  0  1  0  0  0  0  0  0
  -29.3440  -21.4710   19.4030 C   0  0  0  0  0  2  0  0  0  0  0  0
  -29.1130  -19.1610   20.6100 C   0  0  0  0  0  3  0  0  0  0  0  0
  -31.2710  -17.9890   19.2860 C   0  0  0  0  0  3  0  0  0  0  0  0
  -29.8690  -20.0100   19.7550 C   0  0  0  0  0  0  0  0  0  0  0  0
  -29.4190  -17.7840   20.8130 C   0  0  0  0  0  0  0  0  0  0  0  0
  -30.9790  -19.3820   19.1040 C   0  0  0  0  0  0  0  0  0  0  0  0
  -30.4880  -17.1480   20.1250 C   0  0  0  0  0  0  0  0  0  0  0  0
  -28.5530  -16.9880   21.7830 C   0  0  0  0  0  1  0  0  0  0  0  0
  -31.8520  -20.1900   18.1590 C   0  0  0  0  0  1  0  0  0  0  0  0
  -31.3090  -14.7180   19.6140 C   0  0  0  0  0  0  0  0  0  0  0  0
  -30.9550  -12.4950   18.5490 C   0  0  0  0  0  2  0  0  0  0  0  0
  -29.9070  -12.6790   17.4310 C   0  0  0  0  0  2  0  0  0  0  0  0
  -28.4730  -12.5690   17.9910 C   0  0  0  0  0  2  0  0  0  0  0  0
  -28.2680  -13.4280   19.2670 C   0  0  0  0  0  3  0  0  0  0  0  0
  -29.4120  -13.1870   20.2800 C   0  0  0  0  0  2  0  0  0  0  0  0
  -30.6830  -13.4980   19.5990 N   0  0  0  0  0  0  0  0  0  0  0  0
  -32.3730  -14.9030   19.0140 O   0  0  0  0  0  0  0  0  0  0  0  0
  -30.6440  -15.7020   20.2900 N   0  0  0  0  0  0  0  0  0  0  0  0
  -29.9560  -15.3040   20.9080 H   0  0  0  0  0  0  0  0  0  0  0  0
  -25.9920  -14.1330   20.2350 C   0  0  0  0  0  0  0  0  0  0  0  0
  -24.9230  -13.4060   20.6820 C   0  0  0  0  0  0  0  0  0  0  0  0
  -25.2950  -12.0330   20.5470 C   0  0  0  0  0  0  0  0  0  0  0  0
  -26.9550  -13.2060   19.8650 N   0  0  0  0  0  0  0  0  0  0  0  0
  -26.5430  -11.9360   20.1070 N   0  0  0  0  0  0  0  0  0  0  0  0
  -24.5160  -10.8080   20.7590 C   0  0  0  0  0  0  0  0  0  0  0  0
  -24.8920   -9.8510   21.7280 C   0  0  0  0  0  3  0  0  0  0  0  0
  -24.1150   -8.6890   21.9270 C   0  0  0  0  0  3  0  0  0  0  0  0
  -22.9510   -8.4730   21.1520 C   0  0  0  0  0  0  0  0  0  0  0  0
  -22.5920   -9.4170   20.1710 C   0  0  0  0  0  3  0  0  0  0  0  0
  -23.3700  -10.5710   19.9740 C   0  0  0  0  0  3  0  0  0  0  0  0
  -22.1520   -7.3590   21.2540 O   0  0  0  0  0  0  0  0  0  0  0  0
  -21.9210   -6.7470   22.4590 C   0  0  0  0  0  0  0  0  0  0  0  0
  -21.3960   -7.4520   23.5650 C   0  0  0  0  0  3  0  0  0  0  0  0
  -21.1090   -6.7690   24.7630 C   0  0  0  0  0  3  0  0  0  0  0  0
  -21.3360   -5.3830   24.8570 C   0  0  0  0  0  0  0  0  0  0  0  0
  -21.8510   -4.6790   23.7550 C   0  0  0  0  0  3  0  0  0  0  0  0
  -22.1400   -5.3590   22.5580 C   0  0  0  0  0  0  0  0  0  0  0  0
  -22.6180   -4.6690   21.4940 F   0  0  0  0  0  0  0  0  0  0  0  0
  -21.0510   -4.7250   26.0050 F   0  0  0  0  0  0  0  0  0  0  0  0
  -23.5920  -13.9460   21.1210 C   0  0  0  0  0  0  0  0  0  0  0  0
  -22.9430  -13.2820   22.0700 N   0  0  0  0  0  0  0  0  0  0  0  0
  -23.1420  -14.9940   20.6560 O   0  0  0  0  0  0  0  0  0  0  0  0
  -23.3240  -12.4360   22.4660 H   0  0  0  0  0  0  0  0  0  0  0  0
  -22.0490  -13.6200   22.4000 H   0  0  0  0  0  0  0  0  0  0  0  0
  -26.2210  -15.4990   20.0940 N   0  0  0  0  0  0  0  0  0  0  0  0
  -25.4980  -16.1850   20.2870 H   0  0  0  0  0  0  0  0  0  0  0  0
  -27.0420  -15.9070   19.6620 H   0  0  0  0  0  0  0  0  0  0  0  0
  1  3  1  0
  1  2  2  0
  4  3  1  0
  5  7  1  0
  5  6  1  0
  6  9  1  0
  6  4  1  0
  7  1  1  0
  7  8  1  1
  9 11  1  0
 10 21  2  0
 11 16  1  0
 12 20  1  0
 12 22  1  0
 13 19  1  0
 13 15  1  0
 14 20  1  0
 15 16  2  0
 15 14  1  0
 17 11  2  0
 18 17  1  0
 18 13  2  0
 19 12  1  0
 20 10  1  0
 22 24  2  0
 23 22  1  0
 25 23  1  0
 26 35  2  0
 26 31  1  0
 27 23  1  0
 27 31  1  0
 28 27  1  0
 29 30  1  0
 29 28  1  0
 30 26  1  0
 31 32  2  0
 32 33  1  0
 34 33  2  0
 35 34  1  0
 36 10  1  0
 36 37  1  0
 36 46  1  0
 37 40  1  0
 38 42  1  0
 38 37  1  0
 39 38  2  0
 42 41  1  0
 44 42  1  0
 44 45  1  0
 44 43  1  0
 46 49  1  1
 46 47  1  0
 48 46  1  0
 50 53  1  0
 50  7  1  0
 51 54  1  0
 52 56  1  0
 53 51  2  0
 54 57  1  0
 55 52  2  0
 55 53  1  0
 56 67  1  0
 56 54  2  0
 58 55  1  0
 59 67  1  0
 60 65  1  0
 61 62  1  0
 61 60  1  0
 63 62  1  0
 63 72  1  0
 63 64  1  0
 65 59  1  0
 65 64  1  0
 66 59  2  0
 67 68  1  0
 69 70  2  0
 70 89  1  0
 71 70  1  0
 71 74  1  0
 72 73  1  0
 72 69  1  0
 73 71  2  0
 74 75  1  0
 75 76  2  0
 77 80  1  0
 77 76  1  0
 78 77  2  0
 79 78  1  0
 79 74  2  0
 80 81  1  0
 81 86  2  0
 81 82  1  0
 82 83  2  0
 83 84  1  0
 84 88  1  0
 85 84  2  0
 86 85  1  0
 87 86  1  0
 89 90  1  0
 90 93  1  0
 90 92  1  0
 91 89  2  0
 94 69  1  0
 94 95  1  0
 96 94  1  0
M  ISO  4   6 101   9 101  59 100  67 100
M  END
>  <TORSDO>  (53) 
F 18

>  <SCORE>  (53) 
-11.485

>  <name>  (53) 
52

>  <ligand_id>  (53) 
52

>  <original_smiles>  (53) 
[H]C([H])=C1C([H])([H])C([H])([H])C([H])(Oc2c([H])c([H])c3c(c2[H])C([H])([H])N(C(=O)C([H])(N([H])C(=O)C([H])(N([H])C([H])([H])[H])C([H])([H])[H])C(C([H])([H])[H])(C([H])([H])[H])C([H])([H])[H])C([H])(C(=O)N([H])C2([H])c4c([H])c([H])c([H])c([H])c4C([H])([H])C([H])([H])C2([H])[H])C3([H])[H])C([H])([H])[N+]1([H])C([H])([H])c1c([H])c(C([H])([H])[H])c(N([H])C(=O)N2C([H])([H])C([H])([H])C([H])([H])C([H])(n3nc(-c4c([H])c([H])c(Oc5c([H])c([H])c(F)c([H])c5F)c([H])c4[H])c(C(=O)N([H])[H])c3N([H])[H])C2([H])[H])c([H])c1C([H])([H])[H]

>  <smiles>  (53) 
[H]C([H])=C1C([H])([H])C([H])([H])C([H])(Oc2c([H])c([H])c3c(c2[H])C([H])([H])N(C(=O)C([H])(N([H])C(=O)C([H])(N([H])C([H])([H])[H])C([H])([H])[H])C(C([H])([H])[H])(C([H])([H])[H])C([H])([H])[H])C([H])(C(=O)N([H])C2([H])c4c([H])c([H])c([H])c([H])c4C([H])([H])C([H])([H])C2([H])[H])C3([H])[H])C([H])([H])[N+]1([H])C([H])([H])c1c([H])c(C([H])([H])[H])c(N([H])C(=O)N2C([H])([H])C([H])([H])C([H])([H])C([H])(n3nc(-c4c([H])c([H])c(Oc5c([H])c([H])c(F)c([H])c5F)c([H])c4[H])c(C(=O)N([H])[H])c3N([H])[H])C2([H])[H])c([H])c1C([H])([H])[H]

$$$$
53:0:0
     RDKit          3D

 97105  0  0  1  0  0  0  0  0999 V2000
  -28.4180  -20.7820   19.9350 C   0  0  0  0  0  0  0  0  0  0  0  0
  -28.5340  -23.2990   19.8710 C   0  0  0  0  0  0  0  0  0  0  0  0
  -29.0920  -21.9610   19.9710 N   0  0  0  0  0  0  0  0  0  0  0  0
  -27.0960  -20.7470   19.7400 N   0  0  0  0  0  4  0  0  0  0  0  0
  -27.3130  -23.5000   19.8560 O   0  0  0  0  0  0  0  0  0  0  0  0
  -30.0900  -21.8150   20.0100 H   0  0  0  0  0  0  0  0  0  0  0  0
  -26.5910  -19.8760   19.7720 H   0  0  0  0  0  0  0  0  0  0  0  0
  -26.5930  -21.6240   19.6820 H   0  0  0  0  0  0  0  0  0  0  0  0
  -28.6330  -18.4080   19.2670 C   0  0  0  0  0  3  0  0  0  0  0  0
  -30.4800  -17.8330   21.2900 C   0  0  0  0  0  3  0  0  0  0  0  0
  -29.0850  -19.4660   20.0920 C   0  0  0  0  0  0  0  0  0  0  0  0
  -30.0490  -19.1730   21.1000 C   0  0  0  0  0  0  0  0  0  0  0  0
  -29.9870  -16.7740   20.4920 C   0  0  0  0  0  0  0  0  0  0  0  0
  -29.0710  -17.0820   19.4600 C   0  0  0  0  0  0  0  0  0  0  0  0
  -30.5790  -20.2440   22.0470 C   0  0  0  0  0  1  0  0  0  0  0  0
  -28.5380  -16.1010   18.6920 F   0  0  0  0  0  0  0  0  0  0  0  0
  -30.8750  -14.5070   20.0560 C   0  0  0  0  0  0  0  0  0  0  0  0
  -30.5560  -12.3340   18.9290 C   0  0  0  0  0  2  0  0  0  0  0  0
  -29.5390  -12.5150   17.7810 C   0  0  0  0  0  2  0  0  0  0  0  0
  -28.0930  -12.3690   18.2940 C   0  0  0  0  0  2  0  0  0  0  0  0
  -27.8230  -13.2130   19.5690 C   0  0  0  0  0  3  0  0  0  0  0  0
  -28.9400  -12.9890   20.6150 C   0  0  0  0  0  2  0  0  0  0  0  0
  -30.2350  -13.3080   19.9840 N   0  0  0  0  0  0  0  0  0  0  0  0
  -31.9110  -14.7600   19.4320 O   0  0  0  0  0  0  0  0  0  0  0  0
  -30.2890  -15.4220   20.8480 N   0  0  0  0  0  0  0  0  0  0  0  0
  -29.6490  -15.0240   21.5170 H   0  0  0  0  0  0  0  0  0  0  0  0
  -25.4840  -13.8270   20.4520 C   0  0  0  0  0  0  0  0  0  0  0  0
  -24.4320  -13.0550   20.8690 C   0  0  0  0  0  0  0  0  0  0  0  0
  -24.8730  -11.7000   20.7670 C   0  0  0  0  0  0  0  0  0  0  0  0
  -26.4990  -12.9410   20.1240 N   0  0  0  0  0  0  0  0  0  0  0  0
  -26.1370  -11.6550   20.3700 N   0  0  0  0  0  0  0  0  0  0  0  0
  -24.1470  -10.4410   20.9710 C   0  0  0  0  0  0  0  0  0  0  0  0
  -24.5690   -9.4920   21.9290 C   0  0  0  0  0  3  0  0  0  0  0  0
  -23.8450   -8.2950   22.1170 C   0  0  0  0  0  3  0  0  0  0  0  0
  -22.6860   -8.0370   21.3460 C   0  0  0  0  0  0  0  0  0  0  0  0
  -22.2840   -8.9750   20.3780 C   0  0  0  0  0  3  0  0  0  0  0  0
  -23.0080  -10.1640   20.1890 C   0  0  0  0  0  3  0  0  0  0  0  0
  -21.9350   -6.8910   21.4420 O   0  0  0  0  0  0  0  0  0  0  0  0
  -21.7810   -6.2290   22.6340 C   0  0  0  0  0  0  0  0  0  0  0  0
  -21.2030   -6.8500   23.7620 C   0  0  0  0  0  3  0  0  0  0  0  0
  -20.9990   -6.1130   24.9440 C   0  0  0  0  0  3  0  0  0  0  0  0
  -21.3640   -4.7540   25.0000 C   0  0  0  0  0  0  0  0  0  0  0  0
  -21.9340   -4.1320   23.8750 C   0  0  0  0  0  3  0  0  0  0  0  0
  -22.1400   -4.8670   22.6960 C   0  0  0  0  0  0  0  0  0  0  0  0
  -22.6700   -4.2580   21.6090 F   0  0  0  0  0  0  0  0  0  0  0  0
  -21.1620   -4.0430   26.1340 F   0  0  0  0  0  0  0  0  0  0  0  0
  -23.0620  -13.5380   21.2510 C   0  0  0  0  0  0  0  0  0  0  0  0
  -22.3900  -12.8300   22.1520 N   0  0  0  0  0  0  0  0  0  0  0  0
  -22.5980  -14.5780   20.7860 O   0  0  0  0  0  0  0  0  0  0  0  0
  -22.7810  -11.9890   22.5510 H   0  0  0  0  0  0  0  0  0  0  0  0
  -21.4750  -13.1350   22.4510 H   0  0  0  0  0  0  0  0  0  0  0  0
  -25.6570  -15.2000   20.3060 N   0  0  0  0  0  0  0  0  0  0  0  0
  -24.9120  -15.8620   20.4950 H   0  0  0  0  0  0  0  0  0  0  0  0
  -26.4830  -15.6300   19.9130 H   0  0  0  0  0  0  0  0  0  0  0  0
  -29.5490  -24.4510   19.7500 C   0  0  0  0  0  2  0  0  0  0  0  0
  -29.0210  -25.7480   19.0660 C   0  0  0  0  0  2  0  0  0  0  0  0
  -28.7000  -26.7890   20.0070 O   0  0  0  0  0  0  0  0  0  0  0  0
  -24.7050  -31.7330   23.1880 C   0  0  0  0  0  0  0  0  0  0  0  0
  -27.4830  -27.4490   19.9800 C   0  0  0  0  0  0  0  0  0  0  0  0
  -23.5430  -30.3500   21.4980 C   0  0  0  0  0  3  0  0  0  0  0  0
  -25.0410  -28.8920   20.0350 C   0  0  0  0  0  0  0  0  0  0  0  0
  -26.0590  -30.7760   21.3260 C   0  0  0  0  0  2  0  0  0  0  0  0
  -26.1810  -29.4270   20.6460 C   0  0  0  0  0  0  0  0  0  0  0  0
  -27.3980  -28.7070   20.6230 C   0  0  0  0  0  3  0  0  0  0  0  0
  -26.3140  -26.9180   19.3860 C   0  0  0  0  0  3  0  0  0  0  0  0
  -25.1010  -27.6350   19.4090 C   0  0  0  0  0  3  0  0  0  0  0  0
  -23.7750  -29.7180   20.0990 C   0  0  0  0  0  2  0  0  0  0  0  0
  -24.7870  -30.9670   22.0640 N   0  0  0  0  0  0  0  0  0  0  0  0
  -23.6140  -31.9620   23.7290 O   0  0  0  0  0  0  0  0  0  0  0  0
  -22.9130  -29.2850   22.4240 C   0  0  0  0  0  0  0  0  0  0  0  0
  -21.5970  -29.0650   22.2740 N   0  0  0  0  0  0  0  0  0  0  0  0
  -23.6060  -28.6610   23.2310 O   0  0  0  0  0  0  0  0  0  0  0  0
  -21.1000  -29.6260   21.5960 H   0  0  0  0  0  0  0  0  0  0  0  0
  -18.2570  -27.7500   22.6840 C   0  0  0  0  0  0  0  0  0  0  0  0
  -20.8000  -28.0840   23.0070 C   0  0  0  0  0  3  0  0  0  0  0  0
  -20.9580  -26.6700   22.4010 C   0  0  0  0  0  2  0  0  0  0  0  0
  -19.8850  -26.3370   21.3600 C   0  0  0  0  0  2  0  0  0  0  0  0
  -18.4880  -26.4230   21.9810 C   0  0  0  0  0  2  0  0  0  0  0  0
  -19.3430  -28.5380   23.1510 C   0  0  0  0  0  0  0  0  0  0  0  0
  -19.0740  -29.7790   23.7660 C   0  0  0  0  0  3  0  0  0  0  0  0
  -17.7510  -30.2350   23.9210 C   0  0  0  0  0  3  0  0  0  0  0  0
  -16.6790  -29.4440   23.4710 C   0  0  0  0  0  3  0  0  0  0  0  0
  -16.9330  -28.2050   22.8580 C   0  0  0  0  0  3  0  0  0  0  0  0
  -25.9710  -32.3770   23.8340 C   0  0  0  0  0  3  0  0  0  0  0  0
  -26.4920  -31.5890   25.0980 C   0  0  1  0  0  0  0  0  0  0  0  0
  -25.3960  -31.3100   26.1520 C   0  0  0  0  0  1  0  0  0  0  0  0
  -27.1040  -30.2320   24.6820 C   0  0  0  0  0  1  0  0  0  0  0  0
  -27.6230  -32.3920   25.7850 C   0  0  0  0  0  1  0  0  0  0  0  0
  -25.6340  -33.7620   24.1860 N   0  0  0  0  0  0  0  0  0  0  0  0
  -25.9440  -34.8320   23.4420 C   0  0  0  0  0  0  0  0  0  0  0  0
  -26.6160  -34.7600   22.4110 O   0  0  0  0  0  0  0  0  0  0  0  0
  -25.0360  -33.8920   24.9890 H   0  0  0  0  0  0  0  0  0  0  0  0
  -24.1720  -36.5870   23.1180 C   0  0  0  0  0  1  0  0  0  0  0  0
  -25.4260  -36.2040   23.9200 C   0  0  0  0  0  3  0  0  0  0  0  0
  -27.5410  -37.1300   24.7560 C   0  0  0  0  0  1  0  0  0  0  0  0
  -26.4320  -37.2820   23.8160 N   0  0  0  0  0  0  0  0  0  0  0  0
  -26.0040  -38.1900   23.9780 H   0  0  0  0  0  0  0  0  0  0  0  0
  1  3  1  0
  1 11  1  0
  2  3  1  0
  3  6  1  0
  4  7  1  0
  4  1  2  0
  5  2  2  0
  8  4  1  0
  9 14  2  0
  9 11  1  0
 11 12  2  0
 12 10  1  0
 12 15  1  0
 13 25  1  0
 13 10  2  0
 14 13  1  0
 16 14  1  0
 17 25  1  0
 18 23  1  0
 19 20  1  0
 19 18  1  0
 21 20  1  0
 21 30  1  0
 21 22  1  0
 23 17  1  0
 23 22  1  0
 24 17  2  0
 25 26  1  0
 27 28  2  0
 28 47  1  0
 29 28  1  0
 29 32  1  0
 30 31  1  0
 30 27  1  0
 31 29  2  0
 32 33  1  0
 33 34  2  0
 35 38  1  0
 35 34  1  0
 36 35  2  0
 37 36  1  0
 37 32  2  0
 38 39  1  0
 39 44  2  0
 39 40  1  0
 40 41  2  0
 41 42  1  0
 42 46  1  0
 43 42  2  0
 44 43  1  0
 45 44  1  0
 47 48  1  0
 48 51  1  0
 48 50  1  0
 49 47  2  0
 52 27  1  0
 52 53  1  0
 54 52  1  0
 55  2  1  0
 56 55  1  0
 56 57  1  0
 58 69  2  0
 59 57  1  0
 59 64  1  0
 60 68  1  0
 60 70  1  0
 61 67  1  0
 61 63  1  0
 62 68  1  0
 63 62  1  0
 64 63  2  0
 65 66  1  0
 65 59  2  0
 66 61  2  0
 67 60  1  0
 68 58  1  0
 70 72  2  0
 71 70  1  0
 73 71  1  0
 74 83  2  0
 74 79  1  0
 75 71  1  0
 75 79  1  0
 76 75  1  0
 77 78  1  0
 77 76  1  0
 78 74  1  0
 79 80  2  0
 80 81  1  0
 82 81  2  0
 83 82  1  0
 84 58  1  0
 84 89  1  0
 84 85  1  0
 85 88  1  1
 85 86  1  0
 87 85  1  0
 89 92  1  0
 90 94  1  0
 90 89  1  0
 91 90  2  0
 94 93  1  0
 96 94  1  0
 96 97  1  0
 96 95  1  0
M  ISO  4  17 100  25 100  56 101  57 101
M  END
>  <TORSDO>  (54) 
F 19

>  <SCORE>  (54) 
-13.961

>  <name>  (54) 
53

>  <ligand_id>  (54) 
53

>  <original_smiles>  (54) 
[H]c1c([H])c([H])c2c(c1[H])C([H])([H])C([H])([H])C([H])([H])C2([H])N([H])C(=O)C1([H])N(C(=O)C([H])(N([H])C(=O)C([H])(N([H])C([H])([H])[H])C([H])([H])[H])C(C([H])([H])[H])(C([H])([H])[H])C([H])([H])[H])C([H])([H])c2c([H])c(OC([H])([H])C([H])([H])C(=O)N([H])C(c3c([H])c(F)c(N([H])C(=O)N4C([H])([H])C([H])([H])C([H])([H])C([H])(n5nc(-c6c([H])c([H])c(Oc7c([H])c([H])c(F)c([H])c7F)c([H])c6[H])c(C(=O)N([H])[H])c5N([H])[H])C4([H])[H])c([H])c3C([H])([H])[H])=[N+]([H])[H])c([H])c([H])c2C1([H])[H]

>  <smiles>  (54) 
[H]c1c([H])c([H])c2c(c1[H])C([H])([H])C([H])([H])C([H])([H])C2([H])N([H])C(=O)C1([H])N(C(=O)C([H])(N([H])C(=O)C([H])(N([H])C([H])([H])[H])C([H])([H])[H])C(C([H])([H])[H])(C([H])([H])[H])C([H])([H])[H])C([H])([H])c2c([H])c(OC([H])([H])C([H])([H])C(=O)N([H])C(c3c([H])c(F)c(N([H])C(=O)N4C([H])([H])C([H])([H])C([H])([H])C([H])(n5nc(-c6c([H])c([H])c(Oc7c([H])c([H])c(F)c([H])c7F)c([H])c6[H])c(C(=O)N([H])[H])c5N([H])[H])C4([H])[H])c([H])c3C([H])([H])[H])=[N+]([H])[H])c([H])c([H])c2C1([H])[H]

$$$$
54:0:0
     RDKit          3D

 95104  0  0  1  0  0  0  0  0999 V2000
  -27.9630  -22.8960   18.8850 C   0  0  0  0  0  0  0  0  0  0  0  0
  -26.8570  -22.3220   18.3760 C   0  0  0  0  0  2  0  0  0  0  0  0
  -28.1720  -24.4220   18.7450 C   0  0  0  0  0  2  0  0  0  0  0  0
  -29.4720  -24.3510   20.8770 C   0  0  0  0  0  2  0  0  0  0  0  0
  -29.9900  -23.0040   20.2330 C   0  0  0  0  0  2  0  0  0  0  0  0
  -28.3360  -25.1110   20.1190 C   0  0  0  0  0  3  0  0  0  0  0  0
  -28.9530  -22.1720   19.5850 N   0  0  0  0  0  0  0  0  0  0  0  0
  -29.9950  -18.1690   18.2980 C   0  0  0  0  0  3  0  0  0  0  0  0
  -29.3290  -20.4780   17.8620 C   0  0  0  0  0  3  0  0  0  0  0  0
  -30.0630  -18.4200   19.6810 C   0  0  0  0  0  0  0  0  0  0  0  0
  -29.3400  -20.8160   19.2370 C   0  0  0  0  0  0  0  0  0  0  0  0
  -29.6400  -19.1870   17.3990 C   0  0  0  0  0  0  0  0  0  0  0  0
  -29.7350  -19.7570   20.1460 C   0  0  0  0  0  0  0  0  0  0  0  0
  -29.5940  -18.8500   15.7060 Cl  0  0  0  0  0  0  0  0  0  0  0  0
  -29.7790  -20.0800   21.8450 Cl  0  0  0  0  0  0  0  0  0  0  0  0
  -30.5740  -17.2530   20.5970 C   0  0  0  0  0  2  0  0  0  0  0  0
  -30.9670  -14.7400   19.9830 C   0  0  0  0  0  0  0  0  0  0  0  0
  -30.6930  -12.4920   18.9540 C   0  0  0  0  0  2  0  0  0  0  0  0
  -29.7050  -12.5960   17.7710 C   0  0  0  0  0  2  0  0  0  0  0  0
  -28.2490  -12.4570   18.2590 C   0  0  0  0  0  2  0  0  0  0  0  0
  -27.9390  -13.3540   19.4880 C   0  0  0  0  0  3  0  0  0  0  0  0
  -29.0350  -13.2200   20.5680 C   0  0  0  0  0  2  0  0  0  0  0  0
  -30.3210  -13.5350   19.9280 N   0  0  0  0  0  0  0  0  0  0  0  0
  -32.1340  -14.8670   19.6020 O   0  0  0  0  0  0  0  0  0  0  0  0
  -30.1960  -15.8250   20.3040 N   0  0  0  0  0  0  0  0  0  0  0  0
  -29.2350  -15.5990   20.5090 H   0  0  0  0  0  0  0  0  0  0  0  0
  -25.5920  -14.0020   20.3020 C   0  0  0  0  0  0  0  0  0  0  0  0
  -24.5240  -13.2500   20.7100 C   0  0  0  0  0  0  0  0  0  0  0  0
  -24.9560  -11.8890   20.6570 C   0  0  0  0  0  0  0  0  0  0  0  0
  -26.6070  -13.1010   20.0250 N   0  0  0  0  0  0  0  0  0  0  0  0
  -26.2320  -11.8250   20.3000 N   0  0  0  0  0  0  0  0  0  0  0  0
  -24.2120  -10.6420   20.8690 C   0  0  0  0  0  0  0  0  0  0  0  0
  -24.6300   -9.6840   21.8200 C   0  0  0  0  0  3  0  0  0  0  0  0
  -23.8870   -8.5010   22.0180 C   0  0  0  0  0  3  0  0  0  0  0  0
  -22.7100   -8.2660   21.2670 C   0  0  0  0  0  0  0  0  0  0  0  0
  -22.3110   -9.2120   20.3060 C   0  0  0  0  0  3  0  0  0  0  0  0
  -23.0540  -10.3860   20.1060 C   0  0  0  0  0  3  0  0  0  0  0  0
  -21.9400   -7.1340   21.3740 O   0  0  0  0  0  0  0  0  0  0  0  0
  -21.8370   -6.4420   22.5540 C   0  0  0  0  0  0  0  0  0  0  0  0
  -21.3340   -7.0430   23.7290 C   0  0  0  0  0  3  0  0  0  0  0  0
  -21.1810   -6.2770   24.9010 C   0  0  0  0  0  3  0  0  0  0  0  0
  -21.5200   -4.9100   24.9000 C   0  0  0  0  0  0  0  0  0  0  0  0
  -22.0150   -4.3090   23.7290 C   0  0  0  0  0  3  0  0  0  0  0  0
  -22.1700   -5.0730   22.5590 C   0  0  0  0  0  0  0  0  0  0  0  0
  -22.6280   -4.4830   21.4280 F   0  0  0  0  0  0  0  0  0  0  0  0
  -21.3650   -4.1710   26.0230 F   0  0  0  0  0  0  0  0  0  0  0  0
  -23.1480  -13.7540   21.0360 C   0  0  0  0  0  0  0  0  0  0  0  0
  -22.4380  -13.0670   21.9230 N   0  0  0  0  0  0  0  0  0  0  0  0
  -22.7140  -14.7930   20.5380 O   0  0  0  0  0  0  0  0  0  0  0  0
  -22.8020  -12.2260   22.3470 H   0  0  0  0  0  0  0  0  0  0  0  0
  -21.5160  -13.3880   22.1850 H   0  0  0  0  0  0  0  0  0  0  0  0
  -25.7770  -15.3690   20.1240 N   0  0  0  0  0  0  0  0  0  0  0  0
  -25.0250  -16.0350   20.2630 H   0  0  0  0  0  0  0  0  0  0  0  0
  -26.6090  -15.7930   19.7350 H   0  0  0  0  0  0  0  0  0  0  0  0
  -28.4850  -26.5890   20.0960 O   0  0  0  0  0  0  0  0  0  0  0  0
  -24.6300  -31.8550   23.1620 C   0  0  0  0  0  0  0  0  0  0  0  0
  -27.3390  -27.3970   20.0620 C   0  0  0  0  0  0  0  0  0  0  0  0
  -23.4620  -30.4650   21.4890 C   0  0  0  0  0  3  0  0  0  0  0  0
  -24.9470  -28.9630   20.0560 C   0  0  0  0  0  0  0  0  0  0  0  0
  -25.9970  -30.8290   21.3340 C   0  0  0  0  0  2  0  0  0  0  0  0
  -26.1040  -29.4650   20.6650 C   0  0  0  0  0  0  0  0  0  0  0  0
  -27.3050  -28.6960   20.6530 C   0  0  0  0  0  3  0  0  0  0  0  0
  -26.1510  -26.9410   19.4440 C   0  0  0  0  0  3  0  0  0  0  0  0
  -24.9710  -27.7030   19.4390 C   0  0  0  0  0  3  0  0  0  0  0  0
  -23.6960  -29.8150   20.1020 C   0  0  0  0  0  2  0  0  0  0  0  0
  -24.7140  -31.0660   22.0510 N   0  0  0  0  0  0  0  0  0  0  0  0
  -23.5370  -32.1070   23.6910 O   0  0  0  0  0  0  0  0  0  0  0  0
  -22.8050  -29.4220   22.4250 C   0  0  0  0  0  0  0  0  0  0  0  0
  -21.4820  -29.2360   22.2860 N   0  0  0  0  0  0  0  0  0  0  0  0
  -23.4850  -28.7870   23.2350 O   0  0  0  0  0  0  0  0  0  0  0  0
  -20.9920  -29.8020   21.6060 H   0  0  0  0  0  0  0  0  0  0  0  0
  -18.1090  -28.0190   22.7560 C   0  0  0  0  0  0  0  0  0  0  0  0
  -20.6660  -28.2780   23.0340 C   0  0  0  0  0  3  0  0  0  0  0  0
  -20.7720  -26.8600   22.4260 C   0  0  0  0  0  2  0  0  0  0  0  0
  -19.6720  -26.5590   21.4040 C   0  0  0  0  0  2  0  0  0  0  0  0
  -18.2880  -26.6860   22.0490 C   0  0  0  0  0  2  0  0  0  0  0  0
  -19.2260  -28.7740   23.2040 C   0  0  0  0  0  0  0  0  0  0  0  0
  -19.0030  -30.0220   23.8230 C   0  0  0  0  0  3  0  0  0  0  0  0
  -17.6970  -30.5170   24.0000 C   0  0  0  0  0  3  0  0  0  0  0  0
  -16.5950  -29.7590   23.5680 C   0  0  0  0  0  3  0  0  0  0  0  0
  -16.8020  -28.5110   22.9530 C   0  0  0  0  0  3  0  0  0  0  0  0
  -25.8970  -32.4940   23.8060 C   0  0  0  0  0  3  0  0  0  0  0  0
  -25.5690  -33.8850   24.1450 N   0  0  0  0  0  0  0  0  0  0  0  0
  -25.8960  -34.9480   23.4000 C   0  0  0  0  0  0  0  0  0  0  0  0
  -26.5800  -34.8610   22.3750 O   0  0  0  0  0  0  0  0  0  0  0  0
  -24.9630  -34.0260   24.9400 H   0  0  0  0  0  0  0  0  0  0  0  0
  -24.1600  -36.7310   23.0350 C   0  0  0  0  0  1  0  0  0  0  0  0
  -25.3880  -36.3260   23.8640 C   0  0  0  0  0  3  0  0  0  0  0  0
  -27.4920  -37.2240   24.7560 C   0  0  0  0  0  1  0  0  0  0  0  0
  -26.4130  -37.3890   23.7860 N   0  0  0  0  0  0  0  0  0  0  0  0
  -25.9930  -38.3040   23.9300 H   0  0  0  0  0  0  0  0  0  0  0  0
  -26.4040  -31.7170   25.0840 C   0  0  1  0  0  0  0  0  0  0  0  0
  -25.2990  -31.4540   26.1340 C   0  0  0  0  0  1  0  0  0  0  0  0
  -27.0130  -30.3520   24.6890 C   0  0  0  0  0  1  0  0  0  0  0  0
  -27.5340  -32.5200   25.7710 C   0  0  0  0  0  1  0  0  0  0  0  0
  1  7  1  0
  2  1  2  0
  3  1  1  0
  3  6  1  0
  5  4  1  0
  6 55  1  0
  6  4  1  0
  7  5  1  0
  8 10  1  0
  9 11  2  0
 10 13  2  0
 10 16  1  0
 11  7  1  0
 11 13  1  0
 12  9  1  0
 12  8  2  0
 13 15  1  0
 14 12  1  0
 17 25  1  0
 18 23  1  0
 19 20  1  0
 19 18  1  0
 21 20  1  0
 21 30  1  0
 21 22  1  0
 23 17  1  0
 23 22  1  0
 24 17  2  0
 25 26  1  0
 25 16  1  0
 27 28  2  0
 28 47  1  0
 29 28  1  0
 29 32  1  0
 30 31  1  0
 30 27  1  0
 31 29  2  0
 32 33  1  0
 33 34  2  0
 35 38  1  0
 35 34  1  0
 36 35  2  0
 37 36  1  0
 37 32  2  0
 38 39  1  0
 39 44  2  0
 39 40  1  0
 40 41  2  0
 42 41  1  0
 42 46  1  0
 43 42  2  0
 44 43  1  0
 45 44  1  0
 47 48  1  0
 48 51  1  0
 48 50  1  0
 49 47  2  0
 52 53  1  0
 52 27  1  0
 54 52  1  0
 56 67  2  0
 57 55  1  0
 57 62  1  0
 58 66  1  0
 58 68  1  0
 59 65  1  0
 59 61  1  0
 60 66  1  0
 61 60  1  0
 62 61  2  0
 63 57  2  0
 64 63  1  0
 64 59  2  0
 65 58  1  0
 66 56  1  0
 68 70  2  0
 69 68  1  0
 71 69  1  0
 72 81  2  0
 72 77  1  0
 73 69  1  0
 73 77  1  0
 74 73  1  0
 75 76  1  0
 75 74  1  0
 76 72  1  0
 77 78  2  0
 78 79  1  0
 80 79  2  0
 81 80  1  0
 82 56  1  0
 82 83  1  0
 82 92  1  0
 83 86  1  0
 84 88  1  0
 84 83  1  0
 85 84  2  0
 88 87  1  0
 90 88  1  0
 90 91  1  0
 90 89  1  0
 92 95  1  1
 92 93  1  0
 94 92  1  0
M  ISO  4   6 101  17 100  25 100  55 101
M  END
>  <TORSDO>  (55) 
F 18

>  <SCORE>  (55) 
-14.461

>  <name>  (55) 
54

>  <ligand_id>  (55) 
54

>  <original_smiles>  (55) 
[H]C([H])=C1N(c2c([H])c(Cl)c([H])c(C([H])([H])N([H])C(=O)N3C([H])([H])C([H])([H])C([H])([H])C([H])(n4nc(-c5c([H])c([H])c(Oc6c([H])c([H])c(F)c([H])c6F)c([H])c5[H])c(C(=O)N([H])[H])c4N([H])[H])C3([H])[H])c2Cl)C([H])([H])C([H])([H])C([H])(Oc2c([H])c([H])c3c(c2[H])C([H])([H])N(C(=O)C([H])(N([H])C(=O)C([H])(N([H])C([H])([H])[H])C([H])([H])[H])C(C([H])([H])[H])(C([H])([H])[H])C([H])([H])[H])C([H])(C(=O)N([H])C2([H])c4c([H])c([H])c([H])c([H])c4C([H])([H])C([H])([H])C2([H])[H])C3([H])[H])C1([H])[H]

>  <smiles>  (55) 
[H]C([H])=C1N(c2c([H])c(Cl)c([H])c(C([H])([H])N([H])C(=O)N3C([H])([H])C([H])([H])C([H])([H])C([H])(n4nc(-c5c([H])c([H])c(Oc6c([H])c([H])c(F)c([H])c6F)c([H])c5[H])c(C(=O)N([H])[H])c4N([H])[H])C3([H])[H])c2Cl)C([H])([H])C([H])([H])C([H])(Oc2c([H])c([H])c3c(c2[H])C([H])([H])N(C(=O)C([H])(N([H])C(=O)C([H])(N([H])C([H])([H])[H])C([H])([H])[H])C(C([H])([H])[H])(C([H])([H])[H])C([H])([H])[H])C([H])(C(=O)N([H])C2([H])c4c([H])c([H])c([H])c([H])c4C([H])([H])C([H])([H])C2([H])[H])C3([H])[H])C1([H])[H]

$$$$
55:0:0
     RDKit          3D

 96104  0  0  1  0  0  0  0  0999 V2000
  -28.9070  -21.2350   20.6860 C   0  0  0  0  0  0  0  0  0  0  0  0
  -28.3690  -23.8130   20.4420 C   0  0  0  0  0  0  0  0  0  0  0  0
  -29.7050  -22.5190   18.7160 C   0  0  0  0  0  1  0  0  0  0  0  0
  -28.9730  -22.4780   20.0080 N   0  0  0  0  0  0  0  0  0  0  0  0
  -28.0560  -21.1370   21.7080 N   0  0  0  0  0  4  0  0  0  0  0  0
  -27.7630  -23.8830   21.5180 O   0  0  0  0  0  0  0  0  0  0  0  0
  -27.9230  -20.2620   22.1910 H   0  0  0  0  0  0  0  0  0  0  0  0
  -27.5610  -21.9670   22.0120 H   0  0  0  0  0  0  0  0  0  0  0  0
  -31.1570  -20.2080   20.3220 C   0  0  0  0  0  3  0  0  0  0  0  0
  -31.6610  -17.8090   20.2710 C   0  0  0  0  0  3  0  0  0  0  0  0
  -29.7720  -19.9750   20.4470 C   0  0  0  0  0  0  0  0  0  0  0  0
  -30.2960  -17.4430   20.4090 C   0  0  0  0  0  0  0  0  0  0  0  0
  -32.0770  -19.1520   20.2310 C   0  0  0  0  0  0  0  0  0  0  0  0
  -29.3630  -18.5670   20.4990 C   0  0  0  0  0  0  0  0  0  0  0  0
  -33.3960  -19.4360   20.1230 F   0  0  0  0  0  0  0  0  0  0  0  0
  -28.0500  -18.2760   20.6730 F   0  0  0  0  0  0  0  0  0  0  0  0
  -30.6190  -14.8300   20.2100 C   0  0  0  0  0  0  0  0  0  0  0  0
  -30.3550  -12.5830   19.1500 C   0  0  0  0  0  2  0  0  0  0  0  0
  -29.3920  -12.6860   17.9470 C   0  0  0  0  0  2  0  0  0  0  0  0
  -27.9350  -12.5030   18.4110 C   0  0  0  0  0  2  0  0  0  0  0  0
  -27.5930  -13.3670   19.6540 C   0  0  0  0  0  3  0  0  0  0  0  0
  -28.6770  -13.2660   20.7480 C   0  0  0  0  0  2  0  0  0  0  0  0
  -29.9580  -13.6240   20.1280 N   0  0  0  0  0  0  0  0  0  0  0  0
  -31.7990  -14.8710   19.8570 O   0  0  0  0  0  0  0  0  0  0  0  0
  -29.9000  -15.9960   20.4780 N   0  0  0  0  0  0  0  0  0  0  0  0
  -28.9300  -15.8430   20.7070 H   0  0  0  0  0  0  0  0  0  0  0  0
  -25.2150  -13.9360   20.4280 C   0  0  0  0  0  0  0  0  0  0  0  0
  -24.1640  -13.1520   20.8170 C   0  0  0  0  0  0  0  0  0  0  0  0
  -24.6390  -11.8050   20.7790 C   0  0  0  0  0  0  0  0  0  0  0  0
  -26.2620  -13.0660   20.1720 N   0  0  0  0  0  0  0  0  0  0  0  0
  -25.9250  -11.7800   20.4490 N   0  0  0  0  0  0  0  0  0  0  0  0
  -23.9280  -10.5350   20.9810 C   0  0  0  0  0  0  0  0  0  0  0  0
  -24.3770   -9.5770   21.9150 C   0  0  0  0  0  3  0  0  0  0  0  0
  -23.6640   -8.3730   22.1060 C   0  0  0  0  0  3  0  0  0  0  0  0
  -22.4870   -8.1200   21.3600 C   0  0  0  0  0  0  0  0  0  0  0  0
  -22.0580   -9.0670   20.4140 C   0  0  0  0  0  3  0  0  0  0  0  0
  -22.7720  -10.2620   20.2220 C   0  0  0  0  0  3  0  0  0  0  0  0
  -21.7450   -6.9680   21.4600 O   0  0  0  0  0  0  0  0  0  0  0  0
  -21.7080   -6.2340   22.6180 C   0  0  0  0  0  0  0  0  0  0  0  0
  -21.2720   -6.7930   23.8400 C   0  0  0  0  0  3  0  0  0  0  0  0
  -21.1830   -5.9840   24.9910 C   0  0  0  0  0  3  0  0  0  0  0  0
  -21.5180   -4.6180   24.9210 C   0  0  0  0  0  0  0  0  0  0  0  0
  -21.9450   -4.0590   23.7040 C   0  0  0  0  0  3  0  0  0  0  0  0
  -22.0360   -4.8650   22.5550 C   0  0  0  0  0  0  0  0  0  0  0  0
  -22.4280   -4.3160   21.3800 F   0  0  0  0  0  0  0  0  0  0  0  0
  -21.4240   -3.8390   26.0240 F   0  0  0  0  0  0  0  0  0  0  0  0
  -22.7670  -13.6160   21.1120 C   0  0  0  0  0  0  0  0  0  0  0  0
  -22.0600  -12.9120   21.9880 N   0  0  0  0  0  0  0  0  0  0  0  0
  -22.3130  -14.6390   20.6000 O   0  0  0  0  0  0  0  0  0  0  0  0
  -22.4420  -12.0830   22.4220 H   0  0  0  0  0  0  0  0  0  0  0  0
  -21.1240  -13.2040   22.2290 H   0  0  0  0  0  0  0  0  0  0  0  0
  -25.3640  -15.3080   20.2490 N   0  0  0  0  0  0  0  0  0  0  0  0
  -24.5920  -15.9540   20.3810 H   0  0  0  0  0  0  0  0  0  0  0  0
  -26.1960  -15.7610   19.8940 H   0  0  0  0  0  0  0  0  0  0  0  0
  -28.4840  -25.1370   19.5340 C   0  0  0  0  0  2  0  0  0  0  0  0
  -28.3680  -26.4890   20.1850 O   0  0  0  0  0  0  0  0  0  0  0  0
  -24.6310  -31.8940   23.2160 C   0  0  0  0  0  0  0  0  0  0  0  0
  -27.2360  -27.3310   20.1120 C   0  0  0  0  0  0  0  0  0  0  0  0
  -23.4230  -30.5010   21.5740 C   0  0  0  0  0  3  0  0  0  0  0  0
  -24.8690  -28.9620   20.1240 C   0  0  0  0  0  0  0  0  0  0  0  0
  -25.9630  -30.8220   21.3780 C   0  0  0  0  0  2  0  0  0  0  0  0
  -26.0400  -29.4450   20.7180 C   0  0  0  0  0  0  0  0  0  0  0  0
  -27.2230  -28.6410   20.7000 C   0  0  0  0  0  3  0  0  0  0  0  0
  -26.0340  -26.9040   19.5050 C   0  0  0  0  0  3  0  0  0  0  0  0
  -24.8690  -27.7000   19.5110 C   0  0  0  0  0  3  0  0  0  0  0  0
  -23.6310  -29.8350   20.1880 C   0  0  0  0  0  2  0  0  0  0  0  0
  -24.6920  -31.0910   22.1130 N   0  0  0  0  0  0  0  0  0  0  0  0
  -23.5500  -32.1620   23.7600 O   0  0  0  0  0  0  0  0  0  0  0  0
  -22.7690  -29.4760   22.5330 C   0  0  0  0  0  0  0  0  0  0  0  0
  -21.4420  -29.2960   22.4160 N   0  0  0  0  0  0  0  0  0  0  0  0
  -23.4550  -28.8480   23.3430 O   0  0  0  0  0  0  0  0  0  0  0  0
  -20.9480  -29.8580   21.7380 H   0  0  0  0  0  0  0  0  0  0  0  0
  -18.0730  -28.0820   22.9330 C   0  0  0  0  0  0  0  0  0  0  0  0
  -20.6320  -28.3500   23.1870 C   0  0  0  0  0  3  0  0  0  0  0  0
  -20.7340  -26.9230   22.6010 C   0  0  0  0  0  2  0  0  0  0  0  0
  -19.6270  -26.6030   21.5920 C   0  0  0  0  0  2  0  0  0  0  0  0
  -18.2490  -26.7390   22.2460 C   0  0  0  0  0  2  0  0  0  0  0  0
  -19.1910  -28.8470   23.3590 C   0  0  0  0  0  0  0  0  0  0  0  0
  -18.9720  -30.1030   23.9630 C   0  0  0  0  0  3  0  0  0  0  0  0
  -17.6660  -30.5970   24.1430 C   0  0  0  0  0  3  0  0  0  0  0  0
  -16.5620  -29.8310   23.7320 C   0  0  0  0  0  3  0  0  0  0  0  0
  -16.7660  -28.5750   23.1330 C   0  0  0  0  0  3  0  0  0  0  0  0
  -25.9140  -32.5290   23.8360 C   0  0  0  0  0  3  0  0  0  0  0  0
  -25.6010  -33.9270   24.1720 N   0  0  0  0  0  0  0  0  0  0  0  0
  -25.9230  -34.9840   23.4150 C   0  0  0  0  0  0  0  0  0  0  0  0
  -26.5840  -34.8870   22.3780 O   0  0  0  0  0  0  0  0  0  0  0  0
  -25.0160  -34.0760   24.9810 H   0  0  0  0  0  0  0  0  0  0  0  0
  -24.1910  -36.7770   23.0770 C   0  0  0  0  0  1  0  0  0  0  0  0
  -25.4350  -36.3690   23.8820 C   0  0  0  0  0  3  0  0  0  0  0  0
  -27.5710  -37.2550   24.7100 C   0  0  0  0  0  1  0  0  0  0  0  0
  -26.4650  -37.4260   23.7710 N   0  0  0  0  0  0  0  0  0  0  0  0
  -26.0590  -38.3440   23.9220 H   0  0  0  0  0  0  0  0  0  0  0  0
  -26.4370  -31.7590   25.1090 C   0  0  1  0  0  0  0  0  0  0  0  0
  -25.3490  -31.5190   26.1820 C   0  0  0  0  0  1  0  0  0  0  0  0
  -27.0210  -30.3820   24.7170 C   0  0  0  0  0  1  0  0  0  0  0  0
  -27.5860  -32.5560   25.7690 C   0  0  0  0  0  1  0  0  0  0  0  0
  1  5  2  0
  2  6  2  0
  3  4  1  0
  4  2  1  0
  4  1  1  0
  5  8  1  0
  5  7  1  0
  9 11  1  0
 10 12  2  0
 11 14  2  0
 11  1  1  0
 12 25  1  0
 12 14  1  0
 13 10  1  0
 13  9  2  0
 14 16  1  0
 15 13  1  0
 17 25  1  0
 18 23  1  0
 19 20  1  0
 19 18  1  0
 21 20  1  0
 21 30  1  0
 21 22  1  0
 23 17  1  0
 23 22  1  0
 24 17  2  0
 25 26  1  0
 27 28  2  0
 28 47  1  0
 29 28  1  0
 29 32  1  0
 30 27  1  0
 30 31  1  0
 31 29  2  0
 32 33  1  0
 33 34  2  0
 35 38  1  0
 35 34  1  0
 36 35  2  0
 37 36  1  0
 37 32  2  0
 38 39  1  0
 39 40  1  0
 40 41  2  0
 42 41  1  0
 42 46  1  0
 43 42  2  0
 44 39  2  0
 44 43  1  0
 45 44  1  0
 47 48  1  0
 48 51  1  0
 48 50  1  0
 49 47  2  0
 52 53  1  0
 52 27  1  0
 54 52  1  0
 55 56  1  0
 55  2  1  0
 57 68  2  0
 58 56  1  0
 58 63  1  0
 59 67  1  0
 59 69  1  0
 60 66  1  0
 60 62  1  0
 61 67  1  0
 62 61  1  0
 63 62  2  0
 64 65  1  0
 64 58  2  0
 65 60  2  0
 66 59  1  0
 67 57  1  0
 69 71  2  0
 70 69  1  0
 72 70  1  0
 73 82  2  0
 73 78  1  0
 74 70  1  0
 74 78  1  0
 75 74  1  0
 76 77  1  0
 76 75  1  0
 77 73  1  0
 78 79  2  0
 79 80  1  0
 81 80  2  0
 82 81  1  0
 83 57  1  0
 83 84  1  0
 83 93  1  0
 84 87  1  0
 85 89  1  0
 85 84  1  0
 86 85  2  0
 89 88  1  0
 91 89  1  0
 91 92  1  0
 91 90  1  0
 93 96  1  1
 93 94  1  0
 95 93  1  0
M  ISO  4  17 100  25 100  55 101  56 101
M  END
>  <TORSDO>  (56) 
F 18

>  <SCORE>  (56) 
-15.054

>  <name>  (56) 
55

>  <ligand_id>  (56) 
55

>  <original_smiles>  (56) 
[H]c1c([H])c([H])c2c(c1[H])C([H])([H])C([H])([H])C([H])([H])C2([H])N([H])C(=O)C1([H])N(C(=O)C([H])(N([H])C(=O)C([H])(N([H])C([H])([H])[H])C([H])([H])[H])C(C([H])([H])[H])(C([H])([H])[H])C([H])([H])[H])C([H])([H])c2c([H])c(OC([H])([H])C(=O)N(C(c3c([H])c(F)c([H])c(N([H])C(=O)N4C([H])([H])C([H])([H])C([H])([H])C([H])(n5nc(-c6c([H])c([H])c(Oc7c([H])c([H])c(F)c([H])c7F)c([H])c6[H])c(C(=O)N([H])[H])c5N([H])[H])C4([H])[H])c3F)=[N+]([H])[H])C([H])([H])[H])c([H])c([H])c2C1([H])[H]

>  <smiles>  (56) 
[H]c1c([H])c([H])c2c(c1[H])C([H])([H])C([H])([H])C([H])([H])C2([H])N([H])C(=O)C1([H])N(C(=O)C([H])(N([H])C(=O)C([H])(N([H])C([H])([H])[H])C([H])([H])[H])C(C([H])([H])[H])(C([H])([H])[H])C([H])([H])[H])C([H])([H])c2c([H])c(OC([H])([H])C(=O)N(C(c3c([H])c(F)c([H])c(N([H])C(=O)N4C([H])([H])C([H])([H])C([H])([H])C([H])(n5nc(-c6c([H])c([H])c(Oc7c([H])c([H])c(F)c([H])c7F)c([H])c6[H])c(C(=O)N([H])[H])c5N([H])[H])C4([H])[H])c3F)=[N+]([H])[H])C([H])([H])[H])c([H])c([H])c2C1([H])[H]

$$$$
56:0:0
     RDKit          3D

 97103  0  0  1  0  0  0  0  0999 V2000
  -23.6670  -25.6570   18.5560 C   0  0  0  0  0  2  0  0  0  0  0  0
  -24.3510  -26.8090   13.9080 C   0  0  0  0  0  1  0  0  0  0  0  0
  -27.0900  -25.7160   14.2300 C   0  0  0  0  0 15  0  0  0  0  0  0
  -23.7080  -26.6170   15.7580 C   0  0  0  0  0  2  0  0  0  0  0  0
  -25.9830  -25.3890   17.1560 C   0  0  0  0  0  2  0  0  0  0  0  0
  -27.4610  -25.6360   16.2720 C   0  0  0  0  0  2  0  0  0  0  0  0
  -24.5660  -26.1790   17.2100 N   0  0  2  0  0  4  0  0  0  0  0  0
  -24.8680  -27.0910   17.5200 H   0  0  0  0  0  0  0  0  0  0  0  0
  -28.3690  -26.4850   17.5830 O   0  0  0  0  0  0  0  0  0  0  0  0
  -33.8530  -27.8490   18.3470 C   0  0  0  0  0  0  0  0  0  0  0  0
  -28.1570  -26.9170   18.9450 C   0  0  0  0  0  3  0  0  0  0  0  0
  -32.5760  -25.7870   18.1410 C   0  0  0  0  0  3  0  0  0  0  0  0
  -30.3410  -25.6000   19.3900 C   0  0  0  0  0  3  0  0  0  0  0  0
  -31.8150  -27.5800   19.7820 C   0  0  0  0  0  2  0  0  0  0  0  0
  -30.4330  -26.9800   19.5940 C   0  0  0  0  0  3  0  0  0  0  0  0
  -29.2250  -27.7000   19.4970 C   0  0  0  0  0  2  0  0  0  0  0  0
  -27.9190  -25.7410   19.5970 C   0  0  0  0  0  2  0  0  0  0  0  0
  -29.0870  -24.9620   19.5560 C   0  0  0  0  0  2  0  0  0  0  0  0
  -31.5890  -24.8890   18.9620 C   0  0  0  0  0  2  0  0  0  0  0  0
  -32.8060  -27.1000   18.7890 N   0  0  0  0  0  0  0  0  0  0  0  0
  -34.6460  -27.4160   17.4960 O   0  0  0  0  0  0  0  0  0  0  0  0
  -32.1340  -26.1010   16.6980 C   0  0  0  0  0  0  0  0  0  0  0  0
  -32.6460  -27.1420   16.0910 N   0  0  0  0  0  0  0  0  0  0  0  0
  -31.2660  -25.4480   16.1320 O   0  0  0  0  0  0  0  0  0  0  0  0
  -33.2780  -27.7500   16.5920 H   0  0  0  0  0  0  0  0  0  0  0  0
  -31.7410  -29.8680   13.9930 C   0  0  0  0  0  0  0  0  0  0  0  0
  -32.6540  -27.2420   14.6350 C   0  0  0  0  0  3  0  0  0  0  0  0
  -34.3900  -27.0660   13.8190 C   0  0  0  0  0  1  0  0  0  0  0  0
  -34.9250  -29.6470   13.1650 C   0  0  0  0  0  1  0  0  0  0  0  0
  -33.2650  -30.5490   13.5440 C   0  0  0  0  0  2  0  0  0  0  0  0
  -31.5460  -28.4990   14.5280 C   0  0  0  0  0  0  0  0  0  0  0  0
  -30.2450  -28.1930   15.1020 C   0  0  0  0  0  3  0  0  0  0  0  0
  -29.1090  -29.0360   15.0840 C   0  0  0  0  0  3  0  0  0  0  0  0
  -29.2210  -30.2570   14.4090 C   0  0  0  0  0  3  0  0  0  0  0  0
  -30.4980  -30.6430   13.8860 C   0  0  0  0  0  3  0  0  0  0  0  0
  -34.1100  -29.2670   18.9090 C   0  0  0  0  0  3  0  0  0  0  0  0
  -33.9320  -30.4080   17.8340 C   0  0  1  0  0  0  0  0  0  0  0  0
  -34.8920  -30.2930   16.6290 C   0  0  0  0  0  1  0  0  0  0  0  0
  -32.4880  -30.4310   17.2810 C   0  0  0  0  0  1  0  0  0  0  0  0
  -34.1660  -31.7800   18.5070 C   0  0  0  0  0  1  0  0  0  0  0  0
  -35.4800  -29.2530   19.4310 N   0  0  0  0  0  0  0  0  0  0  0  0
  -35.7930  -29.0680   20.7170 C   0  0  0  0  0  0  0  0  0  0  0  0
  -34.9400  -28.9880   21.6070 O   0  0  0  0  0  0  0  0  0  0  0  0
  -36.2250  -29.2600   18.7490 H   0  0  0  0  0  0  0  0  0  0  0  0
  -37.6460  -27.5020   21.3810 C   0  0  0  0  0  1  0  0  0  0  0  0
  -37.2870  -28.9650   21.0730 C   0  0  0  0  0  3  0  0  0  0  0  0
  -37.6730  -31.2500   21.8800 C   0  0  0  0  0  1  0  0  0  0  0  0
  -37.6750  -29.8270   22.2100 N   0  0  0  0  0  0  0  0  0  0  0  0
  -38.6010  -29.5810   22.5480 H   0  0  0  0  0  0  0  0  0  0  0  0
  -24.5930  -24.8150   22.7370 C   0  0  0  0  0  3  0  0  0  0  0  0
  -23.3090  -26.7190   21.2830 C   0  0  0  0  0  3  0  0  0  0  0  0
  -24.2420  -25.8970   23.6650 C   0  0  0  0  0  0  0  0  0  0  0  0
  -23.6580  -25.6410   20.3500 C   0  0  0  0  0  0  0  0  0  0  0  0
  -24.3360  -24.6870   21.2590 C   0  0  0  0  0  0  0  0  0  0  0  0
  -23.5480  -26.8310   22.7630 C   0  0  0  0  0  0  0  0  0  0  0  0
  -23.0440  -27.9420   23.3490 F   0  0  0  0  0  0  0  0  0  0  0  0
  -24.1710  -23.0240   19.5810 C   0  0  0  0  0  1  0  0  0  0  0  0
  -24.8540  -23.5340   20.7220 O   0  0  0  0  0  0  0  0  0  0  0  0
  -24.2760  -25.9610   25.4560 C   0  0  0  0  0  2  0  0  0  0  0  0
  -25.6530  -25.9130   28.1640 C   0  0  0  0  0  0  0  0  0  0  0  0
  -26.4980  -26.9260   30.4330 C   0  0  0  0  0  2  0  0  0  0  0  0
  -25.7540  -28.2590   30.7310 C   0  0  0  0  0  2  0  0  0  0  0  0
  -26.3100  -29.4160   29.8730 C   0  0  0  0  0  2  0  0  0  0  0  0
  -26.5590  -28.9580   28.4160 C   0  0  0  0  0  3  0  0  0  0  0  0
  -27.3990  -27.6820   28.3600 C   0  0  0  0  0  2  0  0  0  0  0  0
  -26.5310  -26.6900   28.9410 N   0  0  0  0  0  0  0  0  0  0  0  0
  -25.1610  -24.9820   28.8450 O   0  0  0  0  0  0  0  0  0  0  0  0
  -25.3150  -26.3150   26.7450 N   0  0  0  0  0  0  0  0  0  0  0  0
  -25.9090  -27.0890   26.4840 H   0  0  0  0  0  0  0  0  0  0  0  0
  -26.7650  -30.3470   26.3100 C   0  0  0  0  0  0  0  0  0  0  0  0
  -27.6300  -31.3420   25.9600 C   0  0  0  0  0  0  0  0  0  0  0  0
  -28.5330  -31.4860   27.0580 C   0  0  0  0  0  0  0  0  0  0  0  0
  -27.1550  -29.9590   27.5760 N   0  0  0  0  0  0  0  0  0  0  0  0
  -28.2700  -30.5940   27.9990 N   0  0  0  0  0  0  0  0  0  0  0  0
  -29.5900  -32.4680   27.3030 C   0  0  0  0  0  0  0  0  0  0  0  0
  -30.9510  -32.1560   27.0930 C   0  0  0  0  0  3  0  0  0  0  0  0
  -31.9470  -33.1280   27.3230 C   0  0  0  0  0  3  0  0  0  0  0  0
  -31.5840  -34.4220   27.7650 C   0  0  0  0  0  0  0  0  0  0  0  0
  -30.2290  -34.7160   27.9980 C   0  0  0  0  0  3  0  0  0  0  0  0
  -29.2400  -33.7480   27.7730 C   0  0  0  0  0  3  0  0  0  0  0  0
  -32.4840  -35.4240   28.0370 O   0  0  0  0  0  0  0  0  0  0  0  0
  -33.3120  -35.9280   27.0670 C   0  0  0  0  0  0  0  0  0  0  0  0
  -32.8110  -36.6340   25.9530 C   0  0  0  0  0  3  0  0  0  0  0  0
  -33.7030  -37.1960   25.0170 C   0  0  0  0  0  3  0  0  0  0  0  0
  -35.0930  -37.0590   25.1980 C   0  0  0  0  0  0  0  0  0  0  0  0
  -35.5920  -36.3600   26.3110 C   0  0  0  0  0  3  0  0  0  0  0  0
  -34.7030  -35.7980   27.2450 C   0  0  0  0  0  0  0  0  0  0  0  0
  -35.1890  -35.1430   28.3260 F   0  0  0  0  0  0  0  0  0  0  0  0
  -35.9500  -37.6050   24.3050 F   0  0  0  0  0  0  0  0  0  0  0  0
  -27.5540  -32.1860   24.7240 C   0  0  0  0  0  0  0  0  0  0  0  0
  -28.6970  -32.6180   24.2080 N   0  0  0  0  0  0  0  0  0  0  0  0
  -26.4750  -32.4270   24.1840 O   0  0  0  0  0  0  0  0  0  0  0  0
  -29.5820  -32.4000   24.6420 H   0  0  0  0  0  0  0  0  0  0  0  0
  -28.6900  -33.1740   23.3640 H   0  0  0  0  0  0  0  0  0  0  0  0
  -25.6710  -29.7610   25.6760 N   0  0  0  0  0  0  0  0  0  0  0  0
  -25.3310  -30.1330   24.7970 H   0  0  0  0  0  0  0  0  0  0  0  0
  -24.9790  -29.1970   26.1510 H   0  0  0  0  0  0  0  0  0  0  0  0
  1 53  1  0
  2  4  1  0
  4  7  1  0
  5  7  1  0
  6  5  1  0
  6  9  1  0
  7  8  1  1
  7  1  1  0
 10 20  1  0
 11  9  1  0
 11 16  1  0
 11 17  1  0
 12 22  1  0
 12 20  1  0
 12 19  1  0
 13 19  1  0
 13 18  1  0
 13 15  1  0
 15 16  1  0
 15 14  1  0
 18 17  1  0
 20 14  1  0
 21 10  2  0
 23 25  1  0
 23 22  1  0
 24 22  2  0
 26 31  1  0
 27 28  1  0
 27 23  1  0
 29 30  1  0
 30 26  1  0
 31 27  1  0
 31 32  2  0
 33 32  1  0
 34 33  2  0
 35 26  2  0
 35 34  1  0
 36 10  1  0
 36 41  1  0
 37 40  1  1
 37 36  1  0
 38 37  1  0
 39 37  1  0
 41 42  1  0
 42 46  1  0
 42 43  2  0
 44 41  1  0
 46 45  1  0
 46 48  1  0
 47 48  1  0
 48 49  1  0
 50 52  1  0
 51 55  1  0
 52 59  1  0
 53 54  1  0
 53 51  2  0
 54 50  2  0
 55 56  1  0
 55 52  2  0
 57 58  1  0
 58 54  1  0
 59 68  1  0
 60 67  2  0
 60 66  1  0
 61 62  1  0
 63 62  1  0
 64 73  1  0
 64 63  1  0
 65 64  1  0
 65 66  1  0
 66 61  1  0
 68 60  1  0
 69 68  1  0
 70 73  1  0
 71 70  2  0
 71 72  1  0
 72 75  1  0
 72 74  2  0
 73 74  1  0
 75 80  1  0
 76 75  2  0
 76 77  1  0
 77 78  2  0
 78 79  1  0
 78 81  1  0
 80 79  2  0
 82 87  1  0
 82 81  1  0
 83 82  2  0
 84 85  2  0
 84 83  1  0
 85 86  1  0
 86 87  2  0
 87 88  1  0
 89 85  1  0
 90 71  1  0
 91 93  1  0
 91 90  1  0
 92 90  2  0
 94 91  1  0
 95 97  1  0
 95 70  1  0
 96 95  1  0
M  ISO  4   6 101   9 101  60 100  68 100
M  END
>  <TORSDO>  (57) 
F 20

>  <SCORE>  (57) 
-6.832

>  <name>  (57) 
56

>  <ligand_id>  (57) 
56

>  <original_smiles>  (57) 
[H]c1c([H])c([H])c2c(c1[H])C([H])([H])C([H])([H])C([H])([H])C2([H])N([H])C(=O)C1([H])N(C(=O)C([H])(N([H])C(=O)C([H])(N([H])C([H])([H])[H])C([H])([H])[H])C(C([H])([H])[H])(C([H])([H])[H])C([H])([H])[H])C([H])([H])c2c([H])c(OC3([H])C([H])([H])C([H])([H])C([H])([H])[N+]([H])(C([H])([H])c4c([H])c(F)c(C([H])([H])N([H])C(=O)N5C([H])([H])C([H])([H])C([H])([H])C([H])(n6nc(-c7c([H])c([H])c(Oc8c([H])c([H])c(F)c([H])c8F)c([H])c7[H])c(C(=O)N([H])[H])c6N([H])[H])C5([H])[H])c([H])c4OC([H])([H])[H])C3([H])[H])c([H])c([H])c2C1([H])[H]

>  <smiles>  (57) 
[H]c1c([H])c([H])c2c(c1[H])C([H])([H])C([H])([H])C([H])([H])C2([H])N([H])C(=O)C1([H])N(C(=O)C([H])(N([H])C(=O)C([H])(N([H])C([H])([H])[H])C([H])([H])[H])C(C([H])([H])[H])(C([H])([H])[H])C([H])([H])[H])C([H])([H])c2c([H])c(OC3([H])C([H])([H])C([H])([H])C([H])([H])[N+]([H])(C([H])([H])c4c([H])c(F)c(C([H])([H])N([H])C(=O)N5C([H])([H])C([H])([H])C([H])([H])C([H])(n6nc(-c7c([H])c([H])c(Oc8c([H])c([H])c(F)c([H])c8F)c([H])c7[H])c(C(=O)N([H])[H])c6N([H])[H])C5([H])[H])c([H])c4OC([H])([H])[H])C3([H])[H])c([H])c([H])c2C1([H])[H]

$$$$
57:0:0
     RDKit          3D

104114  0  0  1  0  0  0  0  0999 V2000
  -28.6890  -20.0540   19.7740 C   0  0  0  0  0  3  0  0  0  0  0  0
  -29.5120  -18.3890   17.6830 C   0  0  0  0  0  3  0  0  0  0  0  0
  -28.9240  -18.6900   20.0350 C   0  0  0  0  0  0  0  0  0  0  0  0
  -28.8540  -20.5950   18.4770 C   0  0  0  0  0  0  0  0  0  0  0  0
  -29.3520  -17.8490   18.9780 C   0  0  0  0  0  0  0  0  0  0  0  0
  -29.2880  -19.7510   17.4380 C   0  0  0  0  0  0  0  0  0  0  0  0
  -28.6850  -18.1700   21.4430 C   0  0  0  0  0  1  0  0  0  0  0  0
  -29.4860  -20.2410   16.1900 F   0  0  0  0  0  0  0  0  0  0  0  0
  -28.5440  -22.0540   18.1500 C   0  0  0  0  0  2  0  0  0  0  0  0
  -28.9440  -23.7630   19.9040 C   0  0  0  0  0  0  0  0  0  0  0  0
  -26.4440  -22.9780   21.1330 C   0  0  0  0  0  2  0  0  0  0  0  0
  -26.9380  -24.3820   21.4670 C   0  0  0  0  0  2  0  0  0  0  0  0
  -26.6920  -22.7260   19.6370 C   0  0  0  0  0  2  0  0  0  0  0  0
  -28.4360  -24.5680   21.1290 C   0  0  0  0  0  3  0  0  0  0  0  0
  -28.1110  -22.8860   19.2840 N   0  0  0  0  0  0  0  0  0  0  0  0
  -30.1160  -23.9150   19.5450 O   0  0  0  0  0  0  0  0  0  0  0  0
  -28.9000  -26.0500   21.1150 C   0  0  0  0  0  2  0  0  0  0  0  0
  -28.5500  -26.7560   19.9180 O   0  0  0  0  0  0  0  0  0  0  0  0
  -24.6400  -31.7670   23.1660 C   0  0  0  0  0  0  0  0  0  0  0  0
  -27.3910  -27.4880   19.9750 C   0  0  0  0  0  0  0  0  0  0  0  0
  -23.4760  -30.3990   21.4620 C   0  0  0  0  0  3  0  0  0  0  0  0
  -24.9760  -28.9390   20.0040 C   0  0  0  0  0  0  0  0  0  0  0  0
  -25.9970  -30.8050   21.3150 C   0  0  0  0  0  2  0  0  0  0  0  0
  -26.1120  -29.4560   20.6400 C   0  0  0  0  0  0  0  0  0  0  0  0
  -27.3200  -28.7260   20.6500 C   0  0  0  0  0  3  0  0  0  0  0  0
  -26.2570  -27.0030   19.2970 C   0  0  0  0  0  3  0  0  0  0  0  0
  -25.0370  -27.7030   19.3390 C   0  0  0  0  0  3  0  0  0  0  0  0
  -23.7170  -29.7740   20.0620 C   0  0  0  0  0  2  0  0  0  0  0  0
  -24.7210  -31.0050   22.0390 N   0  0  0  0  0  0  0  0  0  0  0  0
  -23.5510  -32.0030   23.7050 O   0  0  0  0  0  0  0  0  0  0  0  0
  -22.8330  -29.3350   22.3800 C   0  0  0  0  0  0  0  0  0  0  0  0
  -21.5050  -29.1660   22.2580 N   0  0  0  0  0  0  0  0  0  0  0  0
  -23.5210  -28.6700   23.1560 O   0  0  0  0  0  0  0  0  0  0  0  0
  -21.0130  -29.7570   21.6050 H   0  0  0  0  0  0  0  0  0  0  0  0
  -18.1190  -28.0170   22.7800 C   0  0  0  0  0  0  0  0  0  0  0  0
  -20.6890  -28.2000   22.9920 C   0  0  0  0  0  3  0  0  0  0  0  0
  -20.7410  -26.8070   22.3220 C   0  0  0  0  0  2  0  0  0  0  0  0
  -19.6030  -26.5760   21.3210 C   0  0  0  0  0  2  0  0  0  0  0  0
  -18.2450  -26.7100   22.0150 C   0  0  0  0  0  2  0  0  0  0  0  0
  -19.2680  -28.7240   23.2250 C   0  0  0  0  0  0  0  0  0  0  0  0
  -19.0970  -29.9510   23.9020 C   0  0  0  0  0  3  0  0  0  0  0  0
  -17.8120  -30.4710   24.1380 C   0  0  0  0  0  3  0  0  0  0  0  0
  -16.6760  -29.7580   23.7120 C   0  0  0  0  0  3  0  0  0  0  0  0
  -16.8310  -28.5320   23.0390 C   0  0  0  0  0  3  0  0  0  0  0  0
  -25.9120  -32.3950   23.8160 C   0  0  0  0  0  3  0  0  0  0  0  0
  -25.5910  -33.7860   24.1660 N   0  0  0  0  0  0  0  0  0  0  0  0
  -25.9100  -34.8490   23.4170 C   0  0  0  0  0  0  0  0  0  0  0  0
  -26.5770  -34.7640   22.3810 O   0  0  0  0  0  0  0  0  0  0  0  0
  -24.9970  -33.9240   24.9700 H   0  0  0  0  0  0  0  0  0  0  0  0
  -24.1480  -36.6160   23.1030 C   0  0  0  0  0  1  0  0  0  0  0  0
  -25.4080  -36.2270   23.8900 C   0  0  0  0  0  3  0  0  0  0  0  0
  -27.5310  -37.1520   24.7030 C   0  0  0  0  0  1  0  0  0  0  0  0
  -26.4200  -37.2960   23.7680 N   0  0  0  0  0  0  0  0  0  0  0  0
  -25.9970  -38.2090   23.9150 H   0  0  0  0  0  0  0  0  0  0  0  0
  -26.4210  -31.6010   25.0810 C   0  0  1  0  0  0  0  0  0  0  0  0
  -25.3130  -31.3160   26.1220 C   0  0  0  0  0  1  0  0  0  0  0  0
  -27.0310  -30.2400   24.6650 C   0  0  0  0  0  1  0  0  0  0  0  0
  -27.5490  -32.3950   25.7810 C   0  0  0  0  0  1  0  0  0  0  0  0
  -29.6490  -16.3660   19.1720 C   0  0  0  0  0  2  0  0  0  0  0  0
  -31.4720  -14.7190   19.4720 C   0  0  0  0  0  0  0  0  0  0  0  0
  -30.9660  -12.4340   18.7090 C   0  0  0  0  0  2  0  0  0  0  0  0
  -29.9480  -12.4280   17.5610 C   0  0  0  0  0  2  0  0  0  0  0  0
  -28.5200  -12.3240   18.1260 C   0  0  0  0  0  2  0  0  0  0  0  0
  -28.2470  -13.3630   19.2400 C   0  0  0  0  0  3  0  0  0  0  0  0
  -29.4010  -13.4210   20.2760 C   0  0  0  0  0  2  0  0  0  0  0  0
  -30.6710  -13.6090   19.5500 N   0  0  0  0  0  0  0  0  0  0  0  0
  -32.6370  -14.6190   19.0890 O   0  0  0  0  0  0  0  0  0  0  0  0
  -30.9730  -15.9700   19.6880 N   0  0  0  0  0  0  0  0  0  0  0  0
  -26.0030  -14.1290   20.2190 C   0  0  0  0  0  0  0  0  0  0  0  0
  -24.9220  -13.4290   20.6730 C   0  0  0  0  0  0  0  0  0  0  0  0
  -25.2740  -12.0480   20.5560 C   0  0  0  0  0  0  0  0  0  0  0  0
  -26.9470  -13.1760   19.8630 N   0  0  0  0  0  0  0  0  0  0  0  0
  -26.5180  -11.9180   20.1180 N   0  0  0  0  0  0  0  0  0  0  0  0
  -24.4780  -10.8350   20.7730 C   0  0  0  0  0  0  0  0  0  0  0  0
  -24.8540   -9.8690   21.7340 C   0  0  0  0  0  3  0  0  0  0  0  0
  -24.0630   -8.7190   21.9390 C   0  0  0  0  0  3  0  0  0  0  0  0
  -22.8830   -8.5270   21.1820 C   0  0  0  0  0  0  0  0  0  0  0  0
  -22.5280   -9.4760   20.2070 C   0  0  0  0  0  3  0  0  0  0  0  0
  -23.3190  -10.6180   20.0010 C   0  0  0  0  0  3  0  0  0  0  0  0
  -22.0710   -7.4270   21.2900 O   0  0  0  0  0  0  0  0  0  0  0  0
  -21.8760   -6.7910   22.4900 C   0  0  0  0  0  0  0  0  0  0  0  0
  -21.2990   -7.4520   23.5950 C   0  0  0  0  0  3  0  0  0  0  0  0
  -21.0590   -6.7480   24.7920 C   0  0  0  0  0  3  0  0  0  0  0  0
  -21.3830   -5.3800   24.8800 C   0  0  0  0  0  0  0  0  0  0  0  0
  -21.9520   -4.7180   23.7780 C   0  0  0  0  0  3  0  0  0  0  0  0
  -22.1950   -5.4220   22.5850 C   0  0  0  0  0  0  0  0  0  0  0  0
  -22.7270   -4.7760   21.5190 F   0  0  0  0  0  0  0  0  0  0  0  0
  -21.1430   -4.7000   26.0250 F   0  0  0  0  0  0  0  0  0  0  0  0
  -23.5950  -13.9970   21.0940 C   0  0  0  0  0  0  0  0  0  0  0  0
  -22.9140  -13.3350   22.0240 N   0  0  0  0  0  0  0  0  0  0  0  0
  -23.1760  -15.0580   20.6310 O   0  0  0  0  0  0  0  0  0  0  0  0
  -23.2640  -12.4720   22.4120 H   0  0  0  0  0  0  0  0  0  0  0  0
  -22.0250  -13.6890   22.3520 H   0  0  0  0  0  0  0  0  0  0  0  0
  -26.2500  -15.4900   20.0540 N   0  0  0  0  0  0  0  0  0  0  0  0
  -25.5230  -16.1740   20.2330 H   0  0  0  0  0  0  0  0  0  0  0  0
  -27.0640  -15.8790   19.5980 H   0  0  0  0  0  0  0  0  0  0  0  0
  -31.9290  -17.0730   19.9790 C   0  0  0  0  0  2  0  0  0  0  0  0
  -33.4060  -19.9090   17.8310 C   0  0  0  0  0  3  0  0  0  0  0  0
  -32.8620  -19.1820   18.9090 C   0  0  0  0  0  3  0  0  0  0  0  0
  -33.6680  -19.2630   16.6060 C   0  0  0  0  0  3  0  0  0  0  0  0
  -32.8620  -17.1660   17.5510 C   0  0  0  0  0  3  0  0  0  0  0  0
  -32.5730  -17.8050   18.7850 C   0  0  0  0  0  0  0  0  0  0  0  0
  -33.3960  -17.8900   16.4710 C   0  0  0  0  0  0  0  0  0  0  0  0
  -33.7020  -17.0900   14.9760 Cl  0  0  0  0  0  0  0  0  0  0  0  0
  1  3  1  0
  2  5  1  0
  3  7  1  0
  4  1  2  0
  5 59  1  0
  5  3  2  0
  6  2  2  0
  6  4  1  0
  8  6  1  0
  9  4  1  0
  9 15  1  0
 10 14  1  0
 11 12  1  0
 13 11  1  0
 14 17  1  0
 14 12  1  0
 15 13  1  0
 15 10  1  0
 16 10  2  0
 18 20  1  0
 18 17  1  0
 19 30  2  0
 20 25  1  0
 21 29  1  0
 21 31  1  0
 22 28  1  0
 22 24  1  0
 23 29  1  0
 24 25  2  0
 24 23  1  0
 26 27  1  0
 26 20  2  0
 27 22  2  0
 28 21  1  0
 29 19  1  0
 31 33  2  0
 32 31  1  0
 34 32  1  0
 35 44  2  0
 35 40  1  0
 36 32  1  0
 36 40  1  0
 37 36  1  0
 38 39  1  0
 38 37  1  0
 39 35  1  0
 40 41  2  0
 41 42  1  0
 43 42  2  0
 44 43  1  0
 45 19  1  0
 45 46  1  0
 45 55  1  0
 46 49  1  0
 47 51  1  0
 47 46  1  0
 48 47  2  0
 51 50  1  0
 53 51  1  0
 53 54  1  0
 53 52  1  0
 55 58  1  1
 55 56  1  0
 57 55  1  0
 59 68  1  0
 60 66  1  0
 60 68  1  0
 61 66  1  0
 62 63  1  0
 62 61  1  0
 64 63  1  0
 64 72  1  0
 64 65  1  0
 66 65  1  0
 67 60  2  0
 68 97  1  0
 69 70  2  0
 70 89  1  0
 71 70  1  0
 71 74  1  0
 72 73  1  0
 72 69  1  0
 73 71  2  0
 74 75  1  0
 75 76  2  0
 77 80  1  0
 77 76  1  0
 78 77  2  0
 79 78  1  0
 79 74  2  0
 80 81  1  0
 81 86  2  0
 81 82  1  0
 82 83  2  0
 83 84  1  0
 84 88  1  0
 85 84  2  0
 86 85  1  0
 87 86  1  0
 89 90  1  0
 90 93  1  0
 90 92  1  0
 91 89  2  0
 94 69  1  0
 94 95  1  0
 96 94  1  0
 98 99  1  0
100 98  2  0
101102  1  0
102 99  2  0
102 97  1  0
103100  1  0
103101  2  0
104103  1  0
M  ISO  4  17 101  18 101  60 100  68 100
M  END
>  <TORSDO>  (58) 
F 22

>  <SCORE>  (58) 
-11.909

>  <name>  (58) 
57

>  <ligand_id>  (58) 
57

>  <original_smiles>  (58) 
[H]c1c([H])c(Cl)c([H])c(C([H])([H])N(C(=O)N2C([H])([H])C([H])([H])C([H])([H])C([H])(n3nc(-c4c([H])c([H])c(Oc5c([H])c([H])c(F)c([H])c5F)c([H])c4[H])c(C(=O)N([H])[H])c3N([H])[H])C2([H])[H])C([H])([H])c2c([H])c(F)c(C([H])([H])N3C(=O)C([H])(C([H])([H])Oc4c([H])c([H])c5c(c4[H])C([H])([H])N(C(=O)C([H])(N([H])C(=O)C([H])(N([H])C([H])([H])[H])C([H])([H])[H])C(C([H])([H])[H])(C([H])([H])[H])C([H])([H])[H])C([H])(C(=O)N([H])C4([H])c6c([H])c([H])c([H])c([H])c6C([H])([H])C([H])([H])C4([H])[H])C5([H])[H])C([H])([H])C([H])([H])C3([H])[H])c([H])c2C([H])([H])[H])c1[H]

>  <smiles>  (58) 
[H]c1c([H])c(Cl)c([H])c(C([H])([H])N(C(=O)N2C([H])([H])C([H])([H])C([H])([H])C([H])(n3nc(-c4c([H])c([H])c(Oc5c([H])c([H])c(F)c([H])c5F)c([H])c4[H])c(C(=O)N([H])[H])c3N([H])[H])C2([H])[H])C([H])([H])c2c([H])c(F)c(C([H])([H])N3C(=O)C([H])(C([H])([H])Oc4c([H])c([H])c5c(c4[H])C([H])([H])N(C(=O)C([H])(N([H])C(=O)C([H])(N([H])C([H])([H])[H])C([H])([H])[H])C(C([H])([H])[H])(C([H])([H])[H])C([H])([H])[H])C([H])(C(=O)N([H])C4([H])c6c([H])c([H])c([H])c([H])c6C([H])([H])C([H])([H])C4([H])[H])C5([H])[H])C([H])([H])C([H])([H])C3([H])[H])c([H])c2C([H])([H])[H])c1[H]

$$$$
58:0:0
     RDKit          3D

 96105  0  0  1  0  0  0  0  0999 V2000
  -28.7200  -21.5500   21.1110 C   0  0  0  0  0  2  0  0  0  0  0  0
  -30.2310  -19.4560   21.4880 C   0  0  0  0  0  3  0  0  0  0  0  0
  -29.2280  -20.1000   20.7090 C   0  0  0  0  0  0  0  0  0  0  0  0
  -28.5820  -19.2740   19.7400 C   0  0  0  0  0  0  0  0  0  0  0  0
  -29.7640  -17.2100   20.5370 C   0  0  0  0  0  0  0  0  0  0  0  0
  -30.4910  -18.0520   21.4190 C   0  0  0  0  0  0  0  0  0  0  0  0
  -28.8440  -17.8630   19.6680 C   0  0  0  0  0  0  0  0  0  0  0  0
  -27.5140  -19.8690   18.8350 C   0  0  0  0  0  1  0  0  0  0  0  0
  -31.6270  -17.3670   22.5260 Cl  0  0  0  0  0  0  0  0  0  0  0  0
  -27.9540  -16.8880   18.5450 Cl  0  0  0  0  0  0  0  0  0  0  0  0
  -30.5430  -14.7400   20.3110 C   0  0  0  0  0  0  0  0  0  0  0  0
  -30.3480  -12.5070   19.2300 C   0  0  0  0  0  2  0  0  0  0  0  0
  -29.3700  -12.6550   18.0420 C   0  0  0  0  0  2  0  0  0  0  0  0
  -27.9100  -12.4640   18.4990 C   0  0  0  0  0  2  0  0  0  0  0  0
  -27.5720  -13.2990   19.7630 C   0  0  0  0  0  3  0  0  0  0  0  0
  -28.6620  -13.1290   20.8490 C   0  0  0  0  0  2  0  0  0  0  0  0
  -29.9520  -13.5020   20.2450 N   0  0  0  0  0  0  0  0  0  0  0  0
  -31.6900  -14.9320   19.9020 O   0  0  0  0  0  0  0  0  0  0  0  0
  -29.7120  -15.7540   20.6930 N   0  0  0  0  0  0  0  0  0  0  0  0
  -28.7940  -15.4140   20.9220 H   0  0  0  0  0  0  0  0  0  0  0  0
  -25.1870  -13.8870   20.5240 C   0  0  0  0  0  0  0  0  0  0  0  0
  -24.1290  -13.1060   20.9050 C   0  0  0  0  0  0  0  0  0  0  0  0
  -24.5930  -11.7560   20.8460 C   0  0  0  0  0  0  0  0  0  0  0  0
  -26.2320  -13.0110   20.2640 N   0  0  0  0  0  0  0  0  0  0  0  0
  -25.8780  -11.7230   20.5140 N   0  0  0  0  0  0  0  0  0  0  0  0
  -23.8720  -10.4900   21.0300 C   0  0  0  0  0  0  0  0  0  0  0  0
  -24.3050   -9.5250   21.9650 C   0  0  0  0  0  3  0  0  0  0  0  0
  -23.5850   -8.3240   22.1400 C   0  0  0  0  0  3  0  0  0  0  0  0
  -22.4180   -8.0790   21.3800 C   0  0  0  0  0  0  0  0  0  0  0  0
  -22.0030   -9.0330   20.4350 C   0  0  0  0  0  3  0  0  0  0  0  0
  -22.7230  -10.2260   20.2590 C   0  0  0  0  0  3  0  0  0  0  0  0
  -21.6700   -6.9300   21.4630 O   0  0  0  0  0  0  0  0  0  0  0  0
  -21.6070   -6.1960   22.6210 C   0  0  0  0  0  0  0  0  0  0  0  0
  -21.1250   -6.7470   23.8280 C   0  0  0  0  0  3  0  0  0  0  0  0
  -21.0120   -5.9380   24.9750 C   0  0  0  0  0  3  0  0  0  0  0  0
  -21.3710   -4.5770   24.9170 C   0  0  0  0  0  0  0  0  0  0  0  0
  -21.8480   -4.0270   23.7140 C   0  0  0  0  0  3  0  0  0  0  0  0
  -21.9620   -4.8340   22.5690 C   0  0  0  0  0  0  0  0  0  0  0  0
  -22.4010   -4.2930   21.4070 F   0  0  0  0  0  0  0  0  0  0  0  0
  -21.2570   -3.7980   26.0170 F   0  0  0  0  0  0  0  0  0  0  0  0
  -22.7360  -13.5780   21.2090 C   0  0  0  0  0  0  0  0  0  0  0  0
  -22.0210  -12.8600   22.0680 N   0  0  0  0  0  0  0  0  0  0  0  0
  -22.2920  -14.6160   20.7230 O   0  0  0  0  0  0  0  0  0  0  0  0
  -22.3920  -12.0140   22.4770 H   0  0  0  0  0  0  0  0  0  0  0  0
  -21.0890  -13.1610   22.3190 H   0  0  0  0  0  0  0  0  0  0  0  0
  -25.3390  -15.2600   20.3540 N   0  0  0  0  0  0  0  0  0  0  0  0
  -24.5460  -15.8850   20.4550 H   0  0  0  0  0  0  0  0  0  0  0  0
  -26.1290  -15.6970   19.8970 H   0  0  0  0  0  0  0  0  0  0  0  0
  -28.2840  -24.0080   20.5710 C   0  0  0  0  0  0  0  0  0  0  0  0
  -30.8140  -24.1090   19.3180 C   0  0  0  0  0  2  0  0  0  0  0  0
  -29.9090  -25.3090   18.9870 C   0  0  0  0  0  2  0  0  0  0  0  0
  -30.0220  -22.7900   19.3120 C   0  0  0  0  0  2  0  0  0  0  0  0
  -28.5050  -25.2870   19.6470 C   0  0  0  0  0  3  0  0  0  0  0  0
  -28.9570  -22.8190   20.3180 N   0  0  0  0  0  0  0  0  0  0  0  0
  -27.4700  -24.0950   21.4950 O   0  0  0  0  0  0  0  0  0  0  0  0
  -28.3290  -26.6130   20.2950 O   0  0  0  0  0  0  0  0  0  0  0  0
  -24.5560  -31.9590   23.2740 C   0  0  0  0  0  0  0  0  0  0  0  0
  -27.1780  -27.4110   20.2090 C   0  0  0  0  0  0  0  0  0  0  0  0
  -23.3530  -30.5710   21.6190 C   0  0  0  0  0  3  0  0  0  0  0  0
  -24.8090  -29.0250   20.1900 C   0  0  0  0  0  0  0  0  0  0  0  0
  -25.8920  -30.8830   21.4560 C   0  0  0  0  0  2  0  0  0  0  0  0
  -25.9710  -29.5080   20.8020 C   0  0  0  0  0  0  0  0  0  0  0  0
  -27.1500  -28.7090   20.8060 C   0  0  0  0  0  3  0  0  0  0  0  0
  -25.9880  -26.9730   19.5790 C   0  0  0  0  0  3  0  0  0  0  0  0
  -24.8210  -27.7640   19.5720 C   0  0  0  0  0  3  0  0  0  0  0  0
  -23.5740  -29.9020   20.2360 C   0  0  0  0  0  2  0  0  0  0  0  0
  -24.6180  -31.1540   22.1740 N   0  0  0  0  0  0  0  0  0  0  0  0
  -23.4740  -32.2400   23.8080 O   0  0  0  0  0  0  0  0  0  0  0  0
  -22.6850  -29.5520   22.5740 C   0  0  0  0  0  0  0  0  0  0  0  0
  -21.3600  -29.3780   22.4400 N   0  0  0  0  0  0  0  0  0  0  0  0
  -23.3600  -28.9250   23.3950 O   0  0  0  0  0  0  0  0  0  0  0  0
  -20.8730  -29.9340   21.7510 H   0  0  0  0  0  0  0  0  0  0  0  0
  -17.9750  -28.2040   22.9360 C   0  0  0  0  0  0  0  0  0  0  0  0
  -20.5370  -28.4400   23.2080 C   0  0  0  0  0  3  0  0  0  0  0  0
  -20.6260  -27.0120   22.6230 C   0  0  0  0  0  2  0  0  0  0  0  0
  -19.5230  -26.7070   21.6050 C   0  0  0  0  0  2  0  0  0  0  0  0
  -18.1410  -26.8590   22.2480 C   0  0  0  0  0  2  0  0  0  0  0  0
  -19.1010  -28.9540   23.3710 C   0  0  0  0  0  0  0  0  0  0  0  0
  -18.8910  -30.2150   23.9720 C   0  0  0  0  0  3  0  0  0  0  0  0
  -17.5900  -30.7250   24.1410 C   0  0  0  0  0  3  0  0  0  0  0  0
  -16.4810  -29.9710   23.7220 C   0  0  0  0  0  3  0  0  0  0  0  0
  -16.6740  -28.7130   23.1260 C   0  0  0  0  0  3  0  0  0  0  0  0
  -25.8430  -32.5840   23.9000 C   0  0  0  0  0  3  0  0  0  0  0  0
  -25.5460  -33.9880   24.2180 N   0  0  0  0  0  0  0  0  0  0  0  0
  -25.8950  -35.0320   23.4550 C   0  0  0  0  0  0  0  0  0  0  0  0
  -26.5740  -34.9150   22.4300 O   0  0  0  0  0  0  0  0  0  0  0  0
  -24.9550  -34.1570   25.0180 H   0  0  0  0  0  0  0  0  0  0  0  0
  -24.2010  -36.8450   23.0570 C   0  0  0  0  0  1  0  0  0  0  0  0
  -25.4170  -36.4270   23.8990 C   0  0  0  0  0  3  0  0  0  0  0  0
  -27.5410  -37.2880   24.7810 C   0  0  0  0  0  1  0  0  0  0  0  0
  -26.4650  -37.4670   23.8090 N   0  0  0  0  0  0  0  0  0  0  0  0
  -26.0660  -38.3910   23.9480 H   0  0  0  0  0  0  0  0  0  0  0  0
  -26.3450  -31.8180   25.1850 C   0  0  1  0  0  0  0  0  0  0  0  0
  -25.2420  -31.5910   26.2440 C   0  0  0  0  0  1  0  0  0  0  0  0
  -26.9270  -30.4340   24.8100 C   0  0  0  0  0  1  0  0  0  0  0  0
  -27.4960  -32.6090   25.8510 C   0  0  0  0  0  1  0  0  0  0  0  0
  3  1  1  0
  3  2  2  0
  4  3  1  0
  5 19  1  0
  5  6  2  0
  6  2  1  0
  6  9  1  0
  7  4  2  0
  7  5  1  0
  8  4  1  0
 10  7  1  0
 11 19  1  0
 12 17  1  0
 13 14  1  0
 13 12  1  0
 15 14  1  0
 15 24  1  0
 15 16  1  0
 17 11  1  0
 17 16  1  0
 18 11  2  0
 19 20  1  0
 21 22  2  0
 22 41  1  0
 23 22  1  0
 23 26  1  0
 24 25  1  0
 24 21  1  0
 25 23  2  0
 26 27  1  0
 27 28  2  0
 29 32  1  0
 29 28  1  0
 30 29  2  0
 31 30  1  0
 31 26  2  0
 32 33  1  0
 33 34  1  0
 34 35  2  0
 36 35  1  0
 36 40  1  0
 37 36  2  0
 38 33  2  0
 38 37  1  0
 39 38  1  0
 41 42  1  0
 42 45  1  0
 42 44  1  0
 43 41  2  0
 46 47  1  0
 46 21  1  0
 48 46  1  0
 49 55  2  0
 51 50  1  0
 51 53  1  0
 52 50  1  0
 52 54  1  0
 53 56  1  0
 53 49  1  0
 54 49  1  0
 54  1  1  0
 57 68  2  0
 58 56  1  0
 58 63  1  0
 59 67  1  0
 59 69  1  0
 60 66  1  0
 60 62  1  0
 61 67  1  0
 62 63  2  0
 62 61  1  0
 64 58  2  0
 65 64  1  0
 65 60  2  0
 66 59  1  0
 67 57  1  0
 69 71  2  0
 70 69  1  0
 72 70  1  0
 73 82  2  0
 73 78  1  0
 74 70  1  0
 74 78  1  0
 75 74  1  0
 76 77  1  0
 76 75  1  0
 77 73  1  0
 78 79  2  0
 79 80  1  0
 81 80  2  0
 82 81  1  0
 83 57  1  0
 83 84  1  0
 83 93  1  0
 84 87  1  0
 85 89  1  0
 85 84  1  0
 86 85  2  0
 89 88  1  0
 91 89  1  0
 91 92  1  0
 91 90  1  0
 93 96  1  1
 93 94  1  0
 95 93  1  0
M  ISO  4  11 100  19 100  53 101  56 101
M  END
>  <TORSDO>  (59) 
F 18

>  <SCORE>  (59) 
-14.503

>  <name>  (59) 
58

>  <ligand_id>  (59) 
58

>  <original_smiles>  (59) 
[H]c1c([H])c([H])c2c(c1[H])C([H])([H])C([H])([H])C([H])([H])C2([H])N([H])C(=O)C1([H])N(C(=O)C([H])(N([H])C(=O)C([H])(N([H])C([H])([H])[H])C([H])([H])[H])C(C([H])([H])[H])(C([H])([H])[H])C([H])([H])[H])C([H])([H])c2c([H])c(OC3([H])C(=O)N(C([H])([H])c4c([H])c(Cl)c(N([H])C(=O)N5C([H])([H])C([H])([H])C([H])([H])C([H])(n6nc(-c7c([H])c([H])c(Oc8c([H])c([H])c(F)c([H])c8F)c([H])c7[H])c(C(=O)N([H])[H])c6N([H])[H])C5([H])[H])c(Cl)c4C([H])([H])[H])C([H])([H])C([H])([H])C3([H])[H])c([H])c([H])c2C1([H])[H]

>  <smiles>  (59) 
[H]c1c([H])c([H])c2c(c1[H])C([H])([H])C([H])([H])C([H])([H])C2([H])N([H])C(=O)C1([H])N(C(=O)C([H])(N([H])C(=O)C([H])(N([H])C([H])([H])[H])C([H])([H])[H])C(C([H])([H])[H])(C([H])([H])[H])C([H])([H])[H])C([H])([H])c2c([H])c(OC3([H])C(=O)N(C([H])([H])c4c([H])c(Cl)c(N([H])C(=O)N5C([H])([H])C([H])([H])C([H])([H])C([H])(n6nc(-c7c([H])c([H])c(Oc8c([H])c([H])c(F)c([H])c8F)c([H])c7[H])c(C(=O)N([H])[H])c6N([H])[H])C5([H])[H])c(Cl)c4C([H])([H])[H])C([H])([H])C([H])([H])C3([H])[H])c([H])c([H])c2C1([H])[H]

$$$$
59:0:0
     RDKit          3D

 95103  0  0  1  0  0  0  0  0999 V2000
  -30.4450  -22.7940   21.6020 C   0  0  0  0  0  0  0  0  0  0  0  0
  -30.0270  -21.6590   22.1830 N   0  0  0  0  0  0  0  0  0  0  0  0
  -31.5400  -22.8860   21.0430 O   0  0  0  0  0  0  0  0  0  0  0  0
  -29.1150  -21.6790   22.6200 H   0  0  0  0  0  0  0  0  0  0  0  0
  -29.4810  -23.8760   21.7440 C   0  0  0  0  0  3  0  0  0  0  0  0
  -29.7380  -25.1110   21.2620 C   0  0  0  0  0  3  0  0  0  0  0  0
  -28.8170  -26.3110   21.4080 C   0  0  0  0  0  2  0  0  0  0  0  0
  -28.3920  -26.7900   20.1350 O   0  0  0  0  0  0  0  0  0  0  0  0
  -24.5340  -31.9270   23.2560 C   0  0  0  0  0  0  0  0  0  0  0  0
  -27.2440  -27.5430   20.1660 C   0  0  0  0  0  0  0  0  0  0  0  0
  -23.3550  -30.5340   21.5830 C   0  0  0  0  0  3  0  0  0  0  0  0
  -24.8370  -29.0170   20.1630 C   0  0  0  0  0  0  0  0  0  0  0  0
  -25.8790  -30.9110   21.4220 C   0  0  0  0  0  2  0  0  0  0  0  0
  -25.9810  -29.5440   20.7780 C   0  0  0  0  0  0  0  0  0  0  0  0
  -27.1870  -28.8110   20.7880 C   0  0  0  0  0  3  0  0  0  0  0  0
  -26.0920  -27.0290   19.5390 C   0  0  0  0  0  3  0  0  0  0  0  0
  -24.8840  -27.7560   19.5440 C   0  0  0  0  0  3  0  0  0  0  0  0
  -23.5860  -29.8670   20.2000 C   0  0  0  0  0  2  0  0  0  0  0  0
  -24.6060  -31.1380   22.1460 N   0  0  0  0  0  0  0  0  0  0  0  0
  -23.4450  -32.1880   23.7850 O   0  0  0  0  0  0  0  0  0  0  0  0
  -22.6980  -29.5010   22.5260 C   0  0  0  0  0  0  0  0  0  0  0  0
  -21.3780  -29.3030   22.3690 N   0  0  0  0  0  0  0  0  0  0  0  0
  -23.3710  -28.8810   23.3530 O   0  0  0  0  0  0  0  0  0  0  0  0
  -20.8970  -29.8560   21.6740 H   0  0  0  0  0  0  0  0  0  0  0  0
  -18.0100  -28.0640   22.7780 C   0  0  0  0  0  0  0  0  0  0  0  0
  -20.5560  -28.3540   23.1170 C   0  0  0  0  0  3  0  0  0  0  0  0
  -20.6920  -26.9250   22.5410 C   0  0  0  0  0  2  0  0  0  0  0  0
  -19.6210  -26.5910   21.4980 C   0  0  0  0  0  2  0  0  0  0  0  0
  -18.2210  -26.7180   22.1040 C   0  0  0  0  0  2  0  0  0  0  0  0
  -19.1070  -28.8380   23.2390 C   0  0  0  0  0  0  0  0  0  0  0  0
  -18.8580  -30.0990   23.8250 C   0  0  0  0  0  3  0  0  0  0  0  0
  -17.5430  -30.5830   23.9570 C   0  0  0  0  0  3  0  0  0  0  0  0
  -16.4590  -29.8050   23.5140 C   0  0  0  0  0  3  0  0  0  0  0  0
  -16.6940  -28.5470   22.9300 C   0  0  0  0  0  3  0  0  0  0  0  0
  -25.8120  -32.5550   23.8970 C   0  0  0  0  0  3  0  0  0  0  0  0
  -26.2990  -31.7920   25.1890 C   0  0  1  0  0  0  0  0  0  0  0  0
  -25.1830  -31.5690   26.2360 C   0  0  0  0  0  1  0  0  0  0  0  0
  -26.8840  -30.4090   24.8180 C   0  0  0  0  0  1  0  0  0  0  0  0
  -27.4390  -32.5880   25.8680 C   0  0  0  0  0  1  0  0  0  0  0  0
  -25.5090  -33.9580   24.2030 N   0  0  0  0  0  0  0  0  0  0  0  0
  -25.8630  -34.9970   23.4360 C   0  0  0  0  0  0  0  0  0  0  0  0
  -26.5510  -34.8750   22.4190 O   0  0  0  0  0  0  0  0  0  0  0  0
  -24.9020  -34.1280   24.9920 H   0  0  0  0  0  0  0  0  0  0  0  0
  -24.1620  -36.8000   23.0140 C   0  0  0  0  0  1  0  0  0  0  0  0
  -25.3760  -36.3940   23.8640 C   0  0  0  0  0  3  0  0  0  0  0  0
  -27.4900  -37.2720   24.7520 C   0  0  0  0  0  1  0  0  0  0  0  0
  -26.4200  -37.4380   23.7710 N   0  0  0  0  0  0  0  0  0  0  0  0
  -26.0180  -38.3620   23.8940 H   0  0  0  0  0  0  0  0  0  0  0  0
  -30.8130  -20.4340   22.3880 C   0  0  0  0  0  2  0  0  0  0  0  0
  -30.5710  -19.7290   19.9640 C   0  0  0  0  0  3  0  0  0  0  0  0
  -30.4110  -18.7770   18.9490 C   0  0  0  0  0  3  0  0  0  0  0  0
  -30.6480  -19.3440   21.3170 C   0  0  0  0  0  0  0  0  0  0  0  0
  -30.3150  -17.4090   19.2610 C   0  0  0  0  0  0  0  0  0  0  0  0
  -30.6030  -17.9550   21.6420 C   0  0  0  0  0  0  0  0  0  0  0  0
  -30.4240  -16.9820   20.6160 C   0  0  0  0  0  0  0  0  0  0  0  0
  -30.0680  -16.4470   18.1090 C   0  0  0  0  0  1  0  0  0  0  0  0
  -30.7530  -17.5070   23.0940 C   0  0  0  0  0  1  0  0  0  0  0  0
  -31.0010  -14.5760   20.5280 C   0  0  0  0  0  0  0  0  0  0  0  0
  -30.7310  -12.4050   19.4090 C   0  0  0  0  0  2  0  0  0  0  0  0
  -29.8140  -12.6040   18.1830 C   0  0  0  0  0  2  0  0  0  0  0  0
  -28.3290  -12.4920   18.5800 C   0  0  0  0  0  2  0  0  0  0  0  0
  -27.9700  -13.3340   19.8340 C   0  0  0  0  0  3  0  0  0  0  0  0
  -29.0000  -13.1020   20.9620 C   0  0  0  0  0  2  0  0  0  0  0  0
  -30.3400  -13.3920   20.4250 N   0  0  0  0  0  0  0  0  0  0  0  0
  -32.1520  -14.7450   20.1110 O   0  0  0  0  0  0  0  0  0  0  0  0
  -30.2540  -15.6060   20.9620 N   0  0  0  0  0  0  0  0  0  0  0  0
  -29.3750  -15.3610   21.3900 H   0  0  0  0  0  0  0  0  0  0  0  0
  -25.5570  -13.9730   20.4630 C   0  0  0  0  0  0  0  0  0  0  0  0
  -24.4710  -13.2140   20.8100 C   0  0  0  0  0  0  0  0  0  0  0  0
  -24.9220  -11.8580   20.8060 C   0  0  0  0  0  0  0  0  0  0  0  0
  -26.6010  -13.0800   20.2760 N   0  0  0  0  0  0  0  0  0  0  0  0
  -26.2190  -11.8040   20.5340 N   0  0  0  0  0  0  0  0  0  0  0  0
  -24.1810  -10.6040   20.9880 C   0  0  0  0  0  0  0  0  0  0  0  0
  -24.5610   -9.6570   21.9640 C   0  0  0  0  0  3  0  0  0  0  0  0
  -23.8230   -8.4660   22.1320 C   0  0  0  0  0  3  0  0  0  0  0  0
  -22.6900   -8.2140   21.3240 C   0  0  0  0  0  0  0  0  0  0  0  0
  -22.3290   -9.1500   20.3370 C   0  0  0  0  0  3  0  0  0  0  0  0
  -23.0680  -10.3320   20.1680 C   0  0  0  0  0  3  0  0  0  0  0  0
  -21.9250   -7.0750   21.4000 O   0  0  0  0  0  0  0  0  0  0  0  0
  -21.7810   -6.3830   22.5750 C   0  0  0  0  0  0  0  0  0  0  0  0
  -21.2100   -6.9750   23.7240 C   0  0  0  0  0  3  0  0  0  0  0  0
  -21.0160   -6.2060   24.8880 C   0  0  0  0  0  3  0  0  0  0  0  0
  -21.3830   -4.8480   24.9050 C   0  0  0  0  0  0  0  0  0  0  0  0
  -21.9470   -4.2560   23.7610 C   0  0  0  0  0  3  0  0  0  0  0  0
  -22.1430   -5.0210   22.5990 C   0  0  0  0  0  0  0  0  0  0  0  0
  -22.6660   -4.4410   21.4930 F   0  0  0  0  0  0  0  0  0  0  0  0
  -21.1900   -4.1070   26.0220 F   0  0  0  0  0  0  0  0  0  0  0  0
  -23.0720  -13.7060   21.0390 C   0  0  0  0  0  0  0  0  0  0  0  0
  -22.3150  -13.0320   21.8980 N   0  0  0  0  0  0  0  0  0  0  0  0
  -22.6550  -14.7270   20.4920 O   0  0  0  0  0  0  0  0  0  0  0  0
  -22.6590  -12.2070   22.3670 H   0  0  0  0  0  0  0  0  0  0  0  0
  -21.3750  -13.3490   22.0920 H   0  0  0  0  0  0  0  0  0  0  0  0
  -25.7360  -15.3410   20.2770 N   0  0  0  0  0  0  0  0  0  0  0  0
  -24.9680  -15.9970   20.3620 H   0  0  0  0  0  0  0  0  0  0  0  0
  -26.5980  -15.7780   19.9760 H   0  0  0  0  0  0  0  0  0  0  0  0
  1  5  1  0
  1  2  1  0
  2 49  1  0
  2  4  1  0
  3  1  2  0
  6  7  1  0
  6  5  2  0
  8 10  1  0
  8  7  1  0
  9 20  2  0
 10 15  1  0
 11 19  1  0
 11 21  1  0
 12 18  1  0
 12 14  1  0
 13 19  1  0
 14 15  2  0
 14 13  1  0
 16 17  1  0
 16 10  2  0
 17 12  2  0
 18 11  1  0
 19  9  1  0
 21 23  2  0
 22 21  1  0
 24 22  1  0
 25 34  2  0
 25 30  1  0
 26 22  1  0
 26 30  1  0
 27 26  1  0
 28 29  1  0
 28 27  1  0
 29 25  1  0
 30 31  2  0
 31 32  1  0
 33 32  2  0
 34 33  1  0
 35  9  1  0
 35 40  1  0
 35 36  1  0
 36 39  1  1
 36 37  1  0
 38 36  1  0
 40 43  1  0
 41 45  1  0
 41 40  1  0
 42 41  2  0
 45 44  1  0
 47 45  1  0
 47 48  1  0
 47 46  1  0
 50 52  1  0
 51 53  1  0
 51 50  2  0
 52 54  2  0
 52 49  1  0
 53 55  2  0
 54 57  1  0
 55 66  1  0
 55 54  1  0
 56 53  1  0
 58 66  1  0
 59 64  1  0
 60 61  1  0
 60 59  1  0
 62 61  1  0
 62 71  1  0
 62 63  1  0
 64 58  1  0
 64 63  1  0
 65 58  2  0
 66 67  1  0
 68 69  2  0
 69 88  1  0
 70 69  1  0
 70 73  1  0
 71 68  1  0
 71 72  1  0
 72 70  2  0
 73 74  1  0
 74 75  2  0
 76 79  1  0
 76 75  1  0
 77 76  2  0
 78 77  1  0
 78 73  2  0
 79 80  1  0
 80 85  2  0
 80 81  1  0
 81 82  2  0
 82 83  1  0
 83 87  1  0
 84 83  2  0
 85 84  1  0
 86 85  1  0
 88 89  1  0
 89 92  1  0
 89 91  1  0
 90 88  2  0
 93 94  1  0
 93 68  1  0
 95 93  1  0
M  ISO  4   7 101   8 101  58 100  66 100
M  END
>  <TORSDO>  (60) 
F 20

>  <SCORE>  (60) 
-13.217

>  <name>  (60) 
59

>  <ligand_id>  (60) 
59

>  <original_smiles>  (60) 
[H]C(C(=O)N([H])C([H])([H])c1c([H])c([H])c(C([H])([H])[H])c(N([H])C(=O)N2C([H])([H])C([H])([H])C([H])([H])C([H])(n3nc(-c4c([H])c([H])c(Oc5c([H])c([H])c(F)c([H])c5F)c([H])c4[H])c(C(=O)N([H])[H])c3N([H])[H])C2([H])[H])c1C([H])([H])[H])=C([H])C([H])([H])Oc1c([H])c([H])c2c(c1[H])C([H])([H])N(C(=O)C([H])(N([H])C(=O)C([H])(N([H])C([H])([H])[H])C([H])([H])[H])C(C([H])([H])[H])(C([H])([H])[H])C([H])([H])[H])C([H])(C(=O)N([H])C1([H])c3c([H])c([H])c([H])c([H])c3C([H])([H])C([H])([H])C1([H])[H])C2([H])[H]

>  <smiles>  (60) 
[H]C(C(=O)N([H])C([H])([H])c1c([H])c([H])c(C([H])([H])[H])c(N([H])C(=O)N2C([H])([H])C([H])([H])C([H])([H])C([H])(n3nc(-c4c([H])c([H])c(Oc5c([H])c([H])c(F)c([H])c5F)c([H])c4[H])c(C(=O)N([H])[H])c3N([H])[H])C2([H])[H])c1C([H])([H])[H])=C([H])C([H])([H])Oc1c([H])c([H])c2c(c1[H])C([H])([H])N(C(=O)C([H])(N([H])C(=O)C([H])(N([H])C([H])([H])[H])C([H])([H])[H])C(C([H])([H])[H])(C([H])([H])[H])C([H])([H])[H])C([H])(C(=O)N([H])C1([H])c3c([H])c([H])c([H])c([H])c3C([H])([H])C([H])([H])C1([H])[H])C2([H])[H]

$$$$
60:0:0
     RDKit          3D

 98107  0  0  1  0  0  0  0  0999 V2000
  -30.1010  -21.9260   17.5230 C   0  0  0  0  0  0  0  0  0  0  0  0
  -28.7660  -24.4640   18.6650 C   0  0  0  0  0  0  0  0  0  0  0  0
  -30.8000  -20.9690   16.8320 C   0  0  0  0  0  0  0  0  0  0  0  0
  -29.2220  -22.9080   16.7450 C   0  0  0  0  0  2  0  0  0  0  0  0
  -28.1600  -23.6420   17.5530 C   0  0  0  0  0  2  0  0  0  0  0  0
  -29.7650  -23.6140   19.4950 C   0  0  0  0  0  2  0  0  0  0  0  0
  -31.6840  -19.8580   17.3710 C   0  0  0  0  0  1  0  0  0  0  0  0
  -30.7000  -20.8360   15.3070 C   0  0  0  0  0  1  0  0  0  0  0  0
  -28.3440  -25.6900   18.7470 N   0  0  0  0  0  0  0  0  0  0  0  0
  -29.9150  -22.1510   19.0530 N   0  0  2  0  0  4  0  0  0  0  0  0
  -29.0010  -21.7870   19.2580 H   0  0  0  0  0  0  0  0  0  0  0  0
  -28.3950  -26.4670   19.9630 O   0  0  0  0  0  0  0  0  0  0  0  0
  -24.6720  -31.7380   23.3460 C   0  0  0  0  0  0  0  0  0  0  0  0
  -27.2740  -27.3180   20.0490 C   0  0  0  0  0  0  0  0  0  0  0  0
  -23.4750  -30.4520   21.6150 C   0  0  0  0  0  3  0  0  0  0  0  0
  -24.9200  -28.9570   20.1410 C   0  0  0  0  0  0  0  0  0  0  0  0
  -26.0250  -30.7170   21.5030 C   0  0  0  0  0  2  0  0  0  0  0  0
  -26.0900  -29.3770   20.7830 C   0  0  0  0  0  0  0  0  0  0  0  0
  -27.2680  -28.5720   20.7310 C   0  0  0  0  0  3  0  0  0  0  0  0
  -26.0460  -26.9180   19.4550 C   0  0  0  0  0  3  0  0  0  0  0  0
  -24.8990  -27.7280   19.4710 C   0  0  0  0  0  3  0  0  0  0  0  0
  -23.7040  -29.8570   20.2070 C   0  0  0  0  0  2  0  0  0  0  0  0
  -24.7430  -30.9820   22.2120 N   0  0  0  0  0  0  0  0  0  0  0  0
  -23.5810  -32.0090   23.8720 O   0  0  0  0  0  0  0  0  0  0  0  0
  -22.7770  -29.3910   22.4970 C   0  0  0  0  0  0  0  0  0  0  0  0
  -21.4570  -29.2190   22.3070 N   0  0  0  0  0  0  0  0  0  0  0  0
  -23.4270  -28.7320   23.3130 O   0  0  0  0  0  0  0  0  0  0  0  0
  -20.9910  -29.8110   21.6330 H   0  0  0  0  0  0  0  0  0  0  0  0
  -18.0680  -28.0090   22.6440 C   0  0  0  0  0  0  0  0  0  0  0  0
  -20.6140  -28.2500   23.0090 C   0  0  0  0  0  3  0  0  0  0  0  0
  -20.7350  -26.8420   22.3830 C   0  0  0  0  0  2  0  0  0  0  0  0
  -19.6690  -26.5630   21.3190 C   0  0  0  0  0  2  0  0  0  0  0  0
  -18.2660  -26.6890   21.9200 C   0  0  0  0  0  2  0  0  0  0  0  0
  -19.1720  -28.7510   23.1440 C   0  0  0  0  0  0  0  0  0  0  0  0
  -18.9350  -29.9930   23.7740 C   0  0  0  0  0  3  0  0  0  0  0  0
  -17.6280  -30.4930   23.9060 C   0  0  0  0  0  3  0  0  0  0  0  0
  -16.5370  -29.7500   23.4200 C   0  0  0  0  0  3  0  0  0  0  0  0
  -16.7600  -28.5090   22.7970 C   0  0  0  0  0  3  0  0  0  0  0  0
  -25.9510  -32.3130   24.0250 C   0  0  0  0  0  3  0  0  0  0  0  0
  -25.6860  -33.7190   24.3560 N   0  0  0  0  0  0  0  0  0  0  0  0
  -26.0270  -34.7580   23.5830 C   0  0  0  0  0  0  0  0  0  0  0  0
  -26.6690  -34.6350   22.5340 O   0  0  0  0  0  0  0  0  0  0  0  0
  -25.1290  -33.8980   25.1800 H   0  0  0  0  0  0  0  0  0  0  0  0
  -24.3120  -36.5690   23.2900 C   0  0  0  0  0  1  0  0  0  0  0  0
  -25.5810  -36.1570   24.0510 C   0  0  0  0  0  3  0  0  0  0  0  0
  -27.7490  -37.0190   24.8040 C   0  0  0  0  0  1  0  0  0  0  0  0
  -26.6250  -37.1890   23.8880 N   0  0  0  0  0  0  0  0  0  0  0  0
  -26.2400  -38.1160   24.0390 H   0  0  0  0  0  0  0  0  0  0  0  0
  -26.3870  -31.5100   25.3130 C   0  0  1  0  0  0  0  0  0  0  0  0
  -25.2390  -31.2950   26.3290 C   0  0  0  0  0  1  0  0  0  0  0  0
  -26.9400  -30.1190   24.9280 C   0  0  0  0  0  1  0  0  0  0  0  0
  -27.5330  -32.2600   26.0350 C   0  0  0  0  0  1  0  0  0  0  0  0
  -30.7900  -21.4000   20.0320 C   0  0  0  0  0  2  0  0  0  0  0  0
  -31.6390  -19.0580   20.6230 C   0  0  0  0  0  3  0  0  0  0  0  0
  -31.5090  -17.6540   20.7030 C   0  0  0  0  0  3  0  0  0  0  0  0
  -29.2400  -19.3130   20.5420 C   0  0  0  0  0  3  0  0  0  0  0  0
  -30.5230  -19.9010   20.3890 C   0  0  0  0  0  0  0  0  0  0  0  0
  -29.1040  -17.9120   20.7520 C   0  0  0  0  0  0  0  0  0  0  0  0
  -30.2300  -17.0520   20.6500 C   0  0  0  0  0  0  0  0  0  0  0  0
  -27.7300  -17.3350   21.0430 C   0  0  0  0  0  1  0  0  0  0  0  0
  -30.8250  -14.6290   20.2700 C   0  0  0  0  0  0  0  0  0  0  0  0
  -30.5930  -12.3410   19.3410 C   0  0  0  0  0  2  0  0  0  0  0  0
  -29.6600  -12.3290   18.1110 C   0  0  0  0  0  2  0  0  0  0  0  0
  -28.1730  -12.2790   18.5270 C   0  0  0  0  0  2  0  0  0  0  0  0
  -27.8020  -13.1780   19.7410 C   0  0  0  0  0  3  0  0  0  0  0  0
  -28.8750  -13.1020   20.8500 C   0  0  0  0  0  2  0  0  0  0  0  0
  -30.1700  -13.4250   20.2390 N   0  0  0  0  0  0  0  0  0  0  0  0
  -32.0330  -14.7060   20.0280 O   0  0  0  0  0  0  0  0  0  0  0  0
  -29.5910  -15.9340   18.6850 C   0  0  0  0  0  1  0  0  0  0  0  0
  -30.0410  -15.7360   20.0750 N   0  0  0  0  0  0  0  0  0  0  0  0
  -25.4040  -13.7370   20.4680 C   0  0  0  0  0  0  0  0  0  0  0  0
  -24.3470  -12.9460   20.8320 C   0  0  0  0  0  0  0  0  0  0  0  0
  -24.8280  -11.6030   20.7870 C   0  0  0  0  0  0  0  0  0  0  0  0
  -26.4650  -12.8730   20.2400 N   0  0  0  0  0  0  0  0  0  0  0  0
  -26.1220  -11.5840   20.4900 N   0  0  0  0  0  0  0  0  0  0  0  0
  -24.1210  -10.3260   20.9610 C   0  0  0  0  0  0  0  0  0  0  0  0
  -24.5260   -9.3810   21.9290 C   0  0  0  0  0  3  0  0  0  0  0  0
  -23.8180   -8.1680   22.0850 C   0  0  0  0  0  3  0  0  0  0  0  0
  -22.6910   -7.8960   21.2720 C   0  0  0  0  0  0  0  0  0  0  0  0
  -22.3050   -8.8320   20.2960 C   0  0  0  0  0  3  0  0  0  0  0  0
  -23.0150  -10.0340   20.1410 C   0  0  0  0  0  3  0  0  0  0  0  0
  -21.9540   -6.7370   21.3400 O   0  0  0  0  0  0  0  0  0  0  0  0
  -21.7710   -6.0680   22.5250 C   0  0  0  0  0  0  0  0  0  0  0  0
  -21.0940   -6.6590   23.6130 C   0  0  0  0  0  3  0  0  0  0  0  0
  -20.8760   -5.9170   24.7910 C   0  0  0  0  0  3  0  0  0  0  0  0
  -21.3140   -4.5820   24.8750 C   0  0  0  0  0  0  0  0  0  0  0  0
  -21.9800   -3.9900   23.7880 C   0  0  0  0  0  3  0  0  0  0  0  0
  -22.2070   -4.7310   22.6160 C   0  0  0  0  0  0  0  0  0  0  0  0
  -22.8310   -4.1500   21.5630 F   0  0  0  0  0  0  0  0  0  0  0  0
  -21.0930   -3.8670   26.0020 F   0  0  0  0  0  0  0  0  0  0  0  0
  -22.9450  -13.4040   21.1080 C   0  0  0  0  0  0  0  0  0  0  0  0
  -22.2430  -12.7070   21.9970 N   0  0  0  0  0  0  0  0  0  0  0  0
  -22.4810  -14.4090   20.5770 O   0  0  0  0  0  0  0  0  0  0  0  0
  -22.6280  -11.8880   22.4370 H   0  0  0  0  0  0  0  0  0  0  0  0
  -21.3130  -13.0090   22.2440 H   0  0  0  0  0  0  0  0  0  0  0  0
  -25.5430  -15.1050   20.2820 N   0  0  0  0  0  0  0  0  0  0  0  0
  -24.7830  -15.7670   20.3790 H   0  0  0  0  0  0  0  0  0  0  0  0
  -26.3970  -15.5280   19.9410 H   0  0  0  0  0  0  0  0  0  0  0  0
  1 10  1  0
  2  9  2  0
  2  6  1  0
  3  7  1  0
  3  1  2  0
  4  1  1  0
  4  5  1  0
  5  2  1  0
  8  3  1  0
  9 12  1  0
 10 11  1  1
 10  6  1  0
 10 53  1  0
 12 14  1  0
 13 24  2  0
 14 19  1  0
 15 23  1  0
 15 25  1  0
 16 22  1  0
 16 18  1  0
 17 23  1  0
 18 17  1  0
 19 18  2  0
 20 21  1  0
 20 14  2  0
 21 16  2  0
 22 15  1  0
 23 13  1  0
 25 27  2  0
 26 25  1  0
 28 26  1  0
 29 38  2  0
 29 34  1  0
 30 26  1  0
 30 34  1  0
 31 30  1  0
 32 33  1  0
 32 31  1  0
 33 29  1  0
 34 35  2  0
 35 36  1  0
 37 36  2  0
 38 37  1  0
 39 13  1  0
 39 40  1  0
 39 49  1  0
 40 43  1  0
 41 45  1  0
 41 40  1  0
 42 41  2  0
 45 44  1  0
 47 48  1  0
 47 45  1  0
 47 46  1  0
 49 52  1  1
 49 50  1  0
 51 49  1  0
 53 57  1  0
 54 55  1  0
 56 58  2  0
 57 56  1  0
 57 54  2  0
 58 60  1  0
 59 55  2  0
 59 58  1  0
 62 67  1  0
 63 64  1  0
 63 62  1  0
 65 64  1  0
 65 74  1  0
 65 66  1  0
 67 61  1  0
 67 66  1  0
 68 61  2  0
 69 70  1  0
 70 61  1  0
 70 59  1  0
 71 72  2  0
 72 91  1  0
 73 72  1  0
 73 76  1  0
 74 71  1  0
 74 75  1  0
 75 73  2  0
 76 77  1  0
 77 78  2  0
 79 82  1  0
 79 78  1  0
 80 79  2  0
 81 80  1  0
 81 76  2  0
 82 83  1  0
 83 88  2  0
 83 84  1  0
 84 85  2  0
 85 86  1  0
 86 90  1  0
 87 86  2  0
 88 87  1  0
 89 88  1  0
 91 92  1  0
 92 95  1  0
 92 94  1  0
 93 91  2  0
 96 97  1  0
 96 71  1  0
 98 96  1  0
M  ISO  4   9 101  12 101  61 100  70 100
M  END
>  <TORSDO>  (61) 
F 18

>  <SCORE>  (61) 
-13.154

>  <name>  (61) 
60

>  <ligand_id>  (61) 
60

>  <original_smiles>  (61) 
[H]c1c([H])c([H])c2c(c1[H])C([H])([H])C([H])([H])C([H])([H])C2([H])N([H])C(=O)C1([H])N(C(=O)C([H])(N([H])C(=O)C([H])(N([H])C([H])([H])[H])C([H])([H])[H])C(C([H])([H])[H])(C([H])([H])[H])C([H])([H])[H])C([H])([H])c2c([H])c(ON=C3C([H])([H])C([H])([H])C(=C(C([H])([H])[H])C([H])([H])[H])[N+]([H])(C([H])([H])c4c([H])c([H])c(N(C(=O)N5C([H])([H])C([H])([H])C([H])([H])C([H])(n6nc(-c7c([H])c([H])c(Oc8c([H])c([H])c(F)c([H])c8F)c([H])c7[H])c(C(=O)N([H])[H])c6N([H])[H])C5([H])[H])C([H])([H])[H])c(C([H])([H])[H])c4[H])C3([H])[H])c([H])c([H])c2C1([H])[H]

>  <smiles>  (61) 
[H]c1c([H])c([H])c2c(c1[H])C([H])([H])C([H])([H])C([H])([H])C2([H])N([H])C(=O)C1([H])N(C(=O)C([H])(N([H])C(=O)C([H])(N([H])C([H])([H])[H])C([H])([H])[H])C(C([H])([H])[H])(C([H])([H])[H])C([H])([H])[H])C([H])([H])c2c([H])c(ON=C3C([H])([H])C([H])([H])C(=C(C([H])([H])[H])C([H])([H])[H])[N+]([H])(C([H])([H])c4c([H])c([H])c(N(C(=O)N5C([H])([H])C([H])([H])C([H])([H])C([H])(n6nc(-c7c([H])c([H])c(Oc8c([H])c([H])c(F)c([H])c8F)c([H])c7[H])c(C(=O)N([H])[H])c6N([H])[H])C5([H])[H])C([H])([H])[H])c(C([H])([H])[H])c4[H])C3([H])[H])c([H])c([H])c2C1([H])[H]

$$$$
61:0:0
     RDKit          3D

 93101  0  0  1  0  0  0  0  0999 V2000
  -27.1300  -22.6360   21.0980 O   0  0  0  0  0  0  0  0  0  0  0  0
  -29.4010  -23.6870   21.4030 O   0  0  0  0  0  0  0  0  0  0  0  0
  -28.5140  -22.8180   20.6140 S   0  0  1  0  0  0  0  0  0  0  0  0
  -30.9480  -19.5830   21.4750 C   0  0  0  0  0  3  0  0  0  0  0  0
  -30.4180  -20.8840   21.3150 C   0  0  0  0  0  3  0  0  0  0  0  0
  -29.2130  -18.6950   20.0390 C   0  0  0  0  0  3  0  0  0  0  0  0
  -30.3440  -18.4620   20.8520 C   0  0  0  0  0  0  0  0  0  0  0  0
  -28.6830  -19.9990   19.8560 C   0  0  0  0  0  0  0  0  0  0  0  0
  -29.2690  -21.1230   20.5200 C   0  0  0  0  0  0  0  0  0  0  0  0
  -27.4720  -20.1230   18.9560 C   0  0  0  0  0  1  0  0  0  0  0  0
  -31.0040  -17.0730   20.9880 C   0  0  0  0  0  2  0  0  0  0  0  0
  -30.7780  -14.6390   20.5100 C   0  0  0  0  0  0  0  0  0  0  0  0
  -30.3610  -12.4940   19.3520 C   0  0  0  0  0  2  0  0  0  0  0  0
  -29.4380  -12.7250   18.1440 C   0  0  0  0  0  2  0  0  0  0  0  0
  -27.9700  -12.5770   18.5760 C   0  0  0  0  0  2  0  0  0  0  0  0
  -27.6350  -13.3800   19.8630 C   0  0  0  0  0  3  0  0  0  0  0  0
  -28.7060  -13.2160   20.9690 C   0  0  0  0  0  2  0  0  0  0  0  0
  -30.0160  -13.5090   20.3670 N   0  0  0  0  0  0  0  0  0  0  0  0
  -31.9390  -14.6730   20.1080 O   0  0  0  0  0  0  0  0  0  0  0  0
  -30.2070  -15.8070   20.9160 N   0  0  0  0  0  0  0  0  0  0  0  0
  -29.2450  -15.8220   21.2130 H   0  0  0  0  0  0  0  0  0  0  0  0
  -25.2290  -13.9280   20.5710 C   0  0  0  0  0  0  0  0  0  0  0  0
  -24.1700  -13.1360   20.9230 C   0  0  0  0  0  0  0  0  0  0  0  0
  -24.6520  -11.7920   20.8850 C   0  0  0  0  0  0  0  0  0  0  0  0
  -26.2890  -13.0670   20.3410 N   0  0  0  0  0  0  0  0  0  0  0  0
  -25.9470  -11.7770   20.5910 N   0  0  0  0  0  0  0  0  0  0  0  0
  -23.9410  -10.5160   21.0580 C   0  0  0  0  0  0  0  0  0  0  0  0
  -24.3550   -9.5620   22.0150 C   0  0  0  0  0  3  0  0  0  0  0  0
  -23.6420   -8.3540   22.1750 C   0  0  0  0  0  3  0  0  0  0  0  0
  -22.5030   -8.0900   21.3780 C   0  0  0  0  0  0  0  0  0  0  0  0
  -22.1090   -9.0340   20.4120 C   0  0  0  0  0  3  0  0  0  0  0  0
  -22.8220  -10.2320   20.2500 C   0  0  0  0  0  3  0  0  0  0  0  0
  -21.7660   -6.9320   21.4460 O   0  0  0  0  0  0  0  0  0  0  0  0
  -21.6650   -6.2100   22.6080 C   0  0  0  0  0  0  0  0  0  0  0  0
  -21.1160   -6.7660   23.7830 C   0  0  0  0  0  3  0  0  0  0  0  0
  -20.9650   -5.9700   24.9360 C   0  0  0  0  0  3  0  0  0  0  0  0
  -21.3530   -4.6170   24.9140 C   0  0  0  0  0  0  0  0  0  0  0  0
  -21.8910   -4.0580   23.7410 C   0  0  0  0  0  3  0  0  0  0  0  0
  -22.0440   -4.8520   22.5910 C   0  0  0  0  0  0  0  0  0  0  0  0
  -22.5460   -4.3040   21.4580 F   0  0  0  0  0  0  0  0  0  0  0  0
  -21.2010   -3.8480   26.0170 F   0  0  0  0  0  0  0  0  0  0  0  0
  -22.7620  -13.5910   21.1840 C   0  0  0  0  0  0  0  0  0  0  0  0
  -22.0340  -12.8730   22.0310 N   0  0  0  0  0  0  0  0  0  0  0  0
  -22.3160  -14.6190   20.6740 O   0  0  0  0  0  0  0  0  0  0  0  0
  -22.4070  -12.0440   22.4670 H   0  0  0  0  0  0  0  0  0  0  0  0
  -21.0890  -13.1600   22.2480 H   0  0  0  0  0  0  0  0  0  0  0  0
  -25.3750  -15.3000   20.4020 N   0  0  0  0  0  0  0  0  0  0  0  0
  -24.5970  -15.9460   20.4870 H   0  0  0  0  0  0  0  0  0  0  0  0
  -26.2260  -15.7480   20.0830 H   0  0  0  0  0  0  0  0  0  0  0  0
  -28.5810  -24.8820   18.5850 C   0  0  0  0  0  3  0  0  0  0  0  0
  -28.3350  -23.5990   18.9590 C   0  0  0  0  0  3  0  0  0  0  0  0
  -29.1800  -26.0830   19.3210 C   0  0  0  0  0  2  0  0  0  0  0  0
  -28.4590  -26.6720   20.4240 O   0  0  0  0  0  0  0  0  0  0  0  0
  -24.5840  -31.9300   23.2920 C   0  0  0  0  0  0  0  0  0  0  0  0
  -27.3350  -27.4650   20.2610 C   0  0  0  0  0  0  0  0  0  0  0  0
  -23.4300  -30.5040   21.6340 C   0  0  0  0  0  3  0  0  0  0  0  0
  -24.9330  -28.9720   20.2350 C   0  0  0  0  0  0  0  0  0  0  0  0
  -25.9580  -30.8730   21.4970 C   0  0  0  0  0  2  0  0  0  0  0  0
  -26.0670  -29.4990   20.8590 C   0  0  0  0  0  0  0  0  0  0  0  0
  -27.2700  -28.7420   20.8790 C   0  0  0  0  0  3  0  0  0  0  0  0
  -26.1800  -26.9680   19.6220 C   0  0  0  0  0  3  0  0  0  0  0  0
  -24.9880  -27.7170   19.6070 C   0  0  0  0  0  3  0  0  0  0  0  0
  -23.6760  -29.8150   20.2630 C   0  0  0  0  0  2  0  0  0  0  0  0
  -24.6740  -31.1170   22.2030 N   0  0  0  0  0  0  0  0  0  0  0  0
  -23.4870  -32.2030   23.7990 O   0  0  0  0  0  0  0  0  0  0  0  0
  -22.7660  -29.4870   22.5920 C   0  0  0  0  0  0  0  0  0  0  0  0
  -21.4450  -29.3060   22.4390 N   0  0  0  0  0  0  0  0  0  0  0  0
  -23.4360  -28.8620   23.4190 O   0  0  0  0  0  0  0  0  0  0  0  0
  -20.9770  -29.8580   21.7320 H   0  0  0  0  0  0  0  0  0  0  0  0
  -18.0510  -28.1440   22.9210 C   0  0  0  0  0  0  0  0  0  0  0  0
  -20.6110  -28.3720   23.1960 C   0  0  0  0  0  3  0  0  0  0  0  0
  -20.6990  -26.9430   22.6110 C   0  0  0  0  0  2  0  0  0  0  0  0
  -19.5950  -26.6450   21.5910 C   0  0  0  0  0  2  0  0  0  0  0  0
  -18.2150  -26.8000   22.2350 C   0  0  0  0  0  2  0  0  0  0  0  0
  -19.1760  -28.8920   23.3630 C   0  0  0  0  0  0  0  0  0  0  0  0
  -18.9700  -30.1500   23.9660 C   0  0  0  0  0  3  0  0  0  0  0  0
  -17.6690  -30.6660   24.1270 C   0  0  0  0  0  3  0  0  0  0  0  0
  -16.5580  -29.9140   23.7030 C   0  0  0  0  0  3  0  0  0  0  0  0
  -16.7490  -28.6550   23.1070 C   0  0  0  0  0  3  0  0  0  0  0  0
  -25.8500  -32.5750   23.9350 C   0  0  0  0  0  3  0  0  0  0  0  0
  -26.3330  -31.8350   25.2450 C   0  0  1  0  0  0  0  0  0  0  0  0
  -25.2170  -31.6120   26.2910 C   0  0  0  0  0  1  0  0  0  0  0  0
  -26.9280  -30.4520   24.8960 C   0  0  0  0  0  1  0  0  0  0  0  0
  -27.4570  -32.6530   25.9280 C   0  0  0  0  0  1  0  0  0  0  0  0
  -25.5300  -33.9790   24.2170 N   0  0  0  0  0  0  0  0  0  0  0  0
  -25.8860  -35.0150   23.4490 C   0  0  0  0  0  0  0  0  0  0  0  0
  -26.5850  -34.8870   22.4380 O   0  0  0  0  0  0  0  0  0  0  0  0
  -24.9090  -34.1440   24.9960 H   0  0  0  0  0  0  0  0  0  0  0  0
  -24.1840  -36.8110   22.9840 C   0  0  0  0  0  1  0  0  0  0  0  0
  -25.3850  -36.4140   23.8570 C   0  0  0  0  0  3  0  0  0  0  0  0
  -27.4800  -37.3150   24.7650 C   0  0  0  0  0  1  0  0  0  0  0  0
  -26.4250  -37.4630   23.7660 N   0  0  0  0  0  0  0  0  0  0  0  0
  -26.0140  -38.3860   23.8790 H   0  0  0  0  0  0  0  0  0  0  0  0
  3  1  2  0
  3  2  2  0
  5  4  1  0
  6  7  1  0
  7 11  1  0
  7  4  2  0
  8  6  2  0
  8  9  1  0
  9  3  1  0
  9  5  2  0
 10  8  1  0
 12 20  1  0
 13 18  1  0
 14 15  1  0
 14 13  1  0
 16 15  1  0
 16 25  1  0
 16 17  1  0
 18 12  1  0
 18 17  1  0
 19 12  2  0
 20 11  1  0
 20 21  1  0
 22 23  2  0
 23 42  1  0
 24 23  1  0
 24 27  1  0
 25 22  1  0
 25 26  1  0
 26 24  2  0
 27 28  1  0
 28 29  2  0
 30 33  1  0
 30 29  1  0
 31 30  2  0
 32 31  1  0
 32 27  2  0
 33 34  1  0
 34 35  1  0
 35 36  2  0
 37 36  1  0
 37 41  1  0
 38 37  2  0
 39 34  2  0
 39 38  1  0
 40 39  1  0
 42 43  1  0
 43 46  1  0
 43 45  1  0
 44 42  2  0
 47 48  1  0
 47 22  1  0
 49 47  1  0
 50 51  2  0
 50 52  1  0
  3 51  1  6
 52 53  1  0
 54 65  2  0
 55 53  1  0
 55 60  1  0
 56 64  1  0
 56 66  1  0
 57 63  1  0
 57 59  1  0
 58 64  1  0
 59 60  2  0
 59 58  1  0
 61 55  2  0
 62 61  1  0
 62 57  2  0
 63 56  1  0
 64 54  1  0
 66 68  2  0
 67 66  1  0
 69 67  1  0
 70 79  2  0
 70 75  1  0
 71 67  1  0
 71 75  1  0
 72 71  1  0
 73 74  1  0
 73 72  1  0
 74 70  1  0
 75 76  2  0
 76 77  1  0
 78 77  2  0
 79 78  1  0
 80 54  1  0
 80 85  1  0
 80 81  1  0
 81 84  1  1
 81 82  1  0
 83 81  1  0
 85 88  1  0
 86 90  1  0
 86 85  1  0
 87 86  2  0
 90 89  1  0
 92 90  1  0
 92 93  1  0
 92 91  1  0
M  ISO  4  12 100  20 100  52 101  53 101
M  END
>  <TORSDO>  (62) 
F 20

>  <SCORE>  (62) 
-14.280

>  <name>  (62) 
61

>  <ligand_id>  (62) 
61

>  <original_smiles>  (62) 
[H]C(=C([H])S(=O)(=O)c1c([H])c([H])c(C([H])([H])N([H])C(=O)N2C([H])([H])C([H])([H])C([H])([H])C([H])(n3nc(-c4c([H])c([H])c(Oc5c([H])c([H])c(F)c([H])c5F)c([H])c4[H])c(C(=O)N([H])[H])c3N([H])[H])C2([H])[H])c([H])c1C([H])([H])[H])C([H])([H])Oc1c([H])c([H])c2c(c1[H])C([H])([H])N(C(=O)C([H])(N([H])C(=O)C([H])(N([H])C([H])([H])[H])C([H])([H])[H])C(C([H])([H])[H])(C([H])([H])[H])C([H])([H])[H])C([H])(C(=O)N([H])C1([H])c3c([H])c([H])c([H])c([H])c3C([H])([H])C([H])([H])C1([H])[H])C2([H])[H]

>  <smiles>  (62) 
[H]C(=C([H])S(=O)(=O)c1c([H])c([H])c(C([H])([H])N([H])C(=O)N2C([H])([H])C([H])([H])C([H])([H])C([H])(n3nc(-c4c([H])c([H])c(Oc5c([H])c([H])c(F)c([H])c5F)c([H])c4[H])c(C(=O)N([H])[H])c3N([H])[H])C2([H])[H])c([H])c1C([H])([H])[H])C([H])([H])Oc1c([H])c([H])c2c(c1[H])C([H])([H])N(C(=O)C([H])(N([H])C(=O)C([H])(N([H])C([H])([H])[H])C([H])([H])[H])C(C([H])([H])[H])(C([H])([H])[H])C([H])([H])[H])C([H])(C(=O)N([H])C1([H])c3c([H])c([H])c([H])c([H])c3C([H])([H])C([H])([H])C1([H])[H])C2([H])[H]

$$$$
62:0:0
     RDKit          3D

 99107  0  0  1  0  0  0  0  0999 V2000
  -27.0040  -24.8920   20.6980 C   0  0  0  0  0  2  0  0  0  0  0  0
  -28.0470  -22.1590   20.2610 C   0  0  0  0  0  0  0  0  0  0  0  0
  -27.1650  -23.3470   20.0010 N   0  0  0  0  0  0  0  0  0  0  0  0
  -28.8180  -22.3390   21.2020 O   0  0  0  0  0  0  0  0  0  0  0  0
  -26.5740  -23.2160   19.1920 H   0  0  0  0  0  0  0  0  0  0  0  0
  -27.6010  -19.0790   17.6910 C   0  0  0  0  0  3  0  0  0  0  0  0
  -27.5210  -20.3270   18.3740 C   0  0  0  0  0  3  0  0  0  0  0  0
  -28.3430  -17.9460   18.1340 C   0  0  0  0  0  3  0  0  0  0  0  0
  -28.2340  -20.6100   19.5610 C   0  0  0  0  0  0  0  0  0  0  0  0
  -29.0450  -19.3320   19.9760 C   0  0  0  0  0  0  0  0  0  0  0  0
  -29.1100  -17.9140   19.3250 C   0  0  0  0  0  0  0  0  0  0  0  0
  -30.0160  -19.5230   21.1210 C   0  0  0  0  0  1  0  0  0  0  0  0
  -30.3950  -15.2020   19.3700 C   0  0  0  0  0  0  0  0  0  0  0  0
  -30.4290  -12.6820   18.6450 C   0  0  0  0  0  2  0  0  0  0  0  0
  -29.3790  -12.3760   17.5420 C   0  0  0  0  0  2  0  0  0  0  0  0
  -28.0060  -12.1040   18.1710 C   0  0  0  0  0  2  0  0  0  0  0  0
  -27.6670  -13.1320   19.2750 C   0  0  0  0  0  3  0  0  0  0  0  0
  -28.8220  -13.3540   20.2740 C   0  0  0  0  0  2  0  0  0  0  0  0
  -29.9520  -13.8490   19.4910 N   0  0  0  0  0  0  0  0  0  0  0  0
  -31.5330  -15.2480   18.8630 O   0  0  0  0  0  0  0  0  0  0  0  0
  -29.6240  -16.4240   19.8000 N   0  0  0  0  0  0  0  0  0  0  0  0
  -29.0080  -16.1050   20.5340 H   0  0  0  0  0  0  0  0  0  0  0  0
  -25.5000  -13.7560   20.4520 C   0  0  0  0  0  0  0  0  0  0  0  0
  -24.4450  -13.0110   20.8970 C   0  0  0  0  0  0  0  0  0  0  0  0
  -24.7920  -11.6460   20.6520 C   0  0  0  0  0  0  0  0  0  0  0  0
  -26.4130  -12.8470   19.9450 N   0  0  0  0  0  0  0  0  0  0  0  0
  -26.0120  -11.5640   20.1360 N   0  0  0  0  0  0  0  0  0  0  0  0
  -24.0040  -10.4190   20.8240 C   0  0  0  0  0  0  0  0  0  0  0  0
  -24.3910   -9.4120   21.7370 C   0  0  0  0  0  3  0  0  0  0  0  0
  -23.6010   -8.2530   21.9020 C   0  0  0  0  0  3  0  0  0  0  0  0
  -22.4110   -8.0950   21.1550 C   0  0  0  0  0  0  0  0  0  0  0  0
  -22.0400   -9.0900   20.2320 C   0  0  0  0  0  3  0  0  0  0  0  0
  -22.8310  -10.2390   20.0660 C   0  0  0  0  0  3  0  0  0  0  0  0
  -21.5970   -6.9900   21.2300 O   0  0  0  0  0  0  0  0  0  0  0  0
  -21.3740   -6.3380   22.4160 C   0  0  0  0  0  0  0  0  0  0  0  0
  -20.6610   -6.9400   23.4740 C   0  0  0  0  0  3  0  0  0  0  0  0
  -20.3950   -6.2080   24.6490 C   0  0  0  0  0  3  0  0  0  0  0  0
  -20.8320   -4.8740   24.7630 C   0  0  0  0  0  0  0  0  0  0  0  0
  -21.5360   -4.2720   23.7060 C   0  0  0  0  0  3  0  0  0  0  0  0
  -21.8030   -5.0000   22.5340 C   0  0  0  0  0  0  0  0  0  0  0  0
  -22.4640   -4.4080   21.5090 F   0  0  0  0  0  0  0  0  0  0  0  0
  -20.5700   -4.1680   25.8870 F   0  0  0  0  0  0  0  0  0  0  0  0
  -23.1480  -13.5440   21.4270 C   0  0  0  0  0  0  0  0  0  0  0  0
  -22.4960  -12.8010   22.3130 N   0  0  0  0  0  0  0  0  0  0  0  0
  -22.7270  -14.6510   21.0910 O   0  0  0  0  0  0  0  0  0  0  0  0
  -22.8500  -11.9020   22.6030 H   0  0  0  0  0  0  0  0  0  0  0  0
  -21.6280  -13.1390   22.7040 H   0  0  0  0  0  0  0  0  0  0  0  0
  -25.7580  -15.1240   20.4190 N   0  0  0  0  0  0  0  0  0  0  0  0
  -25.1130  -15.7970   20.8130 H   0  0  0  0  0  0  0  0  0  0  0  0
  -26.6160  -15.5540   20.0990 H   0  0  0  0  0  0  0  0  0  0  0  0
  -26.5470  -26.6870   20.2720 C   0  0  0  0  0  2  0  0  0  0  0  0
  -26.4910  -28.0270   17.3610 C   0  0  0  0  0  2  0  0  0  0  0  0
  -26.8930  -27.5360   16.1320 N   0  0  0  0  0  0  0  0  0  0  0  0
  -25.9750  -29.1280   17.0740 O   0  0  0  0  0  1  0  0  0  0  0  0
  -26.5920  -28.1630   15.4010 H   0  0  0  0  0  0  0  0  0  0  0  0
  -27.7220  -26.4380   15.6010 C   0  0  0  0  0  2  0  0  0  0  0  0
  -27.0330  -25.0500   15.5210 C   0  0  0  0  0  2  0  0  0  0  0  0
  -26.0780  -24.6540   16.6670 C   0  0  0  0  0  2  0  0  0  0  0  0
  -26.4290  -25.3400   17.8510 O   0  0  0  0  0  0  0  0  0  0  0  0
  -24.0820  -30.7600   22.8190 C   0  0  0  0  0  0  0  0  0  0  0  0
  -25.3990  -26.0370   18.3150 C   0  0  0  0  0  0  0  0  0  0  0  0
  -22.2740  -29.7660   21.4270 C   0  0  0  0  0  3  0  0  0  0  0  0
  -22.8460  -27.9290   19.6900 C   0  0  0  0  0  0  0  0  0  0  0  0
  -24.7150  -29.5730   20.7240 C   0  0  0  0  0  2  0  0  0  0  0  0
  -24.4260  -28.1760   20.1750 C   0  0  0  0  0  0  0  0  0  0  0  0
  -25.7050  -27.2390   19.5550 C   0  0  0  0  0  0  0  0  0  0  0  0
  -23.7140  -25.7850   17.7480 C   0  0  0  0  0  3  0  0  0  0  0  0
  -22.4380  -26.7550   18.4810 C   0  0  0  0  0  3  0  0  0  0  0  0
  -21.9700  -29.1310   20.0320 C   0  0  0  0  0  2  0  0  0  0  0  0
  -23.7200  -30.0620   21.6970 N   0  0  0  0  0  0  0  0  0  0  0  0
  -23.2290  -31.1670   23.6220 O   0  0  0  0  0  0  0  0  0  0  0  0
  -21.6900  -28.7850   22.4510 C   0  0  0  0  0  0  0  0  0  0  0  0
  -20.3630  -28.6160   22.4150 N   0  0  0  0  0  0  0  0  0  0  0  0
  -22.4300  -28.1630   23.2160 O   0  0  0  0  0  0  0  0  0  0  0  0
  -19.8340  -29.1820   21.7650 H   0  0  0  0  0  0  0  0  0  0  0  0
  -17.1440  -27.0530   22.8070 C   0  0  0  0  0  0  0  0  0  0  0  0
  -19.6140  -27.6560   23.2160 C   0  0  0  0  0  3  0  0  0  0  0  0
  -19.9390  -26.2060   22.7910 C   0  0  0  0  0  2  0  0  0  0  0  0
  -18.9640  -25.6560   21.7460 C   0  0  0  0  0  2  0  0  0  0  0  0
  -17.5390  -25.6760   22.3020 C   0  0  0  0  0  2  0  0  0  0  0  0
  -18.1230  -27.9900   23.2220 C   0  0  0  0  0  0  0  0  0  0  0  0
  -17.7120  -29.2700   23.6490 C   0  0  0  0  0  3  0  0  0  0  0  0
  -16.3500  -29.6200   23.6720 C   0  0  0  0  0  3  0  0  0  0  0  0
  -15.3810  -28.6800   23.2780 C   0  0  0  0  0  3  0  0  0  0  0  0
  -15.7780  -27.4010   22.8530 C   0  0  0  0  0  3  0  0  0  0  0  0
  -25.5750  -31.0900   23.1460 C   0  0  0  0  0  3  0  0  0  0  0  0
  -25.5960  -32.3020   23.9840 N   0  0  0  0  0  0  0  0  0  0  0  0
  -25.9330  -33.5260   23.5550 C   0  0  0  0  0  0  0  0  0  0  0  0
  -26.3270  -33.7480   22.4070 O   0  0  0  0  0  0  0  0  0  0  0  0
  -25.2370  -32.2130   24.9240 H   0  0  0  0  0  0  0  0  0  0  0  0
  -24.5600  -35.5290   24.2260 C   0  0  0  0  0  1  0  0  0  0  0  0
  -25.8070  -34.6920   24.5570 C   0  0  0  0  0  3  0  0  0  0  0  0
  -28.1670  -34.9310   25.1870 C   0  0  0  0  0  1  0  0  0  0  0  0
  -26.9960  -35.5700   24.5950 N   0  0  0  0  0  0  0  0  0  0  0  0
  -26.8020  -36.4180   25.1200 H   0  0  0  0  0  0  0  0  0  0  0  0
  -26.3400  -29.9100   23.8680 C   0  0  1  0  0  0  0  0  0  0  0  0
  -25.5890  -29.3590   25.0980 C   0  0  0  0  0  1  0  0  0  0  0  0
  -26.5840  -28.7230   22.9050 C   0  0  0  0  0  1  0  0  0  0  0  0
  -27.7380  -30.3880   24.3350 C   0  0  0  0  0  1  0  0  0  0  0  0
  2  4  2  0
  3  2  1  0
  3  1  1  0
  5  3  1  0
  6  8  2  0
  6  7  1  0
  7  9  2  0
  8 11  1  0
  9 10  1  0
  9  2  1  0
 10 12  1  0
 11 21  1  0
 11 10  2  0
 13 19  1  0
 13 21  1  0
 14 19  1  0
 15 16  1  0
 15 14  1  0
 17 16  1  0
 17 26  1  0
 17 18  1  0
 19 18  1  0
 20 13  2  0
 21 22  1  0
 23 24  2  0
 24 43  1  0
 25 28  1  0
 25 24  1  0
 26 27  1  0
 26 23  1  0
 27 25  2  0
 28 29  1  0
 29 30  2  0
 31 34  1  0
 31 30  1  0
 32 31  2  0
 33 32  1  0
 33 28  2  0
 34 35  1  0
 35 40  2  0
 35 36  1  0
 36 37  2  0
 37 38  1  0
 38 42  1  0
 39 38  2  0
 40 39  1  0
 41 40  1  0
 43 44  1  0
 44 46  1  0
 44 47  1  0
 45 43  2  0
 48 23  1  0
 48 49  1  0
 50 48  1  0
 51  1  1  0
 53 52  1  0
 54 52  1  0
 55 53  1  0
 56 53  1  0
 57 56  1  0
 57 58  1  0
 58 59  1  0
 59 61  1  0
 60 71  2  0
 61 66  1  0
 62 70  1  0
 62 72  1  0
 63 69  1  0
 63 65  1  0
 64 70  1  0
 65 64  1  0
 66 65  2  0
 66 51  1  0
 67 61  2  0
 67 68  1  0
 68 63  2  0
 69 62  1  0
 70 60  1  0
 72 74  2  0
 73 72  1  0
 75 73  1  0
 76 85  2  0
 76 81  1  0
 77 73  1  0
 77 81  1  0
 78 77  1  0
 79 80  1  0
 79 78  1  0
 80 76  1  0
 81 82  2  0
 82 83  1  0
 84 83  2  0
 85 84  1  0
 86 60  1  0
 86 96  1  0
 86 87  1  0
 87 90  1  0
 88 87  1  0
 88 92  1  0
 89 88  2  0
 92 91  1  0
 92 94  1  0
 94 95  1  0
 94 93  1  0
 96 99  1  1
 96 97  1  0
 98 96  1  0
M  ISO  4  13 100  21 100  58 101  59 101
M  END
>  <TORSDO>  (63) 
F 23

>  <SCORE>  (63) 
-9.706

>  <name>  (63) 
62

>  <ligand_id>  (63) 
62

>  <original_smiles>  (63) 
[H]c1c([H])c(C(=O)N([H])C([H])([H])C([H])([H])C(=O)N([H])C([H])([H])C([H])([H])C([H])([H])Oc2c([H])c([H])c3c(c2[H])C([H])([H])N(C(=O)C([H])(N([H])C(=O)C([H])(N([H])C([H])([H])[H])C([H])([H])[H])C(C([H])([H])[H])(C([H])([H])[H])C([H])([H])[H])C([H])(C(=O)N([H])C2([H])c4c([H])c([H])c([H])c([H])c4C([H])([H])C([H])([H])C2([H])[H])C3([H])[H])c(C([H])([H])[H])c(N([H])C(=O)N2C([H])([H])C([H])([H])C([H])([H])C([H])(n3nc(-c4c([H])c([H])c(Oc5c([H])c([H])c(F)c([H])c5F)c([H])c4[H])c(C(=O)N([H])[H])c3N([H])[H])C2([H])[H])c1[H]

>  <smiles>  (63) 
[H]c1c([H])c(C(=O)N([H])C([H])([H])C([H])([H])C(=O)N([H])C([H])([H])C([H])([H])C([H])([H])Oc2c([H])c([H])c3c(c2[H])C([H])([H])N(C(=O)C([H])(N([H])C(=O)C([H])(N([H])C([H])([H])[H])C([H])([H])[H])C(C([H])([H])[H])(C([H])([H])[H])C([H])([H])[H])C([H])(C(=O)N([H])C2([H])c4c([H])c([H])c([H])c([H])c4C([H])([H])C([H])([H])C2([H])[H])C3([H])[H])c(C([H])([H])[H])c(N([H])C(=O)N2C([H])([H])C([H])([H])C([H])([H])C([H])(n3nc(-c4c([H])c([H])c(Oc5c([H])c([H])c(F)c([H])c5F)c([H])c4[H])c(C(=O)N([H])[H])c3N([H])[H])C2([H])[H])c1[H]

$$$$
63:0:0
     RDKit          3D

 93101  0  0  1  0  0  0  0  0999 V2000
  -28.2460  -21.5660   20.3780 C   0  0  0  0  0  2  0  0  0  0  0  0
  -30.8990  -18.2200   19.3040 C   0  0  0  0  0  3  0  0  0  0  0  0
  -30.8390  -19.3770   18.5020 C   0  0  0  0  0  3  0  0  0  0  0  0
  -29.3310  -19.2500   20.8550 C   0  0  0  0  0  3  0  0  0  0  0  0
  -30.1580  -18.1410   20.4980 C   0  0  0  0  0  0  0  0  0  0  0  0
  -29.2480  -20.4260   20.0460 C   0  0  0  0  0  0  0  0  0  0  0  0
  -30.0270  -20.4720   18.8640 C   0  0  0  0  0  0  0  0  0  0  0  0
  -29.9850  -21.8440   17.8140 Cl  0  0  0  0  0  0  0  0  0  0  0  0
  -30.3530  -16.9190   21.4260 C   0  0  0  0  0  2  0  0  0  0  0  0
  -30.6660  -14.5640   20.4650 C   0  0  0  0  0  0  0  0  0  0  0  0
  -30.4080  -12.3860   19.3100 C   0  0  0  0  0  2  0  0  0  0  0  0
  -29.4660  -12.5600   18.1000 C   0  0  0  0  0  2  0  0  0  0  0  0
  -27.9900  -12.4170   18.5260 C   0  0  0  0  0  2  0  0  0  0  0  0
  -27.6430  -13.2640   19.7790 C   0  0  0  0  0  3  0  0  0  0  0  0
  -28.6920  -13.0530   20.8910 C   0  0  0  0  0  2  0  0  0  0  0  0
  -30.0100  -13.3770   20.3230 N   0  0  0  0  0  0  0  0  0  0  0  0
  -31.8200  -14.7360   20.0660 O   0  0  0  0  0  0  0  0  0  0  0  0
  -29.9200  -15.5840   20.9540 N   0  0  0  0  0  0  0  0  0  0  0  0
  -28.9650  -15.3430   21.1670 H   0  0  0  0  0  0  0  0  0  0  0  0
  -25.2430  -13.8860   20.4670 C   0  0  0  0  0  0  0  0  0  0  0  0
  -24.1700  -13.1200   20.8360 C   0  0  0  0  0  0  0  0  0  0  0  0
  -24.6270  -11.7670   20.8230 C   0  0  0  0  0  0  0  0  0  0  0  0
  -26.2860  -12.9980   20.2520 N   0  0  0  0  0  0  0  0  0  0  0  0
  -25.9200  -11.7190   20.5250 N   0  0  0  0  0  0  0  0  0  0  0  0
  -23.8960  -10.5090   21.0180 C   0  0  0  0  0  0  0  0  0  0  0  0
  -24.3220   -9.5440   21.9580 C   0  0  0  0  0  3  0  0  0  0  0  0
  -23.5920   -8.3510   22.1400 C   0  0  0  0  0  3  0  0  0  0  0  0
  -22.4200   -8.1130   21.3830 C   0  0  0  0  0  0  0  0  0  0  0  0
  -22.0130   -9.0650   20.4330 C   0  0  0  0  0  3  0  0  0  0  0  0
  -22.7440  -10.2500   20.2480 C   0  0  0  0  0  3  0  0  0  0  0  0
  -21.6620   -6.9710   21.4750 O   0  0  0  0  0  0  0  0  0  0  0  0
  -21.6120   -6.2300   22.6290 C   0  0  0  0  0  0  0  0  0  0  0  0
  -21.1930   -6.7900   23.8550 C   0  0  0  0  0  3  0  0  0  0  0  0
  -21.0900   -5.9760   25.0020 C   0  0  0  0  0  3  0  0  0  0  0  0
  -21.3960   -4.6050   24.9220 C   0  0  0  0  0  0  0  0  0  0  0  0
  -21.8090   -4.0450   23.7000 C   0  0  0  0  0  3  0  0  0  0  0  0
  -21.9130   -4.8550   22.5560 C   0  0  0  0  0  0  0  0  0  0  0  0
  -22.2910   -4.3070   21.3760 F   0  0  0  0  0  0  0  0  0  0  0  0
  -21.2910   -3.8210   26.0200 F   0  0  0  0  0  0  0  0  0  0  0  0
  -22.7720  -13.6040   21.0920 C   0  0  0  0  0  0  0  0  0  0  0  0
  -22.0350  -12.9190   21.9590 N   0  0  0  0  0  0  0  0  0  0  0  0
  -22.3410  -14.6250   20.5580 O   0  0  0  0  0  0  0  0  0  0  0  0
  -22.3960  -12.0920   22.4130 H   0  0  0  0  0  0  0  0  0  0  0  0
  -21.0970  -13.2260   22.1730 H   0  0  0  0  0  0  0  0  0  0  0  0
  -25.4140  -15.2540   20.2780 N   0  0  0  0  0  0  0  0  0  0  0  0
  -24.6450  -15.9090   20.3700 H   0  0  0  0  0  0  0  0  0  0  0  0
  -26.2630  -15.6860   19.9340 H   0  0  0  0  0  0  0  0  0  0  0  0
  -28.2960  -24.0900   20.1960 C   0  0  0  0  0  0  0  0  0  0  0  0
  -29.6130  -22.9240   21.9450 C   0  0  0  0  0  1  0  0  0  0  0  0
  -28.7490  -22.9210   20.7620 N   0  0  0  0  0  0  0  0  0  0  0  0
  -27.6860  -24.0850   19.1230 O   0  0  0  0  0  0  0  0  0  0  0  0
  -28.4590  -25.4560   20.9520 C   0  0  0  0  0  2  0  0  0  0  0  0
  -28.3830  -26.6450   20.1150 O   0  0  0  0  0  0  0  0  0  0  0  0
  -24.5920  -31.8870   23.2450 C   0  0  0  0  0  0  0  0  0  0  0  0
  -27.2230  -27.4030   20.1760 C   0  0  0  0  0  0  0  0  0  0  0  0
  -23.3860  -30.4870   21.6040 C   0  0  0  0  0  3  0  0  0  0  0  0
  -24.8380  -28.9410   20.1840 C   0  0  0  0  0  0  0  0  0  0  0  0
  -25.9160  -30.8320   21.4090 C   0  0  0  0  0  2  0  0  0  0  0  0
  -26.0010  -29.4570   20.7710 C   0  0  0  0  0  0  0  0  0  0  0  0
  -27.1990  -28.6970   20.7590 C   0  0  0  0  0  3  0  0  0  0  0  0
  -26.0430  -26.9110   19.5850 C   0  0  0  0  0  3  0  0  0  0  0  0
  -24.8550  -27.6690   19.5860 C   0  0  0  0  0  3  0  0  0  0  0  0
  -23.5970  -29.8070   20.2260 C   0  0  0  0  0  2  0  0  0  0  0  0
  -24.6500  -31.0850   22.1440 N   0  0  0  0  0  0  0  0  0  0  0  0
  -23.5100  -32.1600   23.7840 O   0  0  0  0  0  0  0  0  0  0  0  0
  -22.7310  -29.4680   22.5640 C   0  0  0  0  0  0  0  0  0  0  0  0
  -21.4060  -29.2860   22.4340 N   0  0  0  0  0  0  0  0  0  0  0  0
  -23.4120  -28.8420   23.3810 O   0  0  0  0  0  0  0  0  0  0  0  0
  -20.9170  -29.8420   21.7470 H   0  0  0  0  0  0  0  0  0  0  0  0
  -18.0300  -28.0890   22.9260 C   0  0  0  0  0  0  0  0  0  0  0  0
  -20.5880  -28.3470   23.2030 C   0  0  0  0  0  3  0  0  0  0  0  0
  -20.6920  -26.9170   22.6270 C   0  0  0  0  0  2  0  0  0  0  0  0
  -19.5930  -26.5950   21.6100 C   0  0  0  0  0  2  0  0  0  0  0  0
  -18.2090  -26.7390   22.2510 C   0  0  0  0  0  2  0  0  0  0  0  0
  -19.1480  -28.8510   23.3590 C   0  0  0  0  0  0  0  0  0  0  0  0
  -18.9280  -30.1150   23.9490 C   0  0  0  0  0  3  0  0  0  0  0  0
  -17.6240  -30.6170   24.1110 C   0  0  0  0  0  3  0  0  0  0  0  0
  -16.5210  -29.8520   23.6960 C   0  0  0  0  0  3  0  0  0  0  0  0
  -16.7240  -28.5890   23.1090 C   0  0  0  0  0  3  0  0  0  0  0  0
  -25.8780  -32.5160   23.8670 C   0  0  0  0  0  3  0  0  0  0  0  0
  -26.3940  -31.7450   25.1440 C   0  0  1  0  0  0  0  0  0  0  0  0
  -25.3010  -31.5100   26.2120 C   0  0  0  0  0  1  0  0  0  0  0  0
  -26.9730  -30.3660   24.7500 C   0  0  0  0  0  1  0  0  0  0  0  0
  -27.5460  -32.5370   25.8040 C   0  0  0  0  0  1  0  0  0  0  0  0
  -25.5720  -33.9150   24.1950 N   0  0  0  0  0  0  0  0  0  0  0  0
  -25.9060  -34.9660   23.4330 C   0  0  0  0  0  0  0  0  0  0  0  0
  -26.5760  -34.8590   22.4010 O   0  0  0  0  0  0  0  0  0  0  0  0
  -24.9770  -34.0730   24.9950 H   0  0  0  0  0  0  0  0  0  0  0  0
  -24.1810  -36.7600   23.0740 C   0  0  0  0  0  1  0  0  0  0  0  0
  -25.4210  -36.3560   23.8860 C   0  0  0  0  0  3  0  0  0  0  0  0
  -27.5560  -37.2390   24.7160 C   0  0  0  0  0  1  0  0  0  0  0  0
  -26.4550  -37.4070   23.7720 N   0  0  0  0  0  0  0  0  0  0  0  0
  -26.0510  -38.3280   23.9170 H   0  0  0  0  0  0  0  0  0  0  0  0
  1 50  1  0
  2  5  1  0
  3  7  1  0
  3  2  2  0
  5  4  2  0
  5  9  1  0
  6  1  1  0
  6  4  1  0
  7  6  2  0
  8  7  1  0
 10 18  1  0
 11 16  1  0
 12 13  1  0
 12 11  1  0
 14 13  1  0
 14 23  1  0
 14 15  1  0
 16 10  1  0
 16 15  1  0
 17 10  2  0
 18 19  1  0
 18  9  1  0
 20 21  2  0
 21 40  1  0
 22 21  1  0
 22 25  1  0
 23 20  1  0
 23 24  1  0
 24 22  2  0
 25 26  1  0
 26 27  2  0
 28 31  1  0
 28 27  1  0
 29 28  2  0
 30 29  1  0
 30 25  2  0
 31 32  1  0
 32 33  1  0
 33 34  2  0
 35 34  1  0
 35 39  1  0
 36 35  2  0
 37 32  2  0
 37 36  1  0
 38 37  1  0
 40 41  1  0
 41 44  1  0
 41 43  1  0
 42 40  2  0
 45 46  1  0
 45 20  1  0
 47 45  1  0
 48 50  1  0
 48 52  1  0
 50 49  1  0
 51 48  2  0
 53 55  1  0
 53 52  1  0
 54 65  2  0
 55 60  1  0
 56 64  1  0
 56 66  1  0
 57 63  1  0
 57 59  1  0
 58 64  1  0
 59 58  1  0
 60 59  2  0
 61 62  1  0
 61 55  2  0
 62 57  2  0
 63 56  1  0
 64 54  1  0
 66 68  2  0
 67 66  1  0
 69 67  1  0
 70 79  2  0
 70 75  1  0
 71 67  1  0
 71 75  1  0
 72 71  1  0
 73 74  1  0
 73 72  1  0
 74 70  1  0
 75 76  2  0
 76 77  1  0
 78 77  2  0
 79 78  1  0
 80 54  1  0
 80 85  1  0
 80 81  1  0
 81 84  1  1
 81 82  1  0
 83 81  1  0
 85 88  1  0
 86 90  1  0
 86 85  1  0
 87 86  2  0
 90 89  1  0
 92 90  1  0
 92 93  1  0
 92 91  1  0
M  ISO  4  10 100  18 100  52 101  53 101
M  END
>  <TORSDO>  (64) 
F 20

>  <SCORE>  (64) 
-14.066

>  <name>  (64) 
63

>  <ligand_id>  (64) 
63

>  <original_smiles>  (64) 
[H]c1c([H])c([H])c2c(c1[H])C([H])([H])C([H])([H])C([H])([H])C2([H])N([H])C(=O)C1([H])N(C(=O)C([H])(N([H])C(=O)C([H])(N([H])C([H])([H])[H])C([H])([H])[H])C(C([H])([H])[H])(C([H])([H])[H])C([H])([H])[H])C([H])([H])c2c([H])c(OC([H])([H])C(=O)N(C([H])([H])[H])C([H])([H])c3c([H])c(C([H])([H])N([H])C(=O)N4C([H])([H])C([H])([H])C([H])([H])C([H])(n5nc(-c6c([H])c([H])c(Oc7c([H])c([H])c(F)c([H])c7F)c([H])c6[H])c(C(=O)N([H])[H])c5N([H])[H])C4([H])[H])c([H])c([H])c3Cl)c([H])c([H])c2C1([H])[H]

>  <smiles>  (64) 
[H]c1c([H])c([H])c2c(c1[H])C([H])([H])C([H])([H])C([H])([H])C2([H])N([H])C(=O)C1([H])N(C(=O)C([H])(N([H])C(=O)C([H])(N([H])C([H])([H])[H])C([H])([H])[H])C(C([H])([H])[H])(C([H])([H])[H])C([H])([H])[H])C([H])([H])c2c([H])c(OC([H])([H])C(=O)N(C([H])([H])[H])C([H])([H])c3c([H])c(C([H])([H])N([H])C(=O)N4C([H])([H])C([H])([H])C([H])([H])C([H])(n5nc(-c6c([H])c([H])c(Oc7c([H])c([H])c(F)c([H])c7F)c([H])c6[H])c(C(=O)N([H])[H])c5N([H])[H])C4([H])[H])c([H])c([H])c3Cl)c([H])c([H])c2C1([H])[H]

$$$$
64:0:0
     RDKit          3D

 96105  0  0  1  0  0  0  0  0999 V2000
  -30.2160  -23.2540   20.3810 C   0  0  0  0  0  0  0  0  0  0  0  0
  -31.2870  -22.6840   20.9620 C   0  0  0  0  0  2  0  0  0  0  0  0
  -30.1230  -24.7510   20.0280 C   0  0  0  0  0  2  0  0  0  0  0  0
  -27.7230  -24.5570   20.6650 C   0  0  0  0  0  2  0  0  0  0  0  0
  -27.6630  -23.1050   20.1640 C   0  0  0  0  0  2  0  0  0  0  0  0
  -28.7160  -25.3430   19.8020 C   0  0  0  0  0  3  0  0  0  0  0  0
  -28.9860  -22.4120   20.1190 N   0  0  1  0  0  4  0  0  0  0  0  0
  -28.9300  -21.7880   20.9110 H   0  0  0  0  0  0  0  0  0  0  0  0
  -28.7120  -26.7530   20.1160 O   0  0  0  0  0  0  0  0  0  0  0  0
  -24.6680  -31.7640   23.1640 C   0  0  0  0  0  0  0  0  0  0  0  0
  -27.5130  -27.4480   20.0700 C   0  0  0  0  0  0  0  0  0  0  0  0
  -23.5430  -30.3610   21.4670 C   0  0  0  0  0  3  0  0  0  0  0  0
  -25.0730  -28.8960   20.0500 C   0  0  0  0  0  0  0  0  0  0  0  0
  -26.0620  -30.7950   21.3370 C   0  0  0  0  0  2  0  0  0  0  0  0
  -26.2040  -29.4380   20.6740 C   0  0  0  0  0  0  0  0  0  0  0  0
  -27.4250  -28.7240   20.6760 C   0  0  0  0  0  3  0  0  0  0  0  0
  -26.3610  -26.9290   19.4330 C   0  0  0  0  0  3  0  0  0  0  0  0
  -25.1490  -27.6400   19.4250 C   0  0  0  0  0  3  0  0  0  0  0  0
  -23.8050  -29.7170   20.0810 C   0  0  0  0  0  2  0  0  0  0  0  0
  -24.7750  -30.9870   22.0500 N   0  0  0  0  0  0  0  0  0  0  0  0
  -23.5680  -31.9950   23.6830 O   0  0  0  0  0  0  0  0  0  0  0  0
  -22.9000  -29.3030   22.3920 C   0  0  0  0  0  0  0  0  0  0  0  0
  -21.5730  -29.1320   22.2720 N   0  0  0  0  0  0  0  0  0  0  0  0
  -23.5900  -28.6420   23.1720 O   0  0  0  0  0  0  0  0  0  0  0  0
  -21.0750  -29.7190   21.6150 H   0  0  0  0  0  0  0  0  0  0  0  0
  -18.1910  -27.9760   22.8030 C   0  0  0  0  0  0  0  0  0  0  0  0
  -20.7610  -28.1650   23.0100 C   0  0  0  0  0  3  0  0  0  0  0  0
  -20.8150  -26.7710   22.3450 C   0  0  0  0  0  2  0  0  0  0  0  0
  -19.6760  -26.5330   21.3480 C   0  0  0  0  0  2  0  0  0  0  0  0
  -18.3180  -26.6660   22.0440 C   0  0  0  0  0  2  0  0  0  0  0  0
  -19.3390  -28.6880   23.2440 C   0  0  0  0  0  0  0  0  0  0  0  0
  -19.1670  -29.9180   23.9140 C   0  0  0  0  0  3  0  0  0  0  0  0
  -17.8790  -30.4370   24.1500 C   0  0  0  0  0  3  0  0  0  0  0  0
  -16.7460  -29.7210   23.7270 C   0  0  0  0  0  3  0  0  0  0  0  0
  -16.9040  -28.4920   23.0600 C   0  0  0  0  0  3  0  0  0  0  0  0
  -25.9210  -32.4190   23.8280 C   0  0  0  0  0  3  0  0  0  0  0  0
  -26.4180  -31.6500   25.1140 C   0  0  1  0  0  0  0  0  0  0  0  0
  -25.2970  -31.3820   26.1470 C   0  0  0  0  0  1  0  0  0  0  0  0
  -27.0380  -30.2870   24.7280 C   0  0  0  0  0  1  0  0  0  0  0  0
  -27.5310  -32.4610   25.8160 C   0  0  0  0  0  1  0  0  0  0  0  0
  -25.5760  -33.8080   24.1540 N   0  0  0  0  0  0  0  0  0  0  0  0
  -25.9150  -34.8700   23.4100 C   0  0  0  0  0  0  0  0  0  0  0  0
  -26.6240  -34.7850   22.4040 O   0  0  0  0  0  0  0  0  0  0  0  0
  -24.9520  -33.9480   24.9350 H   0  0  0  0  0  0  0  0  0  0  0  0
  -24.1560  -36.6210   23.0060 C   0  0  0  0  0  1  0  0  0  0  0  0
  -25.3840  -36.2460   23.8530 C   0  0  0  0  0  3  0  0  0  0  0  0
  -27.4770  -37.1740   24.7390 C   0  0  0  0  0  1  0  0  0  0  0  0
  -26.3940  -37.3230   23.7700 N   0  0  0  0  0  0  0  0  0  0  0  0
  -25.9640  -38.2330   23.9130 H   0  0  0  0  0  0  0  0  0  0  0  0
  -29.1300  -21.4590   18.9740 C   0  0  0  0  0  2  0  0  0  0  0  0
  -28.2980  -17.2420   19.7990 C   0  0  0  0  0  3  0  0  0  0  0  0
  -27.2920  -18.0650   19.2600 C   0  0  0  0  0  3  0  0  0  0  0  0
  -29.8120  -19.1490   19.8480 C   0  0  0  0  0  3  0  0  0  0  0  0
  -29.5760  -17.7700   20.0730 C   0  0  0  0  0  0  0  0  0  0  0  0
  -28.8050  -19.9910   19.3010 C   0  0  0  0  0  0  0  0  0  0  0  0
  -27.5450  -19.4220   18.9880 C   0  0  0  0  0  0  0  0  0  0  0  0
  -26.2880  -20.3470   18.2490 Cl  0  0  0  0  0  0  0  0  0  0  0  0
  -30.6870  -16.8610   20.6080 C   0  0  0  0  0  2  0  0  0  0  0  0
  -30.9620  -14.4160   20.1010 C   0  0  0  0  0  0  0  0  0  0  0  0
  -30.6800  -12.1090   19.2740 C   0  0  0  0  0  2  0  0  0  0  0  0
  -29.7150  -12.0910   18.0700 C   0  0  0  0  0  2  0  0  0  0  0  0
  -28.2500  -12.0040   18.5390 C   0  0  0  0  0  2  0  0  0  0  0  0
  -27.9140  -13.0440   19.6400 C   0  0  0  0  0  3  0  0  0  0  0  0
  -28.9800  -13.0040   20.7600 C   0  0  0  0  0  2  0  0  0  0  0  0
  -30.2990  -13.2310   20.1440 N   0  0  0  0  0  0  0  0  0  0  0  0
  -32.0410  -14.5680   19.5200 O   0  0  0  0  0  0  0  0  0  0  0  0
  -30.3090  -15.4450   20.6610 N   0  0  0  0  0  0  0  0  0  0  0  0
  -29.4290  -15.2230   21.0970 H   0  0  0  0  0  0  0  0  0  0  0  0
  -25.5800  -13.7850   20.4370 C   0  0  0  0  0  0  0  0  0  0  0  0
  -24.4810  -13.0710   20.8350 C   0  0  0  0  0  0  0  0  0  0  0  0
  -24.8600  -11.6950   20.7730 C   0  0  0  0  0  0  0  0  0  0  0  0
  -26.5640  -12.8470   20.1640 N   0  0  0  0  0  0  0  0  0  0  0  0
  -26.1340  -11.5840   20.4190 N   0  0  0  0  0  0  0  0  0  0  0  0
  -24.0690  -10.4740   20.9750 C   0  0  0  0  0  0  0  0  0  0  0  0
  -24.4700   -9.4810   21.8950 C   0  0  0  0  0  3  0  0  0  0  0  0
  -23.6840   -8.3240   22.0860 C   0  0  0  0  0  3  0  0  0  0  0  0
  -22.4840   -8.1540   21.3570 C   0  0  0  0  0  0  0  0  0  0  0  0
  -22.1010   -9.1340   20.4250 C   0  0  0  0  0  3  0  0  0  0  0  0
  -22.8880  -10.2820   20.2310 C   0  0  0  0  0  3  0  0  0  0  0  0
  -21.6700   -7.0520   21.4590 O   0  0  0  0  0  0  0  0  0  0  0  0
  -21.5960   -6.3160   22.6150 C   0  0  0  0  0  0  0  0  0  0  0  0
  -21.2220   -6.8980   23.8440 C   0  0  0  0  0  3  0  0  0  0  0  0
  -21.0900   -6.0920   24.9930 C   0  0  0  0  0  3  0  0  0  0  0  0
  -21.3200   -4.7060   24.9120 C   0  0  0  0  0  0  0  0  0  0  0  0
  -21.6880   -4.1240   23.6850 C   0  0  0  0  0  3  0  0  0  0  0  0
  -21.8220   -4.9270   22.5390 C   0  0  0  0  0  0  0  0  0  0  0  0
  -22.1540   -4.3590   21.3540 F   0  0  0  0  0  0  0  0  0  0  0  0
  -21.1850   -3.9290   26.0120 F   0  0  0  0  0  0  0  0  0  0  0  0
  -23.1240  -13.6250   21.1650 C   0  0  0  0  0  0  0  0  0  0  0  0
  -22.3860  -12.9580   22.0470 N   0  0  0  0  0  0  0  0  0  0  0  0
  -22.7270  -14.6790   20.6730 O   0  0  0  0  0  0  0  0  0  0  0  0
  -22.7160  -12.1000   22.4620 H   0  0  0  0  0  0  0  0  0  0  0  0
  -21.4750  -13.3100   22.3070 H   0  0  0  0  0  0  0  0  0  0  0  0
  -25.8200  -15.1450   20.2690 N   0  0  0  0  0  0  0  0  0  0  0  0
  -25.1010  -15.8430   20.4180 H   0  0  0  0  0  0  0  0  0  0  0  0
  -26.6880  -15.5370   19.9240 H   0  0  0  0  0  0  0  0  0  0  0  0
  1  2  2  0
  3  1  1  0
  5  4  1  0
  6  3  1  0
  6  9  1  0
  6  4  1  0
  7  5  1  0
  7  1  1  0
  7  8  1  1
 10 21  2  0
 11  9  1  0
 11 16  1  0
 12 20  1  0
 12 22  1  0
 13 19  1  0
 13 15  1  0
 14 20  1  0
 15 16  2  0
 15 14  1  0
 17 11  2  0
 18 17  1  0
 18 13  2  0
 19 12  1  0
 20 10  1  0
 22 24  2  0
 23 22  1  0
 25 23  1  0
 26 35  2  0
 26 31  1  0
 27 23  1  0
 27 31  1  0
 28 27  1  0
 29 30  1  0
 29 28  1  0
 30 26  1  0
 31 32  2  0
 32 33  1  0
 34 33  2  0
 35 34  1  0
 36 10  1  0
 36 41  1  0
 36 37  1  0
 37 40  1  1
 37 38  1  0
 39 37  1  0
 41 44  1  0
 42 46  1  0
 42 41  1  0
 43 42  2  0
 46 45  1  0
 48 46  1  0
 48 49  1  0
 48 47  1  0
 50 55  1  0
 50  7  1  0
 51 54  1  0
 52 51  2  0
 53 54  2  0
 54 58  1  0
 55 53  1  0
 56 52  1  0
 56 55  2  0
 57 56  1  0
 58 67  1  0
 59 65  1  0
 59 67  1  0
 60 65  1  0
 61 62  1  0
 61 60  1  0
 63 62  1  0
 63 72  1  0
 63 64  1  0
 65 64  1  0
 66 59  2  0
 67 68  1  0
 69 70  2  0
 70 89  1  0
 71 70  1  0
 71 74  1  0
 72 73  1  0
 72 69  1  0
 73 71  2  0
 74 75  1  0
 75 76  2  0
 77 80  1  0
 77 76  1  0
 78 77  2  0
 79 78  1  0
 79 74  2  0
 80 81  1  0
 81 82  1  0
 82 83  2  0
 84 83  1  0
 84 88  1  0
 85 84  2  0
 86 81  2  0
 86 85  1  0
 87 86  1  0
 89 90  1  0
 90 93  1  0
 90 92  1  0
 91 89  2  0
 94 95  1  0
 94 69  1  0
 96 94  1  0
M  ISO  4   6 101   9 101  59 100  67 100
M  END
>  <TORSDO>  (65) 
F 19

>  <SCORE>  (65) 
-14.379

>  <name>  (65) 
64

>  <ligand_id>  (65) 
64

>  <original_smiles>  (65) 
[H]C([H])=C1C([H])([H])C([H])(Oc2c([H])c([H])c3c(c2[H])C([H])([H])N(C(=O)C([H])(N([H])C(=O)C([H])(N([H])C([H])([H])[H])C([H])([H])[H])C(C([H])([H])[H])(C([H])([H])[H])C([H])([H])[H])C([H])(C(=O)N([H])C2([H])c4c([H])c([H])c([H])c([H])c4C([H])([H])C([H])([H])C2([H])[H])C3([H])[H])C([H])([H])C([H])([H])[N+]1([H])C([H])([H])c1c([H])c(C([H])([H])N([H])C(=O)N2C([H])([H])C([H])([H])C([H])([H])C([H])(n3nc(-c4c([H])c([H])c(Oc5c([H])c([H])c(F)c([H])c5F)c([H])c4[H])c(C(=O)N([H])[H])c3N([H])[H])C2([H])[H])c([H])c([H])c1Cl

>  <smiles>  (65) 
[H]C([H])=C1C([H])([H])C([H])(Oc2c([H])c([H])c3c(c2[H])C([H])([H])N(C(=O)C([H])(N([H])C(=O)C([H])(N([H])C([H])([H])[H])C([H])([H])[H])C(C([H])([H])[H])(C([H])([H])[H])C([H])([H])[H])C([H])(C(=O)N([H])C2([H])c4c([H])c([H])c([H])c([H])c4C([H])([H])C([H])([H])C2([H])[H])C3([H])[H])C([H])([H])C([H])([H])[N+]1([H])C([H])([H])c1c([H])c(C([H])([H])N([H])C(=O)N2C([H])([H])C([H])([H])C([H])([H])C([H])(n3nc(-c4c([H])c([H])c(Oc5c([H])c([H])c(F)c([H])c5F)c([H])c4[H])c(C(=O)N([H])[H])c3N([H])[H])C2([H])[H])c([H])c([H])c1Cl

$$$$
65:0:0
     RDKit          3D

 97106  0  0  1  0  0  0  0  0999 V2000
  -29.4210  -23.3530   19.8720 C   0  0  0  0  0  0  0  0  0  0  0  0
  -27.6050  -22.1810   17.9440 C   0  0  0  0  0  2  0  0  0  0  0  0
  -27.7380  -23.7020   17.9380 C   0  0  0  0  0  2  0  0  0  0  0  0
  -28.9810  -21.5570   18.1870 C   0  0  0  0  0  2  0  0  0  0  0  0
  -28.3110  -24.2650   19.2600 C   0  0  0  0  0  3  0  0  0  0  0  0
  -29.6550  -22.0950   19.3820 N   0  0  0  0  0  0  0  0  0  0  0  0
  -30.0730  -23.8090   20.8180 O   0  0  0  0  0  0  0  0  0  0  0  0
  -30.8360  -21.3140   19.8420 C   0  0  0  0  0  2  0  0  0  0  0  0
  -31.7610  -17.5400   20.0270 C   0  0  0  0  0  3  0  0  0  0  0  0
  -31.8470  -18.9330   19.8030 C   0  0  0  0  0  0  0  0  0  0  0  0
  -30.7210  -19.7760   20.0330 C   0  0  0  0  0  0  0  0  0  0  0  0
  -29.5310  -19.1720   20.5370 C   0  0  0  0  0  0  0  0  0  0  0  0
  -30.5560  -16.9230   20.4260 C   0  0  0  0  0  0  0  0  0  0  0  0
  -29.4430  -17.7560   20.6830 C   0  0  0  0  0  0  0  0  0  0  0  0
  -33.1930  -19.4640   19.3260 C   0  0  0  0  0  1  0  0  0  0  0  0
  -28.3500  -20.0370   20.9670 C   0  0  0  0  0  1  0  0  0  0  0  0
  -27.9590  -17.0120   21.1780 Cl  0  0  0  0  0  0  0  0  0  0  0  0
  -30.9200  -14.5040   19.8400 C   0  0  0  0  0  0  0  0  0  0  0  0
  -30.4510  -12.3760   18.6910 C   0  0  0  0  0  2  0  0  0  0  0  0
  -29.4550  -12.6490   17.5480 C   0  0  0  0  0  2  0  0  0  0  0  0
  -28.0050  -12.5350   18.0580 C   0  0  0  0  0  2  0  0  0  0  0  0
  -27.7640  -13.3520   19.3570 C   0  0  0  0  0  3  0  0  0  0  0  0
  -28.8840  -13.0950   20.3960 C   0  0  0  0  0  2  0  0  0  0  0  0
  -30.1850  -13.3600   19.7560 N   0  0  0  0  0  0  0  0  0  0  0  0
  -31.9770  -14.6400   19.2240 O   0  0  0  0  0  0  0  0  0  0  0  0
  -30.4010  -15.4970   20.5910 N   0  0  0  0  0  0  0  0  0  0  0  0
  -29.6220  -15.2290   21.1720 H   0  0  0  0  0  0  0  0  0  0  0  0
  -25.4150  -13.9790   20.2170 C   0  0  0  0  0  0  0  0  0  0  0  0
  -24.3660  -13.2160   20.6540 C   0  0  0  0  0  0  0  0  0  0  0  0
  -24.8090  -11.8600   20.5960 C   0  0  0  0  0  0  0  0  0  0  0  0
  -26.4380  -13.0870   19.9200 N   0  0  0  0  0  0  0  0  0  0  0  0
  -26.0760  -11.8070   20.2030 N   0  0  0  0  0  0  0  0  0  0  0  0
  -24.0820  -10.6050   20.8410 C   0  0  0  0  0  0  0  0  0  0  0  0
  -24.5010   -9.6880   21.8310 C   0  0  0  0  0  3  0  0  0  0  0  0
  -23.7760   -8.5000   22.0590 C   0  0  0  0  0  3  0  0  0  0  0  0
  -22.6170   -8.2170   21.3010 C   0  0  0  0  0  0  0  0  0  0  0  0
  -22.2160   -9.1220   20.3020 C   0  0  0  0  0  3  0  0  0  0  0  0
  -22.9420  -10.3030   20.0700 C   0  0  0  0  0  3  0  0  0  0  0  0
  -21.8640   -7.0740   21.4360 O   0  0  0  0  0  0  0  0  0  0  0  0
  -21.7230   -6.4450   22.6470 C   0  0  0  0  0  0  0  0  0  0  0  0
  -21.1990   -7.1130   23.7760 C   0  0  0  0  0  3  0  0  0  0  0  0
  -21.0030   -6.4090   24.9820 C   0  0  0  0  0  3  0  0  0  0  0  0
  -21.3220   -5.0400   25.0590 C   0  0  0  0  0  0  0  0  0  0  0  0
  -21.8390   -4.3730   23.9350 C   0  0  0  0  0  3  0  0  0  0  0  0
  -22.0370   -5.0740   22.7330 C   0  0  0  0  0  0  0  0  0  0  0  0
  -22.5150   -4.4220   21.6460 F   0  0  0  0  0  0  0  0  0  0  0  0
  -21.1280   -4.3620   26.2140 F   0  0  0  0  0  0  0  0  0  0  0  0
  -22.9940  -13.7080   21.0150 C   0  0  0  0  0  0  0  0  0  0  0  0
  -22.3290  -13.0490   21.9570 N   0  0  0  0  0  0  0  0  0  0  0  0
  -22.5190  -14.7180   20.4920 O   0  0  0  0  0  0  0  0  0  0  0  0
  -22.7210  -12.2350   22.4090 H   0  0  0  0  0  0  0  0  0  0  0  0
  -21.4130  -13.3700   22.2380 H   0  0  0  0  0  0  0  0  0  0  0  0
  -25.5770  -15.3460   20.0270 N   0  0  0  0  0  0  0  0  0  0  0  0
  -24.8500  -16.0130   20.2670 H   0  0  0  0  0  0  0  0  0  0  0  0
  -26.4160  -15.7890   19.6780 H   0  0  0  0  0  0  0  0  0  0  0  0
  -28.7540  -25.7550   19.0510 C   0  0  0  0  0  2  0  0  0  0  0  0
  -28.4990  -26.6910   20.1210 O   0  0  0  0  0  0  0  0  0  0  0  0
  -24.6460  -31.8110   23.3030 C   0  0  0  0  0  0  0  0  0  0  0  0
  -27.3220  -27.4220   20.1230 C   0  0  0  0  0  0  0  0  0  0  0  0
  -23.4600  -30.4570   21.6070 C   0  0  0  0  0  3  0  0  0  0  0  0
  -24.9310  -28.9500   20.1610 C   0  0  0  0  0  0  0  0  0  0  0  0
  -25.9970  -30.7920   21.4740 C   0  0  0  0  0  2  0  0  0  0  0  0
  -26.0810  -29.4400   20.7930 C   0  0  0  0  0  0  0  0  0  0  0  0
  -27.2750  -28.6750   20.7810 C   0  0  0  0  0  3  0  0  0  0  0  0
  -26.1440  -26.9530   19.4940 C   0  0  0  0  0  3  0  0  0  0  0  0
  -24.9590  -27.7060   19.5160 C   0  0  0  0  0  3  0  0  0  0  0  0
  -23.6880  -29.8120   20.2150 C   0  0  0  0  0  2  0  0  0  0  0  0
  -24.7170  -31.0350   22.1850 N   0  0  0  0  0  0  0  0  0  0  0  0
  -23.5570  -32.0750   23.8320 O   0  0  0  0  0  0  0  0  0  0  0  0
  -22.7920  -29.4110   22.5300 C   0  0  0  0  0  0  0  0  0  0  0  0
  -21.4770  -29.2030   22.3500 N   0  0  0  0  0  0  0  0  0  0  0  0
  -23.4550  -28.7880   23.3630 O   0  0  0  0  0  0  0  0  0  0  0  0
  -21.0020  -29.7560   21.6510 H   0  0  0  0  0  0  0  0  0  0  0  0
  -18.1190  -27.9210   22.6700 C   0  0  0  0  0  0  0  0  0  0  0  0
  -20.6490  -28.2440   23.0780 C   0  0  0  0  0  3  0  0  0  0  0  0
  -20.8190  -26.8160   22.5100 C   0  0  0  0  0  2  0  0  0  0  0  0
  -19.7860  -26.4680   21.4330 C   0  0  0  0  0  2  0  0  0  0  0  0
  -18.3660  -26.5800   21.9990 C   0  0  0  0  0  2  0  0  0  0  0  0
  -19.1920  -28.7100   23.1600 C   0  0  0  0  0  0  0  0  0  0  0  0
  -18.9120  -29.9650   23.7400 C   0  0  0  0  0  3  0  0  0  0  0  0
  -17.5890  -30.4350   23.8360 C   0  0  0  0  0  3  0  0  0  0  0  0
  -16.5270  -29.6400   23.3690 C   0  0  0  0  0  3  0  0  0  0  0  0
  -16.7930  -28.3850   22.7920 C   0  0  0  0  0  3  0  0  0  0  0  0
  -25.9250  -32.4200   23.9570 C   0  0  0  0  0  3  0  0  0  0  0  0
  -26.3980  -31.6430   25.2460 C   0  0  1  0  0  0  0  0  0  0  0  0
  -25.2710  -31.4230   26.2820 C   0  0  0  0  0  1  0  0  0  0  0  0
  -26.9690  -30.2570   24.8710 C   0  0  0  0  0  1  0  0  0  0  0  0
  -27.5420  -32.4230   25.9370 C   0  0  0  0  0  1  0  0  0  0  0  0
  -25.6290  -33.8230   24.2790 N   0  0  0  0  0  0  0  0  0  0  0  0
  -25.9950  -34.8710   23.5300 C   0  0  0  0  0  0  0  0  0  0  0  0
  -26.6880  -34.7580   22.5140 O   0  0  0  0  0  0  0  0  0  0  0  0
  -25.0170  -33.9860   25.0650 H   0  0  0  0  0  0  0  0  0  0  0  0
  -24.2930  -36.6760   23.1450 C   0  0  0  0  0  1  0  0  0  0  0  0
  -25.5170  -36.2650   23.9770 C   0  0  0  0  0  3  0  0  0  0  0  0
  -27.6490  -37.1220   24.8390 C   0  0  0  0  0  1  0  0  0  0  0  0
  -26.5600  -37.3080   23.8820 N   0  0  0  0  0  0  0  0  0  0  0  0
  -26.1610  -38.2310   24.0330 H   0  0  0  0  0  0  0  0  0  0  0  0
  1  7  2  0
  2  4  1  0
  3  2  1  0
  3  5  1  0
  4  6  1  0
  5 56  1  0
  5  1  1  0
  6  8  1  0
  6  1  1  0
  8 11  1  0
  9 13  1  0
 10  9  2  0
 10 11  1  0
 11 12  2  0
 12 14  1  0
 12 16  1  0
 13 26  1  0
 13 14  2  0
 14 17  1  0
 15 10  1  0
 18 26  1  0
 19 24  1  0
 20 21  1  0
 20 19  1  0
 22 21  1  0
 22 31  1  0
 22 23  1  0
 24 18  1  0
 24 23  1  0
 25 18  2  0
 26 27  1  0
 28 29  2  0
 29 48  1  0
 30 29  1  0
 30 33  1  0
 31 32  1  0
 31 28  1  0
 32 30  2  0
 33 34  1  0
 34 35  2  0
 36 39  1  0
 36 35  1  0
 37 36  2  0
 38 37  1  0
 38 33  2  0
 39 40  1  0
 40 45  2  0
 40 41  1  0
 41 42  2  0
 42 43  1  0
 43 47  1  0
 44 43  2  0
 45 44  1  0
 46 45  1  0
 48 49  1  0
 49 52  1  0
 49 51  1  0
 50 48  2  0
 53 28  1  0
 53 54  1  0
 55 53  1  0
 56 57  1  0
 57 59  1  0
 58 69  2  0
 59 64  1  0
 60 68  1  0
 60 70  1  0
 61 67  1  0
 61 63  1  0
 62 68  1  0
 63 62  1  0
 64 63  2  0
 65 66  1  0
 65 59  2  0
 66 61  2  0
 67 60  1  0
 68 58  1  0
 70 72  2  0
 71 70  1  0
 73 71  1  0
 74 83  2  0
 74 79  1  0
 75 71  1  0
 75 79  1  0
 76 75  1  0
 77 78  1  0
 77 76  1  0
 78 74  1  0
 79 80  2  0
 80 81  1  0
 82 81  2  0
 83 82  1  0
 84 58  1  0
 84 89  1  0
 84 85  1  0
 85 88  1  1
 85 86  1  0
 87 85  1  0
 89 92  1  0
 90 94  1  0
 90 89  1  0
 91 90  2  0
 94 93  1  0
 96 94  1  0
 96 97  1  0
 96 95  1  0
M  ISO  4  18 100  26 100  56 101  57 101
M  END
>  <TORSDO>  (66) 
F 19

>  <SCORE>  (66) 
-12.985

>  <name>  (66) 
65

>  <ligand_id>  (66) 
65

>  <original_smiles>  (66) 
[H]c1c([H])c([H])c2c(c1[H])C([H])([H])C([H])([H])C([H])([H])C2([H])N([H])C(=O)C1([H])N(C(=O)C([H])(N([H])C(=O)C([H])(N([H])C([H])([H])[H])C([H])([H])[H])C(C([H])([H])[H])(C([H])([H])[H])C([H])([H])[H])C([H])([H])c2c([H])c(OC([H])([H])C3([H])C(=O)N(C([H])([H])c4c(C([H])([H])[H])c([H])c(N([H])C(=O)N5C([H])([H])C([H])([H])C([H])([H])C([H])(n6nc(-c7c([H])c([H])c(Oc8c([H])c([H])c(F)c([H])c8F)c([H])c7[H])c(C(=O)N([H])[H])c6N([H])[H])C5([H])[H])c(Cl)c4C([H])([H])[H])C([H])([H])C([H])([H])C3([H])[H])c([H])c([H])c2C1([H])[H]

>  <smiles>  (66) 
[H]c1c([H])c([H])c2c(c1[H])C([H])([H])C([H])([H])C([H])([H])C2([H])N([H])C(=O)C1([H])N(C(=O)C([H])(N([H])C(=O)C([H])(N([H])C([H])([H])[H])C([H])([H])[H])C(C([H])([H])[H])(C([H])([H])[H])C([H])([H])[H])C([H])([H])c2c([H])c(OC([H])([H])C3([H])C(=O)N(C([H])([H])c4c(C([H])([H])[H])c([H])c(N([H])C(=O)N5C([H])([H])C([H])([H])C([H])([H])C([H])(n6nc(-c7c([H])c([H])c(Oc8c([H])c([H])c(F)c([H])c8F)c([H])c7[H])c(C(=O)N([H])[H])c6N([H])[H])C5([H])[H])c(Cl)c4C([H])([H])[H])C([H])([H])C([H])([H])C3([H])[H])c([H])c([H])c2C1([H])[H]

$$$$
66:0:0
     RDKit          3D

 99108  0  0  1  0  0  0  0  0999 V2000
  -29.4450  -21.6380   18.4400 C   0  0  0  0  0  2  0  0  0  0  0  0
  -26.8890  -24.3710   20.6710 C   0  0  0  0  0  2  0  0  0  0  0  0
  -26.2130  -23.1630   20.0010 C   0  0  0  0  0  2  0  0  0  0  0  0
  -29.0390  -23.9460   19.5210 C   0  0  0  0  0  2  0  0  0  0  0  0
  -27.9050  -25.0210   19.7120 C   0  0  0  0  0  3  0  0  0  0  0  0
  -27.0800  -22.4560   18.9260 C   0  0  0  0  0  3  0  0  0  0  0  0
  -26.5110  -21.0370   18.6830 C   0  0  0  0  0  1  0  0  0  0  0  0
  -28.5430  -22.5130   19.2890 N   0  0  1  0  0  4  0  0  0  0  0  0
  -28.5750  -22.0590   20.1880 H   0  0  0  0  0  0  0  0  0  0  0  0
  -28.2060  -26.4240   20.1030 O   0  0  0  0  0  0  0  0  0  0  0  0
  -24.5630  -31.8540   23.2400 C   0  0  0  0  0  0  0  0  0  0  0  0
  -27.1240  -27.3290   20.0750 C   0  0  0  0  0  0  0  0  0  0  0  0
  -23.3500  -30.4910   21.5840 C   0  0  0  0  0  3  0  0  0  0  0  0
  -24.7880  -28.9730   20.1220 C   0  0  0  0  0  0  0  0  0  0  0  0
  -25.8910  -30.7890   21.4050 C   0  0  0  0  0  2  0  0  0  0  0  0
  -25.9610  -29.4220   20.7400 C   0  0  0  0  0  0  0  0  0  0  0  0
  -27.1390  -28.6070   20.7200 C   0  0  0  0  0  3  0  0  0  0  0  0
  -25.9230  -26.9690   19.4130 C   0  0  0  0  0  3  0  0  0  0  0  0
  -24.7680  -27.7520   19.4510 C   0  0  0  0  0  3  0  0  0  0  0  0
  -23.5630  -29.8570   20.1900 C   0  0  0  0  0  2  0  0  0  0  0  0
  -24.6220  -31.0610   22.1340 N   0  0  0  0  0  0  0  0  0  0  0  0
  -23.4810  -32.1270   23.7830 O   0  0  0  0  0  0  0  0  0  0  0  0
  -22.6850  -29.4520   22.5250 C   0  0  0  0  0  0  0  0  0  0  0  0
  -21.3620  -29.2790   22.3850 N   0  0  0  0  0  0  0  0  0  0  0  0
  -23.3610  -28.8110   23.3350 O   0  0  0  0  0  0  0  0  0  0  0  0
  -20.8780  -29.8520   21.7060 H   0  0  0  0  0  0  0  0  0  0  0  0
  -17.9760  -28.1020   22.8780 C   0  0  0  0  0  0  0  0  0  0  0  0
  -20.5380  -28.3410   23.1440 C   0  0  0  0  0  3  0  0  0  0  0  0
  -20.6260  -26.9170   22.5520 C   0  0  0  0  0  2  0  0  0  0  0  0
  -19.5190  -26.6080   21.5360 C   0  0  0  0  0  2  0  0  0  0  0  0
  -18.1420  -26.7590   22.1870 C   0  0  0  0  0  2  0  0  0  0  0  0
  -19.1030  -28.8500   23.3140 C   0  0  0  0  0  0  0  0  0  0  0  0
  -18.8980  -30.1080   23.9210 C   0  0  0  0  0  3  0  0  0  0  0  0
  -17.5990  -30.6190   24.1010 C   0  0  0  0  0  3  0  0  0  0  0  0
  -16.4880  -29.8710   23.6750 C   0  0  0  0  0  3  0  0  0  0  0  0
  -16.6750  -28.6120   23.0740 C   0  0  0  0  0  3  0  0  0  0  0  0
  -25.8520  -32.4720   23.8710 C   0  0  0  0  0  3  0  0  0  0  0  0
  -26.3460  -31.6900   25.1500 C   0  0  1  0  0  0  0  0  0  0  0  0
  -25.2410  -31.4520   26.2070 C   0  0  0  0  0  1  0  0  0  0  0  0
  -26.9190  -30.3100   24.7540 C   0  0  0  0  0  1  0  0  0  0  0  0
  -27.5010  -32.4650   25.8250 C   0  0  0  0  0  1  0  0  0  0  0  0
  -25.5520  -33.8720   24.1990 N   0  0  0  0  0  0  0  0  0  0  0  0
  -25.8840  -34.9180   23.4320 C   0  0  0  0  0  0  0  0  0  0  0  0
  -26.5550  -34.8040   22.4030 O   0  0  0  0  0  0  0  0  0  0  0  0
  -24.9780  -34.0320   25.0150 H   0  0  0  0  0  0  0  0  0  0  0  0
  -24.1740  -36.7170   23.0480 C   0  0  0  0  0  1  0  0  0  0  0  0
  -25.4010  -36.3090   23.8780 C   0  0  0  0  0  3  0  0  0  0  0  0
  -27.5290  -37.1800   24.7350 C   0  0  0  0  0  1  0  0  0  0  0  0
  -26.4400  -37.3560   23.7780 N   0  0  0  0  0  0  0  0  0  0  0  0
  -26.0400  -38.2800   23.9160 H   0  0  0  0  0  0  0  0  0  0  0  0
  -31.9220  -18.4940   20.3020 C   0  0  0  0  0  3  0  0  0  0  0  0
  -32.5090  -19.6880   19.8380 C   0  0  0  0  0  3  0  0  0  0  0  0
  -29.7500  -19.3280   19.6330 C   0  0  0  0  0  3  0  0  0  0  0  0
  -30.5310  -18.2890   20.2400 C   0  0  0  0  0  0  0  0  0  0  0  0
  -31.7320  -20.7450   19.2960 C   0  0  0  0  0  0  0  0  0  0  0  0
  -30.3210  -20.5600   19.1590 C   0  0  0  0  0  0  0  0  0  0  0  0
  -33.8800  -22.2380   19.3680 C   0  0  0  0  0  1  0  0  0  0  0  0
  -32.4130  -22.0850   18.9450 C   0  0  2  0  0  0  0  0  0  0  0  0
  -31.7770  -23.0550   19.5920 F   0  0  0  0  0  0  0  0  0  0  0  0
  -32.3580  -22.3240   17.6330 F   0  0  0  0  0  0  0  0  0  0  0  0
  -29.9170  -17.1090   21.0510 C   0  0  0  0  0  2  0  0  0  0  0  0
  -30.6080  -14.6490   20.3940 C   0  0  0  0  0  0  0  0  0  0  0  0
  -30.3930  -12.4170   19.3340 C   0  0  0  0  0  2  0  0  0  0  0  0
  -29.4510  -12.5600   18.1200 C   0  0  0  0  0  2  0  0  0  0  0  0
  -27.9780  -12.3910   18.5440 C   0  0  0  0  0  2  0  0  0  0  0  0
  -27.6080  -13.2490   19.7830 C   0  0  0  0  0  3  0  0  0  0  0  0
  -28.6700  -13.1140   20.8980 C   0  0  0  0  0  2  0  0  0  0  0  0
  -29.9790  -13.4380   20.3100 N   0  0  0  0  0  0  0  0  0  0  0  0
  -31.8030  -14.7950   20.1340 O   0  0  0  0  0  0  0  0  0  0  0  0
  -29.7710  -15.7060   20.5600 N   0  0  0  0  0  0  0  0  0  0  0  0
  -28.8130  -15.4010   20.5760 H   0  0  0  0  0  0  0  0  0  0  0  0
  -25.2120  -13.8410   20.5030 C   0  0  0  0  0  0  0  0  0  0  0  0
  -24.1450  -13.0630   20.8730 C   0  0  0  0  0  0  0  0  0  0  0  0
  -24.6100  -11.7160   20.8440 C   0  0  0  0  0  0  0  0  0  0  0  0
  -26.2600  -12.9600   20.2720 N   0  0  0  0  0  0  0  0  0  0  0  0
  -25.9020  -11.6790   20.5350 N   0  0  0  0  0  0  0  0  0  0  0  0
  -23.8860  -10.4510   21.0400 C   0  0  0  0  0  0  0  0  0  0  0  0
  -24.3220   -9.4860   21.9720 C   0  0  0  0  0  3  0  0  0  0  0  0
  -23.5960   -8.2870   22.1550 C   0  0  0  0  0  3  0  0  0  0  0  0
  -22.4230   -8.0450   21.3990 C   0  0  0  0  0  0  0  0  0  0  0  0
  -22.0060   -9.0010   20.4580 C   0  0  0  0  0  3  0  0  0  0  0  0
  -22.7320  -10.1910   20.2750 C   0  0  0  0  0  3  0  0  0  0  0  0
  -21.6740   -6.8980   21.4840 O   0  0  0  0  0  0  0  0  0  0  0  0
  -21.6330   -6.1470   22.6330 C   0  0  0  0  0  0  0  0  0  0  0  0
  -21.2120   -6.6930   23.8640 C   0  0  0  0  0  3  0  0  0  0  0  0
  -21.1200   -5.8730   25.0040 C   0  0  0  0  0  3  0  0  0  0  0  0
  -21.4410   -4.5040   24.9160 C   0  0  0  0  0  0  0  0  0  0  0  0
  -21.8540   -3.9550   23.6870 C   0  0  0  0  0  3  0  0  0  0  0  0
  -21.9480   -4.7740   22.5490 C   0  0  0  0  0  0  0  0  0  0  0  0
  -22.3270   -4.2380   21.3640 F   0  0  0  0  0  0  0  0  0  0  0  0
  -21.3450   -3.7130   26.0070 F   0  0  0  0  0  0  0  0  0  0  0  0
  -22.7470  -13.5410   21.1360 C   0  0  0  0  0  0  0  0  0  0  0  0
  -22.0130  -12.8420   21.9990 N   0  0  0  0  0  0  0  0  0  0  0  0
  -22.3080  -14.5620   20.6100 O   0  0  0  0  0  0  0  0  0  0  0  0
  -22.3780  -12.0170   22.4480 H   0  0  0  0  0  0  0  0  0  0  0  0
  -21.0720  -13.1410   22.2080 H   0  0  0  0  0  0  0  0  0  0  0  0
  -25.3690  -15.2110   20.3190 N   0  0  0  0  0  0  0  0  0  0  0  0
  -24.5930  -15.8530   20.4360 H   0  0  0  0  0  0  0  0  0  0  0  0
  -26.1840  -15.6530   19.9120 H   0  0  0  0  0  0  0  0  0  0  0  0
  1 56  1  0
  1  8  1  0
  3  2  1  0
  4  5  1  0
  5 10  1  0
  5  2  1  0
  6  7  1  0
  6  8  1  0
  6  3  1  0
  8  4  1  0
  8  9  1  1
 11 22  2  0
 12 10  1  0
 12 17  1  0
 13 21  1  0
 13 23  1  0
 14 20  1  0
 14 16  1  0
 15 21  1  0
 16 15  1  0
 17 16  2  0
 18 19  1  0
 18 12  2  0
 19 14  2  0
 20 13  1  0
 21 11  1  0
 23 25  2  0
 24 23  1  0
 26 24  1  0
 27 36  2  0
 27 32  1  0
 28 24  1  0
 28 32  1  0
 29 28  1  0
 30 31  1  0
 30 29  1  0
 31 27  1  0
 32 33  2  0
 33 34  1  0
 35 34  2  0
 36 35  1  0
 37 11  1  0
 37 42  1  0
 37 38  1  0
 38 41  1  1
 38 39  1  0
 40 38  1  0
 42 45  1  0
 43 47  1  0
 43 42  1  0
 44 43  2  0
 47 46  1  0
 49 47  1  0
 49 50  1  0
 49 48  1  0
 52 51  2  0
 53 54  2  0
 54 51  1  0
 54 61  1  0
 55 52  1  0
 56 55  2  0
 56 53  1  0
 58 55  1  0
 58 57  1  1
 58 59  1  0
 60 58  1  0
 62 70  1  0
 63 68  1  0
 64 65  1  0
 64 63  1  0
 66 65  1  0
 66 75  1  0
 66 67  1  0
 68 62  1  0
 68 67  1  0
 69 62  2  0
 70 71  1  0
 70 61  1  0
 72 73  2  0
 73 92  1  0
 74 73  1  0
 74 77  1  0
 75 72  1  0
 75 76  1  0
 76 74  2  0
 77 78  1  0
 78 79  2  0
 80 83  1  0
 80 79  1  0
 81 80  2  0
 82 81  1  0
 82 77  2  0
 83 84  1  0
 84 85  1  0
 85 86  2  0
 87 86  1  0
 87 91  1  0
 88 87  2  0
 89 84  2  0
 89 88  1  0
 90 89  1  0
 92 93  1  0
 93 96  1  0
 93 95  1  0
 94 92  2  0
 97 98  1  0
 97 72  1  0
 99 97  1  0
M  ISO  4   5 101  10 101  62 100  70 100
M  END
>  <TORSDO>  (67) 
F 20

>  <SCORE>  (67) 
-14.167

>  <name>  (67) 
66

>  <ligand_id>  (67) 
66

>  <original_smiles>  (67) 
[H]c1c([H])c([H])c2c(c1[H])C([H])([H])C([H])([H])C([H])([H])C2([H])N([H])C(=O)C1([H])N(C(=O)C([H])(N([H])C(=O)C([H])(N([H])C([H])([H])[H])C([H])([H])[H])C(C([H])([H])[H])(C([H])([H])[H])C([H])([H])[H])C([H])([H])c2c([H])c(OC3([H])C([H])([H])C([H])([H])C([H])(C([H])([H])[H])[N+]([H])(C([H])([H])c4c([H])c(C([H])([H])N([H])C(=O)N5C([H])([H])C([H])([H])C([H])([H])C([H])(n6nc(-c7c([H])c([H])c(Oc8c([H])c([H])c(F)c([H])c8F)c([H])c7[H])c(C(=O)N([H])[H])c6N([H])[H])C5([H])[H])c([H])c([H])c4C(F)(F)C([H])([H])[H])C3([H])[H])c([H])c([H])c2C1([H])[H]

>  <smiles>  (67) 
[H]c1c([H])c([H])c2c(c1[H])C([H])([H])C([H])([H])C([H])([H])C2([H])N([H])C(=O)C1([H])N(C(=O)C([H])(N([H])C(=O)C([H])(N([H])C([H])([H])[H])C([H])([H])[H])C(C([H])([H])[H])(C([H])([H])[H])C([H])([H])[H])C([H])([H])c2c([H])c(OC3([H])C([H])([H])C([H])([H])C([H])(C([H])([H])[H])[N+]([H])(C([H])([H])c4c([H])c(C([H])([H])N([H])C(=O)N5C([H])([H])C([H])([H])C([H])([H])C([H])(n6nc(-c7c([H])c([H])c(Oc8c([H])c([H])c(F)c([H])c8F)c([H])c7[H])c(C(=O)N([H])[H])c6N([H])[H])C5([H])[H])c([H])c([H])c4C(F)(F)C([H])([H])[H])C3([H])[H])c([H])c([H])c2C1([H])[H]

$$$$
67:0:0
     RDKit          3D

 95104  0  0  1  0  0  0  0  0999 V2000
  -29.1930  -23.4840   20.3450 C   0  0  0  0  0  0  0  0  0  0  0  0
  -30.7680  -23.8950   18.0100 C   0  0  0  0  0  2  0  0  0  0  0  0
  -30.4710  -25.1370   18.8830 C   0  0  0  0  0  2  0  0  0  0  0  0
  -30.8320  -22.5490   18.7920 C   0  0  0  0  0  2  0  0  0  0  0  0
  -29.1360  -25.0080   19.6330 C   0  0  0  0  0  3  0  0  0  0  0  0
  -29.7100  -22.2780   19.7120 N   0  0  0  0  0  0  0  0  0  0  0  0
  -28.8080  -23.4390   21.5170 O   0  0  0  0  0  0  0  0  0  0  0  0
  -29.6680  -18.8560   18.2370 C   0  0  0  0  0  3  0  0  0  0  0  0
  -27.4680  -19.8050   18.4690 C   0  0  0  0  0  3  0  0  0  0  0  0
  -30.0590  -19.4660   19.4490 C   0  0  0  0  0  0  0  0  0  0  0  0
  -29.3000  -20.7520   19.8350 C   0  0  0  0  0  0  0  0  0  0  0  0
  -28.3730  -19.0300   17.7370 C   0  0  0  0  0  0  0  0  0  0  0  0
  -27.9040  -20.6170   19.5360 C   0  0  0  0  0  0  0  0  0  0  0  0
  -27.8520  -18.1510   16.3440 Cl  0  0  0  0  0  0  0  0  0  0  0  0
  -26.6380  -21.4880   20.3310 Cl  0  0  0  0  0  0  0  0  0  0  0  0
  -30.8660  -18.2830   20.3130 C   0  0  0  0  0  2  0  0  0  0  0  0
  -31.2840  -15.4710   20.1440 C   0  0  0  0  0  0  0  0  0  0  0  0
  -31.1100  -13.0870   19.2250 C   0  0  0  0  0  2  0  0  0  0  0  0
  -30.1910  -13.0470   17.9820 C   0  0  0  0  0  2  0  0  0  0  0  0
  -28.7180  -12.8810   18.4010 C   0  0  0  0  0  2  0  0  0  0  0  0
  -28.3300  -13.8200   19.5740 C   0  0  0  0  0  3  0  0  0  0  0  0
  -29.3800  -13.8260   20.7050 C   0  0  0  0  0  2  0  0  0  0  0  0
  -30.6540  -14.2170   20.0930 N   0  0  0  0  0  0  0  0  0  0  0  0
  -32.4950  -15.4740   19.8970 O   0  0  0  0  0  0  0  0  0  0  0  0
  -30.5400  -16.6980   20.2710 N   0  0  0  0  0  0  0  0  0  0  0  0
  -29.5620  -16.5170   20.4330 H   0  0  0  0  0  0  0  0  0  0  0  0
  -25.9780  -14.4730   20.3260 C   0  0  0  0  0  0  0  0  0  0  0  0
  -24.8820  -13.7360   20.6730 C   0  0  0  0  0  0  0  0  0  0  0  0
  -25.2920  -12.3670   20.6120 C   0  0  0  0  0  0  0  0  0  0  0  0
  -26.9830  -13.5590   20.0660 N   0  0  0  0  0  0  0  0  0  0  0  0
  -26.5820  -12.2840   20.3070 N   0  0  0  0  0  0  0  0  0  0  0  0
  -24.5110  -11.1340   20.7750 C   0  0  0  0  0  0  0  0  0  0  0  0
  -24.9320  -10.1030   21.6430 C   0  0  0  0  0  3  0  0  0  0  0  0
  -24.1540   -8.9330   21.7960 C   0  0  0  0  0  3  0  0  0  0  0  0
  -22.9410   -8.7900   21.0820 C   0  0  0  0  0  0  0  0  0  0  0  0
  -22.5370   -9.8100   20.2040 C   0  0  0  0  0  3  0  0  0  0  0  0
  -23.3130  -10.9720   20.0490 C   0  0  0  0  0  3  0  0  0  0  0  0
  -22.1330   -7.6790   21.1490 O   0  0  0  0  0  0  0  0  0  0  0  0
  -21.9770   -6.9720   22.3130 C   0  0  0  0  0  0  0  0  0  0  0  0
  -21.4800   -7.5750   23.4880 C   0  0  0  0  0  3  0  0  0  0  0  0
  -21.2680   -6.7980   24.6440 C   0  0  0  0  0  3  0  0  0  0  0  0
  -21.5400   -5.4170   24.6250 C   0  0  0  0  0  0  0  0  0  0  0  0
  -22.0280   -4.8130   23.4530 C   0  0  0  0  0  3  0  0  0  0  0  0
  -22.2430   -5.5880   22.2990 C   0  0  0  0  0  0  0  0  0  0  0  0
  -22.6930   -4.9970   21.1670 F   0  0  0  0  0  0  0  0  0  0  0  0
  -21.3290   -4.6670   25.7310 F   0  0  0  0  0  0  0  0  0  0  0  0
  -23.5040  -14.2650   20.9400 C   0  0  0  0  0  0  0  0  0  0  0  0
  -22.7730  -13.6230   21.8430 N   0  0  0  0  0  0  0  0  0  0  0  0
  -23.0880  -15.2810   20.3840 O   0  0  0  0  0  0  0  0  0  0  0  0
  -23.1240  -12.7940   22.3010 H   0  0  0  0  0  0  0  0  0  0  0  0
  -21.8500  -13.9590   22.0760 H   0  0  0  0  0  0  0  0  0  0  0  0
  -26.2010  -15.8380   20.1780 N   0  0  0  0  0  0  0  0  0  0  0  0
  -25.4480  -16.5120   20.2450 H   0  0  0  0  0  0  0  0  0  0  0  0
  -27.0320  -16.2230   19.7480 H   0  0  0  0  0  0  0  0  0  0  0  0
  -28.9070  -26.3900   20.3990 O   0  0  0  0  0  0  0  0  0  0  0  0
  -24.8790  -31.9500   23.2230 C   0  0  0  0  0  0  0  0  0  0  0  0
  -27.8130  -27.3510   20.2480 C   0  0  0  0  0  0  0  0  0  0  0  0
  -23.8200  -30.5130   21.5290 C   0  0  0  0  0  3  0  0  0  0  0  0
  -25.4020  -29.0200   20.1450 C   0  0  0  0  0  0  0  0  0  0  0  0
  -26.3660  -30.8910   21.4700 C   0  0  0  0  0  2  0  0  0  0  0  0
  -26.5340  -29.5040   20.8070 C   0  0  0  0  0  0  0  0  0  0  0  0
  -27.7350  -28.6870   20.8440 C   0  0  0  0  0  3  0  0  0  0  0  0
  -26.6470  -26.9910   19.5340 C   0  0  0  0  0  3  0  0  0  0  0  0
  -25.4740  -27.7800   19.4920 C   0  0  0  0  0  3  0  0  0  0  0  0
  -24.1310  -29.8610   20.1560 C   0  0  0  0  0  2  0  0  0  0  0  0
  -25.0400  -31.1420   22.1290 N   0  0  0  0  0  0  0  0  0  0  0  0
  -23.7610  -32.1730   23.7100 O   0  0  0  0  0  0  0  0  0  0  0  0
  -23.1520  -29.4650   22.4550 C   0  0  0  0  0  0  0  0  0  0  0  0
  -21.8270  -29.2730   22.3170 N   0  0  0  0  0  0  0  0  0  0  0  0
  -23.8310  -28.8280   23.2650 O   0  0  0  0  0  0  0  0  0  0  0  0
  -21.3320  -29.8390   21.6420 H   0  0  0  0  0  0  0  0  0  0  0  0
  -18.4580  -28.0360   22.8270 C   0  0  0  0  0  0  0  0  0  0  0  0
  -21.0220  -28.2960   23.0580 C   0  0  0  0  0  3  0  0  0  0  0  0
  -21.1170  -26.8950   22.4110 C   0  0  0  0  0  2  0  0  0  0  0  0
  -19.9980  -26.6190   21.4030 C   0  0  0  0  0  2  0  0  0  0  0  0
  -18.6270  -26.7240   22.0760 C   0  0  0  0  0  2  0  0  0  0  0  0
  -19.5820  -28.7820   23.2740 C   0  0  0  0  0  0  0  0  0  0  0  0
  -19.3680  -30.0100   23.9370 C   0  0  0  0  0  3  0  0  0  0  0  0
  -18.0650  -30.4940   24.1520 C   0  0  0  0  0  3  0  0  0  0  0  0
  -16.9560  -29.7460   23.7210 C   0  0  0  0  0  3  0  0  0  0  0  0
  -17.1550  -28.5180   23.0650 C   0  0  0  0  0  3  0  0  0  0  0  0
  -26.0960  -32.6490   23.9050 C   0  0  0  0  0  3  0  0  0  0  0  0
  -25.6990  -34.0310   24.2240 N   0  0  0  0  0  0  0  0  0  0  0  0
  -25.9830  -35.1020   23.4710 C   0  0  0  0  0  0  0  0  0  0  0  0
  -26.6660  -35.0330   22.4470 O   0  0  0  0  0  0  0  0  0  0  0  0
  -25.0920  -34.1540   25.0210 H   0  0  0  0  0  0  0  0  0  0  0  0
  -24.1370  -36.7790   23.1350 C   0  0  0  0  0  1  0  0  0  0  0  0
  -25.4180  -36.4650   23.9240 C   0  0  0  0  0  3  0  0  0  0  0  0
  -27.5070  -37.4980   24.6970 C   0  0  0  0  0  1  0  0  0  0  0  0
  -26.3770  -37.5810   23.7760 N   0  0  0  0  0  0  0  0  0  0  0  0
  -25.9150  -38.4760   23.9200 H   0  0  0  0  0  0  0  0  0  0  0  0
  -26.5820  -31.9060   25.2100 C   0  0  1  0  0  0  0  0  0  0  0  0
  -25.4360  -31.5370   26.1820 C   0  0  0  0  0  1  0  0  0  0  0  0
  -27.3300  -30.6010   24.8560 C   0  0  0  0  0  1  0  0  0  0  0  0
  -27.5940  -32.7950   25.9740 C   0  0  0  0  0  1  0  0  0  0  0  0
  1  7  2  0
  2  4  1  0
  2  3  1  0
  3  5  1  0
  4  6  1  0
  5  1  1  0
  5 55  1  0
  6 11  1  0
  6  1  1  0
  8 10  1  0
  9 13  2  0
 10 11  2  3
 10 16  1  0
 12  8  2  0
 12  9  1  0
 13 11  1  0
 13 15  1  0
 14 12  1  0
 17 25  1  0
 18 23  1  0
 19 20  1  0
 19 18  1  0
 21 20  1  0
 21 30  1  0
 21 22  1  0
 23 17  1  0
 23 22  1  0
 24 17  2  0
 25 16  1  0
 25 26  1  0
 27 28  2  0
 28 47  1  0
 29 28  1  0
 29 32  1  0
 30 31  1  0
 30 27  1  0
 31 29  2  0
 32 33  1  0
 33 34  2  0
 35 38  1  0
 35 34  1  0
 36 35  2  0
 37 36  1  0
 37 32  2  0
 38 39  1  0
 39 40  1  0
 40 41  2  0
 42 41  1  0
 42 46  1  0
 43 42  2  0
 44 39  2  0
 44 43  1  0
 45 44  1  0
 47 48  1  0
 48 51  1  0
 48 50  1  0
 49 47  2  0
 52 53  1  0
 52 27  1  0
 54 52  1  0
 56 67  2  0
 57 55  1  0
 57 62  1  0
 58 66  1  0
 58 68  1  0
 59 65  1  0
 59 61  1  0
 60 66  1  0
 61 62  2  0
 61 60  1  0
 63 57  2  0
 64 63  1  0
 64 59  2  0
 65 58  1  0
 66 56  1  0
 68 70  2  0
 69 68  1  0
 71 69  1  0
 72 81  2  0
 72 77  1  0
 73 69  1  0
 73 77  1  0
 74 73  1  0
 75 76  1  0
 75 74  1  0
 76 72  1  0
 77 78  2  0
 78 79  1  0
 80 79  2  0
 81 80  1  0
 82 56  1  0
 82 83  1  0
 82 92  1  0
 83 86  1  0
 84 88  1  0
 84 83  1  0
 85 84  2  0
 88 87  1  0
 90 91  1  0
 90 88  1  0
 90 89  1  0
 92 95  1  1
 92 93  1  0
 94 92  1  0
M  ISO  4   5 101  17 100  25 100  55 101
M  END
>  <TORSDO>  (68) 
F 18

>  <SCORE>  (68) 
-12.491

>  <name>  (68) 
67

>  <ligand_id>  (68) 
67

>  <original_smiles>  (68) 
[H]c1c([H])c([H])c2c(c1[H])C([H])([H])C([H])([H])C([H])([H])C2([H])N([H])C(=O)C1([H])N(C(=O)C([H])(N([H])C(=O)C([H])(N([H])C([H])([H])[H])C([H])([H])[H])C(C([H])([H])[H])(C([H])([H])[H])C([H])([H])[H])C([H])([H])c2c([H])c(OC3([H])C(=O)N(c4c(Cl)c([H])c(Cl)c([H])c4C([H])([H])N([H])C(=O)N4C([H])([H])C([H])([H])C([H])([H])C([H])(n5nc(-c6c([H])c([H])c(Oc7c([H])c([H])c(F)c([H])c7F)c([H])c6[H])c(C(=O)N([H])[H])c5N([H])[H])C4([H])[H])C([H])([H])C([H])([H])C3([H])[H])c([H])c([H])c2C1([H])[H]

>  <smiles>  (68) 
[H]c1c([H])c([H])c2c(c1[H])C([H])([H])C([H])([H])C([H])([H])C2([H])N([H])C(=O)C1([H])N(C(=O)C([H])(N([H])C(=O)C([H])(N([H])C([H])([H])[H])C([H])([H])[H])C(C([H])([H])[H])(C([H])([H])[H])C([H])([H])[H])C([H])([H])c2c([H])c(OC3([H])C(=O)N(c4c(Cl)c([H])c(Cl)c([H])c4C([H])([H])N([H])C(=O)N4C([H])([H])C([H])([H])C([H])([H])C([H])(n5nc(-c6c([H])c([H])c(Oc7c([H])c([H])c(F)c([H])c7F)c([H])c6[H])c(C(=O)N([H])[H])c5N([H])[H])C4([H])[H])C([H])([H])C([H])([H])C3([H])[H])c([H])c([H])c2C1([H])[H]

$$$$
68:0:0
     RDKit          3D

 93101  0  0  1  0  0  0  0  0999 V2000
  -28.7530  -21.2620   20.1480 C   0  0  0  0  0  2  0  0  0  0  0  0
  -30.9090  -20.2040   21.2320 C   0  0  0  0  0  3  0  0  0  0  0  0
  -31.4510  -17.8030   21.2250 C   0  0  0  0  0  3  0  0  0  0  0  0
  -29.6880  -20.0050   20.5480 C   0  0  0  0  0  0  0  0  0  0  0  0
  -30.2250  -17.4720   20.6060 C   0  0  0  0  0  0  0  0  0  0  0  0
  -31.7770  -19.1360   21.5410 C   0  0  0  0  0  0  0  0  0  0  0  0
  -29.3560  -18.6010   20.2770 C   0  0  0  0  0  0  0  0  0  0  0  0
  -33.2700  -19.4720   22.3400 Cl  0  0  0  0  0  0  0  0  0  0  0  0
  -27.8380  -18.2450   19.5330 Cl  0  0  0  0  0  0  0  0  0  0  0  0
  -30.6670  -14.8960   20.2700 C   0  0  0  0  0  0  0  0  0  0  0  0
  -30.4790  -12.5980   19.2880 C   0  0  0  0  0  2  0  0  0  0  0  0
  -29.5210  -12.6220   18.0780 C   0  0  0  0  0  2  0  0  0  0  0  0
  -28.0620  -12.4350   18.5360 C   0  0  0  0  0  2  0  0  0  0  0  0
  -27.6900  -13.3490   19.7340 C   0  0  0  0  0  3  0  0  0  0  0  0
  -28.7660  -13.3050   20.8400 C   0  0  0  0  0  2  0  0  0  0  0  0
  -30.0440  -13.6670   20.2160 N   0  0  0  0  0  0  0  0  0  0  0  0
  -31.8560  -14.9880   19.9520 O   0  0  0  0  0  0  0  0  0  0  0  0
  -29.8750  -16.0320   20.4240 N   0  0  0  0  0  0  0  0  0  0  0  0
  -28.8860  -15.8410   20.4270 H   0  0  0  0  0  0  0  0  0  0  0  0
  -25.3200  -13.9310   20.5200 C   0  0  0  0  0  0  0  0  0  0  0  0
  -24.2620  -13.1520   20.9030 C   0  0  0  0  0  0  0  0  0  0  0  0
  -24.7240  -11.8010   20.8440 C   0  0  0  0  0  0  0  0  0  0  0  0
  -26.3580  -13.0540   20.2510 N   0  0  0  0  0  0  0  0  0  0  0  0
  -26.0080  -11.7680   20.5080 N   0  0  0  0  0  0  0  0  0  0  0  0
  -24.0000  -10.5380   21.0290 C   0  0  0  0  0  0  0  0  0  0  0  0
  -24.4300   -9.5670   21.9610 C   0  0  0  0  0  3  0  0  0  0  0  0
  -23.7040   -8.3690   22.1350 C   0  0  0  0  0  3  0  0  0  0  0  0
  -22.5340   -8.1320   21.3750 C   0  0  0  0  0  0  0  0  0  0  0  0
  -22.1240   -9.0910   20.4310 C   0  0  0  0  0  3  0  0  0  0  0  0
  -22.8500  -10.2800   20.2570 C   0  0  0  0  0  3  0  0  0  0  0  0
  -21.7800   -6.9860   21.4580 O   0  0  0  0  0  0  0  0  0  0  0  0
  -21.7040   -6.2580   22.6180 C   0  0  0  0  0  0  0  0  0  0  0  0
  -21.2120   -6.8170   23.8190 C   0  0  0  0  0  3  0  0  0  0  0  0
  -21.0860   -6.0120   24.9690 C   0  0  0  0  0  3  0  0  0  0  0  0
  -21.4420   -4.6510   24.9200 C   0  0  0  0  0  0  0  0  0  0  0  0
  -21.9250   -4.0920   23.7230 C   0  0  0  0  0  3  0  0  0  0  0  0
  -22.0530   -4.8940   22.5760 C   0  0  0  0  0  0  0  0  0  0  0  0
  -22.5000   -4.3450   21.4200 F   0  0  0  0  0  0  0  0  0  0  0  0
  -21.3130   -3.8760   26.0220 F   0  0  0  0  0  0  0  0  0  0  0  0
  -22.8710  -13.6270   21.2080 C   0  0  0  0  0  0  0  0  0  0  0  0
  -22.1570  -12.9160   22.0720 N   0  0  0  0  0  0  0  0  0  0  0  0
  -22.4260  -14.6640   20.7160 O   0  0  0  0  0  0  0  0  0  0  0  0
  -22.5280  -12.0750   22.4900 H   0  0  0  0  0  0  0  0  0  0  0  0
  -21.2240  -13.2160   22.3220 H   0  0  0  0  0  0  0  0  0  0  0  0
  -25.4790  -15.3040   20.3550 N   0  0  0  0  0  0  0  0  0  0  0  0
  -24.7070  -15.9500   20.4760 H   0  0  0  0  0  0  0  0  0  0  0  0
  -26.3030  -15.7470   19.9690 H   0  0  0  0  0  0  0  0  0  0  0  0
  -28.1190  -23.8000   20.2830 C   0  0  0  0  0  0  0  0  0  0  0  0
  -30.4750  -23.1730   20.2460 C   0  0  0  0  0  1  0  0  0  0  0  0
  -29.0680  -22.7690   20.3440 N   0  0  0  0  0  0  0  0  0  0  0  0
  -27.0000  -23.5580   19.8230 O   0  0  0  0  0  0  0  0  0  0  0  0
  -28.3270  -25.2620   20.9370 C   0  0  0  0  0  2  0  0  0  0  0  0
  -28.2500  -26.5100   20.1080 O   0  0  0  0  0  0  0  0  0  0  0  0
  -24.5360  -31.9660   23.2150 C   0  0  0  0  0  0  0  0  0  0  0  0
  -27.1310  -27.3660   20.1750 C   0  0  0  0  0  0  0  0  0  0  0  0
  -23.3260  -30.5670   21.5810 C   0  0  0  0  0  3  0  0  0  0  0  0
  -24.7700  -29.0010   20.1610 C   0  0  0  0  0  0  0  0  0  0  0  0
  -25.8680  -30.8750   21.3890 C   0  0  0  0  0  2  0  0  0  0  0  0
  -25.9440  -29.4880   20.7510 C   0  0  0  0  0  0  0  0  0  0  0  0
  -27.1300  -28.6840   20.7420 C   0  0  0  0  0  3  0  0  0  0  0  0
  -25.9360  -26.9340   19.5690 C   0  0  0  0  0  3  0  0  0  0  0  0
  -24.7710  -27.7300   19.5610 C   0  0  0  0  0  3  0  0  0  0  0  0
  -23.5370  -29.8830   20.2040 C   0  0  0  0  0  2  0  0  0  0  0  0
  -24.5950  -31.1540   22.1190 N   0  0  0  0  0  0  0  0  0  0  0  0
  -23.4550  -32.2460   23.7540 O   0  0  0  0  0  0  0  0  0  0  0  0
  -22.6630  -29.5560   22.5470 C   0  0  0  0  0  0  0  0  0  0  0  0
  -21.3350  -29.3800   22.4260 N   0  0  0  0  0  0  0  0  0  0  0  0
  -23.3430  -28.9310   23.3650 O   0  0  0  0  0  0  0  0  0  0  0  0
  -20.8430  -29.9370   21.7430 H   0  0  0  0  0  0  0  0  0  0  0  0
  -17.9580  -28.1920   22.9490 C   0  0  0  0  0  0  0  0  0  0  0  0
  -20.5200  -28.4420   23.2010 C   0  0  0  0  0  3  0  0  0  0  0  0
  -20.6120  -27.0100   22.6230 C   0  0  0  0  0  2  0  0  0  0  0  0
  -19.5020  -26.6940   21.6150 C   0  0  0  0  0  2  0  0  0  0  0  0
  -18.1260  -26.8440   22.2680 C   0  0  0  0  0  2  0  0  0  0  0  0
  -19.0830  -28.9490   23.3720 C   0  0  0  0  0  0  0  0  0  0  0  0
  -18.8720  -30.2120   23.9680 C   0  0  0  0  0  3  0  0  0  0  0  0
  -17.5700  -30.7160   24.1460 C   0  0  0  0  0  3  0  0  0  0  0  0
  -16.4600  -29.9560   23.7390 C   0  0  0  0  0  3  0  0  0  0  0  0
  -16.6550  -28.6970   23.1450 C   0  0  0  0  0  3  0  0  0  0  0  0
  -25.8210  -32.6000   23.8330 C   0  0  0  0  0  3  0  0  0  0  0  0
  -26.3360  -31.8340   25.1140 C   0  0  1  0  0  0  0  0  0  0  0  0
  -25.2420  -31.6020   26.1820 C   0  0  0  0  0  1  0  0  0  0  0  0
  -26.9200  -30.4550   24.7290 C   0  0  0  0  0  1  0  0  0  0  0  0
  -27.4850  -32.6320   25.7740 C   0  0  0  0  0  1  0  0  0  0  0  0
  -25.5160  -34.0010   24.1580 N   0  0  0  0  0  0  0  0  0  0  0  0
  -25.8560  -35.0510   23.3990 C   0  0  0  0  0  0  0  0  0  0  0  0
  -26.5310  -34.9420   22.3720 O   0  0  0  0  0  0  0  0  0  0  0  0
  -24.9210  -34.1590   24.9590 H   0  0  0  0  0  0  0  0  0  0  0  0
  -24.1560  -36.8630   23.0190 C   0  0  0  0  0  1  0  0  0  0  0  0
  -25.3750  -36.4430   23.8550 C   0  0  0  0  0  3  0  0  0  0  0  0
  -27.5000  -37.3070   24.7340 C   0  0  0  0  0  1  0  0  0  0  0  0
  -26.4210  -37.4850   23.7650 N   0  0  0  0  0  0  0  0  0  0  0  0
  -26.0200  -38.4090   23.9030 H   0  0  0  0  0  0  0  0  0  0  0  0
  1 50  1  0
  1  4  1  0
  2  6  1  0
  3  6  2  0
  4  2  2  0
  5  3  1  0
  6  8  1  0
  7  4  1  0
  7  5  2  0
  9  7  1  0
 10 18  1  0
 11 16  1  0
 12 13  1  0
 12 11  1  0
 14 13  1  0
 14 23  1  0
 14 15  1  0
 16 10  1  0
 16 15  1  0
 17 10  2  0
 18 19  1  0
 18  5  1  0
 20 21  2  0
 21 40  1  0
 22 21  1  0
 22 25  1  0
 23 24  1  0
 23 20  1  0
 24 22  2  0
 25 26  1  0
 26 27  2  0
 28 31  1  0
 28 27  1  0
 29 28  2  0
 30 29  1  0
 30 25  2  0
 31 32  1  0
 32 33  1  0
 33 34  2  0
 35 34  1  0
 35 39  1  0
 36 35  2  0
 37 32  2  0
 37 36  1  0
 38 37  1  0
 40 41  1  0
 41 44  1  0
 41 43  1  0
 42 40  2  0
 45 46  1  0
 45 20  1  0
 47 45  1  0
 48 50  1  0
 48 52  1  0
 49 50  1  0
 51 48  2  0
 53 55  1  0
 53 52  1  0
 54 65  2  0
 55 60  1  0
 56 64  1  0
 56 66  1  0
 57 63  1  0
 57 59  1  0
 58 64  1  0
 59 58  1  0
 60 59  2  0
 61 55  2  0
 62 61  1  0
 62 57  2  0
 63 56  1  0
 64 54  1  0
 66 68  2  0
 67 66  1  0
 69 67  1  0
 70 79  2  0
 70 75  1  0
 71 67  1  0
 71 75  1  0
 72 71  1  0
 73 74  1  0
 73 72  1  0
 74 70  1  0
 75 76  2  0
 76 77  1  0
 78 77  2  0
 79 78  1  0
 80 54  1  0
 80 85  1  0
 80 81  1  0
 81 84  1  1
 81 82  1  0
 83 81  1  0
 85 88  1  0
 86 90  1  0
 86 85  1  0
 87 86  2  0
 90 89  1  0
 92 90  1  0
 92 93  1  0
 92 91  1  0
M  ISO  4  10 100  18 100  52 101  53 101
M  END
>  <TORSDO>  (69) 
F 19

>  <SCORE>  (69) 
-14.555

>  <name>  (69) 
68

>  <ligand_id>  (69) 
68

>  <original_smiles>  (69) 
[H]c1c([H])c([H])c2c(c1[H])C([H])([H])C([H])([H])C([H])([H])C2([H])N([H])C(=O)C1([H])N(C(=O)C([H])(N([H])C(=O)C([H])(N([H])C([H])([H])[H])C([H])([H])[H])C(C([H])([H])[H])(C([H])([H])[H])C([H])([H])[H])C([H])([H])c2c([H])c(OC([H])([H])C(=O)N(C([H])([H])[H])C([H])([H])c3c([H])c(Cl)c([H])c(N([H])C(=O)N4C([H])([H])C([H])([H])C([H])([H])C([H])(n5nc(-c6c([H])c([H])c(Oc7c([H])c([H])c(F)c([H])c7F)c([H])c6[H])c(C(=O)N([H])[H])c5N([H])[H])C4([H])[H])c3Cl)c([H])c([H])c2C1([H])[H]

>  <smiles>  (69) 
[H]c1c([H])c([H])c2c(c1[H])C([H])([H])C([H])([H])C([H])([H])C2([H])N([H])C(=O)C1([H])N(C(=O)C([H])(N([H])C(=O)C([H])(N([H])C([H])([H])[H])C([H])([H])[H])C(C([H])([H])[H])(C([H])([H])[H])C([H])([H])[H])C([H])([H])c2c([H])c(OC([H])([H])C(=O)N(C([H])([H])[H])C([H])([H])c3c([H])c(Cl)c([H])c(N([H])C(=O)N4C([H])([H])C([H])([H])C([H])([H])C([H])(n5nc(-c6c([H])c([H])c(Oc7c([H])c([H])c(F)c([H])c7F)c([H])c6[H])c(C(=O)N([H])[H])c5N([H])[H])C4([H])[H])c3Cl)c([H])c([H])c2C1([H])[H]

$$$$
69:0:0
     RDKit          3D

 94102  0  0  1  0  0  0  0  0999 V2000
  -29.4960  -20.6900   21.3130 C   0  0  0  0  0  2  0  0  0  0  0  0
  -29.6160  -19.5330   19.0490 C   0  0  0  0  0  3  0  0  0  0  0  0
  -29.7580  -18.4050   18.2250 C   0  0  0  0  0  3  0  0  0  0  0  0
  -29.6560  -19.4110   20.4540 C   0  0  0  0  0  0  0  0  0  0  0  0
  -29.8780  -18.1120   21.0240 C   0  0  0  0  0  0  0  0  0  0  0  0
  -30.0290  -16.9570   20.1860 C   0  0  0  0  0  0  0  0  0  0  0  0
  -29.9450  -17.1280   18.7810 C   0  0  0  0  0  0  0  0  0  0  0  0
  -29.9530  -17.9580   22.5400 C   0  0  0  0  0  1  0  0  0  0  0  0
  -29.9970  -16.0670   17.9410 F   0  0  0  0  0  0  0  0  0  0  0  0
  -30.8850  -14.6080   20.2230 C   0  0  0  0  0  0  0  0  0  0  0  0
  -30.6120  -12.4290   19.0990 C   0  0  0  0  0  2  0  0  0  0  0  0
  -29.6230  -12.6220   17.9270 C   0  0  0  0  0  2  0  0  0  0  0  0
  -28.1670  -12.4700   18.4060 C   0  0  0  0  0  2  0  0  0  0  0  0
  -27.8640  -13.2880   19.6890 C   0  0  0  0  0  3  0  0  0  0  0  0
  -28.9600  -13.0690   20.7570 C   0  0  0  0  0  2  0  0  0  0  0  0
  -30.2580  -13.4000   20.1490 N   0  0  0  0  0  0  0  0  0  0  0  0
  -32.0090  -14.8020   19.7490 O   0  0  0  0  0  0  0  0  0  0  0  0
  -30.1490  -15.6250   20.7330 N   0  0  0  0  0  0  0  0  0  0  0  0
  -29.3760  -15.3340   21.3110 H   0  0  0  0  0  0  0  0  0  0  0  0
  -25.4920  -13.8630   20.5050 C   0  0  0  0  0  0  0  0  0  0  0  0
  -24.4430  -13.0740   20.8960 C   0  0  0  0  0  0  0  0  0  0  0  0
  -24.9100  -11.7280   20.8140 C   0  0  0  0  0  0  0  0  0  0  0  0
  -26.5310  -12.9940   20.2120 N   0  0  0  0  0  0  0  0  0  0  0  0
  -26.1870  -11.7040   20.4550 N   0  0  0  0  0  0  0  0  0  0  0  0
  -24.1980  -10.4560   21.0000 C   0  0  0  0  0  0  0  0  0  0  0  0
  -24.6280   -9.5000   21.9460 C   0  0  0  0  0  3  0  0  0  0  0  0
  -23.9150   -8.2940   22.1190 C   0  0  0  0  0  3  0  0  0  0  0  0
  -22.7590   -8.0350   21.3440 C   0  0  0  0  0  0  0  0  0  0  0  0
  -22.3500   -8.9800   20.3870 C   0  0  0  0  0  3  0  0  0  0  0  0
  -23.0630  -10.1770   20.2130 C   0  0  0  0  0  3  0  0  0  0  0  0
  -22.0200   -6.8790   21.4250 O   0  0  0  0  0  0  0  0  0  0  0  0
  -21.8910   -6.1880   22.6030 C   0  0  0  0  0  0  0  0  0  0  0  0
  -21.3260   -6.7760   23.7550 C   0  0  0  0  0  3  0  0  0  0  0  0
  -21.1500   -6.0090   24.9230 C   0  0  0  0  0  3  0  0  0  0  0  0
  -21.5290   -4.6530   24.9390 C   0  0  0  0  0  0  0  0  0  0  0  0
  -22.0860   -4.0640   23.7910 C   0  0  0  0  0  3  0  0  0  0  0  0
  -22.2640   -4.8290   22.6250 C   0  0  0  0  0  0  0  0  0  0  0  0
  -22.7820   -4.2500   21.5150 F   0  0  0  0  0  0  0  0  0  0  0  0
  -21.3520   -3.9130   26.0600 F   0  0  0  0  0  0  0  0  0  0  0  0
  -23.0560  -13.5370   21.2360 C   0  0  0  0  0  0  0  0  0  0  0  0
  -22.3660  -12.8150   22.1120 N   0  0  0  0  0  0  0  0  0  0  0  0
  -22.5910  -14.5710   20.7590 O   0  0  0  0  0  0  0  0  0  0  0  0
  -22.7550  -11.9770   22.5190 H   0  0  0  0  0  0  0  0  0  0  0  0
  -21.4370  -13.1050   22.3830 H   0  0  0  0  0  0  0  0  0  0  0  0
  -25.6450  -15.2390   20.3560 N   0  0  0  0  0  0  0  0  0  0  0  0
  -24.8810  -15.8880   20.5100 H   0  0  0  0  0  0  0  0  0  0  0  0
  -26.4810  -15.6870   20.0010 H   0  0  0  0  0  0  0  0  0  0  0  0
  -29.1250  -23.1470   20.7730 C   0  0  0  0  0  0  0  0  0  0  0  0
  -28.7890  -21.8380   20.6900 N   0  0  0  0  0  0  0  0  0  0  0  0
  -30.1860  -23.5130   21.2820 O   0  0  0  0  0  0  0  0  0  0  0  0
  -27.9020  -21.6200   20.2570 H   0  0  0  0  0  0  0  0  0  0  0  0
  -28.1140  -24.2090   20.2550 C   0  0  0  0  0  2  0  0  0  0  0  0
  -28.7040  -25.4820   19.5550 C   0  0  0  0  0  2  0  0  0  0  0  0
  -28.5560  -26.7500   20.2390 O   0  0  0  0  0  0  0  0  0  0  0  0
  -24.6330  -31.9000   23.2330 C   0  0  0  0  0  0  0  0  0  0  0  0
  -27.3640  -27.4590   20.1870 C   0  0  0  0  0  0  0  0  0  0  0  0
  -23.4630  -30.4810   21.5810 C   0  0  0  0  0  3  0  0  0  0  0  0
  -24.9500  -28.9590   20.1690 C   0  0  0  0  0  0  0  0  0  0  0  0
  -25.9880  -30.8640   21.4120 C   0  0  0  0  0  2  0  0  0  0  0  0
  -26.0960  -29.4910   20.7730 C   0  0  0  0  0  0  0  0  0  0  0  0
  -27.3010  -28.7460   20.7800 C   0  0  0  0  0  3  0  0  0  0  0  0
  -26.1930  -26.9470   19.5810 C   0  0  0  0  0  3  0  0  0  0  0  0
  -24.9950  -27.6870   19.5720 C   0  0  0  0  0  3  0  0  0  0  0  0
  -23.6960  -29.8040   20.2030 C   0  0  0  0  0  2  0  0  0  0  0  0
  -24.7120  -31.0980   22.1340 N   0  0  0  0  0  0  0  0  0  0  0  0
  -23.5430  -32.1590   23.7620 O   0  0  0  0  0  0  0  0  0  0  0  0
  -22.8140  -29.4530   22.5370 C   0  0  0  0  0  0  0  0  0  0  0  0
  -21.4960  -29.2440   22.3880 N   0  0  0  0  0  0  0  0  0  0  0  0
  -23.4950  -28.8460   23.3670 O   0  0  0  0  0  0  0  0  0  0  0  0
  -21.0070  -29.7870   21.6900 H   0  0  0  0  0  0  0  0  0  0  0  0
  -18.1380  -27.9840   22.8340 C   0  0  0  0  0  0  0  0  0  0  0  0
  -20.6860  -28.2940   23.1490 C   0  0  0  0  0  3  0  0  0  0  0  0
  -20.8260  -26.8620   22.5810 C   0  0  0  0  0  2  0  0  0  0  0  0
  -19.7490  -26.5140   21.5500 C   0  0  0  0  0  2  0  0  0  0  0  0
  -18.3530  -26.6350   22.1690 C   0  0  0  0  0  2  0  0  0  0  0  0
  -19.2340  -28.7700   23.2800 C   0  0  0  0  0  0  0  0  0  0  0  0
  -18.9800  -30.0310   23.8600 C   0  0  0  0  0  3  0  0  0  0  0  0
  -17.6640  -30.5080   24.0010 C   0  0  0  0  0  3  0  0  0  0  0  0
  -16.5820  -29.7200   23.5720 C   0  0  0  0  0  3  0  0  0  0  0  0
  -16.8200  -28.4600   22.9950 C   0  0  0  0  0  3  0  0  0  0  0  0
  -25.9030  -32.5500   23.8640 C   0  0  0  0  0  3  0  0  0  0  0  0
  -26.4210  -31.7870   25.1460 C   0  0  1  0  0  0  0  0  0  0  0  0
  -25.3200  -31.5240   26.2000 C   0  0  0  0  0  1  0  0  0  0  0  0
  -27.0380  -30.4240   24.7570 C   0  0  0  0  0  1  0  0  0  0  0  0
  -27.5460  -32.6050   25.8240 C   0  0  0  0  0  1  0  0  0  0  0  0
  -25.5740  -33.9440   24.1890 N   0  0  0  0  0  0  0  0  0  0  0  0
  -25.9000  -35.0000   23.4320 C   0  0  0  0  0  0  0  0  0  0  0  0
  -26.5820  -34.9030   22.4080 O   0  0  0  0  0  0  0  0  0  0  0  0
  -24.9660  -34.0910   24.9820 H   0  0  0  0  0  0  0  0  0  0  0  0
  -24.1550  -36.7710   23.0520 C   0  0  0  0  0  1  0  0  0  0  0  0
  -25.3890  -36.3820   23.8810 C   0  0  0  0  0  3  0  0  0  0  0  0
  -27.4980  -37.2940   24.7470 C   0  0  0  0  0  1  0  0  0  0  0  0
  -26.4100  -37.4470   23.7840 N   0  0  0  0  0  0  0  0  0  0  0  0
  -25.9910  -38.3620   23.9230 H   0  0  0  0  0  0  0  0  0  0  0  0
  2  4  1  0
  3  7  1  0
  3  2  2  0
  4  5  2  0
  4  1  1  0
  5  8  1  0
  6 18  1  0
  6  5  1  0
  7  6  2  0
  9  7  1  0
 10 18  1  0
 11 16  1  0
 12 13  1  0
 12 11  1  0
 14 13  1  0
 14 23  1  0
 14 15  1  0
 16 10  1  0
 16 15  1  0
 17 10  2  0
 18 19  1  0
 20 21  2  0
 21 40  1  0
 22 21  1  0
 22 25  1  0
 23 24  1  0
 23 20  1  0
 24 22  2  0
 25 26  1  0
 26 27  2  0
 28 31  1  0
 28 27  1  0
 29 28  2  0
 30 29  1  0
 30 25  2  0
 31 32  1  0
 32 37  2  0
 32 33  1  0
 33 34  2  0
 34 35  1  0
 35 39  1  0
 36 35  2  0
 37 36  1  0
 38 37  1  0
 40 41  1  0
 41 44  1  0
 41 43  1  0
 42 40  2  0
 45 20  1  0
 45 46  1  0
 47 45  1  0
 48 50  2  0
 49 48  1  0
 49  1  1  0
 51 49  1  0
 52 48  1  0
 53 54  1  0
 53 52  1  0
 55 66  2  0
 56 54  1  0
 56 61  1  0
 57 65  1  0
 57 67  1  0
 58 64  1  0
 58 60  1  0
 59 65  1  0
 60 61  2  0
 60 59  1  0
 62 56  2  0
 63 62  1  0
 63 58  2  0
 64 57  1  0
 65 55  1  0
 67 69  2  0
 68 67  1  0
 70 68  1  0
 71 80  2  0
 71 76  1  0
 72 68  1  0
 72 76  1  0
 73 72  1  0
 74 75  1  0
 74 73  1  0
 75 71  1  0
 76 77  2  0
 77 78  1  0
 79 78  2  0
 80 79  1  0
 81 55  1  0
 81 86  1  0
 81 82  1  0
 82 85  1  1
 82 83  1  0
 84 82  1  0
 86 89  1  0
 87 91  1  0
 87 86  1  0
 88 87  2  0
 91 90  1  0
 93 91  1  0
 93 94  1  0
 93 92  1  0
M  ISO  4  10 100  18 100  53 101  54 101
M  END
>  <TORSDO>  (70) 
F 20

>  <SCORE>  (70) 
-12.679

>  <name>  (70) 
69

>  <ligand_id>  (70) 
69

>  <original_smiles>  (70) 
[H]c1c([H])c([H])c2c(c1[H])C([H])([H])C([H])([H])C([H])([H])C2([H])N([H])C(=O)C1([H])N(C(=O)C([H])(N([H])C(=O)C([H])(N([H])C([H])([H])[H])C([H])([H])[H])C(C([H])([H])[H])(C([H])([H])[H])C([H])([H])[H])C([H])([H])c2c([H])c(OC([H])([H])C([H])([H])C(=O)N([H])C([H])([H])c3c([H])c([H])c(F)c(N([H])C(=O)N4C([H])([H])C([H])([H])C([H])([H])C([H])(n5nc(-c6c([H])c([H])c(Oc7c([H])c([H])c(F)c([H])c7F)c([H])c6[H])c(C(=O)N([H])[H])c5N([H])[H])C4([H])[H])c3C([H])([H])[H])c([H])c([H])c2C1([H])[H]

>  <smiles>  (70) 
[H]c1c([H])c([H])c2c(c1[H])C([H])([H])C([H])([H])C([H])([H])C2([H])N([H])C(=O)C1([H])N(C(=O)C([H])(N([H])C(=O)C([H])(N([H])C([H])([H])[H])C([H])([H])[H])C(C([H])([H])[H])(C([H])([H])[H])C([H])([H])[H])C([H])([H])c2c([H])c(OC([H])([H])C([H])([H])C(=O)N([H])C([H])([H])c3c([H])c([H])c(F)c(N([H])C(=O)N4C([H])([H])C([H])([H])C([H])([H])C([H])(n5nc(-c6c([H])c([H])c(Oc7c([H])c([H])c(F)c([H])c7F)c([H])c6[H])c(C(=O)N([H])[H])c5N([H])[H])C4([H])[H])c3C([H])([H])[H])c([H])c([H])c2C1([H])[H]

$$$$
70:0:0
     RDKit          3D

 96105  0  0  1  0  0  0  0  0999 V2000
  -28.6240  -23.0650   19.3080 C   0  0  0  0  0  0  0  0  0  0  0  0
  -27.2810  -23.1090   19.3870 C   0  0  0  0  0  2  0  0  0  0  0  0
  -29.5170  -22.0030   19.9330 C   0  0  0  0  0  2  0  0  0  0  0  0
  -30.2840  -21.1760   18.8720 C   0  0  0  0  0  2  0  0  0  0  0  0
  -30.0850  -23.2290   17.3110 C   0  0  0  0  0  2  0  0  0  0  0  0
  -30.9890  -22.0380   17.7970 C   0  0  0  0  0  3  0  0  0  0  0  0
  -29.4900  -23.9640   18.4930 N   0  0  1  0  0  4  0  0  0  0  0  0
  -30.3100  -24.0700   19.0700 H   0  0  0  0  0  0  0  0  0  0  0  0
  -31.8340  -21.3090   16.8430 O   0  0  0  0  0  0  0  0  0  0  0  0
  -34.0490  -16.7660   11.8110 C   0  0  0  0  0  0  0  0  0  0  0  0
  -31.4520  -20.2840   15.9830 C   0  0  0  0  0  0  0  0  0  0  0  0
  -31.6020  -16.8830   12.1360 C   0  0  0  0  0  3  0  0  0  0  0  0
  -30.8180  -18.1400   14.2150 C   0  0  0  0  0  0  0  0  0  0  0  0
  -33.1970  -17.3790   14.0810 C   0  0  0  0  0  2  0  0  0  0  0  0
  -32.1400  -18.3230   14.6370 C   0  0  0  0  0  0  0  0  0  0  0  0
  -32.4510  -19.3750   15.5350 C   0  0  0  0  0  3  0  0  0  0  0  0
  -30.1300  -20.0730   15.5300 C   0  0  0  0  0  3  0  0  0  0  0  0
  -29.8110  -19.0100   14.6640 C   0  0  0  0  0  3  0  0  0  0  0  0
  -30.5470  -16.9930   13.2690 C   0  0  0  0  0  2  0  0  0  0  0  0
  -33.0040  -17.0270   12.6490 N   0  0  0  0  0  0  0  0  0  0  0  0
  -33.8610  -16.3780   10.6510 O   0  0  0  0  0  0  0  0  0  0  0  0
  -31.2480  -17.9050   11.0290 C   0  0  0  0  0  0  0  0  0  0  0  0
  -30.1290  -17.6700   10.3260 N   0  0  0  0  0  0  0  0  0  0  0  0
  -31.9570  -18.8960   10.8380 O   0  0  0  0  0  0  0  0  0  0  0  0
  -29.6170  -16.8200   10.5230 H   0  0  0  0  0  0  0  0  0  0  0  0
  -27.2750  -18.1470    8.1520 C   0  0  0  0  0  0  0  0  0  0  0  0
  -29.5730  -18.5240    9.2740 C   0  0  0  0  0  3  0  0  0  0  0  0
  -28.9570  -19.8150    9.8610 C   0  0  0  0  0  2  0  0  0  0  0  0
  -27.4560  -19.6910   10.1480 C   0  0  0  0  0  2  0  0  0  0  0  0
  -26.6930  -19.3580    8.8630 C   0  0  0  0  0  2  0  0  0  0  0  0
  -28.6220  -17.7460    8.3580 C   0  0  0  0  0  0  0  0  0  0  0  0
  -29.0990  -16.5910    7.7010 C   0  0  0  0  0  3  0  0  0  0  0  0
  -28.2580  -15.8450    6.8530 C   0  0  0  0  0  3  0  0  0  0  0  0
  -26.9300  -16.2560    6.6430 C   0  0  0  0  0  3  0  0  0  0  0  0
  -26.4440  -17.4060    7.2870 C   0  0  0  0  0  3  0  0  0  0  0  0
  -35.5290  -16.9150   12.2830 C   0  0  0  0  0  3  0  0  0  0  0  0
  -36.2870  -18.1090   11.5840 C   0  0  1  0  0  0  0  0  0  0  0  0
  -36.8310  -17.7640   10.1790 C   0  0  0  0  0  1  0  0  0  0  0  0
  -35.3600  -19.3400   11.4440 C   0  0  0  0  0  1  0  0  0  0  0  0
  -37.4820  -18.5520   12.4620 C   0  0  0  0  0  1  0  0  0  0  0  0
  -36.2080  -15.6390   12.0090 N   0  0  0  0  0  0  0  0  0  0  0  0
  -36.1860  -14.5750   12.8230 C   0  0  0  0  0  0  0  0  0  0  0  0
  -35.6360  -14.5900   13.9280 O   0  0  0  0  0  0  0  0  0  0  0  0
  -36.6080  -15.5350   11.0880 H   0  0  0  0  0  0  0  0  0  0  0  0
  -35.8440  -12.2510   11.9100 C   0  0  0  0  0  1  0  0  0  0  0  0
  -36.8900  -13.2930   12.3350 C   0  0  0  0  0  3  0  0  0  0  0  0
  -39.0500  -13.4350   13.4960 C   0  0  0  0  0  1  0  0  0  0  0  0
  -37.7960  -12.7000   13.3440 N   0  0  0  0  0  0  0  0  0  0  0  0
  -38.0190  -11.7370   13.1060 H   0  0  0  0  0  0  0  0  0  0  0  0
  -29.2130  -25.4490   18.3510 C   0  0  0  0  0  2  0  0  0  0  0  0
  -31.6820  -28.7010   20.0790 C   0  0  0  0  0  3  0  0  0  0  0  0
  -30.7220  -28.0400   20.8600 C   0  0  0  0  0  3  0  0  0  0  0  0
  -31.1100  -27.2480   18.2120 C   0  0  0  0  0  3  0  0  0  0  0  0
  -31.8920  -28.3240   18.7380 C   0  0  0  0  0  0  0  0  0  0  0  0
  -29.9350  -26.9930   20.3340 C   0  0  0  0  0  0  0  0  0  0  0  0
  -30.1340  -26.5460   18.9930 C   0  0  0  0  0  0  0  0  0  0  0  0
  -28.8620  -26.4440   21.2650 C   0  0  0  0  0  1  0  0  0  0  0  0
  -32.9200  -29.0880   17.8640 C   0  0  0  0  0  2  0  0  0  0  0  0
  -34.9880  -30.5420   18.0580 C   0  0  0  0  0  0  0  0  0  0  0  0
  -37.3820  -31.1690   18.1380 C   0  0  0  0  0  2  0  0  0  0  0  0
  -38.2690  -29.9240   17.9070 C   0  0  0  0  0  2  0  0  0  0  0  0
  -38.5180  -29.1580   19.2210 C   0  0  0  0  0  2  0  0  0  0  0  0
  -37.2130  -28.9180   20.0220 C   0  0  0  0  0  3  0  0  0  0  0  0
  -36.3810  -30.2140   20.1370 C   0  0  0  0  0  2  0  0  0  0  0  0
  -36.1320  -30.7190   18.7760 N   0  0  0  0  0  0  0  0  0  0  0  0
  -34.8180  -31.0430   16.9440 O   0  0  0  0  0  0  0  0  0  0  0  0
  -34.1070  -29.6450   18.5570 N   0  0  0  0  0  0  0  0  0  0  0  0
  -34.3480  -29.2380   19.4470 H   0  0  0  0  0  0  0  0  0  0  0  0
  -37.2460  -27.0440   21.7840 C   0  0  0  0  0  0  0  0  0  0  0  0
  -37.7600  -26.9920   23.0520 C   0  0  0  0  0  0  0  0  0  0  0  0
  -38.3050  -28.2870   23.3130 C   0  0  0  0  0  0  0  0  0  0  0  0
  -37.4890  -28.3320   21.3310 N   0  0  0  0  0  0  0  0  0  0  0  0
  -38.0740  -29.0970   22.2870 N   0  0  0  0  0  0  0  0  0  0  0  0
  -39.0770  -28.7910   24.4560 C   0  0  0  0  0  0  0  0  0  0  0  0
  -38.4570  -29.4590   25.5340 C   0  0  0  0  0  3  0  0  0  0  0  0
  -39.2210  -29.9150   26.6290 C   0  0  0  0  0  3  0  0  0  0  0  0
  -40.6200  -29.7040   26.6530 C   0  0  0  0  0  0  0  0  0  0  0  0
  -41.2360  -29.0610   25.5670 C   0  0  0  0  0  3  0  0  0  0  0  0
  -40.4750  -28.6120   24.4750 C   0  0  0  0  0  3  0  0  0  0  0  0
  -41.4450  -30.1380   27.6620 O   0  0  0  0  0  0  0  0  0  0  0  0
  -41.0370  -30.1470   28.9710 C   0  0  0  0  0  0  0  0  0  0  0  0
  -41.1230  -28.9970   29.7860 C   0  0  0  0  0  3  0  0  0  0  0  0
  -40.7610  -29.0700   31.1480 C   0  0  0  0  0  3  0  0  0  0  0  0
  -40.3200  -30.2890   31.6950 C   0  0  0  0  0  0  0  0  0  0  0  0
  -40.2360  -31.4340   30.8860 C   0  0  0  0  0  3  0  0  0  0  0  0
  -40.5980  -31.3660   29.5290 C   0  0  0  0  0  0  0  0  0  0  0  0
  -40.5390  -32.4790   28.7610 F   0  0  0  0  0  0  0  0  0  0  0  0
  -39.9770  -30.3620   33.0020 F   0  0  0  0  0  0  0  0  0  0  0  0
  -37.8250  -25.7810   23.9370 C   0  0  0  0  0  0  0  0  0  0  0  0
  -37.6760  -25.9630   25.2480 N   0  0  0  0  0  0  0  0  0  0  0  0
  -37.9670  -24.6540   23.4690 O   0  0  0  0  0  0  0  0  0  0  0  0
  -37.5790  -26.8860   25.6380 H   0  0  0  0  0  0  0  0  0  0  0  0
  -37.6840  -25.1680   25.8670 H   0  0  0  0  0  0  0  0  0  0  0  0
  -36.6140  -26.1060   20.9740 N   0  0  0  0  0  0  0  0  0  0  0  0
  -36.4600  -25.1500   21.2720 H   0  0  0  0  0  0  0  0  0  0  0  0
  -36.3390  -26.2640   20.0130 H   0  0  0  0  0  0  0  0  0  0  0  0
  1  2  2  0
  1  3  1  0
  4  3  1  0
  5  6  1  0
  5  7  1  0
  6  9  1  0
  6  4  1  0
  7  8  1  1
  7  1  1  0
 10 20  1  0
 11  9  1  0
 12 22  1  0
 12 20  1  0
 12 19  1  0
 13 15  1  0
 13 18  2  0
 14 15  1  0
 15 16  2  0
 16 11  1  0
 17 11  2  0
 18 17  1  0
 19 13  1  0
 20 14  1  0
 21 10  2  0
 23 25  1  0
 23 22  1  0
 24 22  2  0
 26 31  1  0
 26 30  1  0
 27 28  1  0
 27 23  1  0
 28 29  1  0
 30 29  1  0
 31 27  1  0
 32 31  2  0
 33 32  1  0
 34 33  2  0
 34 35  1  0
 35 26  2  0
 36 10  1  0
 37 36  1  0
 37 40  1  1
 38 37  1  0
 39 37  1  0
 41 36  1  0
 41 42  1  0
 42 43  2  0
 44 41  1  0
 46 45  1  0
 46 42  1  0
 46 48  1  0
 48 47  1  0
 49 48  1  0
 50  7  1  0
 50 56  1  0
 51 52  1  0
 53 54  1  0
 53 56  2  0
 54 51  2  0
 55 52  2  0
 55 57  1  0
 56 55  1  0
 58 67  1  0
 58 54  1  0
 59 67  1  0
 59 65  1  0
 60 65  1  0
 61 60  1  0
 61 62  1  0
 63 62  1  0
 63 64  1  0
 63 72  1  0
 65 64  1  0
 66 59  2  0
 67 68  1  0
 69 70  2  0
 70 71  1  0
 70 89  1  0
 71 74  1  0
 72 69  1  0
 72 73  1  0
 73 71  2  0
 74 79  2  0
 74 75  1  0
 75 76  2  0
 76 77  1  0
 77 80  1  0
 78 77  2  0
 79 78  1  0
 80 81  1  0
 81 86  2  0
 81 82  1  0
 82 83  2  0
 83 84  1  0
 84 88  1  0
 85 84  2  0
 86 85  1  0
 87 86  1  0
 89 90  1  0
 90 92  1  0
 90 93  1  0
 91 89  2  0
 94 95  1  0
 94 69  1  0
 96 94  1  0
M  ISO  4   6 101   9 101  59 100  67 100
M  END
>  <TORSDO>  (71) 
F 19

>  <SCORE>  (71) 
-4.536

>  <name>  (71) 
70

>  <ligand_id>  (71) 
70

>  <original_smiles>  (71) 
[H]C([H])=C1C([H])([H])C([H])([H])C([H])(Oc2c([H])c([H])c3c(c2[H])C([H])([H])N(C(=O)C([H])(N([H])C(=O)C([H])(N([H])C([H])([H])[H])C([H])([H])[H])C(C([H])([H])[H])(C([H])([H])[H])C([H])([H])[H])C([H])(C(=O)N([H])C2([H])c4c([H])c([H])c([H])c([H])c4C([H])([H])C([H])([H])C2([H])[H])C3([H])[H])C([H])([H])[N+]1([H])C([H])([H])c1c([H])c(C([H])([H])N([H])C(=O)N2C([H])([H])C([H])([H])C([H])([H])C([H])(n3nc(-c4c([H])c([H])c(Oc5c([H])c([H])c(F)c([H])c5F)c([H])c4[H])c(C(=O)N([H])[H])c3N([H])[H])C2([H])[H])c([H])c([H])c1C([H])([H])[H]

>  <smiles>  (71) 
[H]C([H])=C1C([H])([H])C([H])([H])C([H])(Oc2c([H])c([H])c3c(c2[H])C([H])([H])N(C(=O)C([H])(N([H])C(=O)C([H])(N([H])C([H])([H])[H])C([H])([H])[H])C(C([H])([H])[H])(C([H])([H])[H])C([H])([H])[H])C([H])(C(=O)N([H])C2([H])c4c([H])c([H])c([H])c([H])c4C([H])([H])C([H])([H])C2([H])[H])C3([H])[H])C([H])([H])[N+]1([H])C([H])([H])c1c([H])c(C([H])([H])N([H])C(=O)N2C([H])([H])C([H])([H])C([H])([H])C([H])(n3nc(-c4c([H])c([H])c(Oc5c([H])c([H])c(F)c([H])c5F)c([H])c4[H])c(C(=O)N([H])[H])c3N([H])[H])C2([H])[H])c([H])c([H])c1C([H])([H])[H]

$$$$
71:0:0
     RDKit          3D

 95104  0  0  1  0  0  0  0  0999 V2000
  -28.7030  -23.1200   22.2360 C   0  0  0  0  0  0  0  0  0  0  0  0
  -29.3740  -22.5540   23.2540 C   0  0  0  0  0  2  0  0  0  0  0  0
  -27.4940  -24.0080   22.4950 C   0  0  0  0  0  2  0  0  0  0  0  0
  -27.5160  -25.3660   21.7690 C   0  0  0  0  0  2  0  0  0  0  0  0
  -28.8370  -24.1000   19.9560 C   0  0  0  0  0  2  0  0  0  0  0  0
  -28.6320  -25.4990   20.7060 C   0  0  0  0  0  3  0  0  0  0  0  0
  -29.0510  -22.9380   20.8940 N   0  0  0  0  0  0  0  0  0  0  0  0
  -31.4840  -20.0660   20.2640 C   0  0  0  0  0  3  0  0  0  0  0  0
  -29.2630  -19.1980   20.0380 C   0  0  0  0  0  3  0  0  0  0  0  0
  -30.6520  -18.9270   20.0960 C   0  0  0  0  0  0  0  0  0  0  0  0
  -29.5900  -21.6630   20.4600 C   0  0  0  0  0  0  0  0  0  0  0  0
  -30.9870  -21.3900   20.4420 C   0  0  0  0  0  0  0  0  0  0  0  0
  -28.7470  -20.5250   20.2080 C   0  0  0  0  0  0  0  0  0  0  0  0
  -32.1360  -22.6420   20.7650 Cl  0  0  0  0  0  0  0  0  0  0  0  0
  -27.0280  -20.7140   20.1320 Cl  0  0  0  0  0  0  0  0  0  0  0  0
  -31.3340  -17.5050   20.1000 C   0  0  0  0  0  2  0  0  0  0  0  0
  -31.2930  -14.9890   19.9700 C   0  0  0  0  0  0  0  0  0  0  0  0
  -30.9420  -12.7330   18.9920 C   0  0  0  0  0  2  0  0  0  0  0  0
  -29.9830  -12.8410   17.7880 C   0  0  0  0  0  2  0  0  0  0  0  0
  -28.5210  -12.7290   18.2570 C   0  0  0  0  0  2  0  0  0  0  0  0
  -28.2090  -13.6440   19.4730 C   0  0  0  0  0  3  0  0  0  0  0  0
  -29.2910  -13.5430   20.5690 C   0  0  0  0  0  2  0  0  0  0  0  0
  -30.5860  -13.8160   19.9340 N   0  0  0  0  0  0  0  0  0  0  0  0
  -32.4670  -15.0150   19.5940 O   0  0  0  0  0  0  0  0  0  0  0  0
  -30.6390  -16.1740   20.2210 N   0  0  0  0  0  0  0  0  0  0  0  0
  -29.6610  -16.1520   20.4600 H   0  0  0  0  0  0  0  0  0  0  0  0
  -25.8620  -14.3010   20.2760 C   0  0  0  0  0  0  0  0  0  0  0  0
  -24.7850  -13.5590   20.6720 C   0  0  0  0  0  0  0  0  0  0  0  0
  -25.2030  -12.1940   20.6100 C   0  0  0  0  0  0  0  0  0  0  0  0
  -26.8710  -13.3940   20.0000 N   0  0  0  0  0  0  0  0  0  0  0  0
  -26.4830  -12.1200   20.2640 N   0  0  0  0  0  0  0  0  0  0  0  0
  -24.4410  -10.9530   20.8040 C   0  0  0  0  0  0  0  0  0  0  0  0
  -24.8130  -10.0030   21.7810 C   0  0  0  0  0  3  0  0  0  0  0  0
  -24.0530   -8.8280   21.9610 C   0  0  0  0  0  3  0  0  0  0  0  0
  -22.9070   -8.5930   21.1650 C   0  0  0  0  0  0  0  0  0  0  0  0
  -22.5560   -9.5310   20.1770 C   0  0  0  0  0  3  0  0  0  0  0  0
  -23.3160  -10.6990   19.9950 C   0  0  0  0  0  3  0  0  0  0  0  0
  -22.1220   -7.4690   21.2540 O   0  0  0  0  0  0  0  0  0  0  0  0
  -21.9110   -6.8320   22.4510 C   0  0  0  0  0  0  0  0  0  0  0  0
  -21.3460   -7.4970   23.5600 C   0  0  0  0  0  3  0  0  0  0  0  0
  -21.0830   -6.7870   24.7490 C   0  0  0  0  0  3  0  0  0  0  0  0
  -21.3760   -5.4110   24.8270 C   0  0  0  0  0  0  0  0  0  0  0  0
  -21.9340   -4.7460   23.7200 C   0  0  0  0  0  3  0  0  0  0  0  0
  -22.1980   -5.4540   22.5360 C   0  0  0  0  0  0  0  0  0  0  0  0
  -22.7150   -4.8040   21.4650 F   0  0  0  0  0  0  0  0  0  0  0  0
  -21.1180   -4.7260   25.9650 F   0  0  0  0  0  0  0  0  0  0  0  0
  -23.4130  -14.0760   20.9910 C   0  0  0  0  0  0  0  0  0  0  0  0
  -22.6990  -13.4070   21.8900 N   0  0  0  0  0  0  0  0  0  0  0  0
  -22.9840  -15.1110   20.4810 O   0  0  0  0  0  0  0  0  0  0  0  0
  -23.0580  -12.5710   22.3240 H   0  0  0  0  0  0  0  0  0  0  0  0
  -21.7790  -13.7350   22.1490 H   0  0  0  0  0  0  0  0  0  0  0  0
  -26.0610  -15.6680   20.1000 N   0  0  0  0  0  0  0  0  0  0  0  0
  -25.3130  -16.3390   20.2370 H   0  0  0  0  0  0  0  0  0  0  0  0
  -26.8910  -16.0770   19.6930 H   0  0  0  0  0  0  0  0  0  0  0  0
  -28.5950  -26.7930   19.9750 O   0  0  0  0  0  0  0  0  0  0  0  0
  -24.5290  -31.8190   23.1570 C   0  0  0  0  0  0  0  0  0  0  0  0
  -27.4310  -27.5660   19.9640 C   0  0  0  0  0  0  0  0  0  0  0  0
  -23.4250  -30.4220   21.4430 C   0  0  0  0  0  3  0  0  0  0  0  0
  -24.9790  -29.0170   19.9750 C   0  0  0  0  0  0  0  0  0  0  0  0
  -25.9400  -30.9000   21.3070 C   0  0  0  0  0  2  0  0  0  0  0  0
  -26.1060  -29.5570   20.6080 C   0  0  0  0  0  0  0  0  0  0  0  0
  -27.3380  -28.8430   20.5920 C   0  0  0  0  0  3  0  0  0  0  0  0
  -26.2900  -27.0720   19.3030 C   0  0  0  0  0  3  0  0  0  0  0  0
  -25.0710  -27.7790   19.3140 C   0  0  0  0  0  3  0  0  0  0  0  0
  -23.6920  -29.8130   20.0400 C   0  0  0  0  0  2  0  0  0  0  0  0
  -24.6480  -31.0630   22.0270 N   0  0  0  0  0  0  0  0  0  0  0  0
  -23.4270  -32.0120   23.6890 O   0  0  0  0  0  0  0  0  0  0  0  0
  -22.8130  -29.3320   22.3540 C   0  0  0  0  0  0  0  0  0  0  0  0
  -21.4930  -29.1090   22.2240 N   0  0  0  0  0  0  0  0  0  0  0  0
  -23.5210  -28.6920   23.1350 O   0  0  0  0  0  0  0  0  0  0  0  0
  -20.9780  -29.6810   21.5700 H   0  0  0  0  0  0  0  0  0  0  0  0
  -18.1570  -27.8170   22.7450 C   0  0  0  0  0  0  0  0  0  0  0  0
  -20.7190  -28.1010   22.9490 C   0  0  0  0  0  3  0  0  0  0  0  0
  -20.8230  -26.7200   22.2620 C   0  0  0  0  0  2  0  0  0  0  0  0
  -19.6910  -26.4550   21.2640 C   0  0  0  0  0  2  0  0  0  0  0  0
  -18.3310  -26.5260   21.9620 C   0  0  0  0  0  2  0  0  0  0  0  0
  -19.2780  -28.5640   23.1930 C   0  0  0  0  0  0  0  0  0  0  0  0
  -19.0610  -29.7760   23.8860 C   0  0  0  0  0  3  0  0  0  0  0  0
  -17.7550  -30.2390   24.1320 C   0  0  0  0  0  3  0  0  0  0  0  0
  -16.6490  -29.4880   23.6990 C   0  0  0  0  0  3  0  0  0  0  0  0
  -16.8510  -28.2780   23.0110 C   0  0  0  0  0  3  0  0  0  0  0  0
  -25.7680  -32.4940   23.8230 C   0  0  0  0  0  3  0  0  0  0  0  0
  -25.3970  -33.8770   24.1520 N   0  0  0  0  0  0  0  0  0  0  0  0
  -25.7060  -34.9470   23.4060 C   0  0  0  0  0  0  0  0  0  0  0  0
  -26.4050  -34.8750   22.3900 O   0  0  0  0  0  0  0  0  0  0  0  0
  -24.7780  -34.0050   24.9380 H   0  0  0  0  0  0  0  0  0  0  0  0
  -23.9130  -36.6700   23.0250 C   0  0  0  0  0  1  0  0  0  0  0  0
  -25.1550  -36.3130   23.8570 C   0  0  0  0  0  3  0  0  0  0  0  0
  -27.2340  -37.2860   24.7310 C   0  0  0  0  0  1  0  0  0  0  0  0
  -26.1460  -37.4070   23.7650 N   0  0  0  0  0  0  0  0  0  0  0  0
  -25.6990  -38.3100   23.9010 H   0  0  0  0  0  0  0  0  0  0  0  0
  -26.2750  -31.7330   25.1100 C   0  0  1  0  0  0  0  0  0  0  0  0
  -25.1570  -31.4350   26.1360 C   0  0  0  0  0  1  0  0  0  0  0  0
  -26.9330  -30.3870   24.7260 C   0  0  0  0  0  1  0  0  0  0  0  0
  -27.3640  -32.5720   25.8190 C   0  0  0  0  0  1  0  0  0  0  0  0
  1  3  1  0
  1  2  2  0
  4  3  1  0
  5  6  1  0
  5  7  1  0
  6 55  1  0
  6  4  1  0
  7  1  1  0
  8 12  1  0
  9 10  1  0
  9 13  2  0
 10 16  1  0
 10  8  2  0
 11  7  1  0
 12 11  2  0
 12 14  1  0
 13 11  1  0
 15 13  1  0
 16 25  1  0
 17 25  1  0
 18 23  1  0
 19 20  1  0
 19 18  1  0
 21 20  1  0
 21 30  1  0
 21 22  1  0
 23 17  1  0
 23 22  1  0
 24 17  2  0
 25 26  1  0
 27 28  2  0
 28 47  1  0
 29 28  1  0
 29 32  1  0
 30 31  1  0
 30 27  1  0
 31 29  2  0
 32 33  1  0
 33 34  2  0
 35 38  1  0
 35 34  1  0
 36 35  2  0
 37 36  1  0
 37 32  2  0
 38 39  1  0
 39 44  2  0
 39 40  1  0
 40 41  2  0
 41 42  1  0
 42 46  1  0
 43 42  2  0
 44 43  1  0
 45 44  1  0
 47 48  1  0
 48 51  1  0
 48 50  1  0
 49 47  2  0
 52 53  1  0
 52 27  1  0
 54 52  1  0
 56 67  2  0
 57 55  1  0
 57 62  1  0
 58 66  1  0
 58 68  1  0
 59 65  1  0
 59 61  1  0
 60 66  1  0
 61 60  1  0
 62 61  2  0
 63 64  1  0
 63 57  2  0
 64 59  2  0
 65 58  1  0
 66 56  1  0
 68 70  2  0
 69 68  1  0
 71 69  1  0
 72 81  2  0
 72 77  1  0
 73 69  1  0
 73 77  1  0
 74 73  1  0
 75 76  1  0
 75 74  1  0
 76 72  1  0
 77 78  2  0
 78 79  1  0
 80 79  2  0
 81 80  1  0
 82 56  1  0
 82 83  1  0
 82 92  1  0
 83 86  1  0
 84 88  1  0
 84 83  1  0
 85 84  2  0
 88 87  1  0
 90 88  1  0
 90 91  1  0
 90 89  1  0
 92 95  1  1
 92 93  1  0
 94 92  1  0
M  ISO  4   6 101  17 100  25 100  55 101
M  END
>  <TORSDO>  (72) 
F 18

>  <SCORE>  (72) 
-12.700

>  <name>  (72) 
71

>  <ligand_id>  (72) 
71

>  <original_smiles>  (72) 
[H]C([H])=C1N(c2c(Cl)c([H])c(C([H])([H])N([H])C(=O)N3C([H])([H])C([H])([H])C([H])([H])C([H])(n4nc(-c5c([H])c([H])c(Oc6c([H])c([H])c(F)c([H])c6F)c([H])c5[H])c(C(=O)N([H])[H])c4N([H])[H])C3([H])[H])c([H])c2Cl)C([H])([H])C([H])(Oc2c([H])c([H])c3c(c2[H])C([H])([H])N(C(=O)C([H])(N([H])C(=O)C([H])(N([H])C([H])([H])[H])C([H])([H])[H])C(C([H])([H])[H])(C([H])([H])[H])C([H])([H])[H])C([H])(C(=O)N([H])C2([H])c4c([H])c([H])c([H])c([H])c4C([H])([H])C([H])([H])C2([H])[H])C3([H])[H])C([H])([H])C1([H])[H]

>  <smiles>  (72) 
[H]C([H])=C1N(c2c(Cl)c([H])c(C([H])([H])N([H])C(=O)N3C([H])([H])C([H])([H])C([H])([H])C([H])(n4nc(-c5c([H])c([H])c(Oc6c([H])c([H])c(F)c([H])c6F)c([H])c5[H])c(C(=O)N([H])[H])c4N([H])[H])C3([H])[H])c([H])c2Cl)C([H])([H])C([H])(Oc2c([H])c([H])c3c(c2[H])C([H])([H])N(C(=O)C([H])(N([H])C(=O)C([H])(N([H])C([H])([H])[H])C([H])([H])[H])C(C([H])([H])[H])(C([H])([H])[H])C([H])([H])[H])C([H])(C(=O)N([H])C2([H])c4c([H])c([H])c([H])c([H])c4C([H])([H])C([H])([H])C2([H])[H])C3([H])[H])C([H])([H])C1([H])[H]

$$$$
72:0:0
     RDKit          3D

 95103  0  0  1  0  0  0  0  0999 V2000
  -31.3920  -19.3600   19.3680 C   0  0  0  0  0  3  0  0  0  0  0  0
  -31.3900  -17.9480   19.5640 C   0  0  0  0  0  3  0  0  0  0  0  0
  -29.1110  -19.5190   20.1420 C   0  0  0  0  0  0  0  0  0  0  0  0
  -30.2740  -20.1950   19.6540 C   0  0  0  0  0  0  0  0  0  0  0  0
  -30.2540  -17.2740   20.0780 C   0  0  0  0  0  0  0  0  0  0  0  0
  -29.1200  -18.0930   20.3590 C   0  0  0  0  0  0  0  0  0  0  0  0
  -27.7130  -17.2980   20.9930 Cl  0  0  0  0  0  0  0  0  0  0  0  0
  -30.8990  -14.7540   19.8610 C   0  0  0  0  0  0  0  0  0  0  0  0
  -30.6030  -12.4840   18.8900 C   0  0  0  0  0  2  0  0  0  0  0  0
  -29.5820  -12.5820   17.7350 C   0  0  0  0  0  2  0  0  0  0  0  0
  -28.1410  -12.4450   18.2640 C   0  0  0  0  0  2  0  0  0  0  0  0
  -27.8670  -13.3490   19.4950 C   0  0  0  0  0  3  0  0  0  0  0  0
  -28.9960  -13.2240   20.5450 C   0  0  0  0  0  2  0  0  0  0  0  0
  -30.2700  -13.5350   19.8740 N   0  0  0  0  0  0  0  0  0  0  0  0
  -32.0230  -14.8860   19.3660 O   0  0  0  0  0  0  0  0  0  0  0  0
  -30.1610  -15.8230   20.2940 N   0  0  0  0  0  0  0  0  0  0  0  0
  -29.3230  -15.5500   20.7870 H   0  0  0  0  0  0  0  0  0  0  0  0
  -25.5570  -13.9960   20.4160 C   0  0  0  0  0  0  0  0  0  0  0  0
  -24.4960  -13.2420   20.8420 C   0  0  0  0  0  0  0  0  0  0  0  0
  -24.9080  -11.8800   20.7270 C   0  0  0  0  0  0  0  0  0  0  0  0
  -26.5500  -13.0930   20.0730 N   0  0  0  0  0  0  0  0  0  0  0  0
  -26.1700  -11.8130   20.3180 N   0  0  0  0  0  0  0  0  0  0  0  0
  -24.1560  -10.6360   20.9290 C   0  0  0  0  0  0  0  0  0  0  0  0
  -24.5920   -9.6480   21.8400 C   0  0  0  0  0  3  0  0  0  0  0  0
  -23.8410   -8.4670   22.0300 C   0  0  0  0  0  3  0  0  0  0  0  0
  -22.6400   -8.2660   21.3090 C   0  0  0  0  0  0  0  0  0  0  0  0
  -22.2240   -9.2410   20.3840 C   0  0  0  0  0  3  0  0  0  0  0  0
  -22.9750  -10.4140   20.1940 C   0  0  0  0  0  3  0  0  0  0  0  0
  -21.8600   -7.1400   21.4080 O   0  0  0  0  0  0  0  0  0  0  0  0
  -21.7870   -6.4150   22.5720 C   0  0  0  0  0  0  0  0  0  0  0  0
  -21.3360   -6.9910   23.7800 C   0  0  0  0  0  3  0  0  0  0  0  0
  -21.2100   -6.1930   24.9340 C   0  0  0  0  0  3  0  0  0  0  0  0
  -21.5260   -4.8220   24.8830 C   0  0  0  0  0  0  0  0  0  0  0  0
  -21.9700   -4.2480   23.6800 C   0  0  0  0  0  3  0  0  0  0  0  0
  -22.0990   -5.0420   22.5270 C   0  0  0  0  0  0  0  0  0  0  0  0
  -22.5070   -4.4780   21.3640 F   0  0  0  0  0  0  0  0  0  0  0  0
  -21.3990   -4.0540   25.9900 F   0  0  0  0  0  0  0  0  0  0  0  0
  -23.1420  -13.7530   21.2410 C   0  0  0  0  0  0  0  0  0  0  0  0
  -22.4760  -13.0680   22.1640 N   0  0  0  0  0  0  0  0  0  0  0  0
  -22.6860  -14.7940   20.7700 O   0  0  0  0  0  0  0  0  0  0  0  0
  -22.8600  -12.2250   22.5660 H   0  0  0  0  0  0  0  0  0  0  0  0
  -21.5710  -13.3910   22.4750 H   0  0  0  0  0  0  0  0  0  0  0  0
  -25.7510  -15.3650   20.2700 N   0  0  0  0  0  0  0  0  0  0  0  0
  -25.0250  -16.0390   20.4810 H   0  0  0  0  0  0  0  0  0  0  0  0
  -26.5970  -15.7940   19.9180 H   0  0  0  0  0  0  0  0  0  0  0  0
  -27.8860  -20.2830   20.4520 C   0  0  0  0  0  3  0  0  0  0  0  0
  -27.2110  -20.9190   19.5890 N   0  0  0  0  0  0  0  0  0  0  0  0
  -27.6010  -20.7940   18.6610 H   0  0  0  0  0  0  0  0  0  0  0  0
  -30.4860  -21.7670   19.5810 C   0  0  0  0  0  2  0  0  0  0  0  0
  -29.5240  -24.1470   19.6050 C   0  0  0  0  0  0  0  0  0  0  0  0
  -29.3770  -22.7830   19.5240 N   0  0  0  0  0  0  0  0  0  0  0  0
  -30.6330  -24.6500   19.8040 O   0  0  0  0  0  0  0  0  0  0  0  0
  -28.4340  -22.4220   19.4450 H   0  0  0  0  0  0  0  0  0  0  0  0
  -28.2830  -25.0960   19.4010 C   0  0  0  0  0  2  0  0  0  0  0  0
  -28.4540  -26.5260   19.7690 O   0  0  0  0  0  0  0  0  0  0  0  0
  -24.5280  -31.6680   22.9910 C   0  0  0  0  0  0  0  0  0  0  0  0
  -27.3080  -27.3410   19.7490 C   0  0  0  0  0  0  0  0  0  0  0  0
  -23.3890  -30.3310   21.2560 C   0  0  0  0  0  3  0  0  0  0  0  0
  -24.9000  -28.8920   19.7840 C   0  0  0  0  0  0  0  0  0  0  0  0
  -25.9230  -30.7180   21.1400 C   0  0  0  0  0  2  0  0  0  0  0  0
  -26.0470  -29.3770   20.4240 C   0  0  0  0  0  0  0  0  0  0  0  0
  -27.2540  -28.6150   20.3990 C   0  0  0  0  0  3  0  0  0  0  0  0
  -26.1310  -26.9110   19.0910 C   0  0  0  0  0  3  0  0  0  0  0  0
  -24.9440  -27.6640   19.1120 C   0  0  0  0  0  3  0  0  0  0  0  0
  -23.6440  -29.7350   19.8470 C   0  0  0  0  0  2  0  0  0  0  0  0
  -24.6300  -30.9210   21.8520 N   0  0  0  0  0  0  0  0  0  0  0  0
  -23.4290  -31.8910   23.5170 O   0  0  0  0  0  0  0  0  0  0  0  0
  -22.7320  -29.2500   22.1480 C   0  0  0  0  0  0  0  0  0  0  0  0
  -21.3980  -29.1110   22.0480 N   0  0  0  0  0  0  0  0  0  0  0  0
  -23.4200  -28.5440   22.8890 O   0  0  0  0  0  0  0  0  0  0  0  0
  -20.9000  -29.7390   21.4320 H   0  0  0  0  0  0  0  0  0  0  0  0
  -18.0050  -27.9830   22.5900 C   0  0  0  0  0  0  0  0  0  0  0  0
  -20.5800  -28.1300   22.7640 C   0  0  0  0  0  3  0  0  0  0  0  0
  -20.6020  -26.7570   22.0500 C   0  0  0  0  0  2  0  0  0  0  0  0
  -19.4470  -26.5700   21.0630 C   0  0  0  0  0  2  0  0  0  0  0  0
  -18.1010  -26.7010   21.7820 C   0  0  0  0  0  2  0  0  0  0  0  0
  -19.1700  -28.6620   23.0370 C   0  0  0  0  0  0  0  0  0  0  0  0
  -19.0240  -29.8700   23.7550 C   0  0  0  0  0  3  0  0  0  0  0  0
  -17.7480  -30.3960   24.0290 C   0  0  0  0  0  3  0  0  0  0  0  0
  -16.5980  -29.7120   23.5980 C   0  0  0  0  0  3  0  0  0  0  0  0
  -16.7270  -28.5060   22.8830 C   0  0  0  0  0  3  0  0  0  0  0  0
  -25.7830  -32.2950   23.6700 C   0  0  0  0  0  3  0  0  0  0  0  0
  -26.2720  -31.4890   24.9360 C   0  0  1  0  0  0  0  0  0  0  0  0
  -25.1550  -31.2280   25.9730 C   0  0  0  0  0  1  0  0  0  0  0  0
  -26.8610  -30.1220   24.5210 C   0  0  0  0  0  1  0  0  0  0  0  0
  -27.4060  -32.2650   25.6450 C   0  0  0  0  0  1  0  0  0  0  0  0
  -25.4480  -33.6780   24.0340 N   0  0  0  0  0  0  0  0  0  0  0  0
  -25.7930  -34.7590   23.3220 C   0  0  0  0  0  0  0  0  0  0  0  0
  -26.4980  -34.6960   22.3100 O   0  0  0  0  0  0  0  0  0  0  0  0
  -24.8300  -33.8020   24.8220 H   0  0  0  0  0  0  0  0  0  0  0  0
  -24.0680  -36.5510   22.9590 C   0  0  0  0  0  1  0  0  0  0  0  0
  -25.2770  -36.1250   23.8080 C   0  0  0  0  0  3  0  0  0  0  0  0
  -27.3580  -37.0030   24.7720 C   0  0  0  0  0  1  0  0  0  0  0  0
  -26.3050  -37.1890   23.7770 N   0  0  0  0  0  0  0  0  0  0  0  0
  -25.8820  -38.1000   23.9290 H   0  0  0  0  0  0  0  0  0  0  0  0
  1  2  2  0
  1  4  1  0
  2  5  1  0
  3  6  1  0
  3 46  1  0
  4  3  2  0
  5 16  1  0
  5  6  2  0
  6  7  1  0
  8 14  1  0
  8 16  1  0
  9 14  1  0
 10 11  1  0
 10  9  1  0
 12 11  1  0
 12 21  1  0
 12 13  1  0
 14 13  1  0
 15  8  2  0
 16 17  1  0
 18 19  2  0
 19 38  1  0
 20 19  1  0
 20 23  1  0
 21 22  1  0
 21 18  1  0
 22 20  2  0
 23 24  1  0
 24 25  2  0
 26 29  1  0
 26 25  1  0
 27 26  2  0
 28 27  1  0
 28 23  2  0
 29 30  1  0
 30 31  1  0
 31 32  2  0
 33 32  1  0
 33 37  1  0
 34 33  2  0
 35 30  2  0
 35 34  1  0
 36 35  1  0
 38 39  1  0
 39 42  1  0
 39 41  1  0
 40 38  2  0
 43 18  1  0
 43 44  1  0
 45 43  1  0
 47 46  2  0
 48 47  1  0
 49  4  1  0
 50 52  2  0
 51 49  1  0
 51 50  1  0
 53 51  1  0
 54 50  1  0
 54 55  1  0
 56 67  2  0
 57 55  1  0
 57 62  1  0
 58 66  1  0
 58 68  1  0
 59 65  1  0
 59 61  1  0
 60 66  1  0
 61 60  1  0
 62 61  2  0
 63 64  1  0
 63 57  2  0
 64 59  2  0
 65 58  1  0
 66 56  1  0
 68 70  2  0
 69 68  1  0
 71 69  1  0
 72 81  2  0
 72 77  1  0
 73 69  1  0
 73 77  1  0
 74 73  1  0
 75 76  1  0
 75 74  1  0
 76 72  1  0
 77 78  2  0
 78 79  1  0
 80 79  2  0
 81 80  1  0
 82 56  1  0
 82 87  1  0
 82 83  1  0
 83 86  1  1
 83 84  1  0
 85 83  1  0
 87 90  1  0
 88 92  1  0
 88 87  1  0
 89 88  2  0
 92 91  1  0
 94 92  1  0
 94 95  1  0
 94 93  1  0
M  ISO  4   8 100  16 100  54 101  55 101
M  END
>  <TORSDO>  (73) 
F 20

>  <SCORE>  (73) 
-12.908

>  <name>  (73) 
72

>  <ligand_id>  (73) 
72

>  <original_smiles>  (73) 
[H]N=C([H])c1c(Cl)c(N([H])C(=O)N2C([H])([H])C([H])([H])C([H])([H])C([H])(n3nc(-c4c([H])c([H])c(Oc5c([H])c([H])c(F)c([H])c5F)c([H])c4[H])c(C(=O)N([H])[H])c3N([H])[H])C2([H])[H])c([H])c([H])c1C([H])([H])N([H])C(=O)C([H])([H])Oc1c([H])c([H])c2c(c1[H])C([H])([H])N(C(=O)C([H])(N([H])C(=O)C([H])(N([H])C([H])([H])[H])C([H])([H])[H])C(C([H])([H])[H])(C([H])([H])[H])C([H])([H])[H])C([H])(C(=O)N([H])C1([H])c3c([H])c([H])c([H])c([H])c3C([H])([H])C([H])([H])C1([H])[H])C2([H])[H]

>  <smiles>  (73) 
[H]N=C([H])c1c(Cl)c(N([H])C(=O)N2C([H])([H])C([H])([H])C([H])([H])C([H])(n3nc(-c4c([H])c([H])c(Oc5c([H])c([H])c(F)c([H])c5F)c([H])c4[H])c(C(=O)N([H])[H])c3N([H])[H])C2([H])[H])c([H])c([H])c1C([H])([H])N([H])C(=O)C([H])([H])Oc1c([H])c([H])c2c(c1[H])C([H])([H])N(C(=O)C([H])(N([H])C(=O)C([H])(N([H])C([H])([H])[H])C([H])([H])[H])C(C([H])([H])[H])(C([H])([H])[H])C([H])([H])[H])C([H])(C(=O)N([H])C1([H])c3c([H])c([H])c([H])c([H])c3C([H])([H])C([H])([H])C1([H])[H])C2([H])[H]

$$$$
73:0:0
     RDKit          3D

 98107  0  0  1  0  0  0  0  0999 V2000
  -29.3180  -22.7960   18.3650 C   0  0  0  0  0  0  0  0  0  0  0  0
  -29.2160  -21.7060   17.5810 C   0  0  0  0  0  2  0  0  0  0  0  0
  -28.9100  -25.3440   18.2470 C   0  0  0  0  0  2  0  0  0  0  0  0
  -28.2680  -24.0490   20.3190 C   0  0  0  0  0  2  0  0  0  0  0  0
  -29.8110  -24.1620   17.8400 C   0  0  0  0  0  3  0  0  0  0  0  0
  -28.8310  -25.4070   19.7640 C   0  0  0  0  0  3  0  0  0  0  0  0
  -30.0600  -24.1990   16.3180 C   0  0  0  0  0  1  0  0  0  0  0  0
  -29.0500  -22.8100   19.8760 N   0  0  1  0  0  4  0  0  0  0  0  0
  -29.9580  -22.9260   20.3020 H   0  0  0  0  0  0  0  0  0  0  0  0
  -28.4820  -26.7370   20.2770 O   0  0  0  0  0  0  0  0  0  0  0  0
  -24.6340  -31.9070   23.2950 C   0  0  0  0  0  0  0  0  0  0  0  0
  -27.2860  -27.4450   20.1740 C   0  0  0  0  0  0  0  0  0  0  0  0
  -23.4290  -30.5220   21.6340 C   0  0  0  0  0  3  0  0  0  0  0  0
  -24.8850  -28.9880   20.1850 C   0  0  0  0  0  0  0  0  0  0  0  0
  -25.9560  -30.8700   21.4420 C   0  0  0  0  0  2  0  0  0  0  0  0
  -26.0410  -29.5000   20.7830 C   0  0  0  0  0  0  0  0  0  0  0  0
  -27.2340  -28.7360   20.7710 C   0  0  0  0  0  3  0  0  0  0  0  0
  -26.1120  -26.9590   19.5560 C   0  0  0  0  0  3  0  0  0  0  0  0
  -24.9210  -27.7230   19.5640 C   0  0  0  0  0  3  0  0  0  0  0  0
  -23.6400  -29.8500   20.2470 C   0  0  0  0  0  2  0  0  0  0  0  0
  -24.6920  -31.1170   22.1820 N   0  0  0  0  0  0  0  0  0  0  0  0
  -23.5530  -32.1740   23.8390 O   0  0  0  0  0  0  0  0  0  0  0  0
  -22.7730  -29.4980   22.5880 C   0  0  0  0  0  0  0  0  0  0  0  0
  -21.4500  -29.3080   22.4500 N   0  0  0  0  0  0  0  0  0  0  0  0
  -23.4520  -28.8760   23.4080 O   0  0  0  0  0  0  0  0  0  0  0  0
  -20.9630  -29.8610   21.7590 H   0  0  0  0  0  0  0  0  0  0  0  0
  -18.0820  -28.0780   22.9120 C   0  0  0  0  0  0  0  0  0  0  0  0
  -20.6350  -28.3580   23.2060 C   0  0  0  0  0  3  0  0  0  0  0  0
  -20.7550  -26.9320   22.6200 C   0  0  0  0  0  2  0  0  0  0  0  0
  -19.6640  -26.6070   21.5940 C   0  0  0  0  0  2  0  0  0  0  0  0
  -18.2760  -26.7350   22.2280 C   0  0  0  0  0  2  0  0  0  0  0  0
  -19.1900  -28.8460   23.3570 C   0  0  0  0  0  0  0  0  0  0  0  0
  -18.9540  -30.1020   23.9580 C   0  0  0  0  0  3  0  0  0  0  0  0
  -17.6450  -30.5910   24.1150 C   0  0  0  0  0  3  0  0  0  0  0  0
  -16.5510  -29.8190   23.6880 C   0  0  0  0  0  3  0  0  0  0  0  0
  -16.7690  -28.5640   23.0920 C   0  0  0  0  0  3  0  0  0  0  0  0
  -25.9190  -32.5320   23.9240 C   0  0  0  0  0  3  0  0  0  0  0  0
  -25.6260  -33.9400   24.2270 N   0  0  0  0  0  0  0  0  0  0  0  0
  -25.9780  -34.9750   23.4520 C   0  0  0  0  0  0  0  0  0  0  0  0
  -26.6530  -34.8430   22.4270 O   0  0  0  0  0  0  0  0  0  0  0  0
  -25.0260  -34.1150   25.0200 H   0  0  0  0  0  0  0  0  0  0  0  0
  -24.2910  -36.7950   23.0370 C   0  0  0  0  0  1  0  0  0  0  0  0
  -25.5060  -36.3780   23.8800 C   0  0  0  0  0  3  0  0  0  0  0  0
  -27.6340  -37.2440   24.7500 C   0  0  0  0  0  1  0  0  0  0  0  0
  -26.5590  -37.4110   23.7740 N   0  0  0  0  0  0  0  0  0  0  0  0
  -26.1650  -38.3410   23.8900 H   0  0  0  0  0  0  0  0  0  0  0  0
  -26.4090  -31.7750   25.2200 C   0  0  1  0  0  0  0  0  0  0  0  0
  -25.3000  -31.5670   26.2770 C   0  0  0  0  0  1  0  0  0  0  0  0
  -26.9800  -30.3840   24.8580 C   0  0  0  0  0  1  0  0  0  0  0  0
  -27.5610  -32.5650   25.8860 C   0  0  0  0  0  1  0  0  0  0  0  0
  -28.5220  -21.5570   20.5840 C   0  0  0  0  0  2  0  0  0  0  0  0
  -30.4950  -18.1670   21.1740 C   0  0  0  0  0  3  0  0  0  0  0  0
  -30.1890  -19.5660   21.1170 C   0  0  0  0  0  0  0  0  0  0  0  0
  -29.0600  -20.0700   20.3920 C   0  0  0  0  0  0  0  0  0  0  0  0
  -28.3120  -19.0890   19.6610 C   0  0  0  0  0  0  0  0  0  0  0  0
  -29.7270  -17.1980   20.4830 C   0  0  0  0  0  0  0  0  0  0  0  0
  -28.6790  -17.7070   19.6690 C   0  0  0  0  0  0  0  0  0  0  0  0
  -31.0590  -20.5050   21.9390 C   0  0  0  0  0  1  0  0  0  0  0  0
  -27.0390  -19.4570   18.8860 C   0  0  0  0  0  1  0  0  0  0  0  0
  -27.7970  -16.6150   18.6590 Cl  0  0  0  0  0  0  0  0  0  0  0  0
  -30.6880  -14.7700   20.5210 C   0  0  0  0  0  0  0  0  0  0  0  0
  -30.5980  -12.5070   19.5000 C   0  0  0  0  0  2  0  0  0  0  0  0
  -29.6730  -12.6140   18.2660 C   0  0  0  0  0  2  0  0  0  0  0  0
  -28.1910  -12.4250   18.6580 C   0  0  0  0  0  2  0  0  0  0  0  0
  -27.7920  -13.2640   19.9000 C   0  0  0  0  0  3  0  0  0  0  0  0
  -28.8320  -13.1320   21.0330 C   0  0  0  0  0  2  0  0  0  0  0  0
  -30.1420  -13.5130   20.4760 N   0  0  0  0  0  0  0  0  0  0  0  0
  -31.8590  -14.9800   20.1910 O   0  0  0  0  0  0  0  0  0  0  0  0
  -29.7850  -15.7650   20.7790 N   0  0  0  0  0  0  0  0  0  0  0  0
  -28.8770  -15.3720   20.9700 H   0  0  0  0  0  0  0  0  0  0  0  0
  -25.3800  -13.8670   20.5640 C   0  0  0  0  0  0  0  0  0  0  0  0
  -24.3100  -13.0880   20.9100 C   0  0  0  0  0  0  0  0  0  0  0  0
  -24.7800  -11.7400   20.8820 C   0  0  0  0  0  0  0  0  0  0  0  0
  -26.4330  -12.9880   20.3480 N   0  0  0  0  0  0  0  0  0  0  0  0
  -26.0750  -11.7060   20.6000 N   0  0  0  0  0  0  0  0  0  0  0  0
  -24.0610  -10.4730   21.0520 C   0  0  0  0  0  0  0  0  0  0  0  0
  -24.4660   -9.5220   22.0150 C   0  0  0  0  0  3  0  0  0  0  0  0
  -23.7480   -8.3170   22.1720 C   0  0  0  0  0  3  0  0  0  0  0  0
  -22.6130   -8.0570   21.3660 C   0  0  0  0  0  0  0  0  0  0  0  0
  -22.2300   -8.9980   20.3940 C   0  0  0  0  0  3  0  0  0  0  0  0
  -22.9470  -10.1950   20.2350 C   0  0  0  0  0  3  0  0  0  0  0  0
  -21.8700   -6.9050   21.4320 O   0  0  0  0  0  0  0  0  0  0  0  0
  -21.7480   -6.1930   22.5990 C   0  0  0  0  0  0  0  0  0  0  0  0
  -21.1780   -6.7590   23.7600 C   0  0  0  0  0  3  0  0  0  0  0  0
  -21.0100   -5.9710   24.9170 C   0  0  0  0  0  3  0  0  0  0  0  0
  -21.3990   -4.6180   24.9090 C   0  0  0  0  0  0  0  0  0  0  0  0
  -21.9600   -4.0520   23.7510 C   0  0  0  0  0  3  0  0  0  0  0  0
  -22.1310   -4.8370   22.5990 C   0  0  0  0  0  0  0  0  0  0  0  0
  -22.6540   -4.2800   21.4790 F   0  0  0  0  0  0  0  0  0  0  0  0
  -21.2290   -3.8580   26.0170 F   0  0  0  0  0  0  0  0  0  0  0  0
  -22.9040  -13.5570   21.1510 C   0  0  0  0  0  0  0  0  0  0  0  0
  -22.1570  -12.8510   21.9910 N   0  0  0  0  0  0  0  0  0  0  0  0
  -22.4740  -14.5840   20.6280 O   0  0  0  0  0  0  0  0  0  0  0  0
  -22.5150  -12.0190   22.4380 H   0  0  0  0  0  0  0  0  0  0  0  0
  -21.2130  -13.1480   22.1940 H   0  0  0  0  0  0  0  0  0  0  0  0
  -25.5360  -15.2380   20.3960 N   0  0  0  0  0  0  0  0  0  0  0  0
  -24.7450  -15.8670   20.4780 H   0  0  0  0  0  0  0  0  0  0  0  0
  -26.3290  -15.6640   19.9310 H   0  0  0  0  0  0  0  0  0  0  0  0
  1  8  1  0
  2  1  2  0
  3  6  1  0
  5  7  1  0
  5  3  1  0
  5  1  1  0
  6 10  1  0
  6  4  1  0
  8  9  1  1
  8  4  1  0
  8 51  1  0
 11 22  2  0
 12 10  1  0
 12 17  1  0
 13 21  1  0
 13 23  1  0
 14 20  1  0
 14 16  1  0
 15 21  1  0
 16 15  1  0
 17 16  2  0
 18 19  1  0
 18 12  2  0
 19 14  2  0
 20 13  1  0
 21 11  1  0
 23 25  2  0
 24 23  1  0
 26 24  1  0
 27 36  2  0
 27 32  1  0
 28 24  1  0
 28 32  1  0
 29 28  1  0
 30 31  1  0
 30 29  1  0
 31 27  1  0
 32 33  2  0
 33 34  1  0
 35 34  2  0
 36 35  1  0
 37 11  1  0
 37 38  1  0
 37 47  1  0
 38 41  1  0
 39 43  1  0
 39 38  1  0
 40 39  2  0
 43 42  1  0
 45 43  1  0
 45 46  1  0
 45 44  1  0
 47 50  1  1
 47 48  1  0
 49 47  1  0
 53 52  1  0
 53 58  1  0
 54 51  1  0
 54 53  2  0
 55 57  2  0
 55 54  1  0
 56 69  1  0
 56 52  2  0
 57 56  1  0
 59 55  1  0
 60 57  1  0
 61 69  1  0
 62 67  1  0
 63 64  1  0
 63 62  1  0
 65 64  1  0
 65 74  1  0
 65 66  1  0
 67 61  1  0
 67 66  1  0
 68 61  2  0
 69 70  1  0
 71 72  2  0
 72 91  1  0
 73 72  1  0
 73 76  1  0
 74 71  1  0
 74 75  1  0
 75 73  2  0
 76 77  1  0
 77 78  2  0
 79 82  1  0
 79 78  1  0
 80 79  2  0
 81 80  1  0
 81 76  2  0
 82 83  1  0
 83 84  1  0
 84 85  2  0
 86 85  1  0
 86 90  1  0
 87 86  2  0
 88 83  2  0
 88 87  1  0
 89 88  1  0
 91 92  1  0
 92 95  1  0
 92 94  1  0
 93 91  2  0
 96 97  1  0
 96 71  1  0
 98 96  1  0
M  ISO  4   6 101  10 101  61 100  69 100
M  END
>  <TORSDO>  (74) 
F 18

>  <SCORE>  (74) 
-15.107

>  <name>  (74) 
73

>  <ligand_id>  (74) 
73

>  <original_smiles>  (74) 
[H]C([H])=C1C([H])(C([H])([H])[H])C([H])([H])C([H])(Oc2c([H])c([H])c3c(c2[H])C([H])([H])N(C(=O)C([H])(N([H])C(=O)C([H])(N([H])C([H])([H])[H])C([H])([H])[H])C(C([H])([H])[H])(C([H])([H])[H])C([H])([H])[H])C([H])(C(=O)N([H])C2([H])c4c([H])c([H])c([H])c([H])c4C([H])([H])C([H])([H])C2([H])[H])C3([H])[H])C([H])([H])[N+]1([H])C([H])([H])c1c(C([H])([H])[H])c([H])c(N([H])C(=O)N2C([H])([H])C([H])([H])C([H])([H])C([H])(n3nc(-c4c([H])c([H])c(Oc5c([H])c([H])c(F)c([H])c5F)c([H])c4[H])c(C(=O)N([H])[H])c3N([H])[H])C2([H])[H])c(Cl)c1C([H])([H])[H]

>  <smiles>  (74) 
[H]C([H])=C1C([H])(C([H])([H])[H])C([H])([H])C([H])(Oc2c([H])c([H])c3c(c2[H])C([H])([H])N(C(=O)C([H])(N([H])C(=O)C([H])(N([H])C([H])([H])[H])C([H])([H])[H])C(C([H])([H])[H])(C([H])([H])[H])C([H])([H])[H])C([H])(C(=O)N([H])C2([H])c4c([H])c([H])c([H])c([H])c4C([H])([H])C([H])([H])C2([H])[H])C3([H])[H])C([H])([H])[N+]1([H])C([H])([H])c1c(C([H])([H])[H])c([H])c(N([H])C(=O)N2C([H])([H])C([H])([H])C([H])([H])C([H])(n3nc(-c4c([H])c([H])c(Oc5c([H])c([H])c(F)c([H])c5F)c([H])c4[H])c(C(=O)N([H])[H])c3N([H])[H])C2([H])[H])c(Cl)c1C([H])([H])[H]

$$$$
74:0:0
     RDKit          3D

 98107  0  0  1  0  0  0  0  0999 V2000
  -30.6060  -22.0150   20.4280 C   0  0  0  0  0  2  0  0  0  0  0  0
  -28.1040  -22.5700   20.5140 C   0  0  0  0  0  0  0  0  0  0  0  0
  -27.3980  -21.5950   19.9170 C   0  0  0  0  0  2  0  0  0  0  0  0
  -27.6000  -23.4560   21.6490 C   0  0  0  0  0  2  0  0  0  0  0  0
  -27.6060  -24.9680   21.3300 C   0  0  0  0  0  2  0  0  0  0  0  0
  -29.8050  -24.4270   20.2180 C   0  0  0  0  0  2  0  0  0  0  0  0
  -28.5550  -25.3910   20.1770 C   0  0  0  0  0  3  0  0  0  0  0  0
  -29.4740  -22.9490   20.0330 N   0  0  1  0  0  4  0  0  0  0  0  0
  -29.4370  -22.8400   19.0300 H   0  0  0  0  0  0  0  0  0  0  0  0
  -28.7930  -26.8610   20.2170 O   0  0  0  0  0  0  0  0  0  0  0  0
  -24.7060  -31.8470   23.3850 C   0  0  0  0  0  0  0  0  0  0  0  0
  -27.6680  -27.6920   20.1130 C   0  0  0  0  0  0  0  0  0  0  0  0
  -23.6460  -30.5300   21.5860 C   0  0  0  0  0  3  0  0  0  0  0  0
  -25.2360  -29.1860   20.1070 C   0  0  0  0  0  0  0  0  0  0  0  0
  -26.1710  -30.9890   21.5520 C   0  0  0  0  0  2  0  0  0  0  0  0
  -26.3500  -29.6780   20.7990 C   0  0  0  0  0  0  0  0  0  0  0  0
  -27.5710  -28.9420   20.7960 C   0  0  0  0  0  3  0  0  0  0  0  0
  -26.5420  -27.2800   19.3620 C   0  0  0  0  0  3  0  0  0  0  0  0
  -25.3360  -27.9950   19.3740 C   0  0  0  0  0  3  0  0  0  0  0  0
  -23.9550  -29.9900   20.1670 C   0  0  0  0  0  2  0  0  0  0  0  0
  -24.8570  -31.1330   22.2340 N   0  0  0  0  0  0  0  0  0  0  0  0
  -23.5880  -32.0320   23.8870 O   0  0  0  0  0  0  0  0  0  0  0  0
  -22.9990  -29.4020   22.4240 C   0  0  0  0  0  0  0  0  0  0  0  0
  -21.6890  -29.1810   22.2330 N   0  0  0  0  0  0  0  0  0  0  0  0
  -23.6790  -28.7360   23.2110 O   0  0  0  0  0  0  0  0  0  0  0  0
  -21.2030  -29.7760   21.5750 H   0  0  0  0  0  0  0  0  0  0  0  0
  -18.3440  -27.8310   22.5220 C   0  0  0  0  0  0  0  0  0  0  0  0
  -20.8840  -28.1490   22.8910 C   0  0  0  0  0  3  0  0  0  0  0  0
  -21.0550  -26.7830   22.1880 C   0  0  0  0  0  2  0  0  0  0  0  0
  -19.9910  -26.5200   21.1160 C   0  0  0  0  0  2  0  0  0  0  0  0
  -18.5880  -26.5550   21.7330 C   0  0  0  0  0  2  0  0  0  0  0  0
  -19.4230  -28.5890   23.0510 C   0  0  0  0  0  0  0  0  0  0  0  0
  -19.1430  -29.7870   23.7420 C   0  0  0  0  0  3  0  0  0  0  0  0
  -17.8160  -30.2260   23.9120 C   0  0  0  0  0  3  0  0  0  0  0  0
  -16.7520  -29.4620   23.4000 C   0  0  0  0  0  3  0  0  0  0  0  0
  -17.0180  -28.2660   22.7100 C   0  0  0  0  0  3  0  0  0  0  0  0
  -25.9290  -32.4860   24.1130 C   0  0  0  0  0  3  0  0  0  0  0  0
  -26.3280  -31.7270   25.4370 C   0  0  1  0  0  0  0  0  0  0  0  0
  -25.1390  -31.4910   26.3970 C   0  0  0  0  0  1  0  0  0  0  0  0
  -26.9550  -30.3500   25.1130 C   0  0  0  0  0  1  0  0  0  0  0  0
  -27.4050  -32.5340   26.1970 C   0  0  0  0  0  1  0  0  0  0  0  0
  -25.5870  -33.8870   24.4000 N   0  0  0  0  0  0  0  0  0  0  0  0
  -25.9510  -34.9300   23.6460 C   0  0  0  0  0  0  0  0  0  0  0  0
  -26.6800  -34.8180   22.6560 O   0  0  0  0  0  0  0  0  0  0  0  0
  -24.9450  -34.0450   25.1630 H   0  0  0  0  0  0  0  0  0  0  0  0
  -24.2180  -36.6900   23.1750 C   0  0  0  0  0  1  0  0  0  0  0  0
  -25.4240  -36.3200   24.0510 C   0  0  0  0  0  3  0  0  0  0  0  0
  -27.5000  -37.2600   24.9660 C   0  0  0  0  0  1  0  0  0  0  0  0
  -26.4470  -37.3850   23.9630 N   0  0  0  0  0  0  0  0  0  0  0  0
  -26.0220  -38.3030   24.0640 H   0  0  0  0  0  0  0  0  0  0  0  0
  -30.0390  -19.6990   19.4030 C   0  0  0  0  0  3  0  0  0  0  0  0
  -30.0460  -18.2720   19.3660 C   0  0  0  0  0  3  0  0  0  0  0  0
  -30.7250  -18.2480   21.6660 C   0  0  0  0  0  3  0  0  0  0  0  0
  -30.4170  -20.4490   20.5560 C   0  0  0  0  0  0  0  0  0  0  0  0
  -30.7650  -19.6730   21.7140 C   0  0  0  0  0  0  0  0  0  0  0  0
  -30.4110  -17.5090   20.5020 C   0  0  0  0  0  0  0  0  0  0  0  0
  -31.1680  -15.0580   20.1040 C   0  0  0  0  0  0  0  0  0  0  0  0
  -30.9830  -12.7970   19.0910 C   0  0  0  0  0  2  0  0  0  0  0  0
  -30.0240  -12.8850   17.8830 C   0  0  0  0  0  2  0  0  0  0  0  0
  -28.5540  -12.7440   18.3240 C   0  0  0  0  0  2  0  0  0  0  0  0
  -28.2080  -13.6430   19.5370 C   0  0  0  0  0  3  0  0  0  0  0  0
  -29.2670  -13.4880   20.6520 C   0  0  0  0  0  2  0  0  0  0  0  0
  -30.5770  -13.8230   20.0680 N   0  0  0  0  0  0  0  0  0  0  0  0
  -32.2940  -15.2530   19.6380 O   0  0  0  0  0  0  0  0  0  0  0  0
  -30.3760  -16.0570   20.5950 N   0  0  0  0  0  0  0  0  0  0  0  0
  -29.5650  -15.6910   21.0660 H   0  0  0  0  0  0  0  0  0  0  0  0
  -25.8310  -14.2910   20.2820 C   0  0  0  0  0  0  0  0  0  0  0  0
  -24.7530  -13.5380   20.6650 C   0  0  0  0  0  0  0  0  0  0  0  0
  -25.1900  -12.1800   20.6280 C   0  0  0  0  0  0  0  0  0  0  0  0
  -26.8550  -13.3920   20.0330 N   0  0  0  0  0  0  0  0  0  0  0  0
  -26.4740  -12.1170   20.2980 N   0  0  0  0  0  0  0  0  0  0  0  0
  -24.4460  -10.9300   20.8260 C   0  0  0  0  0  0  0  0  0  0  0  0
  -24.8220   -9.9990   21.8180 C   0  0  0  0  0  3  0  0  0  0  0  0
  -24.0820   -8.8100   22.0000 C   0  0  0  0  0  3  0  0  0  0  0  0
  -22.9530   -8.5460   21.1900 C   0  0  0  0  0  0  0  0  0  0  0  0
  -22.5970   -9.4680   20.1890 C   0  0  0  0  0  3  0  0  0  0  0  0
  -23.3370  -10.6480   20.0060 C   0  0  0  0  0  3  0  0  0  0  0  0
  -22.1880   -7.4070   21.2790 O   0  0  0  0  0  0  0  0  0  0  0  0
  -21.9370   -6.8030   22.4840 C   0  0  0  0  0  0  0  0  0  0  0  0
  -21.3070   -7.4880   23.5460 C   0  0  0  0  0  3  0  0  0  0  0  0
  -21.0050   -6.8060   24.7420 C   0  0  0  0  0  3  0  0  0  0  0  0
  -21.3230   -5.4410   24.8770 C   0  0  0  0  0  0  0  0  0  0  0  0
  -21.9460   -4.7560   23.8170 C   0  0  0  0  0  3  0  0  0  0  0  0
  -22.2510   -5.4360   22.6240 C   0  0  0  0  0  0  0  0  0  0  0  0
  -22.8310   -4.7650   21.6000 F   0  0  0  0  0  0  0  0  0  0  0  0
  -21.0270   -4.7840   26.0220 F   0  0  0  0  0  0  0  0  0  0  0  0
  -23.3680  -14.0410   20.9600 C   0  0  0  0  0  0  0  0  0  0  0  0
  -22.6580  -13.3860   21.8720 N   0  0  0  0  0  0  0  0  0  0  0  0
  -22.9270  -15.0520   20.4150 O   0  0  0  0  0  0  0  0  0  0  0  0
  -23.0290  -12.5710   22.3350 H   0  0  0  0  0  0  0  0  0  0  0  0
  -21.7290  -13.7060   22.1110 H   0  0  0  0  0  0  0  0  0  0  0  0
  -26.0230  -15.6590   20.1030 N   0  0  0  0  0  0  0  0  0  0  0  0
  -25.2770  -16.3320   20.2300 H   0  0  0  0  0  0  0  0  0  0  0  0
  -26.8760  -16.0700   19.7420 H   0  0  0  0  0  0  0  0  0  0  0  0
  -31.2010  -20.2620   23.0610 C   0  0  1  0  0  0  0  0  0  0  0  0
  -32.1240  -19.4740   23.6140 F   0  0  0  0  0  0  0  0  0  0  0  0
  -31.7230  -21.4810   22.9930 F   0  0  0  0  0  0  0  0  0  0  0  0
  -30.1500  -20.3010   23.8770 F   0  0  0  0  0  0  0  0  0  0  0  0
  1 54  1  0
  2  4  1  0
  3  2  2  0
  5  4  1  0
  7 10  1  0
  7  6  1  0
  7  5  1  0
  8  6  1  0
  8  1  1  0
  8  2  1  0
  8  9  1  6
 11 22  2  0
 12 10  1  0
 12 17  1  0
 13 21  1  0
 13 23  1  0
 14 20  1  0
 14 16  1  0
 15 21  1  0
 16 15  1  0
 17 16  2  0
 18 19  1  0
 18 12  2  0
 19 14  2  0
 20 13  1  0
 21 11  1  0
 23 25  2  0
 24 23  1  0
 26 24  1  0
 27 36  2  0
 27 32  1  0
 28 24  1  0
 28 32  1  0
 29 28  1  0
 30 31  1  0
 30 29  1  0
 31 27  1  0
 32 33  2  0
 33 34  1  0
 35 34  2  0
 36 35  1  0
 37 11  1  0
 37 42  1  0
 37 38  1  0
 38 41  1  1
 38 39  1  0
 40 38  1  0
 42 45  1  0
 43 47  1  0
 43 42  1  0
 44 43  2  0
 47 46  1  0
 49 47  1  0
 49 50  1  0
 49 48  1  0
 51 54  1  0
 52 51  2  0
 52 56  1  0
 53 55  1  0
 54 55  2  0
 55 95  1  0
 56 65  1  0
 56 53  2  0
 57 65  1  0
 58 63  1  0
 59 60  1  0
 59 58  1  0
 61 60  1  0
 61 70  1  0
 61 62  1  0
 63 57  1  0
 63 62  1  0
 64 57  2  0
 65 66  1  0
 67 68  2  0
 68 87  1  0
 69 68  1  0
 69 72  1  0
 70 67  1  0
 70 71  1  0
 71 69  2  0
 72 73  1  0
 73 74  2  0
 75 78  1  0
 75 74  1  0
 76 75  2  0
 77 76  1  0
 77 72  2  0
 78 79  1  0
 79 84  2  0
 79 80  1  0
 80 81  2  0
 81 82  1  0
 82 86  1  0
 83 82  2  0
 84 83  1  0
 85 84  1  0
 87 88  1  0
 88 91  1  0
 88 90  1  0
 89 87  2  0
 92 93  1  0
 92 67  1  0
 94 92  1  0
 95 96  1  1
 95 98  1  0
 97 95  1  0
M  ISO  4   7 101  10 101  57 100  65 100
M  END
>  <TORSDO>  (75) 
F 19

>  <SCORE>  (75) 
-13.392

>  <name>  (75) 
74

>  <ligand_id>  (75) 
74

>  <original_smiles>  (75) 
[H]C([H])=C1C([H])([H])C([H])([H])C([H])(Oc2c([H])c([H])c3c(c2[H])C([H])([H])N(C(=O)C([H])(N([H])C(=O)C([H])(N([H])C([H])([H])[H])C([H])([H])[H])C(C([H])([H])[H])(C([H])([H])[H])C([H])([H])[H])C([H])(C(=O)N([H])C2([H])c4c([H])c([H])c([H])c([H])c4C([H])([H])C([H])([H])C2([H])[H])C3([H])[H])C([H])([H])[N+]1([H])C([H])([H])c1c([H])c([H])c(N([H])C(=O)N2C([H])([H])C([H])([H])C([H])([H])C([H])(n3nc(-c4c([H])c([H])c(Oc5c([H])c([H])c(F)c([H])c5F)c([H])c4[H])c(C(=O)N([H])[H])c3N([H])[H])C2([H])[H])c([H])c1C(F)(F)F

>  <smiles>  (75) 
[H]C([H])=C1C([H])([H])C([H])([H])C([H])(Oc2c([H])c([H])c3c(c2[H])C([H])([H])N(C(=O)C([H])(N([H])C(=O)C([H])(N([H])C([H])([H])[H])C([H])([H])[H])C(C([H])([H])[H])(C([H])([H])[H])C([H])([H])[H])C([H])(C(=O)N([H])C2([H])c4c([H])c([H])c([H])c([H])c4C([H])([H])C([H])([H])C2([H])[H])C3([H])[H])C([H])([H])[N+]1([H])C([H])([H])c1c([H])c([H])c(N([H])C(=O)N2C([H])([H])C([H])([H])C([H])([H])C([H])(n3nc(-c4c([H])c([H])c(Oc5c([H])c([H])c(F)c([H])c5F)c([H])c4[H])c(C(=O)N([H])[H])c3N([H])[H])C2([H])[H])c([H])c1C(F)(F)F

$$$$
75:0:0
     RDKit          3D

 95104  0  0  1  0  0  0  0  0999 V2000
  -28.0890  -22.3870   19.1430 C   0  0  0  0  0  0  0  0  0  0  0  0
  -26.9670  -21.7350   19.4900 C   0  0  0  0  0  2  0  0  0  0  0  0
  -28.2620  -23.2280   17.8800 C   0  0  0  0  0  2  0  0  0  0  0  0
  -28.6250  -24.7060   18.1970 C   0  0  0  0  0  2  0  0  0  0  0  0
  -29.2020  -24.0860   20.5800 C   0  0  0  0  0  2  0  0  0  0  0  0
  -28.3480  -25.0790   19.6660 C   0  0  0  0  0  3  0  0  0  0  0  0
  -29.2280  -22.6420   20.0740 N   0  0  1  0  0  4  0  0  0  0  0  0
  -30.0510  -22.6290   19.4900 H   0  0  0  0  0  0  0  0  0  0  0  0
  -28.4620  -26.5540   19.8140 O   0  0  0  0  0  0  0  0  0  0  0  0
  -24.6790  -31.7120   23.0660 C   0  0  0  0  0  0  0  0  0  0  0  0
  -27.3100  -27.3640   19.7590 C   0  0  0  0  0  0  0  0  0  0  0  0
  -23.4550  -30.3380   21.4190 C   0  0  0  0  0  3  0  0  0  0  0  0
  -24.8970  -28.9000   19.8710 C   0  0  0  0  0  0  0  0  0  0  0  0
  -25.9740  -30.7470   21.1540 C   0  0  0  0  0  2  0  0  0  0  0  0
  -26.0690  -29.4020   20.4490 C   0  0  0  0  0  0  0  0  0  0  0  0
  -27.2770  -28.6490   20.3840 C   0  0  0  0  0  3  0  0  0  0  0  0
  -26.1230  -26.9330   19.1250 C   0  0  0  0  0  3  0  0  0  0  0  0
  -24.9280  -27.6750   19.1890 C   0  0  0  0  0  3  0  0  0  0  0  0
  -23.6330  -29.7270   20.0050 C   0  0  0  0  0  2  0  0  0  0  0  0
  -24.7240  -30.9470   21.9360 N   0  0  0  0  0  0  0  0  0  0  0  0
  -23.6090  -31.9310   23.6520 O   0  0  0  0  0  0  0  0  0  0  0  0
  -22.8660  -29.2610   22.3620 C   0  0  0  0  0  0  0  0  0  0  0  0
  -21.5500  -29.0120   22.2430 N   0  0  0  0  0  0  0  0  0  0  0  0
  -23.5900  -28.6570   23.1600 O   0  0  0  0  0  0  0  0  0  0  0  0
  -21.0250  -29.5510   21.5670 H   0  0  0  0  0  0  0  0  0  0  0  0
  -18.2570  -27.5910   22.7150 C   0  0  0  0  0  0  0  0  0  0  0  0
  -20.7920  -28.0160   23.0020 C   0  0  0  0  0  3  0  0  0  0  0  0
  -20.9930  -26.6020   22.4140 C   0  0  0  0  0  2  0  0  0  0  0  0
  -19.9190  -26.2150   21.3900 C   0  0  0  0  0  2  0  0  0  0  0  0
  -18.5260  -26.2620   22.0280 C   0  0  0  0  0  2  0  0  0  0  0  0
  -19.3220  -28.4210   23.1580 C   0  0  0  0  0  0  0  0  0  0  0  0
  -19.0170  -29.6600   23.7600 C   0  0  0  0  0  3  0  0  0  0  0  0
  -17.6810  -30.0730   23.9270 C   0  0  0  0  0  3  0  0  0  0  0  0
  -16.6310  -29.2400   23.5030 C   0  0  0  0  0  3  0  0  0  0  0  0
  -16.9200  -28.0010   22.9010 C   0  0  0  0  0  3  0  0  0  0  0  0
  -25.9660  -32.3590   23.6610 C   0  0  0  0  0  3  0  0  0  0  0  0
  -25.6290  -33.7390   24.0430 N   0  0  0  0  0  0  0  0  0  0  0  0
  -25.9020  -34.8220   23.3060 C   0  0  0  0  0  0  0  0  0  0  0  0
  -26.5330  -34.7670   22.2470 O   0  0  0  0  0  0  0  0  0  0  0  0
  -25.0620  -33.8510   24.8700 H   0  0  0  0  0  0  0  0  0  0  0  0
  -24.1010  -36.5630   23.0880 C   0  0  0  0  0  1  0  0  0  0  0  0
  -25.3950  -36.1810   23.8250 C   0  0  0  0  0  3  0  0  0  0  0  0
  -27.5400  -37.1160   24.5720 C   0  0  0  0  0  1  0  0  0  0  0  0
  -26.3850  -37.2710   23.6880 N   0  0  0  0  0  0  0  0  0  0  0  0
  -25.9610  -38.1740   23.8750 H   0  0  0  0  0  0  0  0  0  0  0  0
  -26.5440  -31.5680   24.8970 C   0  0  1  0  0  0  0  0  0  0  0  0
  -25.4940  -31.2750   25.9940 C   0  0  0  0  0  1  0  0  0  0  0  0
  -27.1490  -30.2170   24.4510 C   0  0  0  0  0  1  0  0  0  0  0  0
  -27.6990  -32.3730   25.5400 C   0  0  0  0  0  1  0  0  0  0  0  0
  -29.5680  -21.5660   21.0940 C   0  0  0  0  0  2  0  0  0  0  0  0
  -31.0660  -19.4480   20.6280 C   0  0  0  0  0  3  0  0  0  0  0  0
  -31.2600  -18.0330   20.4960 C   0  0  0  0  0  3  0  0  0  0  0  0
  -28.8800  -17.7390   20.4080 C   0  0  0  0  0  3  0  0  0  0  0  0
  -29.7710  -20.0450   20.6970 C   0  0  0  0  0  0  0  0  0  0  0  0
  -30.1630  -17.1390   20.3940 C   0  0  0  0  0  0  0  0  0  0  0  0
  -28.6790  -19.1330   20.5940 C   0  0  0  0  0  0  0  0  0  0  0  0
  -27.0370  -19.6320   20.8080 Cl  0  0  0  0  0  0  0  0  0  0  0  0
  -30.9560  -14.7260   19.7210 C   0  0  0  0  0  0  0  0  0  0  0  0
  -30.6110  -12.5550   18.5330 C   0  0  0  0  0  2  0  0  0  0  0  0
  -29.5450  -12.7410   17.4290 C   0  0  0  0  0  2  0  0  0  0  0  0
  -28.1100  -12.6300   17.9850 C   0  0  0  0  0  2  0  0  0  0  0  0
  -27.9090  -13.4690   19.2730 C   0  0  0  0  0  3  0  0  0  0  0  0
  -29.0500  -13.1680   20.2750 C   0  0  0  0  0  2  0  0  0  0  0  0
  -30.3220  -13.5160   19.6130 N   0  0  0  0  0  0  0  0  0  0  0  0
  -32.0510  -14.9430   19.1850 O   0  0  0  0  0  0  0  0  0  0  0  0
  -30.2060  -15.6780   20.3570 N   0  0  0  0  0  0  0  0  0  0  0  0
  -29.4000  -15.2460   20.7780 H   0  0  0  0  0  0  0  0  0  0  0  0
  -25.6350  -14.1700   20.2410 C   0  0  0  0  0  0  0  0  0  0  0  0
  -24.5620  -13.4410   20.6750 C   0  0  0  0  0  0  0  0  0  0  0  0
  -24.9400  -12.0710   20.5540 C   0  0  0  0  0  0  0  0  0  0  0  0
  -26.5970  -13.2440   19.8700 N   0  0  0  0  0  0  0  0  0  0  0  0
  -26.1890  -11.9730   20.1230 N   0  0  0  0  0  0  0  0  0  0  0  0
  -24.1660  -10.8410   20.7580 C   0  0  0  0  0  0  0  0  0  0  0  0
  -24.5920   -9.8430   21.6600 C   0  0  0  0  0  3  0  0  0  0  0  0
  -23.8180   -8.6770   21.8520 C   0  0  0  0  0  3  0  0  0  0  0  0
  -22.6060   -8.5030   21.1430 C   0  0  0  0  0  0  0  0  0  0  0  0
  -22.2010   -9.4920   20.2320 C   0  0  0  0  0  3  0  0  0  0  0  0
  -22.9720  -10.6490   20.0350 C   0  0  0  0  0  3  0  0  0  0  0  0
  -21.8010   -7.3940   21.2480 O   0  0  0  0  0  0  0  0  0  0  0  0
  -21.7030   -6.6880   22.4190 C   0  0  0  0  0  0  0  0  0  0  0  0
  -21.2860   -7.3000   23.6220 C   0  0  0  0  0  3  0  0  0  0  0  0
  -21.1340   -6.5240   24.7880 C   0  0  0  0  0  3  0  0  0  0  0  0
  -21.3830   -5.1380   24.7500 C   0  0  0  0  0  0  0  0  0  0  0  0
  -21.7920   -4.5280   23.5530 C   0  0  0  0  0  3  0  0  0  0  0  0
  -21.9470   -5.3020   22.3880 C   0  0  0  0  0  0  0  0  0  0  0  0
  -22.3230   -4.7070   21.2280 F   0  0  0  0  0  0  0  0  0  0  0  0
  -21.2280   -4.3880   25.8680 F   0  0  0  0  0  0  0  0  0  0  0  0
  -23.2270  -13.9800   21.0950 C   0  0  0  0  0  0  0  0  0  0  0  0
  -22.5630  -13.3010   22.0220 N   0  0  0  0  0  0  0  0  0  0  0  0
  -22.7950  -15.0390   20.6460 O   0  0  0  0  0  0  0  0  0  0  0  0
  -22.9350  -12.4400   22.3970 H   0  0  0  0  0  0  0  0  0  0  0  0
  -21.6690  -13.6390   22.3550 H   0  0  0  0  0  0  0  0  0  0  0  0
  -25.8550  -15.5330   20.0950 N   0  0  0  0  0  0  0  0  0  0  0  0
  -25.1030  -16.2030   20.2290 H   0  0  0  0  0  0  0  0  0  0  0  0
  -26.6350  -15.9010   19.5700 H   0  0  0  0  0  0  0  0  0  0  0  0
  1  2  2  0
  1  7  1  0
  3  4  1  0
  3  1  1  0
  4  6  1  0
  6  9  1  0
  6  5  1  0
  7  5  1  0
  7 50  1  0
  7  8  1  6
 10 21  2  0
 11  9  1  0
 11 16  1  0
 12 20  1  0
 12 22  1  0
 13 19  1  0
 13 15  1  0
 14 20  1  0
 15 14  1  0
 16 15  2  0
 17 18  1  0
 17 11  2  0
 18 13  2  0
 19 12  1  0
 20 10  1  0
 22 24  2  0
 23 22  1  0
 25 23  1  0
 26 35  2  0
 26 31  1  0
 27 23  1  0
 27 31  1  0
 28 27  1  0
 29 30  1  0
 29 28  1  0
 30 26  1  0
 31 32  2  0
 32 33  1  0
 34 33  2  0
 35 34  1  0
 36 10  1  0
 36 37  1  0
 36 46  1  0
 37 40  1  0
 38 42  1  0
 38 37  1  0
 39 38  2  0
 42 41  1  0
 44 42  1  0
 44 45  1  0
 44 43  1  0
 46 49  1  1
 46 47  1  0
 48 46  1  0
 51 54  1  0
 52 51  2  0
 53 56  1  0
 54 50  1  0
 55 53  2  0
 55 52  1  0
 56 54  2  0
 56 57  1  0
 58 66  1  0
 59 64  1  0
 60 61  1  0
 60 59  1  0
 62 61  1  0
 62 71  1  0
 62 63  1  0
 64 58  1  0
 64 63  1  0
 65 58  2  0
 66 55  1  0
 66 67  1  0
 68 69  2  0
 69 88  1  0
 70 69  1  0
 70 73  1  0
 71 72  1  0
 71 68  1  0
 72 70  2  0
 73 74  1  0
 74 75  2  0
 76 79  1  0
 76 75  1  0
 77 76  2  0
 78 77  1  0
 78 73  2  0
 79 80  1  0
 80 81  1  0
 81 82  2  0
 83 82  1  0
 83 87  1  0
 84 83  2  0
 85 80  2  0
 85 84  1  0
 86 85  1  0
 88 89  1  0
 89 92  1  0
 89 91  1  0
 90 88  2  0
 93 94  1  0
 93 68  1  0
 95 93  1  0
M  ISO  4   6 101   9 101  58 100  66 100
M  END
>  <TORSDO>  (76) 
F 18

>  <SCORE>  (76) 
-12.288

>  <name>  (76) 
75

>  <ligand_id>  (76) 
75

>  <original_smiles>  (76) 
[H]C([H])=C1C([H])([H])C([H])([H])C([H])(Oc2c([H])c([H])c3c(c2[H])C([H])([H])N(C(=O)C([H])(N([H])C(=O)C([H])(N([H])C([H])([H])[H])C([H])([H])[H])C(C([H])([H])[H])(C([H])([H])[H])C([H])([H])[H])C([H])(C(=O)N([H])C2([H])c4c([H])c([H])c([H])c([H])c4C([H])([H])C([H])([H])C2([H])[H])C3([H])[H])C([H])([H])[N+]1([H])C([H])([H])c1c([H])c([H])c(N([H])C(=O)N2C([H])([H])C([H])([H])C([H])([H])C([H])(n3nc(-c4c([H])c([H])c(Oc5c([H])c([H])c(F)c([H])c5F)c([H])c4[H])c(C(=O)N([H])[H])c3N([H])[H])C2([H])[H])c([H])c1Cl

>  <smiles>  (76) 
[H]C([H])=C1C([H])([H])C([H])([H])C([H])(Oc2c([H])c([H])c3c(c2[H])C([H])([H])N(C(=O)C([H])(N([H])C(=O)C([H])(N([H])C([H])([H])[H])C([H])([H])[H])C(C([H])([H])[H])(C([H])([H])[H])C([H])([H])[H])C([H])(C(=O)N([H])C2([H])c4c([H])c([H])c([H])c([H])c4C([H])([H])C([H])([H])C2([H])[H])C3([H])[H])C([H])([H])[N+]1([H])C([H])([H])c1c([H])c([H])c(N([H])C(=O)N2C([H])([H])C([H])([H])C([H])([H])C([H])(n3nc(-c4c([H])c([H])c(Oc5c([H])c([H])c(F)c([H])c5F)c([H])c4[H])c(C(=O)N([H])[H])c3N([H])[H])C2([H])[H])c([H])c1Cl

$$$$
76:0:0
     RDKit          3D

 95103  0  0  1  0  0  0  0  0999 V2000
  -28.7650  -21.9570   19.5360 C   0  0  0  0  0  0  0  0  0  0  0  0
  -30.0980  -20.6240   21.1790 C   0  0  0  0  0  1  0  0  0  0  0  0
  -29.3770  -20.7980   19.9040 N   0  0  0  0  0  0  0  0  0  0  0  0
  -28.1930  -22.0790   18.4470 O   0  0  0  0  0  0  0  0  0  0  0  0
  -28.8460  -23.0550   20.4910 C   0  0  0  0  0  3  0  0  0  0  0  0
  -28.1000  -24.1570   20.3050 C   0  0  0  0  0  3  0  0  0  0  0  0
  -28.1150  -25.3680   21.2060 C   0  0  0  0  0  2  0  0  0  0  0  0
  -28.2980  -26.5630   20.4520 O   0  0  0  0  0  0  0  0  0  0  0  0
  -24.5440  -31.8550   23.2670 C   0  0  0  0  0  0  0  0  0  0  0  0
  -27.1550  -27.3110   20.3690 C   0  0  0  0  0  0  0  0  0  0  0  0
  -23.3380  -30.4330   21.6390 C   0  0  0  0  0  3  0  0  0  0  0  0
  -24.7870  -28.8310   20.2870 C   0  0  0  0  0  0  0  0  0  0  0  0
  -25.8690  -30.7450   21.4810 C   0  0  0  0  0  2  0  0  0  0  0  0
  -25.9400  -29.3590   20.8810 C   0  0  0  0  0  0  0  0  0  0  0  0
  -27.1300  -28.6060   20.9190 C   0  0  0  0  0  3  0  0  0  0  0  0
  -25.9940  -26.7880   19.7610 C   0  0  0  0  0  3  0  0  0  0  0  0
  -24.8070  -27.5440   19.7220 C   0  0  0  0  0  3  0  0  0  0  0  0
  -23.5580  -29.7100   20.2830 C   0  0  0  0  0  2  0  0  0  0  0  0
  -24.6000  -31.0250   22.1890 N   0  0  0  0  0  0  0  0  0  0  0  0
  -23.4590  -32.1630   23.7780 O   0  0  0  0  0  0  0  0  0  0  0  0
  -22.6490  -29.4490   22.6120 C   0  0  0  0  0  0  0  0  0  0  0  0
  -21.3230  -29.2990   22.4690 N   0  0  0  0  0  0  0  0  0  0  0  0
  -23.3030  -28.8280   23.4530 O   0  0  0  0  0  0  0  0  0  0  0  0
  -20.8570  -29.8510   21.7630 H   0  0  0  0  0  0  0  0  0  0  0  0
  -17.9060  -28.2450   22.9650 C   0  0  0  0  0  0  0  0  0  0  0  0
  -20.4700  -28.4030   23.2480 C   0  0  0  0  0  3  0  0  0  0  0  0
  -20.5190  -26.9630   22.6890 C   0  0  0  0  0  2  0  0  0  0  0  0
  -19.4100  -26.6710   21.6740 C   0  0  0  0  0  2  0  0  0  0  0  0
  -18.0310  -26.8800   22.3080 C   0  0  0  0  0  2  0  0  0  0  0  0
  -19.0510  -28.9680   23.3910 C   0  0  0  0  0  0  0  0  0  0  0  0
  -18.8790  -30.2480   23.9610 C   0  0  0  0  0  3  0  0  0  0  0  0
  -17.5940  -30.8040   24.1120 C   0  0  0  0  0  3  0  0  0  0  0  0
  -16.4630  -30.0780   23.7020 C   0  0  0  0  0  3  0  0  0  0  0  0
  -16.6190  -28.8010   23.1340 C   0  0  0  0  0  3  0  0  0  0  0  0
  -25.8330  -32.4720   23.8970 C   0  0  0  0  0  3  0  0  0  0  0  0
  -26.3250  -31.7040   25.1840 C   0  0  1  0  0  0  0  0  0  0  0  0
  -25.2120  -31.4620   26.2290 C   0  0  0  0  0  1  0  0  0  0  0  0
  -26.9240  -30.3290   24.8010 C   0  0  0  0  0  1  0  0  0  0  0  0
  -27.4570  -32.5050   25.8730 C   0  0  0  0  0  1  0  0  0  0  0  0
  -25.5390  -33.8770   24.2100 N   0  0  0  0  0  0  0  0  0  0  0  0
  -25.8850  -34.9150   23.4360 C   0  0  0  0  0  0  0  0  0  0  0  0
  -26.5520  -34.7910   22.4060 O   0  0  0  0  0  0  0  0  0  0  0  0
  -24.9500  -34.0490   25.0110 H   0  0  0  0  0  0  0  0  0  0  0  0
  -24.1740  -36.7170   23.0500 C   0  0  0  0  0  1  0  0  0  0  0  0
  -25.4090  -36.3130   23.8740 C   0  0  0  0  0  3  0  0  0  0  0  0
  -27.5520  -37.1860   24.6950 C   0  0  0  0  0  1  0  0  0  0  0  0
  -26.4510  -37.3550   23.7490 N   0  0  0  0  0  0  0  0  0  0  0  0
  -26.0540  -38.2820   23.8840 H   0  0  0  0  0  0  0  0  0  0  0  0
  -29.4050  -19.6650   18.9520 C   0  0  0  0  0  2  0  0  0  0  0  0
  -28.4680  -15.7800   20.6920 C   0  0  0  0  0  3  0  0  0  0  0  0
  -27.4450  -16.6890   20.3820 C   0  0  0  0  0  3  0  0  0  0  0  0
  -29.0890  -18.2860   19.5380 C   0  0  0  0  0  0  0  0  0  0  0  0
  -29.8110  -16.0940   20.4020 C   0  0  0  0  0  0  0  0  0  0  0  0
  -27.7440  -17.9270   19.7900 C   0  0  0  0  0  0  0  0  0  0  0  0
  -30.1250  -17.3730   19.8640 C   0  0  0  0  0  0  0  0  0  0  0  0
  -26.4390  -18.9970   19.4100 Cl  0  0  0  0  0  0  0  0  0  0  0  0
  -31.7800  -17.8480   19.6660 Cl  0  0  0  0  0  0  0  0  0  0  0  0
  -31.2400  -14.1400   20.0640 C   0  0  0  0  0  0  0  0  0  0  0  0
  -30.8820  -11.8260   19.2930 C   0  0  0  0  0  2  0  0  0  0  0  0
  -29.9540  -11.7720   18.0670 C   0  0  0  0  0  2  0  0  0  0  0  0
  -28.4740  -11.7310   18.5010 C   0  0  0  0  0  2  0  0  0  0  0  0
  -28.1300  -12.8090   19.5610 C   0  0  0  0  0  3  0  0  0  0  0  0
  -29.1760  -12.8070   20.7000 C   0  0  0  0  0  2  0  0  0  0  0  0
  -30.5030  -12.9970   20.0970 N   0  0  0  0  0  0  0  0  0  0  0  0
  -32.3020  -14.2240   19.4410 O   0  0  0  0  0  0  0  0  0  0  0  0
  -30.8330  -15.1880   20.7980 N   0  0  0  0  0  0  0  0  0  0  0  0
  -31.6690  -15.7120   21.0150 H   0  0  0  0  0  0  0  0  0  0  0  0
  -25.7840  -13.5890   20.2790 C   0  0  0  0  0  0  0  0  0  0  0  0
  -24.6770  -12.9020   20.6980 C   0  0  0  0  0  0  0  0  0  0  0  0
  -25.0460  -11.5220   20.6930 C   0  0  0  0  0  0  0  0  0  0  0  0
  -26.7700  -12.6360   20.0700 N   0  0  0  0  0  0  0  0  0  0  0  0
  -26.3270  -11.3870   20.3680 N   0  0  0  0  0  0  0  0  0  0  0  0
  -24.2370  -10.3190   20.9230 C   0  0  0  0  0  0  0  0  0  0  0  0
  -24.6070   -9.3550   21.8850 C   0  0  0  0  0  3  0  0  0  0  0  0
  -23.8060   -8.2140   22.1020 C   0  0  0  0  0  3  0  0  0  0  0  0
  -22.6160   -8.0300   21.3580 C   0  0  0  0  0  0  0  0  0  0  0  0
  -22.2610   -8.9840   20.3870 C   0  0  0  0  0  3  0  0  0  0  0  0
  -23.0640  -10.1160   20.1680 C   0  0  0  0  0  3  0  0  0  0  0  0
  -21.7870   -6.9430   21.4840 O   0  0  0  0  0  0  0  0  0  0  0  0
  -21.6810   -6.2520   22.6640 C   0  0  0  0  0  0  0  0  0  0  0  0
  -21.2820   -6.8810   23.8640 C   0  0  0  0  0  3  0  0  0  0  0  0
  -21.1200   -6.1180   25.0360 C   0  0  0  0  0  3  0  0  0  0  0  0
  -21.3460   -4.7290   25.0130 C   0  0  0  0  0  0  0  0  0  0  0  0
  -21.7400   -4.1020   23.8180 C   0  0  0  0  0  3  0  0  0  0  0  0
  -21.9040   -4.8610   22.6470 C   0  0  0  0  0  0  0  0  0  0  0  0
  -22.2630   -4.2470   21.4930 F   0  0  0  0  0  0  0  0  0  0  0  0
  -21.1840   -3.9940   26.1380 F   0  0  0  0  0  0  0  0  0  0  0  0
  -23.3220  -13.4810   20.9850 C   0  0  0  0  0  0  0  0  0  0  0  0
  -22.5730  -12.8660   21.8940 N   0  0  0  0  0  0  0  0  0  0  0  0
  -22.9430  -14.5200   20.4460 O   0  0  0  0  0  0  0  0  0  0  0  0
  -22.8960  -12.0270   22.3570 H   0  0  0  0  0  0  0  0  0  0  0  0
  -21.6650  -13.2350   22.1360 H   0  0  0  0  0  0  0  0  0  0  0  0
  -26.0190  -14.9340   20.0290 N   0  0  0  0  0  0  0  0  0  0  0  0
  -25.2710  -15.6150   20.0660 H   0  0  0  0  0  0  0  0  0  0  0  0
  -26.8710  -15.2970   19.6250 H   0  0  0  0  0  0  0  0  0  0  0  0
  1  3  1  0
  1  5  1  0
  3  2  1  0
  4  1  2  0
  6  5  2  0
  6  7  1  0
  8  7  1  0
  9 20  2  0
 10  8  1  0
 10 15  1  0
 11 19  1  0
 11 21  1  0
 12 14  1  0
 13 19  1  0
 14 15  2  0
 14 13  1  0
 16 10  2  0
 17 16  1  0
 17 12  2  0
 18 12  1  0
 18 11  1  0
 19  9  1  0
 21 23  2  0
 22 21  1  0
 24 22  1  0
 25 34  2  0
 25 30  1  0
 26 22  1  0
 26 30  1  0
 27 26  1  0
 28 29  1  0
 28 27  1  0
 29 25  1  0
 30 31  2  0
 31 32  1  0
 33 32  2  0
 34 33  1  0
 35  9  1  0
 35 40  1  0
 35 36  1  0
 36 39  1  1
 36 37  1  0
 38 36  1  0
 40 43  1  0
 41 45  1  0
 41 40  1  0
 42 41  2  0
 45 44  1  0
 47 45  1  0
 47 48  1  0
 47 46  1  0
 49 52  1  0
 49  3  1  0
 51 50  2  0
 52 54  2  0
 52 55  1  0
 53 50  1  0
 53 66  1  0
 54 51  1  0
 55 53  2  0
 56 54  1  0
 57 55  1  0
 58 64  1  0
 58 66  1  0
 59 64  1  0
 60 61  1  0
 60 59  1  0
 62 61  1  0
 62 71  1  0
 62 63  1  0
 64 63  1  0
 65 58  2  0
 66 67  1  0
 68 69  2  0
 69 88  1  0
 70 69  1  0
 70 73  1  0
 71 68  1  0
 71 72  1  0
 72 70  2  0
 73 74  1  0
 74 75  2  0
 76 79  1  0
 76 75  1  0
 77 76  2  0
 78 77  1  0
 78 73  2  0
 79 80  1  0
 80 81  1  0
 81 82  2  0
 83 82  1  0
 83 87  1  0
 84 83  2  0
 85 80  2  0
 85 84  1  0
 86 85  1  0
 88 89  1  0
 89 92  1  0
 89 91  1  0
 90 88  2  0
 93 94  1  0
 93 68  1  0
 95 93  1  0
M  ISO  4   7 101   8 101  58 100  66 100
M  END
>  <TORSDO>  (77) 
F 20

>  <SCORE>  (77) 
-13.520

>  <name>  (77) 
76

>  <ligand_id>  (77) 
76

>  <original_smiles>  (77) 
[H]C(C(=O)N(C([H])([H])[H])C([H])([H])c1c(Cl)c([H])c([H])c(N([H])C(=O)N2C([H])([H])C([H])([H])C([H])([H])C([H])(n3nc(-c4c([H])c([H])c(Oc5c([H])c([H])c(F)c([H])c5F)c([H])c4[H])c(C(=O)N([H])[H])c3N([H])[H])C2([H])[H])c1Cl)=C([H])C([H])([H])Oc1c([H])c([H])c2c(c1[H])C([H])([H])N(C(=O)C([H])(N([H])C(=O)C([H])(N([H])C([H])([H])[H])C([H])([H])[H])C(C([H])([H])[H])(C([H])([H])[H])C([H])([H])[H])C([H])(C(=O)N([H])C1([H])c3c([H])c([H])c([H])c([H])c3C([H])([H])C([H])([H])C1([H])[H])C2([H])[H]

>  <smiles>  (77) 
[H]C(C(=O)N(C([H])([H])[H])C([H])([H])c1c(Cl)c([H])c([H])c(N([H])C(=O)N2C([H])([H])C([H])([H])C([H])([H])C([H])(n3nc(-c4c([H])c([H])c(Oc5c([H])c([H])c(F)c([H])c5F)c([H])c4[H])c(C(=O)N([H])[H])c3N([H])[H])C2([H])[H])c1Cl)=C([H])C([H])([H])Oc1c([H])c([H])c2c(c1[H])C([H])([H])N(C(=O)C([H])(N([H])C(=O)C([H])(N([H])C([H])([H])[H])C([H])([H])[H])C(C([H])([H])[H])(C([H])([H])[H])C([H])([H])[H])C([H])(C(=O)N([H])C1([H])c3c([H])c([H])c([H])c([H])c3C([H])([H])C([H])([H])C1([H])[H])C2([H])[H]

$$$$
77:0:0
     RDKit          3D

 98107  0  0  1  0  0  0  0  0999 V2000
  -29.5790  -21.4920   19.6220 C   0  0  0  0  0  2  0  0  0  0  0  0
  -30.3680  -23.8660   20.2190 C   0  0  0  0  0  0  0  0  0  0  0  0
  -31.5270  -24.1800   20.8250 C   0  0  0  0  0  2  0  0  0  0  0  0
  -29.6640  -24.7200   19.1520 C   0  0  0  0  0  2  0  0  0  0  0  0
  -27.4530  -24.0270   20.1990 C   0  0  0  0  0  2  0  0  0  0  0  0
  -28.2610  -23.0750   21.1410 C   0  0  0  0  0  2  0  0  0  0  0  0
  -28.2220  -25.1920   19.4890 C   0  0  0  0  0  3  0  0  0  0  0  0
  -29.5880  -22.6390   20.6130 N   0  0  1  0  0  4  0  0  0  0  0  0
  -30.0530  -22.2450   21.4190 H   0  0  0  0  0  0  0  0  0  0  0  0
  -28.1870  -26.5350   20.0840 O   0  0  0  0  0  0  0  0  0  0  0  0
  -24.5050  -31.8750   23.1380 C   0  0  0  0  0  0  0  0  0  0  0  0
  -27.0380  -27.3320   20.0280 C   0  0  0  0  0  0  0  0  0  0  0  0
  -23.2550  -30.4760   21.5300 C   0  0  0  0  0  3  0  0  0  0  0  0
  -24.6650  -28.9230   20.0710 C   0  0  0  0  0  0  0  0  0  0  0  0
  -25.7860  -30.7960   21.2810 C   0  0  0  0  0  2  0  0  0  0  0  0
  -25.8440  -29.4160   20.6400 C   0  0  0  0  0  0  0  0  0  0  0  0
  -27.0280  -28.6290   20.6190 C   0  0  0  0  0  3  0  0  0  0  0  0
  -25.8360  -26.8860   19.4270 C   0  0  0  0  0  3  0  0  0  0  0  0
  -24.6610  -27.6590   19.4580 C   0  0  0  0  0  3  0  0  0  0  0  0
  -23.4290  -29.7950   20.1460 C   0  0  0  0  0  2  0  0  0  0  0  0
  -24.5350  -31.0650   22.0400 N   0  0  0  0  0  0  0  0  0  0  0  0
  -23.4380  -32.1580   23.6990 O   0  0  0  0  0  0  0  0  0  0  0  0
  -22.6140  -29.4650   22.5090 C   0  0  0  0  0  0  0  0  0  0  0  0
  -21.2870  -29.2780   22.3990 N   0  0  0  0  0  0  0  0  0  0  0  0
  -23.3070  -28.8510   23.3250 O   0  0  0  0  0  0  0  0  0  0  0  0
  -20.7890  -29.8220   21.7090 H   0  0  0  0  0  0  0  0  0  0  0  0
  -17.9200  -28.0880   22.9590 C   0  0  0  0  0  0  0  0  0  0  0  0
  -20.4820  -28.3450   23.1880 C   0  0  0  0  0  3  0  0  0  0  0  0
  -20.5740  -26.9120   22.6170 C   0  0  0  0  0  2  0  0  0  0  0  0
  -19.4560  -26.5840   21.6230 C   0  0  0  0  0  2  0  0  0  0  0  0
  -18.0840  -26.7350   22.2880 C   0  0  0  0  0  2  0  0  0  0  0  0
  -19.0460  -28.8520   23.3660 C   0  0  0  0  0  0  0  0  0  0  0  0
  -18.8370  -30.1180   23.9530 C   0  0  0  0  0  3  0  0  0  0  0  0
  -17.5340  -30.6220   24.1380 C   0  0  0  0  0  3  0  0  0  0  0  0
  -16.4230  -29.8540   23.7470 C   0  0  0  0  0  3  0  0  0  0  0  0
  -16.6170  -28.5890   23.1630 C   0  0  0  0  0  3  0  0  0  0  0  0
  -25.8080  -32.5000   23.7260 C   0  0  0  0  0  3  0  0  0  0  0  0
  -26.3620  -31.7160   24.9780 C   0  0  1  0  0  0  0  0  0  0  0  0
  -25.3010  -31.4590   26.0730 C   0  0  0  0  0  1  0  0  0  0  0  0
  -26.9400  -30.3460   24.5520 C   0  0  0  0  0  1  0  0  0  0  0  0
  -27.5280  -32.5070   25.6180 C   0  0  0  0  0  1  0  0  0  0  0  0
  -25.5110  -33.8950   24.0790 N   0  0  0  0  0  0  0  0  0  0  0  0
  -25.8490  -34.9560   23.3350 C   0  0  0  0  0  0  0  0  0  0  0  0
  -26.5140  -34.8650   22.2990 O   0  0  0  0  0  0  0  0  0  0  0  0
  -24.9250  -34.0410   24.8870 H   0  0  0  0  0  0  0  0  0  0  0  0
  -24.1650  -36.7900   22.9770 C   0  0  0  0  0  1  0  0  0  0  0  0
  -25.3720  -36.3400   23.8160 C   0  0  0  0  0  3  0  0  0  0  0  0
  -27.4850  -37.1710   24.7510 C   0  0  0  0  0  1  0  0  0  0  0  0
  -26.4250  -37.3780   23.7670 N   0  0  0  0  0  0  0  0  0  0  0  0
  -26.0280  -38.3000   23.9200 H   0  0  0  0  0  0  0  0  0  0  0  0
  -28.6000  -19.2190   20.3850 C   0  0  0  0  0  3  0  0  0  0  0  0
  -28.6720  -17.8130   20.5770 C   0  0  0  0  0  3  0  0  0  0  0  0
  -31.0540  -17.8780   20.2490 C   0  0  0  0  0  3  0  0  0  0  0  0
  -29.7490  -20.0000   20.0990 C   0  0  0  0  0  0  0  0  0  0  0  0
  -31.0020  -19.2980   20.0730 C   0  0  0  0  0  0  0  0  0  0  0  0
  -29.8910  -17.0970   20.4760 C   0  0  0  0  0  0  0  0  0  0  0  0
  -30.6220  -14.6410   20.1070 C   0  0  0  0  0  0  0  0  0  0  0  0
  -30.3580  -12.4390   18.9860 C   0  0  0  0  0  2  0  0  0  0  0  0
  -29.3460  -12.6010   17.8280 C   0  0  0  0  0  2  0  0  0  0  0  0
  -27.8980  -12.4300   18.3300 C   0  0  0  0  0  2  0  0  0  0  0  0
  -27.6070  -13.2650   19.6050 C   0  0  0  0  0  3  0  0  0  0  0  0
  -28.7220  -13.0670   20.6590 C   0  0  0  0  0  2  0  0  0  0  0  0
  -30.0050  -13.4210   20.0300 N   0  0  0  0  0  0  0  0  0  0  0  0
  -31.7390  -14.8340   19.6200 O   0  0  0  0  0  0  0  0  0  0  0  0
  -29.8540  -15.6460   20.6230 N   0  0  0  0  0  0  0  0  0  0  0  0
  -28.9920  -15.2920   21.0060 H   0  0  0  0  0  0  0  0  0  0  0  0
  -25.2570  -13.8560   20.4650 C   0  0  0  0  0  0  0  0  0  0  0  0
  -24.2080  -13.0770   20.8740 C   0  0  0  0  0  0  0  0  0  0  0  0
  -24.6590  -11.7260   20.7770 C   0  0  0  0  0  0  0  0  0  0  0  0
  -26.2830  -12.9780   20.1500 N   0  0  0  0  0  0  0  0  0  0  0  0
  -25.9300  -11.6910   20.3940 N   0  0  0  0  0  0  0  0  0  0  0  0
  -23.9370  -10.4600   20.9690 C   0  0  0  0  0  0  0  0  0  0  0  0
  -24.3710   -9.4990   21.9070 C   0  0  0  0  0  3  0  0  0  0  0  0
  -23.6510   -8.2980   22.0890 C   0  0  0  0  0  3  0  0  0  0  0  0
  -22.4830   -8.0510   21.3300 C   0  0  0  0  0  0  0  0  0  0  0  0
  -22.0660   -9.0010   20.3810 C   0  0  0  0  0  3  0  0  0  0  0  0
  -22.7870  -10.1940   20.1990 C   0  0  0  0  0  3  0  0  0  0  0  0
  -21.7340   -6.9020   21.4200 O   0  0  0  0  0  0  0  0  0  0  0  0
  -21.6370   -6.1950   22.5920 C   0  0  0  0  0  0  0  0  0  0  0  0
  -21.0690   -6.7570   23.7560 C   0  0  0  0  0  3  0  0  0  0  0  0
  -20.9260   -5.9720   24.9180 C   0  0  0  0  0  3  0  0  0  0  0  0
  -21.3420   -4.6270   24.9160 C   0  0  0  0  0  0  0  0  0  0  0  0
  -21.9040   -4.0650   23.7560 C   0  0  0  0  0  3  0  0  0  0  0  0
  -22.0480   -4.8460   22.5970 C   0  0  0  0  0  0  0  0  0  0  0  0
  -22.5700   -4.2940   21.4760 F   0  0  0  0  0  0  0  0  0  0  0  0
  -21.1970   -3.8710   26.0290 F   0  0  0  0  0  0  0  0  0  0  0  0
  -22.8290  -13.5510   21.2380 C   0  0  0  0  0  0  0  0  0  0  0  0
  -22.1430  -12.8260   22.1130 N   0  0  0  0  0  0  0  0  0  0  0  0
  -22.3730  -14.5970   20.7800 O   0  0  0  0  0  0  0  0  0  0  0  0
  -22.5260  -11.9800   22.5060 H   0  0  0  0  0  0  0  0  0  0  0  0
  -21.2190  -13.1220   22.3970 H   0  0  0  0  0  0  0  0  0  0  0  0
  -25.4180  -15.2300   20.3160 N   0  0  0  0  0  0  0  0  0  0  0  0
  -24.6510  -15.8760   20.4630 H   0  0  0  0  0  0  0  0  0  0  0  0
  -26.2280  -15.6640   19.8900 H   0  0  0  0  0  0  0  0  0  0  0  0
  -32.3140  -20.0310   19.7920 C   0  0  1  0  0  0  0  0  0  0  0  0
  -33.3750  -19.2910   20.1180 F   0  0  0  0  0  0  0  0  0  0  0  0
  -32.3910  -20.3280   18.4960 F   0  0  0  0  0  0  0  0  0  0  0  0
  -32.3850  -21.1600   20.4990 F   0  0  0  0  0  0  0  0  0  0  0  0
  1 54  1  0
  1  8  1  0
  2  8  1  0
  2  3  2  0
  4  7  1  0
  4  2  1  0
  5  6  1  0
  7 10  1  0
  7  5  1  0
  8  6  1  0
  8  9  1  1
 11 22  2  0
 12 10  1  0
 12 17  1  0
 13 21  1  0
 13 23  1  0
 14 20  1  0
 14 16  1  0
 15 21  1  0
 16 15  1  0
 17 16  2  0
 18 19  1  0
 18 12  2  0
 19 14  2  0
 20 13  1  0
 21 11  1  0
 23 25  2  0
 24 23  1  0
 26 24  1  0
 27 36  2  0
 27 32  1  0
 28 24  1  0
 28 32  1  0
 29 28  1  0
 30 31  1  0
 30 29  1  0
 31 27  1  0
 32 33  2  0
 33 34  1  0
 35 34  2  0
 36 35  1  0
 37 11  1  0
 37 42  1  0
 37 38  1  0
 38 41  1  1
 38 39  1  0
 40 38  1  0
 42 45  1  0
 43 47  1  0
 43 42  1  0
 44 43  2  0
 47 46  1  0
 49 47  1  0
 49 50  1  0
 49 48  1  0
 51 52  1  0
 53 56  1  0
 54 51  2  0
 55 54  1  0
 55 53  2  0
 56 52  2  0
 56 65  1  0
 57 65  1  0
 58 63  1  0
 59 60  1  0
 59 58  1  0
 61 60  1  0
 61 70  1  0
 61 62  1  0
 63 57  1  0
 63 62  1  0
 64 57  2  0
 65 66  1  0
 67 68  2  0
 68 87  1  0
 69 68  1  0
 69 72  1  0
 70 71  1  0
 70 67  1  0
 71 69  2  0
 72 73  1  0
 73 74  2  0
 75 78  1  0
 75 74  1  0
 76 75  2  0
 77 76  1  0
 77 72  2  0
 78 79  1  0
 79 84  2  0
 79 80  1  0
 80 81  2  0
 82 81  1  0
 82 86  1  0
 83 82  2  0
 84 83  1  0
 85 84  1  0
 87 88  1  0
 88 91  1  0
 88 90  1  0
 89 87  2  0
 92 93  1  0
 92 67  1  0
 94 92  1  0
 95 55  1  0
 95 96  1  1
 95 98  1  0
 97 95  1  0
M  ISO  4   7 101  10 101  57 100  65 100
M  END
>  <TORSDO>  (78) 
F 19

>  <SCORE>  (78) 
-14.434

>  <name>  (78) 
77

>  <ligand_id>  (78) 
77

>  <original_smiles>  (78) 
[H]C([H])=C1C([H])([H])C([H])(Oc2c([H])c([H])c3c(c2[H])C([H])([H])N(C(=O)C([H])(N([H])C(=O)C([H])(N([H])C([H])([H])[H])C([H])([H])[H])C(C([H])([H])[H])(C([H])([H])[H])C([H])([H])[H])C([H])(C(=O)N([H])C2([H])c4c([H])c([H])c([H])c([H])c4C([H])([H])C([H])([H])C2([H])[H])C3([H])[H])C([H])([H])C([H])([H])[N+]1([H])C([H])([H])c1c([H])c([H])c(N([H])C(=O)N2C([H])([H])C([H])([H])C([H])([H])C([H])(n3nc(-c4c([H])c([H])c(Oc5c([H])c([H])c(F)c([H])c5F)c([H])c4[H])c(C(=O)N([H])[H])c3N([H])[H])C2([H])[H])c([H])c1C(F)(F)F

>  <smiles>  (78) 
[H]C([H])=C1C([H])([H])C([H])(Oc2c([H])c([H])c3c(c2[H])C([H])([H])N(C(=O)C([H])(N([H])C(=O)C([H])(N([H])C([H])([H])[H])C([H])([H])[H])C(C([H])([H])[H])(C([H])([H])[H])C([H])([H])[H])C([H])(C(=O)N([H])C2([H])c4c([H])c([H])c([H])c([H])c4C([H])([H])C([H])([H])C2([H])[H])C3([H])[H])C([H])([H])C([H])([H])[N+]1([H])C([H])([H])c1c([H])c([H])c(N([H])C(=O)N2C([H])([H])C([H])([H])C([H])([H])C([H])(n3nc(-c4c([H])c([H])c(Oc5c([H])c([H])c(F)c([H])c5F)c([H])c4[H])c(C(=O)N([H])[H])c3N([H])[H])C2([H])[H])c([H])c1C(F)(F)F

$$$$
78:0:0
     RDKit          3D

 97106  0  0  1  0  0  0  0  0999 V2000
  -29.0620  -22.4030   19.3040 C   0  0  0  0  0  0  0  0  0  0  0  0
  -29.7770  -22.0360   18.2170 C   0  0  0  0  0  3  0  0  0  0  0  0
  -28.1580  -23.7400   19.2680 C   0  0  0  0  0  2  0  0  0  0  0  0
  -29.0780  -24.1870   21.5110 C   0  0  0  0  0  2  0  0  0  0  0  0
  -28.8380  -22.6190   21.7620 C   0  0  0  0  0  2  0  0  0  0  0  0
  -28.1290  -24.8340   20.4430 C   0  0  0  0  0  3  0  0  0  0  0  0
  -29.2960  -21.6800   20.6670 N   0  0  1  0  0  4  0  0  0  0  0  0
  -30.2970  -21.7440   20.7810 H   0  0  0  0  0  0  0  0  0  0  0  0
  -31.3220  -20.5770   16.9930 C   0  0  0  0  0  2  0  0  0  0  0  0
  -30.8160  -21.0200   18.1540 C   0  0  0  0  0  3  0  0  0  0  0  0
  -28.2760  -26.3610   20.1790 O   0  0  0  0  0  0  0  0  0  0  0  0
  -24.5940  -31.9390   23.2250 C   0  0  0  0  0  0  0  0  0  0  0  0
  -27.1820  -27.2920   20.1450 C   0  0  0  0  0  0  0  0  0  0  0  0
  -23.3910  -30.5700   21.5570 C   0  0  0  0  0  3  0  0  0  0  0  0
  -24.8410  -29.0120   20.1150 C   0  0  0  0  0  0  0  0  0  0  0  0
  -25.9420  -30.8450   21.3970 C   0  0  0  0  0  2  0  0  0  0  0  0
  -26.0160  -29.4630   20.7310 C   0  0  0  0  0  0  0  0  0  0  0  0
  -27.1860  -28.6210   20.7240 C   0  0  0  0  0  3  0  0  0  0  0  0
  -25.9840  -26.9300   19.4940 C   0  0  0  0  0  3  0  0  0  0  0  0
  -24.8390  -27.7600   19.4770 C   0  0  0  0  0  3  0  0  0  0  0  0
  -23.6090  -29.9010   20.1710 C   0  0  0  0  0  2  0  0  0  0  0  0
  -24.6610  -31.1400   22.1150 N   0  0  0  0  0  0  0  0  0  0  0  0
  -23.5080  -32.2140   23.7580 O   0  0  0  0  0  0  0  0  0  0  0  0
  -22.7110  -29.5540   22.5070 C   0  0  0  0  0  0  0  0  0  0  0  0
  -21.3800  -29.4000   22.3870 N   0  0  0  0  0  0  0  0  0  0  0  0
  -23.3830  -28.9020   23.3100 O   0  0  0  0  0  0  0  0  0  0  0  0
  -20.8960  -29.9770   21.7130 H   0  0  0  0  0  0  0  0  0  0  0  0
  -17.9900  -28.2360   22.8990 C   0  0  0  0  0  0  0  0  0  0  0  0
  -20.5550  -28.4550   23.1440 C   0  0  0  0  0  3  0  0  0  0  0  0
  -20.6300  -27.0350   22.5330 C   0  0  0  0  0  2  0  0  0  0  0  0
  -19.5130  -26.7530   21.5250 C   0  0  0  0  0  2  0  0  0  0  0  0
  -18.1400  -26.9020   22.1850 C   0  0  0  0  0  2  0  0  0  0  0  0
  -19.1230  -28.9720   23.3350 C   0  0  0  0  0  0  0  0  0  0  0  0
  -18.9300  -30.2200   23.9660 C   0  0  0  0  0  3  0  0  0  0  0  0
  -17.6330  -30.7330   24.1620 C   0  0  0  0  0  3  0  0  0  0  0  0
  -16.5140  -29.9950   23.7410 C   0  0  0  0  0  3  0  0  0  0  0  0
  -16.6920  -28.7470   23.1170 C   0  0  0  0  0  3  0  0  0  0  0  0
  -25.8740  -32.5590   23.8650 C   0  0  0  0  0  3  0  0  0  0  0  0
  -26.3990  -31.7500   25.1160 C   0  0  1  0  0  0  0  0  0  0  0  0
  -25.3110  -31.4760   26.1800 C   0  0  0  0  0  1  0  0  0  0  0  0
  -26.9840  -30.3870   24.6810 C   0  0  0  0  0  1  0  0  0  0  0  0
  -27.5510  -32.5250   25.7950 C   0  0  0  0  0  1  0  0  0  0  0  0
  -25.5570  -33.9420   24.2510 N   0  0  0  0  0  0  0  0  0  0  0  0
  -25.9080  -35.0300   23.5520 C   0  0  0  0  0  0  0  0  0  0  0  0
  -26.5980  -34.9740   22.5310 O   0  0  0  0  0  0  0  0  0  0  0  0
  -24.9500  -34.0620   25.0480 H   0  0  0  0  0  0  0  0  0  0  0  0
  -24.2030  -36.8550   23.2370 C   0  0  0  0  0  1  0  0  0  0  0  0
  -25.4150  -36.3970   24.0660 C   0  0  0  0  0  3  0  0  0  0  0  0
  -27.5280  -37.2170   25.0060 C   0  0  0  0  0  1  0  0  0  0  0  0
  -26.4550  -37.4480   24.0430 N   0  0  0  0  0  0  0  0  0  0  0  0
  -26.0490  -38.3600   24.2320 H   0  0  0  0  0  0  0  0  0  0  0  0
  -29.1480  -20.1090   20.9900 C   0  0  0  0  0  2  0  0  0  0  0  0
  -28.4040  -18.5380   17.6120 C   0  0  0  0  0  3  0  0  0  0  0  0
  -29.4250  -17.6120   17.4080 C   0  0  0  0  0  3  0  0  0  0  0  0
  -28.3420  -19.1960   18.8420 C   0  0  0  0  0  3  0  0  0  0  0  0
  -30.2200  -17.1720   18.4810 C   0  0  0  0  0  0  0  0  0  0  0  0
  -29.1880  -18.8710   19.9270 C   0  0  0  0  0  0  0  0  0  0  0  0
  -29.9160  -17.5400   19.8350 C   0  0  0  0  0  0  0  0  0  0  0  0
  -31.4050  -16.3160   18.0660 C   0  0  0  0  0  1  0  0  0  0  0  0
  -30.7330  -15.1330   20.8140 C   0  0  0  0  0  0  0  0  0  0  0  0
  -30.6900  -12.7370   19.9970 C   0  0  0  0  0  2  0  0  0  0  0  0
  -29.8730  -12.5970   18.6900 C   0  0  0  0  0  2  0  0  0  0  0  0
  -28.3850  -12.3940   19.0070 C   0  0  0  0  0  2  0  0  0  0  0  0
  -27.8660  -13.3780   20.0870 C   0  0  0  0  0  3  0  0  0  0  0  0
  -28.8140  -13.4870   21.3000 C   0  0  0  0  0  2  0  0  0  0  0  0
  -30.1310  -13.8760   20.7830 N   0  0  0  0  0  0  0  0  0  0  0  0
  -31.9620  -15.1500   20.6960 O   0  0  0  0  0  0  0  0  0  0  0  0
  -29.9880  -16.3530   20.8130 N   0  0  0  0  0  0  0  0  0  0  0  0
  -29.1220  -16.2400   21.3210 H   0  0  0  0  0  0  0  0  0  0  0  0
  -25.4290  -13.9310   20.6210 C   0  0  0  0  0  0  0  0  0  0  0  0
  -24.3500  -13.1440   20.9200 C   0  0  0  0  0  0  0  0  0  0  0  0
  -24.8380  -11.8020   20.9650 C   0  0  0  0  0  0  0  0  0  0  0  0
  -26.5010  -13.0670   20.4880 N   0  0  0  0  0  0  0  0  0  0  0  0
  -26.1500  -11.7830   20.7650 N   0  0  0  0  0  0  0  0  0  0  0  0
  -24.1200  -10.5310   21.1250 C   0  0  0  0  0  0  0  0  0  0  0  0
  -24.5010   -9.5830   22.1000 C   0  0  0  0  0  3  0  0  0  0  0  0
  -23.7810   -8.3790   22.2470 C   0  0  0  0  0  3  0  0  0  0  0  0
  -22.6660   -8.1130   21.4170 C   0  0  0  0  0  0  0  0  0  0  0  0
  -22.3030   -9.0500   20.4320 C   0  0  0  0  0  3  0  0  0  0  0  0
  -23.0240  -10.2460   20.2840 C   0  0  0  0  0  3  0  0  0  0  0  0
  -21.9200   -6.9610   21.4730 O   0  0  0  0  0  0  0  0  0  0  0  0
  -21.8090   -6.2280   22.6280 C   0  0  0  0  0  0  0  0  0  0  0  0
  -21.3110   -6.7920   23.8240 C   0  0  0  0  0  3  0  0  0  0  0  0
  -21.1500   -5.9870   24.9680 C   0  0  0  0  0  3  0  0  0  0  0  0
  -21.4780   -4.6180   24.9200 C   0  0  0  0  0  0  0  0  0  0  0  0
  -21.9680   -4.0530   23.7300 C   0  0  0  0  0  3  0  0  0  0  0  0
  -22.1330   -4.8560   22.5880 C   0  0  0  0  0  0  0  0  0  0  0  0
  -22.5860   -4.3020   21.4360 F   0  0  0  0  0  0  0  0  0  0  0  0
  -21.3160   -3.8430   26.0170 F   0  0  0  0  0  0  0  0  0  0  0  0
  -22.9290  -13.6030   21.0620 C   0  0  0  0  0  0  0  0  0  0  0  0
  -22.1480  -12.9150   21.8870 N   0  0  0  0  0  0  0  0  0  0  0  0
  -22.5180  -14.6060   20.4800 O   0  0  0  0  0  0  0  0  0  0  0  0
  -22.4940  -12.1020   22.3730 H   0  0  0  0  0  0  0  0  0  0  0  0
  -21.1910  -13.2040   22.0350 H   0  0  0  0  0  0  0  0  0  0  0  0
  -25.5860  -15.2990   20.4250 N   0  0  0  0  0  0  0  0  0  0  0  0
  -24.8040  -15.9440   20.4510 H   0  0  0  0  0  0  0  0  0  0  0  0
  -26.4560  -15.7400   20.1510 H   0  0  0  0  0  0  0  0  0  0  0  0
  1  7  1  0
  2  1  2  0
  3  1  1  0
  3  6  1  0
  4  5  1  0
  6 11  1  0
  6  4  1  0
  7  8  1  1
  7 52  1  0
  7  5  1  0
  9 10  2  0
 10  2  1  0
 12 23  2  0
 13 11  1  0
 13 18  1  0
 14 22  1  0
 14 24  1  0
 15 21  1  0
 15 17  1  0
 16 22  1  0
 17 16  1  0
 18 17  2  0
 19 13  2  0
 20 19  1  0
 20 15  2  0
 21 14  1  0
 22 12  1  0
 24 26  2  0
 25 24  1  0
 27 25  1  0
 28 37  2  0
 28 33  1  0
 29 25  1  0
 29 33  1  0
 30 29  1  0
 31 32  1  0
 31 30  1  0
 32 28  1  0
 33 34  2  0
 34 35  1  0
 36 35  2  0
 37 36  1  0
 38 12  1  0
 38 43  1  0
 38 39  1  0
 39 42  1  1
 39 40  1  0
 41 39  1  0
 43 46  1  0
 44 48  1  0
 44 43  1  0
 45 44  2  0
 48 47  1  0
 50 48  1  0
 50 51  1  0
 50 49  1  0
 53 55  1  0
 54 53  2  0
 54 56  1  0
 55 57  2  0
 56 58  2  0
 57 52  1  0
 58 57  1  0
 58 68  1  0
 59 56  1  0
 61 66  1  0
 62 63  1  0
 62 61  1  0
 64 63  1  0
 64 73  1  0
 64 65  1  0
 66 60  1  0
 66 65  1  0
 67 60  2  0
 68 60  1  0
 68 69  1  0
 70 71  2  0
 71 72  1  0
 71 90  1  0
 72 75  1  0
 73 70  1  0
 73 74  1  0
 74 72  2  0
 75 76  1  0
 76 77  2  0
 78 81  1  0
 78 77  1  0
 79 78  2  0
 80 79  1  0
 80 75  2  0
 81 82  1  0
 82 83  1  0
 83 84  2  0
 85 84  1  0
 85 89  1  0
 86 85  2  0
 87 82  2  0
 87 86  1  0
 88 87  1  0
 90 91  1  0
 91 94  1  0
 91 93  1  0
 92 90  2  0
 95 96  1  0
 95 70  1  0
 97 95  1  0
M  ISO  4   6 101  11 101  60 100  68 100
M  END
>  <TORSDO>  (79) 
F 19

>  <SCORE>  (79) 
-13.749

>  <name>  (79) 
78

>  <ligand_id>  (79) 
78

>  <original_smiles>  (79) 
[H]C([H])=C([H])C([H])=C1C([H])([H])C([H])(Oc2c([H])c([H])c3c(c2[H])C([H])([H])N(C(=O)C([H])(N([H])C(=O)C([H])(N([H])C([H])([H])[H])C([H])([H])[H])C(C([H])([H])[H])(C([H])([H])[H])C([H])([H])[H])C([H])(C(=O)N([H])C2([H])c4c([H])c([H])c([H])c([H])c4C([H])([H])C([H])([H])C2([H])[H])C3([H])[H])C([H])([H])C([H])([H])[N+]1([H])C([H])([H])c1c([H])c([H])c([H])c(C([H])([H])[H])c1N([H])C(=O)N1C([H])([H])C([H])([H])C([H])([H])C([H])(n2nc(-c3c([H])c([H])c(Oc4c([H])c([H])c(F)c([H])c4F)c([H])c3[H])c(C(=O)N([H])[H])c2N([H])[H])C1([H])[H]

>  <smiles>  (79) 
[H]C([H])=C([H])C([H])=C1C([H])([H])C([H])(Oc2c([H])c([H])c3c(c2[H])C([H])([H])N(C(=O)C([H])(N([H])C(=O)C([H])(N([H])C([H])([H])[H])C([H])([H])[H])C(C([H])([H])[H])(C([H])([H])[H])C([H])([H])[H])C([H])(C(=O)N([H])C2([H])c4c([H])c([H])c([H])c([H])c4C([H])([H])C([H])([H])C2([H])[H])C3([H])[H])C([H])([H])C([H])([H])[N+]1([H])C([H])([H])c1c([H])c([H])c([H])c(C([H])([H])[H])c1N([H])C(=O)N1C([H])([H])C([H])([H])C([H])([H])C([H])(n2nc(-c3c([H])c([H])c(Oc4c([H])c([H])c(F)c([H])c4F)c([H])c3[H])c(C(=O)N([H])[H])c2N([H])[H])C1([H])[H]

$$$$
79:0:0
     RDKit          3D

101110  0  0  1  0  0  0  0  0999 V2000
  -27.9680  -23.9820   22.3270 C   0  0  0  0  0  0  0  0  0  0  0  0
  -26.7170  -23.8590   22.8240 C   0  0  0  0  0  3  0  0  0  0  0  0
  -29.0420  -24.8610   22.9450 C   0  0  0  0  0  2  0  0  0  0  0  0
  -29.0990  -26.2220   22.1830 C   0  0  0  0  0  2  0  0  0  0  0  0
  -28.5800  -24.8850   20.0590 C   0  0  0  0  0  2  0  0  0  0  0  0
  -28.3100  -26.1860   20.8440 C   0  0  0  0  0  3  0  0  0  0  0  0
  -28.4570  -23.6780   20.9410 N   0  0  2  0  0  4  0  0  0  0  0  0
  -29.4260  -23.4360   21.0840 H   0  0  0  0  0  0  0  0  0  0  0  0
  -24.3010  -23.7490   22.4250 C   0  0  0  0  0  2  0  0  0  0  0  0
  -25.5420  -23.3200   22.1550 C   0  0  0  0  0  3  0  0  0  0  0  0
  -28.5030  -27.3660   20.0440 O   0  0  0  0  0  0  0  0  0  0  0  0
  -24.6890  -32.1550   23.5880 C   0  0  0  0  0  0  0  0  0  0  0  0
  -27.3780  -28.1520   20.0270 C   0  0  0  0  0  0  0  0  0  0  0  0
  -23.5020  -30.9590   21.7740 C   0  0  0  0  0  3  0  0  0  0  0  0
  -24.9800  -29.6200   20.1840 C   0  0  0  0  0  0  0  0  0  0  0  0
  -26.0280  -31.3570   21.6480 C   0  0  0  0  0  2  0  0  0  0  0  0
  -26.1280  -30.0800   20.8400 C   0  0  0  0  0  0  0  0  0  0  0  0
  -27.3350  -29.3520   20.7620 C   0  0  0  0  0  3  0  0  0  0  0  0
  -26.2210  -27.7070   19.3460 C   0  0  0  0  0  3  0  0  0  0  0  0
  -25.0190  -28.4310   19.4320 C   0  0  0  0  0  3  0  0  0  0  0  0
  -23.7280  -30.4540   20.3250 C   0  0  0  0  0  2  0  0  0  0  0  0
  -24.7560  -31.4990   22.3950 N   0  0  0  0  0  0  0  0  0  0  0  0
  -23.6020  -32.3530   24.1490 O   0  0  0  0  0  0  0  0  0  0  0  0
  -22.8470  -29.8270   22.5960 C   0  0  0  0  0  0  0  0  0  0  0  0
  -21.5300  -29.6430   22.4180 N   0  0  0  0  0  0  0  0  0  0  0  0
  -23.5250  -29.1170   23.3460 O   0  0  0  0  0  0  0  0  0  0  0  0
  -21.0440  -30.2750   21.7960 H   0  0  0  0  0  0  0  0  0  0  0  0
  -18.1570  -28.3870   22.7400 C   0  0  0  0  0  0  0  0  0  0  0  0
  -20.7130  -28.6110   23.0580 C   0  0  0  0  0  3  0  0  0  0  0  0
  -20.8190  -27.2650   22.3020 C   0  0  0  0  0  2  0  0  0  0  0  0
  -19.7240  -27.0710   21.2490 C   0  0  0  0  0  2  0  0  0  0  0  0
  -18.3390  -27.1310   21.9030 C   0  0  0  0  0  2  0  0  0  0  0  0
  -19.2730  -29.0890   23.2700 C   0  0  0  0  0  0  0  0  0  0  0  0
  -19.0480  -30.2700   24.0120 C   0  0  0  0  0  3  0  0  0  0  0  0
  -17.7410  -30.7450   24.2280 C   0  0  0  0  0  3  0  0  0  0  0  0
  -16.6410  -30.0350   23.7220 C   0  0  0  0  0  3  0  0  0  0  0  0
  -16.8490  -28.8570   22.9800 C   0  0  0  0  0  3  0  0  0  0  0  0
  -25.9690  -32.7120   24.2910 C   0  0  0  0  0  3  0  0  0  0  0  0
  -25.6950  -34.1010   24.6800 N   0  0  0  0  0  0  0  0  0  0  0  0
  -26.0680  -35.1740   23.9730 C   0  0  0  0  0  0  0  0  0  0  0  0
  -26.7530  -35.0970   22.9490 O   0  0  0  0  0  0  0  0  0  0  0  0
  -25.0990  -34.2360   25.4840 H   0  0  0  0  0  0  0  0  0  0  0  0
  -24.3950  -37.0210   23.6680 C   0  0  0  0  0  1  0  0  0  0  0  0
  -25.6090  -36.5510   24.4840 C   0  0  0  0  0  3  0  0  0  0  0  0
  -27.7480  -37.3360   25.3950 C   0  0  0  0  0  1  0  0  0  0  0  0
  -26.6700  -37.5800   24.4410 N   0  0  0  0  0  0  0  0  0  0  0  0
  -26.2860  -38.5020   24.6290 H   0  0  0  0  0  0  0  0  0  0  0  0
  -26.4120  -31.8560   25.5410 C   0  0  1  0  0  0  0  0  0  0  0  0
  -25.2680  -31.5730   26.5420 C   0  0  0  0  0  1  0  0  0  0  0  0
  -26.9900  -30.4930   25.0920 C   0  0  0  0  0  1  0  0  0  0  0  0
  -27.5460  -32.5840   26.3000 C   0  0  0  0  0  1  0  0  0  0  0  0
  -27.9820  -22.4460   20.2710 C   0  0  0  0  0  2  0  0  0  0  0  0
  -30.1610  -21.5530   17.2740 C   0  0  0  0  0  3  0  0  0  0  0  0
  -29.2090  -22.1700   18.0980 C   0  0  0  0  0  3  0  0  0  0  0  0
  -30.8930  -20.4600   17.7650 C   0  0  0  0  0  3  0  0  0  0  0  0
  -29.0840  -21.7890   19.4500 C   0  0  0  0  0  0  0  0  0  0  0  0
  -30.7490  -20.0180   19.1030 C   0  0  0  0  0  0  0  0  0  0  0  0
  -29.9180  -20.7660   19.9820 C   0  0  0  0  0  0  0  0  0  0  0  0
  -29.9060  -20.4320   21.4750 C   0  0  0  0  0  1  0  0  0  0  0  0
  -31.2990  -18.6450   19.5470 C   0  0  0  0  0  3  0  0  0  0  0  0
  -32.7200  -18.3170   19.0430 C   0  0  0  0  0  3  0  0  0  0  0  0
  -32.9740  -18.0710   17.8590 O   0  0  0  0  0  0  0  0  0  0  0  0
  -30.2060  -17.5910   19.2110 C   0  0  0  0  0  2  0  0  0  0  0  0
  -30.8790  -15.2870   19.7380 C   0  0  0  0  0  0  0  0  0  0  0  0
  -30.7810  -12.8750   19.3020 C   0  0  0  0  0  2  0  0  0  0  0  0
  -29.8770  -12.6400   18.0760 C   0  0  0  0  0  2  0  0  0  0  0  0
  -28.4100  -12.4790   18.5170 C   0  0  0  0  0  2  0  0  0  0  0  0
  -27.9440  -13.6070   19.4780 C   0  0  0  0  0  3  0  0  0  0  0  0
  -28.9770  -13.8540   20.6030 C   0  0  0  0  0  2  0  0  0  0  0  0
  -30.2970  -14.0820   19.9890 N   0  0  0  0  0  0  0  0  0  0  0  0
  -31.9470  -15.4090   19.1400 O   0  0  0  0  0  0  0  0  0  0  0  0
  -30.1470  -16.3680   20.0260 N   0  0  0  0  0  0  0  0  0  0  0  0
  -29.3160  -16.2100   20.5800 H   0  0  0  0  0  0  0  0  0  0  0  0
  -25.5820  -14.2060   20.3170 C   0  0  0  0  0  0  0  0  0  0  0  0
  -24.5250  -13.4290   20.7140 C   0  0  0  0  0  0  0  0  0  0  0  0
  -24.9760  -12.0760   20.6210 C   0  0  0  0  0  0  0  0  0  0  0  0
  -26.6110  -13.3280   20.0110 N   0  0  0  0  0  0  0  0  0  0  0  0
  -26.2470  -12.0390   20.2470 N   0  0  0  0  0  0  0  0  0  0  0  0
  -24.2470  -10.8140   20.8150 C   0  0  0  0  0  0  0  0  0  0  0  0
  -24.6220   -9.8910   21.8190 C   0  0  0  0  0  3  0  0  0  0  0  0
  -23.8950   -8.6940   21.9970 C   0  0  0  0  0  3  0  0  0  0  0  0
  -22.7820   -8.4090   21.1710 C   0  0  0  0  0  0  0  0  0  0  0  0
  -22.4280   -9.3180   20.1570 C   0  0  0  0  0  3  0  0  0  0  0  0
  -23.1550  -10.5080   19.9780 C   0  0  0  0  0  3  0  0  0  0  0  0
  -22.0350   -7.2600   21.2530 O   0  0  0  0  0  0  0  0  0  0  0  0
  -21.7950   -6.6400   22.4540 C   0  0  0  0  0  0  0  0  0  0  0  0
  -21.1530   -7.3060   23.5200 C   0  0  0  0  0  3  0  0  0  0  0  0
  -20.8700   -6.6140   24.7150 C   0  0  0  0  0  3  0  0  0  0  0  0
  -21.2170   -5.2550   24.8370 C   0  0  0  0  0  0  0  0  0  0  0  0
  -21.8530   -4.5890   23.7750 C   0  0  0  0  0  3  0  0  0  0  0  0
  -22.1400   -5.2820   22.5850 C   0  0  0  0  0  0  0  0  0  0  0  0
  -22.7360   -4.6320   21.5550 F   0  0  0  0  0  0  0  0  0  0  0  0
  -20.9350   -4.5830   25.9780 F   0  0  0  0  0  0  0  0  0  0  0  0
  -23.1470  -13.9040   21.0730 C   0  0  0  0  0  0  0  0  0  0  0  0
  -22.4740  -13.2060   21.9780 N   0  0  0  0  0  0  0  0  0  0  0  0
  -22.6780  -14.9340   20.5880 O   0  0  0  0  0  0  0  0  0  0  0  0
  -22.8670  -12.3660   22.3810 H   0  0  0  0  0  0  0  0  0  0  0  0
  -21.5490  -13.4970   22.2630 H   0  0  0  0  0  0  0  0  0  0  0  0
  -25.7430  -15.5780   20.1670 N   0  0  0  0  0  0  0  0  0  0  0  0
  -24.9830  -16.2280   20.3300 H   0  0  0  0  0  0  0  0  0  0  0  0
  -26.5750  -16.0310   19.8110 H   0  0  0  0  0  0  0  0  0  0  0  0
  1  2  2  0
  1  3  1  0
  4  3  1  0
  5  6  1  0
  5  7  1  0
  6 11  1  0
  6  4  1  0
  7  8  1  1
  7  1  1  0
 10  9  2  0
 10  2  1  0
 12 23  2  0
 13 11  1  0
 13 18  1  0
 14 22  1  0
 14 24  1  0
 15 21  1  0
 15 17  1  0
 16 22  1  0
 17 16  1  0
 18 17  2  0
 19 20  1  0
 19 13  2  0
 20 15  2  0
 21 14  1  0
 22 12  1  0
 24 26  2  0
 25 24  1  0
 27 25  1  0
 28 37  2  0
 28 33  1  0
 29 25  1  0
 29 33  1  0
 30 29  1  0
 31 32  1  0
 31 30  1  0
 32 28  1  0
 33 34  2  0
 34 35  1  0
 36 35  2  0
 37 36  1  0
 38 12  1  0
 38 39  1  0
 38 48  1  0
 39 42  1  0
 40 44  1  0
 40 39  1  0
 41 40  2  0
 44 43  1  0
 46 44  1  0
 46 47  1  0
 46 45  1  0
 48 51  1  1
 48 49  1  0
 50 48  1  0
 52  7  1  0
 53 55  2  0
 53 54  1  0
 54 56  2  0
 55 57  1  0
 56 58  1  0
 56 52  1  0
 57 60  1  0
 57 58  2  0
 58 59  1  0
 60 61  1  0
 62 61  2  0
 63 60  1  0
 63 72  1  0
 64 70  1  0
 64 72  1  0
 65 70  1  0
 66 67  1  0
 66 65  1  0
 68 67  1  0
 68 77  1  0
 68 69  1  0
 70 69  1  0
 71 64  2  0
 72 73  1  0
 74 75  2  0
 75 94  1  0
 76 75  1  0
 76 79  1  0
 77 78  1  0
 77 74  1  0
 78 76  2  0
 79 80  1  0
 80 81  2  0
 82 85  1  0
 82 81  1  0
 83 82  2  0
 84 83  1  0
 84 79  2  0
 85 86  1  0
 86 91  2  0
 86 87  1  0
 87 88  2  0
 88 89  1  0
 89 93  1  0
 90 89  2  0
 91 90  1  0
 92 91  1  0
 94 95  1  0
 95 98  1  0
 95 97  1  0
 96 94  2  0
 99 74  1  0
 99100  1  0
101 99  1  0
M  ISO  4   6 101  11 101  64 100  72 100
M  END
>  <TORSDO>  (80) 
F 22

>  <SCORE>  (80) 
-10.943

>  <name>  (80) 
79

>  <ligand_id>  (80) 
79

>  <original_smiles>  (80) 
[H]C(=O)C([H])(c1c([H])c([H])c([H])c(C([H])([H])[N+]2([H])C(=C([H])C([H])=C([H])[H])C([H])([H])C([H])([H])C([H])(Oc3c([H])c([H])c4c(c3[H])C([H])([H])N(C(=O)C([H])(N([H])C(=O)C([H])(N([H])C([H])([H])[H])C([H])([H])[H])C(C([H])([H])[H])(C([H])([H])[H])C([H])([H])[H])C([H])(C(=O)N([H])C3([H])c5c([H])c([H])c([H])c([H])c5C([H])([H])C([H])([H])C3([H])[H])C4([H])[H])C2([H])[H])c1C([H])([H])[H])C([H])([H])N([H])C(=O)N1C([H])([H])C([H])([H])C([H])([H])C([H])(n2nc(-c3c([H])c([H])c(Oc4c([H])c([H])c(F)c([H])c4F)c([H])c3[H])c(C(=O)N([H])[H])c2N([H])[H])C1([H])[H]

>  <smiles>  (80) 
[H]C(=O)C([H])(c1c([H])c([H])c([H])c(C([H])([H])[N+]2([H])C(=C([H])C([H])=C([H])[H])C([H])([H])C([H])([H])C([H])(Oc3c([H])c([H])c4c(c3[H])C([H])([H])N(C(=O)C([H])(N([H])C(=O)C([H])(N([H])C([H])([H])[H])C([H])([H])[H])C(C([H])([H])[H])(C([H])([H])[H])C([H])([H])[H])C([H])(C(=O)N([H])C3([H])c5c([H])c([H])c([H])c([H])c5C([H])([H])C([H])([H])C3([H])[H])C4([H])[H])C2([H])[H])c1C([H])([H])[H])C([H])([H])N([H])C(=O)N1C([H])([H])C([H])([H])C([H])([H])C([H])(n2nc(-c3c([H])c([H])c(Oc4c([H])c([H])c(F)c([H])c4F)c([H])c3[H])c(C(=O)N([H])[H])c2N([H])[H])C1([H])[H]

$$$$
80:0:0
     RDKit          3D

 93101  0  0  1  0  0  0  0  0999 V2000
  -28.5790  -21.1190   20.6210 C   0  0  0  0  0  2  0  0  0  0  0  0
  -31.9390  -19.1060   20.9740 C   0  0  0  0  0  3  0  0  0  0  0  0
  -31.5550  -17.7580   20.8410 C   0  0  0  0  0  3  0  0  0  0  0  0
  -31.0150  -20.1700   20.8880 C   0  0  0  0  0  0  0  0  0  0  0  0
  -29.6420  -19.9140   20.6300 C   0  0  0  0  0  0  0  0  0  0  0  0
  -30.2100  -17.3890   20.6060 C   0  0  0  0  0  0  0  0  0  0  0  0
  -29.2690  -18.5010   20.5100 C   0  0  0  0  0  0  0  0  0  0  0  0
  -31.5420  -21.5730   21.1410 C   0  0  0  0  0  1  0  0  0  0  0  0
  -27.9620  -18.1960   20.3180 F   0  0  0  0  0  0  0  0  0  0  0  0
  -30.5820  -14.8040   20.2560 C   0  0  0  0  0  0  0  0  0  0  0  0
  -30.3360  -12.5580   19.1790 C   0  0  0  0  0  2  0  0  0  0  0  0
  -29.3600  -12.6610   17.9880 C   0  0  0  0  0  2  0  0  0  0  0  0
  -27.9070  -12.4710   18.4650 C   0  0  0  0  0  2  0  0  0  0  0  0
  -27.5720  -13.3240   19.7180 C   0  0  0  0  0  3  0  0  0  0  0  0
  -28.6680  -13.2150   20.8000 C   0  0  0  0  0  2  0  0  0  0  0  0
  -29.9400  -13.5870   20.1690 N   0  0  0  0  0  0  0  0  0  0  0  0
  -31.7590  -14.8780   19.8890 O   0  0  0  0  0  0  0  0  0  0  0  0
  -29.8330  -15.9460   20.5340 N   0  0  0  0  0  0  0  0  0  0  0  0
  -28.8520  -15.7680   20.6800 H   0  0  0  0  0  0  0  0  0  0  0  0
  -25.2040  -13.8790   20.5280 C   0  0  0  0  0  0  0  0  0  0  0  0
  -24.1590  -13.0880   20.9180 C   0  0  0  0  0  0  0  0  0  0  0  0
  -24.6360  -11.7420   20.8570 C   0  0  0  0  0  0  0  0  0  0  0  0
  -26.2490  -13.0130   20.2480 N   0  0  0  0  0  0  0  0  0  0  0  0
  -25.9160  -11.7230   20.5090 N   0  0  0  0  0  0  0  0  0  0  0  0
  -23.9270  -10.4700   21.0490 C   0  0  0  0  0  0  0  0  0  0  0  0
  -24.3840   -9.5020   21.9710 C   0  0  0  0  0  3  0  0  0  0  0  0
  -23.6740   -8.2950   22.1530 C   0  0  0  0  0  3  0  0  0  0  0  0
  -22.4940   -8.0480   21.4120 C   0  0  0  0  0  0  0  0  0  0  0  0
  -22.0570   -9.0040   20.4790 C   0  0  0  0  0  3  0  0  0  0  0  0
  -22.7670  -10.2010   20.2950 C   0  0  0  0  0  3  0  0  0  0  0  0
  -21.7530   -6.8940   21.5040 O   0  0  0  0  0  0  0  0  0  0  0  0
  -21.7170   -6.1520   22.6570 C   0  0  0  0  0  0  0  0  0  0  0  0
  -21.2630   -6.6960   23.8800 C   0  0  0  0  0  3  0  0  0  0  0  0
  -21.1770   -5.8790   25.0240 C   0  0  0  0  0  3  0  0  0  0  0  0
  -21.5330   -4.5180   24.9480 C   0  0  0  0  0  0  0  0  0  0  0  0
  -21.9790   -3.9740   23.7310 C   0  0  0  0  0  3  0  0  0  0  0  0
  -22.0680   -4.7890   22.5880 C   0  0  0  0  0  0  0  0  0  0  0  0
  -22.4780   -4.2540   21.4120 F   0  0  0  0  0  0  0  0  0  0  0  0
  -21.4430   -3.7310   26.0450 F   0  0  0  0  0  0  0  0  0  0  0  0
  -22.7650  -13.5460   21.2350 C   0  0  0  0  0  0  0  0  0  0  0  0
  -22.0660  -12.8290   22.1070 N   0  0  0  0  0  0  0  0  0  0  0  0
  -22.3060  -14.5770   20.7460 O   0  0  0  0  0  0  0  0  0  0  0  0
  -22.4510  -11.9930   22.5220 H   0  0  0  0  0  0  0  0  0  0  0  0
  -21.1340  -13.1190   22.3640 H   0  0  0  0  0  0  0  0  0  0  0  0
  -25.3460  -15.2540   20.3660 N   0  0  0  0  0  0  0  0  0  0  0  0
  -24.5700  -15.8890   20.5140 H   0  0  0  0  0  0  0  0  0  0  0  0
  -26.1690  -15.7190   20.0070 H   0  0  0  0  0  0  0  0  0  0  0  0
  -28.4550  -23.7560   20.5020 C   0  0  0  0  0  0  0  0  0  0  0  0
  -29.2360  -22.4110   18.5810 C   0  0  0  0  0  1  0  0  0  0  0  0
  -28.8050  -22.5020   19.9770 N   0  0  0  0  0  0  0  0  0  0  0  0
  -28.0840  -23.8560   21.6750 O   0  0  0  0  0  0  0  0  0  0  0  0
  -28.4700  -25.1030   19.6140 C   0  0  0  0  0  2  0  0  0  0  0  0
  -28.3490  -26.4500   20.2800 O   0  0  0  0  0  0  0  0  0  0  0  0
  -24.6050  -31.8980   23.2400 C   0  0  0  0  0  0  0  0  0  0  0  0
  -27.2240  -27.3040   20.1880 C   0  0  0  0  0  0  0  0  0  0  0  0
  -23.4070  -30.4990   21.5980 C   0  0  0  0  0  3  0  0  0  0  0  0
  -24.8610  -28.9480   20.1680 C   0  0  0  0  0  0  0  0  0  0  0  0
  -25.9480  -30.8110   21.4200 C   0  0  0  0  0  2  0  0  0  0  0  0
  -26.0290  -29.4270   20.7740 C   0  0  0  0  0  0  0  0  0  0  0  0
  -27.2080  -28.6160   20.7750 C   0  0  0  0  0  3  0  0  0  0  0  0
  -26.0280  -26.8870   19.5610 C   0  0  0  0  0  3  0  0  0  0  0  0
  -24.8680  -27.6870   19.5520 C   0  0  0  0  0  3  0  0  0  0  0  0
  -23.6250  -29.8250   20.2170 C   0  0  0  0  0  2  0  0  0  0  0  0
  -24.6730  -31.0880   22.1420 N   0  0  0  0  0  0  0  0  0  0  0  0
  -23.5200  -32.1730   23.7730 O   0  0  0  0  0  0  0  0  0  0  0  0
  -22.7420  -29.4830   22.5580 C   0  0  0  0  0  0  0  0  0  0  0  0
  -21.4170  -29.2960   22.4230 N   0  0  0  0  0  0  0  0  0  0  0  0
  -23.4180  -28.8640   23.3840 O   0  0  0  0  0  0  0  0  0  0  0  0
  -20.9290  -29.8490   21.7320 H   0  0  0  0  0  0  0  0  0  0  0  0
  -18.0470  -28.0650   22.8930 C   0  0  0  0  0  0  0  0  0  0  0  0
  -20.5990  -28.3550   23.1900 C   0  0  0  0  0  3  0  0  0  0  0  0
  -20.7240  -26.9200   22.6270 C   0  0  0  0  0  2  0  0  0  0  0  0
  -19.6370  -26.5780   21.6020 C   0  0  0  0  0  2  0  0  0  0  0  0
  -18.2460  -26.7140   22.2280 C   0  0  0  0  0  2  0  0  0  0  0  0
  -19.1520  -28.8420   23.3310 C   0  0  0  0  0  0  0  0  0  0  0  0
  -18.9120  -30.1070   23.9120 C   0  0  0  0  0  3  0  0  0  0  0  0
  -17.6000  -30.5940   24.0590 C   0  0  0  0  0  3  0  0  0  0  0  0
  -16.5100  -29.8150   23.6370 C   0  0  0  0  0  3  0  0  0  0  0  0
  -16.7330  -28.5510   23.0610 C   0  0  0  0  0  3  0  0  0  0  0  0
  -25.8840  -32.5340   23.8670 C   0  0  0  0  0  3  0  0  0  0  0  0
  -26.3920  -31.7690   25.1520 C   0  0  1  0  0  0  0  0  0  0  0  0
  -25.2920  -31.5380   26.2140 C   0  0  0  0  0  1  0  0  0  0  0  0
  -26.9770  -30.3900   24.7700 C   0  0  0  0  0  1  0  0  0  0  0  0
  -27.5400  -32.5640   25.8140 C   0  0  0  0  0  1  0  0  0  0  0  0
  -25.5740  -33.9340   24.1920 N   0  0  0  0  0  0  0  0  0  0  0  0
  -25.9050  -34.9840   23.4290 C   0  0  0  0  0  0  0  0  0  0  0  0
  -26.5740  -34.8770   22.3970 O   0  0  0  0  0  0  0  0  0  0  0  0
  -24.9850  -34.0930   24.9950 H   0  0  0  0  0  0  0  0  0  0  0  0
  -24.1830  -36.7800   23.0640 C   0  0  0  0  0  1  0  0  0  0  0  0
  -25.4200  -36.3750   23.8810 C   0  0  0  0  0  3  0  0  0  0  0  0
  -27.5500  -37.2620   24.7200 C   0  0  0  0  0  1  0  0  0  0  0  0
  -26.4540  -37.4260   23.7680 N   0  0  0  0  0  0  0  0  0  0  0  0
  -26.0500  -38.3480   23.9070 H   0  0  0  0  0  0  0  0  0  0  0  0
  1  5  1  0
  3  2  2  0
  4  2  1  0
  4  8  1  0
  5  4  2  0
  6  3  1  0
  7  6  2  0
  7  5  1  0
  9  7  1  0
 10 18  1  0
 11 16  1  0
 12 13  1  0
 12 11  1  0
 14 13  1  0
 14 23  1  0
 14 15  1  0
 16 10  1  0
 16 15  1  0
 17 10  2  0
 18  6  1  0
 18 19  1  0
 20 21  2  0
 21 40  1  0
 22 21  1  0
 22 25  1  0
 23 24  1  0
 23 20  1  0
 24 22  2  0
 25 26  1  0
 26 27  2  0
 28 31  1  0
 28 27  1  0
 29 28  2  0
 30 29  1  0
 30 25  2  0
 31 32  1  0
 32 33  1  0
 33 34  2  0
 35 34  1  0
 35 39  1  0
 36 35  2  0
 37 32  2  0
 37 36  1  0
 38 37  1  0
 40 41  1  0
 41 44  1  0
 41 43  1  0
 42 40  2  0
 45 46  1  0
 45 20  1  0
 47 45  1  0
 48 51  2  0
 49 50  1  0
 50 48  1  0
 50  1  1  0
 52 53  1  0
 52 48  1  0
 54 65  2  0
 55 53  1  0
 55 60  1  0
 56 64  1  0
 56 66  1  0
 57 63  1  0
 57 59  1  0
 58 64  1  0
 59 60  2  0
 59 58  1  0
 61 55  2  0
 62 61  1  0
 62 57  2  0
 63 56  1  0
 64 54  1  0
 66 68  2  0
 67 66  1  0
 69 67  1  0
 70 79  2  0
 70 75  1  0
 71 67  1  0
 71 75  1  0
 72 71  1  0
 73 74  1  0
 73 72  1  0
 74 70  1  0
 75 76  2  0
 76 77  1  0
 78 77  2  0
 79 78  1  0
 80 54  1  0
 80 85  1  0
 80 81  1  0
 81 84  1  1
 81 82  1  0
 83 81  1  0
 85 88  1  0
 86 90  1  0
 86 85  1  0
 87 86  2  0
 90 89  1  0
 92 90  1  0
 92 93  1  0
 92 91  1  0
M  ISO  4  10 100  18 100  52 101  53 101
M  END
>  <TORSDO>  (81) 
F 19

>  <SCORE>  (81) 
-14.791

>  <name>  (81) 
80

>  <ligand_id>  (81) 
80

>  <original_smiles>  (81) 
[H]c1c([H])c([H])c2c(c1[H])C([H])([H])C([H])([H])C([H])([H])C2([H])N([H])C(=O)C1([H])N(C(=O)C([H])(N([H])C(=O)C([H])(N([H])C([H])([H])[H])C([H])([H])[H])C(C([H])([H])[H])(C([H])([H])[H])C([H])([H])[H])C([H])([H])c2c([H])c(OC([H])([H])C(=O)N(C([H])([H])[H])C([H])([H])c3c(F)c(N([H])C(=O)N4C([H])([H])C([H])([H])C([H])([H])C([H])(n5nc(-c6c([H])c([H])c(Oc7c([H])c([H])c(F)c([H])c7F)c([H])c6[H])c(C(=O)N([H])[H])c5N([H])[H])C4([H])[H])c([H])c([H])c3C([H])([H])[H])c([H])c([H])c2C1([H])[H]

>  <smiles>  (81) 
[H]c1c([H])c([H])c2c(c1[H])C([H])([H])C([H])([H])C([H])([H])C2([H])N([H])C(=O)C1([H])N(C(=O)C([H])(N([H])C(=O)C([H])(N([H])C([H])([H])[H])C([H])([H])[H])C(C([H])([H])[H])(C([H])([H])[H])C([H])([H])[H])C([H])([H])c2c([H])c(OC([H])([H])C(=O)N(C([H])([H])[H])C([H])([H])c3c(F)c(N([H])C(=O)N4C([H])([H])C([H])([H])C([H])([H])C([H])(n5nc(-c6c([H])c([H])c(Oc7c([H])c([H])c(F)c([H])c7F)c([H])c6[H])c(C(=O)N([H])[H])c5N([H])[H])C4([H])[H])c([H])c([H])c3C([H])([H])[H])c([H])c([H])c2C1([H])[H]

$$$$
81:0:0
     RDKit          3D

 97105  0  0  1  0  0  0  0  0999 V2000
  -29.4410  -20.4940   20.6290 C   0  0  0  0  0  0  0  0  0  0  0  0
  -29.0330  -20.2360   21.8670 N   0  0  0  0  0  4  0  0  0  0  0  0
  -29.2100  -21.8520   20.1400 N   0  0  0  0  0  0  0  0  0  0  0  0
  -29.2090  -19.3300   22.2730 H   0  0  0  0  0  0  0  0  0  0  0  0
  -28.5050  -20.9120   22.3910 H   0  0  0  0  0  0  0  0  0  0  0  0
  -29.4100  -21.8920   19.1480 H   0  0  0  0  0  0  0  0  0  0  0  0
  -31.1080  -20.0760   18.9990 C   0  0  0  0  0  3  0  0  0  0  0  0
  -31.8730  -19.5270   17.9720 C   0  0  0  0  0  3  0  0  0  0  0  0
  -30.2470  -19.3340   19.8590 C   0  0  0  0  0  0  0  0  0  0  0  0
  -30.9600  -17.3580   18.5140 C   0  0  0  0  0  0  0  0  0  0  0  0
  -30.4150  -17.7850   19.7830 C   0  0  0  0  0  0  0  0  0  0  0  0
  -31.7320  -18.1840   17.6820 C   0  0  0  0  0  0  0  0  0  0  0  0
  -30.6810  -15.9940   17.8990 C   0  0  0  0  0  1  0  0  0  0  0  0
  -32.3350  -17.6800   16.5750 F   0  0  0  0  0  0  0  0  0  0  0  0
  -30.8630  -15.2650   20.7590 C   0  0  0  0  0  0  0  0  0  0  0  0
  -30.8300  -12.8300   19.9960 C   0  0  0  0  0  2  0  0  0  0  0  0
  -30.0120  -12.6000   18.7010 C   0  0  0  0  0  2  0  0  0  0  0  0
  -28.5170  -12.4350   19.0170 C   0  0  0  0  0  2  0  0  0  0  0  0
  -28.0010  -13.4510   20.0680 C   0  0  0  0  0  3  0  0  0  0  0  0
  -28.9520  -13.5920   21.2750 C   0  0  0  0  0  2  0  0  0  0  0  0
  -30.2570  -13.9990   20.7390 N   0  0  0  0  0  0  0  0  0  0  0  0
  -32.0950  -15.2570   20.6410 O   0  0  0  0  0  0  0  0  0  0  0  0
  -30.1340  -16.5210   20.6670 N   0  0  0  0  0  0  0  0  0  0  0  0
  -29.1920  -16.4660   21.0240 H   0  0  0  0  0  0  0  0  0  0  0  0
  -25.5740  -14.0480   20.6030 C   0  0  0  0  0  0  0  0  0  0  0  0
  -24.4820  -13.2820   20.9020 C   0  0  0  0  0  0  0  0  0  0  0  0
  -24.9450  -11.9310   20.9480 C   0  0  0  0  0  0  0  0  0  0  0  0
  -26.6310  -13.1650   20.4740 N   0  0  0  0  0  0  0  0  0  0  0  0
  -26.2580  -11.8890   20.7550 N   0  0  0  0  0  0  0  0  0  0  0  0
  -24.2020  -10.6730   21.1060 C   0  0  0  0  0  0  0  0  0  0  0  0
  -24.5560   -9.7260   22.0930 C   0  0  0  0  0  3  0  0  0  0  0  0
  -23.8130   -8.5340   22.2410 C   0  0  0  0  0  3  0  0  0  0  0  0
  -22.7030   -8.2820   21.4000 C   0  0  0  0  0  0  0  0  0  0  0  0
  -22.3700   -9.2170   20.4040 C   0  0  0  0  0  3  0  0  0  0  0  0
  -23.1130  -10.4000   20.2550 C   0  0  0  0  0  3  0  0  0  0  0  0
  -21.9380   -7.1420   21.4530 O   0  0  0  0  0  0  0  0  0  0  0  0
  -21.7900   -6.4290   22.6160 C   0  0  0  0  0  0  0  0  0  0  0  0
  -21.2530   -7.0130   23.7840 C   0  0  0  0  0  3  0  0  0  0  0  0
  -21.0540   -6.2270   24.9360 C   0  0  0  0  0  3  0  0  0  0  0  0
  -21.3810   -4.8570   24.9200 C   0  0  0  0  0  0  0  0  0  0  0  0
  -21.9100   -4.2720   23.7560 C   0  0  0  0  0  3  0  0  0  0  0  0
  -22.1110   -5.0570   22.6060 C   0  0  0  0  0  0  0  0  0  0  0  0
  -22.6010   -4.4840   21.4800 F   0  0  0  0  0  0  0  0  0  0  0  0
  -21.1820   -4.1000   26.0240 F   0  0  0  0  0  0  0  0  0  0  0  0
  -23.0670  -13.7670   21.0370 C   0  0  0  0  0  0  0  0  0  0  0  0
  -22.2670  -13.0970   21.8600 N   0  0  0  0  0  0  0  0  0  0  0  0
  -22.6780  -14.7740   20.4480 O   0  0  0  0  0  0  0  0  0  0  0  0
  -22.5930  -12.2840   22.3580 H   0  0  0  0  0  0  0  0  0  0  0  0
  -21.3150  -13.4060   21.9960 H   0  0  0  0  0  0  0  0  0  0  0  0
  -25.7570  -15.4120   20.3970 N   0  0  0  0  0  0  0  0  0  0  0  0
  -24.9840  -16.0700   20.4140 H   0  0  0  0  0  0  0  0  0  0  0  0
  -26.6290  -15.8350   20.1050 H   0  0  0  0  0  0  0  0  0  0  0  0
  -28.1210  -23.2660   21.9870 C   0  0  0  0  0  1  0  0  0  0  0  0
  -30.3610  -23.8760   21.0850 C   0  0  0  0  0  1  0  0  0  0  0  0
  -28.9620  -23.3620   20.7000 C   0  0  1  0  0  0  0  0  0  0  0  0
  -28.2800  -24.6580   19.7950 C   0  0  0  0  0  2  0  0  0  0  0  0
  -28.4300  -26.2200   20.0280 O   0  0  0  0  0  0  0  0  0  0  0  0
  -24.6840  -31.8520   23.0350 C   0  0  0  0  0  0  0  0  0  0  0  0
  -27.3610  -27.2040   19.9400 C   0  0  0  0  0  0  0  0  0  0  0  0
  -23.5140  -30.4450   21.3850 C   0  0  0  0  0  3  0  0  0  0  0  0
  -24.9960  -28.9240   19.9280 C   0  0  0  0  0  0  0  0  0  0  0  0
  -26.0630  -30.7670   21.2160 C   0  0  0  0  0  2  0  0  0  0  0  0
  -26.1670  -29.3820   20.5440 C   0  0  0  0  0  0  0  0  0  0  0  0
  -27.3460  -28.5370   20.5340 C   0  0  0  0  0  3  0  0  0  0  0  0
  -26.1660  -26.8660   19.2680 C   0  0  0  0  0  3  0  0  0  0  0  0
  -25.0120  -27.6850   19.2700 C   0  0  0  0  0  3  0  0  0  0  0  0
  -23.7480  -29.7930   19.9950 C   0  0  0  0  0  2  0  0  0  0  0  0
  -24.7730  -31.0450   21.9320 N   0  0  0  0  0  0  0  0  0  0  0  0
  -23.5930  -32.1010   23.5720 O   0  0  0  0  0  0  0  0  0  0  0  0
  -22.8650  -29.4100   22.3370 C   0  0  0  0  0  0  0  0  0  0  0  0
  -21.5340  -29.2350   22.2440 N   0  0  0  0  0  0  0  0  0  0  0  0
  -23.5610  -28.7670   23.1260 O   0  0  0  0  0  0  0  0  0  0  0  0
  -21.0270  -29.8040   21.5830 H   0  0  0  0  0  0  0  0  0  0  0  0
  -18.1700  -28.0300   22.8440 C   0  0  0  0  0  0  0  0  0  0  0  0
  -20.7400  -28.2740   23.0140 C   0  0  0  0  0  3  0  0  0  0  0  0
  -20.8090  -26.8630   22.3820 C   0  0  0  0  0  2  0  0  0  0  0  0
  -19.6660  -26.5840   21.4030 C   0  0  0  0  0  2  0  0  0  0  0  0
  -18.3120  -26.7080   22.1070 C   0  0  0  0  0  2  0  0  0  0  0  0
  -19.3090  -28.7720   23.2550 C   0  0  0  0  0  0  0  0  0  0  0  0
  -19.1190  -30.0100   23.9060 C   0  0  0  0  0  3  0  0  0  0  0  0
  -17.8230  -30.5060   24.1490 C   0  0  0  0  0  3  0  0  0  0  0  0
  -16.7000  -29.7590   23.7510 C   0  0  0  0  0  3  0  0  0  0  0  0
  -16.8750  -28.5240   23.1040 C   0  0  0  0  0  3  0  0  0  0  0  0
  -25.9460  -32.5160   23.6640 C   0  0  0  0  0  3  0  0  0  0  0  0
  -26.5020  -31.7300   24.9160 C   0  0  1  0  0  0  0  0  0  0  0  0
  -25.4290  -31.4340   25.9910 C   0  0  0  0  0  1  0  0  0  0  0  0
  -27.1190  -30.3790   24.4880 C   0  0  0  0  0  1  0  0  0  0  0  0
  -27.6360  -32.5420   25.5830 C   0  0  0  0  0  1  0  0  0  0  0  0
  -25.5880  -33.8920   24.0450 N   0  0  0  0  0  0  0  0  0  0  0  0
  -25.9170  -34.9890   23.3500 C   0  0  0  0  0  0  0  0  0  0  0  0
  -26.6200  -34.9510   22.3370 O   0  0  0  0  0  0  0  0  0  0  0  0
  -24.9660  -33.9940   24.8320 H   0  0  0  0  0  0  0  0  0  0  0  0
  -24.1750  -36.7760   23.0150 C   0  0  0  0  0  1  0  0  0  0  0  0
  -25.3850  -36.3440   23.8600 C   0  0  0  0  0  3  0  0  0  0  0  0
  -27.4610  -37.2190   24.8400 C   0  0  0  0  0  1  0  0  0  0  0  0
  -26.4020  -37.4180   23.8530 N   0  0  0  0  0  0  0  0  0  0  0  0
  -25.9730  -38.3220   24.0280 H   0  0  0  0  0  0  0  0  0  0  0  0
  1  2  2  0
  2  4  1  0
  2  5  1  0
  3  1  1  0
  3 55  1  0
  6  3  1  0
  7  9  1  0
  8  7  2  0
  9  1  1  0
 10 11  1  0
 11  9  2  0
 11 23  1  0
 12  8  1  0
 12 10  2  0
 13 10  1  0
 14 12  1  0
 16 21  1  0
 17 18  1  0
 17 16  1  0
 19 18  1  0
 19 28  1  0
 19 20  1  0
 21 15  1  0
 21 20  1  0
 22 15  2  0
 23 15  1  0
 23 24  1  0
 25 26  2  0
 26 27  1  0
 26 45  1  0
 27 30  1  0
 28 25  1  0
 28 29  1  0
 29 27  2  0
 30 31  1  0
 31 32  2  0
 33 36  1  0
 33 32  1  0
 34 33  2  0
 35 34  1  0
 35 30  2  0
 36 37  1  0
 37 38  1  0
 38 39  2  0
 40 39  1  0
 40 44  1  0
 41 40  2  0
 42 37  2  0
 42 41  1  0
 43 42  1  0
 45 46  1  0
 46 49  1  0
 46 48  1  0
 47 45  2  0
 50 51  1  0
 50 25  1  0
 52 50  1  0
 55 54  1  1
 55 53  1  0
 56 57  1  0
 56 55  1  0
 58 69  2  0
 59 57  1  0
 59 64  1  0
 60 68  1  0
 60 70  1  0
 61 67  1  0
 61 63  1  0
 62 68  1  0
 63 62  1  0
 64 63  2  0
 65 66  1  0
 65 59  2  0
 66 61  2  0
 67 60  1  0
 68 58  1  0
 70 72  2  0
 71 70  1  0
 73 71  1  0
 74 83  2  0
 74 79  1  0
 75 71  1  0
 75 79  1  0
 76 75  1  0
 77 78  1  0
 77 76  1  0
 78 74  1  0
 79 80  2  0
 80 81  1  0
 82 81  2  0
 83 82  1  0
 84 58  1  0
 84 89  1  0
 84 85  1  0
 85 88  1  1
 85 86  1  0
 87 85  1  0
 89 92  1  0
 90 94  1  0
 90 89  1  0
 91 90  2  0
 94 93  1  0
 96 94  1  0
 96 97  1  0
 96 95  1  0
M  ISO  4  15 100  23 100  56 101  57 101
M  END
>  <TORSDO>  (82) 
F 19

>  <SCORE>  (82) 
-13.610

>  <name>  (82) 
81

>  <ligand_id>  (82) 
81

>  <original_smiles>  (82) 
[H]c1c([H])c([H])c2c(c1[H])C([H])([H])C([H])([H])C([H])([H])C2([H])N([H])C(=O)C1([H])N(C(=O)C([H])(N([H])C(=O)C([H])(N([H])C([H])([H])[H])C([H])([H])[H])C(C([H])([H])[H])(C([H])([H])[H])C([H])([H])[H])C([H])([H])c2c([H])c(OC([H])([H])C([N+]([H])=C(c3c([H])c([H])c(F)c(C([H])([H])[H])c3N([H])C(=O)N3C([H])([H])C([H])([H])C([H])([H])C([H])(n4nc(-c5c([H])c([H])c(Oc6c([H])c([H])c(F)c([H])c6F)c([H])c5[H])c(C(=O)N([H])[H])c4N([H])[H])C3([H])[H])N([H])[H])(C([H])([H])[H])C([H])([H])[H])c([H])c([H])c2C1([H])[H]

>  <smiles>  (82) 
[H]c1c([H])c([H])c2c(c1[H])C([H])([H])C([H])([H])C([H])([H])C2([H])N([H])C(=O)C1([H])N(C(=O)C([H])(N([H])C(=O)C([H])(N([H])C([H])([H])[H])C([H])([H])[H])C(C([H])([H])[H])(C([H])([H])[H])C([H])([H])[H])C([H])([H])c2c([H])c(OC([H])([H])C([N+]([H])=C(c3c([H])c([H])c(F)c(C([H])([H])[H])c3N([H])C(=O)N3C([H])([H])C([H])([H])C([H])([H])C([H])(n4nc(-c5c([H])c([H])c(Oc6c([H])c([H])c(F)c([H])c6F)c([H])c5[H])c(C(=O)N([H])[H])c4N([H])[H])C3([H])[H])N([H])[H])(C([H])([H])[H])C([H])([H])[H])c([H])c([H])c2C1([H])[H]

$$$$
82:0:0
     RDKit          3D

 94102  0  0  1  0  0  0  0  0999 V2000
  -30.9300  -21.0150   21.1790 C   0  0  0  0  0  2  0  0  0  0  0  0
  -30.0900  -17.4480   18.7090 C   0  0  0  0  0  3  0  0  0  0  0  0
  -30.1950  -18.7280   18.1550 C   0  0  0  0  0  3  0  0  0  0  0  0
  -30.4880  -18.3890   20.9340 C   0  0  0  0  0  0  0  0  0  0  0  0
  -30.5470  -19.7250   20.3690 C   0  0  0  0  0  0  0  0  0  0  0  0
  -30.2400  -17.2350   20.0980 C   0  0  0  0  0  0  0  0  0  0  0  0
  -30.4230  -19.8510   18.9610 C   0  0  0  0  0  0  0  0  0  0  0  0
  -30.7670  -18.1880   22.4210 C   0  0  0  0  0  1  0  0  0  0  0  0
  -30.6430  -21.3520   18.1390 Cl  0  0  0  0  0  0  0  0  0  0  0  0
  -30.7070  -14.7700   20.0920 C   0  0  0  0  0  0  0  0  0  0  0  0
  -30.3210  -12.6070   18.9490 C   0  0  0  0  0  2  0  0  0  0  0  0
  -29.3360  -12.8330   17.7870 C   0  0  0  0  0  2  0  0  0  0  0  0
  -27.8830  -12.6780   18.2810 C   0  0  0  0  0  2  0  0  0  0  0  0
  -27.5990  -13.4720   19.5830 C   0  0  0  0  0  3  0  0  0  0  0  0
  -28.7190  -13.2790   20.6320 C   0  0  0  0  0  2  0  0  0  0  0  0
  -30.0070  -13.5980   19.9970 N   0  0  0  0  0  0  0  0  0  0  0  0
  -31.8410  -14.8770   19.6180 O   0  0  0  0  0  0  0  0  0  0  0  0
  -30.0710  -15.8710   20.5850 N   0  0  0  0  0  0  0  0  0  0  0  0
  -29.2280  -15.6920   21.1100 H   0  0  0  0  0  0  0  0  0  0  0  0
  -25.2380  -14.0000   20.4400 C   0  0  0  0  0  0  0  0  0  0  0  0
  -24.2030  -13.1950   20.8410 C   0  0  0  0  0  0  0  0  0  0  0  0
  -24.6870  -11.8550   20.7500 C   0  0  0  0  0  0  0  0  0  0  0  0
  -26.2830  -13.1460   20.1280 N   0  0  0  0  0  0  0  0  0  0  0  0
  -25.9590  -11.8490   20.3710 N   0  0  0  0  0  0  0  0  0  0  0  0
  -23.9870  -10.5730   20.9450 C   0  0  0  0  0  0  0  0  0  0  0  0
  -24.4550   -9.6120   21.8650 C   0  0  0  0  0  3  0  0  0  0  0  0
  -23.7580   -8.4000   22.0530 C   0  0  0  0  0  3  0  0  0  0  0  0
  -22.5770   -8.1370   21.3190 C   0  0  0  0  0  0  0  0  0  0  0  0
  -22.1260   -9.0890   20.3900 C   0  0  0  0  0  3  0  0  0  0  0  0
  -22.8230  -10.2930   20.2000 C   0  0  0  0  0  3  0  0  0  0  0  0
  -21.8510   -6.9760   21.4180 O   0  0  0  0  0  0  0  0  0  0  0  0
  -21.8090   -6.2450   22.5770 C   0  0  0  0  0  0  0  0  0  0  0  0
  -21.3400   -6.7960   23.7880 C   0  0  0  0  0  3  0  0  0  0  0  0
  -21.2480   -5.9890   24.9400 C   0  0  0  0  0  3  0  0  0  0  0  0
  -21.6190   -4.6330   24.8830 C   0  0  0  0  0  0  0  0  0  0  0  0
  -22.0830   -4.0800   23.6750 C   0  0  0  0  0  3  0  0  0  0  0  0
  -22.1750   -4.8860   22.5260 C   0  0  0  0  0  0  0  0  0  0  0  0
  -22.6010   -4.3430   21.3600 F   0  0  0  0  0  0  0  0  0  0  0  0
  -21.5240   -3.8560   25.9870 F   0  0  0  0  0  0  0  0  0  0  0  0
  -22.8150  -13.6370   21.2040 C   0  0  0  0  0  0  0  0  0  0  0  0
  -22.1450  -12.8990   22.0890 N   0  0  0  0  0  0  0  0  0  0  0  0
  -22.3290  -14.6650   20.7370 O   0  0  0  0  0  0  0  0  0  0  0  0
  -22.5410  -12.0580   22.4840 H   0  0  0  0  0  0  0  0  0  0  0  0
  -21.2240  -13.1860   22.3880 H   0  0  0  0  0  0  0  0  0  0  0  0
  -25.3780  -15.3780   20.2960 N   0  0  0  0  0  0  0  0  0  0  0  0
  -24.6270  -16.0370   20.4740 H   0  0  0  0  0  0  0  0  0  0  0  0
  -26.2290  -15.8310   19.9930 H   0  0  0  0  0  0  0  0  0  0  0  0
  -29.4650  -22.1970   22.7680 C   0  0  0  0  0  3  0  0  0  0  0  0
  -29.9290  -22.1060   21.4970 N   0  0  0  0  0  0  0  0  0  0  0  0
  -29.7670  -21.4320   23.6910 O   0  0  0  0  0  0  0  0  0  0  0  0
  -29.0040  -24.3540   20.7030 C   0  0  0  0  0  3  0  0  0  0  0  0
  -29.6540  -23.1510   20.5440 C   0  0  0  0  0  3  0  0  0  0  0  0
  -28.7530  -25.4020   19.5850 C   0  0  0  0  0  2  0  0  0  0  0  0
  -28.5230  -26.7640   20.0340 O   0  0  0  0  0  0  0  0  0  0  0  0
  -24.6320  -31.8150   23.1700 C   0  0  0  0  0  0  0  0  0  0  0  0
  -27.2970  -27.4270   19.9920 C   0  0  0  0  0  0  0  0  0  0  0  0
  -23.4050  -30.4080   21.5440 C   0  0  0  0  0  3  0  0  0  0  0  0
  -24.8520  -28.9090   20.0480 C   0  0  0  0  0  0  0  0  0  0  0  0
  -25.9160  -30.8120   21.2790 C   0  0  0  0  0  2  0  0  0  0  0  0
  -26.0120  -29.4490   20.6140 C   0  0  0  0  0  0  0  0  0  0  0  0
  -27.2250  -28.7180   20.5740 C   0  0  0  0  0  3  0  0  0  0  0  0
  -26.1120  -26.8960   19.4350 C   0  0  0  0  0  3  0  0  0  0  0  0
  -24.9020  -27.6320   19.4490 C   0  0  0  0  0  3  0  0  0  0  0  0
  -23.5840  -29.7390   20.1520 C   0  0  0  0  0  2  0  0  0  0  0  0
  -24.6730  -31.0240   22.0590 N   0  0  0  0  0  0  0  0  0  0  0  0
  -23.5640  -32.0570   23.7460 O   0  0  0  0  0  0  0  0  0  0  0  0
  -22.8010  -29.3650   22.5090 C   0  0  0  0  0  0  0  0  0  0  0  0
  -21.4870  -29.1110   22.3720 N   0  0  0  0  0  0  0  0  0  0  0  0
  -23.5090  -28.7840   23.3350 O   0  0  0  0  0  0  0  0  0  0  0  0
  -20.9720  -29.6230   21.6680 H   0  0  0  0  0  0  0  0  0  0  0  0
  -18.1970  -27.7000   22.8080 C   0  0  0  0  0  0  0  0  0  0  0  0
  -20.7200  -28.1400   23.1500 C   0  0  0  0  0  3  0  0  0  0  0  0
  -20.9420  -26.7070   22.6140 C   0  0  0  0  0  2  0  0  0  0  0  0
  -19.9000  -26.2830   21.5770 C   0  0  0  0  0  2  0  0  0  0  0  0
  -18.4900  -26.3510   22.1720 C   0  0  0  0  0  2  0  0  0  0  0  0
  -19.2450  -28.5470   23.2520 C   0  0  0  0  0  0  0  0  0  0  0  0
  -18.9250  -29.8070   23.8010 C   0  0  0  0  0  3  0  0  0  0  0  0
  -17.5850  -30.2230   23.9150 C   0  0  0  0  0  3  0  0  0  0  0  0
  -16.5490  -29.3690   23.4970 C   0  0  0  0  0  3  0  0  0  0  0  0
  -16.8540  -28.1110   22.9460 C   0  0  0  0  0  3  0  0  0  0  0  0
  -25.9230  -32.4670   23.7590 C   0  0  0  0  0  3  0  0  0  0  0  0
  -26.4980  -31.6930   25.0070 C   0  0  1  0  0  0  0  0  0  0  0  0
  -25.4500  -31.4240   26.1100 C   0  0  0  0  0  1  0  0  0  0  0  0
  -27.0930  -30.3320   24.5770 C   0  0  0  0  0  1  0  0  0  0  0  0
  -27.6540  -32.5010   25.6420 C   0  0  0  0  0  1  0  0  0  0  0  0
  -25.6000  -33.8540   24.1140 N   0  0  0  0  0  0  0  0  0  0  0  0
  -25.9050  -34.9230   23.3670 C   0  0  0  0  0  0  0  0  0  0  0  0
  -26.5580  -34.8480   22.3220 O   0  0  0  0  0  0  0  0  0  0  0  0
  -25.0310  -33.9910   24.9350 H   0  0  0  0  0  0  0  0  0  0  0  0
  -24.1510  -36.6960   23.0620 C   0  0  0  0  0  1  0  0  0  0  0  0
  -25.4020  -36.2940   23.8590 C   0  0  0  0  0  3  0  0  0  0  0  0
  -27.5260  -37.1920   24.7010 C   0  0  0  0  0  1  0  0  0  0  0  0
  -26.4180  -37.3640   23.7630 N   0  0  0  0  0  0  0  0  0  0  0  0
  -25.9980  -38.2740   23.9380 H   0  0  0  0  0  0  0  0  0  0  0  0
  1 49  1  0
  2  6  1  0
  3  2  2  0
  3  7  1  0
  4  8  1  0
  5  4  1  0
  5  1  1  0
  6 18  1  0
  6  4  2  0
  7  5  2  0
  9  7  1  0
 10 18  1  0
 11 16  1  0
 12 13  1  0
 12 11  1  0
 14 13  1  0
 14 23  1  0
 14 15  1  0
 16 10  1  0
 16 15  1  0
 17 10  2  0
 18 19  1  0
 20 21  2  0
 21 40  1  0
 22 21  1  0
 22 25  1  0
 23 24  1  0
 23 20  1  0
 24 22  2  0
 25 26  1  0
 26 27  2  0
 28 31  1  0
 28 27  1  0
 29 28  2  0
 30 29  1  0
 30 25  2  0
 31 32  1  0
 32 33  1  0
 33 34  2  0
 35 34  1  0
 35 39  1  0
 36 35  2  0
 37 32  2  0
 37 36  1  0
 38 37  1  0
 40 41  1  0
 41 44  1  0
 41 43  1  0
 42 40  2  0
 45 20  1  0
 45 46  1  0
 47 45  1  0
 48 50  2  0
 49 48  1  0
 52 51  2  0
 52 49  1  0
 53 54  1  0
 53 51  1  0
 55 66  2  0
 56 54  1  0
 56 61  1  0
 57 65  1  0
 57 67  1  0
 58 64  1  0
 58 60  1  0
 59 65  1  0
 60 59  1  0
 61 60  2  0
 62 63  1  0
 62 56  2  0
 63 58  2  0
 64 57  1  0
 65 55  1  0
 67 69  2  0
 68 67  1  0
 70 68  1  0
 71 80  2  0
 71 76  1  0
 72 68  1  0
 72 76  1  0
 73 72  1  0
 74 75  1  0
 74 73  1  0
 75 71  1  0
 76 77  2  0
 77 78  1  0
 79 78  2  0
 80 79  1  0
 81 55  1  0
 81 86  1  0
 81 82  1  0
 82 85  1  1
 82 83  1  0
 84 82  1  0
 86 89  1  0
 87 91  1  0
 87 86  1  0
 88 87  2  0
 91 90  1  0
 93 91  1  0
 93 94  1  0
 93 92  1  0
M  ISO  4  10 100  18 100  53 101  54 101
M  END
>  <TORSDO>  (83) 
F 20

>  <SCORE>  (83) 
-13.751

>  <name>  (83) 
82

>  <ligand_id>  (83) 
82

>  <original_smiles>  (83) 
[H]C(=O)N(C([H])=C([H])C([H])([H])Oc1c([H])c([H])c2c(c1[H])C([H])([H])N(C(=O)C([H])(N([H])C(=O)C([H])(N([H])C([H])([H])[H])C([H])([H])[H])C(C([H])([H])[H])(C([H])([H])[H])C([H])([H])[H])C([H])(C(=O)N([H])C1([H])c3c([H])c([H])c([H])c([H])c3C([H])([H])C([H])([H])C1([H])[H])C2([H])[H])C([H])([H])c1c(Cl)c([H])c([H])c(N([H])C(=O)N2C([H])([H])C([H])([H])C([H])([H])C([H])(n3nc(-c4c([H])c([H])c(Oc5c([H])c([H])c(F)c([H])c5F)c([H])c4[H])c(C(=O)N([H])[H])c3N([H])[H])C2([H])[H])c1C([H])([H])[H]

>  <smiles>  (83) 
[H]C(=O)N(C([H])=C([H])C([H])([H])Oc1c([H])c([H])c2c(c1[H])C([H])([H])N(C(=O)C([H])(N([H])C(=O)C([H])(N([H])C([H])([H])[H])C([H])([H])[H])C(C([H])([H])[H])(C([H])([H])[H])C([H])([H])[H])C([H])(C(=O)N([H])C1([H])c3c([H])c([H])c([H])c([H])c3C([H])([H])C([H])([H])C1([H])[H])C2([H])[H])C([H])([H])c1c(Cl)c([H])c([H])c(N([H])C(=O)N2C([H])([H])C([H])([H])C([H])([H])C([H])(n3nc(-c4c([H])c([H])c(Oc5c([H])c([H])c(F)c([H])c5F)c([H])c4[H])c(C(=O)N([H])[H])c3N([H])[H])C2([H])[H])c1C([H])([H])[H]

$$$$
83:0:0
     RDKit          3D

 94102  0  0  1  0  0  0  0  0999 V2000
  -28.8910  -22.3740   21.2370 C   0  0  0  0  0  0  0  0  0  0  0  0
  -28.5670  -21.1330   20.8510 N   0  0  0  0  0  0  0  0  0  0  0  0
  -29.4340  -22.6100   22.3190 O   0  0  0  0  0  0  0  0  0  0  0  0
  -28.1050  -21.0280   19.9590 H   0  0  0  0  0  0  0  0  0  0  0  0
  -28.5440  -23.3720   20.2390 C   0  0  0  0  0  3  0  0  0  0  0  0
  -29.0620  -24.6140   20.3170 C   0  0  0  0  0  3  0  0  0  0  0  0
  -28.8150  -25.7450   19.3400 C   0  0  0  0  0  2  0  0  0  0  0  0
  -28.5800  -26.9660   20.0420 O   0  0  0  0  0  0  0  0  0  0  0  0
  -24.6280  -31.9190   23.2190 C   0  0  0  0  0  0  0  0  0  0  0  0
  -27.3440  -27.5760   20.0660 C   0  0  0  0  0  0  0  0  0  0  0  0
  -23.4330  -30.5170   21.5640 C   0  0  0  0  0  3  0  0  0  0  0  0
  -24.9080  -29.0180   20.1260 C   0  0  0  0  0  0  0  0  0  0  0  0
  -25.9500  -30.9320   21.3530 C   0  0  0  0  0  2  0  0  0  0  0  0
  -26.0570  -29.5660   20.7070 C   0  0  0  0  0  0  0  0  0  0  0  0
  -27.2730  -28.8490   20.6770 C   0  0  0  0  0  3  0  0  0  0  0  0
  -26.1650  -27.0270   19.5060 C   0  0  0  0  0  3  0  0  0  0  0  0
  -24.9550  -27.7460   19.5310 C   0  0  0  0  0  3  0  0  0  0  0  0
  -23.6460  -29.8500   20.1800 C   0  0  0  0  0  2  0  0  0  0  0  0
  -24.6890  -31.1370   22.1040 N   0  0  0  0  0  0  0  0  0  0  0  0
  -23.5440  -32.1650   23.7680 O   0  0  0  0  0  0  0  0  0  0  0  0
  -22.8060  -29.4740   22.5160 C   0  0  0  0  0  0  0  0  0  0  0  0
  -21.4920  -29.2420   22.3620 N   0  0  0  0  0  0  0  0  0  0  0  0
  -23.4960  -28.8750   23.3440 O   0  0  0  0  0  0  0  0  0  0  0  0
  -20.9950  -29.7820   21.6670 H   0  0  0  0  0  0  0  0  0  0  0  0
  -18.1620  -27.9010   22.7560 C   0  0  0  0  0  0  0  0  0  0  0  0
  -20.6940  -28.2760   23.1130 C   0  0  0  0  0  3  0  0  0  0  0  0
  -20.8800  -26.8450   22.5570 C   0  0  0  0  0  2  0  0  0  0  0  0
  -19.8290  -26.4620   21.5090 C   0  0  0  0  0  2  0  0  0  0  0  0
  -18.4200  -26.5520   22.1040 C   0  0  0  0  0  2  0  0  0  0  0  0
  -19.2300  -28.7160   23.2140 C   0  0  0  0  0  0  0  0  0  0  0  0
  -18.9370  -29.9760   23.7820 C   0  0  0  0  0  3  0  0  0  0  0  0
  -17.6080  -30.4240   23.8920 C   0  0  0  0  0  3  0  0  0  0  0  0
  -16.5530  -29.6050   23.4500 C   0  0  0  0  0  3  0  0  0  0  0  0
  -16.8310  -28.3460   22.8910 C   0  0  0  0  0  3  0  0  0  0  0  0
  -25.9060  -32.5600   23.8440 C   0  0  0  0  0  3  0  0  0  0  0  0
  -26.4290  -31.7880   25.1170 C   0  0  1  0  0  0  0  0  0  0  0  0
  -25.3310  -31.5170   26.1710 C   0  0  0  0  0  1  0  0  0  0  0  0
  -27.0450  -30.4290   24.7120 C   0  0  0  0  0  1  0  0  0  0  0  0
  -27.5540  -32.6000   25.7990 C   0  0  0  0  0  1  0  0  0  0  0  0
  -25.5830  -33.9530   24.1770 N   0  0  0  0  0  0  0  0  0  0  0  0
  -25.9150  -35.0110   23.4250 C   0  0  0  0  0  0  0  0  0  0  0  0
  -26.5960  -34.9170   22.3990 O   0  0  0  0  0  0  0  0  0  0  0  0
  -24.9760  -34.0990   24.9700 H   0  0  0  0  0  0  0  0  0  0  0  0
  -24.1710  -36.7860   23.0590 C   0  0  0  0  0  1  0  0  0  0  0  0
  -25.4080  -36.3920   23.8820 C   0  0  0  0  0  3  0  0  0  0  0  0
  -27.5240  -37.2940   24.7410 C   0  0  0  0  0  1  0  0  0  0  0  0
  -26.4320  -37.4550   23.7840 N   0  0  0  0  0  0  0  0  0  0  0  0
  -26.0160  -38.3710   23.9270 H   0  0  0  0  0  0  0  0  0  0  0  0
  -28.7570  -19.9130   21.6410 C   0  0  0  0  0  2  0  0  0  0  0  0
  -29.6710  -17.5850   21.1250 C   0  0  0  0  0  3  0  0  0  0  0  0
  -31.1050  -19.5120   20.7190 C   0  0  0  0  0  3  0  0  0  0  0  0
  -31.9500  -17.2580   20.3300 C   0  0  0  0  0  3  0  0  0  0  0  0
  -29.8630  -18.9870   21.1360 C   0  0  0  0  0  0  0  0  0  0  0  0
  -30.6980  -16.7100   20.7000 C   0  0  0  0  0  0  0  0  0  0  0  0
  -32.1470  -18.6520   20.3300 C   0  0  0  0  0  0  0  0  0  0  0  0
  -33.6770  -19.3030   19.8680 Cl  0  0  0  0  0  0  0  0  0  0  0  0
  -30.9770  -14.3590   19.9020 C   0  0  0  0  0  0  0  0  0  0  0  0
  -30.5750  -12.1760   18.8200 C   0  0  0  0  0  2  0  0  0  0  0  0
  -29.5470  -12.3430   17.6830 C   0  0  0  0  0  2  0  0  0  0  0  0
  -28.1070  -12.2290   18.2200 C   0  0  0  0  0  2  0  0  0  0  0  0
  -27.8650  -13.1140   19.4710 C   0  0  0  0  0  3  0  0  0  0  0  0
  -28.9950  -12.9160   20.5090 C   0  0  0  0  0  2  0  0  0  0  0  0
  -30.2840  -13.1910   19.8460 N   0  0  0  0  0  0  0  0  0  0  0  0
  -32.0020  -14.5510   19.2390 O   0  0  0  0  0  0  0  0  0  0  0  0
  -30.4360  -15.3050   20.6920 N   0  0  0  0  0  0  0  0  0  0  0  0
  -29.5970  -15.0070   21.1660 H   0  0  0  0  0  0  0  0  0  0  0  0
  -25.5500  -13.7660   20.3880 C   0  0  0  0  0  0  0  0  0  0  0  0
  -24.4970  -13.0100   20.8310 C   0  0  0  0  0  0  0  0  0  0  0  0
  -24.9190  -11.6490   20.7330 C   0  0  0  0  0  0  0  0  0  0  0  0
  -26.5480  -12.8650   20.0530 N   0  0  0  0  0  0  0  0  0  0  0  0
  -26.1760  -11.5860   20.3140 N   0  0  0  0  0  0  0  0  0  0  0  0
  -24.1810  -10.4010   20.9580 C   0  0  0  0  0  0  0  0  0  0  0  0
  -24.6010   -9.4590   21.9250 C   0  0  0  0  0  3  0  0  0  0  0  0
  -23.8650   -8.2740   22.1380 C   0  0  0  0  0  3  0  0  0  0  0  0
  -22.6950   -8.0200   21.3830 C   0  0  0  0  0  0  0  0  0  0  0  0
  -22.2950   -8.9490   20.4050 C   0  0  0  0  0  3  0  0  0  0  0  0
  -23.0310  -10.1260   20.1920 C   0  0  0  0  0  3  0  0  0  0  0  0
  -21.9310   -6.8850   21.5010 O   0  0  0  0  0  0  0  0  0  0  0  0
  -21.7790   -6.2410   22.7020 C   0  0  0  0  0  0  0  0  0  0  0  0
  -21.2320   -6.8920   23.8310 C   0  0  0  0  0  3  0  0  0  0  0  0
  -21.0290   -6.1740   25.0270 C   0  0  0  0  0  3  0  0  0  0  0  0
  -21.3630   -4.8080   25.0960 C   0  0  0  0  0  0  0  0  0  0  0  0
  -21.9030   -4.1580   23.9710 C   0  0  0  0  0  3  0  0  0  0  0  0
  -22.1070   -4.8730   22.7780 C   0  0  0  0  0  0  0  0  0  0  0  0
  -22.6070   -4.2360   21.6910 F   0  0  0  0  0  0  0  0  0  0  0  0
  -21.1610   -4.1170   26.2410 F   0  0  0  0  0  0  0  0  0  0  0  0
  -23.1410  -13.5120   21.2340 C   0  0  0  0  0  0  0  0  0  0  0  0
  -22.4770  -12.8120   22.1490 N   0  0  0  0  0  0  0  0  0  0  0  0
  -22.6840  -14.5580   20.7740 O   0  0  0  0  0  0  0  0  0  0  0  0
  -22.8640  -11.9660   22.5360 H   0  0  0  0  0  0  0  0  0  0  0  0
  -21.5730  -13.1310   22.4680 H   0  0  0  0  0  0  0  0  0  0  0  0
  -25.7340  -15.1360   20.2270 N   0  0  0  0  0  0  0  0  0  0  0  0
  -24.9940  -15.8060   20.4080 H   0  0  0  0  0  0  0  0  0  0  0  0
  -26.5640  -15.5620   19.8300 H   0  0  0  0  0  0  0  0  0  0  0  0
  1  3  2  0
  2  1  1  0
  2 49  1  0
  4  2  1  0
  5  6  2  0
  5  1  1  0
  7  8  1  0
  7  6  1  0
  8 10  1  0
  9 20  2  0
 10 15  1  0
 11 19  1  0
 11 21  1  0
 12 18  1  0
 12 14  1  0
 13 19  1  0
 14 13  1  0
 15 14  2  0
 16 17  1  0
 16 10  2  0
 17 12  2  0
 18 11  1  0
 19  9  1  0
 21 23  2  0
 22 21  1  0
 24 22  1  0
 25 34  2  0
 25 30  1  0
 26 22  1  0
 26 30  1  0
 27 26  1  0
 28 29  1  0
 28 27  1  0
 29 25  1  0
 30 31  2  0
 31 32  1  0
 33 32  2  0
 34 33  1  0
 35  9  1  0
 35 40  1  0
 35 36  1  0
 36 39  1  1
 36 37  1  0
 38 36  1  0
 40 43  1  0
 41 45  1  0
 41 40  1  0
 42 41  2  0
 45 44  1  0
 47 45  1  0
 47 48  1  0
 47 46  1  0
 50 53  1  0
 51 53  2  0
 52 54  1  0
 53 49  1  0
 54 50  2  0
 55 52  2  0
 55 51  1  0
 56 55  1  0
 57 65  1  0
 58 63  1  0
 59 60  1  0
 59 58  1  0
 61 60  1  0
 61 70  1  0
 61 62  1  0
 63 57  1  0
 63 62  1  0
 64 57  2  0
 65 54  1  0
 65 66  1  0
 67 68  2  0
 68 87  1  0
 69 68  1  0
 69 72  1  0
 70 71  1  0
 70 67  1  0
 71 69  2  0
 72 73  1  0
 73 74  2  0
 75 78  1  0
 75 74  1  0
 76 75  2  0
 77 76  1  0
 77 72  2  0
 78 79  1  0
 79 84  2  0
 79 80  1  0
 80 81  2  0
 81 82  1  0
 82 86  1  0
 83 82  2  0
 84 83  1  0
 85 84  1  0
 87 88  1  0
 88 91  1  0
 88 90  1  0
 89 87  2  0
 92 67  1  0
 92 93  1  0
 94 92  1  0
M  ISO  4   7 101   8 101  57 100  65 100
M  END
>  <TORSDO>  (84) 
F 20

>  <SCORE>  (84) 
-12.650

>  <name>  (84) 
83

>  <ligand_id>  (84) 
83

>  <original_smiles>  (84) 
[H]C(C(=O)N([H])C([H])([H])c1c([H])c(Cl)c([H])c(N([H])C(=O)N2C([H])([H])C([H])([H])C([H])([H])C([H])(n3nc(-c4c([H])c([H])c(Oc5c([H])c([H])c(F)c([H])c5F)c([H])c4[H])c(C(=O)N([H])[H])c3N([H])[H])C2([H])[H])c1[H])=C([H])C([H])([H])Oc1c([H])c([H])c2c(c1[H])C([H])([H])N(C(=O)C([H])(N([H])C(=O)C([H])(N([H])C([H])([H])[H])C([H])([H])[H])C(C([H])([H])[H])(C([H])([H])[H])C([H])([H])[H])C([H])(C(=O)N([H])C1([H])c3c([H])c([H])c([H])c([H])c3C([H])([H])C([H])([H])C1([H])[H])C2([H])[H]

>  <smiles>  (84) 
[H]C(C(=O)N([H])C([H])([H])c1c([H])c(Cl)c([H])c(N([H])C(=O)N2C([H])([H])C([H])([H])C([H])([H])C([H])(n3nc(-c4c([H])c([H])c(Oc5c([H])c([H])c(F)c([H])c5F)c([H])c4[H])c(C(=O)N([H])[H])c3N([H])[H])C2([H])[H])c1[H])=C([H])C([H])([H])Oc1c([H])c([H])c2c(c1[H])C([H])([H])N(C(=O)C([H])(N([H])C(=O)C([H])(N([H])C([H])([H])[H])C([H])([H])[H])C(C([H])([H])[H])(C([H])([H])[H])C([H])([H])[H])C([H])(C(=O)N([H])C1([H])c3c([H])c([H])c([H])c([H])c3C([H])([H])C([H])([H])C1([H])[H])C2([H])[H]

$$$$
84:0:0
     RDKit          3D

 97105  0  0  1  0  0  0  0  0999 V2000
  -28.7980  -21.5960   20.6400 C   0  0  0  0  0  0  0  0  0  0  0  0
  -27.4730  -21.4790   20.5970 N   0  0  0  0  0  4  0  0  0  0  0  0
  -29.3650  -22.8090   20.5650 N   0  0  0  0  0  0  0  0  0  0  0  0
  -27.0500  -20.5690   20.7050 H   0  0  0  0  0  0  0  0  0  0  0  0
  -26.8710  -22.2710   20.4430 H   0  0  0  0  0  0  0  0  0  0  0  0
  -30.3750  -22.7910   20.4680 H   0  0  0  0  0  0  0  0  0  0  0  0
  -30.6990  -20.5880   21.7880 C   0  0  0  0  0  3  0  0  0  0  0  0
  -31.6500  -19.5810   22.0120 C   0  0  0  0  0  3  0  0  0  0  0  0
  -29.6800  -20.4330   20.8190 C   0  0  0  0  0  0  0  0  0  0  0  0
  -29.6070  -19.2230   20.0600 C   0  0  0  0  0  0  0  0  0  0  0  0
  -30.6100  -18.2250   20.2620 C   0  0  0  0  0  0  0  0  0  0  0  0
  -31.6110  -18.4110   21.2430 C   0  0  0  0  0  0  0  0  0  0  0  0
  -28.5170  -18.9920   19.0090 C   0  0  0  0  0  1  0  0  0  0  0  0
  -32.5690  -17.4680   21.4290 F   0  0  0  0  0  0  0  0  0  0  0  0
  -30.7250  -17.0000   19.3590 C   0  0  0  0  0  2  0  0  0  0  0  0
  -31.0200  -14.6080   19.7710 C   0  0  0  0  0  0  0  0  0  0  0  0
  -30.6850  -12.3050   19.0200 C   0  0  0  0  0  2  0  0  0  0  0  0
  -29.7170  -12.3290   17.8200 C   0  0  0  0  0  2  0  0  0  0  0  0
  -28.2610  -12.2480   18.3150 C   0  0  0  0  0  2  0  0  0  0  0  0
  -27.9420  -13.2510   19.4610 C   0  0  0  0  0  3  0  0  0  0  0  0
  -29.0430  -13.2460   20.5480 C   0  0  0  0  0  2  0  0  0  0  0  0
  -30.3430  -13.4410   19.8850 N   0  0  0  0  0  0  0  0  0  0  0  0
  -32.1520  -14.6790   19.2890 O   0  0  0  0  0  0  0  0  0  0  0  0
  -30.3000  -15.7230   19.9490 N   0  0  0  0  0  0  0  0  0  0  0  0
  -29.3560  -15.6330   20.2950 H   0  0  0  0  0  0  0  0  0  0  0  0
  -25.6300  -13.9150   20.3790 C   0  0  0  0  0  0  0  0  0  0  0  0
  -24.5650  -13.1730   20.8030 C   0  0  0  0  0  0  0  0  0  0  0  0
  -24.9660  -11.8060   20.6890 C   0  0  0  0  0  0  0  0  0  0  0  0
  -26.6200  -13.0070   20.0330 N   0  0  0  0  0  0  0  0  0  0  0  0
  -26.2270  -11.7300   20.2800 N   0  0  0  0  0  0  0  0  0  0  0  0
  -24.2090  -10.5660   20.8870 C   0  0  0  0  0  0  0  0  0  0  0  0
  -24.6170   -9.6000   21.8320 C   0  0  0  0  0  3  0  0  0  0  0  0
  -23.8590   -8.4240   22.0220 C   0  0  0  0  0  3  0  0  0  0  0  0
  -22.6840   -8.2030   21.2630 C   0  0  0  0  0  0  0  0  0  0  0  0
  -22.3000   -9.1590   20.3060 C   0  0  0  0  0  3  0  0  0  0  0  0
  -23.0570  -10.3250   20.1150 C   0  0  0  0  0  3  0  0  0  0  0  0
  -21.9020   -7.0780   21.3550 O   0  0  0  0  0  0  0  0  0  0  0  0
  -21.7470   -6.4050   22.5410 C   0  0  0  0  0  0  0  0  0  0  0  0
  -21.1860   -7.0200   23.6810 C   0  0  0  0  0  3  0  0  0  0  0  0
  -20.9810   -6.2710   24.8560 C   0  0  0  0  0  3  0  0  0  0  0  0
  -21.3290   -4.9070   24.8910 C   0  0  0  0  0  0  0  0  0  0  0  0
  -21.8840   -4.2910   23.7560 C   0  0  0  0  0  3  0  0  0  0  0  0
  -22.0890   -5.0370   22.5830 C   0  0  0  0  0  0  0  0  0  0  0  0
  -22.6020   -4.4330   21.4820 F   0  0  0  0  0  0  0  0  0  0  0  0
  -21.1270   -4.1840   26.0190 F   0  0  0  0  0  0  0  0  0  0  0  0
  -23.2110  -13.6900   21.2030 C   0  0  0  0  0  0  0  0  0  0  0  0
  -22.5340  -12.9940   22.1070 N   0  0  0  0  0  0  0  0  0  0  0  0
  -22.7700  -14.7460   20.7470 O   0  0  0  0  0  0  0  0  0  0  0  0
  -22.9030  -12.1350   22.4910 H   0  0  0  0  0  0  0  0  0  0  0  0
  -21.6330  -13.3220   22.4260 H   0  0  0  0  0  0  0  0  0  0  0  0
  -25.8380  -15.2820   20.2400 N   0  0  0  0  0  0  0  0  0  0  0  0
  -25.1060  -15.9610   20.4170 H   0  0  0  0  0  0  0  0  0  0  0  0
  -26.6630  -15.6860   19.8180 H   0  0  0  0  0  0  0  0  0  0  0  0
  -28.7780  -24.1610   20.6100 C   0  0  0  0  0  2  0  0  0  0  0  0
  -28.1070  -24.5900   19.2940 C   0  0  0  0  0  2  0  0  0  0  0  0
  -28.4690  -26.0360   18.8970 C   0  0  0  0  0  2  0  0  0  0  0  0
  -28.2490  -26.9880   19.9340 O   0  0  0  0  0  0  0  0  0  0  0  0
  -24.6100  -32.0040   23.3640 C   0  0  0  0  0  0  0  0  0  0  0  0
  -27.0530  -27.6630   19.9980 C   0  0  0  0  0  0  0  0  0  0  0  0
  -23.3040  -30.6620   21.7430 C   0  0  0  0  0  3  0  0  0  0  0  0
  -24.6680  -29.1590   20.2020 C   0  0  0  0  0  0  0  0  0  0  0  0
  -25.8190  -31.0080   21.4320 C   0  0  0  0  0  2  0  0  0  0  0  0
  -25.8540  -29.6520   20.7580 C   0  0  0  0  0  0  0  0  0  0  0  0
  -27.0410  -28.9000   20.6750 C   0  0  0  0  0  3  0  0  0  0  0  0
  -25.8520  -27.1850   19.4240 C   0  0  0  0  0  3  0  0  0  0  0  0
  -24.6590  -27.9200   19.5410 C   0  0  0  0  0  3  0  0  0  0  0  0
  -23.4340  -30.0190   20.3350 C   0  0  0  0  0  2  0  0  0  0  0  0
  -24.5980  -31.2390   22.2370 N   0  0  0  0  0  0  0  0  0  0  0  0
  -23.5600  -32.2730   23.9630 O   0  0  0  0  0  0  0  0  0  0  0  0
  -22.6920  -29.6180   22.7030 C   0  0  0  0  0  0  0  0  0  0  0  0
  -21.3830  -29.3650   22.5470 N   0  0  0  0  0  0  0  0  0  0  0  0
  -23.3910  -29.0340   23.5380 O   0  0  0  0  0  0  0  0  0  0  0  0
  -20.8870  -29.8850   21.8370 H   0  0  0  0  0  0  0  0  0  0  0  0
  -18.0770  -27.9570   22.9170 C   0  0  0  0  0  0  0  0  0  0  0  0
  -20.5950  -28.3980   23.3090 C   0  0  0  0  0  3  0  0  0  0  0  0
  -20.8190  -26.9610   22.7840 C   0  0  0  0  0  2  0  0  0  0  0  0
  -19.7980  -26.5480   21.7160 C   0  0  0  0  0  2  0  0  0  0  0  0
  -18.3810  -26.6080   22.2920 C   0  0  0  0  0  2  0  0  0  0  0  0
  -19.1190  -28.8080   23.3770 C   0  0  0  0  0  0  0  0  0  0  0  0
  -18.7870  -30.0690   23.9190 C   0  0  0  0  0  3  0  0  0  0  0  0
  -17.4440  -30.4820   24.0070 C   0  0  0  0  0  3  0  0  0  0  0  0
  -16.4170  -29.6350   23.5590 C   0  0  0  0  0  3  0  0  0  0  0  0
  -16.7340  -28.3730   23.0260 C   0  0  0  0  0  3  0  0  0  0  0  0
  -25.9330  -32.6000   23.9370 C   0  0  0  0  0  3  0  0  0  0  0  0
  -25.6780  -34.0080   24.2730 N   0  0  0  0  0  0  0  0  0  0  0  0
  -26.0150  -35.0460   23.4960 C   0  0  0  0  0  0  0  0  0  0  0  0
  -26.6480  -34.9170   22.4450 O   0  0  0  0  0  0  0  0  0  0  0  0
  -25.1280  -34.1810   25.1020 H   0  0  0  0  0  0  0  0  0  0  0  0
  -24.3300  -36.8820   23.1660 C   0  0  0  0  0  1  0  0  0  0  0  0
  -25.5780  -36.4510   23.9580 C   0  0  0  0  0  3  0  0  0  0  0  0
  -27.7470  -37.2810   24.7490 C   0  0  0  0  0  1  0  0  0  0  0  0
  -26.6400  -37.4720   23.8160 N   0  0  0  0  0  0  0  0  0  0  0  0
  -26.2660  -38.4050   23.9530 H   0  0  0  0  0  0  0  0  0  0  0  0
  -26.4710  -31.8100   25.1900 C   0  0  1  0  0  0  0  0  0  0  0  0
  -25.4030  -31.5650   26.2800 C   0  0  0  0  0  1  0  0  0  0  0  0
  -27.0340  -30.4330   24.7610 C   0  0  0  0  0  1  0  0  0  0  0  0
  -27.6470  -32.5850   25.8300 C   0  0  0  0  0  1  0  0  0  0  0  0
  1  9  1  0
  2  1  2  0
  2  4  1  0
  3 54  1  0
  3  1  1  0
  5  2  1  0
  6  3  1  0
  7  8  1  0
  9  7  2  0
 10 11  2  0
 10  9  1  0
 11 12  1  0
 12 14  1  0
 12  8  2  0
 13 10  1  0
 15 24  1  0
 15 11  1  0
 16 22  1  0
 16 24  1  0
 17 22  1  0
 18 19  1  0
 18 17  1  0
 20 19  1  0
 20 29  1  0
 20 21  1  0
 22 21  1  0
 23 16  2  0
 24 25  1  0
 26 27  2  0
 27 46  1  0
 28 27  1  0
 28 31  1  0
 29 30  1  0
 29 26  1  0
 30 28  2  0
 31 32  1  0
 32 33  2  0
 34 37  1  0
 34 33  1  0
 35 34  2  0
 36 35  1  0
 36 31  2  0
 37 38  1  0
 38 43  2  0
 38 39  1  0
 39 40  2  0
 40 41  1  0
 41 45  1  0
 42 41  2  0
 43 42  1  0
 44 43  1  0
 46 47  1  0
 47 50  1  0
 47 49  1  0
 48 46  2  0
 51 26  1  0
 51 52  1  0
 53 51  1  0
 55 54  1  0
 56 55  1  0
 56 57  1  0
 57 59  1  0
 58 69  2  0
 59 64  1  0
 60 68  1  0
 60 70  1  0
 61 67  1  0
 61 63  1  0
 62 68  1  0
 63 62  1  0
 64 63  2  0
 65 66  1  0
 65 59  2  0
 66 61  2  0
 67 60  1  0
 68 58  1  0
 70 72  2  0
 71 70  1  0
 73 71  1  0
 74 83  2  0
 74 79  1  0
 75 71  1  0
 75 79  1  0
 76 75  1  0
 77 78  1  0
 77 76  1  0
 78 74  1  0
 79 80  2  0
 80 81  1  0
 82 81  2  0
 83 82  1  0
 84 58  1  0
 84 85  1  0
 84 94  1  0
 85 88  1  0
 86 90  1  0
 86 85  1  0
 87 86  2  0
 90 89  1  0
 92 93  1  0
 92 90  1  0
 92 91  1  0
 94 97  1  1
 94 95  1  0
 96 94  1  0
M  ISO  4  16 100  24 100  56 101  57 101
M  END
>  <TORSDO>  (85) 
F 21

>  <SCORE>  (85) 
-13.419

>  <name>  (85) 
84

>  <ligand_id>  (85) 
84

>  <original_smiles>  (85) 
[H]c1c([H])c([H])c2c(c1[H])C([H])([H])C([H])([H])C([H])([H])C2([H])N([H])C(=O)C1([H])N(C(=O)C([H])(N([H])C(=O)C([H])(N([H])C([H])([H])[H])C([H])([H])[H])C(C([H])([H])[H])(C([H])([H])[H])C([H])([H])[H])C([H])([H])c2c([H])c(OC([H])([H])C([H])([H])C([H])([H])[N+]([H])=C(c3c([H])c([H])c(F)c(C([H])([H])N([H])C(=O)N4C([H])([H])C([H])([H])C([H])([H])C([H])(n5nc(-c6c([H])c([H])c(Oc7c([H])c([H])c(F)c([H])c7F)c([H])c6[H])c(C(=O)N([H])[H])c5N([H])[H])C4([H])[H])c3C([H])([H])[H])N([H])[H])c([H])c([H])c2C1([H])[H]

>  <smiles>  (85) 
[H]c1c([H])c([H])c2c(c1[H])C([H])([H])C([H])([H])C([H])([H])C2([H])N([H])C(=O)C1([H])N(C(=O)C([H])(N([H])C(=O)C([H])(N([H])C([H])([H])[H])C([H])([H])[H])C(C([H])([H])[H])(C([H])([H])[H])C([H])([H])[H])C([H])([H])c2c([H])c(OC([H])([H])C([H])([H])C([H])([H])[N+]([H])=C(c3c([H])c([H])c(F)c(C([H])([H])N([H])C(=O)N4C([H])([H])C([H])([H])C([H])([H])C([H])(n5nc(-c6c([H])c([H])c(Oc7c([H])c([H])c(F)c([H])c7F)c([H])c6[H])c(C(=O)N([H])[H])c5N([H])[H])C4([H])[H])c3C([H])([H])[H])N([H])[H])c([H])c([H])c2C1([H])[H]

$$$$
85:0:0
     RDKit          3D

102111  0  0  1  0  0  0  0  0999 V2000
  -30.2010  -20.8110   16.6640 C   0  0  0  0  0  3  0  0  0  0  0  0
  -30.0390  -21.4310   15.4160 C   0  0  0  0  0  3  0  0  0  0  0  0
  -30.4360  -23.5810   16.4650 C   0  0  0  0  0  3  0  0  0  0  0  0
  -30.6050  -22.9780   17.7350 C   0  0  0  0  0  0  0  0  0  0  0  0
  -30.4980  -21.5510   17.8480 C   0  0  0  0  0  0  0  0  0  0  0  0
  -30.1390  -22.8220   15.3200 C   0  0  0  0  0  0  0  0  0  0  0  0
  -29.8830  -23.5900   13.7950 Cl  0  0  0  0  0  0  0  0  0  0  0  0
  -30.9230  -23.9110   18.8800 C   0  0  0  0  0  0  0  0  0  0  0  0
  -29.9940  -24.0610   19.8410 N   0  0  0  0  0  0  0  0  0  0  0  0
  -31.9490  -24.5960   18.8450 O   0  0  0  0  0  0  0  0  0  0  0  0
  -29.1780  -23.4690   19.7580 H   0  0  0  0  0  0  0  0  0  0  0  0
  -30.4240  -24.7280   22.2310 C   0  0  0  0  0  1  0  0  0  0  0  0
  -29.9460  -25.1540   20.8320 C   0  0  0  0  0  3  0  0  0  0  0  0
  -28.5250  -25.7420   20.9260 C   0  0  0  0  0  2  0  0  0  0  0  0
  -28.3600  -26.7380   19.9360 O   0  0  0  0  0  0  0  0  0  0  0  0
  -24.5250  -31.8310   23.1470 C   0  0  0  0  0  0  0  0  0  0  0  0
  -27.1830  -27.4320   20.0330 C   0  0  0  0  0  0  0  0  0  0  0  0
  -23.3230  -30.4390   21.4890 C   0  0  0  0  0  3  0  0  0  0  0  0
  -24.7810  -28.9000   20.0730 C   0  0  0  0  0  0  0  0  0  0  0  0
  -25.8450  -30.8010   21.3060 C   0  0  0  0  0  2  0  0  0  0  0  0
  -25.9340  -29.4320   20.6630 C   0  0  0  0  0  0  0  0  0  0  0  0
  -27.1440  -28.7040   20.6400 C   0  0  0  0  0  3  0  0  0  0  0  0
  -26.0150  -26.9000   19.4530 C   0  0  0  0  0  3  0  0  0  0  0  0
  -24.8100  -27.6290   19.4730 C   0  0  0  0  0  3  0  0  0  0  0  0
  -23.5370  -29.7600   20.1100 C   0  0  0  0  0  2  0  0  0  0  0  0
  -24.5820  -31.0370   22.0410 N   0  0  0  0  0  0  0  0  0  0  0  0
  -23.4430  -32.1050   23.6830 O   0  0  0  0  0  0  0  0  0  0  0  0
  -22.6600  -29.4190   22.4420 C   0  0  0  0  0  0  0  0  0  0  0  0
  -21.3340  -29.2540   22.3070 N   0  0  0  0  0  0  0  0  0  0  0  0
  -23.3320  -28.7770   23.2530 O   0  0  0  0  0  0  0  0  0  0  0  0
  -20.8520  -29.8310   21.6330 H   0  0  0  0  0  0  0  0  0  0  0  0
  -17.9440  -28.1010   22.7780 C   0  0  0  0  0  0  0  0  0  0  0  0
  -20.5030  -28.3200   23.0650 C   0  0  0  0  0  3  0  0  0  0  0  0
  -20.5890  -26.8930   22.4740 C   0  0  0  0  0  2  0  0  0  0  0  0
  -19.4860  -26.5970   21.4520 C   0  0  0  0  0  2  0  0  0  0  0  0
  -18.1040  -26.7540   22.0930 C   0  0  0  0  0  2  0  0  0  0  0  0
  -19.0710  -28.8430   23.2210 C   0  0  0  0  0  0  0  0  0  0  0  0
  -18.8680  -30.1030   23.8220 C   0  0  0  0  0  3  0  0  0  0  0  0
  -17.5700  -30.6230   23.9860 C   0  0  0  0  0  3  0  0  0  0  0  0
  -16.4560  -29.8780   23.5590 C   0  0  0  0  0  3  0  0  0  0  0  0
  -16.6450  -28.6180   22.9620 C   0  0  0  0  0  3  0  0  0  0  0  0
  -25.8110  -32.4490   23.7830 C   0  0  0  0  0  3  0  0  0  0  0  0
  -25.5020  -33.8400   24.1350 N   0  0  0  0  0  0  0  0  0  0  0  0
  -25.8360  -34.9060   23.3960 C   0  0  0  0  0  0  0  0  0  0  0  0
  -26.5080  -34.8200   22.3620 O   0  0  0  0  0  0  0  0  0  0  0  0
  -24.9090  -33.9820   24.9400 H   0  0  0  0  0  0  0  0  0  0  0  0
  -24.1020  -36.6970   23.0790 C   0  0  0  0  0  1  0  0  0  0  0  0
  -25.3490  -36.2850   23.8790 C   0  0  0  0  0  3  0  0  0  0  0  0
  -27.4870  -37.1580   24.7060 C   0  0  0  0  0  1  0  0  0  0  0  0
  -26.3780  -37.3420   23.7730 N   0  0  0  0  0  0  0  0  0  0  0  0
  -25.9750  -38.2580   23.9440 H   0  0  0  0  0  0  0  0  0  0  0  0
  -26.3310  -31.6540   25.0420 C   0  0  1  0  0  0  0  0  0  0  0  0
  -25.2400  -31.3950   26.1060 C   0  0  0  0  0  1  0  0  0  0  0  0
  -26.9090  -30.2870   24.6140 C   0  0  0  0  0  1  0  0  0  0  0  0
  -27.4830  -32.4350   25.7170 C   0  0  0  0  0  1  0  0  0  0  0  0
  -30.8490  -19.6450   19.2160 C   0  0  0  0  0  3  0  0  0  0  0  0
  -30.6450  -20.9070   19.0980 N   0  0  0  0  0  0  0  0  0  0  0  0
  -30.8420  -18.4020   22.8830 C   0  0  0  0  0  3  0  0  0  0  0  0
  -30.9090  -17.0150   22.6700 C   0  0  0  0  0  3  0  0  0  0  0  0
  -30.9650  -17.4050   20.2750 C   0  0  0  0  0  3  0  0  0  0  0  0
  -30.8880  -18.8160   20.4650 C   0  0  0  0  0  0  0  0  0  0  0  0
  -30.8190  -19.3150   21.8070 C   0  0  0  0  0  0  0  0  0  0  0  0
  -30.9610  -16.4980   21.3640 C   0  0  0  0  0  0  0  0  0  0  0  0
  -30.6910  -20.7830   22.2130 C   0  0  0  0  0  1  0  0  0  0  0  0
  -31.3130  -14.3040   20.2040 C   0  0  0  0  0  0  0  0  0  0  0  0
  -30.8040  -12.2640   18.8990 C   0  0  0  0  0  2  0  0  0  0  0  0
  -29.8500  -12.6260   17.7450 C   0  0  0  0  0  2  0  0  0  0  0  0
  -28.3830  -12.5440   18.2150 C   0  0  0  0  0  2  0  0  0  0  0  0
  -28.1440  -13.3270   19.5340 C   0  0  0  0  0  3  0  0  0  0  0  0
  -29.2120  -12.9650   20.5880 C   0  0  0  0  0  2  0  0  0  0  0  0
  -30.5500  -13.1940   20.0100 N   0  0  0  0  0  0  0  0  0  0  0  0
  -32.3270  -14.5580   19.5410 O   0  0  0  0  0  0  0  0  0  0  0  0
  -30.9230  -15.0770   21.2300 N   0  0  0  0  0  0  0  0  0  0  0  0
  -30.3190  -14.6030   21.8850 H   0  0  0  0  0  0  0  0  0  0  0  0
  -25.7960  -14.0490   20.3040 C   0  0  0  0  0  0  0  0  0  0  0  0
  -24.7020  -13.3290   20.6970 C   0  0  0  0  0  0  0  0  0  0  0  0
  -25.0920  -11.9550   20.6450 C   0  0  0  0  0  0  0  0  0  0  0  0
  -26.7910  -13.1200   20.0420 N   0  0  0  0  0  0  0  0  0  0  0  0
  -26.3710  -11.8530   20.3000 N   0  0  0  0  0  0  0  0  0  0  0  0
  -24.3090  -10.7280   20.8480 C   0  0  0  0  0  0  0  0  0  0  0  0
  -24.7100   -9.7450   21.7780 C   0  0  0  0  0  3  0  0  0  0  0  0
  -23.9300   -8.5840   21.9710 C   0  0  0  0  0  3  0  0  0  0  0  0
  -22.7350   -8.3980   21.2330 C   0  0  0  0  0  0  0  0  0  0  0  0
  -22.3510   -9.3750   20.2970 C   0  0  0  0  0  3  0  0  0  0  0  0
  -23.1320  -10.5260   20.1040 C   0  0  0  0  0  3  0  0  0  0  0  0
  -21.9270   -7.2930   21.3320 O   0  0  0  0  0  0  0  0  0  0  0  0
  -21.8370   -6.5710   22.4950 C   0  0  0  0  0  0  0  0  0  0  0  0
  -21.4530   -7.1690   23.7150 C   0  0  0  0  0  3  0  0  0  0  0  0
  -21.3040   -6.3790   24.8720 C   0  0  0  0  0  3  0  0  0  0  0  0
  -21.5300   -4.9900   24.8100 C   0  0  0  0  0  0  0  0  0  0  0  0
  -21.9050   -4.3930   23.5930 C   0  0  0  0  0  3  0  0  0  0  0  0
  -22.0550   -5.1810   22.4400 C   0  0  0  0  0  0  0  0  0  0  0  0
  -22.3980   -4.5970   21.2660 F   0  0  0  0  0  0  0  0  0  0  0  0
  -21.3800   -4.2260   25.9160 F   0  0  0  0  0  0  0  0  0  0  0  0
  -23.3390  -13.8710   21.0210 C   0  0  0  0  0  0  0  0  0  0  0  0
  -22.6130  -13.2180   21.9200 N   0  0  0  0  0  0  0  0  0  0  0  0
  -22.9320  -14.9160   20.5110 O   0  0  0  0  0  0  0  0  0  0  0  0
  -22.9520  -12.3740   22.3560 H   0  0  0  0  0  0  0  0  0  0  0  0
  -21.6990  -13.5640   22.1710 H   0  0  0  0  0  0  0  0  0  0  0  0
  -26.0170  -15.4130   20.1350 N   0  0  0  0  0  0  0  0  0  0  0  0
  -25.2800  -16.1000   20.2700 H   0  0  0  0  0  0  0  0  0  0  0  0
  -26.8960  -15.8200   19.8450 H   0  0  0  0  0  0  0  0  0  0  0  0
  1  5  1  0
  2  1  2  0
  3  4  1  0
  4  5  2  0
  4  8  1  0
  5 57  1  0
  6  2  1  0
  6  3  2  0
  7  6  1  0
  8  9  1  0
  9 13  1  0
 10  8  2  0
 11  9  1  0
 13 14  1  0
 13 12  1  0
 15 17  1  0
 15 14  1  0
 16 27  2  0
 17 22  1  0
 18 26  1  0
 18 28  1  0
 19 25  1  0
 19 21  1  0
 20 26  1  0
 21 20  1  0
 22 21  2  0
 23 24  1  0
 23 17  2  0
 24 19  2  0
 25 18  1  0
 26 16  1  0
 28 30  2  0
 29 28  1  0
 31 29  1  0
 32 41  2  0
 32 37  1  0
 33 29  1  0
 33 37  1  0
 34 33  1  0
 35 36  1  0
 35 34  1  0
 36 32  1  0
 37 38  2  0
 38 39  1  0
 40 39  2  0
 41 40  1  0
 42 16  1  0
 42 43  1  0
 42 52  1  0
 43 46  1  0
 44 48  1  0
 44 43  1  0
 45 44  2  0
 48 47  1  0
 50 48  1  0
 50 51  1  0
 50 49  1  0
 52 55  1  1
 52 53  1  0
 54 52  1  0
 56 61  1  0
 57 56  2  0
 59 58  1  0
 60 61  2  0
 60 63  1  0
 61 62  1  0
 62 64  1  0
 62 58  2  0
 63 59  2  0
 65 73  1  0
 66 71  1  0
 67 68  1  0
 67 66  1  0
 69 68  1  0
 69 78  1  0
 69 70  1  0
 71 65  1  0
 71 70  1  0
 72 65  2  0
 73 63  1  0
 73 74  1  0
 75 76  2  0
 76 95  1  0
 77 76  1  0
 77 80  1  0
 78 79  1  0
 78 75  1  0
 79 77  2  0
 80 81  1  0
 81 82  2  0
 83 86  1  0
 83 82  1  0
 84 83  2  0
 85 84  1  0
 85 80  2  0
 86 87  1  0
 87 88  1  0
 88 89  2  0
 90 89  1  0
 90 94  1  0
 91 90  2  0
 92 87  2  0
 92 91  1  0
 93 92  1  0
 95 96  1  0
 96 99  1  0
 96 98  1  0
 97 95  2  0
100101  1  0
100 75  1  0
102100  1  0
M  ISO  4  14 101  15 101  65 100  73 100
M  END
>  <TORSDO>  (86) 
F 21

>  <SCORE>  (86) 
-12.914

>  <name>  (86) 
85

>  <ligand_id>  (86) 
85

>  <original_smiles>  (86) 
[H]C(=Nc1c([H])c([H])c(Cl)c([H])c1C(=O)N([H])C([H])(C([H])([H])[H])C([H])([H])Oc1c([H])c([H])c2c(c1[H])C([H])([H])N(C(=O)C([H])(N([H])C(=O)C([H])(N([H])C([H])([H])[H])C([H])([H])[H])C(C([H])([H])[H])(C([H])([H])[H])C([H])([H])[H])C([H])(C(=O)N([H])C1([H])c3c([H])c([H])c([H])c([H])c3C([H])([H])C([H])([H])C1([H])[H])C2([H])[H])c1c([H])c(N([H])C(=O)N2C([H])([H])C([H])([H])C([H])([H])C([H])(n3nc(-c4c([H])c([H])c(Oc5c([H])c([H])c(F)c([H])c5F)c([H])c4[H])c(C(=O)N([H])[H])c3N([H])[H])C2([H])[H])c([H])c([H])c1C([H])([H])[H]

>  <smiles>  (86) 
[H]C(=Nc1c([H])c([H])c(Cl)c([H])c1C(=O)N([H])C([H])(C([H])([H])[H])C([H])([H])Oc1c([H])c([H])c2c(c1[H])C([H])([H])N(C(=O)C([H])(N([H])C(=O)C([H])(N([H])C([H])([H])[H])C([H])([H])[H])C(C([H])([H])[H])(C([H])([H])[H])C([H])([H])[H])C([H])(C(=O)N([H])C1([H])c3c([H])c([H])c([H])c([H])c3C([H])([H])C([H])([H])C1([H])[H])C2([H])[H])c1c([H])c(N([H])C(=O)N2C([H])([H])C([H])([H])C([H])([H])C([H])(n3nc(-c4c([H])c([H])c(Oc5c([H])c([H])c(F)c([H])c5F)c([H])c4[H])c(C(=O)N([H])[H])c3N([H])[H])C2([H])[H])c([H])c([H])c1C([H])([H])[H]

$$$$
86:0:0
     RDKit          3D

 93101  0  0  1  0  0  0  0  0999 V2000
  -28.6620  -21.8630   18.6610 C   0  0  0  0  0  2  0  0  0  0  0  0
  -29.8380  -18.3230   20.9720 C   0  0  0  0  0  3  0  0  0  0  0  0
  -29.2810  -19.4440   21.6120 C   0  0  0  0  0  3  0  0  0  0  0  0
  -29.8260  -19.5490   18.8680 C   0  0  0  0  0  3  0  0  0  0  0  0
  -30.1240  -18.3530   19.5920 C   0  0  0  0  0  0  0  0  0  0  0  0
  -29.2190  -20.6830   19.4970 C   0  0  0  0  0  0  0  0  0  0  0  0
  -28.9690  -20.6120   20.8920 C   0  0  0  0  0  0  0  0  0  0  0  0
  -28.2150  -21.9080   21.7520 Cl  0  0  0  0  0  0  0  0  0  0  0  0
  -30.7770  -17.1270   18.9030 C   0  0  0  0  0  2  0  0  0  0  0  0
  -31.2450  -14.6790   19.2510 C   0  0  0  0  0  0  0  0  0  0  0  0
  -30.9780  -12.3080   18.6210 C   0  0  0  0  0  2  0  0  0  0  0  0
  -29.9320  -12.2130   17.4880 C   0  0  0  0  0  2  0  0  0  0  0  0
  -28.5080  -12.1120   18.0690 C   0  0  0  0  0  2  0  0  0  0  0  0
  -28.2300  -13.1830   19.1570 C   0  0  0  0  0  3  0  0  0  0  0  0
  -29.3810  -13.2580   20.1880 C   0  0  0  0  0  2  0  0  0  0  0  0
  -30.6330  -13.4760   19.4490 N   0  0  0  0  0  0  0  0  0  0  0  0
  -32.3530  -14.7740   18.7170 O   0  0  0  0  0  0  0  0  0  0  0  0
  -30.4830  -15.7780   19.4550 N   0  0  0  0  0  0  0  0  0  0  0  0
  -29.5760  -15.6290   19.8620 H   0  0  0  0  0  0  0  0  0  0  0  0
  -25.9910  -13.9120   20.1850 C   0  0  0  0  0  0  0  0  0  0  0  0
  -24.9260  -13.1960   20.6620 C   0  0  0  0  0  0  0  0  0  0  0  0
  -25.2850  -11.8200   20.5300 C   0  0  0  0  0  0  0  0  0  0  0  0
  -26.9340  -12.9730   19.7970 N   0  0  0  0  0  0  0  0  0  0  0  0
  -26.5200  -11.7070   20.0600 N   0  0  0  0  0  0  0  0  0  0  0  0
  -24.5010  -10.6000   20.7680 C   0  0  0  0  0  0  0  0  0  0  0  0
  -24.8590   -9.6760   21.7740 C   0  0  0  0  0  3  0  0  0  0  0  0
  -24.0780   -8.5220   21.9970 C   0  0  0  0  0  3  0  0  0  0  0  0
  -22.9220   -8.2870   21.2170 C   0  0  0  0  0  0  0  0  0  0  0  0
  -22.5810   -9.1990   20.2010 C   0  0  0  0  0  3  0  0  0  0  0  0
  -23.3630  -10.3440   19.9770 C   0  0  0  0  0  3  0  0  0  0  0  0
  -22.1180   -7.1800   21.3440 O   0  0  0  0  0  0  0  0  0  0  0  0
  -21.8570   -6.6170   22.5670 C   0  0  0  0  0  0  0  0  0  0  0  0
  -21.2390   -7.3470   23.6060 C   0  0  0  0  0  3  0  0  0  0  0  0
  -20.9260   -6.7100   24.8240 C   0  0  0  0  0  3  0  0  0  0  0  0
  -21.2200   -5.3460   25.0020 C   0  0  0  0  0  0  0  0  0  0  0  0
  -21.8300   -4.6160   23.9660 C   0  0  0  0  0  3  0  0  0  0  0  0
  -22.1430   -5.2500   22.7500 C   0  0  0  0  0  0  0  0  0  0  0  0
  -22.7100   -4.5370   21.7480 F   0  0  0  0  0  0  0  0  0  0  0  0
  -20.9140   -4.7320   26.1680 F   0  0  0  0  0  0  0  0  0  0  0  0
  -23.6110  -13.7540   21.1230 C   0  0  0  0  0  0  0  0  0  0  0  0
  -22.9620  -13.0890   22.0740 N   0  0  0  0  0  0  0  0  0  0  0  0
  -23.1720  -14.8140   20.6780 O   0  0  0  0  0  0  0  0  0  0  0  0
  -23.3350  -12.2350   22.4600 H   0  0  0  0  0  0  0  0  0  0  0  0
  -22.0800  -13.4390   22.4170 H   0  0  0  0  0  0  0  0  0  0  0  0
  -26.2220  -15.2750   20.0280 N   0  0  0  0  0  0  0  0  0  0  0  0
  -25.5170  -15.9660   20.2600 H   0  0  0  0  0  0  0  0  0  0  0  0
  -27.0470  -15.6770   19.6040 H   0  0  0  0  0  0  0  0  0  0  0  0
  -28.4410  -24.3290   19.1770 C   0  0  0  0  0  0  0  0  0  0  0  0
  -29.1850  -23.2420   18.8470 N   0  0  0  0  0  0  0  0  0  0  0  0
  -27.4570  -24.2330   19.9100 O   0  0  0  0  0  0  0  0  0  0  0  0
  -30.0290  -23.4380   18.3280 H   0  0  0  0  0  0  0  0  0  0  0  0
  -28.7670  -25.6930   18.4810 C   0  0  0  0  0  2  0  0  0  0  0  0
  -28.5880  -26.8960   19.2840 O   0  0  0  0  0  0  0  0  0  0  0  0
  -24.5860  -31.5660   22.9180 C   0  0  0  0  0  0  0  0  0  0  0  0
  -27.3820  -27.5840   19.3230 C   0  0  0  0  0  0  0  0  0  0  0  0
  -23.4180  -30.2530   21.1790 C   0  0  0  0  0  3  0  0  0  0  0  0
  -24.9090  -28.9660   19.5610 C   0  0  0  0  0  0  0  0  0  0  0  0
  -25.9130  -30.7780   20.9550 C   0  0  0  0  0  2  0  0  0  0  0  0
  -26.0560  -29.4820   20.1770 C   0  0  0  0  0  0  0  0  0  0  0  0
  -27.2910  -28.7910   20.0660 C   0  0  0  0  0  3  0  0  0  0  0  0
  -26.2140  -27.1100   18.6830 C   0  0  0  0  0  3  0  0  0  0  0  0
  -24.9860  -27.7790   18.8170 C   0  0  0  0  0  3  0  0  0  0  0  0
  -23.6190  -29.7350   19.7320 C   0  0  0  0  0  2  0  0  0  0  0  0
  -24.6580  -30.8780   21.7410 N   0  0  0  0  0  0  0  0  0  0  0  0
  -23.5080  -31.7140   23.5090 O   0  0  0  0  0  0  0  0  0  0  0  0
  -22.8650  -29.1020   22.0500 C   0  0  0  0  0  0  0  0  0  0  0  0
  -21.5560  -28.8300   21.9290 N   0  0  0  0  0  0  0  0  0  0  0  0
  -23.6120  -28.4600   22.7960 O   0  0  0  0  0  0  0  0  0  0  0  0
  -21.0170  -29.3910   21.2870 H   0  0  0  0  0  0  0  0  0  0  0  0
  -18.2970  -27.3260   22.3780 C   0  0  0  0  0  0  0  0  0  0  0  0
  -20.8300  -27.7730   22.6300 C   0  0  0  0  0  3  0  0  0  0  0  0
  -21.0280  -26.4050   21.9370 C   0  0  0  0  0  2  0  0  0  0  0  0
  -19.9390  -26.0960   20.9050 C   0  0  0  0  0  2  0  0  0  0  0  0
  -18.5710  -26.0570   21.5890 C   0  0  0  0  0  2  0  0  0  0  0  0
  -19.3590  -28.1400   22.8540 C   0  0  0  0  0  0  0  0  0  0  0  0
  -19.0520  -29.3240   23.5570 C   0  0  0  0  0  3  0  0  0  0  0  0
  -17.7160  -29.7030   23.7820 C   0  0  0  0  0  3  0  0  0  0  0  0
  -16.6690  -28.8870   23.3210 C   0  0  0  0  0  3  0  0  0  0  0  0
  -16.9610  -27.6990   22.6270 C   0  0  0  0  0  3  0  0  0  0  0  0
  -25.8490  -32.2210   23.5590 C   0  0  0  0  0  3  0  0  0  0  0  0
  -26.4780  -31.3600   24.7220 C   0  0  1  0  0  0  0  0  0  0  0  0
  -25.4540  -30.9260   25.7970 C   0  0  0  0  0  1  0  0  0  0  0  0
  -27.1380  -30.0800   24.1600 C   0  0  0  0  0  1  0  0  0  0  0  0
  -27.5960  -32.1630   25.4290 C   0  0  0  0  0  1  0  0  0  0  0  0
  -25.4590  -33.5500   24.0510 N   0  0  0  0  0  0  0  0  0  0  0  0
  -25.6970  -34.6990   23.4070 C   0  0  0  0  0  0  0  0  0  0  0  0
  -26.3410  -34.7580   22.3560 O   0  0  0  0  0  0  0  0  0  0  0  0
  -24.8830  -33.5770   24.8800 H   0  0  0  0  0  0  0  0  0  0  0  0
  -23.8480  -36.4000   23.2890 C   0  0  0  0  0  1  0  0  0  0  0  0
  -25.1320  -35.9920   24.0270 C   0  0  0  0  0  3  0  0  0  0  0  0
  -27.2180  -36.9240   24.9230 C   0  0  0  0  0  1  0  0  0  0  0  0
  -26.0900  -37.1190   24.0170 N   0  0  0  0  0  0  0  0  0  0  0  0
  -25.6270  -37.9880   24.2690 H   0  0  0  0  0  0  0  0  0  0  0  0
  1 49  1  0
  1  6  1  0
  2  3  1  0
  4  6  2  0
  4  5  1  0
  5  2  2  0
  6  7  1  0
  7  3  2  0
  7  8  1  0
  9 18  1  0
  9  5  1  0
 10 16  1  0
 10 18  1  0
 11 16  1  0
 12 13  1  0
 12 11  1  0
 14 13  1  0
 14 23  1  0
 14 15  1  0
 16 15  1  0
 17 10  2  0
 18 19  1  0
 20 21  2  0
 21 40  1  0
 22 21  1  0
 22 25  1  0
 23 24  1  0
 23 20  1  0
 24 22  2  0
 25 26  1  0
 26 27  2  0
 28 31  1  0
 28 27  1  0
 29 28  2  0
 30 29  1  0
 30 25  2  0
 31 32  1  0
 32 37  2  0
 32 33  1  0
 33 34  2  0
 34 35  1  0
 35 39  1  0
 36 35  2  0
 37 36  1  0
 38 37  1  0
 40 41  1  0
 41 44  1  0
 41 43  1  0
 42 40  2  0
 45 20  1  0
 45 46  1  0
 47 45  1  0
 48 50  2  0
 49 48  1  0
 51 49  1  0
 52 48  1  0
 52 53  1  0
 53 55  1  0
 54 65  2  0
 55 60  1  0
 56 64  1  0
 56 66  1  0
 57 63  1  0
 57 59  1  0
 58 64  1  0
 59 58  1  0
 60 59  2  0
 61 62  1  0
 61 55  2  0
 62 57  2  0
 63 56  1  0
 64 54  1  0
 66 68  2  0
 67 66  1  0
 69 67  1  0
 70 79  2  0
 70 75  1  0
 71 67  1  0
 71 75  1  0
 72 71  1  0
 73 74  1  0
 73 72  1  0
 74 70  1  0
 75 76  2  0
 76 77  1  0
 78 77  2  0
 79 78  1  0
 80 54  1  0
 80 85  1  0
 80 81  1  0
 81 84  1  1
 81 82  1  0
 83 81  1  0
 85 88  1  0
 86 90  1  0
 86 85  1  0
 87 86  2  0
 90 89  1  0
 92 90  1  0
 92 93  1  0
 92 91  1  0
M  ISO  4  10 100  18 100  52 101  53 101
M  END
>  <TORSDO>  (87) 
F 20

>  <SCORE>  (87) 
-10.917

>  <name>  (87) 
86

>  <ligand_id>  (87) 
86

>  <original_smiles>  (87) 
[H]c1c([H])c([H])c2c(c1[H])C([H])([H])C([H])([H])C([H])([H])C2([H])N([H])C(=O)C1([H])N(C(=O)C([H])(N([H])C(=O)C([H])(N([H])C([H])([H])[H])C([H])([H])[H])C(C([H])([H])[H])(C([H])([H])[H])C([H])([H])[H])C([H])([H])c2c([H])c(OC([H])([H])C(=O)N([H])C([H])([H])c3c([H])c(C([H])([H])N([H])C(=O)N4C([H])([H])C([H])([H])C([H])([H])C([H])(n5nc(-c6c([H])c([H])c(Oc7c([H])c([H])c(F)c([H])c7F)c([H])c6[H])c(C(=O)N([H])[H])c5N([H])[H])C4([H])[H])c([H])c([H])c3Cl)c([H])c([H])c2C1([H])[H]

>  <smiles>  (87) 
[H]c1c([H])c([H])c2c(c1[H])C([H])([H])C([H])([H])C([H])([H])C2([H])N([H])C(=O)C1([H])N(C(=O)C([H])(N([H])C(=O)C([H])(N([H])C([H])([H])[H])C([H])([H])[H])C(C([H])([H])[H])(C([H])([H])[H])C([H])([H])[H])C([H])([H])c2c([H])c(OC([H])([H])C(=O)N([H])C([H])([H])c3c([H])c(C([H])([H])N([H])C(=O)N4C([H])([H])C([H])([H])C([H])([H])C([H])(n5nc(-c6c([H])c([H])c(Oc7c([H])c([H])c(F)c([H])c7F)c([H])c6[H])c(C(=O)N([H])[H])c5N([H])[H])C4([H])[H])c([H])c([H])c3Cl)c([H])c([H])c2C1([H])[H]

$$$$
87:0:0
     RDKit          3D

 92100  0  0  1  0  0  0  0  0999 V2000
  -30.0700  -21.9650   20.8890 C   0  0  0  0  0  2  0  0  0  0  0  0
  -29.0810  -19.2130   18.3480 C   0  0  0  0  0  3  0  0  0  0  0  0
  -29.1680  -20.4610   18.9970 C   0  0  0  0  0  3  0  0  0  0  0  0
  -29.7510  -18.0880   18.8670 C   0  0  0  0  0  3  0  0  0  0  0  0
  -30.6020  -19.4630   20.6890 C   0  0  0  0  0  3  0  0  0  0  0  0
  -29.9310  -20.6050   20.1780 C   0  0  0  0  0  0  0  0  0  0  0  0
  -30.5200  -18.1990   20.0440 C   0  0  0  0  0  0  0  0  0  0  0  0
  -31.2980  -16.9890   20.5890 C   0  0  0  0  0  2  0  0  0  0  0  0
  -31.0330  -14.5690   20.0130 C   0  0  0  0  0  0  0  0  0  0  0  0
  -30.6070  -12.4100   18.8650 C   0  0  0  0  0  2  0  0  0  0  0  0
  -29.6000  -12.5800   17.7080 C   0  0  0  0  0  2  0  0  0  0  0  0
  -28.1510  -12.4570   18.2160 C   0  0  0  0  0  2  0  0  0  0  0  0
  -27.8960  -13.3050   19.4910 C   0  0  0  0  0  3  0  0  0  0  0  0
  -29.0060  -13.0320   20.5260 C   0  0  0  0  0  2  0  0  0  0  0  0
  -30.2910  -13.4130   19.9110 N   0  0  0  0  0  0  0  0  0  0  0  0
  -32.1000  -14.6510   19.3910 O   0  0  0  0  0  0  0  0  0  0  0  0
  -29.4760  -15.7960   21.6380 C   0  0  0  0  0  1  0  0  0  0  0  0
  -30.5600  -15.6950   20.6530 N   0  0  0  0  0  0  0  0  0  0  0  0
  -25.5710  -13.9760   20.3660 C   0  0  0  0  0  0  0  0  0  0  0  0
  -24.5030  -13.2320   20.7840 C   0  0  0  0  0  0  0  0  0  0  0  0
  -24.9130  -11.8660   20.6890 C   0  0  0  0  0  0  0  0  0  0  0  0
  -26.5670  -13.0660   20.0450 N   0  0  0  0  0  0  0  0  0  0  0  0
  -26.1760  -11.7910   20.2900 N   0  0  0  0  0  0  0  0  0  0  0  0
  -24.1620  -10.6250   20.8960 C   0  0  0  0  0  0  0  0  0  0  0  0
  -24.5790   -9.6490   21.8280 C   0  0  0  0  0  3  0  0  0  0  0  0
  -23.8240   -8.4720   22.0190 C   0  0  0  0  0  3  0  0  0  0  0  0
  -22.6390   -8.2610   21.2770 C   0  0  0  0  0  0  0  0  0  0  0  0
  -22.2400   -9.2250   20.3340 C   0  0  0  0  0  3  0  0  0  0  0  0
  -22.9950  -10.3940   20.1410 C   0  0  0  0  0  3  0  0  0  0  0  0
  -21.8560   -7.1350   21.3750 O   0  0  0  0  0  0  0  0  0  0  0  0
  -21.7370   -6.4430   22.5530 C   0  0  0  0  0  0  0  0  0  0  0  0
  -21.2440   -7.0530   23.7280 C   0  0  0  0  0  3  0  0  0  0  0  0
  -21.0790   -6.2890   24.9010 C   0  0  0  0  0  3  0  0  0  0  0  0
  -21.3900   -4.9170   24.8980 C   0  0  0  0  0  0  0  0  0  0  0  0
  -21.8680   -4.3060   23.7260 C   0  0  0  0  0  3  0  0  0  0  0  0
  -22.0420   -5.0670   22.5570 C   0  0  0  0  0  0  0  0  0  0  0  0
  -22.4880   -4.4720   21.4260 F   0  0  0  0  0  0  0  0  0  0  0  0
  -21.2210   -4.1780   26.0200 F   0  0  0  0  0  0  0  0  0  0  0  0
  -23.1440  -13.7490   21.1600 C   0  0  0  0  0  0  0  0  0  0  0  0
  -22.4490  -13.0560   22.0580 N   0  0  0  0  0  0  0  0  0  0  0  0
  -22.7100  -14.8030   20.6970 O   0  0  0  0  0  0  0  0  0  0  0  0
  -22.8170  -12.2090   22.4650 H   0  0  0  0  0  0  0  0  0  0  0  0
  -21.5380  -13.3830   22.3430 H   0  0  0  0  0  0  0  0  0  0  0  0
  -25.7720  -15.3450   20.2150 N   0  0  0  0  0  0  0  0  0  0  0  0
  -25.0380  -16.0190   20.4060 H   0  0  0  0  0  0  0  0  0  0  0  0
  -26.6220  -15.7730   19.8730 H   0  0  0  0  0  0  0  0  0  0  0  0
  -29.3730  -24.3680   20.4980 C   0  0  0  0  0  0  0  0  0  0  0  0
  -29.1780  -23.0350   20.4090 N   0  0  0  0  0  0  0  0  0  0  0  0
  -30.4060  -24.8560   20.9630 O   0  0  0  0  0  0  0  0  0  0  0  0
  -28.2980  -22.7330   20.0170 H   0  0  0  0  0  0  0  0  0  0  0  0
  -28.2240  -25.2710   19.9890 C   0  0  0  0  0  2  0  0  0  0  0  0
  -28.3560  -26.6670   20.3550 O   0  0  0  0  0  0  0  0  0  0  0  0
  -24.5420  -31.9240   23.3160 C   0  0  0  0  0  0  0  0  0  0  0  0
  -27.1990  -27.4340   20.2910 C   0  0  0  0  0  0  0  0  0  0  0  0
  -23.3470  -30.5150   21.6760 C   0  0  0  0  0  3  0  0  0  0  0  0
  -24.8100  -28.9710   20.2670 C   0  0  0  0  0  0  0  0  0  0  0  0
  -25.8760  -30.8670   21.4890 C   0  0  0  0  0  2  0  0  0  0  0  0
  -25.9680  -29.4880   20.8610 C   0  0  0  0  0  0  0  0  0  0  0  0
  -27.1640  -28.7280   20.8710 C   0  0  0  0  0  3  0  0  0  0  0  0
  -26.0190  -26.9540   19.6690 C   0  0  0  0  0  3  0  0  0  0  0  0
  -24.8340  -27.7060   19.6640 C   0  0  0  0  0  3  0  0  0  0  0  0
  -23.5630  -29.8270   20.3030 C   0  0  0  0  0  2  0  0  0  0  0  0
  -24.6080  -31.1160   22.2190 N   0  0  0  0  0  0  0  0  0  0  0  0
  -23.4580  -32.1990   23.8460 O   0  0  0  0  0  0  0  0  0  0  0  0
  -22.6890  -29.5000   22.6380 C   0  0  0  0  0  0  0  0  0  0  0  0
  -21.3710  -29.2930   22.4810 N   0  0  0  0  0  0  0  0  0  0  0  0
  -23.3620  -28.8960   23.4790 O   0  0  0  0  0  0  0  0  0  0  0  0
  -20.8920  -29.8310   21.7720 H   0  0  0  0  0  0  0  0  0  0  0  0
  -18.0040  -28.0550   22.9100 C   0  0  0  0  0  0  0  0  0  0  0  0
  -20.5470  -28.3590   23.2480 C   0  0  0  0  0  3  0  0  0  0  0  0
  -20.6880  -26.9180   22.7040 C   0  0  0  0  0  2  0  0  0  0  0  0
  -19.6210  -26.5590   21.6650 C   0  0  0  0  0  2  0  0  0  0  0  0
  -18.2190  -26.6960   22.2650 C   0  0  0  0  0  2  0  0  0  0  0  0
  -19.0970  -28.8430   23.3550 C   0  0  0  0  0  0  0  0  0  0  0  0
  -18.8440  -30.1140   23.9150 C   0  0  0  0  0  3  0  0  0  0  0  0
  -17.5280  -30.5990   24.0330 C   0  0  0  0  0  3  0  0  0  0  0  0
  -16.4470  -29.8100   23.6050 C   0  0  0  0  0  3  0  0  0  0  0  0
  -16.6850  -28.5390   23.0500 C   0  0  0  0  0  3  0  0  0  0  0  0
  -25.8230  -32.5580   23.9430 C   0  0  0  0  0  3  0  0  0  0  0  0
  -26.3250  -31.7990   25.2320 C   0  0  1  0  0  0  0  0  0  0  0  0
  -25.2200  -31.5610   26.2880 C   0  0  0  0  0  1  0  0  0  0  0  0
  -26.9200  -30.4240   24.8520 C   0  0  0  0  0  1  0  0  0  0  0  0
  -27.4640  -32.6060   25.9000 C   0  0  0  0  0  1  0  0  0  0  0  0
  -25.5190  -33.9630   24.2470 N   0  0  0  0  0  0  0  0  0  0  0  0
  -25.8530  -34.9980   23.4660 C   0  0  0  0  0  0  0  0  0  0  0  0
  -26.5200  -34.8710   22.4340 O   0  0  0  0  0  0  0  0  0  0  0  0
  -24.9310  -34.1360   25.0510 H   0  0  0  0  0  0  0  0  0  0  0  0
  -24.1270  -36.7830   23.0750 C   0  0  0  0  0  1  0  0  0  0  0  0
  -25.3690  -36.3990   23.8940 C   0  0  0  0  0  3  0  0  0  0  0  0
  -27.5070  -37.2970   24.7000 C   0  0  0  0  0  1  0  0  0  0  0  0
  -26.4060  -37.4450   23.7530 N   0  0  0  0  0  0  0  0  0  0  0  0
  -26.0040  -38.3710   23.8760 H   0  0  0  0  0  0  0  0  0  0  0  0
  2  4  2  0
  2  3  1  0
  3  6  2  0
  4  7  1  0
  6  5  1  0
  6  1  1  0
  7  8  1  0
  7  5  2  0
  8 18  1  0
  9 18  1  0
 10 15  1  0
 11 12  1  0
 11 10  1  0
 13 12  1  0
 13 22  1  0
 13 14  1  0
 15  9  1  0
 15 14  1  0
 16  9  2  0
 18 17  1  0
 19 20  2  0
 20 39  1  0
 21 20  1  0
 21 24  1  0
 22 23  1  0
 22 19  1  0
 23 21  2  0
 24 25  1  0
 25 26  2  0
 27 30  1  0
 27 26  1  0
 28 27  2  0
 29 28  1  0
 29 24  2  0
 30 31  1  0
 31 36  2  0
 31 32  1  0
 32 33  2  0
 34 33  1  0
 34 38  1  0
 35 34  2  0
 36 35  1  0
 37 36  1  0
 39 40  1  0
 40 43  1  0
 40 42  1  0
 41 39  2  0
 44 19  1  0
 44 45  1  0
 46 44  1  0
 47 49  2  0
 48 47  1  0
 48  1  1  0
 50 48  1  0
 51 52  1  0
 51 47  1  0
 53 64  2  0
 54 52  1  0
 54 59  1  0
 55 63  1  0
 55 65  1  0
 56 62  1  0
 56 58  1  0
 57 63  1  0
 58 59  2  0
 58 57  1  0
 60 54  2  0
 61 60  1  0
 61 56  2  0
 62 55  1  0
 63 53  1  0
 65 67  2  0
 66 65  1  0
 68 66  1  0
 69 78  2  0
 69 74  1  0
 70 66  1  0
 70 74  1  0
 71 70  1  0
 72 73  1  0
 72 71  1  0
 73 69  1  0
 74 75  2  0
 75 76  1  0
 77 76  2  0
 78 77  1  0
 79 53  1  0
 79 84  1  0
 79 80  1  0
 80 83  1  1
 80 81  1  0
 82 80  1  0
 84 87  1  0
 85 89  1  0
 85 84  1  0
 86 85  2  0
 89 88  1  0
 91 92  1  0
 91 89  1  0
 91 90  1  0
M  ISO  4   9 100  18 100  51 101  52 101
M  END
>  <TORSDO>  (88) 
F 20

>  <SCORE>  (88) 
-13.469

>  <name>  (88) 
87

>  <ligand_id>  (88) 
87

>  <original_smiles>  (88) 
[H]c1c([H])c(C([H])([H])N([H])C(=O)C([H])([H])Oc2c([H])c([H])c3c(c2[H])C([H])([H])N(C(=O)C([H])(N([H])C(=O)C([H])(N([H])C([H])([H])[H])C([H])([H])[H])C(C([H])([H])[H])(C([H])([H])[H])C([H])([H])[H])C([H])(C(=O)N([H])C2([H])c4c([H])c([H])c([H])c([H])c4C([H])([H])C([H])([H])C2([H])[H])C3([H])[H])c([H])c(C([H])([H])N(C(=O)N2C([H])([H])C([H])([H])C([H])([H])C([H])(n3nc(-c4c([H])c([H])c(Oc5c([H])c([H])c(F)c([H])c5F)c([H])c4[H])c(C(=O)N([H])[H])c3N([H])[H])C2([H])[H])C([H])([H])[H])c1[H]

>  <smiles>  (88) 
[H]c1c([H])c(C([H])([H])N([H])C(=O)C([H])([H])Oc2c([H])c([H])c3c(c2[H])C([H])([H])N(C(=O)C([H])(N([H])C(=O)C([H])(N([H])C([H])([H])[H])C([H])([H])[H])C(C([H])([H])[H])(C([H])([H])[H])C([H])([H])[H])C([H])(C(=O)N([H])C2([H])c4c([H])c([H])c([H])c([H])c4C([H])([H])C([H])([H])C2([H])[H])C3([H])[H])c([H])c(C([H])([H])N(C(=O)N2C([H])([H])C([H])([H])C([H])([H])C([H])(n3nc(-c4c([H])c([H])c(Oc5c([H])c([H])c(F)c([H])c5F)c([H])c4[H])c(C(=O)N([H])[H])c3N([H])[H])C2([H])[H])C([H])([H])[H])c1[H]

$$$$
88:0:0
     RDKit          3D

 93101  0  0  1  0  0  0  0  0999 V2000
  -29.4110  -23.0780   21.0450 C   0  0  0  0  0  0  0  0  0  0  0  0
  -28.4900  -21.8780   19.0920 C   0  0  0  0  0  1  0  0  0  0  0  0
  -29.1030  -21.9030   20.4270 N   0  0  0  0  0  0  0  0  0  0  0  0
  -29.6900  -23.1250   22.2490 O   0  0  0  0  0  0  0  0  0  0  0  0
  -29.1600  -20.5910   21.1360 C   0  0  0  0  0  2  0  0  0  0  0  0
  -30.7620  -19.6490   19.3540 C   0  0  0  0  0  3  0  0  0  0  0  0
  -31.2960  -18.5680   18.6360 C   0  0  0  0  0  3  0  0  0  0  0  0
  -29.6660  -18.0830   20.8570 C   0  0  0  0  0  3  0  0  0  0  0  0
  -29.8830  -19.4230   20.4330 C   0  0  0  0  0  0  0  0  0  0  0  0
  -30.2480  -16.9740   20.1820 C   0  0  0  0  0  0  0  0  0  0  0  0
  -31.0080  -17.2400   19.0000 C   0  0  0  0  0  0  0  0  0  0  0  0
  -31.5320  -16.0160   17.8910 Cl  0  0  0  0  0  0  0  0  0  0  0  0
  -30.7500  -14.5520   20.6130 C   0  0  0  0  0  0  0  0  0  0  0  0
  -30.5090  -12.3490   19.5680 C   0  0  0  0  0  2  0  0  0  0  0  0
  -29.6230  -12.5280   18.3150 C   0  0  0  0  0  2  0  0  0  0  0  0
  -28.1300  -12.4020   18.6820 C   0  0  0  0  0  2  0  0  0  0  0  0
  -27.7350  -13.2660   19.9080 C   0  0  0  0  0  3  0  0  0  0  0  0
  -28.7460  -13.0940   21.0650 C   0  0  0  0  0  2  0  0  0  0  0  0
  -30.0920  -13.3650   20.5410 N   0  0  0  0  0  0  0  0  0  0  0  0
  -31.9630  -14.6490   20.4140 O   0  0  0  0  0  0  0  0  0  0  0  0
  -29.9580  -15.6460   20.6660 N   0  0  0  0  0  0  0  0  0  0  0  0
  -29.0130  -15.4890   20.9780 H   0  0  0  0  0  0  0  0  0  0  0  0
  -25.3100  -13.8850   20.5060 C   0  0  0  0  0  0  0  0  0  0  0  0
  -24.2270  -13.1190   20.8450 C   0  0  0  0  0  0  0  0  0  0  0  0
  -24.6890  -11.7680   20.8630 C   0  0  0  0  0  0  0  0  0  0  0  0
  -26.3630  -12.9990   20.3370 N   0  0  0  0  0  0  0  0  0  0  0  0
  -25.9910  -11.7230   20.6130 N   0  0  0  0  0  0  0  0  0  0  0  0
  -23.9560  -10.5110   21.0480 C   0  0  0  0  0  0  0  0  0  0  0  0
  -24.3580   -9.5540   22.0050 C   0  0  0  0  0  3  0  0  0  0  0  0
  -23.6260   -8.3600   22.1750 C   0  0  0  0  0  3  0  0  0  0  0  0
  -22.4780   -8.1130   21.3880 C   0  0  0  0  0  0  0  0  0  0  0  0
  -22.0940   -9.0580   20.4190 C   0  0  0  0  0  3  0  0  0  0  0  0
  -22.8270  -10.2440   20.2480 C   0  0  0  0  0  3  0  0  0  0  0  0
  -21.7200   -6.9700   21.4670 O   0  0  0  0  0  0  0  0  0  0  0  0
  -21.6430   -6.2360   22.6230 C   0  0  0  0  0  0  0  0  0  0  0  0
  -21.1980   -6.8020   23.8380 C   0  0  0  0  0  3  0  0  0  0  0  0
  -21.0660   -5.9940   24.9840 C   0  0  0  0  0  3  0  0  0  0  0  0
  -21.3710   -4.6220   24.9180 C   0  0  0  0  0  0  0  0  0  0  0  0
  -21.8120   -4.0550   23.7090 C   0  0  0  0  0  3  0  0  0  0  0  0
  -21.9440   -4.8610   22.5650 C   0  0  0  0  0  0  0  0  0  0  0  0
  -22.3480   -4.3070   21.3960 F   0  0  0  0  0  0  0  0  0  0  0  0
  -21.2380   -3.8430   26.0170 F   0  0  0  0  0  0  0  0  0  0  0  0
  -22.8190  -13.6020   21.0400 C   0  0  0  0  0  0  0  0  0  0  0  0
  -22.0510  -12.9310   21.8920 N   0  0  0  0  0  0  0  0  0  0  0  0
  -22.4050  -14.6140   20.4740 O   0  0  0  0  0  0  0  0  0  0  0  0
  -22.3930  -12.1190   22.3830 H   0  0  0  0  0  0  0  0  0  0  0  0
  -21.1020  -13.2380   22.0550 H   0  0  0  0  0  0  0  0  0  0  0  0
  -25.4790  -15.2520   20.3080 N   0  0  0  0  0  0  0  0  0  0  0  0
  -24.6970  -15.8970   20.3580 H   0  0  0  0  0  0  0  0  0  0  0  0
  -26.3280  -15.6870   19.9710 H   0  0  0  0  0  0  0  0  0  0  0  0
  -29.4820  -24.4100   20.2550 C   0  0  0  0  0  2  0  0  0  0  0  0
  -28.1700  -25.2310   20.2970 C   0  0  0  0  0  2  0  0  0  0  0  0
  -28.3530  -26.6530   20.0930 O   0  0  0  0  0  0  0  0  0  0  0  0
  -24.6150  -31.8830   23.2180 C   0  0  0  0  0  0  0  0  0  0  0  0
  -27.1960  -27.4160   20.0930 C   0  0  0  0  0  0  0  0  0  0  0  0
  -23.3870  -30.4930   21.5870 C   0  0  0  0  0  3  0  0  0  0  0  0
  -24.8160  -28.9560   20.1420 C   0  0  0  0  0  0  0  0  0  0  0  0
  -25.9160  -30.8330   21.3650 C   0  0  0  0  0  2  0  0  0  0  0  0
  -25.9880  -29.4650   20.7170 C   0  0  0  0  0  0  0  0  0  0  0  0
  -27.1820  -28.7020   20.6880 C   0  0  0  0  0  3  0  0  0  0  0  0
  -26.0020  -26.9380   19.5050 C   0  0  0  0  0  3  0  0  0  0  0  0
  -24.8170  -27.6910   19.5390 C   0  0  0  0  0  3  0  0  0  0  0  0
  -23.5780  -29.8210   20.2010 C   0  0  0  0  0  2  0  0  0  0  0  0
  -24.6590  -31.0840   22.1140 N   0  0  0  0  0  0  0  0  0  0  0  0
  -23.5390  -32.1600   23.7670 O   0  0  0  0  0  0  0  0  0  0  0  0
  -22.7420  -29.4690   22.5490 C   0  0  0  0  0  0  0  0  0  0  0  0
  -21.4180  -29.2840   22.4250 N   0  0  0  0  0  0  0  0  0  0  0  0
  -23.4300  -28.8450   23.3610 O   0  0  0  0  0  0  0  0  0  0  0  0
  -20.9250  -29.8360   21.7380 H   0  0  0  0  0  0  0  0  0  0  0  0
  -18.0500  -28.0670   22.9220 C   0  0  0  0  0  0  0  0  0  0  0  0
  -20.6050  -28.3450   23.1980 C   0  0  0  0  0  3  0  0  0  0  0  0
  -20.7200  -26.9110   22.6310 C   0  0  0  0  0  2  0  0  0  0  0  0
  -19.6210  -26.5740   21.6170 C   0  0  0  0  0  2  0  0  0  0  0  0
  -18.2370  -26.7150   22.2550 C   0  0  0  0  0  2  0  0  0  0  0  0
  -19.1630  -28.8380   23.3500 C   0  0  0  0  0  0  0  0  0  0  0  0
  -18.9340  -30.1050   23.9330 C   0  0  0  0  0  3  0  0  0  0  0  0
  -17.6250  -30.5990   24.0900 C   0  0  0  0  0  3  0  0  0  0  0  0
  -16.5270  -29.8250   23.6780 C   0  0  0  0  0  3  0  0  0  0  0  0
  -16.7400  -28.5590   23.1000 C   0  0  0  0  0  3  0  0  0  0  0  0
  -25.9100  -32.5070   23.8270 C   0  0  0  0  0  3  0  0  0  0  0  0
  -26.4450  -31.7210   25.0850 C   0  0  1  0  0  0  0  0  0  0  0  0
  -25.3680  -31.4760   26.1670 C   0  0  0  0  0  1  0  0  0  0  0  0
  -27.0220  -30.3480   24.6690 C   0  0  0  0  0  1  0  0  0  0  0  0
  -27.6060  -32.5090   25.7380 C   0  0  0  0  0  1  0  0  0  0  0  0
  -25.6060  -33.9010   24.1760 N   0  0  0  0  0  0  0  0  0  0  0  0
  -25.9260  -34.9600   23.4200 C   0  0  0  0  0  0  0  0  0  0  0  0
  -26.5790  -34.8650   22.3770 O   0  0  0  0  0  0  0  0  0  0  0  0
  -25.0320  -34.0500   24.9930 H   0  0  0  0  0  0  0  0  0  0  0  0
  -24.1940  -36.7530   23.1000 C   0  0  0  0  0  1  0  0  0  0  0  0
  -25.4440  -36.3430   23.8950 C   0  0  0  0  0  3  0  0  0  0  0  0
  -27.5900  -37.2170   24.7090 C   0  0  0  0  0  1  0  0  0  0  0  0
  -26.4770  -37.3960   23.7790 N   0  0  0  0  0  0  0  0  0  0  0  0
  -26.0750  -38.3160   23.9370 H   0  0  0  0  0  0  0  0  0  0  0  0
  1  4  2  0
  2  3  1  0
  3  1  1  0
  3  5  1  0
  6  9  1  0
  7 11  1  0
  7  6  2  0
  9  8  2  0
  9  5  1  0
 10 21  1  0
 10  8  1  0
 11 10  2  0
 12 11  1  0
 13 21  1  0
 14 19  1  0
 15 16  1  0
 15 14  1  0
 17 16  1  0
 17 26  1  0
 17 18  1  0
 19 13  1  0
 19 18  1  0
 20 13  2  0
 21 22  1  0
 23 24  2  0
 24 25  1  0
 24 43  1  0
 25 28  1  0
 26 23  1  0
 26 27  1  0
 27 25  2  0
 28 29  1  0
 29 30  2  0
 31 34  1  0
 31 30  1  0
 32 31  2  0
 33 32  1  0
 33 28  2  0
 34 35  1  0
 35 36  1  0
 36 37  2  0
 38 37  1  0
 38 42  1  0
 39 38  2  0
 40 35  2  0
 40 39  1  0
 41 40  1  0
 43 44  1  0
 44 47  1  0
 44 46  1  0
 45 43  2  0
 48 49  1  0
 48 23  1  0
 50 48  1  0
 51 52  1  0
 51  1  1  0
 53 52  1  0
 54 65  2  0
 55 53  1  0
 55 60  1  0
 56 64  1  0
 56 66  1  0
 57 63  1  0
 57 59  1  0
 58 64  1  0
 59 58  1  0
 60 59  2  0
 61 62  1  0
 61 55  2  0
 62 57  2  0
 63 56  1  0
 64 54  1  0
 66 68  2  0
 67 66  1  0
 69 67  1  0
 70 79  2  0
 70 75  1  0
 71 67  1  0
 71 75  1  0
 72 71  1  0
 73 74  1  0
 73 72  1  0
 74 70  1  0
 75 76  2  0
 76 77  1  0
 78 77  2  0
 79 78  1  0
 80 54  1  0
 80 85  1  0
 80 81  1  0
 81 84  1  1
 81 82  1  0
 83 81  1  0
 85 88  1  0
 86 90  1  0
 86 85  1  0
 87 86  2  0
 90 89  1  0
 92 90  1  0
 92 93  1  0
 92 91  1  0
M  ISO  4  13 100  21 100  52 101  53 101
M  END
>  <TORSDO>  (89) 
F 20

>  <SCORE>  (89) 
-13.885

>  <name>  (89) 
88

>  <ligand_id>  (89) 
88

>  <original_smiles>  (89) 
[H]c1c([H])c([H])c2c(c1[H])C([H])([H])C([H])([H])C([H])([H])C2([H])N([H])C(=O)C1([H])N(C(=O)C([H])(N([H])C(=O)C([H])(N([H])C([H])([H])[H])C([H])([H])[H])C(C([H])([H])[H])(C([H])([H])[H])C([H])([H])[H])C([H])([H])c2c([H])c(OC([H])([H])C([H])([H])C(=O)N(C([H])([H])[H])C([H])([H])c3c([H])c([H])c(Cl)c(N([H])C(=O)N4C([H])([H])C([H])([H])C([H])([H])C([H])(n5nc(-c6c([H])c([H])c(Oc7c([H])c([H])c(F)c([H])c7F)c([H])c6[H])c(C(=O)N([H])[H])c5N([H])[H])C4([H])[H])c3[H])c([H])c([H])c2C1([H])[H]

>  <smiles>  (89) 
[H]c1c([H])c([H])c2c(c1[H])C([H])([H])C([H])([H])C([H])([H])C2([H])N([H])C(=O)C1([H])N(C(=O)C([H])(N([H])C(=O)C([H])(N([H])C([H])([H])[H])C([H])([H])[H])C(C([H])([H])[H])(C([H])([H])[H])C([H])([H])[H])C([H])([H])c2c([H])c(OC([H])([H])C([H])([H])C(=O)N(C([H])([H])[H])C([H])([H])c3c([H])c([H])c(Cl)c(N([H])C(=O)N4C([H])([H])C([H])([H])C([H])([H])C([H])(n5nc(-c6c([H])c([H])c(Oc7c([H])c([H])c(F)c([H])c7F)c([H])c6[H])c(C(=O)N([H])[H])c5N([H])[H])C4([H])[H])c3[H])c([H])c([H])c2C1([H])[H]

$$$$
89:0:0
     RDKit          3D

103112  0  0  1  0  0  0  0  0999 V2000
  -27.4740  -23.4200   17.7080 C   0  0  0  0  0  0  0  0  0  0  0  0
  -24.4930  -24.2340   16.4530 C   0  0  0  0  0  2  0  0  0  0  0  0
  -25.4910  -25.3430   16.1140 C   0  0  0  0  0  2  0  0  0  0  0  0
  -25.1470  -22.8690   16.6900 C   0  0  0  0  0  2  0  0  0  0  0  0
  -26.4360  -25.6680   17.2790 C   0  0  0  0  0  2  0  0  0  0  0  0
  -26.0610  -22.8040   17.9420 C   0  0  0  0  0  3  0  0  0  0  0  0
  -27.5720  -24.7330   17.3670 N   0  0  0  0  0  0  0  0  0  0  0  0
  -28.4960  -22.7360   17.8420 O   0  0  0  0  0  0  0  0  0  0  0  0
  -26.1990  -21.3430   18.4480 C   0  0  0  0  0  0  0  0  0  0  0  0
  -26.6060  -20.4100   17.5710 N   0  0  0  0  0  0  0  0  0  0  0  0
  -25.8580  -21.0560   19.5980 O   0  0  0  0  0  0  0  0  0  0  0  0
  -26.8680  -20.7230   16.6470 H   0  0  0  0  0  0  0  0  0  0  0  0
  -26.4600  -18.9680   17.7330 C   0  0  0  0  0  2  0  0  0  0  0  0
  -28.7020  -17.7530   17.6380 C   0  0  0  0  0  3  0  0  0  0  0  0
  -29.7170  -16.9970   18.2640 C   0  0  0  0  0  3  0  0  0  0  0  0
  -27.6370  -18.0950   19.7940 C   0  0  0  0  0  3  0  0  0  0  0  0
  -27.6430  -18.2820   18.4000 C   0  0  0  0  0  0  0  0  0  0  0  0
  -28.6240  -17.3060   20.4240 C   0  0  0  0  0  0  0  0  0  0  0  0
  -29.6720  -16.7400   19.6590 C   0  0  0  0  0  0  0  0  0  0  0  0
  -28.4750  -17.0020   21.9040 C   0  0  0  0  0  1  0  0  0  0  0  0
  -31.2960  -14.9010   19.7670 C   0  0  0  0  0  0  0  0  0  0  0  0
  -30.8560  -12.7820   18.5830 C   0  0  0  0  0  2  0  0  0  0  0  0
  -29.8120  -13.0080   17.4720 C   0  0  0  0  0  2  0  0  0  0  0  0
  -28.3820  -12.8570   18.0320 C   0  0  0  0  0  2  0  0  0  0  0  0
  -28.1550  -13.6720   19.3320 C   0  0  0  0  0  3  0  0  0  0  0  0
  -29.3100  -13.4580   20.3360 C   0  0  0  0  0  2  0  0  0  0  0  0
  -30.5720  -13.7590   19.6410 N   0  0  0  0  0  0  0  0  0  0  0  0
  -32.4150  -15.0490   19.2710 O   0  0  0  0  0  0  0  0  0  0  0  0
  -30.6710  -15.9550   20.3110 N   0  0  0  0  0  0  0  0  0  0  0  0
  -31.2950  -16.5250   20.8610 H   0  0  0  0  0  0  0  0  0  0  0  0
  -25.8440  -14.2700   20.2910 C   0  0  0  0  0  0  0  0  0  0  0  0
  -24.8060  -13.4960   20.7240 C   0  0  0  0  0  0  0  0  0  0  0  0
  -25.2440  -12.1450   20.5930 C   0  0  0  0  0  0  0  0  0  0  0  0
  -26.8540  -13.3910   19.9310 N   0  0  0  0  0  0  0  0  0  0  0  0
  -26.4990  -12.1030   20.1650 N   0  0  0  0  0  0  0  0  0  0  0  0
  -24.5200  -10.8850   20.7930 C   0  0  0  0  0  0  0  0  0  0  0  0
  -24.9290   -9.9450   21.7640 C   0  0  0  0  0  3  0  0  0  0  0  0
  -24.2080   -8.7470   21.9490 C   0  0  0  0  0  3  0  0  0  0  0  0
  -23.0630   -8.4810   21.1610 C   0  0  0  0  0  0  0  0  0  0  0  0
  -22.6720   -9.4080   20.1790 C   0  0  0  0  0  3  0  0  0  0  0  0
  -23.3950  -10.5990   19.9940 C   0  0  0  0  0  3  0  0  0  0  0  0
  -22.3110   -7.3340   21.2560 O   0  0  0  0  0  0  0  0  0  0  0  0
  -22.0890   -6.7150   22.4600 C   0  0  0  0  0  0  0  0  0  0  0  0
  -21.4680   -7.3840   23.5380 C   0  0  0  0  0  3  0  0  0  0  0  0
  -21.2010   -6.6890   24.7340 C   0  0  0  0  0  3  0  0  0  0  0  0
  -21.5400   -5.3270   24.8510 C   0  0  0  0  0  0  0  0  0  0  0  0
  -22.1540   -4.6600   23.7760 C   0  0  0  0  0  3  0  0  0  0  0  0
  -22.4250   -5.3520   22.5830 C   0  0  0  0  0  0  0  0  0  0  0  0
  -22.9980   -4.6990   21.5420 F   0  0  0  0  0  0  0  0  0  0  0  0
  -21.2730   -4.6570   25.9960 F   0  0  0  0  0  0  0  0  0  0  0  0
  -23.4450  -13.9760   21.1450 C   0  0  0  0  0  0  0  0  0  0  0  0
  -22.8140  -13.2770   22.0790 N   0  0  0  0  0  0  0  0  0  0  0  0
  -22.9570  -15.0030   20.6790 O   0  0  0  0  0  0  0  0  0  0  0  0
  -23.2250  -12.4450   22.4760 H   0  0  0  0  0  0  0  0  0  0  0  0
  -21.9070  -13.5790   22.4070 H   0  0  0  0  0  0  0  0  0  0  0  0
  -25.9920  -15.6420   20.1530 N   0  0  0  0  0  0  0  0  0  0  0  0
  -25.2380  -16.2850   20.3590 H   0  0  0  0  0  0  0  0  0  0  0  0
  -26.8320  -16.1060   19.8220 H   0  0  0  0  0  0  0  0  0  0  0  0
  -28.8780  -25.3470   17.0600 C   0  0  0  0  0  2  0  0  0  0  0  0
  -29.2500  -26.4250   18.0860 C   0  0  0  0  0  0  0  0  0  0  0  0
  -29.6900  -27.5160   17.7080 O   0  0  0  0  0  0  0  0  0  0  0  0
  -29.0860  -26.0930   19.5780 C   0  0  0  0  0  2  0  0  0  0  0  0
  -28.8650  -27.2790   20.3520 O   0  0  0  0  0  0  0  0  0  0  0  0
  -24.7520  -32.0630   23.6010 C   0  0  0  0  0  0  0  0  0  0  0  0
  -27.6310  -27.8970   20.3450 C   0  0  0  0  0  0  0  0  0  0  0  0
  -23.6300  -30.7080   21.8590 C   0  0  0  0  0  3  0  0  0  0  0  0
  -25.1680  -29.2960   20.3940 C   0  0  0  0  0  0  0  0  0  0  0  0
  -26.1410  -31.1610   21.7420 C   0  0  0  0  0  2  0  0  0  0  0  0
  -26.2900  -29.8300   21.0370 C   0  0  0  0  0  0  0  0  0  0  0  0
  -27.5160  -29.1330   21.0180 C   0  0  0  0  0  3  0  0  0  0  0  0
  -26.4830  -27.3640   19.7100 C   0  0  0  0  0  3  0  0  0  0  0  0
  -25.2590  -28.0570   19.7330 C   0  0  0  0  0  3  0  0  0  0  0  0
  -23.8950  -30.1070   20.4520 C   0  0  0  0  0  2  0  0  0  0  0  0
  -24.8570  -31.3250   22.4590 N   0  0  0  0  0  0  0  0  0  0  0  0
  -23.6490  -32.2730   24.1280 O   0  0  0  0  0  0  0  0  0  0  0  0
  -22.9970  -29.6190   22.7510 C   0  0  0  0  0  0  0  0  0  0  0  0
  -21.6940  -29.3630   22.5520 N   0  0  0  0  0  0  0  0  0  0  0  0
  -23.6780  -29.0060   23.5780 O   0  0  0  0  0  0  0  0  0  0  0  0
  -21.2040  -29.9200   21.8670 H   0  0  0  0  0  0  0  0  0  0  0  0
  -18.3900  -27.9200   22.7890 C   0  0  0  0  0  0  0  0  0  0  0  0
  -20.8960  -28.3540   23.2480 C   0  0  0  0  0  3  0  0  0  0  0  0
  -21.1430  -26.9460   22.6600 C   0  0  0  0  0  2  0  0  0  0  0  0
  -20.1420  -26.5650   21.5650 C   0  0  0  0  0  2  0  0  0  0  0  0
  -18.7120  -26.5990   22.1100 C   0  0  0  0  0  2  0  0  0  0  0  0
  -19.4170  -28.7510   23.3090 C   0  0  0  0  0  0  0  0  0  0  0  0
  -19.0660  -29.9840   23.9010 C   0  0  0  0  0  3  0  0  0  0  0  0
  -17.7200  -30.3890   23.9780 C   0  0  0  0  0  3  0  0  0  0  0  0
  -16.7070  -29.5550   23.4750 C   0  0  0  0  0  3  0  0  0  0  0  0
  -17.0420  -28.3220   22.8880 C   0  0  0  0  0  3  0  0  0  0  0  0
  -26.0040  -32.7050   24.2790 C   0  0  0  0  0  3  0  0  0  0  0  0
  -25.6730  -34.1020   24.5880 N   0  0  0  0  0  0  0  0  0  0  0  0
  -26.0300  -35.1540   23.8390 C   0  0  0  0  0  0  0  0  0  0  0  0
  -26.7450  -35.0500   22.8370 O   0  0  0  0  0  0  0  0  0  0  0  0
  -25.0480  -34.2600   25.3640 H   0  0  0  0  0  0  0  0  0  0  0  0
  -24.3040  -36.9290   23.4000 C   0  0  0  0  0  1  0  0  0  0  0  0
  -25.5120  -36.5380   24.2680 C   0  0  0  0  0  3  0  0  0  0  0  0
  -27.5970  -37.4480   25.1870 C   0  0  0  0  0  1  0  0  0  0  0  0
  -26.5370  -37.6020   24.1970 N   0  0  0  0  0  0  0  0  0  0  0  0
  -26.1140  -38.5180   24.3220 H   0  0  0  0  0  0  0  0  0  0  0  0
  -26.4700  -31.9410   25.5780 C   0  0  1  0  0  0  0  0  0  0  0  0
  -25.3330  -31.6880   26.5930 C   0  0  0  0  0  1  0  0  0  0  0  0
  -27.0880  -30.5710   25.2130 C   0  0  0  0  0  1  0  0  0  0  0  0
  -27.5740  -32.7510   26.2980 C   0  0  0  0  0  1  0  0  0  0  0  0
  1  8  2  0
  1  6  1  0
  2  4  1  0
  3  2  1  0
  3  5  1  0
  4  6  1  0
  5  7  1  0
  6  9  1  0
  7  1  1  0
  9 11  2  0
 10 13  1  0
 10  9  1  0
 12 10  1  0
 13 17  1  0
 14 15  2  0
 14 17  1  0
 15 19  1  0
 16 18  1  0
 17 16  2  0
 18 20  1  0
 19 29  1  0
 19 18  2  0
 21 29  1  0
 22 27  1  0
 23 24  1  0
 23 22  1  0
 25 24  1  0
 25 34  1  0
 25 26  1  0
 27 21  1  0
 27 26  1  0
 28 21  2  0
 29 30  1  0
 31 32  2  0
 32 51  1  0
 33 32  1  0
 33 36  1  0
 34 35  1  0
 34 31  1  0
 35 33  2  0
 36 37  1  0
 37 38  2  0
 39 42  1  0
 39 38  1  0
 40 39  2  0
 41 40  1  0
 41 36  2  0
 42 43  1  0
 43 48  2  0
 43 44  1  0
 44 45  2  0
 45 46  1  0
 46 50  1  0
 47 46  2  0
 48 47  1  0
 49 48  1  0
 51 52  1  0
 52 55  1  0
 52 54  1  0
 53 51  2  0
 56 31  1  0
 56 57  1  0
 58 56  1  0
 59  7  1  0
 59 60  1  0
 60 62  1  0
 61 60  2  0
 62 63  1  0
 64 75  2  0
 65 63  1  0
 65 70  1  0
 66 74  1  0
 66 76  1  0
 67 73  1  0
 67 69  1  0
 68 74  1  0
 69 68  1  0
 70 69  2  0
 71 72  1  0
 71 65  2  0
 72 67  2  0
 73 66  1  0
 74 64  1  0
 76 78  2  0
 77 76  1  0
 79 77  1  0
 80 89  2  0
 80 85  1  0
 81 77  1  0
 81 85  1  0
 82 81  1  0
 83 84  1  0
 83 82  1  0
 84 80  1  0
 85 86  2  0
 86 87  1  0
 88 87  2  0
 89 88  1  0
 90 64  1  0
 90 91  1  0
 90100  1  0
 91 94  1  0
 92 96  1  0
 92 91  1  0
 93 92  2  0
 96 95  1  0
 98 96  1  0
 98 99  1  0
 98 97  1  0
100103  1  1
100101  1  0
102100  1  0
M  ISO  4  21 100  29 100  62 101  63 101
M  END
>  <TORSDO>  (90) 
F 22

>  <SCORE>  (90) 
-7.818

>  <name>  (90) 
89

>  <ligand_id>  (90) 
89

>  <original_smiles>  (90) 
[H]c1c([H])c([H])c2c(c1[H])C([H])([H])C([H])([H])C([H])([H])C2([H])N([H])C(=O)C1([H])N(C(=O)C([H])(N([H])C(=O)C([H])(N([H])C([H])([H])[H])C([H])([H])[H])C(C([H])([H])[H])(C([H])([H])[H])C([H])([H])[H])C([H])([H])c2c([H])c(OC([H])([H])C(=O)C([H])([H])N3C(=O)C([H])(C(=O)N([H])C([H])([H])c4c([H])c([H])c(N([H])C(=O)N5C([H])([H])C([H])([H])C([H])([H])C([H])(n6nc(-c7c([H])c([H])c(Oc8c([H])c([H])c(F)c([H])c8F)c([H])c7[H])c(C(=O)N([H])[H])c6N([H])[H])C5([H])[H])c(C([H])([H])[H])c4[H])C([H])([H])C([H])([H])C([H])([H])C3([H])[H])c([H])c([H])c2C1([H])[H]

>  <smiles>  (90) 
[H]c1c([H])c([H])c2c(c1[H])C([H])([H])C([H])([H])C([H])([H])C2([H])N([H])C(=O)C1([H])N(C(=O)C([H])(N([H])C(=O)C([H])(N([H])C([H])([H])[H])C([H])([H])[H])C(C([H])([H])[H])(C([H])([H])[H])C([H])([H])[H])C([H])([H])c2c([H])c(OC([H])([H])C(=O)C([H])([H])N3C(=O)C([H])(C(=O)N([H])C([H])([H])c4c([H])c([H])c(N([H])C(=O)N5C([H])([H])C([H])([H])C([H])([H])C([H])(n6nc(-c7c([H])c([H])c(Oc8c([H])c([H])c(F)c([H])c8F)c([H])c7[H])c(C(=O)N([H])[H])c6N([H])[H])C5([H])[H])c(C([H])([H])[H])c4[H])C([H])([H])C([H])([H])C([H])([H])C3([H])[H])c([H])c([H])c2C1([H])[H]

$$$$
