0:0:0
     RDKit          3D

 94103  0  0  1  0  0  0  0  0999 V2000
  -28.5770  -23.7370   19.8760 C   0  0  0  0  0  0  0  0  0  0  0  0
  -29.7910  -23.7990   22.4840 C   0  0  0  0  0  2  0  0  0  0  0  0
  -29.4010  -25.1710   21.9140 C   0  0  0  0  0  2  0  0  0  0  0  0
  -30.3150  -22.9010   21.3510 C   0  0  0  0  0  2  0  0  0  0  0  0
  -28.3950  -25.0880   20.7500 C   0  0  0  0  0  3  0  0  0  0  0  0
  -29.2650  -22.6160   20.3610 N   0  0  0  0  0  0  0  0  0  0  0  0
  -27.9990  -23.6860   18.7860 O   0  0  0  0  0  0  0  0  0  0  0  0
  -28.4470  -26.4250   20.0660 O   0  0  0  0  0  0  0  0  0  0  0  0
  -24.6000  -31.7900   23.1520 C   0  0  0  0  0  0  0  0  0  0  0  0
  -27.3210  -27.2720   20.0980 C   0  0  0  0  0  0  0  0  0  0  0  0
  -23.4340  -30.3730   21.5000 C   0  0  0  0  0  3  0  0  0  0  0  0
  -24.9260  -28.8500   20.0790 C   0  0  0  0  0  0  0  0  0  0  0  0
  -25.9700  -30.7400   21.3310 C   0  0  0  0  0  2  0  0  0  0  0  0
  -26.0840  -29.3610   20.6810 C   0  0  0  0  0  0  0  0  0  0  0  0
  -27.2870  -28.5860   20.6750 C   0  0  0  0  0  3  0  0  0  0  0  0
  -26.1400  -26.8180   19.4800 C   0  0  0  0  0  3  0  0  0  0  0  0
  -24.9580  -27.5850   19.4670 C   0  0  0  0  0  3  0  0  0  0  0  0
  -23.6710  -29.7020   20.1210 C   0  0  0  0  0  2  0  0  0  0  0  0
  -24.6860  -30.9870   22.0510 N   0  0  0  0  0  0  0  0  0  0  0  0
  -23.5080  -32.0430   23.6820 O   0  0  0  0  0  0  0  0  0  0  0  0
  -22.7860  -29.3420   22.4550 C   0  0  0  0  0  0  0  0  0  0  0  0
  -21.4660  -29.1330   22.3160 N   0  0  0  0  0  0  0  0  0  0  0  0
  -23.4710  -28.7330   23.2810 O   0  0  0  0  0  0  0  0  0  0  0  0
  -20.9710  -29.6770   21.6240 H   0  0  0  0  0  0  0  0  0  0  0  0
  -18.1240  -27.8140   22.7490 C   0  0  0  0  0  0  0  0  0  0  0  0
  -20.6630  -28.1720   23.0760 C   0  0  0  0  0  3  0  0  0  0  0  0
  -20.8310  -26.7400   22.5180 C   0  0  0  0  0  2  0  0  0  0  0  0
  -19.7670  -26.3670   21.4810 C   0  0  0  0  0  2  0  0  0  0  0  0
  -18.3660  -26.4670   22.0910 C   0  0  0  0  0  2  0  0  0  0  0  0
  -19.2030  -28.6220   23.1970 C   0  0  0  0  0  0  0  0  0  0  0  0
  -18.9230  -29.8810   23.7730 C   0  0  0  0  0  3  0  0  0  0  0  0
  -17.5960  -30.3340   23.9030 C   0  0  0  0  0  3  0  0  0  0  0  0
  -16.5310  -29.5250   23.4710 C   0  0  0  0  0  3  0  0  0  0  0  0
  -16.7950  -28.2660   22.9010 C   0  0  0  0  0  3  0  0  0  0  0  0
  -25.8640  -32.4480   23.7860 C   0  0  0  0  0  3  0  0  0  0  0  0
  -25.5180  -33.8350   24.1320 N   0  0  0  0  0  0  0  0  0  0  0  0
  -25.8330  -34.9060   23.3910 C   0  0  0  0  0  0  0  0  0  0  0  0
  -26.5120  -34.8320   22.3640 O   0  0  0  0  0  0  0  0  0  0  0  0
  -24.9120  -33.9650   24.9290 H   0  0  0  0  0  0  0  0  0  0  0  0
  -24.0690  -36.6690   23.0520 C   0  0  0  0  0  1  0  0  0  0  0  0
  -25.3130  -36.2780   23.8660 C   0  0  0  0  0  3  0  0  0  0  0  0
  -27.4230  -37.1950   24.7210 C   0  0  0  0  0  1  0  0  0  0  0  0
  -26.3240  -37.3540   23.7750 N   0  0  0  0  0  0  0  0  0  0  0  0
  -25.8960  -38.2640   23.9340 H   0  0  0  0  0  0  0  0  0  0  0  0
  -26.3930  -31.6780   25.0580 C   0  0  1  0  0  0  0  0  0  0  0  0
  -25.3030  -31.4090   26.1220 C   0  0  0  0  0  1  0  0  0  0  0  0
  -27.0070  -30.3160   24.6570 C   0  0  0  0  0  1  0  0  0  0  0  0
  -27.5250  -32.4900   25.7290 C   0  0  0  0  0  1  0  0  0  0  0  0
  -29.2830  -21.2080   19.7150 C   0  0  0  0  0  2  0  0  0  0  0  0
  -30.0980  -19.8620   21.8030 C   0  0  0  0  0  3  0  0  0  0  0  0
  -30.5600  -18.7060   22.4600 C   0  0  0  0  0  3  0  0  0  0  0  0
  -29.8850  -18.5490   19.7760 C   0  0  0  0  0  3  0  0  0  0  0  0
  -29.7850  -19.8550   20.4290 C   0  0  0  0  0  0  0  0  0  0  0  0
  -30.6780  -17.4580   21.8080 C   0  0  0  0  0  0  0  0  0  0  0  0
  -30.3260  -17.3200   20.4400 C   0  0  0  0  0  0  0  0  0  0  0  0
  -31.1010  -16.2620   22.6460 C   0  0  0  0  0  1  0  0  0  0  0  0
  -30.9780  -14.8110   19.8430 C   0  0  0  0  0  0  0  0  0  0  0  0
  -30.6980  -12.5250   18.8440 C   0  0  0  0  0  2  0  0  0  0  0  0
  -29.7020  -12.5960   17.6630 C   0  0  0  0  0  2  0  0  0  0  0  0
  -28.2440  -12.4750   18.1590 C   0  0  0  0  0  2  0  0  0  0  0  0
  -27.9490  -13.3920   19.3740 C   0  0  0  0  0  3  0  0  0  0  0  0
  -29.0520  -13.2810   20.4460 C   0  0  0  0  0  2  0  0  0  0  0  0
  -30.3280  -13.5990   19.7910 N   0  0  0  0  0  0  0  0  0  0  0  0
  -32.1760  -14.8880   19.5480 O   0  0  0  0  0  0  0  0  0  0  0  0
  -30.1690  -15.9430   19.8950 N   0  0  0  0  0  0  0  0  0  0  0  0
  -29.2020  -15.6820   19.7970 H   0  0  0  0  0  0  0  0  0  0  0  0
  -25.6320  -14.0840   20.2340 C   0  0  0  0  0  0  0  0  0  0  0  0
  -24.5500  -13.3540   20.6410 C   0  0  0  0  0  0  0  0  0  0  0  0
  -24.9460  -11.9840   20.5670 C   0  0  0  0  0  0  0  0  0  0  0  0
  -26.6190  -13.1600   19.9290 N   0  0  0  0  0  0  0  0  0  0  0  0
  -26.2170  -11.8910   20.1920 N   0  0  0  0  0  0  0  0  0  0  0  0
  -24.1710  -10.7540   20.7710 C   0  0  0  0  0  0  0  0  0  0  0  0
  -24.5800   -9.7650   21.6920 C   0  0  0  0  0  3  0  0  0  0  0  0
  -23.8060   -8.6000   21.8830 C   0  0  0  0  0  3  0  0  0  0  0  0
  -22.6090   -8.4170   21.1520 C   0  0  0  0  0  0  0  0  0  0  0  0
  -22.2170   -9.3930   20.2180 C   0  0  0  0  0  3  0  0  0  0  0  0
  -22.9910  -10.5490   20.0270 C   0  0  0  0  0  3  0  0  0  0  0  0
  -21.8060   -7.3050   21.2520 O   0  0  0  0  0  0  0  0  0  0  0  0
  -21.7190   -6.5840   22.4160 C   0  0  0  0  0  0  0  0  0  0  0  0
  -21.3260   -7.1800   23.6340 C   0  0  0  0  0  3  0  0  0  0  0  0
  -21.1810   -6.3880   24.7900 C   0  0  0  0  0  3  0  0  0  0  0  0
  -21.4200   -5.0020   24.7300 C   0  0  0  0  0  0  0  0  0  0  0  0
  -21.8070   -4.4050   23.5170 C   0  0  0  0  0  3  0  0  0  0  0  0
  -21.9530   -5.1950   22.3630 C   0  0  0  0  0  0  0  0  0  0  0  0
  -22.3050   -4.6130   21.1920 F   0  0  0  0  0  0  0  0  0  0  0  0
  -21.2740   -4.2400   25.8400 F   0  0  0  0  0  0  0  0  0  0  0  0
  -23.1910  -13.8930   20.9870 C   0  0  0  0  0  0  0  0  0  0  0  0
  -22.4810  -13.2270   21.8920 N   0  0  0  0  0  0  0  0  0  0  0  0
  -22.7710  -14.9360   20.4900 O   0  0  0  0  0  0  0  0  0  0  0  0
  -22.8330  -12.3800   22.3150 H   0  0  0  0  0  0  0  0  0  0  0  0
  -21.5710  -13.5680   22.1680 H   0  0  0  0  0  0  0  0  0  0  0  0
  -25.8510  -15.4490   20.0750 N   0  0  0  0  0  0  0  0  0  0  0  0
  -25.1180  -16.1300   20.2440 H   0  0  0  0  0  0  0  0  0  0  0  0
  -26.6930  -15.8650   19.7010 H   0  0  0  0  0  0  0  0  0  0  0  0
  1  6  1  0
  1  5  1  0
  3  2  1  0
  4  2  1  0
  5  8  1  0
  5  3  1  0
  6  4  1  0
  7  1  2  0
  8 10  1  0
  9 20  2  0
 10 15  1  0
 11 19  1  0
 11 21  1  0
 12 18  1  0
 12 14  1  0
 13 19  1  0
 14 13  1  0
 15 14  2  0
 16 10  2  0
 17 16  1  0
 17 12  2  0
 18 11  1  0
 19  9  1  0
 21 23  2  0
 22 21  1  0
 24 22  1  0
 25 34  2  0
 25 30  1  0
 26 22  1  0
 26 30  1  0
 27 26  1  0
 28 29  1  0
 28 27  1  0
 29 25  1  0
 30 31  2  0
 31 32  1  0
 33 32  2  0
 34 33  1  0
 35  9  1  0
 35 36  1  0
 35 45  1  0
 36 39  1  0
 37 41  1  0
 37 36  1  0
 38 37  2  0
 41 40  1  0
 43 41  1  0
 43 44  1  0
 43 42  1  0
 45 48  1  1
 45 46  1  0
 47 45  1  0
 49  6  1  0
 49 53  1  0
 50 51  1  0
 52 53  1  0
 52 55  2  0
 53 50  2  0
 54 51  2  0
 54 56  1  0
 55 54  1  0
 57 65  1  0
 58 63  1  0
 59 60  1  0
 59 58  1  0
 61 60  1  0
 61 70  1  0
 61 62  1  0
 63 57  1  0
 63 62  1  0
 64 57  2  0
 65 55  1  0
 66 65  1  0
 67 68  2  0
 68 87  1  0
 69 68  1  0
 69 72  1  0
 70 71  1  0
 70 67  1  0
 71 69  2  0
 72 73  1  0
 73 74  2  0
 75 78  1  0
 75 74  1  0
 76 75  2  0
 77 76  1  0
 77 72  2  0
 78 79  1  0
 79 80  1  0
 80 81  2  0
 82 81  1  0
 82 86  1  0
 83 82  2  0
 84 79  2  0
 84 83  1  0
 85 84  1  0
 87 88  1  0
 88 91  1  0
 88 90  1  0
 89 87  2  0
 92 67  1  0
 92 93  1  0
 94 92  1  0
M  ISO  4   5 101   8 101  57 100  65 100
M  END
>  <TORSDO>  (1) 
F 18

>  <SCORE>  (1) 
-13.620

>  <name>  (1) 
0

>  <ligand_id>  (1) 
0

>  <original_smiles>  (1) 
[H]c1c([H])c([H])c2c(c1[H])C([H])([H])C([H])([H])C([H])([H])C2([H])N([H])C(=O)C1([H])N(C(=O)C([H])(N([H])C(=O)C([H])(N([H])C([H])([H])[H])C([H])([H])[H])C(C([H])([H])[H])(C([H])([H])[H])C([H])([H])[H])C([H])([H])c2c([H])c(OC3([H])C(=O)N(C([H])([H])c4c([H])c([H])c(C([H])([H])[H])c(N([H])C(=O)N5C([H])([H])C([H])([H])C([H])([H])C([H])(n6nc(-c7c([H])c([H])c(Oc8c([H])c([H])c(F)c([H])c8F)c([H])c7[H])c(C(=O)N([H])[H])c6N([H])[H])C5([H])[H])c4[H])C([H])([H])C([H])([H])C3([H])[H])c([H])c([H])c2C1([H])[H]

>  <smiles>  (1) 
[H]c1c([H])c([H])c2c(c1[H])C([H])([H])C([H])([H])C([H])([H])C2([H])N([H])C(=O)C1([H])N(C(=O)C([H])(N([H])C(=O)C([H])(N([H])C([H])([H])[H])C([H])([H])[H])C(C([H])([H])[H])(C([H])([H])[H])C([H])([H])[H])C([H])([H])c2c([H])c(OC3([H])C(=O)N(C([H])([H])c4c([H])c([H])c(C([H])([H])[H])c(N([H])C(=O)N5C([H])([H])C([H])([H])C([H])([H])C([H])(n6nc(-c7c([H])c([H])c(Oc8c([H])c([H])c(F)c([H])c8F)c([H])c7[H])c(C(=O)N([H])[H])c6N([H])[H])C5([H])[H])c4[H])C([H])([H])C([H])([H])C3([H])[H])c([H])c([H])c2C1([H])[H]

$$$$
1:0:0
     RDKit          3D

 94102  0  0  1  0  0  0  0  0999 V2000
  -28.5580  -19.4800   20.6410 C   0  0  0  0  0  3  0  0  0  0  0  0
  -30.7890  -19.1720   18.9780 C   0  0  0  0  0  3  0  0  0  0  0  0
  -29.2940  -18.2680   20.6710 C   0  0  0  0  0  0  0  0  0  0  0  0
  -28.9360  -20.5550   19.8010 C   0  0  0  0  0  0  0  0  0  0  0  0
  -30.4490  -18.1210   19.8610 C   0  0  0  0  0  0  0  0  0  0  0  0
  -30.0460  -20.3720   18.9410 C   0  0  0  0  0  0  0  0  0  0  0  0
  -28.8480  -17.1540   21.6050 C   0  0  0  0  0  1  0  0  0  0  0  0
  -30.5470  -21.6320   17.8700 Cl  0  0  0  0  0  0  0  0  0  0  0  0
  -31.4070  -16.9290   19.9940 C   0  0  0  0  0  2  0  0  0  0  0  0
  -31.4090  -14.4970   19.4040 C   0  0  0  0  0  0  0  0  0  0  0  0
  -30.9790  -12.1940   18.6300 C   0  0  0  0  0  2  0  0  0  0  0  0
  -29.9460  -12.2210   17.4860 C   0  0  0  0  0  2  0  0  0  0  0  0
  -28.5080  -12.2100   18.0400 C   0  0  0  0  0  2  0  0  0  0  0  0
  -28.2900  -13.2540   19.1680 C   0  0  0  0  0  3  0  0  0  0  0  0
  -29.4220  -13.1720   20.2150 C   0  0  0  0  0  2  0  0  0  0  0  0
  -30.7000  -13.3420   19.5050 N   0  0  0  0  0  0  0  0  0  0  0  0
  -32.4890  -14.5670   18.8100 O   0  0  0  0  0  0  0  0  0  0  0  0
  -30.8110  -15.5900   19.9100 N   0  0  0  0  0  0  0  0  0  0  0  0
  -29.9080  -15.4560   20.3390 H   0  0  0  0  0  0  0  0  0  0  0  0
  -26.0700  -14.0920   20.1630 C   0  0  0  0  0  0  0  0  0  0  0  0
  -24.9610  -13.4260   20.6130 C   0  0  0  0  0  0  0  0  0  0  0  0
  -25.2540  -12.0340   20.4750 C   0  0  0  0  0  0  0  0  0  0  0  0
  -26.9730  -13.1110   19.7830 N   0  0  0  0  0  0  0  0  0  0  0  0
  -26.4910  -11.8660   20.0260 N   0  0  0  0  0  0  0  0  0  0  0  0
  -24.4080  -10.8530   20.6910 C   0  0  0  0  0  0  0  0  0  0  0  0
  -24.7020   -9.9090   21.6990 C   0  0  0  0  0  3  0  0  0  0  0  0
  -23.8640   -8.7910   21.9000 C   0  0  0  0  0  3  0  0  0  0  0  0
  -22.7180   -8.6090   21.0890 C   0  0  0  0  0  0  0  0  0  0  0  0
  -22.4430   -9.5390   20.0710 C   0  0  0  0  0  3  0  0  0  0  0  0
  -23.2810  -10.6480   19.8690 C   0  0  0  0  0  3  0  0  0  0  0  0
  -21.8610   -7.5400   21.1930 O   0  0  0  0  0  0  0  0  0  0  0  0
  -21.5140   -7.0110   22.4100 C   0  0  0  0  0  0  0  0  0  0  0  0
  -20.8650   -7.7820   23.4000 C   0  0  0  0  0  3  0  0  0  0  0  0
  -20.4650   -7.1800   24.6100 C   0  0  0  0  0  3  0  0  0  0  0  0
  -20.7030   -5.8100   24.8290 C   0  0  0  0  0  0  0  0  0  0  0  0
  -21.3450   -5.0400   23.8430 C   0  0  0  0  0  3  0  0  0  0  0  0
  -21.7470   -5.6390   22.6360 C   0  0  0  0  0  0  0  0  0  0  0  0
  -22.3450   -4.8880   21.6810 F   0  0  0  0  0  0  0  0  0  0  0  0
  -20.3130   -5.2300   25.9890 F   0  0  0  0  0  0  0  0  0  0  0  0
  -23.6660  -14.0410   21.0600 C   0  0  0  0  0  0  0  0  0  0  0  0
  -22.9600  -13.3890   21.9760 N   0  0  0  0  0  0  0  0  0  0  0  0
  -23.2960  -15.1330   20.6300 O   0  0  0  0  0  0  0  0  0  0  0  0
  -23.2730  -12.5020   22.3430 H   0  0  0  0  0  0  0  0  0  0  0  0
  -22.0930  -13.7810   22.3160 H   0  0  0  0  0  0  0  0  0  0  0  0
  -26.3800  -15.4420   20.0290 N   0  0  0  0  0  0  0  0  0  0  0  0
  -25.7230  -16.1770   20.2640 H   0  0  0  0  0  0  0  0  0  0  0  0
  -27.2440  -15.7960   19.6410 H   0  0  0  0  0  0  0  0  0  0  0  0
  -28.1440  -21.8770   19.8220 C   0  0  0  0  0  2  0  0  0  0  0  0
  -28.9480  -23.0180   20.3360 N   0  0  0  0  0  4  0  0  0  0  0  0
  -29.7740  -23.1050   19.7630 H   0  0  0  0  0  0  0  0  0  0  0  0
  -29.2600  -22.7510   21.2560 H   0  0  0  0  0  0  0  0  0  0  0  0
  -28.2630  -24.3440   20.4710 C   0  0  0  0  0  2  0  0  0  0  0  0
  -28.6890  -25.3960   19.4080 C   0  0  0  0  0  2  0  0  0  0  0  0
  -28.5520  -26.7620   19.8520 O   0  0  0  0  0  0  0  0  0  0  0  0
  -24.4970  -31.6610   23.0470 C   0  0  0  0  0  0  0  0  0  0  0  0
  -27.3240  -27.4010   19.8540 C   0  0  0  0  0  0  0  0  0  0  0  0
  -23.3460  -30.2410   21.3830 C   0  0  0  0  0  3  0  0  0  0  0  0
  -24.8590  -28.8010   19.9160 C   0  0  0  0  0  0  0  0  0  0  0  0
  -25.8520  -30.7190   21.1760 C   0  0  0  0  0  2  0  0  0  0  0  0
  -25.9960  -29.3660   20.5040 C   0  0  0  0  0  0  0  0  0  0  0  0
  -27.2290  -28.6750   20.4660 C   0  0  0  0  0  3  0  0  0  0  0  0
  -26.1630  -26.8470   19.2700 C   0  0  0  0  0  3  0  0  0  0  0  0
  -24.9380  -27.5420   19.2980 C   0  0  0  0  0  3  0  0  0  0  0  0
  -23.5760  -29.6000   19.9880 C   0  0  0  0  0  2  0  0  0  0  0  0
  -24.5830  -30.8890   21.9270 N   0  0  0  0  0  0  0  0  0  0  0  0
  -23.4070  -31.8690   23.6000 O   0  0  0  0  0  0  0  0  0  0  0  0
  -22.7530  -29.1680   22.3250 C   0  0  0  0  0  0  0  0  0  0  0  0
  -21.4450  -28.9030   22.1830 N   0  0  0  0  0  0  0  0  0  0  0  0
  -23.4690  -28.5740   23.1360 O   0  0  0  0  0  0  0  0  0  0  0  0
  -20.9260  -29.4390   21.5000 H   0  0  0  0  0  0  0  0  0  0  0  0
  -18.1430  -27.5070   22.6470 C   0  0  0  0  0  0  0  0  0  0  0  0
  -20.6820  -27.9040   22.9320 C   0  0  0  0  0  3  0  0  0  0  0  0
  -20.8670  -26.4920   22.3290 C   0  0  0  0  0  2  0  0  0  0  0  0
  -19.7890  -26.1270   21.3060 C   0  0  0  0  0  2  0  0  0  0  0  0
  -18.4000  -26.1830   21.9470 C   0  0  0  0  0  2  0  0  0  0  0  0
  -19.2170  -28.3240   23.0950 C   0  0  0  0  0  0  0  0  0  0  0  0
  -18.9280  -29.5620   23.7070 C   0  0  0  0  0  3  0  0  0  0  0  0
  -17.5960  -29.9850   23.8790 C   0  0  0  0  0  3  0  0  0  0  0  0
  -16.5380  -29.1670   23.4490 C   0  0  0  0  0  3  0  0  0  0  0  0
  -16.8110  -27.9310   22.8380 C   0  0  0  0  0  3  0  0  0  0  0  0
  -25.7550  -32.3400   23.6720 C   0  0  0  0  0  3  0  0  0  0  0  0
  -25.3880  -33.7180   24.0230 N   0  0  0  0  0  0  0  0  0  0  0  0
  -25.6740  -34.7950   23.2800 C   0  0  0  0  0  0  0  0  0  0  0  0
  -26.3490  -34.7370   22.2490 O   0  0  0  0  0  0  0  0  0  0  0  0
  -24.7950  -33.8360   24.8320 H   0  0  0  0  0  0  0  0  0  0  0  0
  -23.8730  -36.5150   22.9420 C   0  0  0  0  0  1  0  0  0  0  0  0
  -25.1250  -36.1530   23.7570 C   0  0  0  0  0  3  0  0  0  0  0  0
  -27.2080  -37.1200   24.6220 C   0  0  0  0  0  1  0  0  0  0  0  0
  -26.1100  -37.2530   23.6680 N   0  0  0  0  0  0  0  0  0  0  0  0
  -25.6620  -38.1510   23.8280 H   0  0  0  0  0  0  0  0  0  0  0  0
  -26.3120  -31.5740   24.9350 C   0  0  1  0  0  0  0  0  0  0  0  0
  -25.2310  -31.2420   25.9880 C   0  0  0  0  0  1  0  0  0  0  0  0
  -26.9860  -30.2480   24.5130 C   0  0  0  0  0  1  0  0  0  0  0  0
  -27.4050  -32.4250   25.6250 C   0  0  0  0  0  1  0  0  0  0  0  0
  1  3  1  0
  2  5  1  0
  3  7  1  0
  4 48  1  0
  4  1  2  0
  5  9  1  0
  5  3  2  0
  6  2  2  0
  6  4  1  0
  8  6  1  0
 10 16  1  0
 10 18  1  0
 11 16  1  0
 12 13  1  0
 12 11  1  0
 14 13  1  0
 14 23  1  0
 14 15  1  0
 16 15  1  0
 17 10  2  0
 18  9  1  0
 18 19  1  0
 20 21  2  0
 21 40  1  0
 22 21  1  0
 22 25  1  0
 23 24  1  0
 23 20  1  0
 24 22  2  0
 25 26  1  0
 26 27  2  0
 28 31  1  0
 28 27  1  0
 29 28  2  0
 30 29  1  0
 30 25  2  0
 31 32  1  0
 32 37  2  0
 32 33  1  0
 33 34  2  0
 34 35  1  0
 35 39  1  0
 36 35  2  0
 37 36  1  0
 38 37  1  0
 40 41  1  0
 41 44  1  0
 41 43  1  0
 42 40  2  0
 45 20  1  0
 45 46  1  0
 47 45  1  0
 48 49  1  0
 49 52  1  0
 49 51  1  0
 50 49  1  0
 53 54  1  0
 53 52  1  0
 54 56  1  0
 55 66  2  0
 56 61  1  0
 57 65  1  0
 57 67  1  0
 58 64  1  0
 58 60  1  0
 59 65  1  0
 60 59  1  0
 61 60  2  0
 62 63  1  0
 62 56  2  0
 63 58  2  0
 64 57  1  0
 65 55  1  0
 67 69  2  0
 68 67  1  0
 70 68  1  0
 71 80  2  0
 71 76  1  0
 72 68  1  0
 72 76  1  0
 73 72  1  0
 74 75  1  0
 74 73  1  0
 75 71  1  0
 76 77  2  0
 77 78  1  0
 79 78  2  0
 80 79  1  0
 81 55  1  0
 81 82  1  0
 81 91  1  0
 82 85  1  0
 83 87  1  0
 83 82  1  0
 84 83  2  0
 87 86  1  0
 89 87  1  0
 89 90  1  0
 89 88  1  0
 91 94  1  1
 91 92  1  0
 93 91  1  0
M  ISO  4  10 100  18 100  53 101  54 101
M  END
>  <TORSDO>  (2) 
F 21

>  <SCORE>  (2) 
-10.639

>  <name>  (2) 
1

>  <ligand_id>  (2) 
1

>  <original_smiles>  (2) 
[H]c1c([H])c([H])c2c(c1[H])C([H])([H])C([H])([H])C([H])([H])C2([H])N([H])C(=O)C1([H])N(C(=O)C([H])(N([H])C(=O)C([H])(N([H])C([H])([H])[H])C([H])([H])[H])C(C([H])([H])[H])(C([H])([H])[H])C([H])([H])[H])C([H])([H])c2c([H])c(OC([H])([H])C([H])([H])[N+]([H])([H])C([H])([H])c3c([H])c(C([H])([H])[H])c(C([H])([H])N([H])C(=O)N4C([H])([H])C([H])([H])C([H])([H])C([H])(n5nc(-c6c([H])c([H])c(Oc7c([H])c([H])c(F)c([H])c7F)c([H])c6[H])c(C(=O)N([H])[H])c5N([H])[H])C4([H])[H])c([H])c3Cl)c([H])c([H])c2C1([H])[H]

>  <smiles>  (2) 
[H]c1c([H])c([H])c2c(c1[H])C([H])([H])C([H])([H])C([H])([H])C2([H])N([H])C(=O)C1([H])N(C(=O)C([H])(N([H])C(=O)C([H])(N([H])C([H])([H])[H])C([H])([H])[H])C(C([H])([H])[H])(C([H])([H])[H])C([H])([H])[H])C([H])([H])c2c([H])c(OC([H])([H])C([H])([H])[N+]([H])([H])C([H])([H])c3c([H])c(C([H])([H])[H])c(C([H])([H])N([H])C(=O)N4C([H])([H])C([H])([H])C([H])([H])C([H])(n5nc(-c6c([H])c([H])c(Oc7c([H])c([H])c(F)c([H])c7F)c([H])c6[H])c(C(=O)N([H])[H])c5N([H])[H])C4([H])[H])c([H])c3Cl)c([H])c([H])c2C1([H])[H]

$$$$
2:0:0
     RDKit          3D

 94102  0  0  1  0  0  0  0  0999 V2000
  -29.0270  -20.8990   21.5120 C   0  0  0  0  0  2  0  0  0  0  0  0
  -30.5550  -18.9240   21.9590 C   0  0  0  0  0  3  0  0  0  0  0  0
  -29.1050  -17.2790   20.2060 C   0  0  0  0  0  3  0  0  0  0  0  0
  -29.5150  -19.4870   21.1840 C   0  0  0  0  0  0  0  0  0  0  0  0
  -30.0830  -16.7070   21.0510 C   0  0  0  0  0  0  0  0  0  0  0  0
  -30.8280  -17.5430   21.9100 C   0  0  0  0  0  0  0  0  0  0  0  0
  -28.8270  -18.6620   20.2590 C   0  0  0  0  0  0  0  0  0  0  0  0
  -32.0210  -16.8790   22.9700 Cl  0  0  0  0  0  0  0  0  0  0  0  0
  -27.5880  -19.3030   19.2390 Cl  0  0  0  0  0  0  0  0  0  0  0  0
  -30.6890  -14.5010   20.1970 C   0  0  0  0  0  0  0  0  0  0  0  0
  -30.3190  -12.4090   18.9480 C   0  0  0  0  0  2  0  0  0  0  0  0
  -29.3280  -12.6890   17.8020 C   0  0  0  0  0  2  0  0  0  0  0  0
  -27.8720  -12.5400   18.2870 C   0  0  0  0  0  2  0  0  0  0  0  0
  -27.6000  -13.3250   19.5970 C   0  0  0  0  0  3  0  0  0  0  0  0
  -28.6940  -13.0350   20.6460 C   0  0  0  0  0  2  0  0  0  0  0  0
  -30.0130  -13.3320   20.0490 N   0  0  0  0  0  0  0  0  0  0  0  0
  -31.6830  -14.8090   19.5300 O   0  0  0  0  0  0  0  0  0  0  0  0
  -30.1970  -15.2990   21.1480 N   0  0  0  0  0  0  0  0  0  0  0  0
  -29.5120  -14.8540   21.7390 H   0  0  0  0  0  0  0  0  0  0  0  0
  -25.2460  -13.9340   20.4520 C   0  0  0  0  0  0  0  0  0  0  0  0
  -24.1920  -13.1580   20.8540 C   0  0  0  0  0  0  0  0  0  0  0  0
  -24.6400  -11.8050   20.7570 C   0  0  0  0  0  0  0  0  0  0  0  0
  -26.2660  -13.0520   20.1290 N   0  0  0  0  0  0  0  0  0  0  0  0
  -25.9090  -11.7650   20.3700 N   0  0  0  0  0  0  0  0  0  0  0  0
  -23.9170  -10.5410   20.9540 C   0  0  0  0  0  0  0  0  0  0  0  0
  -24.3500   -9.5850   21.8990 C   0  0  0  0  0  3  0  0  0  0  0  0
  -23.6310   -8.3850   22.0820 C   0  0  0  0  0  3  0  0  0  0  0  0
  -22.4650   -8.1330   21.3210 C   0  0  0  0  0  0  0  0  0  0  0  0
  -22.0510   -9.0780   20.3660 C   0  0  0  0  0  3  0  0  0  0  0  0
  -22.7710  -10.2700   20.1820 C   0  0  0  0  0  3  0  0  0  0  0  0
  -21.7160   -6.9840   21.4120 O   0  0  0  0  0  0  0  0  0  0  0  0
  -21.6220   -6.2770   22.5830 C   0  0  0  0  0  0  0  0  0  0  0  0
  -21.1120   -6.8570   23.7660 C   0  0  0  0  0  3  0  0  0  0  0  0
  -20.9680   -6.0730   24.9290 C   0  0  0  0  0  3  0  0  0  0  0  0
  -21.3240   -4.7120   24.9070 C   0  0  0  0  0  0  0  0  0  0  0  0
  -21.8280   -4.1310   23.7300 C   0  0  0  0  0  3  0  0  0  0  0  0
  -21.9740   -4.9120   22.5710 C   0  0  0  0  0  0  0  0  0  0  0  0
  -22.4380   -4.3430   21.4310 F   0  0  0  0  0  0  0  0  0  0  0  0
  -21.1800   -3.9560   26.0220 F   0  0  0  0  0  0  0  0  0  0  0  0
  -22.8150  -13.6370   21.2140 C   0  0  0  0  0  0  0  0  0  0  0  0
  -22.1170  -12.9130   22.0810 N   0  0  0  0  0  0  0  0  0  0  0  0
  -22.3640  -14.6860   20.7560 O   0  0  0  0  0  0  0  0  0  0  0  0
  -22.4920  -12.0640   22.4730 H   0  0  0  0  0  0  0  0  0  0  0  0
  -21.1920  -13.2130   22.3550 H   0  0  0  0  0  0  0  0  0  0  0  0
  -25.4110  -15.3080   20.3220 N   0  0  0  0  0  0  0  0  0  0  0  0
  -24.6680  -15.9570   20.5570 H   0  0  0  0  0  0  0  0  0  0  0  0
  -26.2360  -15.7650   19.9590 H   0  0  0  0  0  0  0  0  0  0  0  0
  -29.5490  -22.0110   20.6810 N   0  0  0  0  0  4  0  0  0  0  0  0
  -29.1150  -21.9640   19.7740 H   0  0  0  0  0  0  0  0  0  0  0  0
  -30.5430  -21.9070   20.5620 H   0  0  0  0  0  0  0  0  0  0  0  0
  -29.2620  -23.3340   21.2970 C   0  0  0  0  0  2  0  0  0  0  0  0
  -29.0960  -24.4980   20.2910 C   0  0  0  0  0  2  0  0  0  0  0  0
  -28.5090  -25.7630   20.9590 C   0  0  0  0  0  2  0  0  0  0  0  0
  -28.4310  -26.8420   20.0210 O   0  0  0  0  0  0  0  0  0  0  0  0
  -24.6160  -31.9500   23.1800 C   0  0  0  0  0  0  0  0  0  0  0  0
  -27.2600  -27.5560   20.0670 C   0  0  0  0  0  0  0  0  0  0  0  0
  -23.3980  -30.5340   21.5550 C   0  0  0  0  0  3  0  0  0  0  0  0
  -24.8470  -29.0130   20.1040 C   0  0  0  0  0  0  0  0  0  0  0  0
  -25.9090  -30.9270   21.3160 C   0  0  0  0  0  2  0  0  0  0  0  0
  -26.0020  -29.5560   20.6850 C   0  0  0  0  0  0  0  0  0  0  0  0
  -27.2130  -28.8290   20.6710 C   0  0  0  0  0  3  0  0  0  0  0  0
  -26.0960  -27.0220   19.4740 C   0  0  0  0  0  3  0  0  0  0  0  0
  -24.8880  -27.7470   19.4930 C   0  0  0  0  0  3  0  0  0  0  0  0
  -23.5910  -29.8550   20.1700 C   0  0  0  0  0  2  0  0  0  0  0  0
  -24.6600  -31.1510   22.0770 N   0  0  0  0  0  0  0  0  0  0  0  0
  -23.5420  -32.2130   23.7380 O   0  0  0  0  0  0  0  0  0  0  0  0
  -22.7690  -29.5100   22.5250 C   0  0  0  0  0  0  0  0  0  0  0  0
  -21.4470  -29.3090   22.4110 N   0  0  0  0  0  0  0  0  0  0  0  0
  -23.4710  -28.8980   23.3330 O   0  0  0  0  0  0  0  0  0  0  0  0
  -20.9390  -29.8580   21.7330 H   0  0  0  0  0  0  0  0  0  0  0  0
  -18.0980  -28.0640   22.9460 C   0  0  0  0  0  0  0  0  0  0  0  0
  -20.6540  -28.3600   23.1930 C   0  0  0  0  0  3  0  0  0  0  0  0
  -20.7760  -26.9310   22.6110 C   0  0  0  0  0  2  0  0  0  0  0  0
  -19.6660  -26.5860   21.6120 C   0  0  0  0  0  2  0  0  0  0  0  0
  -18.2870  -26.7150   22.2690 C   0  0  0  0  0  2  0  0  0  0  0  0
  -19.2090  -28.8420   23.3650 C   0  0  0  0  0  0  0  0  0  0  0  0
  -18.9770  -30.1040   23.9540 C   0  0  0  0  0  3  0  0  0  0  0  0
  -17.6680  -30.5870   24.1320 C   0  0  0  0  0  3  0  0  0  0  0  0
  -16.5730  -29.8060   23.7270 C   0  0  0  0  0  3  0  0  0  0  0  0
  -16.7870  -28.5470   23.1380 C   0  0  0  0  0  3  0  0  0  0  0  0
  -25.9100  -32.5910   23.7790 C   0  0  0  0  0  3  0  0  0  0  0  0
  -25.5960  -33.9850   24.1220 N   0  0  0  0  0  0  0  0  0  0  0  0
  -25.9160  -35.0430   23.3650 C   0  0  0  0  0  0  0  0  0  0  0  0
  -26.5770  -34.9500   22.3260 O   0  0  0  0  0  0  0  0  0  0  0  0
  -25.0110  -34.1300   24.9310 H   0  0  0  0  0  0  0  0  0  0  0  0
  -24.1830  -36.8300   23.0210 C   0  0  0  0  0  1  0  0  0  0  0  0
  -25.4220  -36.4240   23.8340 C   0  0  0  0  0  3  0  0  0  0  0  0
  -27.5470  -37.3080   24.6880 C   0  0  0  0  0  1  0  0  0  0  0  0
  -26.4510  -37.4820   23.7360 N   0  0  0  0  0  0  0  0  0  0  0  0
  -26.0410  -38.3990   23.8930 H   0  0  0  0  0  0  0  0  0  0  0  0
  -26.4610  -31.8150   25.0360 C   0  0  1  0  0  0  0  0  0  0  0  0
  -25.3940  -31.5480   26.1210 C   0  0  0  0  0  1  0  0  0  0  0  0
  -27.0570  -30.4510   24.6160 C   0  0  0  0  0  1  0  0  0  0  0  0
  -27.6120  -32.6190   25.6830 C   0  0  0  0  0  1  0  0  0  0  0  0
  3  7  2  0
  3  5  1  0
  4  1  1  0
  4  2  2  0
  5 18  1  0
  5  6  2  0
  6  2  1  0
  6  8  1  0
  7  4  1  0
  9  7  1  0
 10 18  1  0
 11 16  1  0
 12 13  1  0
 12 11  1  0
 14 13  1  0
 14 23  1  0
 14 15  1  0
 16 10  1  0
 16 15  1  0
 17 10  2  0
 18 19  1  0
 20 21  2  0
 21 40  1  0
 22 21  1  0
 22 25  1  0
 23 24  1  0
 23 20  1  0
 24 22  2  0
 25 26  1  0
 26 27  2  0
 28 31  1  0
 28 27  1  0
 29 28  2  0
 30 29  1  0
 30 25  2  0
 31 32  1  0
 32 33  1  0
 33 34  2  0
 35 34  1  0
 35 39  1  0
 36 35  2  0
 37 32  2  0
 37 36  1  0
 38 37  1  0
 40 41  1  0
 41 44  1  0
 41 43  1  0
 42 40  2  0
 45 20  1  0
 45 46  1  0
 47 45  1  0
 48 51  1  0
 48  1  1  0
 49 48  1  0
 50 48  1  0
 52 53  1  0
 52 51  1  0
 54 56  1  0
 54 53  1  0
 55 66  2  0
 56 61  1  0
 57 65  1  0
 57 67  1  0
 58 64  1  0
 58 60  1  0
 59 65  1  0
 60 59  1  0
 61 60  2  0
 62 63  1  0
 62 56  2  0
 63 58  2  0
 64 57  1  0
 65 55  1  0
 67 69  2  0
 68 67  1  0
 70 68  1  0
 71 80  2  0
 71 76  1  0
 72 68  1  0
 72 76  1  0
 73 72  1  0
 74 75  1  0
 74 73  1  0
 75 71  1  0
 76 77  2  0
 77 78  1  0
 79 78  2  0
 80 79  1  0
 81 55  1  0
 81 82  1  0
 81 91  1  0
 82 85  1  0
 83 87  1  0
 83 82  1  0
 84 83  2  0
 87 86  1  0
 89 87  1  0
 89 90  1  0
 89 88  1  0
 91 94  1  1
 91 92  1  0
 93 91  1  0
M  ISO  4  10 100  18 100  53 101  54 101
M  END
>  <TORSDO>  (3) 
F 21

>  <SCORE>  (3) 
-11.365

>  <name>  (3) 
2

>  <ligand_id>  (3) 
2

>  <original_smiles>  (3) 
[H]c1c([H])c([H])c2c(c1[H])C([H])([H])C([H])([H])C([H])([H])C2([H])N([H])C(=O)C1([H])N(C(=O)C([H])(N([H])C(=O)C([H])(N([H])C([H])([H])[H])C([H])([H])[H])C(C([H])([H])[H])(C([H])([H])[H])C([H])([H])[H])C([H])([H])c2c([H])c(OC([H])([H])C([H])([H])C([H])([H])[N+]([H])([H])C([H])([H])c3c([H])c(Cl)c(N([H])C(=O)N4C([H])([H])C([H])([H])C([H])([H])C([H])(n5nc(-c6c([H])c([H])c(Oc7c([H])c([H])c(F)c([H])c7F)c([H])c6[H])c(C(=O)N([H])[H])c5N([H])[H])C4([H])[H])c([H])c3Cl)c([H])c([H])c2C1([H])[H]

>  <smiles>  (3) 
[H]c1c([H])c([H])c2c(c1[H])C([H])([H])C([H])([H])C([H])([H])C2([H])N([H])C(=O)C1([H])N(C(=O)C([H])(N([H])C(=O)C([H])(N([H])C([H])([H])[H])C([H])([H])[H])C(C([H])([H])[H])(C([H])([H])[H])C([H])([H])[H])C([H])([H])c2c([H])c(OC([H])([H])C([H])([H])C([H])([H])[N+]([H])([H])C([H])([H])c3c([H])c(Cl)c(N([H])C(=O)N4C([H])([H])C([H])([H])C([H])([H])C([H])(n5nc(-c6c([H])c([H])c(Oc7c([H])c([H])c(F)c([H])c7F)c([H])c6[H])c(C(=O)N([H])[H])c5N([H])[H])C4([H])[H])c([H])c3Cl)c([H])c([H])c2C1([H])[H]

$$$$
3:0:0
     RDKit          3D

 94102  0  0  1  0  0  0  0  0999 V2000
  -30.8220  -22.4580   19.7340 C   0  0  0  0  0  0  0  0  0  0  0  0
  -30.5870  -21.1470   19.5610 N   0  0  0  0  0  0  0  0  0  0  0  0
  -31.9530  -22.9190   19.8950 O   0  0  0  0  0  0  0  0  0  0  0  0
  -29.6270  -20.8690   19.4150 H   0  0  0  0  0  0  0  0  0  0  0  0
  -29.5930  -23.2340   19.6850 C   0  0  0  0  0  3  0  0  0  0  0  0
  -29.5790  -24.5830   19.5950 C   0  0  0  0  0  3  0  0  0  0  0  0
  -28.2860  -25.3800   19.4990 C   0  0  0  0  0  2  0  0  0  0  0  0
  -28.3010  -26.6340   20.2000 O   0  0  0  0  0  0  0  0  0  0  0  0
  -24.5930  -31.9300   23.2500 C   0  0  0  0  0  0  0  0  0  0  0  0
  -27.1270  -27.3790   20.1990 C   0  0  0  0  0  0  0  0  0  0  0  0
  -23.3420  -30.5180   21.6530 C   0  0  0  0  0  3  0  0  0  0  0  0
  -24.7520  -28.9370   20.2360 C   0  0  0  0  0  0  0  0  0  0  0  0
  -25.8730  -30.8280   21.4160 C   0  0  0  0  0  2  0  0  0  0  0  0
  -25.9270  -29.4420   20.8020 C   0  0  0  0  0  0  0  0  0  0  0  0
  -27.1140  -28.6690   20.7880 C   0  0  0  0  0  3  0  0  0  0  0  0
  -25.9200  -26.8990   19.6290 C   0  0  0  0  0  3  0  0  0  0  0  0
  -24.7420  -27.6620   19.6550 C   0  0  0  0  0  3  0  0  0  0  0  0
  -23.5220  -29.8160   20.2830 C   0  0  0  0  0  2  0  0  0  0  0  0
  -24.6220  -31.1080   22.1640 N   0  0  0  0  0  0  0  0  0  0  0  0
  -23.5230  -32.2320   23.7970 O   0  0  0  0  0  0  0  0  0  0  0  0
  -22.6890  -29.5230   22.6400 C   0  0  0  0  0  0  0  0  0  0  0  0
  -21.3680  -29.3250   22.5040 N   0  0  0  0  0  0  0  0  0  0  0  0
  -23.3680  -28.9320   23.4840 O   0  0  0  0  0  0  0  0  0  0  0  0
  -20.8810  -29.8590   21.7970 H   0  0  0  0  0  0  0  0  0  0  0  0
  -18.0080  -28.0720   22.9580 C   0  0  0  0  0  0  0  0  0  0  0  0
  -20.5480  -28.4070   23.2950 C   0  0  0  0  0  3  0  0  0  0  0  0
  -20.7020  -26.9510   22.7980 C   0  0  0  0  0  2  0  0  0  0  0  0
  -19.6420  -26.5490   21.7700 C   0  0  0  0  0  2  0  0  0  0  0  0
  -18.2370  -26.6940   22.3620 C   0  0  0  0  0  2  0  0  0  0  0  0
  -19.0940  -28.8830   23.3830 C   0  0  0  0  0  0  0  0  0  0  0  0
  -18.8280  -30.1700   23.8970 C   0  0  0  0  0  3  0  0  0  0  0  0
  -17.5090  -30.6480   23.9950 C   0  0  0  0  0  3  0  0  0  0  0  0
  -16.4360  -29.8350   23.5890 C   0  0  0  0  0  3  0  0  0  0  0  0
  -16.6870  -28.5500   23.0740 C   0  0  0  0  0  3  0  0  0  0  0  0
  -25.8960  -32.5530   23.8380 C   0  0  0  0  0  3  0  0  0  0  0  0
  -26.4480  -31.7700   25.0920 C   0  0  1  0  0  0  0  0  0  0  0  0
  -25.3840  -31.5200   26.1860 C   0  0  0  0  0  1  0  0  0  0  0  0
  -27.0230  -30.3990   24.6670 C   0  0  0  0  0  1  0  0  0  0  0  0
  -27.6140  -32.5600   25.7310 C   0  0  0  0  0  1  0  0  0  0  0  0
  -25.6000  -33.9490   24.1880 N   0  0  0  0  0  0  0  0  0  0  0  0
  -25.9090  -35.0070   23.4250 C   0  0  0  0  0  0  0  0  0  0  0  0
  -26.5480  -34.9110   22.3740 O   0  0  0  0  0  0  0  0  0  0  0  0
  -25.0350  -34.1000   25.0110 H   0  0  0  0  0  0  0  0  0  0  0  0
  -24.1680  -36.7970   23.1370 C   0  0  0  0  0  1  0  0  0  0  0  0
  -25.4350  -36.3920   23.9060 C   0  0  0  0  0  3  0  0  0  0  0  0
  -27.5980  -37.2700   24.6670 C   0  0  0  0  0  1  0  0  0  0  0  0
  -26.4620  -37.4470   23.7660 N   0  0  0  0  0  0  0  0  0  0  0  0
  -26.0610  -38.3640   23.9410 H   0  0  0  0  0  0  0  0  0  0  0  0
  -31.5780  -20.0690   19.5000 C   0  0  0  0  0  2  0  0  0  0  0  0
  -31.4540  -19.4780   21.9710 C   0  0  0  0  0  3  0  0  0  0  0  0
  -31.3080  -18.5460   23.0160 C   0  0  0  0  0  3  0  0  0  0  0  0
  -31.2780  -17.6710   20.3430 C   0  0  0  0  0  3  0  0  0  0  0  0
  -31.4310  -19.0490   20.6280 C   0  0  0  0  0  0  0  0  0  0  0  0
  -31.1260  -17.1760   22.7340 C   0  0  0  0  0  0  0  0  0  0  0  0
  -31.1220  -16.7260   21.3910 C   0  0  0  0  0  0  0  0  0  0  0  0
  -30.9370  -16.2050   23.8890 C   0  0  0  0  0  1  0  0  0  0  0  0
  -31.3590  -14.5060   20.2280 C   0  0  0  0  0  0  0  0  0  0  0  0
  -30.9300  -12.4060   18.9910 C   0  0  0  0  0  2  0  0  0  0  0  0
  -29.9760  -12.6620   17.8060 C   0  0  0  0  0  2  0  0  0  0  0  0
  -28.5030  -12.6010   18.2540 C   0  0  0  0  0  2  0  0  0  0  0  0
  -28.2300  -13.4510   19.5220 C   0  0  0  0  0  3  0  0  0  0  0  0
  -29.2750  -13.1360   20.6140 C   0  0  0  0  0  2  0  0  0  0  0  0
  -30.6200  -13.3760   20.0530 N   0  0  0  0  0  0  0  0  0  0  0  0
  -32.4050  -14.7320   19.6090 O   0  0  0  0  0  0  0  0  0  0  0  0
  -30.8710  -15.3410   21.1580 N   0  0  0  0  0  0  0  0  0  0  0  0
  -30.1410  -14.9370   21.7240 H   0  0  0  0  0  0  0  0  0  0  0  0
  -25.8720  -14.2040   20.2410 C   0  0  0  0  0  0  0  0  0  0  0  0
  -24.7630  -13.4950   20.6210 C   0  0  0  0  0  0  0  0  0  0  0  0
  -25.1450  -12.1190   20.5900 C   0  0  0  0  0  0  0  0  0  0  0  0
  -26.8640  -13.2620   20.0090 N   0  0  0  0  0  0  0  0  0  0  0  0
  -26.4280  -12.0040   20.2710 N   0  0  0  0  0  0  0  0  0  0  0  0
  -24.3510  -10.9000   20.7910 C   0  0  0  0  0  0  0  0  0  0  0  0
  -24.7180   -9.9280   21.7470 C   0  0  0  0  0  3  0  0  0  0  0  0
  -23.9280   -8.7730   21.9350 C   0  0  0  0  0  3  0  0  0  0  0  0
  -22.7550   -8.5830   21.1650 C   0  0  0  0  0  0  0  0  0  0  0  0
  -22.4060   -9.5430   20.1990 C   0  0  0  0  0  3  0  0  0  0  0  0
  -23.1960  -10.6900   20.0100 C   0  0  0  0  0  3  0  0  0  0  0  0
  -21.9420   -7.4790   21.2590 O   0  0  0  0  0  0  0  0  0  0  0  0
  -21.8000   -6.7880   22.4350 C   0  0  0  0  0  0  0  0  0  0  0  0
  -21.3640   -7.4180   23.6210 C   0  0  0  0  0  3  0  0  0  0  0  0
  -21.1660   -6.6570   24.7910 C   0  0  0  0  0  3  0  0  0  0  0  0
  -21.3920   -5.2670   24.7730 C   0  0  0  0  0  0  0  0  0  0  0  0
  -21.8210   -4.6380   23.5910 C   0  0  0  0  0  3  0  0  0  0  0  0
  -22.0210   -5.3960   22.4250 C   0  0  0  0  0  0  0  0  0  0  0  0
  -22.4140   -4.7820   21.2830 F   0  0  0  0  0  0  0  0  0  0  0  0
  -21.1950   -4.5340   25.8940 F   0  0  0  0  0  0  0  0  0  0  0  0
  -23.3980  -14.0510   20.9060 C   0  0  0  0  0  0  0  0  0  0  0  0
  -22.6530  -13.4160   21.8050 N   0  0  0  0  0  0  0  0  0  0  0  0
  -23.0030  -15.0850   20.3690 O   0  0  0  0  0  0  0  0  0  0  0  0
  -22.9850  -12.5800   22.2620 H   0  0  0  0  0  0  0  0  0  0  0  0
  -21.7360  -13.7720   22.0410 H   0  0  0  0  0  0  0  0  0  0  0  0
  -26.1150  -15.5610   20.0600 N   0  0  0  0  0  0  0  0  0  0  0  0
  -25.3920  -16.2630   20.1760 H   0  0  0  0  0  0  0  0  0  0  0  0
  -26.9990  -15.9500   19.7560 H   0  0  0  0  0  0  0  0  0  0  0  0
  1  3  2  0
  2  1  1  0
  4  2  1  0
  5  1  1  0
  6  5  2  0
  7  6  1  0
  7  8  1  0
  9 20  2  0
 10  8  1  0
 10 15  1  0
 11 19  1  0
 11 21  1  0
 12 18  1  0
 12 14  1  0
 13 19  1  0
 14 13  1  0
 15 14  2  0
 16 17  1  0
 16 10  2  0
 17 12  2  0
 18 11  1  0
 19  9  1  0
 21 23  2  0
 22 21  1  0
 24 22  1  0
 25 34  2  0
 25 30  1  0
 26 22  1  0
 26 30  1  0
 27 26  1  0
 28 29  1  0
 28 27  1  0
 29 25  1  0
 30 31  2  0
 31 32  1  0
 33 32  2  0
 34 33  1  0
 35  9  1  0
 35 40  1  0
 35 36  1  0
 36 39  1  1
 36 37  1  0
 38 36  1  0
 40 43  1  0
 41 45  1  0
 41 40  1  0
 42 41  2  0
 45 44  1  0
 47 45  1  0
 47 48  1  0
 47 46  1  0
 49  2  1  0
 49 53  1  0
 50 51  1  0
 52 53  1  0
 52 55  2  0
 53 50  2  0
 54 51  2  0
 54 56  1  0
 55 54  1  0
 57 65  1  0
 58 63  1  0
 59 60  1  0
 59 58  1  0
 61 60  1  0
 61 70  1  0
 61 62  1  0
 63 57  1  0
 63 62  1  0
 64 57  2  0
 65 55  1  0
 65 66  1  0
 67 68  2  0
 68 87  1  0
 69 68  1  0
 69 72  1  0
 70 67  1  0
 70 71  1  0
 71 69  2  0
 72 73  1  0
 73 74  2  0
 75 78  1  0
 75 74  1  0
 76 75  2  0
 77 76  1  0
 77 72  2  0
 78 79  1  0
 79 80  1  0
 80 81  2  0
 82 81  1  0
 82 86  1  0
 83 82  2  0
 84 79  2  0
 84 83  1  0
 85 84  1  0
 87 88  1  0
 88 91  1  0
 88 90  1  0
 89 87  2  0
 92 93  1  0
 92 67  1  0
 94 92  1  0
M  ISO  4   7 101   8 101  57 100  65 100
M  END
>  <TORSDO>  (4) 
F 20

>  <SCORE>  (4) 
-10.234

>  <name>  (4) 
3

>  <ligand_id>  (4) 
3

>  <original_smiles>  (4) 
[H]C(C(=O)N([H])C([H])([H])c1c([H])c([H])c(C([H])([H])[H])c(N([H])C(=O)N2C([H])([H])C([H])([H])C([H])([H])C([H])(n3nc(-c4c([H])c([H])c(Oc5c([H])c([H])c(F)c([H])c5F)c([H])c4[H])c(C(=O)N([H])[H])c3N([H])[H])C2([H])[H])c1[H])=C([H])C([H])([H])Oc1c([H])c([H])c2c(c1[H])C([H])([H])N(C(=O)C([H])(N([H])C(=O)C([H])(N([H])C([H])([H])[H])C([H])([H])[H])C(C([H])([H])[H])(C([H])([H])[H])C([H])([H])[H])C([H])(C(=O)N([H])C1([H])c3c([H])c([H])c([H])c([H])c3C([H])([H])C([H])([H])C1([H])[H])C2([H])[H]

>  <smiles>  (4) 
[H]C(C(=O)N([H])C([H])([H])c1c([H])c([H])c(C([H])([H])[H])c(N([H])C(=O)N2C([H])([H])C([H])([H])C([H])([H])C([H])(n3nc(-c4c([H])c([H])c(Oc5c([H])c([H])c(F)c([H])c5F)c([H])c4[H])c(C(=O)N([H])[H])c3N([H])[H])C2([H])[H])c1[H])=C([H])C([H])([H])Oc1c([H])c([H])c2c(c1[H])C([H])([H])N(C(=O)C([H])(N([H])C(=O)C([H])(N([H])C([H])([H])[H])C([H])([H])[H])C(C([H])([H])[H])(C([H])([H])[H])C([H])([H])[H])C([H])(C(=O)N([H])C1([H])c3c([H])c([H])c([H])c([H])c3C([H])([H])C([H])([H])C1([H])[H])C2([H])[H]

$$$$
4:0:0
     RDKit          3D

 97106  0  0  1  0  0  0  0  0999 V2000
  -30.3900  -23.6970   20.2130 C   0  0  0  0  0  0  0  0  0  0  0  0
  -31.5830  -23.8050   20.8210 C   0  0  0  0  0  2  0  0  0  0  0  0
  -29.8060  -24.7220   19.2230 C   0  0  0  0  0  2  0  0  0  0  0  0
  -27.4810  -24.0800   20.0420 C   0  0  0  0  0  2  0  0  0  0  0  0
  -28.1630  -23.0500   20.9910 C   0  0  0  0  0  2  0  0  0  0  0  0
  -28.3640  -25.2440   19.4880 C   0  0  0  0  0  3  0  0  0  0  0  0
  -29.4770  -22.5350   20.5130 N   0  0  1  0  0  4  0  0  0  0  0  0
  -29.8560  -22.0690   21.3230 H   0  0  0  0  0  0  0  0  0  0  0  0
  -28.3220  -26.5470   20.1680 O   0  0  0  0  0  0  0  0  0  0  0  0
  -24.5960  -31.8720   23.2400 C   0  0  0  0  0  0  0  0  0  0  0  0
  -27.1730  -27.3490   20.1240 C   0  0  0  0  0  0  0  0  0  0  0  0
  -23.3700  -30.4820   21.6080 C   0  0  0  0  0  3  0  0  0  0  0  0
  -24.8000  -28.9410   20.1580 C   0  0  0  0  0  0  0  0  0  0  0  0
  -25.9050  -30.8030   21.3960 C   0  0  0  0  0  2  0  0  0  0  0  0
  -25.9730  -29.4300   20.7450 C   0  0  0  0  0  0  0  0  0  0  0  0
  -27.1580  -28.6420   20.7260 C   0  0  0  0  0  3  0  0  0  0  0  0
  -25.9740  -26.9090   19.5140 C   0  0  0  0  0  3  0  0  0  0  0  0
  -24.8000  -27.6830   19.5390 C   0  0  0  0  0  3  0  0  0  0  0  0
  -23.5640  -29.8120   20.2230 C   0  0  0  0  0  2  0  0  0  0  0  0
  -24.6420  -31.0690   22.1380 N   0  0  0  0  0  0  0  0  0  0  0  0
  -23.5200  -32.1490   23.7880 O   0  0  0  0  0  0  0  0  0  0  0  0
  -22.7190  -29.4620   22.5700 C   0  0  0  0  0  0  0  0  0  0  0  0
  -21.3920  -29.2820   22.4510 N   0  0  0  0  0  0  0  0  0  0  0  0
  -23.4040  -28.8360   23.3830 O   0  0  0  0  0  0  0  0  0  0  0  0
  -20.8990  -29.8390   21.7680 H   0  0  0  0  0  0  0  0  0  0  0  0
  -18.0210  -28.0760   22.9610 C   0  0  0  0  0  0  0  0  0  0  0  0
  -20.5790  -28.3440   23.2260 C   0  0  0  0  0  3  0  0  0  0  0  0
  -20.6840  -26.9110   22.6550 C   0  0  0  0  0  2  0  0  0  0  0  0
  -19.5820  -26.5810   21.6450 C   0  0  0  0  0  2  0  0  0  0  0  0
  -18.2010  -26.7250   22.2900 C   0  0  0  0  0  2  0  0  0  0  0  0
  -19.1380  -28.8440   23.3870 C   0  0  0  0  0  0  0  0  0  0  0  0
  -18.9160  -30.1080   23.9730 C   0  0  0  0  0  3  0  0  0  0  0  0
  -17.6100  -30.6060   24.1390 C   0  0  0  0  0  3  0  0  0  0  0  0
  -16.5080  -29.8360   23.7300 C   0  0  0  0  0  3  0  0  0  0  0  0
  -16.7140  -28.5730   23.1470 C   0  0  0  0  0  3  0  0  0  0  0  0
  -25.8900  -32.4970   23.8490 C   0  0  0  0  0  3  0  0  0  0  0  0
  -25.5900  -33.8980   24.1790 N   0  0  0  0  0  0  0  0  0  0  0  0
  -25.9100  -34.9460   23.4090 C   0  0  0  0  0  0  0  0  0  0  0  0
  -26.5590  -34.8360   22.3650 O   0  0  0  0  0  0  0  0  0  0  0  0
  -25.0130  -34.0570   24.9920 H   0  0  0  0  0  0  0  0  0  0  0  0
  -24.1710  -36.7360   23.0930 C   0  0  0  0  0  1  0  0  0  0  0  0
  -25.4360  -36.3380   23.8700 C   0  0  0  0  0  3  0  0  0  0  0  0
  -27.5950  -37.2300   24.6280 C   0  0  0  0  0  1  0  0  0  0  0  0
  -26.4650  -37.3900   23.7180 N   0  0  0  0  0  0  0  0  0  0  0  0
  -26.0630  -38.3120   23.8700 H   0  0  0  0  0  0  0  0  0  0  0  0
  -26.4120  -31.7250   25.1220 C   0  0  1  0  0  0  0  0  0  0  0  0
  -25.3270  -31.4960   26.2000 C   0  0  0  0  0  1  0  0  0  0  0  0
  -26.9830  -30.3430   24.7280 C   0  0  0  0  0  1  0  0  0  0  0  0
  -27.5730  -32.5140   25.7710 C   0  0  0  0  0  1  0  0  0  0  0  0
  -29.4460  -21.4180   19.4930 C   0  0  0  0  0  2  0  0  0  0  0  0
  -28.6500  -17.6290   20.1330 C   0  0  0  0  0  3  0  0  0  0  0  0
  -28.4900  -19.0210   19.9000 C   0  0  0  0  0  0  0  0  0  0  0  0
  -30.8630  -19.3320   20.3130 C   0  0  0  0  0  0  0  0  0  0  0  0
  -29.6010  -19.9150   19.9560 C   0  0  0  0  0  0  0  0  0  0  0  0
  -30.9960  -17.9260   20.6000 C   0  0  0  0  0  0  0  0  0  0  0  0
  -29.8930  -17.0360   20.4440 C   0  0  0  0  0  0  0  0  0  0  0  0
  -27.0950  -19.5060   19.5340 C   0  0  0  0  0  1  0  0  0  0  0  0
  -32.1160  -20.2060   20.3820 C   0  0  0  0  0  1  0  0  0  0  0  0
  -32.3290  -17.3850   21.1100 C   0  0  0  0  0  1  0  0  0  0  0  0
  -30.5890  -14.5900   20.0680 C   0  0  0  0  0  0  0  0  0  0  0  0
  -30.2590  -12.4080   18.9290 C   0  0  0  0  0  2  0  0  0  0  0  0
  -29.2440  -12.6090   17.7820 C   0  0  0  0  0  2  0  0  0  0  0  0
  -27.7980  -12.4560   18.2970 C   0  0  0  0  0  2  0  0  0  0  0  0
  -27.5360  -13.2760   19.5890 C   0  0  0  0  0  3  0  0  0  0  0  0
  -28.6580  -13.0490   20.6280 C   0  0  0  0  0  2  0  0  0  0  0  0
  -29.9410  -13.3860   19.9880 N   0  0  0  0  0  0  0  0  0  0  0  0
  -31.6870  -14.7630   19.5310 O   0  0  0  0  0  0  0  0  0  0  0  0
  -29.8980  -15.5970   20.6790 N   0  0  0  0  0  0  0  0  0  0  0  0
  -29.0430  -15.2480   21.0820 H   0  0  0  0  0  0  0  0  0  0  0  0
  -25.1910  -13.8790   20.4560 C   0  0  0  0  0  0  0  0  0  0  0  0
  -24.1420  -13.1060   20.8760 C   0  0  0  0  0  0  0  0  0  0  0  0
  -24.5900  -11.7520   20.7890 C   0  0  0  0  0  0  0  0  0  0  0  0
  -26.2140  -12.9960   20.1430 N   0  0  0  0  0  0  0  0  0  0  0  0
  -25.8590  -11.7100   20.4020 N   0  0  0  0  0  0  0  0  0  0  0  0
  -23.8660  -10.4920   20.9970 C   0  0  0  0  0  0  0  0  0  0  0  0
  -24.3390   -9.5050   21.8880 C   0  0  0  0  0  3  0  0  0  0  0  0
  -23.6160   -8.3100   22.0860 C   0  0  0  0  0  3  0  0  0  0  0  0
  -22.4030   -8.0920   21.3900 C   0  0  0  0  0  0  0  0  0  0  0  0
  -21.9470   -9.0670   20.4860 C   0  0  0  0  0  3  0  0  0  0  0  0
  -22.6710  -10.2540   20.2860 C   0  0  0  0  0  3  0  0  0  0  0  0
  -21.6460   -6.9510   21.4980 O   0  0  0  0  0  0  0  0  0  0  0  0
  -21.6520   -6.1880   22.6390 C   0  0  0  0  0  0  0  0  0  0  0  0
  -21.3040   -6.7280   23.8960 C   0  0  0  0  0  3  0  0  0  0  0  0
  -21.2570   -5.8930   25.0320 C   0  0  0  0  0  3  0  0  0  0  0  0
  -21.5450   -4.5200   24.9100 C   0  0  0  0  0  0  0  0  0  0  0  0
  -21.8870   -3.9810   23.6570 C   0  0  0  0  0  3  0  0  0  0  0  0
  -21.9370   -4.8130   22.5240 C   0  0  0  0  0  0  0  0  0  0  0  0
  -22.2450   -4.2840   21.3150 F   0  0  0  0  0  0  0  0  0  0  0  0
  -21.4920   -3.7170   25.9970 F   0  0  0  0  0  0  0  0  0  0  0  0
  -22.7680  -13.5880   21.2430 C   0  0  0  0  0  0  0  0  0  0  0  0
  -22.0880  -12.8790   22.1370 N   0  0  0  0  0  0  0  0  0  0  0  0
  -22.3090  -14.6280   20.7730 O   0  0  0  0  0  0  0  0  0  0  0  0
  -22.4720  -12.0360   22.5370 H   0  0  0  0  0  0  0  0  0  0  0  0
  -21.1690  -13.1830   22.4240 H   0  0  0  0  0  0  0  0  0  0  0  0
  -25.3530  -15.2500   20.2900 N   0  0  0  0  0  0  0  0  0  0  0  0
  -24.5870  -15.8990   20.4340 H   0  0  0  0  0  0  0  0  0  0  0  0
  -26.1530  -15.6740   19.8400 H   0  0  0  0  0  0  0  0  0  0  0  0
  1  7  1  0
  1  2  2  0
  3  6  1  0
  3  1  1  0
  4  5  1  0
  6  4  1  0
  6  9  1  0
  7  5  1  0
  7  8  1  1
 10 21  2  0
 11  9  1  0
 11 16  1  0
 12 20  1  0
 12 22  1  0
 13 19  1  0
 13 15  1  0
 14 20  1  0
 15 14  1  0
 16 15  2  0
 17 18  1  0
 17 11  2  0
 18 13  2  0
 19 12  1  0
 20 10  1  0
 22 24  2  0
 23 22  1  0
 25 23  1  0
 26 35  2  0
 26 31  1  0
 27 23  1  0
 27 31  1  0
 28 27  1  0
 29 30  1  0
 29 28  1  0
 30 26  1  0
 31 32  2  0
 32 33  1  0
 34 33  2  0
 35 34  1  0
 36 10  1  0
 36 37  1  0
 36 46  1  0
 37 40  1  0
 38 42  1  0
 38 37  1  0
 39 38  2  0
 42 41  1  0
 44 45  1  0
 44 42  1  0
 44 43  1  0
 46 49  1  1
 46 47  1  0
 48 46  1  0
 50 54  1  0
 50  7  1  0
 51 56  1  0
 52 54  1  0
 52 51  2  0
 53 58  1  0
 53 55  1  0
 54 53  2  0
 55 59  1  0
 56 55  2  0
 56 68  1  0
 57 52  1  0
 60 68  1  0
 61 66  1  0
 62 63  1  0
 62 61  1  0
 64 63  1  0
 64 73  1  0
 64 65  1  0
 66 60  1  0
 66 65  1  0
 67 60  2  0
 68 69  1  0
 70 71  2  0
 71 90  1  0
 72 71  1  0
 72 75  1  0
 73 74  1  0
 73 70  1  0
 74 72  2  0
 75 76  1  0
 76 77  2  0
 78 81  1  0
 78 77  1  0
 79 78  2  0
 80 79  1  0
 80 75  2  0
 81 82  1  0
 82 83  1  0
 83 84  2  0
 85 84  1  0
 85 89  1  0
 86 85  2  0
 87 82  2  0
 87 86  1  0
 88 87  1  0
 90 91  1  0
 91 94  1  0
 91 93  1  0
 92 90  2  0
 95 96  1  0
 95 70  1  0
 97 95  1  0
M  ISO  4   6 101   9 101  60 100  68 100
M  END
>  <TORSDO>  (5) 
F 18

>  <SCORE>  (5) 
-14.247

>  <name>  (5) 
4

>  <ligand_id>  (5) 
4

>  <original_smiles>  (5) 
[H]C([H])=C1C([H])([H])C([H])(Oc2c([H])c([H])c3c(c2[H])C([H])([H])N(C(=O)C([H])(N([H])C(=O)C([H])(N([H])C([H])([H])[H])C([H])([H])[H])C(C([H])([H])[H])(C([H])([H])[H])C([H])([H])[H])C([H])(C(=O)N([H])C2([H])c4c([H])c([H])c([H])c([H])c4C([H])([H])C([H])([H])C2([H])[H])C3([H])[H])C([H])([H])C([H])([H])[N+]1([H])C([H])([H])c1c(C([H])([H])[H])c([H])c(N([H])C(=O)N2C([H])([H])C([H])([H])C([H])([H])C([H])(n3nc(-c4c([H])c([H])c(Oc5c([H])c([H])c(F)c([H])c5F)c([H])c4[H])c(C(=O)N([H])[H])c3N([H])[H])C2([H])[H])c(C([H])([H])[H])c1C([H])([H])[H]

>  <smiles>  (5) 
[H]C([H])=C1C([H])([H])C([H])(Oc2c([H])c([H])c3c(c2[H])C([H])([H])N(C(=O)C([H])(N([H])C(=O)C([H])(N([H])C([H])([H])[H])C([H])([H])[H])C(C([H])([H])[H])(C([H])([H])[H])C([H])([H])[H])C([H])(C(=O)N([H])C2([H])c4c([H])c([H])c([H])c([H])c4C([H])([H])C([H])([H])C2([H])[H])C3([H])[H])C([H])([H])C([H])([H])[N+]1([H])C([H])([H])c1c(C([H])([H])[H])c([H])c(N([H])C(=O)N2C([H])([H])C([H])([H])C([H])([H])C([H])(n3nc(-c4c([H])c([H])c(Oc5c([H])c([H])c(F)c([H])c5F)c([H])c4[H])c(C(=O)N([H])[H])c3N([H])[H])C2([H])[H])c(C([H])([H])[H])c1C([H])([H])[H]

$$$$
5:0:0
     RDKit          3D

100109  0  0  1  0  0  0  0  0999 V2000
  -30.9800  -23.1080   18.9810 C   0  0  0  0  0  0  0  0  0  0  0  0
  -31.9640  -23.1480   18.0580 C   0  0  0  0  0  3  0  0  0  0  0  0
  -30.3420  -24.3530   19.5920 C   0  0  0  0  0  2  0  0  0  0  0  0
  -28.0540  -22.4980   18.7470 C   0  0  0  0  0  2  0  0  0  0  0  0
  -27.8840  -24.0150   18.9500 C   0  0  0  0  0  2  0  0  0  0  0  0
  -28.9380  -21.8170   19.8140 C   0  0  0  0  0  2  0  0  0  0  0  0
  -29.1610  -24.8500   18.7310 C   0  0  0  0  0  3  0  0  0  0  0  0
  -30.3890  -21.8160   19.4740 N   0  0  2  0  0  4  0  0  0  0  0  0
  -30.4390  -21.1880   18.6880 H   0  0  0  0  0  0  0  0  0  0  0  0
  -33.5640  -22.1280   16.5100 C   0  0  0  0  0  2  0  0  0  0  0  0
  -32.5820  -22.0010   17.4160 C   0  0  0  0  0  3  0  0  0  0  0  0
  -31.2250  -21.1350   20.5010 C   0  0  0  0  0  2  0  0  0  0  0  0
  -30.7050  -17.6240   22.0720 C   0  0  0  0  0  3  0  0  0  0  0  0
  -30.5600  -18.8570   19.5580 C   0  0  0  0  0  3  0  0  0  0  0  0
  -30.9700  -19.0080   21.9560 C   0  0  0  0  0  0  0  0  0  0  0  0
  -30.9050  -19.6410   20.6850 C   0  0  0  0  0  0  0  0  0  0  0  0
  -30.3780  -16.8480   20.9410 C   0  0  0  0  0  0  0  0  0  0  0  0
  -30.2660  -17.4840   19.6790 C   0  0  0  0  0  0  0  0  0  0  0  0
  -31.3370  -19.7800   23.2130 C   0  0  0  0  0  1  0  0  0  0  0  0
  -29.7140  -16.6500   18.2660 Cl  0  0  0  0  0  0  0  0  0  0  0  0
  -30.8120  -14.4670   20.5490 C   0  0  0  0  0  0  0  0  0  0  0  0
  -30.5050  -12.3210   19.3900 C   0  0  0  0  0  2  0  0  0  0  0  0
  -29.5730  -12.5500   18.1830 C   0  0  0  0  0  2  0  0  0  0  0  0
  -28.0940  -12.4280   18.6030 C   0  0  0  0  0  2  0  0  0  0  0  0
  -27.7570  -13.2610   19.8680 C   0  0  0  0  0  3  0  0  0  0  0  0
  -28.8020  -13.0120   20.9800 C   0  0  0  0  0  2  0  0  0  0  0  0
  -30.1370  -13.2950   20.4270 N   0  0  0  0  0  0  0  0  0  0  0  0
  -31.9370  -14.6540   20.0740 O   0  0  0  0  0  0  0  0  0  0  0  0
  -30.1190  -15.4630   21.1200 N   0  0  0  0  0  0  0  0  0  0  0  0
  -29.2640  -15.2120   21.5900 H   0  0  0  0  0  0  0  0  0  0  0  0
  -25.3580  -13.8860   20.5650 C   0  0  0  0  0  0  0  0  0  0  0  0
  -24.2810  -13.1220   20.9240 C   0  0  0  0  0  0  0  0  0  0  0  0
  -24.7300  -11.7660   20.8860 C   0  0  0  0  0  0  0  0  0  0  0  0
  -26.3970  -12.9980   20.3350 N   0  0  0  0  0  0  0  0  0  0  0  0
  -26.0210  -11.7170   20.5830 N   0  0  0  0  0  0  0  0  0  0  0  0
  -23.9910  -10.5090   21.0640 C   0  0  0  0  0  0  0  0  0  0  0  0
  -24.4050   -9.5370   22.0010 C   0  0  0  0  0  3  0  0  0  0  0  0
  -23.6700   -8.3430   22.1670 C   0  0  0  0  0  3  0  0  0  0  0  0
  -22.5050   -8.1150   21.3950 C   0  0  0  0  0  0  0  0  0  0  0  0
  -22.1110   -9.0760   20.4480 C   0  0  0  0  0  3  0  0  0  0  0  0
  -22.8480  -10.2600   20.2800 C   0  0  0  0  0  3  0  0  0  0  0  0
  -21.7420   -6.9750   21.4700 O   0  0  0  0  0  0  0  0  0  0  0  0
  -21.6560   -6.2410   22.6260 C   0  0  0  0  0  0  0  0  0  0  0  0
  -21.1810   -6.8020   23.8310 C   0  0  0  0  0  3  0  0  0  0  0  0
  -21.0430   -5.9930   24.9770 C   0  0  0  0  0  3  0  0  0  0  0  0
  -21.3720   -4.6260   24.9190 C   0  0  0  0  0  0  0  0  0  0  0  0
  -21.8400   -4.0650   23.7190 C   0  0  0  0  0  3  0  0  0  0  0  0
  -21.9790   -4.8700   22.5750 C   0  0  0  0  0  0  0  0  0  0  0  0
  -22.4110   -4.3200   21.4140 F   0  0  0  0  0  0  0  0  0  0  0  0
  -21.2320   -3.8470   26.0180 F   0  0  0  0  0  0  0  0  0  0  0  0
  -22.8870  -13.6090   21.1940 C   0  0  0  0  0  0  0  0  0  0  0  0
  -22.1510  -12.9170   22.0580 N   0  0  0  0  0  0  0  0  0  0  0  0
  -22.4570  -14.6380   20.6750 O   0  0  0  0  0  0  0  0  0  0  0  0
  -22.5090  -12.0840   22.5000 H   0  0  0  0  0  0  0  0  0  0  0  0
  -21.2150  -13.2250   22.2790 H   0  0  0  0  0  0  0  0  0  0  0  0
  -25.5360  -15.2570   20.3980 N   0  0  0  0  0  0  0  0  0  0  0  0
  -24.7750  -15.9170   20.5080 H   0  0  0  0  0  0  0  0  0  0  0  0
  -26.3910  -15.6880   20.0720 H   0  0  0  0  0  0  0  0  0  0  0  0
  -28.9130  -26.3710   18.8640 C   0  0  0  0  0  2  0  0  0  0  0  0
  -28.4390  -26.7710   20.1540 O   0  0  0  0  0  0  0  0  0  0  0  0
  -24.5660  -31.8900   23.2500 C   0  0  0  0  0  0  0  0  0  0  0  0
  -27.2590  -27.4790   20.1700 C   0  0  0  0  0  0  0  0  0  0  0  0
  -23.3820  -30.4950   21.5870 C   0  0  0  0  0  3  0  0  0  0  0  0
  -24.8550  -28.9640   20.1800 C   0  0  0  0  0  0  0  0  0  0  0  0
  -25.9090  -30.8540   21.4280 C   0  0  0  0  0  2  0  0  0  0  0  0
  -26.0020  -29.4850   20.7900 C   0  0  0  0  0  0  0  0  0  0  0  0
  -27.2030  -28.7420   20.7980 C   0  0  0  0  0  3  0  0  0  0  0  0
  -26.0870  -26.9610   19.5740 C   0  0  0  0  0  3  0  0  0  0  0  0
  -24.8890  -27.6950   19.5770 C   0  0  0  0  0  3  0  0  0  0  0  0
  -23.6100  -29.8210   20.2090 C   0  0  0  0  0  2  0  0  0  0  0  0
  -24.6370  -31.0940   22.1480 N   0  0  0  0  0  0  0  0  0  0  0  0
  -23.4770  -32.1610   23.7770 O   0  0  0  0  0  0  0  0  0  0  0  0
  -22.7190  -29.4680   22.5340 C   0  0  0  0  0  0  0  0  0  0  0  0
  -21.3990  -29.2760   22.3760 N   0  0  0  0  0  0  0  0  0  0  0  0
  -23.3890  -28.8490   23.3650 O   0  0  0  0  0  0  0  0  0  0  0  0
  -20.9210  -29.8270   21.6780 H   0  0  0  0  0  0  0  0  0  0  0  0
  -18.0230  -28.0600   22.7960 C   0  0  0  0  0  0  0  0  0  0  0  0
  -20.5720  -28.3340   23.1290 C   0  0  0  0  0  3  0  0  0  0  0  0
  -20.6980  -26.9030   22.5580 C   0  0  0  0  0  2  0  0  0  0  0  0
  -19.6220  -26.5720   21.5190 C   0  0  0  0  0  2  0  0  0  0  0  0
  -18.2240  -26.7100   22.1290 C   0  0  0  0  0  2  0  0  0  0  0  0
  -19.1260  -28.8300   23.2510 C   0  0  0  0  0  0  0  0  0  0  0  0
  -18.8850  -30.0940   23.8320 C   0  0  0  0  0  3  0  0  0  0  0  0
  -17.5750  -30.5890   23.9640 C   0  0  0  0  0  3  0  0  0  0  0  0
  -16.4850  -29.8150   23.5260 C   0  0  0  0  0  3  0  0  0  0  0  0
  -16.7110  -28.5540   22.9470 C   0  0  0  0  0  3  0  0  0  0  0  0
  -25.8450  -32.5170   23.8900 C   0  0  0  0  0  3  0  0  0  0  0  0
  -26.3360  -31.7510   25.1790 C   0  0  1  0  0  0  0  0  0  0  0  0
  -25.2230  -31.5240   26.2280 C   0  0  0  0  0  1  0  0  0  0  0  0
  -26.9190  -30.3680   24.8030 C   0  0  0  0  0  1  0  0  0  0  0  0
  -27.4780  -32.5450   25.8560 C   0  0  0  0  0  1  0  0  0  0  0  0
  -25.5400  -33.9200   24.2020 N   0  0  0  0  0  0  0  0  0  0  0  0
  -25.8900  -34.9620   23.4360 C   0  0  0  0  0  0  0  0  0  0  0  0
  -26.5760  -34.8440   22.4170 O   0  0  0  0  0  0  0  0  0  0  0  0
  -24.9320  -34.0860   24.9900 H   0  0  0  0  0  0  0  0  0  0  0  0
  -24.1770  -36.7600   23.0330 C   0  0  0  0  0  1  0  0  0  0  0  0
  -25.4020  -36.3570   23.8700 C   0  0  0  0  0  3  0  0  0  0  0  0
  -27.5240  -37.2410   24.7320 C   0  0  0  0  0  1  0  0  0  0  0  0
  -26.4430  -37.4030   23.7650 N   0  0  0  0  0  0  0  0  0  0  0  0
  -26.0390  -38.3280   23.8930 H   0  0  0  0  0  0  0  0  0  0  0  0
  1  8  1  0
  1  3  1  0
  2  1  2  0
  4  5  1  0
  4  6  1  0
  7 59  1  0
  7  5  1  0
  7  3  1  0
  8  6  1  0
  8 12  1  0
  8  9  1  6
 10 11  2  0
 11  2  1  0
 12 16  1  0
 14 18  2  0
 14 16  1  0
 15 13  1  0
 15 19  1  0
 16 15  2  0
 17 29  1  0
 17 13  2  0
 18 17  1  0
 20 18  1  0
 21 29  1  0
 22 27  1  0
 23 24  1  0
 23 22  1  0
 25 24  1  0
 25 34  1  0
 25 26  1  0
 27 21  1  0
 27 26  1  0
 28 21  2  0
 29 30  1  0
 31 32  2  0
 32 51  1  0
 33 32  1  0
 33 36  1  0
 34 31  1  0
 34 35  1  0
 35 33  2  0
 36 37  1  0
 37 38  2  0
 39 42  1  0
 39 38  1  0
 40 39  2  0
 41 40  1  0
 41 36  2  0
 42 43  1  0
 43 44  1  0
 44 45  2  0
 46 45  1  0
 46 50  1  0
 47 46  2  0
 48 43  2  0
 48 47  1  0
 49 48  1  0
 51 52  1  0
 52 55  1  0
 52 54  1  0
 53 51  2  0
 56 57  1  0
 56 31  1  0
 58 56  1  0
 59 60  1  0
 60 62  1  0
 61 72  2  0
 62 67  1  0
 63 71  1  0
 63 73  1  0
 64 70  1  0
 64 66  1  0
 65 71  1  0
 66 67  2  0
 66 65  1  0
 68 69  1  0
 68 62  2  0
 69 64  2  0
 70 63  1  0
 71 61  1  0
 73 75  2  0
 74 73  1  0
 76 74  1  0
 77 86  2  0
 77 82  1  0
 78 74  1  0
 78 82  1  0
 79 78  1  0
 80 81  1  0
 80 79  1  0
 81 77  1  0
 82 83  2  0
 83 84  1  0
 85 84  2  0
 86 85  1  0
 87 61  1  0
 87 92  1  0
 87 88  1  0
 88 91  1  1
 88 89  1  0
 90 88  1  0
 92 95  1  0
 93 97  1  0
 93 92  1  0
 94 93  2  0
 97 96  1  0
 99 97  1  0
 99100  1  0
 99 98  1  0
M  ISO  4  21 100  29 100  59 101  60 101
M  END
>  <TORSDO>  (6) 
F 20

>  <SCORE>  (6) 
-13.880

>  <name>  (6) 
5

>  <ligand_id>  (6) 
5

>  <original_smiles>  (6) 
[H]C([H])=C([H])C([H])=C1C([H])([H])C([H])(C([H])([H])Oc2c([H])c([H])c3c(c2[H])C([H])([H])N(C(=O)C([H])(N([H])C(=O)C([H])(N([H])C([H])([H])[H])C([H])([H])[H])C(C([H])([H])[H])(C([H])([H])[H])C([H])([H])[H])C([H])(C(=O)N([H])C2([H])c4c([H])c([H])c([H])c([H])c4C([H])([H])C([H])([H])C2([H])[H])C3([H])[H])C([H])([H])C([H])([H])C([H])([H])[N+]1([H])C([H])([H])c1c([H])c(Cl)c(N([H])C(=O)N2C([H])([H])C([H])([H])C([H])([H])C([H])(n3nc(-c4c([H])c([H])c(Oc5c([H])c([H])c(F)c([H])c5F)c([H])c4[H])c(C(=O)N([H])[H])c3N([H])[H])C2([H])[H])c([H])c1C([H])([H])[H]

>  <smiles>  (6) 
[H]C([H])=C([H])C([H])=C1C([H])([H])C([H])(C([H])([H])Oc2c([H])c([H])c3c(c2[H])C([H])([H])N(C(=O)C([H])(N([H])C(=O)C([H])(N([H])C([H])([H])[H])C([H])([H])[H])C(C([H])([H])[H])(C([H])([H])[H])C([H])([H])[H])C([H])(C(=O)N([H])C2([H])c4c([H])c([H])c([H])c([H])c4C([H])([H])C([H])([H])C2([H])[H])C3([H])[H])C([H])([H])C([H])([H])C([H])([H])[N+]1([H])C([H])([H])c1c([H])c(Cl)c(N([H])C(=O)N2C([H])([H])C([H])([H])C([H])([H])C([H])(n3nc(-c4c([H])c([H])c(Oc5c([H])c([H])c(F)c([H])c5F)c([H])c4[H])c(C(=O)N([H])[H])c3N([H])[H])C2([H])[H])c([H])c1C([H])([H])[H]

$$$$
6:0:0
     RDKit          3D

 92100  0  0  1  0  0  0  0  0999 V2000
  -29.3360  -21.5710   20.2590 N   0  0  0  0  0  4  0  0  0  0  0  0
  -29.9660  -21.6860   21.0350 H   0  0  0  0  0  0  0  0  0  0  0  0
  -28.4180  -21.3690   20.6200 H   0  0  0  0  0  0  0  0  0  0  0  0
  -29.7940  -20.3850   19.4640 C   0  0  0  0  0  2  0  0  0  0  0  0
  -30.1690  -17.7620   19.7300 C   0  0  0  0  0  3  0  0  0  0  0  0
  -30.1700  -17.6290   21.9950 C   0  0  0  0  0  3  0  0  0  0  0  0
  -30.2660  -16.8770   20.8590 C   0  0  0  0  0  0  0  0  0  0  0  0
  -29.9990  -19.0550   20.2020 C   0  0  0  0  0  0  0  0  0  0  0  0
  -30.0200  -18.9430   21.5870 N   0  0  0  0  0  0  0  0  0  0  0  0
  -29.9180  -19.7090   22.2450 H   0  0  0  0  0  0  0  0  0  0  0  0
  -30.9440  -14.5270   20.1440 C   0  0  0  0  0  0  0  0  0  0  0  0
  -30.6440  -12.3600   18.9760 C   0  0  0  0  0  2  0  0  0  0  0  0
  -29.6480  -12.5670   17.8140 C   0  0  0  0  0  2  0  0  0  0  0  0
  -28.1910  -12.4350   18.3000 C   0  0  0  0  0  2  0  0  0  0  0  0
  -27.9120  -13.2640   19.5810 C   0  0  0  0  0  3  0  0  0  0  0  0
  -29.0030  -12.9960   20.6420 C   0  0  0  0  0  2  0  0  0  0  0  0
  -30.3100  -13.3220   20.0410 N   0  0  0  0  0  0  0  0  0  0  0  0
  -32.0140  -14.7670   19.5730 O   0  0  0  0  0  0  0  0  0  0  0  0
  -30.2920  -15.4420   20.8970 N   0  0  0  0  0  0  0  0  0  0  0  0
  -29.5870  -15.0280   21.4890 H   0  0  0  0  0  0  0  0  0  0  0  0
  -25.5530  -13.9090   20.3880 C   0  0  0  0  0  0  0  0  0  0  0  0
  -24.4850  -13.1530   20.7890 C   0  0  0  0  0  0  0  0  0  0  0  0
  -24.9190  -11.7930   20.7210 C   0  0  0  0  0  0  0  0  0  0  0  0
  -26.5720  -13.0120   20.1060 N   0  0  0  0  0  0  0  0  0  0  0  0
  -26.1940  -11.7330   20.3610 N   0  0  0  0  0  0  0  0  0  0  0  0
  -24.1760  -10.5410   20.9220 C   0  0  0  0  0  0  0  0  0  0  0  0
  -24.5690   -9.5990   21.8970 C   0  0  0  0  0  3  0  0  0  0  0  0
  -23.8300   -8.4100   22.0820 C   0  0  0  0  0  3  0  0  0  0  0  0
  -22.6840   -8.1580   21.2910 C   0  0  0  0  0  0  0  0  0  0  0  0
  -22.3120   -9.0890   20.3060 C   0  0  0  0  0  3  0  0  0  0  0  0
  -23.0510  -10.2680   20.1190 C   0  0  0  0  0  3  0  0  0  0  0  0
  -21.9180   -7.0200   21.3840 O   0  0  0  0  0  0  0  0  0  0  0  0
  -21.7430   -6.3650   22.5760 C   0  0  0  0  0  0  0  0  0  0  0  0
  -21.1680   -7.0000   23.6980 C   0  0  0  0  0  3  0  0  0  0  0  0
  -20.9440   -6.2700   24.8820 C   0  0  0  0  0  3  0  0  0  0  0  0
  -21.2850   -4.9060   24.9440 C   0  0  0  0  0  0  0  0  0  0  0  0
  -21.8540   -4.2700   23.8260 C   0  0  0  0  0  3  0  0  0  0  0  0
  -22.0800   -4.9980   22.6450 C   0  0  0  0  0  0  0  0  0  0  0  0
  -22.6090   -4.3750   21.5630 F   0  0  0  0  0  0  0  0  0  0  0  0
  -21.0620   -4.2020   26.0780 F   0  0  0  0  0  0  0  0  0  0  0  0
  -23.1090  -13.6510   21.1240 C   0  0  0  0  0  0  0  0  0  0  0  0
  -22.4020  -12.9540   22.0070 N   0  0  0  0  0  0  0  0  0  0  0  0
  -22.6700  -14.6930   20.6380 O   0  0  0  0  0  0  0  0  0  0  0  0
  -22.7690  -12.1090   22.4200 H   0  0  0  0  0  0  0  0  0  0  0  0
  -21.4810  -13.2700   22.2730 H   0  0  0  0  0  0  0  0  0  0  0  0
  -25.7400  -15.2790   20.2240 N   0  0  0  0  0  0  0  0  0  0  0  0
  -24.9960  -15.9530   20.3720 H   0  0  0  0  0  0  0  0  0  0  0  0
  -26.5950  -15.7030   19.8850 H   0  0  0  0  0  0  0  0  0  0  0  0
  -29.2760  -22.8650   19.4970 C   0  0  0  0  0  2  0  0  0  0  0  0
  -28.7510  -24.1160   20.2910 C   0  0  0  0  0  2  0  0  0  0  0  0
  -28.7070  -25.4390   19.4560 C   0  0  0  0  0  2  0  0  0  0  0  0
  -28.4820  -26.6530   20.2180 O   0  0  0  0  0  0  0  0  0  0  0  0
  -24.6610  -31.8840   23.2240 C   0  0  0  0  0  0  0  0  0  0  0  0
  -27.2860  -27.3620   20.1850 C   0  0  0  0  0  0  0  0  0  0  0  0
  -23.4460  -30.4640   21.6070 C   0  0  0  0  0  3  0  0  0  0  0  0
  -24.8890  -28.8980   20.1950 C   0  0  0  0  0  0  0  0  0  0  0  0
  -25.9740  -30.8040   21.3960 C   0  0  0  0  0  2  0  0  0  0  0  0
  -26.0530  -29.4210   20.7700 C   0  0  0  0  0  0  0  0  0  0  0  0
  -27.2470  -28.6580   20.7630 C   0  0  0  0  0  3  0  0  0  0  0  0
  -26.0910  -26.8540   19.6210 C   0  0  0  0  0  3  0  0  0  0  0  0
  -24.9040  -27.6140   19.6210 C   0  0  0  0  0  3  0  0  0  0  0  0
  -23.6480  -29.7660   20.2340 C   0  0  0  0  0  2  0  0  0  0  0  0
  -24.7130  -31.0680   22.1330 N   0  0  0  0  0  0  0  0  0  0  0  0
  -23.5830  -32.1660   23.7670 O   0  0  0  0  0  0  0  0  0  0  0  0
  -22.7960  -29.4570   22.5840 C   0  0  0  0  0  0  0  0  0  0  0  0
  -21.4770  -29.2470   22.4410 N   0  0  0  0  0  0  0  0  0  0  0  0
  -23.4760  -28.8680   23.4290 O   0  0  0  0  0  0  0  0  0  0  0  0
  -20.9890  -29.7760   21.7330 H   0  0  0  0  0  0  0  0  0  0  0  0
  -18.1260  -27.9670   22.8870 C   0  0  0  0  0  0  0  0  0  0  0  0
  -20.6660  -28.3140   23.2230 C   0  0  0  0  0  3  0  0  0  0  0  0
  -20.8280  -26.8660   22.7070 C   0  0  0  0  0  2  0  0  0  0  0  0
  -19.7680  -26.4710   21.6730 C   0  0  0  0  0  2  0  0  0  0  0  0
  -18.3620  -26.5980   22.2700 C   0  0  0  0  0  2  0  0  0  0  0  0
  -19.2080  -28.7780   23.3200 C   0  0  0  0  0  0  0  0  0  0  0  0
  -18.9350  -30.0550   23.8540 C   0  0  0  0  0  3  0  0  0  0  0  0
  -17.6120  -30.5230   23.9620 C   0  0  0  0  0  3  0  0  0  0  0  0
  -16.5440  -29.7100   23.5460 C   0  0  0  0  0  3  0  0  0  0  0  0
  -16.8010  -28.4340   23.0130 C   0  0  0  0  0  3  0  0  0  0  0  0
  -25.9500  -32.5210   23.8310 C   0  0  0  0  0  3  0  0  0  0  0  0
  -25.6320  -33.9110   24.1860 N   0  0  0  0  0  0  0  0  0  0  0  0
  -25.9340  -34.9770   23.4330 C   0  0  0  0  0  0  0  0  0  0  0  0
  -26.5810  -34.8940   22.3850 O   0  0  0  0  0  0  0  0  0  0  0  0
  -25.0560  -34.0470   25.0030 H   0  0  0  0  0  0  0  0  0  0  0  0
  -24.1780  -36.7530   23.1360 C   0  0  0  0  0  1  0  0  0  0  0  0
  -25.4400  -36.3530   23.9190 C   0  0  0  0  0  3  0  0  0  0  0  0
  -27.5780  -37.2560   24.7220 C   0  0  0  0  0  1  0  0  0  0  0  0
  -26.4580  -37.4200   23.7980 N   0  0  0  0  0  0  0  0  0  0  0  0
  -26.0440  -38.3350   23.9570 H   0  0  0  0  0  0  0  0  0  0  0  0
  -26.5020  -31.7380   25.0850 C   0  0  1  0  0  0  0  0  0  0  0  0
  -25.4310  -31.4630   26.1670 C   0  0  0  0  0  1  0  0  0  0  0  0
  -27.1020  -30.3790   24.6570 C   0  0  0  0  0  1  0  0  0  0  0  0
  -27.6470  -32.5430   25.7420 C   0  0  0  0  0  1  0  0  0  0  0  0
  1  3  1  0
  1  2  1  0
  4  8  1  0
  4  1  1  0
  5  8  2  0
  5  7  1  0
  7 19  1  0
  7  6  2  0
  8  9  1  0
  9  6  1  0
  9 10  1  0
 11 19  1  0
 12 17  1  0
 13 14  1  0
 13 12  1  0
 15 14  1  0
 15 24  1  0
 15 16  1  0
 17 11  1  0
 17 16  1  0
 18 11  2  0
 19 20  1  0
 21 22  2  0
 22 41  1  0
 23 22  1  0
 23 26  1  0
 24 25  1  0
 24 21  1  0
 25 23  2  0
 26 27  1  0
 27 28  2  0
 29 32  1  0
 29 28  1  0
 30 29  2  0
 31 30  1  0
 31 26  2  0
 32 33  1  0
 33 38  2  0
 33 34  1  0
 34 35  2  0
 35 36  1  0
 36 40  1  0
 37 36  2  0
 38 37  1  0
 39 38  1  0
 41 42  1  0
 42 45  1  0
 42 44  1  0
 43 41  2  0
 46 47  1  0
 46 21  1  0
 48 46  1  0
 49  1  1  0
 49 50  1  0
 51 52  1  0
 51 50  1  0
 53 64  2  0
 54 52  1  0
 54 59  1  0
 55 63  1  0
 55 65  1  0
 56 62  1  0
 56 58  1  0
 57 63  1  0
 58 57  1  0
 59 58  2  0
 60 54  2  0
 61 60  1  0
 61 56  2  0
 62 55  1  0
 63 53  1  0
 65 67  2  0
 66 65  1  0
 68 66  1  0
 69 78  2  0
 69 74  1  0
 70 66  1  0
 70 74  1  0
 71 70  1  0
 72 73  1  0
 72 71  1  0
 73 69  1  0
 74 75  2  0
 75 76  1  0
 77 76  2  0
 78 77  1  0
 79 53  1  0
 79 80  1  0
 79 89  1  0
 80 83  1  0
 81 85  1  0
 81 80  1  0
 82 81  2  0
 85 84  1  0
 87 85  1  0
 87 88  1  0
 87 86  1  0
 89 92  1  1
 89 90  1  0
 91 89  1  0
M  ISO  4  11 100  19 100  51 101  52 101
M  END
>  <TORSDO>  (7) 
F 21

>  <SCORE>  (7) 
-13.099

>  <name>  (7) 
6

>  <ligand_id>  (7) 
6

>  <original_smiles>  (7) 
[H]c1c([H])c([H])c2c(c1[H])C([H])([H])C([H])([H])C([H])([H])C2([H])N([H])C(=O)C1([H])N(C(=O)C([H])(N([H])C(=O)C([H])(N([H])C([H])([H])[H])C([H])([H])[H])C(C([H])([H])[H])(C([H])([H])[H])C([H])([H])[H])C([H])([H])c2c([H])c(OC([H])([H])C([H])([H])C([H])([H])[N+]([H])([H])C([H])([H])c3c([H])c(N([H])C(=O)N4C([H])([H])C([H])([H])C([H])([H])C([H])(n5nc(-c6c([H])c([H])c(Oc7c([H])c([H])c(F)c([H])c7F)c([H])c6[H])c(C(=O)N([H])[H])c5N([H])[H])C4([H])[H])c([H])n3[H])c([H])c([H])c2C1([H])[H]

>  <smiles>  (7) 
[H]c1c([H])c([H])c2c(c1[H])C([H])([H])C([H])([H])C([H])([H])C2([H])N([H])C(=O)C1([H])N(C(=O)C([H])(N([H])C(=O)C([H])(N([H])C([H])([H])[H])C([H])([H])[H])C(C([H])([H])[H])(C([H])([H])[H])C([H])([H])[H])C([H])([H])c2c([H])c(OC([H])([H])C([H])([H])C([H])([H])[N+]([H])([H])C([H])([H])c3c([H])c(N([H])C(=O)N4C([H])([H])C([H])([H])C([H])([H])C([H])(n5nc(-c6c([H])c([H])c(Oc7c([H])c([H])c(F)c([H])c7F)c([H])c6[H])c(C(=O)N([H])[H])c5N([H])[H])C4([H])[H])c([H])n3[H])c([H])c([H])c2C1([H])[H]

$$$$
7:0:0
     RDKit          3D

 96105  0  0  1  0  0  0  0  0999 V2000
  -29.3490  -24.1720   19.3400 C   0  0  0  0  0  0  0  0  0  0  0  0
  -29.6770  -24.5730   18.1000 C   0  0  0  0  0  2  0  0  0  0  0  0
  -29.1560  -23.3800   22.1630 C   0  0  0  0  0  2  0  0  0  0  0  0
  -29.0920  -24.8700   21.8120 C   0  0  0  0  0  2  0  0  0  0  0  0
  -30.1610  -22.6630   21.2510 C   0  0  0  0  0  2  0  0  0  0  0  0
  -28.6070  -25.0930   20.3730 C   0  0  0  0  0  3  0  0  0  0  0  0
  -29.7980  -22.7560   19.8150 N   0  0  1  0  0  4  0  0  0  0  0  0
  -30.6930  -22.6050   19.3750 H   0  0  0  0  0  0  0  0  0  0  0  0
  -28.7010  -26.5510   20.1260 O   0  0  0  0  0  0  0  0  0  0  0  0
  -24.5610  -31.6110   23.2100 C   0  0  0  0  0  0  0  0  0  0  0  0
  -27.5270  -27.3130   20.1150 C   0  0  0  0  0  0  0  0  0  0  0  0
  -23.4990  -30.2210   21.4650 C   0  0  0  0  0  3  0  0  0  0  0  0
  -25.0840  -28.7900   20.0610 C   0  0  0  0  0  0  0  0  0  0  0  0
  -26.0230  -30.6670   21.4110 C   0  0  0  0  0  2  0  0  0  0  0  0
  -26.2000  -29.3180   20.7240 C   0  0  0  0  0  0  0  0  0  0  0  0
  -27.4240  -28.5910   20.7420 C   0  0  0  0  0  3  0  0  0  0  0  0
  -26.3890  -26.8310   19.4310 C   0  0  0  0  0  3  0  0  0  0  0  0
  -25.1800  -27.5510   19.4080 C   0  0  0  0  0  3  0  0  0  0  0  0
  -23.8060  -29.6050   20.0760 C   0  0  0  0  0  2  0  0  0  0  0  0
  -24.7090  -30.8490   22.0880 N   0  0  0  0  0  0  0  0  0  0  0  0
  -23.4420  -31.8190   23.7030 O   0  0  0  0  0  0  0  0  0  0  0  0
  -22.8420  -29.1410   22.3570 C   0  0  0  0  0  0  0  0  0  0  0  0
  -21.5220  -28.9470   22.1990 N   0  0  0  0  0  0  0  0  0  0  0  0
  -23.5210  -28.4830   23.1510 O   0  0  0  0  0  0  0  0  0  0  0  0
  -21.0330  -29.5320   21.5350 H   0  0  0  0  0  0  0  0  0  0  0  0
  -18.1520  -27.7060   22.6200 C   0  0  0  0  0  0  0  0  0  0  0  0
  -20.7100  -27.9530   22.9020 C   0  0  0  0  0  3  0  0  0  0  0  0
  -20.8150  -26.5670   22.2250 C   0  0  0  0  0  2  0  0  0  0  0  0
  -19.7100  -26.3140   21.1930 C   0  0  0  0  0  2  0  0  0  0  0  0
  -18.3300  -26.4100   21.8490 C   0  0  0  0  0  2  0  0  0  0  0  0
  -19.2700  -28.4390   23.1010 C   0  0  0  0  0  0  0  0  0  0  0  0
  -19.0490  -29.6560   23.7820 C   0  0  0  0  0  3  0  0  0  0  0  0
  -17.7430  -30.1400   23.9870 C   0  0  0  0  0  3  0  0  0  0  0  0
  -16.6400  -29.4040   23.5220 C   0  0  0  0  0  3  0  0  0  0  0  0
  -16.8460  -28.1890   22.8440 C   0  0  0  0  0  3  0  0  0  0  0  0
  -25.7840  -32.2760   23.9130 C   0  0  0  0  0  3  0  0  0  0  0  0
  -25.4030  -33.6530   24.2560 N   0  0  0  0  0  0  0  0  0  0  0  0
  -25.7350  -34.7350   23.5400 C   0  0  0  0  0  0  0  0  0  0  0  0
  -26.4630  -34.6810   22.5430 O   0  0  0  0  0  0  0  0  0  0  0  0
  -24.7600  -33.7670   25.0260 H   0  0  0  0  0  0  0  0  0  0  0  0
  -23.9550  -36.4670   23.1390 C   0  0  0  0  0  1  0  0  0  0  0  0
  -25.1720  -36.0940   24.0000 C   0  0  0  0  0  3  0  0  0  0  0  0
  -27.2230  -37.0520   24.9530 C   0  0  0  0  0  1  0  0  0  0  0  0
  -26.1660  -37.1890   23.9550 N   0  0  0  0  0  0  0  0  0  0  0  0
  -25.7160  -38.0890   24.0930 H   0  0  0  0  0  0  0  0  0  0  0  0
  -26.2600  -31.4950   25.2000 C   0  0  1  0  0  0  0  0  0  0  0  0
  -25.1190  -31.1860   26.1970 C   0  0  0  0  0  1  0  0  0  0  0  0
  -26.9230  -30.1530   24.8110 C   0  0  0  0  0  1  0  0  0  0  0  0
  -27.3360  -32.3200   25.9450 C   0  0  0  0  0  1  0  0  0  0  0  0
  -29.0270  -21.5550   19.2960 C   0  0  0  0  0  2  0  0  0  0  0  0
  -29.9350  -19.2540   18.3850 C   0  0  0  0  0  3  0  0  0  0  0  0
  -29.4900  -19.4130   20.7350 C   0  0  0  0  0  3  0  0  0  0  0  0
  -29.5580  -20.0760   19.4840 C   0  0  0  0  0  0  0  0  0  0  0  0
  -30.1740  -17.8450   18.5050 C   0  0  0  0  0  0  0  0  0  0  0  0
  -30.0760  -17.1840   19.7730 C   0  0  0  0  0  0  0  0  0  0  0  0
  -29.7340  -18.0180   20.8770 C   0  0  0  0  0  0  0  0  0  0  0  0
  -30.4430  -17.0740   17.2240 C   0  0  0  0  0  1  0  0  0  0  0  0
  -29.5350  -17.3140   22.4440 Cl  0  0  0  0  0  0  0  0  0  0  0  0
  -30.8890  -14.6880   19.6130 C   0  0  0  0  0  0  0  0  0  0  0  0
  -30.5880  -12.4200   18.6460 C   0  0  0  0  0  2  0  0  0  0  0  0
  -29.5470  -12.5390   17.5100 C   0  0  0  0  0  2  0  0  0  0  0  0
  -28.1120  -12.4100   18.0630 C   0  0  0  0  0  2  0  0  0  0  0  0
  -27.8680  -13.3040   19.3080 C   0  0  0  0  0  3  0  0  0  0  0  0
  -29.0150  -13.1500   20.3340 C   0  0  0  0  0  2  0  0  0  0  0  0
  -30.2760  -13.4610   19.6430 N   0  0  0  0  0  0  0  0  0  0  0  0
  -32.0150  -14.8280   19.1290 O   0  0  0  0  0  0  0  0  0  0  0  0
  -30.1160  -15.7370   20.0280 N   0  0  0  0  0  0  0  0  0  0  0  0
  -29.3480  -15.4280   20.6050 H   0  0  0  0  0  0  0  0  0  0  0  0
  -25.6100  -13.9640   20.3460 C   0  0  0  0  0  0  0  0  0  0  0  0
  -24.5350  -13.2200   20.7500 C   0  0  0  0  0  0  0  0  0  0  0  0
  -24.8920  -11.8560   20.5260 C   0  0  0  0  0  0  0  0  0  0  0  0
  -26.5590  -13.0530   19.9070 N   0  0  0  0  0  0  0  0  0  0  0  0
  -26.1360  -11.7740   20.0720 N   0  0  0  0  0  0  0  0  0  0  0  0
  -24.1000  -10.6270   20.6600 C   0  0  0  0  0  0  0  0  0  0  0  0
  -24.4510   -9.6170   21.5820 C   0  0  0  0  0  3  0  0  0  0  0  0
  -23.6610   -8.4540   21.7060 C   0  0  0  0  0  3  0  0  0  0  0  0
  -22.5060   -8.2910   20.9060 C   0  0  0  0  0  0  0  0  0  0  0  0
  -22.1740   -9.2880   19.9730 C   0  0  0  0  0  3  0  0  0  0  0  0
  -22.9630  -10.4430   19.8470 C   0  0  0  0  0  3  0  0  0  0  0  0
  -21.6940   -7.1830   20.9400 O   0  0  0  0  0  0  0  0  0  0  0  0
  -21.4420   -6.5120   22.1090 C   0  0  0  0  0  0  0  0  0  0  0  0
  -20.8490   -7.1480   23.2220 C   0  0  0  0  0  3  0  0  0  0  0  0
  -20.5450   -6.4030   24.3780 C   0  0  0  0  0  3  0  0  0  0  0  0
  -20.8200   -5.0240   24.4210 C   0  0  0  0  0  0  0  0  0  0  0  0
  -21.4050   -4.3880   23.3120 C   0  0  0  0  0  3  0  0  0  0  0  0
  -21.7110   -5.1290   22.1580 C   0  0  0  0  0  0  0  0  0  0  0  0
  -22.2540   -4.5080   21.0850 F   0  0  0  0  0  0  0  0  0  0  0  0
  -20.5220   -4.3050   25.5290 F   0  0  0  0  0  0  0  0  0  0  0  0
  -23.2120  -13.7480   21.2250 C   0  0  0  0  0  0  0  0  0  0  0  0
  -22.5570  -13.0320   22.1310 N   0  0  0  0  0  0  0  0  0  0  0  0
  -22.7750  -14.8290   20.8310 O   0  0  0  0  0  0  0  0  0  0  0  0
  -22.9240  -12.1550   22.4710 H   0  0  0  0  0  0  0  0  0  0  0  0
  -21.6730  -13.3670   22.4910 H   0  0  0  0  0  0  0  0  0  0  0  0
  -25.8520  -15.3340   20.2950 N   0  0  0  0  0  0  0  0  0  0  0  0
  -25.1420  -16.0130   20.5470 H   0  0  0  0  0  0  0  0  0  0  0  0
  -26.6950  -15.7600   19.9300 H   0  0  0  0  0  0  0  0  0  0  0  0
  1  7  1  0
  1  6  1  0
  2  1  2  0
  4  3  1  0
  5  3  1  0
  6  9  1  0
  6  4  1  0
  7  5  1  0
  7  8  1  6
 10 21  2  0
 11  9  1  0
 11 16  1  0
 12 20  1  0
 12 22  1  0
 13 19  1  0
 13 15  1  0
 14 20  1  0
 15 16  2  0
 15 14  1  0
 17 11  2  0
 18 17  1  0
 18 13  2  0
 19 12  1  0
 20 10  1  0
 22 24  2  0
 23 22  1  0
 25 23  1  0
 26 35  2  0
 26 31  1  0
 27 23  1  0
 27 31  1  0
 28 27  1  0
 29 30  1  0
 29 28  1  0
 30 26  1  0
 31 32  2  0
 32 33  1  0
 34 33  2  0
 35 34  1  0
 36 10  1  0
 36 37  1  0
 36 46  1  0
 37 40  1  0
 38 42  1  0
 38 37  1  0
 39 38  2  0
 42 41  1  0
 44 42  1  0
 44 45  1  0
 44 43  1  0
 46 49  1  1
 46 47  1  0
 48 46  1  0
 50 53  1  0
 50  7  1  0
 51 54  2  0
 51 53  1  0
 52 56  1  0
 53 52  2  0
 54 55  1  0
 55 67  1  0
 55 56  2  0
 56 58  1  0
 57 54  1  0
 59 65  1  0
 59 67  1  0
 60 65  1  0
 61 62  1  0
 61 60  1  0
 63 62  1  0
 63 72  1  0
 63 64  1  0
 65 64  1  0
 66 59  2  0
 67 68  1  0
 69 70  2  0
 70 89  1  0
 71 74  1  0
 71 70  1  0
 72 73  1  0
 72 69  1  0
 73 71  2  0
 74 75  1  0
 75 76  2  0
 77 80  1  0
 77 76  1  0
 78 77  2  0
 79 78  1  0
 79 74  2  0
 80 81  1  0
 81 86  2  0
 81 82  1  0
 82 83  2  0
 83 84  1  0
 84 88  1  0
 85 84  2  0
 86 85  1  0
 87 86  1  0
 89 90  1  0
 90 92  1  0
 90 93  1  0
 91 89  2  0
 94 69  1  0
 94 95  1  0
 96 94  1  0
M  ISO  4   6 101   9 101  59 100  67 100
M  END
>  <TORSDO>  (8) 
F 18

>  <SCORE>  (8) 
-11.824

>  <name>  (8) 
7

>  <ligand_id>  (8) 
7

>  <original_smiles>  (8) 
[H]C([H])=C1C([H])(Oc2c([H])c([H])c3c(c2[H])C([H])([H])N(C(=O)C([H])(N([H])C(=O)C([H])(N([H])C([H])([H])[H])C([H])([H])[H])C(C([H])([H])[H])(C([H])([H])[H])C([H])([H])[H])C([H])(C(=O)N([H])C2([H])c4c([H])c([H])c([H])c([H])c4C([H])([H])C([H])([H])C2([H])[H])C3([H])[H])C([H])([H])C([H])([H])C([H])([H])[N+]1([H])C([H])([H])c1c([H])c(Cl)c(N([H])C(=O)N2C([H])([H])C([H])([H])C([H])([H])C([H])(n3nc(-c4c([H])c([H])c(Oc5c([H])c([H])c(F)c([H])c5F)c([H])c4[H])c(C(=O)N([H])[H])c3N([H])[H])C2([H])[H])c(C([H])([H])[H])c1[H]

>  <smiles>  (8) 
[H]C([H])=C1C([H])(Oc2c([H])c([H])c3c(c2[H])C([H])([H])N(C(=O)C([H])(N([H])C(=O)C([H])(N([H])C([H])([H])[H])C([H])([H])[H])C(C([H])([H])[H])(C([H])([H])[H])C([H])([H])[H])C([H])(C(=O)N([H])C2([H])c4c([H])c([H])c([H])c([H])c4C([H])([H])C([H])([H])C2([H])[H])C3([H])[H])C([H])([H])C([H])([H])C([H])([H])[N+]1([H])C([H])([H])c1c([H])c(Cl)c(N([H])C(=O)N2C([H])([H])C([H])([H])C([H])([H])C([H])(n3nc(-c4c([H])c([H])c(Oc5c([H])c([H])c(F)c([H])c5F)c([H])c4[H])c(C(=O)N([H])[H])c3N([H])[H])C2([H])[H])c(C([H])([H])[H])c1[H]

$$$$
8:0:0
     RDKit          3D

100109  0  0  1  0  0  0  0  0999 V2000
  -31.3130  -23.6300   20.7160 C   0  0  0  0  0  0  0  0  0  0  0  0
  -31.9870  -23.8880   19.5700 C   0  0  0  0  0  3  0  0  0  0  0  0
  -30.9810  -24.6570   21.7930 C   0  0  0  0  0  2  0  0  0  0  0  0
  -30.3000  -25.9210   21.2220 C   0  0  0  0  0  2  0  0  0  0  0  0
  -28.3310  -23.2090   20.5820 C   0  0  0  0  0  2  0  0  0  0  0  0
  -28.5290  -24.5610   19.8350 C   0  0  0  0  0  2  0  0  0  0  0  0
  -29.3830  -22.0940   20.3160 C   0  0  0  0  0  2  0  0  0  0  0  0
  -28.8330  -25.7950   20.7360 C   0  0  0  0  0  3  0  0  0  0  0  0
  -30.6620  -22.3220   21.0430 N   0  0  1  0  0  4  0  0  0  0  0  0
  -30.3470  -22.4010   21.9970 H   0  0  0  0  0  0  0  0  0  0  0  0
  -32.1500  -22.9730   18.4520 C   0  0  0  0  0  3  0  0  0  0  0  0
  -32.8610  -23.2690   17.3530 C   0  0  0  0  0  3  0  0  0  0  0  0
  -33.0000  -22.3400   16.1650 C   0  0  0  0  0  1  0  0  0  0  0  0
  -28.6410  -27.0100   20.0010 O   0  0  0  0  0  0  0  0  0  0  0  0
  -24.4680  -31.8210   23.2160 C   0  0  0  0  0  0  0  0  0  0  0  0
  -27.4110  -27.6200   20.0860 C   0  0  0  0  0  0  0  0  0  0  0  0
  -23.3580  -30.3500   21.5640 C   0  0  0  0  0  3  0  0  0  0  0  0
  -24.9130  -28.9340   20.1250 C   0  0  0  0  0  0  0  0  0  0  0  0
  -25.8490  -30.8970   21.3600 C   0  0  0  0  0  2  0  0  0  0  0  0
  -26.0310  -29.5420   20.7110 C   0  0  0  0  0  0  0  0  0  0  0  0
  -27.2860  -28.8910   20.6870 C   0  0  0  0  0  3  0  0  0  0  0  0
  -26.2780  -27.0250   19.4950 C   0  0  0  0  0  3  0  0  0  0  0  0
  -25.0290  -27.6720   19.5190 C   0  0  0  0  0  3  0  0  0  0  0  0
  -23.6090  -29.6980   20.1780 C   0  0  0  0  0  2  0  0  0  0  0  0
  -24.5750  -31.0390   22.1050 N   0  0  0  0  0  0  0  0  0  0  0  0
  -23.3720  -32.0080   23.7640 O   0  0  0  0  0  0  0  0  0  0  0  0
  -22.7900  -29.2730   22.5170 C   0  0  0  0  0  0  0  0  0  0  0  0
  -21.4920  -28.9650   22.3640 N   0  0  0  0  0  0  0  0  0  0  0  0
  -23.5150  -28.7170   23.3470 O   0  0  0  0  0  0  0  0  0  0  0  0
  -20.9640  -29.4730   21.6680 H   0  0  0  0  0  0  0  0  0  0  0  0
  -18.2540  -27.4090   22.7450 C   0  0  0  0  0  0  0  0  0  0  0  0
  -20.7520  -27.9550   23.1210 C   0  0  0  0  0  3  0  0  0  0  0  0
  -21.0410  -26.5340   22.5840 C   0  0  0  0  0  2  0  0  0  0  0  0
  -20.0280  -26.0710   21.5320 C   0  0  0  0  0  2  0  0  0  0  0  0
  -18.6100  -26.0740   22.1100 C   0  0  0  0  0  2  0  0  0  0  0  0
  -19.2610  -28.2990   23.2040 C   0  0  0  0  0  0  0  0  0  0  0  0
  -18.8780  -29.5420   23.7510 C   0  0  0  0  0  3  0  0  0  0  0  0
  -17.5200  -29.8990   23.8480 C   0  0  0  0  0  3  0  0  0  0  0  0
  -16.5270  -29.0070   23.4090 C   0  0  0  0  0  3  0  0  0  0  0  0
  -16.8950  -27.7630   22.8630 C   0  0  0  0  0  3  0  0  0  0  0  0
  -25.7090  -32.5370   23.8350 C   0  0  0  0  0  3  0  0  0  0  0  0
  -26.2320  -31.8470   25.1540 C   0  0  1  0  0  0  0  0  0  0  0  0
  -25.1270  -31.5990   26.2060 C   0  0  0  0  0  1  0  0  0  0  0  0
  -26.8920  -30.4850   24.8330 C   0  0  0  0  0  1  0  0  0  0  0  0
  -27.3230  -32.7260   25.8090 C   0  0  0  0  0  1  0  0  0  0  0  0
  -25.3300  -33.9320   24.0930 N   0  0  0  0  0  0  0  0  0  0  0  0
  -25.6180  -34.9600   23.2840 C   0  0  0  0  0  0  0  0  0  0  0  0
  -26.3010  -34.8390   22.2640 O   0  0  0  0  0  0  0  0  0  0  0  0
  -24.7260  -34.1000   24.8850 H   0  0  0  0  0  0  0  0  0  0  0  0
  -23.7950  -36.6330   22.8350 C   0  0  0  0  0  1  0  0  0  0  0  0
  -25.0560  -36.3420   23.6660 C   0  0  0  0  0  3  0  0  0  0  0  0
  -27.1370  -37.3850   24.4480 C   0  0  0  0  0  1  0  0  0  0  0  0
  -26.0310  -37.4410   23.4950 N   0  0  0  0  0  0  0  0  0  0  0  0
  -25.5740  -38.3440   23.5950 H   0  0  0  0  0  0  0  0  0  0  0  0
  -31.6300  -21.1840   21.1730 C   0  0  0  0  0  2  0  0  0  0  0  0
  -31.0560  -19.1410   19.7440 C   0  0  0  0  0  3  0  0  0  0  0  0
  -30.7770  -17.7650   19.6070 C   0  0  0  0  0  3  0  0  0  0  0  0
  -30.8790  -18.9390   22.1590 C   0  0  0  0  0  3  0  0  0  0  0  0
  -31.1330  -19.7380   21.0210 C   0  0  0  0  0  0  0  0  0  0  0  0
  -30.5960  -17.5590   22.0270 C   0  0  0  0  0  0  0  0  0  0  0  0
  -30.5790  -16.9490   20.7470 C   0  0  0  0  0  0  0  0  0  0  0  0
  -30.3530  -16.7340   23.2800 C   0  0  0  0  0  1  0  0  0  0  0  0
  -30.8930  -14.6230   19.8560 C   0  0  0  0  0  0  0  0  0  0  0  0
  -30.4830  -12.5010   18.6660 C   0  0  0  0  0  2  0  0  0  0  0  0
  -29.4190  -12.7340   17.5740 C   0  0  0  0  0  2  0  0  0  0  0  0
  -27.9980  -12.5800   18.1490 C   0  0  0  0  0  2  0  0  0  0  0  0
  -27.7920  -13.3850   19.4610 C   0  0  0  0  0  3  0  0  0  0  0  0
  -28.9530  -13.1240   20.4490 C   0  0  0  0  0  2  0  0  0  0  0  0
  -30.2180  -13.4460   19.7630 N   0  0  0  0  0  0  0  0  0  0  0  0
  -31.9270  -14.8500   19.2180 O   0  0  0  0  0  0  0  0  0  0  0  0
  -30.3140  -15.5470   20.6480 N   0  0  0  0  0  0  0  0  0  0  0  0
  -29.5650  -15.1990   21.2240 H   0  0  0  0  0  0  0  0  0  0  0  0
  -25.5020  -13.9760   20.4780 C   0  0  0  0  0  0  0  0  0  0  0  0
  -24.4630  -13.1940   20.9080 C   0  0  0  0  0  0  0  0  0  0  0  0
  -24.8860  -11.8410   20.7260 C   0  0  0  0  0  0  0  0  0  0  0  0
  -26.4940  -13.0980   20.0680 N   0  0  0  0  0  0  0  0  0  0  0  0
  -26.1330  -11.8050   20.2720 N   0  0  0  0  0  0  0  0  0  0  0  0
  -24.1570  -10.5790   20.9060 C   0  0  0  0  0  0  0  0  0  0  0  0
  -24.5680   -9.6170   21.8560 C   0  0  0  0  0  3  0  0  0  0  0  0
  -23.8390   -8.4200   22.0240 C   0  0  0  0  0  3  0  0  0  0  0  0
  -22.6860   -8.1760   21.2380 C   0  0  0  0  0  0  0  0  0  0  0  0
  -22.2950   -9.1260   20.2790 C   0  0  0  0  0  3  0  0  0  0  0  0
  -23.0260  -10.3150   20.1100 C   0  0  0  0  0  3  0  0  0  0  0  0
  -21.9320   -7.0300   21.3130 O   0  0  0  0  0  0  0  0  0  0  0  0
  -21.6930   -6.4030   22.5100 C   0  0  0  0  0  0  0  0  0  0  0  0
  -21.0640   -7.0670   23.5860 C   0  0  0  0  0  3  0  0  0  0  0  0
  -20.7740   -6.3650   24.7730 C   0  0  0  0  0  3  0  0  0  0  0  0
  -21.1000   -5.0000   24.8820 C   0  0  0  0  0  0  0  0  0  0  0  0
  -21.7200   -4.3350   23.8090 C   0  0  0  0  0  3  0  0  0  0  0  0
  -22.0120   -5.0350   22.6240 C   0  0  0  0  0  0  0  0  0  0  0  0
  -22.5910   -4.3850   21.5860 F   0  0  0  0  0  0  0  0  0  0  0  0
  -20.8150   -4.3240   26.0190 F   0  0  0  0  0  0  0  0  0  0  0  0
  -23.1170  -13.6710   21.3730 C   0  0  0  0  0  0  0  0  0  0  0  0
  -22.4900  -12.9350   22.2850 N   0  0  0  0  0  0  0  0  0  0  0  0
  -22.6350  -14.7260   20.9650 O   0  0  0  0  0  0  0  0  0  0  0  0
  -22.8930  -12.0790   22.6350 H   0  0  0  0  0  0  0  0  0  0  0  0
  -21.5920  -13.2340   22.6390 H   0  0  0  0  0  0  0  0  0  0  0  0
  -25.6810  -15.3540   20.3850 N   0  0  0  0  0  0  0  0  0  0  0  0
  -24.9550  -16.0120   20.6430 H   0  0  0  0  0  0  0  0  0  0  0  0
  -26.5090  -15.8030   20.0150 H   0  0  0  0  0  0  0  0  0  0  0  0
  1  9  1  0
  1  3  1  0
  2  1  2  0
  4  3  1  0
  6  5  1  0
  6  8  1  0
  7  5  1  0
  7  9  1  0
  8 14  1  0
  8  4  1  0
  9 55  1  0
  9 10  1  1
 11  2  1  0
 12 11  2  0
 13 12  1  0
 14 16  1  0
 15 26  2  0
 16 21  1  0
 17 25  1  0
 17 27  1  0
 18 24  1  0
 18 20  1  0
 19 25  1  0
 20 19  1  0
 21 20  2  0
 22 23  1  0
 22 16  2  0
 23 18  2  0
 24 17  1  0
 25 15  1  0
 27 29  2  0
 28 27  1  0
 30 28  1  0
 31 40  2  0
 31 36  1  0
 32 28  1  0
 32 36  1  0
 33 32  1  0
 34 35  1  0
 34 33  1  0
 35 31  1  0
 36 37  2  0
 37 38  1  0
 39 38  2  0
 40 39  1  0
 41 15  1  0
 41 46  1  0
 41 42  1  0
 42 45  1  1
 42 43  1  0
 44 42  1  0
 46 49  1  0
 47 51  1  0
 47 46  1  0
 48 47  2  0
 51 50  1  0
 53 54  1  0
 53 51  1  0
 53 52  1  0
 56 59  1  0
 57 56  2  0
 57 61  1  0
 59 55  1  0
 59 58  2  0
 60 58  1  0
 60 62  1  0
 61 60  2  0
 63 71  1  0
 64 69  1  0
 65 66  1  0
 65 64  1  0
 67 66  1  0
 67 76  1  0
 67 68  1  0
 69 63  1  0
 69 68  1  0
 70 63  2  0
 71 61  1  0
 71 72  1  0
 73 74  2  0
 74 93  1  0
 75 78  1  0
 75 74  1  0
 76 77  1  0
 76 73  1  0
 77 75  2  0
 78 79  1  0
 79 80  2  0
 81 84  1  0
 81 80  1  0
 82 81  2  0
 83 82  1  0
 83 78  2  0
 84 85  1  0
 85 90  2  0
 85 86  1  0
 86 87  2  0
 87 88  1  0
 88 92  1  0
 89 88  2  0
 90 89  1  0
 91 90  1  0
 93 94  1  0
 94 96  1  0
 94 97  1  0
 95 93  2  0
 98 73  1  0
 98 99  1  0
100 98  1  0
M  ISO  4   8 101  14 101  63 100  71 100
M  END
>  <TORSDO>  (9) 
F 19

>  <SCORE>  (9) 
-11.682

>  <name>  (9) 
8

>  <ligand_id>  (9) 
8

>  <original_smiles>  (9) 
[H]C(C([H])=C1C([H])([H])C([H])([H])C([H])(Oc2c([H])c([H])c3c(c2[H])C([H])([H])N(C(=O)C([H])(N([H])C(=O)C([H])(N([H])C([H])([H])[H])C([H])([H])[H])C(C([H])([H])[H])(C([H])([H])[H])C([H])([H])[H])C([H])(C(=O)N([H])C2([H])c4c([H])c([H])c([H])c([H])c4C([H])([H])C([H])([H])C2([H])[H])C3([H])[H])C([H])([H])C([H])([H])C([H])([H])[N+]1([H])C([H])([H])c1c([H])c([H])c(N([H])C(=O)N2C([H])([H])C([H])([H])C([H])([H])C([H])(n3nc(-c4c([H])c([H])c(Oc5c([H])c([H])c(F)c([H])c5F)c([H])c4[H])c(C(=O)N([H])[H])c3N([H])[H])C2([H])[H])c(C([H])([H])[H])c1[H])=C([H])C([H])([H])[H]

>  <smiles>  (9) 
[H]C(C([H])=C1C([H])([H])C([H])([H])C([H])(Oc2c([H])c([H])c3c(c2[H])C([H])([H])N(C(=O)C([H])(N([H])C(=O)C([H])(N([H])C([H])([H])[H])C([H])([H])[H])C(C([H])([H])[H])(C([H])([H])[H])C([H])([H])[H])C([H])(C(=O)N([H])C2([H])c4c([H])c([H])c([H])c([H])c4C([H])([H])C([H])([H])C2([H])[H])C3([H])[H])C([H])([H])C([H])([H])C([H])([H])[N+]1([H])C([H])([H])c1c([H])c([H])c(N([H])C(=O)N2C([H])([H])C([H])([H])C([H])([H])C([H])(n3nc(-c4c([H])c([H])c(Oc5c([H])c([H])c(F)c([H])c5F)c([H])c4[H])c(C(=O)N([H])[H])c3N([H])[H])C2([H])[H])c(C([H])([H])[H])c1[H])=C([H])C([H])([H])[H]

$$$$
9:0:0
     RDKit          3D

100109  0  0  1  0  0  0  0  0999 V2000
  -28.6520  -23.3350   20.0850 C   0  0  0  0  0  3  0  0  0  0  0  0
  -28.1070  -23.7780   18.9340 C   0  0  0  0  0  2  0  0  0  0  0  0
  -31.3060  -23.1690   21.2320 C   0  0  0  0  0  2  0  0  0  0  0  0
  -30.5120  -24.5110   21.2110 C   0  0  0  0  0  2  0  0  0  0  0  0
  -30.7980  -22.0950   20.2290 C   0  0  0  0  0  2  0  0  0  0  0  0
  -28.9800  -24.2910   21.2360 C   0  0  0  0  0  3  0  0  0  0  0  0
  -29.3310  -21.9870   20.3600 N   0  0  2  0  0  4  0  0  0  0  0  0
  -29.2760  -21.9080   21.3640 H   0  0  0  0  0  0  0  0  0  0  0  0
  -27.2440  -23.3740   16.6870 C   0  0  0  0  0  2  0  0  0  0  0  0
  -28.1730  -23.1790   17.6340 C   0  0  0  0  0  3  0  0  0  0  0  0
  -28.6520  -20.6640   20.0580 C   0  0  0  0  0  2  0  0  0  0  0  0
  -29.6930  -18.2890   20.5110 C   0  0  0  0  0  3  0  0  0  0  0  0
  -29.4610  -19.3880   19.6120 C   0  0  0  0  0  0  0  0  0  0  0  0
  -29.8450  -19.1990   18.2550 C   0  0  0  0  0  0  0  0  0  0  0  0
  -30.5800  -18.0630   17.8580 C   0  0  0  0  0  0  0  0  0  0  0  0
  -30.7020  -16.9620   18.7300 C   0  0  0  0  0  0  0  0  0  0  0  0
  -30.2730  -17.0440   20.0910 C   0  0  0  0  0  0  0  0  0  0  0  0
  -29.3700  -20.1040   17.1300 C   0  0  0  0  0  1  0  0  0  0  0  0
  -31.1560  -17.9880   16.4390 C   0  0  0  0  0  1  0  0  0  0  0  0
  -31.1100  -15.6430   18.1130 C   0  0  0  0  0  1  0  0  0  0  0  0
  -31.0470  -14.7600   20.9590 C   0  0  0  0  0  0  0  0  0  0  0  0
  -30.8880  -12.4600   20.0410 C   0  0  0  0  0  2  0  0  0  0  0  0
  -30.0570  -12.3810   18.7360 C   0  0  0  0  0  2  0  0  0  0  0  0
  -28.5350  -12.4790   18.9800 C   0  0  0  0  0  2  0  0  0  0  0  0
  -28.0920  -13.4170   20.1390 C   0  0  0  0  0  3  0  0  0  0  0  0
  -29.0290  -13.2920   21.3580 C   0  0  0  0  0  2  0  0  0  0  0  0
  -30.3950  -13.5600   20.8940 N   0  0  0  0  0  0  0  0  0  0  0  0
  -32.2640  -14.8460   20.7750 O   0  0  0  0  0  0  0  0  0  0  0  0
  -30.2560  -15.8780   20.9810 N   0  0  0  0  0  0  0  0  0  0  0  0
  -29.3760  -15.7390   21.4570 H   0  0  0  0  0  0  0  0  0  0  0  0
  -25.6490  -14.0920   20.5980 C   0  0  0  0  0  0  0  0  0  0  0  0
  -24.5350  -13.3510   20.8910 C   0  0  0  0  0  0  0  0  0  0  0  0
  -24.9720  -11.9930   20.9650 C   0  0  0  0  0  0  0  0  0  0  0  0
  -26.6950  -13.1870   20.5060 N   0  0  0  0  0  0  0  0  0  0  0  0
  -26.2850  -11.9240   20.7950 N   0  0  0  0  0  0  0  0  0  0  0  0
  -24.2080  -10.7480   21.1280 C   0  0  0  0  0  0  0  0  0  0  0  0
  -24.5630   -9.7860   22.0990 C   0  0  0  0  0  3  0  0  0  0  0  0
  -23.8050   -8.6050   22.2480 C   0  0  0  0  0  3  0  0  0  0  0  0
  -22.6760   -8.3790   21.4270 C   0  0  0  0  0  0  0  0  0  0  0  0
  -22.3400   -9.3290   20.4460 C   0  0  0  0  0  3  0  0  0  0  0  0
  -23.0990  -10.5000   20.2950 C   0  0  0  0  0  3  0  0  0  0  0  0
  -21.8910   -7.2520   21.4880 O   0  0  0  0  0  0  0  0  0  0  0  0
  -21.7730   -6.5180   22.6410 C   0  0  0  0  0  0  0  0  0  0  0  0
  -21.3030   -7.0890   23.8430 C   0  0  0  0  0  3  0  0  0  0  0  0
  -21.1320   -6.2820   24.9850 C   0  0  0  0  0  3  0  0  0  0  0  0
  -21.4190   -4.9040   24.9260 C   0  0  0  0  0  0  0  0  0  0  0  0
  -21.8790   -4.3330   23.7280 C   0  0  0  0  0  3  0  0  0  0  0  0
  -22.0540   -5.1370   22.5870 C   0  0  0  0  0  0  0  0  0  0  0  0
  -22.4780   -4.5770   21.4290 F   0  0  0  0  0  0  0  0  0  0  0  0
  -21.2460   -4.1290   26.0220 F   0  0  0  0  0  0  0  0  0  0  0  0
  -23.1250  -13.8590   20.9990 C   0  0  0  0  0  0  0  0  0  0  0  0
  -22.3060  -13.2240   21.8310 N   0  0  0  0  0  0  0  0  0  0  0  0
  -22.7540  -14.8510   20.3760 O   0  0  0  0  0  0  0  0  0  0  0  0
  -22.6150  -12.4210   22.3590 H   0  0  0  0  0  0  0  0  0  0  0  0
  -21.3560  -13.5480   21.9450 H   0  0  0  0  0  0  0  0  0  0  0  0
  -25.8580  -15.4500   20.3810 N   0  0  0  0  0  0  0  0  0  0  0  0
  -25.0970  -16.1200   20.3710 H   0  0  0  0  0  0  0  0  0  0  0  0
  -26.7490  -15.8550   20.1200 H   0  0  0  0  0  0  0  0  0  0  0  0
  -28.1090  -25.6080   21.3410 C   0  0  0  0  0  2  0  0  0  0  0  0
  -28.2520  -26.6730   20.3600 O   0  0  0  0  0  0  0  0  0  0  0  0
  -24.5330  -31.9830   23.3430 C   0  0  0  0  0  0  0  0  0  0  0  0
  -27.1360  -27.4920   20.2960 C   0  0  0  0  0  0  0  0  0  0  0  0
  -23.3130  -30.5820   21.7130 C   0  0  0  0  0  3  0  0  0  0  0  0
  -24.7580  -29.0400   20.2810 C   0  0  0  0  0  0  0  0  0  0  0  0
  -25.8430  -30.9270   21.5030 C   0  0  0  0  0  2  0  0  0  0  0  0
  -25.9240  -29.5530   20.8630 C   0  0  0  0  0  0  0  0  0  0  0  0
  -27.1190  -28.7910   20.8630 C   0  0  0  0  0  3  0  0  0  0  0  0
  -25.9540  -27.0060   19.6950 C   0  0  0  0  0  3  0  0  0  0  0  0
  -24.7710  -27.7680   19.6860 C   0  0  0  0  0  3  0  0  0  0  0  0
  -23.5170  -29.9030   20.3330 C   0  0  0  0  0  2  0  0  0  0  0  0
  -24.5810  -31.1790   22.2440 N   0  0  0  0  0  0  0  0  0  0  0  0
  -23.4560  -32.2610   23.8890 O   0  0  0  0  0  0  0  0  0  0  0  0
  -22.6610  -29.5660   22.6790 C   0  0  0  0  0  0  0  0  0  0  0  0
  -21.3430  -29.3490   22.5260 N   0  0  0  0  0  0  0  0  0  0  0  0
  -23.3380  -28.9760   23.5250 O   0  0  0  0  0  0  0  0  0  0  0  0
  -20.8550  -29.8770   21.8160 H   0  0  0  0  0  0  0  0  0  0  0  0
  -18.0010  -28.0270   22.9170 C   0  0  0  0  0  0  0  0  0  0  0  0
  -20.5300  -28.4090   23.2980 C   0  0  0  0  0  3  0  0  0  0  0  0
  -20.7210  -26.9610   22.7900 C   0  0  0  0  0  2  0  0  0  0  0  0
  -19.6850  -26.5490   21.7390 C   0  0  0  0  0  2  0  0  0  0  0  0
  -18.2680  -26.6600   22.3100 C   0  0  0  0  0  2  0  0  0  0  0  0
  -19.0640  -28.8550   23.3650 C   0  0  0  0  0  0  0  0  0  0  0  0
  -18.7650  -30.1310   23.8880 C   0  0  0  0  0  3  0  0  0  0  0  0
  -17.4340  -30.5830   23.9670 C   0  0  0  0  0  3  0  0  0  0  0  0
  -16.3840  -29.7530   23.5390 C   0  0  0  0  0  3  0  0  0  0  0  0
  -16.6680  -28.4770   23.0190 C   0  0  0  0  0  3  0  0  0  0  0  0
  -25.8240  -32.6130   23.9540 C   0  0  0  0  0  3  0  0  0  0  0  0
  -26.3380  -31.8520   25.2370 C   0  0  1  0  0  0  0  0  0  0  0  0
  -25.2420  -31.6190   26.3020 C   0  0  0  0  0  1  0  0  0  0  0  0
  -26.9230  -30.4710   24.8560 C   0  0  0  0  0  1  0  0  0  0  0  0
  -27.4880  -32.6500   25.8970 C   0  0  0  0  0  1  0  0  0  0  0  0
  -25.5290  -34.0190   24.2640 N   0  0  0  0  0  0  0  0  0  0  0  0
  -25.8810  -35.0570   23.4920 C   0  0  0  0  0  0  0  0  0  0  0  0
  -26.5580  -34.9300   22.4680 O   0  0  0  0  0  0  0  0  0  0  0  0
  -24.9280  -34.1910   25.0560 H   0  0  0  0  0  0  0  0  0  0  0  0
  -24.1770  -36.8630   23.0960 C   0  0  0  0  0  1  0  0  0  0  0  0
  -25.4070  -36.4570   23.9260 C   0  0  0  0  0  3  0  0  0  0  0  0
  -27.5450  -37.3250   24.7620 C   0  0  0  0  0  1  0  0  0  0  0  0
  -26.4520  -37.4960   23.8070 N   0  0  0  0  0  0  0  0  0  0  0  0
  -26.0580  -38.4230   23.9400 H   0  0  0  0  0  0  0  0  0  0  0  0
  1  2  1  0
  1  7  1  0
  1  6  1  0
  4  3  1  0
  4  6  1  0
  5  7  1  0
  5  3  1  0
  6 59  1  0
  7  8  1  1
  9 10  2  0
 10  2  1  0
 11  7  1  0
 13 11  1  0
 13 12  2  0
 14 13  1  0
 15 14  2  0
 15 16  1  0
 16 17  2  0
 17 12  1  0
 17 29  1  0
 18 14  1  0
 19 15  1  0
 20 16  1  0
 21 29  1  0
 22 27  1  0
 23 24  1  0
 23 22  1  0
 25 24  1  0
 25 34  1  0
 25 26  1  0
 27 21  1  0
 27 26  1  0
 28 21  2  0
 29 30  1  0
 31 32  2  0
 32 33  1  0
 32 51  1  0
 33 36  1  0
 34 31  1  0
 34 35  1  0
 35 33  2  0
 36 37  1  0
 37 38  2  0
 39 42  1  0
 39 38  1  0
 40 39  2  0
 41 40  1  0
 41 36  2  0
 42 43  1  0
 43 44  1  0
 44 45  2  0
 46 45  1  0
 46 50  1  0
 47 46  2  0
 48 43  2  0
 48 47  1  0
 49 48  1  0
 51 52  1  0
 52 55  1  0
 52 54  1  0
 53 51  2  0
 56 31  1  0
 57 56  1  0
 58 56  1  0
 60 59  1  0
 61 72  2  0
 62 60  1  0
 62 67  1  0
 63 71  1  0
 63 73  1  0
 64 70  1  0
 64 66  1  0
 65 71  1  0
 66 67  2  0
 66 65  1  0
 68 62  2  0
 69 68  1  0
 69 64  2  0
 70 63  1  0
 71 61  1  0
 73 75  2  0
 74 73  1  0
 76 74  1  0
 77 86  2  0
 77 82  1  0
 78 74  1  0
 78 82  1  0
 79 78  1  0
 80 81  1  0
 80 79  1  0
 81 77  1  0
 82 83  2  0
 83 84  1  0
 85 84  2  0
 86 85  1  0
 87 61  1  0
 87 92  1  0
 87 88  1  0
 88 91  1  1
 88 89  1  0
 90 88  1  0
 92 95  1  0
 93 97  1  0
 93 92  1  0
 94 93  2  0
 97 96  1  0
 99 97  1  0
 99100  1  0
 99 98  1  0
M  ISO  4  21 100  29 100  59 101  60 101
M  END
>  <TORSDO>  (10) 
F 20

>  <SCORE>  (10) 
-12.758

>  <name>  (10) 
9

>  <ligand_id>  (10) 
9

>  <original_smiles>  (10) 
[H]C([H])=C([H])C([H])=C1C([H])(C([H])([H])Oc2c([H])c([H])c3c(c2[H])C([H])([H])N(C(=O)C([H])(N([H])C(=O)C([H])(N([H])C([H])([H])[H])C([H])([H])[H])C(C([H])([H])[H])(C([H])([H])[H])C([H])([H])[H])C([H])(C(=O)N([H])C2([H])c4c([H])c([H])c([H])c([H])c4C([H])([H])C([H])([H])C2([H])[H])C3([H])[H])C([H])([H])C([H])([H])C([H])([H])[N+]1([H])C([H])([H])c1c([H])c(N([H])C(=O)N2C([H])([H])C([H])([H])C([H])([H])C([H])(n3nc(-c4c([H])c([H])c(Oc5c([H])c([H])c(F)c([H])c5F)c([H])c4[H])c(C(=O)N([H])[H])c3N([H])[H])C2([H])[H])c(C([H])([H])[H])c(C([H])([H])[H])c1C([H])([H])[H]

>  <smiles>  (10) 
[H]C([H])=C([H])C([H])=C1C([H])(C([H])([H])Oc2c([H])c([H])c3c(c2[H])C([H])([H])N(C(=O)C([H])(N([H])C(=O)C([H])(N([H])C([H])([H])[H])C([H])([H])[H])C(C([H])([H])[H])(C([H])([H])[H])C([H])([H])[H])C([H])(C(=O)N([H])C2([H])c4c([H])c([H])c([H])c([H])c4C([H])([H])C([H])([H])C2([H])[H])C3([H])[H])C([H])([H])C([H])([H])C([H])([H])[N+]1([H])C([H])([H])c1c([H])c(N([H])C(=O)N2C([H])([H])C([H])([H])C([H])([H])C([H])(n3nc(-c4c([H])c([H])c(Oc5c([H])c([H])c(F)c([H])c5F)c([H])c4[H])c(C(=O)N([H])[H])c3N([H])[H])C2([H])[H])c(C([H])([H])[H])c(C([H])([H])[H])c1C([H])([H])[H]

$$$$
10:0:0
     RDKit          3D

 96104  0  0  1  0  0  0  0  0999 V2000
  -28.9670  -21.8820   20.3700 C   0  0  0  0  0  0  0  0  0  0  0  0
  -27.9410  -21.7530   21.2400 N   0  0  0  0  0  4  0  0  0  0  0  0
  -29.4210  -23.1290   20.0850 N   0  0  0  0  0  0  0  0  0  0  0  0
  -27.5030  -20.8610   21.4410 H   0  0  0  0  0  0  0  0  0  0  0  0
  -27.4760  -22.5570   21.6240 H   0  0  0  0  0  0  0  0  0  0  0  0
  -30.1300  -23.2360   19.3640 H   0  0  0  0  0  0  0  0  0  0  0  0
  -29.7890  -19.5310   20.6240 C   0  0  0  0  0  3  0  0  0  0  0  0
  -30.2510  -19.2390   17.9050 C   0  0  0  0  0  3  0  0  0  0  0  0
  -29.5540  -20.6480   19.7710 C   0  0  0  0  0  0  0  0  0  0  0  0
  -30.2520  -18.2680   20.1580 C   0  0  0  0  0  0  0  0  0  0  0  0
  -29.8330  -20.4950   18.3810 C   0  0  0  0  0  0  0  0  0  0  0  0
  -30.4420  -18.1270   18.7560 C   0  0  0  0  0  0  0  0  0  0  0  0
  -29.6640  -21.6040   17.3470 C   0  0  0  0  0  1  0  0  0  0  0  0
  -30.8800  -16.8330   18.1000 C   0  0  0  0  0  1  0  0  0  0  0  0
  -30.6020  -17.1860   21.2160 C   0  0  0  0  0  2  0  0  0  0  0  0
  -30.9430  -14.7120   20.8470 C   0  0  0  0  0  0  0  0  0  0  0  0
  -30.7370  -12.5030   19.7720 C   0  0  0  0  0  2  0  0  0  0  0  0
  -29.8710  -12.6750   18.5070 C   0  0  0  0  0  2  0  0  0  0  0  0
  -28.3720  -12.5290   18.8490 C   0  0  0  0  0  2  0  0  0  0  0  0
  -27.9500  -13.3780   20.0770 C   0  0  0  0  0  3  0  0  0  0  0  0
  -28.9500  -13.2140   21.2440 C   0  0  0  0  0  2  0  0  0  0  0  0
  -30.2920  -13.5260   20.7300 N   0  0  0  0  0  0  0  0  0  0  0  0
  -32.1420  -14.8500   20.5800 O   0  0  0  0  0  0  0  0  0  0  0  0
  -30.1540  -15.7930   21.0530 N   0  0  0  0  0  0  0  0  0  0  0  0
  -29.1770  -15.6110   21.2160 H   0  0  0  0  0  0  0  0  0  0  0  0
  -25.5150  -13.9730   20.6570 C   0  0  0  0  0  0  0  0  0  0  0  0
  -24.4350  -13.1910   20.9700 C   0  0  0  0  0  0  0  0  0  0  0  0
  -24.9070  -11.8450   20.9750 C   0  0  0  0  0  0  0  0  0  0  0  0
  -26.5800  -13.0980   20.4890 N   0  0  0  0  0  0  0  0  0  0  0  0
  -26.2150  -11.8160   20.7420 N   0  0  0  0  0  0  0  0  0  0  0  0
  -24.1770  -10.5800   21.1330 C   0  0  0  0  0  0  0  0  0  0  0  0
  -24.5530   -9.6360   22.1190 C   0  0  0  0  0  3  0  0  0  0  0  0
  -23.8300   -8.4310   22.2600 C   0  0  0  0  0  3  0  0  0  0  0  0
  -22.7210   -8.1630   21.4250 C   0  0  0  0  0  0  0  0  0  0  0  0
  -22.3670   -9.0950   20.4320 C   0  0  0  0  0  3  0  0  0  0  0  0
  -23.0870  -10.2930   20.2840 C   0  0  0  0  0  3  0  0  0  0  0  0
  -21.9780   -7.0100   21.4740 O   0  0  0  0  0  0  0  0  0  0  0  0
  -21.8310   -6.2960   22.6410 C   0  0  0  0  0  0  0  0  0  0  0  0
  -21.2400   -6.8620   23.7900 C   0  0  0  0  0  3  0  0  0  0  0  0
  -21.0470   -6.0730   24.9450 C   0  0  0  0  0  3  0  0  0  0  0  0
  -21.4290   -4.7200   24.9440 C   0  0  0  0  0  0  0  0  0  0  0  0
  -22.0070   -4.1520   23.7960 C   0  0  0  0  0  3  0  0  0  0  0  0
  -22.2020   -4.9390   22.6450 C   0  0  0  0  0  0  0  0  0  0  0  0
  -22.7400   -4.3790   21.5370 F   0  0  0  0  0  0  0  0  0  0  0  0
  -21.2370   -3.9590   26.0500 F   0  0  0  0  0  0  0  0  0  0  0  0
  -23.0200  -13.6570   21.1610 C   0  0  0  0  0  0  0  0  0  0  0  0
  -22.2490  -12.9620   21.9890 N   0  0  0  0  0  0  0  0  0  0  0  0
  -22.6040  -14.6720   20.6060 O   0  0  0  0  0  0  0  0  0  0  0  0
  -22.5910  -12.1340   22.4580 H   0  0  0  0  0  0  0  0  0  0  0  0
  -21.2960  -13.2560   22.1560 H   0  0  0  0  0  0  0  0  0  0  0  0
  -25.6730  -15.3460   20.4760 N   0  0  0  0  0  0  0  0  0  0  0  0
  -24.8860  -15.9840   20.5420 H   0  0  0  0  0  0  0  0  0  0  0  0
  -26.5270  -15.8070   20.1920 H   0  0  0  0  0  0  0  0  0  0  0  0
  -28.9950  -24.4140   20.7220 C   0  0  0  0  0  2  0  0  0  0  0  0
  -28.5380  -25.4640   19.6870 C   0  0  0  0  0  2  0  0  0  0  0  0
  -28.3720  -26.7750   20.2740 O   0  0  0  0  0  0  0  0  0  0  0  0
  -24.4950  -31.9690   23.2360 C   0  0  0  0  0  0  0  0  0  0  0  0
  -27.1860  -27.4950   20.2020 C   0  0  0  0  0  0  0  0  0  0  0  0
  -23.3160  -30.5510   21.5930 C   0  0  0  0  0  3  0  0  0  0  0  0
  -24.7920  -29.0120   20.1920 C   0  0  0  0  0  0  0  0  0  0  0  0
  -25.8460  -30.9160   21.4310 C   0  0  0  0  0  2  0  0  0  0  0  0
  -25.9380  -29.5380   20.7980 C   0  0  0  0  0  0  0  0  0  0  0  0
  -27.1330  -28.7740   20.8170 C   0  0  0  0  0  3  0  0  0  0  0  0
  -26.0230  -27.0130   19.5580 C   0  0  0  0  0  3  0  0  0  0  0  0
  -24.8290  -27.7540   19.5760 C   0  0  0  0  0  3  0  0  0  0  0  0
  -23.5390  -29.8540   20.2230 C   0  0  0  0  0  2  0  0  0  0  0  0
  -24.5690  -31.1650   22.1390 N   0  0  0  0  0  0  0  0  0  0  0  0
  -23.4100  -32.2410   23.7630 O   0  0  0  0  0  0  0  0  0  0  0  0
  -22.6600  -29.5320   22.5530 C   0  0  0  0  0  0  0  0  0  0  0  0
  -21.3370  -29.3550   22.4200 N   0  0  0  0  0  0  0  0  0  0  0  0
  -23.3410  -28.9020   23.3690 O   0  0  0  0  0  0  0  0  0  0  0  0
  -20.8560  -29.9070   21.7260 H   0  0  0  0  0  0  0  0  0  0  0  0
  -17.9490  -28.2150   22.9220 C   0  0  0  0  0  0  0  0  0  0  0  0
  -20.5100  -28.4200   23.1770 C   0  0  0  0  0  3  0  0  0  0  0  0
  -20.5830  -26.9980   22.5730 C   0  0  0  0  0  2  0  0  0  0  0  0
  -19.4650  -26.7150   21.5630 C   0  0  0  0  0  2  0  0  0  0  0  0
  -18.0920  -26.8730   22.2240 C   0  0  0  0  0  2  0  0  0  0  0  0
  -19.0830  -28.9500   23.3530 C   0  0  0  0  0  0  0  0  0  0  0  0
  -18.8920  -30.2100   23.9610 C   0  0  0  0  0  3  0  0  0  0  0  0
  -17.5970  -30.7330   24.1400 C   0  0  0  0  0  3  0  0  0  0  0  0
  -16.4760  -29.9890   23.7350 C   0  0  0  0  0  3  0  0  0  0  0  0
  -16.6520  -28.7320   23.1310 C   0  0  0  0  0  3  0  0  0  0  0  0
  -25.7700  -32.6060   23.8670 C   0  0  0  0  0  3  0  0  0  0  0  0
  -26.2680  -31.8580   25.1640 C   0  0  1  0  0  0  0  0  0  0  0  0
  -25.1590  -31.6290   26.2190 C   0  0  0  0  0  1  0  0  0  0  0  0
  -26.8500  -30.4740   24.7970 C   0  0  0  0  0  1  0  0  0  0  0  0
  -27.4110  -32.6640   25.8260 C   0  0  0  0  0  1  0  0  0  0  0  0
  -25.4710  -34.0120   24.1620 N   0  0  0  0  0  0  0  0  0  0  0  0
  -25.8600  -35.0490   23.4050 C   0  0  0  0  0  0  0  0  0  0  0  0
  -26.5750  -34.9220   22.4090 O   0  0  0  0  0  0  0  0  0  0  0  0
  -24.8400  -34.1910   24.9300 H   0  0  0  0  0  0  0  0  0  0  0  0
  -24.1990  -36.8650   22.9250 C   0  0  0  0  0  1  0  0  0  0  0  0
  -25.3730  -36.4480   23.8240 C   0  0  0  0  0  3  0  0  0  0  0  0
  -27.4560  -37.2950   24.8030 C   0  0  0  0  0  1  0  0  0  0  0  0
  -26.4310  -37.4800   23.7800 N   0  0  0  0  0  0  0  0  0  0  0  0
  -26.0350  -38.4100   23.8960 H   0  0  0  0  0  0  0  0  0  0  0  0
  1  2  2  0
  2  4  1  0
  2  5  1  0
  3  1  1  0
  3 54  1  0
  6  3  1  0
  8 11  2  0
  8 12  1  0
  9  1  1  0
  9  7  2  0
 10  7  1  0
 10 15  1  0
 11  9  1  0
 12 10  2  0
 13 11  1  0
 14 12  1  0
 16 24  1  0
 17 22  1  0
 18 19  1  0
 18 17  1  0
 20 19  1  0
 20 29  1  0
 20 21  1  0
 22 16  1  0
 22 21  1  0
 23 16  2  0
 24 15  1  0
 24 25  1  0
 26 27  2  0
 27 28  1  0
 27 46  1  0
 28 31  1  0
 29 26  1  0
 29 30  1  0
 30 28  2  0
 31 32  1  0
 32 33  2  0
 34 37  1  0
 34 33  1  0
 35 34  2  0
 36 35  1  0
 36 31  2  0
 37 38  1  0
 38 43  2  0
 38 39  1  0
 39 40  2  0
 41 40  1  0
 41 45  1  0
 42 41  2  0
 43 42  1  0
 44 43  1  0
 46 47  1  0
 47 50  1  0
 47 49  1  0
 48 46  2  0
 51 52  1  0
 51 26  1  0
 53 51  1  0
 55 56  1  0
 55 54  1  0
 57 68  2  0
 58 56  1  0
 58 63  1  0
 59 67  1  0
 59 69  1  0
 60 66  1  0
 60 62  1  0
 61 67  1  0
 62 63  2  0
 62 61  1  0
 64 65  1  0
 64 58  2  0
 65 60  2  0
 66 59  1  0
 67 57  1  0
 69 71  2  0
 70 69  1  0
 72 70  1  0
 73 82  2  0
 73 78  1  0
 74 70  1  0
 74 78  1  0
 75 74  1  0
 76 77  1  0
 76 75  1  0
 77 73  1  0
 78 79  2  0
 79 80  1  0
 81 80  2  0
 82 81  1  0
 83 57  1  0
 83 88  1  0
 83 84  1  0
 84 87  1  1
 84 85  1  0
 86 84  1  0
 88 91  1  0
 89 93  1  0
 89 88  1  0
 90 89  2  0
 93 92  1  0
 95 93  1  0
 95 96  1  0
 95 94  1  0
M  ISO  4  16 100  24 100  55 101  56 101
M  END
>  <TORSDO>  (11) 
F 20

>  <SCORE>  (11) 
-13.821

>  <name>  (11) 
10

>  <ligand_id>  (11) 
10

>  <original_smiles>  (11) 
[H]c1c([H])c([H])c2c(c1[H])C([H])([H])C([H])([H])C([H])([H])C2([H])N([H])C(=O)C1([H])N(C(=O)C([H])(N([H])C(=O)C([H])(N([H])C([H])([H])[H])C([H])([H])[H])C(C([H])([H])[H])(C([H])([H])[H])C([H])([H])[H])C([H])([H])c2c([H])c(OC([H])([H])C([H])([H])[N+]([H])=C(c3c([H])c(C([H])([H])N([H])C(=O)N4C([H])([H])C([H])([H])C([H])([H])C([H])(n5nc(-c6c([H])c([H])c(Oc7c([H])c([H])c(F)c([H])c7F)c([H])c6[H])c(C(=O)N([H])[H])c5N([H])[H])C4([H])[H])c(C([H])([H])[H])c([H])c3C([H])([H])[H])N([H])[H])c([H])c([H])c2C1([H])[H]

>  <smiles>  (11) 
[H]c1c([H])c([H])c2c(c1[H])C([H])([H])C([H])([H])C([H])([H])C2([H])N([H])C(=O)C1([H])N(C(=O)C([H])(N([H])C(=O)C([H])(N([H])C([H])([H])[H])C([H])([H])[H])C(C([H])([H])[H])(C([H])([H])[H])C([H])([H])[H])C([H])([H])c2c([H])c(OC([H])([H])C([H])([H])[N+]([H])=C(c3c([H])c(C([H])([H])N([H])C(=O)N4C([H])([H])C([H])([H])C([H])([H])C([H])(n5nc(-c6c([H])c([H])c(Oc7c([H])c([H])c(F)c([H])c7F)c([H])c6[H])c(C(=O)N([H])[H])c5N([H])[H])C4([H])[H])c(C([H])([H])[H])c([H])c3C([H])([H])[H])N([H])[H])c([H])c([H])c2C1([H])[H]

$$$$
11:0:0
     RDKit          3D

 96105  0  0  1  0  0  0  0  0999 V2000
  -29.6880  -20.8860   21.5020 C   0  0  0  0  0  3  0  0  0  0  0  0
  -29.4790  -19.3360   19.1800 C   0  0  0  0  0  0  0  0  0  0  0  0
  -28.9990  -20.6980   19.2020 C   0  0  0  0  0  0  0  0  0  0  0  0
  -30.1040  -18.7370   20.3200 C   0  0  0  0  0  0  0  0  0  0  0  0
  -29.1210  -21.5180   20.3680 C   0  0  0  0  0  0  0  0  0  0  0  0
  -30.1650  -19.5470   21.4900 C   0  0  0  0  0  0  0  0  0  0  0  0
  -29.3580  -18.5190   17.8950 C   0  0  0  0  0  1  0  0  0  0  0  0
  -28.3380  -21.2730   17.9540 C   0  0  0  0  0  1  0  0  0  0  0  0
  -30.8560  -18.9310   22.9510 Cl  0  0  0  0  0  0  0  0  0  0  0  0
  -29.1510  -24.1150   20.2240 C   0  0  0  0  0  0  0  0  0  0  0  0
  -30.2130  -24.2180   19.4080 C   0  0  0  0  0  2  0  0  0  0  0  0
  -26.4640  -24.0270   21.1830 C   0  0  0  0  0  2  0  0  0  0  0  0
  -27.3410  -25.1160   21.8080 C   0  0  0  0  0  2  0  0  0  0  0  0
  -27.2380  -22.7070   21.1360 C   0  0  0  0  0  2  0  0  0  0  0  0
  -28.5900  -25.4140   20.9370 C   0  0  0  0  0  3  0  0  0  0  0  0
  -28.5530  -22.8390   20.4970 N   0  0  0  0  0  0  0  0  0  0  0  0
  -28.6150  -26.6880   20.1650 O   0  0  0  0  0  0  0  0  0  0  0  0
  -24.6680  -31.8790   23.2610 C   0  0  0  0  0  0  0  0  0  0  0  0
  -27.4870  -27.5150   20.1400 C   0  0  0  0  0  0  0  0  0  0  0  0
  -23.5440  -30.4860   21.5580 C   0  0  0  0  0  3  0  0  0  0  0  0
  -25.0740  -29.0310   20.1160 C   0  0  0  0  0  0  0  0  0  0  0  0
  -26.0710  -30.9020   21.4320 C   0  0  0  0  0  2  0  0  0  0  0  0
  -26.2100  -29.5460   20.7530 C   0  0  0  0  0  0  0  0  0  0  0  0
  -27.4240  -28.7970   20.7600 C   0  0  0  0  0  3  0  0  0  0  0  0
  -26.3420  -27.0570   19.4580 C   0  0  0  0  0  3  0  0  0  0  0  0
  -25.1400  -27.7910   19.4590 C   0  0  0  0  0  3  0  0  0  0  0  0
  -23.8050  -29.8570   20.1640 C   0  0  0  0  0  2  0  0  0  0  0  0
  -24.7780  -31.1060   22.1410 N   0  0  0  0  0  0  0  0  0  0  0  0
  -23.5670  -32.1030   23.7820 O   0  0  0  0  0  0  0  0  0  0  0  0
  -22.9010  -29.4210   22.4770 C   0  0  0  0  0  0  0  0  0  0  0  0
  -21.5870  -29.1940   22.3110 N   0  0  0  0  0  0  0  0  0  0  0  0
  -23.5840  -28.8040   23.2980 O   0  0  0  0  0  0  0  0  0  0  0  0
  -21.0950  -29.7450   21.6200 H   0  0  0  0  0  0  0  0  0  0  0  0
  -18.2480  -27.8550   22.6910 C   0  0  0  0  0  0  0  0  0  0  0  0
  -20.7860  -28.2080   23.0370 C   0  0  0  0  0  3  0  0  0  0  0  0
  -20.9610  -26.7960   22.4310 C   0  0  0  0  0  2  0  0  0  0  0  0
  -19.9000  -26.4540   21.3810 C   0  0  0  0  0  2  0  0  0  0  0  0
  -18.4970  -26.5300   21.9900 C   0  0  0  0  0  2  0  0  0  0  0  0
  -19.3250  -28.6500   23.1680 C   0  0  0  0  0  0  0  0  0  0  0  0
  -19.0390  -29.8890   23.7820 C   0  0  0  0  0  3  0  0  0  0  0  0
  -17.7130  -30.3360   23.9230 C   0  0  0  0  0  3  0  0  0  0  0  0
  -16.6510  -29.5370   23.4620 C   0  0  0  0  0  3  0  0  0  0  0  0
  -16.9190  -28.2990   22.8520 C   0  0  0  0  0  3  0  0  0  0  0  0
  -25.9180  -32.5350   23.9240 C   0  0  0  0  0  3  0  0  0  0  0  0
  -25.5780  -33.9350   24.2210 N   0  0  0  0  0  0  0  0  0  0  0  0
  -25.9200  -34.9800   23.4560 C   0  0  0  0  0  0  0  0  0  0  0  0
  -26.6260  -34.8700   22.4480 O   0  0  0  0  0  0  0  0  0  0  0  0
  -24.9530  -34.0920   24.9980 H   0  0  0  0  0  0  0  0  0  0  0  0
  -24.1810  -36.7450   23.0180 C   0  0  0  0  0  1  0  0  0  0  0  0
  -25.4000  -36.3680   23.8750 C   0  0  0  0  0  3  0  0  0  0  0  0
  -27.4850  -37.3050   24.7740 C   0  0  0  0  0  1  0  0  0  0  0  0
  -26.4220  -37.4330   23.7810 N   0  0  0  0  0  0  0  0  0  0  0  0
  -25.9970  -38.3500   23.8880 H   0  0  0  0  0  0  0  0  0  0  0  0
  -26.3910  -31.7890   25.2320 C   0  0  1  0  0  0  0  0  0  0  0  0
  -25.2560  -31.5380   26.2520 C   0  0  0  0  0  1  0  0  0  0  0  0
  -27.0210  -30.4200   24.8840 C   0  0  0  0  0  1  0  0  0  0  0  0
  -27.4930  -32.6160   25.9370 C   0  0  0  0  0  1  0  0  0  0  0  0
  -30.8990  -17.3720   20.2390 C   0  0  0  0  0  2  0  0  0  0  0  0
  -30.9530  -14.8560   20.0010 C   0  0  0  0  0  0  0  0  0  0  0  0
  -30.6310  -12.6260   18.9660 C   0  0  0  0  0  2  0  0  0  0  0  0
  -29.6330  -12.7450   17.7950 C   0  0  0  0  0  2  0  0  0  0  0  0
  -28.1890  -12.5850   18.3020 C   0  0  0  0  0  2  0  0  0  0  0  0
  -27.8890  -13.4570   19.5510 C   0  0  0  0  0  3  0  0  0  0  0  0
  -29.0050  -13.3450   20.6130 C   0  0  0  0  0  2  0  0  0  0  0  0
  -30.2750  -13.6660   19.9530 N   0  0  0  0  0  0  0  0  0  0  0  0
  -32.1130  -14.9320   19.5920 O   0  0  0  0  0  0  0  0  0  0  0  0
  -30.2690  -16.0050   20.3080 N   0  0  0  0  0  0  0  0  0  0  0  0
  -29.3030  -15.9350   20.5880 H   0  0  0  0  0  0  0  0  0  0  0  0
  -25.5470  -14.0370   20.4240 C   0  0  0  0  0  0  0  0  0  0  0  0
  -24.4990  -13.2570   20.8320 C   0  0  0  0  0  0  0  0  0  0  0  0
  -24.9530  -11.9060   20.7380 C   0  0  0  0  0  0  0  0  0  0  0  0
  -26.5720  -13.1620   20.1080 N   0  0  0  0  0  0  0  0  0  0  0  0
  -26.2250  -11.8720   20.3580 N   0  0  0  0  0  0  0  0  0  0  0  0
  -24.2330  -10.6400   20.9320 C   0  0  0  0  0  0  0  0  0  0  0  0
  -24.6550   -9.6870   21.8860 C   0  0  0  0  0  3  0  0  0  0  0  0
  -23.9320   -8.4880   22.0670 C   0  0  0  0  0  3  0  0  0  0  0  0
  -22.7750   -8.2320   21.2940 C   0  0  0  0  0  0  0  0  0  0  0  0
  -22.3720   -9.1740   20.3310 C   0  0  0  0  0  3  0  0  0  0  0  0
  -23.0940  -10.3650   20.1480 C   0  0  0  0  0  3  0  0  0  0  0  0
  -22.0260   -7.0840   21.3850 O   0  0  0  0  0  0  0  0  0  0  0  0
  -21.9010   -6.3970   22.5650 C   0  0  0  0  0  0  0  0  0  0  0  0
  -21.3130   -6.9800   23.7080 C   0  0  0  0  0  3  0  0  0  0  0  0
  -21.1420   -6.2150   24.8810 C   0  0  0  0  0  3  0  0  0  0  0  0
  -21.5480   -4.8670   24.9080 C   0  0  0  0  0  0  0  0  0  0  0  0
  -22.1290   -4.2840   23.7690 C   0  0  0  0  0  3  0  0  0  0  0  0
  -22.3020   -5.0450   22.6000 C   0  0  0  0  0  0  0  0  0  0  0  0
  -22.8430   -4.4720   21.4980 F   0  0  0  0  0  0  0  0  0  0  0  0
  -21.3770   -4.1310   26.0300 F   0  0  0  0  0  0  0  0  0  0  0  0
  -23.1210  -13.7310   21.1940 C   0  0  0  0  0  0  0  0  0  0  0  0
  -22.4380  -13.0100   22.0750 N   0  0  0  0  0  0  0  0  0  0  0  0
  -22.6620  -14.7730   20.7300 O   0  0  0  0  0  0  0  0  0  0  0  0
  -22.8240  -12.1640   22.4710 H   0  0  0  0  0  0  0  0  0  0  0  0
  -21.5160  -13.3080   22.3610 H   0  0  0  0  0  0  0  0  0  0  0  0
  -25.7060  -15.4110   20.2760 N   0  0  0  0  0  0  0  0  0  0  0  0
  -24.9500  -16.0650   20.4460 H   0  0  0  0  0  0  0  0  0  0  0  0
  -26.5330  -15.8560   19.8960 H   0  0  0  0  0  0  0  0  0  0  0  0
  2  3  2  0
  2  4  1  0
  3  5  1  0
  4  6  2  0
  5 16  1  0
  5  1  2  0
  6  1  1  0
  6  9  1  0
  7  2  1  0
  8  3  1  0
 10 16  1  0
 10 15  1  0
 11 10  2  0
 12 13  1  0
 14 12  1  0
 15 17  1  0
 15 13  1  0
 16 14  1  0
 18 29  2  0
 19 17  1  0
 19 24  1  0
 20 28  1  0
 20 30  1  0
 21 27  1  0
 21 23  1  0
 22 28  1  0
 23 24  2  0
 23 22  1  0
 25 26  1  0
 25 19  2  0
 26 21  2  0
 27 20  1  0
 28 18  1  0
 30 32  2  0
 31 30  1  0
 33 31  1  0
 34 43  2  0
 34 39  1  0
 35 31  1  0
 35 39  1  0
 36 35  1  0
 37 38  1  0
 37 36  1  0
 38 34  1  0
 39 40  2  0
 40 41  1  0
 42 41  2  0
 43 42  1  0
 44 18  1  0
 44 45  1  0
 44 54  1  0
 45 48  1  0
 46 50  1  0
 46 45  1  0
 47 46  2  0
 50 49  1  0
 52 50  1  0
 52 53  1  0
 52 51  1  0
 54 57  1  1
 54 55  1  0
 56 54  1  0
 58 67  1  0
 58  4  1  0
 59 67  1  0
 60 65  1  0
 61 62  1  0
 61 60  1  0
 63 62  1  0
 63 72  1  0
 63 64  1  0
 65 59  1  0
 65 64  1  0
 66 59  2  0
 67 68  1  0
 69 70  2  0
 70 89  1  0
 71 70  1  0
 71 74  1  0
 72 73  1  0
 72 69  1  0
 73 71  2  0
 74 75  1  0
 75 76  2  0
 77 80  1  0
 77 76  1  0
 78 77  2  0
 79 78  1  0
 79 74  2  0
 80 81  1  0
 81 86  2  0
 81 82  1  0
 82 83  2  0
 83 84  1  0
 84 88  1  0
 85 84  2  0
 86 85  1  0
 87 86  1  0
 89 90  1  0
 90 93  1  0
 90 92  1  0
 91 89  2  0
 94 69  1  0
 94 95  1  0
 96 94  1  0
M  ISO  4  15 101  17 101  59 100  67 100
M  END
>  <TORSDO>  (12) 
F 18

>  <SCORE>  (12) 
-14.466

>  <name>  (12) 
11

>  <ligand_id>  (12) 
11

>  <original_smiles>  (12) 
[H]C([H])=C1N(c2c([H])c(Cl)c(C([H])([H])N([H])C(=O)N3C([H])([H])C([H])([H])C([H])([H])C([H])(n4nc(-c5c([H])c([H])c(Oc6c([H])c([H])c(F)c([H])c6F)c([H])c5[H])c(C(=O)N([H])[H])c4N([H])[H])C3([H])[H])c(C([H])([H])[H])c2C([H])([H])[H])C([H])([H])C([H])([H])C([H])([H])C1([H])Oc1c([H])c([H])c2c(c1[H])C([H])([H])N(C(=O)C([H])(N([H])C(=O)C([H])(N([H])C([H])([H])[H])C([H])([H])[H])C(C([H])([H])[H])(C([H])([H])[H])C([H])([H])[H])C([H])(C(=O)N([H])C1([H])c3c([H])c([H])c([H])c([H])c3C([H])([H])C([H])([H])C1([H])[H])C2([H])[H]

>  <smiles>  (12) 
[H]C([H])=C1N(c2c([H])c(Cl)c(C([H])([H])N([H])C(=O)N3C([H])([H])C([H])([H])C([H])([H])C([H])(n4nc(-c5c([H])c([H])c(Oc6c([H])c([H])c(F)c([H])c6F)c([H])c5[H])c(C(=O)N([H])[H])c4N([H])[H])C3([H])[H])c(C([H])([H])[H])c2C([H])([H])[H])C([H])([H])C([H])([H])C([H])([H])C1([H])Oc1c([H])c([H])c2c(c1[H])C([H])([H])N(C(=O)C([H])(N([H])C(=O)C([H])(N([H])C([H])([H])[H])C([H])([H])[H])C(C([H])([H])[H])(C([H])([H])[H])C([H])([H])[H])C([H])(C(=O)N([H])C1([H])c3c([H])c([H])c([H])c([H])c3C([H])([H])C([H])([H])C1([H])[H])C2([H])[H]

$$$$
12:0:0
     RDKit          3D

 98106  0  0  1  0  0  0  0  0999 V2000
  -27.4950  -22.5580   21.1610 C   0  0  0  0  0  0  0  0  0  0  0  0
  -27.0830  -22.4740   22.4280 N   0  0  0  0  0  4  0  0  0  0  0  0
  -27.7450  -23.7410   20.5810 N   0  0  0  0  0  0  0  0  0  0  0  0
  -27.7090  -21.4650   20.4240 N   0  0  0  0  0  0  0  0  0  0  0  0
  -26.9040  -21.5860   22.8750 H   0  0  0  0  0  0  0  0  0  0  0  0
  -26.9130  -23.2990   22.9820 H   0  0  0  0  0  0  0  0  0  0  0  0
  -27.9720  -23.7380   19.5980 H   0  0  0  0  0  0  0  0  0  0  0  0
  -28.0800  -21.5960   19.4950 H   0  0  0  0  0  0  0  0  0  0  0  0
  -27.6220  -20.0390   20.7690 C   0  0  0  0  0  2  0  0  0  0  0  0
  -30.4190  -18.0690   18.0930 C   0  0  0  0  0  3  0  0  0  0  0  0
  -29.2330  -18.6320   17.5850 C   0  0  0  0  0  3  0  0  0  0  0  0
  -29.7350  -18.7040   20.3420 C   0  0  0  0  0  3  0  0  0  0  0  0
  -30.6570  -18.0730   19.4810 C   0  0  0  0  0  0  0  0  0  0  0  0
  -28.2760  -19.1980   18.4490 C   0  0  0  0  0  0  0  0  0  0  0  0
  -28.5440  -19.2740   19.8360 C   0  0  0  0  0  0  0  0  0  0  0  0
  -26.9630  -19.6940   17.8670 C   0  0  0  0  0  1  0  0  0  0  0  0
  -31.8760  -17.3590   20.0440 C   0  0  0  0  0  2  0  0  0  0  0  0
  -32.2160  -14.9110   20.2150 C   0  0  0  0  0  0  0  0  0  0  0  0
  -31.7660  -12.7020   19.2570 C   0  0  0  0  0  2  0  0  0  0  0  0
  -30.8730  -12.9080   18.0120 C   0  0  0  0  0  2  0  0  0  0  0  0
  -29.3790  -12.9780   18.3900 C   0  0  0  0  0  2  0  0  0  0  0  0
  -29.1010  -13.9420   19.5710 C   0  0  0  0  0  3  0  0  0  0  0  0
  -30.0930  -13.6740   20.7280 C   0  0  0  0  0  2  0  0  0  0  0  0
  -31.4620  -13.7840   20.1960 N   0  0  0  0  0  0  0  0  0  0  0  0
  -33.3870  -14.9700   19.8260 O   0  0  0  0  0  0  0  0  0  0  0  0
  -31.5060  -16.0140   20.4490 N   0  0  0  0  0  0  0  0  0  0  0  0
  -30.5370  -15.8790   20.6990 H   0  0  0  0  0  0  0  0  0  0  0  0
  -26.7930  -14.8690   20.2430 C   0  0  0  0  0  0  0  0  0  0  0  0
  -25.6170  -14.2500   20.5640 C   0  0  0  0  0  0  0  0  0  0  0  0
  -25.8850  -12.8480   20.5070 C   0  0  0  0  0  0  0  0  0  0  0  0
  -27.7120  -13.8570   20.0150 N   0  0  0  0  0  0  0  0  0  0  0  0
  -27.1670  -12.6330   20.2340 N   0  0  0  0  0  0  0  0  0  0  0  0
  -24.9890  -11.6950   20.6450 C   0  0  0  0  0  0  0  0  0  0  0  0
  -25.2820  -10.6350   21.5310 C   0  0  0  0  0  3  0  0  0  0  0  0
  -24.3940   -9.5470   21.6600 C   0  0  0  0  0  3  0  0  0  0  0  0
  -23.2040   -9.5080   20.8980 C   0  0  0  0  0  0  0  0  0  0  0  0
  -22.9280  -10.5550   20.0000 C   0  0  0  0  0  3  0  0  0  0  0  0
  -23.8150  -11.6360   19.8680 C   0  0  0  0  0  3  0  0  0  0  0  0
  -22.2960   -8.4790   20.9400 O   0  0  0  0  0  0  0  0  0  0  0  0
  -22.0780   -7.7550   22.0840 C   0  0  0  0  0  0  0  0  0  0  0  0
  -21.6920   -8.3740   23.2930 C   0  0  0  0  0  3  0  0  0  0  0  0
  -21.4110   -7.5860   24.4290 C   0  0  0  0  0  3  0  0  0  0  0  0
  -21.5070   -6.1840   24.3540 C   0  0  0  0  0  0  0  0  0  0  0  0
  -21.8870   -5.5670   23.1500 C   0  0  0  0  0  3  0  0  0  0  0  0
  -22.1670   -6.3510   22.0170 C   0  0  0  0  0  0  0  0  0  0  0  0
  -22.5120   -5.7500   20.8530 F   0  0  0  0  0  0  0  0  0  0  0  0
  -21.2300   -5.4250   25.4420 F   0  0  0  0  0  0  0  0  0  0  0  0
  -24.2910  -14.9120   20.8150 C   0  0  0  0  0  0  0  0  0  0  0  0
  -23.4610  -14.3170   21.6640 N   0  0  0  0  0  0  0  0  0  0  0  0
  -24.0020  -15.9900   20.2970 O   0  0  0  0  0  0  0  0  0  0  0  0
  -23.7020  -13.4410   22.1070 H   0  0  0  0  0  0  0  0  0  0  0  0
  -22.5670  -14.7380   21.8780 H   0  0  0  0  0  0  0  0  0  0  0  0
  -27.1480  -16.2040   20.1150 N   0  0  0  0  0  0  0  0  0  0  0  0
  -26.4880  -16.9530   20.2840 H   0  0  0  0  0  0  0  0  0  0  0  0
  -28.0710  -16.5460   19.8750 H   0  0  0  0  0  0  0  0  0  0  0  0
  -27.7280  -25.0990   21.1520 C   0  0  0  0  0  2  0  0  0  0  0  0
  -28.9800  -25.9090   20.6730 C   0  0  0  0  0  2  0  0  0  0  0  0
  -28.8650  -27.1240   19.9040 O   0  0  0  0  0  0  0  0  0  0  0  0
  -24.8120  -31.7440   23.4340 C   0  0  0  0  0  0  0  0  0  0  0  0
  -27.6800  -27.8050   19.9560 C   0  0  0  0  0  0  0  0  0  0  0  0
  -23.6810  -30.4520   21.6470 C   0  0  0  0  0  3  0  0  0  0  0  0
  -25.2180  -29.1600   20.0820 C   0  0  0  0  0  0  0  0  0  0  0  0
  -26.1780  -30.9790   21.5000 C   0  0  0  0  0  2  0  0  0  0  0  0
  -26.3410  -29.6890   20.7290 C   0  0  0  0  0  0  0  0  0  0  0  0
  -27.5800  -29.0160   20.6710 C   0  0  0  0  0  3  0  0  0  0  0  0
  -26.5600  -27.3080   19.2600 C   0  0  0  0  0  3  0  0  0  0  0  0
  -25.3200  -27.9670   19.3460 C   0  0  0  0  0  3  0  0  0  0  0  0
  -23.9230  -29.9300   20.2070 C   0  0  0  0  0  2  0  0  0  0  0  0
  -24.9080  -31.0640   22.2540 N   0  0  0  0  0  0  0  0  0  0  0  0
  -23.7180  -31.9020   23.9950 O   0  0  0  0  0  0  0  0  0  0  0  0
  -23.0860  -29.3050   22.4960 C   0  0  0  0  0  0  0  0  0  0  0  0
  -21.7900  -29.0130   22.2840 N   0  0  0  0  0  0  0  0  0  0  0  0
  -23.7860  -28.6790   23.2920 O   0  0  0  0  0  0  0  0  0  0  0  0
  -21.2870  -29.5580   21.6000 H   0  0  0  0  0  0  0  0  0  0  0  0
  -18.5260  -27.4990   22.5180 C   0  0  0  0  0  0  0  0  0  0  0  0
  -21.0370  -27.9490   22.9440 C   0  0  0  0  0  3  0  0  0  0  0  0
  -21.2970  -26.5810   22.2690 C   0  0  0  0  0  2  0  0  0  0  0  0
  -20.2730  -26.2600   21.1750 C   0  0  0  0  0  2  0  0  0  0  0  0
  -18.8560  -26.2210   21.7590 C   0  0  0  0  0  2  0  0  0  0  0  0
  -19.5580  -28.3130   23.0640 C   0  0  0  0  0  0  0  0  0  0  0  0
  -19.2080  -29.5080   23.7290 C   0  0  0  0  0  3  0  0  0  0  0  0
  -17.8580  -29.8910   23.8410 C   0  0  0  0  0  3  0  0  0  0  0  0
  -16.8400  -29.0800   23.3040 C   0  0  0  0  0  3  0  0  0  0  0  0
  -17.1750  -27.8790   22.6560 C   0  0  0  0  0  3  0  0  0  0  0  0
  -26.0660  -32.3730   24.1230 C   0  0  0  0  0  3  0  0  0  0  0  0
  -25.7190  -33.7520   24.4890 N   0  0  0  0  0  0  0  0  0  0  0  0
  -26.0690  -34.8360   23.7820 C   0  0  0  0  0  0  0  0  0  0  0  0
  -26.7870  -34.7780   22.7790 O   0  0  0  0  0  0  0  0  0  0  0  0
  -25.0880  -33.8720   25.2680 H   0  0  0  0  0  0  0  0  0  0  0  0
  -24.3340  -36.6140   23.4040 C   0  0  0  0  0  1  0  0  0  0  0  0
  -25.5400  -36.2010   24.2630 C   0  0  0  0  0  3  0  0  0  0  0  0
  -27.6270  -37.0730   25.2170 C   0  0  0  0  0  1  0  0  0  0  0  0
  -26.5600  -37.2720   24.2380 N   0  0  0  0  0  0  0  0  0  0  0  0
  -26.1360  -38.1800   24.4080 H   0  0  0  0  0  0  0  0  0  0  0  0
  -26.5540  -31.5650   25.3900 C   0  0  1  0  0  0  0  0  0  0  0  0
  -25.4150  -31.1870   26.3650 C   0  0  0  0  0  1  0  0  0  0  0  0
  -27.2600  -30.2580   24.9650 C   0  0  0  0  0  1  0  0  0  0  0  0
  -27.5970  -32.3970   26.1750 C   0  0  0  0  0  1  0  0  0  0  0  0
  1  2  2  0
  2  5  1  0
  2  6  1  0
  3 56  1  0
  3  1  1  0
  4  9  1  0
  4  1  1  0
  7  3  1  0
  8  4  1  0
 10 13  1  0
 11 10  2  0
 11 14  1  0
 13 17  1  0
 13 12  2  0
 14 15  2  0
 15 12  1  0
 15  9  1  0
 16 14  1  0
 17 26  1  0
 18 26  1  0
 19 24  1  0
 20 21  1  0
 20 19  1  0
 22 21  1  0
 22 31  1  0
 22 23  1  0
 24 18  1  0
 24 23  1  0
 25 18  2  0
 26 27  1  0
 28 29  2  0
 29 48  1  0
 30 29  1  0
 30 33  1  0
 31 32  1  0
 31 28  1  0
 32 30  2  0
 33 34  1  0
 34 35  2  0
 36 39  1  0
 36 35  1  0
 37 36  2  0
 38 37  1  0
 38 33  2  0
 39 40  1  0
 40 41  1  0
 41 42  2  0
 43 42  1  0
 43 47  1  0
 44 43  2  0
 45 40  2  0
 45 44  1  0
 46 45  1  0
 48 49  1  0
 49 52  1  0
 49 51  1  0
 50 48  2  0
 53 28  1  0
 53 54  1  0
 55 53  1  0
 57 56  1  0
 58 60  1  0
 58 57  1  0
 59 70  2  0
 60 65  1  0
 61 69  1  0
 61 71  1  0
 62 68  1  0
 62 64  1  0
 63 69  1  0
 64 63  1  0
 65 64  2  0
 66 67  1  0
 66 60  2  0
 67 62  2  0
 68 61  1  0
 69 59  1  0
 71 73  2  0
 72 71  1  0
 74 72  1  0
 75 84  2  0
 75 80  1  0
 76 72  1  0
 76 80  1  0
 77 76  1  0
 78 79  1  0
 78 77  1  0
 79 75  1  0
 80 81  2  0
 81 82  1  0
 83 82  2  0
 84 83  1  0
 85 59  1  0
 85 86  1  0
 85 95  1  0
 86 89  1  0
 87 91  1  0
 87 86  1  0
 88 87  2  0
 91 90  1  0
 93 91  1  0
 93 94  1  0
 93 92  1  0
 95 98  1  1
 95 96  1  0
 97 95  1  0
M  ISO  4  18 100  26 100  57 101  58 101
M  END
>  <TORSDO>  (13) 
F 21

>  <SCORE>  (13) 
-9.995

>  <name>  (13) 
12

>  <ligand_id>  (13) 
12

>  <original_smiles>  (13) 
[H]c1c([H])c([H])c2c(c1[H])C([H])([H])C([H])([H])C([H])([H])C2([H])N([H])C(=O)C1([H])N(C(=O)C([H])(N([H])C(=O)C([H])(N([H])C([H])([H])[H])C([H])([H])[H])C(C([H])([H])[H])(C([H])([H])[H])C([H])([H])[H])C([H])([H])c2c([H])c(OC([H])([H])C([H])([H])N([H])C(N([H])[H])=[N+]([H])C([H])([H])c3c([H])c(C([H])([H])N([H])C(=O)N4C([H])([H])C([H])([H])C([H])([H])C([H])(n5nc(-c6c([H])c([H])c(Oc7c([H])c([H])c(F)c([H])c7F)c([H])c6[H])c(C(=O)N([H])[H])c5N([H])[H])C4([H])[H])c([H])c([H])c3C([H])([H])[H])c([H])c([H])c2C1([H])[H]

>  <smiles>  (13) 
[H]c1c([H])c([H])c2c(c1[H])C([H])([H])C([H])([H])C([H])([H])C2([H])N([H])C(=O)C1([H])N(C(=O)C([H])(N([H])C(=O)C([H])(N([H])C([H])([H])[H])C([H])([H])[H])C(C([H])([H])[H])(C([H])([H])[H])C([H])([H])[H])C([H])([H])c2c([H])c(OC([H])([H])C([H])([H])N([H])C(N([H])[H])=[N+]([H])C([H])([H])c3c([H])c(C([H])([H])N([H])C(=O)N4C([H])([H])C([H])([H])C([H])([H])C([H])(n5nc(-c6c([H])c([H])c(Oc7c([H])c([H])c(F)c([H])c7F)c([H])c6[H])c(C(=O)N([H])[H])c5N([H])[H])C4([H])[H])c([H])c([H])c3C([H])([H])[H])c([H])c([H])c2C1([H])[H]

$$$$
13:0:0
     RDKit          3D

100109  0  0  1  0  0  0  0  0999 V2000
  -28.8770  -22.2020   18.4360 C   0  0  0  0  0  0  0  0  0  0  0  0
  -27.5650  -22.0870   18.1360 C   0  0  0  0  0  3  0  0  0  0  0  0
  -30.0170  -21.8620   17.4820 C   0  0  0  0  0  2  0  0  0  0  0  0
  -30.4760  -23.0260   16.5750 C   0  0  0  0  0  2  0  0  0  0  0  0
  -31.0980  -24.2330   17.3150 C   0  0  0  0  0  2  0  0  0  0  0  0
  -30.2050  -25.4920   17.4050 C   0  0  0  0  0  2  0  0  0  0  0  0
  -28.7390  -25.2920   17.8460 C   0  0  0  0  0  2  0  0  0  0  0  0
  -29.3420  -24.1020   20.1760 C   0  0  0  0  0  2  0  0  0  0  0  0
  -28.4570  -25.1550   19.3650 C   0  0  0  0  0  3  0  0  0  0  0  0
  -26.3660  -22.4250   19.0040 C   0  0  0  0  0  1  0  0  0  0  0  0
  -29.4520  -22.6270   19.7480 N   0  0  1  0  0  4  0  0  0  0  0  0
  -30.4410  -22.5880   19.5680 H   0  0  0  0  0  0  0  0  0  0  0  0
  -28.4590  -26.5420   19.8870 O   0  0  0  0  0  0  0  0  0  0  0  0
  -24.6230  -31.7350   23.0870 C   0  0  0  0  0  0  0  0  0  0  0  0
  -27.2940  -27.3310   19.8630 C   0  0  0  0  0  0  0  0  0  0  0  0
  -23.4240  -30.3550   21.4280 C   0  0  0  0  0  3  0  0  0  0  0  0
  -24.8860  -28.8790   19.9440 C   0  0  0  0  0  0  0  0  0  0  0  0
  -25.9530  -30.7340   21.2180 C   0  0  0  0  0  2  0  0  0  0  0  0
  -26.0500  -29.3740   20.5420 C   0  0  0  0  0  0  0  0  0  0  0  0
  -27.2520  -28.6080   20.5020 C   0  0  0  0  0  3  0  0  0  0  0  0
  -26.1020  -26.8960   19.2320 C   0  0  0  0  0  3  0  0  0  0  0  0
  -24.9130  -27.6430   19.2830 C   0  0  0  0  0  3  0  0  0  0  0  0
  -23.6300  -29.7190   20.0290 C   0  0  0  0  0  2  0  0  0  0  0  0
  -24.6860  -30.9570   21.9690 N   0  0  0  0  0  0  0  0  0  0  0  0
  -23.5410  -31.9780   23.6420 O   0  0  0  0  0  0  0  0  0  0  0  0
  -22.7960  -29.2990   22.3690 C   0  0  0  0  0  0  0  0  0  0  0  0
  -21.4760  -29.0880   22.2440 N   0  0  0  0  0  0  0  0  0  0  0  0
  -23.4960  -28.6740   23.1700 O   0  0  0  0  0  0  0  0  0  0  0  0
  -20.9690  -29.6520   21.5750 H   0  0  0  0  0  0  0  0  0  0  0  0
  -18.1340  -27.7910   22.7260 C   0  0  0  0  0  0  0  0  0  0  0  0
  -20.6850  -28.1130   22.9970 C   0  0  0  0  0  3  0  0  0  0  0  0
  -20.8240  -26.6960   22.3920 C   0  0  0  0  0  2  0  0  0  0  0  0
  -19.7280  -26.3650   21.3740 C   0  0  0  0  0  2  0  0  0  0  0  0
  -18.3440  -26.4610   22.0210 C   0  0  0  0  0  2  0  0  0  0  0  0
  -19.2330  -28.5740   23.1680 C   0  0  0  0  0  0  0  0  0  0  0  0
  -18.9820  -29.8200   23.7850 C   0  0  0  0  0  3  0  0  0  0  0  0
  -17.6650  -30.2810   23.9630 C   0  0  0  0  0  3  0  0  0  0  0  0
  -16.5800  -29.4960   23.5380 C   0  0  0  0  0  3  0  0  0  0  0  0
  -16.8160  -28.2520   22.9250 C   0  0  0  0  0  3  0  0  0  0  0  0
  -25.9010  -32.3770   23.7090 C   0  0  0  0  0  3  0  0  0  0  0  0
  -25.5670  -33.7580   24.0880 N   0  0  0  0  0  0  0  0  0  0  0  0
  -25.8590  -34.8390   23.3520 C   0  0  0  0  0  0  0  0  0  0  0  0
  -26.5070  -34.7810   22.3050 O   0  0  0  0  0  0  0  0  0  0  0  0
  -24.9910  -33.8770   24.9080 H   0  0  0  0  0  0  0  0  0  0  0  0
  -24.0760  -36.5940   23.0980 C   0  0  0  0  0  1  0  0  0  0  0  0
  -25.3500  -36.2010   23.8610 C   0  0  0  0  0  3  0  0  0  0  0  0
  -27.4820  -37.1210   24.6620 C   0  0  0  0  0  1  0  0  0  0  0  0
  -26.3520  -37.2820   23.7500 N   0  0  0  0  0  0  0  0  0  0  0  0
  -25.9270  -38.1880   23.9310 H   0  0  0  0  0  0  0  0  0  0  0  0
  -26.4540  -31.5770   24.9530 C   0  0  1  0  0  0  0  0  0  0  0  0
  -25.3810  -31.2800   26.0260 C   0  0  0  0  0  1  0  0  0  0  0  0
  -27.0630  -30.2280   24.5070 C   0  0  0  0  0  1  0  0  0  0  0  0
  -27.5960  -32.3780   25.6250 C   0  0  0  0  0  1  0  0  0  0  0  0
  -29.3880  -21.6060   20.8720 C   0  0  0  0  0  2  0  0  0  0  0  0
  -28.7840  -17.7410   20.3760 C   0  0  0  0  0  3  0  0  0  0  0  0
  -31.1270  -18.0130   20.7970 C   0  0  0  0  0  3  0  0  0  0  0  0
  -28.5910  -19.1490   20.3950 C   0  0  0  0  0  0  0  0  0  0  0  0
  -30.9520  -19.4370   20.8380 C   0  0  0  0  0  0  0  0  0  0  0  0
  -29.6710  -20.0570   20.6380 C   0  0  0  0  0  0  0  0  0  0  0  0
  -30.0380  -17.1280   20.5850 C   0  0  0  0  0  0  0  0  0  0  0  0
  -27.1640  -19.6340   20.1980 C   0  0  0  0  0  1  0  0  0  0  0  0
  -32.1890  -20.2580   21.1700 C   0  0  0  0  0  1  0  0  0  0  0  0
  -30.8660  -14.6910   20.1270 C   0  0  0  0  0  0  0  0  0  0  0  0
  -30.6220  -12.5020   18.9710 C   0  0  0  0  0  2  0  0  0  0  0  0
  -29.6240  -12.6850   17.8030 C   0  0  0  0  0  2  0  0  0  0  0  0
  -28.1660  -12.5250   18.2820 C   0  0  0  0  0  2  0  0  0  0  0  0
  -27.8680  -13.3450   19.5670 C   0  0  0  0  0  3  0  0  0  0  0  0
  -28.9650  -13.1070   20.6310 C   0  0  0  0  0  2  0  0  0  0  0  0
  -30.2610  -13.4670   20.0260 N   0  0  0  0  0  0  0  0  0  0  0  0
  -31.9960  -14.9010   19.6740 O   0  0  0  0  0  0  0  0  0  0  0  0
  -30.0570  -15.6700   20.6280 N   0  0  0  0  0  0  0  0  0  0  0  0
  -29.1910  -15.2730   20.9600 H   0  0  0  0  0  0  0  0  0  0  0  0
  -25.5040  -13.9590   20.3750 C   0  0  0  0  0  0  0  0  0  0  0  0
  -24.4440  -13.1900   20.7720 C   0  0  0  0  0  0  0  0  0  0  0  0
  -24.8910  -11.8350   20.7010 C   0  0  0  0  0  0  0  0  0  0  0  0
  -26.5310  -13.0720   20.0910 N   0  0  0  0  0  0  0  0  0  0  0  0
  -26.1690  -11.7890   20.3450 N   0  0  0  0  0  0  0  0  0  0  0  0
  -24.1600  -10.5770   20.8960 C   0  0  0  0  0  0  0  0  0  0  0  0
  -24.5880   -9.6110   21.8330 C   0  0  0  0  0  3  0  0  0  0  0  0
  -23.8580   -8.4170   22.0150 C   0  0  0  0  0  3  0  0  0  0  0  0
  -22.6850   -8.1800   21.2600 C   0  0  0  0  0  0  0  0  0  0  0  0
  -22.2770   -9.1340   20.3110 C   0  0  0  0  0  3  0  0  0  0  0  0
  -23.0080  -10.3200   20.1270 C   0  0  0  0  0  3  0  0  0  0  0  0
  -21.9270   -7.0380   21.3510 O   0  0  0  0  0  0  0  0  0  0  0  0
  -21.8250   -6.3330   22.5240 C   0  0  0  0  0  0  0  0  0  0  0  0
  -21.3340   -6.9250   23.7080 C   0  0  0  0  0  3  0  0  0  0  0  0
  -21.1810   -6.1470   24.8730 C   0  0  0  0  0  3  0  0  0  0  0  0
  -21.5080   -4.7770   24.8540 C   0  0  0  0  0  0  0  0  0  0  0  0
  -21.9900   -4.1850   23.6730 C   0  0  0  0  0  3  0  0  0  0  0  0
  -22.1450   -4.9620   22.5100 C   0  0  0  0  0  0  0  0  0  0  0  0
  -22.5910   -4.3810   21.3700 F   0  0  0  0  0  0  0  0  0  0  0  0
  -21.3520   -4.0280   25.9690 F   0  0  0  0  0  0  0  0  0  0  0  0
  -23.0610  -13.6750   21.1000 C   0  0  0  0  0  0  0  0  0  0  0  0
  -22.3620  -12.9800   21.9910 N   0  0  0  0  0  0  0  0  0  0  0  0
  -22.6110  -14.7070   20.6030 O   0  0  0  0  0  0  0  0  0  0  0  0
  -22.7360  -12.1430   22.4120 H   0  0  0  0  0  0  0  0  0  0  0  0
  -21.4360  -13.2870   22.2500 H   0  0  0  0  0  0  0  0  0  0  0  0
  -25.6740  -15.3300   20.2090 N   0  0  0  0  0  0  0  0  0  0  0  0
  -24.9050  -15.9800   20.3300 H   0  0  0  0  0  0  0  0  0  0  0  0
  -26.4820  -15.7520   19.7730 H   0  0  0  0  0  0  0  0  0  0  0  0
  1 11  1  0
  2  1  2  0
  2 10  1  0
  3  1  1  0
  4  5  1  0
  4  3  1  0
  5  6  1  0
  6  7  1  0
  7  9  1  0
  9 13  1  0
  9  8  1  0
 11  8  1  0
 11 54  1  0
 11 12  1  6
 14 25  2  0
 15 13  1  0
 15 20  1  0
 16 24  1  0
 16 26  1  0
 17 23  1  0
 17 19  1  0
 18 24  1  0
 19 18  1  0
 20 19  2  0
 21 22  1  0
 21 15  2  0
 22 17  2  0
 23 16  1  0
 24 14  1  0
 26 28  2  0
 27 26  1  0
 29 27  1  0
 30 39  2  0
 30 35  1  0
 31 27  1  0
 31 35  1  0
 32 31  1  0
 33 34  1  0
 33 32  1  0
 34 30  1  0
 35 36  2  0
 36 37  1  0
 38 37  2  0
 39 38  1  0
 40 14  1  0
 40 41  1  0
 40 50  1  0
 41 44  1  0
 42 46  1  0
 42 41  1  0
 43 42  2  0
 46 45  1  0
 48 46  1  0
 48 49  1  0
 48 47  1  0
 50 53  1  1
 50 51  1  0
 52 50  1  0
 55 57  2  0
 55 60  1  0
 56 58  1  0
 57 59  1  0
 58 62  1  0
 59 58  2  0
 59 54  1  0
 60 71  1  0
 60 56  2  0
 61 57  1  0
 63 71  1  0
 64 69  1  0
 65 66  1  0
 65 64  1  0
 67 66  1  0
 67 76  1  0
 67 68  1  0
 69 63  1  0
 69 68  1  0
 70 63  2  0
 71 72  1  0
 73 74  2  0
 74 93  1  0
 75 74  1  0
 75 78  1  0
 76 77  1  0
 76 73  1  0
 77 75  2  0
 78 79  1  0
 79 80  2  0
 81 84  1  0
 81 80  1  0
 82 81  2  0
 83 82  1  0
 83 78  2  0
 84 85  1  0
 85 86  1  0
 86 87  2  0
 88 87  1  0
 88 92  1  0
 89 88  2  0
 90 85  2  0
 90 89  1  0
 91 90  1  0
 93 94  1  0
 94 97  1  0
 94 96  1  0
 95 93  2  0
 98 99  1  0
 98 73  1  0
100 98  1  0
M  ISO  4   9 101  13 101  63 100  71 100
M  END
>  <TORSDO>  (14) 
F 18

>  <SCORE>  (14) 
-14.414

>  <name>  (14) 
13

>  <ligand_id>  (14) 
13

>  <original_smiles>  (14) 
[H]C(=C1C([H])([H])C([H])([H])C([H])([H])C([H])([H])C([H])([H])C([H])(Oc2c([H])c([H])c3c(c2[H])C([H])([H])N(C(=O)C([H])(N([H])C(=O)C([H])(N([H])C([H])([H])[H])C([H])([H])[H])C(C([H])([H])[H])(C([H])([H])[H])C([H])([H])[H])C([H])(C(=O)N([H])C2([H])c4c([H])c([H])c([H])c([H])c4C([H])([H])C([H])([H])C2([H])[H])C3([H])[H])C([H])([H])[N+]1([H])C([H])([H])c1c(C([H])([H])[H])c([H])c(N([H])C(=O)N2C([H])([H])C([H])([H])C([H])([H])C([H])(n3nc(-c4c([H])c([H])c(Oc5c([H])c([H])c(F)c([H])c5F)c([H])c4[H])c(C(=O)N([H])[H])c3N([H])[H])C2([H])[H])c([H])c1C([H])([H])[H])C([H])([H])[H]

>  <smiles>  (14) 
[H]C(=C1C([H])([H])C([H])([H])C([H])([H])C([H])([H])C([H])([H])C([H])(Oc2c([H])c([H])c3c(c2[H])C([H])([H])N(C(=O)C([H])(N([H])C(=O)C([H])(N([H])C([H])([H])[H])C([H])([H])[H])C(C([H])([H])[H])(C([H])([H])[H])C([H])([H])[H])C([H])(C(=O)N([H])C2([H])c4c([H])c([H])c([H])c([H])c4C([H])([H])C([H])([H])C2([H])[H])C3([H])[H])C([H])([H])[N+]1([H])C([H])([H])c1c(C([H])([H])[H])c([H])c(N([H])C(=O)N2C([H])([H])C([H])([H])C([H])([H])C([H])(n3nc(-c4c([H])c([H])c(Oc5c([H])c([H])c(F)c([H])c5F)c([H])c4[H])c(C(=O)N([H])[H])c3N([H])[H])C2([H])[H])c([H])c1C([H])([H])[H])C([H])([H])[H]

$$$$
14:0:0
     RDKit          3D

 95104  0  0  1  0  0  0  0  0999 V2000
  -27.8640  -23.3750   17.9390 C   0  0  0  0  0  2  0  0  0  0  0  0
  -28.3280  -24.8320   18.0870 C   0  0  0  0  0  2  0  0  0  0  0  0
  -29.0360  -22.3830   18.0820 C   0  0  0  0  0  2  0  0  0  0  0  0
  -30.1340  -24.0540   19.6090 C   0  0  0  0  0  2  0  0  0  0  0  0
  -28.8850  -25.0320   19.5090 C   0  0  0  0  0  3  0  0  0  0  0  0
  -29.8290  -22.5770   19.3270 N   0  0  2  0  0  4  0  0  0  0  0  0
  -29.2340  -22.2810   20.0860 H   0  0  0  0  0  0  0  0  0  0  0  0
  -29.0720  -26.4730   19.8030 O   0  0  0  0  0  0  0  0  0  0  0  0
  -25.4530  -31.3830   23.6630 C   0  0  0  0  0  0  0  0  0  0  0  0
  -27.9490  -27.3190   19.9020 C   0  0  0  0  0  0  0  0  0  0  0  0
  -24.2200  -30.3330   21.8000 C   0  0  0  0  0  3  0  0  0  0  0  0
  -25.6290  -28.9880   20.1520 C   0  0  0  0  0  0  0  0  0  0  0  0
  -26.7720  -30.5800   21.6930 C   0  0  0  0  0  2  0  0  0  0  0  0
  -26.8100  -29.3300   20.8240 C   0  0  0  0  0  0  0  0  0  0  0  0
  -27.9710  -28.5130   20.6870 C   0  0  0  0  0  3  0  0  0  0  0  0
  -26.7290  -27.0170   19.2450 C   0  0  0  0  0  3  0  0  0  0  0  0
  -25.5900  -27.8340   19.3610 C   0  0  0  0  0  3  0  0  0  0  0  0
  -24.4270  -29.8920   20.3290 C   0  0  0  0  0  2  0  0  0  0  0  0
  -25.5010  -30.7700   22.4460 N   0  0  0  0  0  0  0  0  0  0  0  0
  -24.3730  -31.6110   24.2290 O   0  0  0  0  0  0  0  0  0  0  0  0
  -23.5020  -29.1970   22.5670 C   0  0  0  0  0  0  0  0  0  0  0  0
  -22.1830  -29.0610   22.3490 N   0  0  0  0  0  0  0  0  0  0  0  0
  -24.1320  -28.4470   23.3160 O   0  0  0  0  0  0  0  0  0  0  0  0
  -21.7350  -29.7230   21.7320 H   0  0  0  0  0  0  0  0  0  0  0  0
  -18.7870  -27.8250   22.4500 C   0  0  0  0  0  0  0  0  0  0  0  0
  -21.3170  -28.0360   22.9320 C   0  0  0  0  0  3  0  0  0  0  0  0
  -21.4670  -26.6900   22.1870 C   0  0  0  0  0  2  0  0  0  0  0  0
  -20.4410  -26.5040   21.0640 C   0  0  0  0  0  2  0  0  0  0  0  0
  -19.0170  -26.5710   21.6230 C   0  0  0  0  0  2  0  0  0  0  0  0
  -19.8680  -28.5210   23.0520 C   0  0  0  0  0  0  0  0  0  0  0  0
  -19.6020  -29.6990   23.7830 C   0  0  0  0  0  3  0  0  0  0  0  0
  -18.2860  -30.1800   23.9190 C   0  0  0  0  0  3  0  0  0  0  0  0
  -17.2180  -29.4800   23.3330 C   0  0  0  0  0  3  0  0  0  0  0  0
  -17.4690  -28.3020   22.6070 C   0  0  0  0  0  3  0  0  0  0  0  0
  -26.7500  -31.8430   24.3950 C   0  0  0  0  0  3  0  0  0  0  0  0
  -26.5200  -33.2090   24.8840 N   0  0  0  0  0  0  0  0  0  0  0  0
  -26.9340  -34.3210   24.2610 C   0  0  0  0  0  0  0  0  0  0  0  0
  -27.6170  -34.2980   23.2330 O   0  0  0  0  0  0  0  0  0  0  0  0
  -25.9180  -33.3070   25.6880 H   0  0  0  0  0  0  0  0  0  0  0  0
  -25.3240  -36.2500   24.1030 C   0  0  0  0  0  1  0  0  0  0  0  0
  -26.5220  -35.6730   24.8740 C   0  0  0  0  0  3  0  0  0  0  0  0
  -28.6900  -36.3190   25.8290 C   0  0  0  0  0  1  0  0  0  0  0  0
  -27.6180  -36.6650   24.9010 N   0  0  0  0  0  0  0  0  0  0  0  0
  -27.2630  -37.5830   25.1560 H   0  0  0  0  0  0  0  0  0  0  0  0
  -27.1670  -30.8900   25.5820 C   0  0  1  0  0  0  0  0  0  0  0  0
  -26.0270  -30.6160   26.5890 C   0  0  0  0  0  1  0  0  0  0  0  0
  -27.6580  -29.5270   25.0410 C   0  0  0  0  0  1  0  0  0  0  0  0
  -28.3510  -31.5110   26.3590 C   0  0  0  0  0  1  0  0  0  0  0  0
  -31.0290  -21.6440   19.3510 C   0  0  0  0  0  2  0  0  0  0  0  0
  -31.6530  -19.1830   18.7380 C   0  0  0  0  0  3  0  0  0  0  0  0
  -31.6310  -17.7690   18.9230 C   0  0  0  0  0  3  0  0  0  0  0  0
  -30.8380  -20.0760   19.4890 C   0  0  0  0  0  0  0  0  0  0  0  0
  -29.9730  -19.4660   20.4460 C   0  0  0  0  0  0  0  0  0  0  0  0
  -29.9040  -18.0340   20.5910 C   0  0  0  0  0  0  0  0  0  0  0  0
  -30.7600  -17.1520   19.8610 C   0  0  0  0  0  0  0  0  0  0  0  0
  -29.1360  -20.3530   21.3630 C   0  0  0  0  0  1  0  0  0  0  0  0
  -28.8990  -17.4330   21.5760 C   0  0  0  0  0  1  0  0  0  0  0  0
  -31.4250  -14.6210   19.7390 C   0  0  0  0  0  0  0  0  0  0  0  0
  -31.1670  -12.2770   18.9430 C   0  0  0  0  0  2  0  0  0  0  0  0
  -30.1680  -12.2640   17.7640 C   0  0  0  0  0  2  0  0  0  0  0  0
  -28.7180  -12.1560   18.2750 C   0  0  0  0  0  2  0  0  0  0  0  0
  -28.4100  -13.1560   19.4210 C   0  0  0  0  0  3  0  0  0  0  0  0
  -29.5190  -13.1300   20.4970 C   0  0  0  0  0  2  0  0  0  0  0  0
  -30.8040  -13.4010   19.8290 N   0  0  0  0  0  0  0  0  0  0  0  0
  -32.5570  -14.7300   19.2560 O   0  0  0  0  0  0  0  0  0  0  0  0
  -30.6620  -15.7040   20.0850 N   0  0  0  0  0  0  0  0  0  0  0  0
  -29.8140  -15.4250   20.5490 H   0  0  0  0  0  0  0  0  0  0  0  0
  -26.1190  -13.8640   20.3460 C   0  0  0  0  0  0  0  0  0  0  0  0
  -25.0360  -13.1400   20.7660 C   0  0  0  0  0  0  0  0  0  0  0  0
  -25.4060  -11.7660   20.6430 C   0  0  0  0  0  0  0  0  0  0  0  0
  -27.0850  -12.9340   19.9940 N   0  0  0  0  0  0  0  0  0  0  0  0
  -26.6650  -11.6650   20.2330 N   0  0  0  0  0  0  0  0  0  0  0  0
  -24.6180  -10.5410   20.8330 C   0  0  0  0  0  0  0  0  0  0  0  0
  -24.9880   -9.5660   21.7850 C   0  0  0  0  0  3  0  0  0  0  0  0
  -24.2040   -8.4070   21.9610 C   0  0  0  0  0  3  0  0  0  0  0  0
  -23.0340   -8.2150   21.1900 C   0  0  0  0  0  0  0  0  0  0  0  0
  -22.6820   -9.1790   20.2280 C   0  0  0  0  0  3  0  0  0  0  0  0
  -23.4670  -10.3300   20.0480 C   0  0  0  0  0  3  0  0  0  0  0  0
  -22.2250   -7.1070   21.2800 O   0  0  0  0  0  0  0  0  0  0  0  0
  -22.0190   -6.4570   22.4710 C   0  0  0  0  0  0  0  0  0  0  0  0
  -21.5010   -7.1250   23.6030 C   0  0  0  0  0  3  0  0  0  0  0  0
  -21.2330   -6.4040   24.7830 C   0  0  0  0  0  3  0  0  0  0  0  0
  -21.4790   -5.0190   24.8360 C   0  0  0  0  0  0  0  0  0  0  0  0
  -21.9940   -4.3520   23.7100 C   0  0  0  0  0  3  0  0  0  0  0  0
  -22.2590   -5.0700   22.5300 C   0  0  0  0  0  0  0  0  0  0  0  0
  -22.7320   -4.4180   21.4400 F   0  0  0  0  0  0  0  0  0  0  0  0
  -21.2180   -4.3270   25.9690 F   0  0  0  0  0  0  0  0  0  0  0  0
  -23.6940  -13.6870   21.1600 C   0  0  0  0  0  0  0  0  0  0  0  0
  -22.9950  -13.0120   22.0650 N   0  0  0  0  0  0  0  0  0  0  0  0
  -23.2790  -14.7480   20.6980 O   0  0  0  0  0  0  0  0  0  0  0  0
  -23.3460  -12.1540   22.4640 H   0  0  0  0  0  0  0  0  0  0  0  0
  -22.0960  -13.3640   22.3660 H   0  0  0  0  0  0  0  0  0  0  0  0
  -26.3600  -15.2290   20.2080 N   0  0  0  0  0  0  0  0  0  0  0  0
  -25.6410  -15.9230   20.3810 H   0  0  0  0  0  0  0  0  0  0  0  0
  -27.1730  -15.6110   19.7430 H   0  0  0  0  0  0  0  0  0  0  0  0
  1  3  1  0
  1  2  1  0
  2  5  1  0
  3  6  1  0
  5  4  1  0
  5  8  1  0
  6 49  1  0
  6  4  1  0
  6  7  1  1
  8 10  1  0
  9 20  2  0
 10 15  1  0
 11 19  1  0
 11 21  1  0
 12 18  1  0
 12 14  1  0
 13 19  1  0
 14 13  1  0
 15 14  2  0
 16 17  1  0
 16 10  2  0
 17 12  2  0
 18 11  1  0
 19  9  1  0
 21 23  2  0
 22 21  1  0
 24 22  1  0
 25 34  2  0
 25 30  1  0
 26 22  1  0
 26 30  1  0
 27 26  1  0
 28 29  1  0
 28 27  1  0
 29 25  1  0
 30 31  2  0
 31 32  1  0
 33 32  2  0
 34 33  1  0
 35  9  1  0
 35 36  1  0
 35 45  1  0
 36 39  1  0
 37 41  1  0
 37 36  1  0
 38 37  2  0
 41 40  1  0
 41 43  1  0
 43 44  1  0
 43 42  1  0
 45 48  1  1
 45 46  1  0
 47 45  1  0
 49 52  1  0
 50 51  2  0
 50 52  1  0
 51 55  1  0
 52 53  2  0
 53 54  1  0
 53 56  1  0
 54 57  1  0
 55 66  1  0
 55 54  2  0
 58 64  1  0
 58 66  1  0
 59 64  1  0
 60 61  1  0
 60 59  1  0
 62 61  1  0
 62 71  1  0
 62 63  1  0
 64 63  1  0
 65 58  2  0
 66 67  1  0
 68 69  2  0
 69 88  1  0
 70 69  1  0
 70 73  1  0
 71 72  1  0
 71 68  1  0
 72 70  2  0
 73 74  1  0
 74 75  2  0
 76 79  1  0
 76 75  1  0
 77 76  2  0
 78 77  1  0
 78 73  2  0
 79 80  1  0
 80 85  2  0
 80 81  1  0
 81 82  2  0
 82 83  1  0
 83 87  1  0
 84 83  2  0
 85 84  1  0
 86 85  1  0
 88 89  1  0
 89 92  1  0
 89 91  1  0
 90 88  2  0
 93 68  1  0
 93 94  1  0
 95 93  1  0
M  ISO  4   5 101   8 101  58 100  66 100
M  END
>  <TORSDO>  (15) 
F 18

>  <SCORE>  (15) 
-11.012

>  <name>  (15) 
14

>  <ligand_id>  (15) 
14

>  <original_smiles>  (15) 
[H]c1c([H])c([H])c2c(c1[H])C([H])([H])C([H])([H])C([H])([H])C2([H])N([H])C(=O)C1([H])N(C(=O)C([H])(N([H])C(=O)C([H])(N([H])C([H])([H])[H])C([H])([H])[H])C(C([H])([H])[H])(C([H])([H])[H])C([H])([H])[H])C([H])([H])c2c([H])c(OC3([H])C([H])([H])C([H])([H])C([H])([H])[N+]([H])(C([H])([H])c4c([H])c([H])c(N([H])C(=O)N5C([H])([H])C([H])([H])C([H])([H])C([H])(n6nc(-c7c([H])c([H])c(Oc8c([H])c([H])c(F)c([H])c8F)c([H])c7[H])c(C(=O)N([H])[H])c6N([H])[H])C5([H])[H])c(C([H])([H])[H])c4C([H])([H])[H])C3([H])[H])c([H])c([H])c2C1([H])[H]

>  <smiles>  (15) 
[H]c1c([H])c([H])c2c(c1[H])C([H])([H])C([H])([H])C([H])([H])C2([H])N([H])C(=O)C1([H])N(C(=O)C([H])(N([H])C(=O)C([H])(N([H])C([H])([H])[H])C([H])([H])[H])C(C([H])([H])[H])(C([H])([H])[H])C([H])([H])[H])C([H])([H])c2c([H])c(OC3([H])C([H])([H])C([H])([H])C([H])([H])[N+]([H])(C([H])([H])c4c([H])c([H])c(N([H])C(=O)N5C([H])([H])C([H])([H])C([H])([H])C([H])(n6nc(-c7c([H])c([H])c(Oc8c([H])c([H])c(F)c([H])c8F)c([H])c7[H])c(C(=O)N([H])[H])c6N([H])[H])C5([H])[H])c(C([H])([H])[H])c4C([H])([H])[H])C3([H])[H])c([H])c([H])c2C1([H])[H]

$$$$
15:0:0
     RDKit          3D

 94102  0  0  1  0  0  0  0  0999 V2000
  -30.8830  -21.1640   21.2970 C   0  0  0  0  0  2  0  0  0  0  0  0
  -31.9700  -18.8870   21.0890 C   0  0  0  0  0  3  0  0  0  0  0  0
  -31.9260  -17.4840   21.0030 C   0  0  0  0  0  3  0  0  0  0  0  0
  -30.7900  -19.6570   21.0320 C   0  0  0  0  0  0  0  0  0  0  0  0
  -29.5470  -18.9990   20.8320 C   0  0  0  0  0  0  0  0  0  0  0  0
  -29.4960  -17.5760   20.7840 C   0  0  0  0  0  0  0  0  0  0  0  0
  -30.6890  -16.8090   20.8710 C   0  0  0  0  0  0  0  0  0  0  0  0
  -28.2540  -19.8020   20.7010 C   0  0  0  0  0  1  0  0  0  0  0  0
  -28.1410  -16.8760   20.6490 C   0  0  0  0  0  1  0  0  0  0  0  0
  -31.2160  -14.4640   20.0610 C   0  0  0  0  0  0  0  0  0  0  0  0
  -30.8440  -12.3320   18.8740 C   0  0  0  0  0  2  0  0  0  0  0  0
  -29.8540  -12.5720   17.7150 C   0  0  0  0  0  2  0  0  0  0  0  0
  -28.3930  -12.4710   18.1990 C   0  0  0  0  0  2  0  0  0  0  0  0
  -28.1290  -13.2960   19.4870 C   0  0  0  0  0  3  0  0  0  0  0  0
  -29.2170  -13.0010   20.5440 C   0  0  0  0  0  2  0  0  0  0  0  0
  -30.5320  -13.2950   19.9390 N   0  0  0  0  0  0  0  0  0  0  0  0
  -32.2960  -14.6680   19.4970 O   0  0  0  0  0  0  0  0  0  0  0  0
  -30.5760  -15.3870   20.8010 N   0  0  0  0  0  0  0  0  0  0  0  0
  -29.7640  -15.0130   21.2650 H   0  0  0  0  0  0  0  0  0  0  0  0
  -25.7590  -13.9600   20.2490 C   0  0  0  0  0  0  0  0  0  0  0  0
  -24.6920  -13.2130   20.6720 C   0  0  0  0  0  0  0  0  0  0  0  0
  -25.1330  -11.8540   20.6580 C   0  0  0  0  0  0  0  0  0  0  0  0
  -26.7840  -13.0580   20.0100 N   0  0  0  0  0  0  0  0  0  0  0  0
  -26.4110  -11.7870   20.3100 N   0  0  0  0  0  0  0  0  0  0  0  0
  -24.3960  -10.6070   20.8990 C   0  0  0  0  0  0  0  0  0  0  0  0
  -24.7810   -9.7080   21.9180 C   0  0  0  0  0  3  0  0  0  0  0  0
  -24.0470   -8.5240   22.1420 C   0  0  0  0  0  3  0  0  0  0  0  0
  -22.9130   -8.2300   21.3480 C   0  0  0  0  0  0  0  0  0  0  0  0
  -22.5470   -9.1170   20.3200 C   0  0  0  0  0  3  0  0  0  0  0  0
  -23.2830  -10.2930   20.0940 C   0  0  0  0  0  3  0  0  0  0  0  0
  -22.1550   -7.0910   21.4760 O   0  0  0  0  0  0  0  0  0  0  0  0
  -21.9260   -6.5140   22.6980 C   0  0  0  0  0  0  0  0  0  0  0  0
  -21.3380   -7.2320   23.7640 C   0  0  0  0  0  3  0  0  0  0  0  0
  -21.0570   -6.5820   24.9820 C   0  0  0  0  0  3  0  0  0  0  0  0
  -21.3520   -5.2130   25.1340 C   0  0  0  0  0  0  0  0  0  0  0  0
  -21.9320   -4.4950   24.0730 C   0  0  0  0  0  3  0  0  0  0  0  0
  -22.2160   -5.1430   22.8580 C   0  0  0  0  0  0  0  0  0  0  0  0
  -22.7540   -4.4430   21.8320 F   0  0  0  0  0  0  0  0  0  0  0  0
  -21.0750   -4.5850   26.3000 F   0  0  0  0  0  0  0  0  0  0  0  0
  -23.3110  -13.7160   20.9800 C   0  0  0  0  0  0  0  0  0  0  0  0
  -22.6220  -13.0780   21.9180 N   0  0  0  0  0  0  0  0  0  0  0  0
  -22.8540  -14.7110   20.4190 O   0  0  0  0  0  0  0  0  0  0  0  0
  -23.0050  -12.2740   22.3920 H   0  0  0  0  0  0  0  0  0  0  0  0
  -21.6970  -13.3990   22.1670 H   0  0  0  0  0  0  0  0  0  0  0  0
  -25.9370  -15.3220   20.0290 N   0  0  0  0  0  0  0  0  0  0  0  0
  -25.1800  -15.9890   20.1310 H   0  0  0  0  0  0  0  0  0  0  0  0
  -26.7770  -15.7310   19.6400 H   0  0  0  0  0  0  0  0  0  0  0  0
  -30.2690  -22.0120   20.2480 N   0  0  0  0  0  4  0  0  0  0  0  0
  -29.4450  -21.5540   19.8990 H   0  0  0  0  0  0  0  0  0  0  0  0
  -30.9230  -22.0880   19.4870 H   0  0  0  0  0  0  0  0  0  0  0  0
  -29.9130  -23.3660   20.7450 C   0  0  0  0  0  2  0  0  0  0  0  0
  -29.2780  -24.2870   19.6790 C   0  0  0  0  0  2  0  0  0  0  0  0
  -28.9090  -25.6730   20.2520 C   0  0  0  0  0  2  0  0  0  0  0  0
  -28.5860  -26.5880   19.2070 O   0  0  0  0  0  0  0  0  0  0  0  0
  -24.6520  -31.3010   22.8310 C   0  0  0  0  0  0  0  0  0  0  0  0
  -27.3920  -27.2490   19.3480 C   0  0  0  0  0  0  0  0  0  0  0  0
  -23.4660  -30.0070   21.0860 C   0  0  0  0  0  3  0  0  0  0  0  0
  -24.9470  -28.6420   19.5220 C   0  0  0  0  0  0  0  0  0  0  0  0
  -25.9720  -30.4720   20.8860 C   0  0  0  0  0  2  0  0  0  0  0  0
  -26.0930  -29.1600   20.1390 C   0  0  0  0  0  0  0  0  0  0  0  0
  -27.3200  -28.4680   20.0540 C   0  0  0  0  0  3  0  0  0  0  0  0
  -26.2340  -26.7300   18.7350 C   0  0  0  0  0  3  0  0  0  0  0  0
  -25.0090  -27.4230   18.8220 C   0  0  0  0  0  3  0  0  0  0  0  0
  -23.6770  -29.4520   19.6510 C   0  0  0  0  0  2  0  0  0  0  0  0
  -24.7160  -30.6030   21.6610 N   0  0  0  0  0  0  0  0  0  0  0  0
  -23.5720  -31.4870   23.4080 O   0  0  0  0  0  0  0  0  0  0  0  0
  -22.8620  -28.8860   21.9620 C   0  0  0  0  0  0  0  0  0  0  0  0
  -21.5380  -28.6860   21.8500 N   0  0  0  0  0  0  0  0  0  0  0  0
  -23.5790  -28.2040   22.6980 O   0  0  0  0  0  0  0  0  0  0  0  0
  -21.0190  -29.2950   21.2310 H   0  0  0  0  0  0  0  0  0  0  0  0
  -18.2020  -27.3780   22.3070 C   0  0  0  0  0  0  0  0  0  0  0  0
  -20.7600  -27.6620   22.5450 C   0  0  0  0  0  3  0  0  0  0  0  0
  -20.8760  -26.2940   21.8330 C   0  0  0  0  0  2  0  0  0  0  0  0
  -19.7570  -26.0460   20.8180 C   0  0  0  0  0  2  0  0  0  0  0  0
  -18.3870  -26.1020   21.5040 C   0  0  0  0  0  2  0  0  0  0  0  0
  -19.3160  -28.1190   22.7830 C   0  0  0  0  0  0  0  0  0  0  0  0
  -19.0880  -29.3170   23.4920 C   0  0  0  0  0  3  0  0  0  0  0  0
  -17.7790  -29.7750   23.7330 C   0  0  0  0  0  3  0  0  0  0  0  0
  -16.6790  -29.0290   23.2730 C   0  0  0  0  0  3  0  0  0  0  0  0
  -16.8920  -27.8330   22.5660 C   0  0  0  0  0  3  0  0  0  0  0  0
  -25.9270  -31.9160   23.4890 C   0  0  0  0  0  3  0  0  0  0  0  0
  -25.5720  -33.2540   23.9750 N   0  0  0  0  0  0  0  0  0  0  0  0
  -25.8850  -34.3970   23.3500 C   0  0  0  0  0  0  0  0  0  0  0  0
  -26.5740  -34.4340   22.3270 O   0  0  0  0  0  0  0  0  0  0  0  0
  -24.9620  -33.2970   24.7790 H   0  0  0  0  0  0  0  0  0  0  0  0
  -24.1230  -36.1800   23.1600 C   0  0  0  0  0  1  0  0  0  0  0  0
  -25.3490  -35.7080   23.9580 C   0  0  0  0  0  3  0  0  0  0  0  0
  -27.4360  -36.5290   24.9570 C   0  0  0  0  0  1  0  0  0  0  0  0
  -26.3570  -36.7890   24.0070 N   0  0  0  0  0  0  0  0  0  0  0  0
  -25.9220  -37.6740   24.2550 H   0  0  0  0  0  0  0  0  0  0  0  0
  -26.5120  -31.0320   24.6580 C   0  0  1  0  0  0  0  0  0  0  0  0
  -25.4610  -30.6290   25.7180 C   0  0  0  0  0  1  0  0  0  0  0  0
  -27.1410  -29.7360   24.0950 C   0  0  0  0  0  1  0  0  0  0  0  0
  -27.6470  -31.7990   25.3780 C   0  0  0  0  0  1  0  0  0  0  0  0
  3  2  2  0
  4  2  1  0
  4  1  1  0
  5  4  2  0
  6  5  1  0
  6  7  2  0
  7  3  1  0
  8  5  1  0
  9  6  1  0
 10 18  1  0
 11 16  1  0
 12 13  1  0
 12 11  1  0
 14 13  1  0
 14 23  1  0
 14 15  1  0
 16 10  1  0
 16 15  1  0
 17 10  2  0
 18  7  1  0
 18 19  1  0
 20 21  2  0
 21 40  1  0
 22 21  1  0
 22 25  1  0
 23 20  1  0
 23 24  1  0
 24 22  2  0
 25 26  1  0
 26 27  2  0
 28 31  1  0
 28 27  1  0
 29 28  2  0
 30 29  1  0
 30 25  2  0
 31 32  1  0
 32 37  2  0
 32 33  1  0
 33 34  2  0
 34 35  1  0
 35 39  1  0
 36 35  2  0
 37 36  1  0
 38 37  1  0
 40 41  1  0
 41 44  1  0
 41 43  1  0
 42 40  2  0
 45 46  1  0
 45 20  1  0
 47 45  1  0
 48 51  1  0
 48  1  1  0
 49 48  1  0
 50 48  1  0
 52 53  1  0
 52 51  1  0
 54 56  1  0
 54 53  1  0
 55 66  2  0
 56 61  1  0
 57 65  1  0
 57 67  1  0
 58 64  1  0
 58 60  1  0
 59 65  1  0
 60 59  1  0
 61 60  2  0
 62 63  1  0
 62 56  2  0
 63 58  2  0
 64 57  1  0
 65 55  1  0
 67 69  2  0
 68 67  1  0
 70 68  1  0
 71 80  2  0
 71 76  1  0
 72 68  1  0
 72 76  1  0
 73 72  1  0
 74 75  1  0
 74 73  1  0
 75 71  1  0
 76 77  2  0
 77 78  1  0
 79 78  2  0
 80 79  1  0
 81 55  1  0
 81 82  1  0
 81 91  1  0
 82 85  1  0
 83 87  1  0
 83 82  1  0
 84 83  2  0
 87 86  1  0
 87 89  1  0
 89 90  1  0
 89 88  1  0
 91 94  1  1
 91 92  1  0
 93 91  1  0
M  ISO  4  10 100  18 100  53 101  54 101
M  END
>  <TORSDO>  (16) 
F 21

>  <SCORE>  (16) 
-11.374

>  <name>  (16) 
15

>  <ligand_id>  (16) 
15

>  <original_smiles>  (16) 
[H]c1c([H])c([H])c2c(c1[H])C([H])([H])C([H])([H])C([H])([H])C2([H])N([H])C(=O)C1([H])N(C(=O)C([H])(N([H])C(=O)C([H])(N([H])C([H])([H])[H])C([H])([H])[H])C(C([H])([H])[H])(C([H])([H])[H])C([H])([H])[H])C([H])([H])c2c([H])c(OC([H])([H])C([H])([H])C([H])([H])[N+]([H])([H])C([H])([H])c3c([H])c([H])c(N([H])C(=O)N4C([H])([H])C([H])([H])C([H])([H])C([H])(n5nc(-c6c([H])c([H])c(Oc7c([H])c([H])c(F)c([H])c7F)c([H])c6[H])c(C(=O)N([H])[H])c5N([H])[H])C4([H])[H])c(C([H])([H])[H])c3C([H])([H])[H])c([H])c([H])c2C1([H])[H]

>  <smiles>  (16) 
[H]c1c([H])c([H])c2c(c1[H])C([H])([H])C([H])([H])C([H])([H])C2([H])N([H])C(=O)C1([H])N(C(=O)C([H])(N([H])C(=O)C([H])(N([H])C([H])([H])[H])C([H])([H])[H])C(C([H])([H])[H])(C([H])([H])[H])C([H])([H])[H])C([H])([H])c2c([H])c(OC([H])([H])C([H])([H])C([H])([H])[N+]([H])([H])C([H])([H])c3c([H])c([H])c(N([H])C(=O)N4C([H])([H])C([H])([H])C([H])([H])C([H])(n5nc(-c6c([H])c([H])c(Oc7c([H])c([H])c(F)c([H])c7F)c([H])c6[H])c(C(=O)N([H])[H])c5N([H])[H])C4([H])[H])c(C([H])([H])[H])c3C([H])([H])[H])c([H])c([H])c2C1([H])[H]

$$$$
16:0:0
     RDKit          3D

 96105  0  0  1  0  0  0  0  0999 V2000
  -30.2140  -22.7420   21.2630 C   0  0  0  0  0  0  0  0  0  0  0  0
  -30.6230  -21.7900   22.1190 C   0  0  0  0  0  2  0  0  0  0  0  0
  -30.6660  -24.1950   21.3240 C   0  0  0  0  0  2  0  0  0  0  0  0
  -29.4760  -25.1480   21.5430 C   0  0  0  0  0  2  0  0  0  0  0  0
  -28.6850  -23.7880   19.5120 C   0  0  0  0  0  2  0  0  0  0  0  0
  -28.4060  -25.0570   20.4340 C   0  0  0  0  0  3  0  0  0  0  0  0
  -29.1560  -22.5050   20.2110 N   0  0  1  0  0  4  0  0  0  0  0  0
  -28.3370  -22.1750   20.7010 H   0  0  0  0  0  0  0  0  0  0  0  0
  -28.4040  -26.3920   19.8030 O   0  0  0  0  0  0  0  0  0  0  0  0
  -24.6590  -31.6610   23.0190 C   0  0  0  0  0  0  0  0  0  0  0  0
  -27.2590  -27.1870   19.8680 C   0  0  0  0  0  0  0  0  0  0  0  0
  -23.4440  -30.2940   21.3550 C   0  0  0  0  0  3  0  0  0  0  0  0
  -24.8870  -28.7650   19.9010 C   0  0  0  0  0  0  0  0  0  0  0  0
  -25.9770  -30.6280   21.1580 C   0  0  0  0  0  2  0  0  0  0  0  0
  -26.0550  -29.2600   20.4930 C   0  0  0  0  0  0  0  0  0  0  0  0
  -27.2490  -28.4830   20.4630 C   0  0  0  0  0  3  0  0  0  0  0  0
  -26.0710  -26.7270   19.2650 C   0  0  0  0  0  3  0  0  0  0  0  0
  -24.8930  -27.5040   19.2790 C   0  0  0  0  0  3  0  0  0  0  0  0
  -23.6490  -29.6380   19.9640 C   0  0  0  0  0  2  0  0  0  0  0  0
  -24.7130  -30.8770   21.9010 N   0  0  0  0  0  0  0  0  0  0  0  0
  -23.5790  -31.9260   23.5660 O   0  0  0  0  0  0  0  0  0  0  0  0
  -22.7870  -29.2610   22.3010 C   0  0  0  0  0  0  0  0  0  0  0  0
  -21.4540  -29.1230   22.2100 N   0  0  0  0  0  0  0  0  0  0  0  0
  -23.4740  -28.5880   23.0720 O   0  0  0  0  0  0  0  0  0  0  0  0
  -20.9600  -29.7160   21.5580 H   0  0  0  0  0  0  0  0  0  0  0  0
  -18.0550  -28.0560   22.8350 C   0  0  0  0  0  0  0  0  0  0  0  0
  -20.6340  -28.1790   22.9700 C   0  0  0  0  0  3  0  0  0  0  0  0
  -20.6320  -26.7830   22.3060 C   0  0  0  0  0  2  0  0  0  0  0  0
  -19.4610  -26.5740   21.3410 C   0  0  0  0  0  2  0  0  0  0  0  0
  -18.1270  -26.7440   22.0720 C   0  0  0  0  0  2  0  0  0  0  0  0
  -19.2320  -28.7380   23.2420 C   0  0  0  0  0  0  0  0  0  0  0  0
  -19.1100  -29.9710   23.9190 C   0  0  0  0  0  3  0  0  0  0  0  0
  -17.8430  -30.5210   24.1910 C   0  0  0  0  0  3  0  0  0  0  0  0
  -16.6810  -29.8360   23.7970 C   0  0  0  0  0  3  0  0  0  0  0  0
  -16.7880  -28.6040   23.1260 C   0  0  0  0  0  3  0  0  0  0  0  0
  -25.9450  -32.2790   23.6470 C   0  0  0  0  0  3  0  0  0  0  0  0
  -25.6280  -33.6580   24.0440 N   0  0  0  0  0  0  0  0  0  0  0  0
  -25.9490  -34.7470   23.3330 C   0  0  0  0  0  0  0  0  0  0  0  0
  -26.6110  -34.6960   22.2930 O   0  0  0  0  0  0  0  0  0  0  0  0
  -25.0360  -33.7700   24.8530 H   0  0  0  0  0  0  0  0  0  0  0  0
  -24.2150  -36.5500   23.0630 C   0  0  0  0  0  1  0  0  0  0  0  0
  -25.4560  -36.1100   23.8580 C   0  0  0  0  0  3  0  0  0  0  0  0
  -27.5840  -36.9610   24.7370 C   0  0  0  0  0  1  0  0  0  0  0  0
  -26.4840  -37.1710   23.7990 N   0  0  0  0  0  0  0  0  0  0  0  0
  -26.0750  -38.0820   23.9880 H   0  0  0  0  0  0  0  0  0  0  0  0
  -26.4890  -31.4570   24.8800 C   0  0  1  0  0  0  0  0  0  0  0  0
  -25.4130  -31.1560   25.9490 C   0  0  0  0  0  1  0  0  0  0  0  0
  -27.0850  -30.1070   24.4170 C   0  0  0  0  0  1  0  0  0  0  0  0
  -27.6360  -32.2360   25.5650 C   0  0  0  0  0  1  0  0  0  0  0  0
  -29.4650  -21.3820   19.2250 C   0  0  0  0  0  2  0  0  0  0  0  0
  -28.7030  -19.0770   20.2010 C   0  0  0  0  0  3  0  0  0  0  0  0
  -31.1080  -17.7810   19.6130 C   0  0  0  0  0  3  0  0  0  0  0  0
  -29.7380  -19.8780   19.6590 C   0  0  0  0  0  0  0  0  0  0  0  0
  -28.8480  -17.6770   20.4400 C   0  0  0  0  0  0  0  0  0  0  0  0
  -30.9660  -19.1900   19.3910 C   0  0  0  0  0  0  0  0  0  0  0  0
  -30.0500  -16.9770   20.1160 C   0  0  0  0  0  0  0  0  0  0  0  0
  -27.6510  -16.9640   21.0540 C   0  0  0  0  0  1  0  0  0  0  0  0
  -32.1570  -19.9350   18.8120 C   0  0  0  0  0  1  0  0  0  0  0  0
  -30.8080  -14.5130   19.6690 C   0  0  0  0  0  0  0  0  0  0  0  0
  -30.4280  -12.3380   18.5190 C   0  0  0  0  0  2  0  0  0  0  0  0
  -29.3740  -12.5730   17.4140 C   0  0  0  0  0  2  0  0  0  0  0  0
  -27.9440  -12.4470   17.9770 C   0  0  0  0  0  2  0  0  0  0  0  0
  -27.7480  -13.2480   19.2900 C   0  0  0  0  0  3  0  0  0  0  0  0
  -28.8990  -12.9710   20.2840 C   0  0  0  0  0  2  0  0  0  0  0  0
  -30.1630  -13.3040   19.6050 N   0  0  0  0  0  0  0  0  0  0  0  0
  -31.9040  -14.6850   19.1270 O   0  0  0  0  0  0  0  0  0  0  0  0
  -30.1030  -15.5200   20.2750 N   0  0  0  0  0  0  0  0  0  0  0  0
  -29.3260  -15.1510   20.7970 H   0  0  0  0  0  0  0  0  0  0  0  0
  -25.4440  -13.8990   20.2310 C   0  0  0  0  0  0  0  0  0  0  0  0
  -24.3950  -13.1490   20.6880 C   0  0  0  0  0  0  0  0  0  0  0  0
  -24.8130  -11.7870   20.5900 C   0  0  0  0  0  0  0  0  0  0  0  0
  -26.4390  -12.9960   19.8900 N   0  0  0  0  0  0  0  0  0  0  0  0
  -26.0680  -11.7190   20.1610 N   0  0  0  0  0  0  0  0  0  0  0  0
  -24.0710  -10.5410   20.8250 C   0  0  0  0  0  0  0  0  0  0  0  0
  -24.5140   -9.5820   21.7620 C   0  0  0  0  0  3  0  0  0  0  0  0
  -23.7730   -8.4020   21.9840 C   0  0  0  0  0  3  0  0  0  0  0  0
  -22.5750   -8.1710   21.2660 C   0  0  0  0  0  0  0  0  0  0  0  0
  -22.1510   -9.1170   20.3170 C   0  0  0  0  0  3  0  0  0  0  0  0
  -22.8930  -10.2900   20.0940 C   0  0  0  0  0  3  0  0  0  0  0  0
  -21.8050   -7.0400   21.3950 O   0  0  0  0  0  0  0  0  0  0  0  0
  -21.7140   -6.3640   22.5850 C   0  0  0  0  0  0  0  0  0  0  0  0
  -21.2700   -6.9940   23.7690 C   0  0  0  0  0  3  0  0  0  0  0  0
  -21.1240   -6.2450   24.9530 C   0  0  0  0  0  3  0  0  0  0  0  0
  -21.4120   -4.8670   24.9550 C   0  0  0  0  0  0  0  0  0  0  0  0
  -21.8480   -4.2360   23.7770 C   0  0  0  0  0  3  0  0  0  0  0  0
  -21.9950   -4.9830   22.5940 C   0  0  0  0  0  0  0  0  0  0  0  0
  -22.3960   -4.3660   21.4560 F   0  0  0  0  0  0  0  0  0  0  0  0
  -21.2650   -4.1450   26.0900 F   0  0  0  0  0  0  0  0  0  0  0  0
  -23.0440  -13.6580   21.0990 C   0  0  0  0  0  0  0  0  0  0  0  0
  -22.3950  -12.9810   22.0390 N   0  0  0  0  0  0  0  0  0  0  0  0
  -22.5760  -14.6910   20.6220 O   0  0  0  0  0  0  0  0  0  0  0  0
  -22.7890  -12.1440   22.4450 H   0  0  0  0  0  0  0  0  0  0  0  0
  -21.4900  -13.3000   22.3560 H   0  0  0  0  0  0  0  0  0  0  0  0
  -25.6260  -15.2670   20.0550 N   0  0  0  0  0  0  0  0  0  0  0  0
  -24.8750  -15.9270   20.2190 H   0  0  0  0  0  0  0  0  0  0  0  0
  -26.4300  -15.6880   19.6070 H   0  0  0  0  0  0  0  0  0  0  0  0
  1  3  1  0
  1  2  2  0
  3  4  1  0
  5  7  1  0
  5  6  1  0
  6  9  1  0
  6  4  1  0
  7  8  1  1
  7  1  1  0
  9 11  1  0
 10 21  2  0
 11 16  1  0
 12 20  1  0
 12 22  1  0
 13 19  1  0
 13 15  1  0
 14 20  1  0
 15 14  1  0
 16 15  2  0
 17 18  1  0
 17 11  2  0
 18 13  2  0
 19 12  1  0
 20 10  1  0
 22 24  2  0
 23 22  1  0
 25 23  1  0
 26 35  2  0
 26 31  1  0
 27 23  1  0
 27 31  1  0
 28 27  1  0
 29 30  1  0
 29 28  1  0
 30 26  1  0
 31 32  2  0
 32 33  1  0
 34 33  2  0
 35 34  1  0
 36 10  1  0
 36 37  1  0
 36 46  1  0
 37 40  1  0
 38 42  1  0
 38 37  1  0
 39 38  2  0
 42 41  1  0
 44 42  1  0
 44 45  1  0
 44 43  1  0
 46 49  1  1
 46 47  1  0
 48 46  1  0
 50 53  1  0
 50  7  1  0
 51 54  1  0
 52 56  1  0
 53 51  2  0
 54 57  1  0
 55 52  2  0
 55 53  1  0
 56 67  1  0
 56 54  2  0
 58 55  1  0
 59 67  1  0
 60 65  1  0
 61 62  1  0
 61 60  1  0
 63 62  1  0
 63 72  1  0
 63 64  1  0
 65 59  1  0
 65 64  1  0
 66 59  2  0
 67 68  1  0
 69 70  2  0
 70 89  1  0
 71 70  1  0
 71 74  1  0
 72 73  1  0
 72 69  1  0
 73 71  2  0
 74 75  1  0
 75 76  2  0
 77 80  1  0
 77 76  1  0
 78 77  2  0
 79 78  1  0
 79 74  2  0
 80 81  1  0
 81 86  2  0
 81 82  1  0
 82 83  2  0
 83 84  1  0
 84 88  1  0
 85 84  2  0
 86 85  1  0
 87 86  1  0
 89 90  1  0
 90 93  1  0
 90 92  1  0
 91 89  2  0
 94 95  1  0
 94 69  1  0
 96 94  1  0
M  ISO  4   6 101   9 101  59 100  67 100
M  END
>  <TORSDO>  (17) 
F 18

>  <SCORE>  (17) 
-13.320

>  <name>  (17) 
16

>  <ligand_id>  (17) 
16

>  <original_smiles>  (17) 
[H]C([H])=C1C([H])([H])C([H])([H])C([H])(Oc2c([H])c([H])c3c(c2[H])C([H])([H])N(C(=O)C([H])(N([H])C(=O)C([H])(N([H])C([H])([H])[H])C([H])([H])[H])C(C([H])([H])[H])(C([H])([H])[H])C([H])([H])[H])C([H])(C(=O)N([H])C2([H])c4c([H])c([H])c([H])c([H])c4C([H])([H])C([H])([H])C2([H])[H])C3([H])[H])C([H])([H])[N+]1([H])C([H])([H])c1c([H])c(C([H])([H])[H])c(N([H])C(=O)N2C([H])([H])C([H])([H])C([H])([H])C([H])(n3nc(-c4c([H])c([H])c(Oc5c([H])c([H])c(F)c([H])c5F)c([H])c4[H])c(C(=O)N([H])[H])c3N([H])[H])C2([H])[H])c([H])c1C([H])([H])[H]

>  <smiles>  (17) 
[H]C([H])=C1C([H])([H])C([H])([H])C([H])(Oc2c([H])c([H])c3c(c2[H])C([H])([H])N(C(=O)C([H])(N([H])C(=O)C([H])(N([H])C([H])([H])[H])C([H])([H])[H])C(C([H])([H])[H])(C([H])([H])[H])C([H])([H])[H])C([H])(C(=O)N([H])C2([H])c4c([H])c([H])c([H])c([H])c4C([H])([H])C([H])([H])C2([H])[H])C3([H])[H])C([H])([H])[N+]1([H])C([H])([H])c1c([H])c(C([H])([H])[H])c(N([H])C(=O)N2C([H])([H])C([H])([H])C([H])([H])C([H])(n3nc(-c4c([H])c([H])c(Oc5c([H])c([H])c(F)c([H])c5F)c([H])c4[H])c(C(=O)N([H])[H])c3N([H])[H])C2([H])[H])c([H])c1C([H])([H])[H]

$$$$
17:0:0
     RDKit          3D

 97106  0  0  1  0  0  0  0  0999 V2000
  -29.7150  -21.4800   18.4930 C   0  0  0  0  0  0  0  0  0  0  0  0
  -30.8030  -20.8130   18.0780 C   0  0  0  0  0  2  0  0  0  0  0  0
  -28.5950  -22.0240   17.6290 C   0  0  0  0  0  2  0  0  0  0  0  0
  -28.5350  -23.5500   17.7340 C   0  0  0  0  0  2  0  0  0  0  0  0
  -29.2010  -23.2730   20.2150 C   0  0  0  0  0  2  0  0  0  0  0  0
  -28.3380  -24.1000   19.1690 C   0  0  0  0  0  3  0  0  0  0  0  0
  -29.4950  -21.8040   19.9260 N   0  0  1  0  0  4  0  0  0  0  0  0
  -30.3960  -21.7120   20.3680 H   0  0  0  0  0  0  0  0  0  0  0  0
  -28.7280  -20.7360   20.6660 C   0  0  0  0  0  2  0  0  0  0  0  0
  -31.2090  -18.4790   22.6260 C   0  0  0  0  0  3  0  0  0  0  0  0
  -29.2830  -18.1550   20.6380 C   0  0  0  0  0  3  0  0  0  0  0  0
  -30.5530  -19.6200   22.1200 C   0  0  0  0  0  0  0  0  0  0  0  0
  -30.9010  -17.1760   22.1800 C   0  0  0  0  0  0  0  0  0  0  0  0
  -29.5570  -19.4820   21.1180 C   0  0  0  0  0  0  0  0  0  0  0  0
  -29.9500  -16.9840   21.1430 C   0  0  0  0  0  0  0  0  0  0  0  0
  -30.9120  -20.9730   22.7210 C   0  0  0  0  0  1  0  0  0  0  0  0
  -31.5720  -16.0140   22.9030 C   0  0  0  0  0  1  0  0  0  0  0  0
  -30.2790  -14.6500   20.1350 C   0  0  0  0  0  0  0  0  0  0  0  0
  -29.9750  -12.5190   18.8880 C   0  0  0  0  0  2  0  0  0  0  0  0
  -28.9330  -12.7160   17.7700 C   0  0  0  0  0  2  0  0  0  0  0  0
  -27.5040  -12.4960   18.3070 C   0  0  0  0  0  2  0  0  0  0  0  0
  -27.2410  -13.2660   19.6300 C   0  0  0  0  0  3  0  0  0  0  0  0
  -28.3890  -13.0470   20.6400 C   0  0  0  0  0  2  0  0  0  0  0  0
  -29.6390  -13.4510   19.9820 N   0  0  0  0  0  0  0  0  0  0  0  0
  -31.3800  -14.8620   19.6190 O   0  0  0  0  0  0  0  0  0  0  0  0
  -29.5520  -15.6490   20.7220 N   0  0  0  0  0  0  0  0  0  0  0  0
  -28.5940  -15.4030   20.9190 H   0  0  0  0  0  0  0  0  0  0  0  0
  -24.8790  -13.7640   20.5100 C   0  0  0  0  0  0  0  0  0  0  0  0
  -23.8740  -12.9460   20.9460 C   0  0  0  0  0  0  0  0  0  0  0  0
  -24.3890  -11.6140   20.8740 C   0  0  0  0  0  0  0  0  0  0  0  0
  -25.9410  -12.9280   20.2010 N   0  0  0  0  0  0  0  0  0  0  0  0
  -25.6550  -11.6290   20.4780 N   0  0  0  0  0  0  0  0  0  0  0  0
  -23.7320  -10.3220   21.1040 C   0  0  0  0  0  0  0  0  0  0  0  0
  -24.2350   -9.3980   22.0430 C   0  0  0  0  0  3  0  0  0  0  0  0
  -23.5770   -8.1690   22.2620 C   0  0  0  0  0  3  0  0  0  0  0  0
  -22.4010   -7.8570   21.5420 C   0  0  0  0  0  0  0  0  0  0  0  0
  -21.9160   -8.7710   20.5900 C   0  0  0  0  0  3  0  0  0  0  0  0
  -22.5750   -9.9920   20.3710 C   0  0  0  0  0  3  0  0  0  0  0  0
  -21.7070   -6.6790   21.6700 O   0  0  0  0  0  0  0  0  0  0  0  0
  -21.6950   -5.9740   22.8470 C   0  0  0  0  0  0  0  0  0  0  0  0
  -21.2310   -6.5440   24.0540 C   0  0  0  0  0  3  0  0  0  0  0  0
  -21.1730   -5.7630   25.2240 C   0  0  0  0  0  3  0  0  0  0  0  0
  -21.5640   -4.4100   25.1890 C   0  0  0  0  0  0  0  0  0  0  0  0
  -22.0160   -3.8380   23.9860 C   0  0  0  0  0  3  0  0  0  0  0  0
  -22.0790   -4.6190   22.8170 C   0  0  0  0  0  0  0  0  0  0  0  0
  -22.4950   -4.0580   21.6560 F   0  0  0  0  0  0  0  0  0  0  0  0
  -21.5000   -3.6550   26.3100 F   0  0  0  0  0  0  0  0  0  0  0  0
  -22.4790  -13.3610   21.3180 C   0  0  0  0  0  0  0  0  0  0  0  0
  -21.8480  -12.6370   22.2340 N   0  0  0  0  0  0  0  0  0  0  0  0
  -21.9600  -14.3640   20.8300 O   0  0  0  0  0  0  0  0  0  0  0  0
  -22.2840  -11.8250   22.6480 H   0  0  0  0  0  0  0  0  0  0  0  0
  -20.9170  -12.8950   22.5260 H   0  0  0  0  0  0  0  0  0  0  0  0
  -24.9740  -15.1410   20.3290 N   0  0  0  0  0  0  0  0  0  0  0  0
  -24.1910  -15.7620   20.5010 H   0  0  0  0  0  0  0  0  0  0  0  0
  -25.7710  -15.6170   19.9240 H   0  0  0  0  0  0  0  0  0  0  0  0
  -28.6370  -25.6600   19.0540 C   0  0  0  0  0  2  0  0  0  0  0  0
  -28.3450  -26.6310   20.0930 O   0  0  0  0  0  0  0  0  0  0  0  0
  -24.5900  -31.8770   23.1950 C   0  0  0  0  0  0  0  0  0  0  0  0
  -27.1940  -27.4130   20.0390 C   0  0  0  0  0  0  0  0  0  0  0  0
  -23.3720  -30.4970   21.5440 C   0  0  0  0  0  3  0  0  0  0  0  0
  -24.8110  -28.9720   20.0790 C   0  0  0  0  0  0  0  0  0  0  0  0
  -25.9030  -30.8320   21.3450 C   0  0  0  0  0  2  0  0  0  0  0  0
  -25.9750  -29.4660   20.6790 C   0  0  0  0  0  0  0  0  0  0  0  0
  -27.1640  -28.6910   20.6620 C   0  0  0  0  0  3  0  0  0  0  0  0
  -26.0090  -26.9490   19.4260 C   0  0  0  0  0  3  0  0  0  0  0  0
  -24.8270  -27.7160   19.4470 C   0  0  0  0  0  3  0  0  0  0  0  0
  -23.5700  -29.8360   20.1530 C   0  0  0  0  0  2  0  0  0  0  0  0
  -24.6400  -31.0860   22.0840 N   0  0  0  0  0  0  0  0  0  0  0  0
  -23.5120  -32.1470   23.7430 O   0  0  0  0  0  0  0  0  0  0  0  0
  -22.7220  -29.4690   22.4970 C   0  0  0  0  0  0  0  0  0  0  0  0
  -21.3940  -29.2950   22.3810 N   0  0  0  0  0  0  0  0  0  0  0  0
  -23.4090  -28.8290   23.2980 O   0  0  0  0  0  0  0  0  0  0  0  0
  -20.9010  -29.8620   21.7050 H   0  0  0  0  0  0  0  0  0  0  0  0
  -18.0190  -28.1160   22.9040 C   0  0  0  0  0  0  0  0  0  0  0  0
  -20.5810  -28.3520   23.1460 C   0  0  0  0  0  3  0  0  0  0  0  0
  -20.6660  -26.9300   22.5460 C   0  0  0  0  0  2  0  0  0  0  0  0
  -19.5500  -26.6310   21.5390 C   0  0  0  0  0  2  0  0  0  0  0  0
  -18.1760  -26.7770   22.2020 C   0  0  0  0  0  2  0  0  0  0  0  0
  -19.1480  -28.8620   23.3320 C   0  0  0  0  0  0  0  0  0  0  0  0
  -18.9470  -30.1170   23.9480 C   0  0  0  0  0  3  0  0  0  0  0  0
  -17.6480  -30.6240   24.1390 C   0  0  0  0  0  3  0  0  0  0  0  0
  -16.5330  -29.8740   23.7260 C   0  0  0  0  0  3  0  0  0  0  0  0
  -16.7190  -28.6210   23.1150 C   0  0  0  0  0  3  0  0  0  0  0  0
  -25.8810  -32.4980   23.8140 C   0  0  0  0  0  3  0  0  0  0  0  0
  -26.4080  -31.7090   25.0750 C   0  0  1  0  0  0  0  0  0  0  0  0
  -25.3230  -31.4570   26.1480 C   0  0  0  0  0  1  0  0  0  0  0  0
  -26.9900  -30.3370   24.6620 C   0  0  0  0  0  1  0  0  0  0  0  0
  -27.5630  -32.4960   25.7400 C   0  0  0  0  0  1  0  0  0  0  0  0
  -25.5760  -33.8910   24.1650 N   0  0  0  0  0  0  0  0  0  0  0  0
  -25.9110  -34.9550   23.4220 C   0  0  0  0  0  0  0  0  0  0  0  0
  -26.5790  -34.8650   22.3880 O   0  0  0  0  0  0  0  0  0  0  0  0
  -24.9810  -34.0360   24.9670 H   0  0  0  0  0  0  0  0  0  0  0  0
  -24.1870  -36.7570   23.0980 C   0  0  0  0  0  1  0  0  0  0  0  0
  -25.4270  -36.3370   23.9020 C   0  0  0  0  0  3  0  0  0  0  0  0
  -27.5650  -37.2030   24.7460 C   0  0  0  0  0  1  0  0  0  0  0  0
  -26.4630  -37.3890   23.8050 N   0  0  0  0  0  0  0  0  0  0  0  0
  -26.0600  -38.3080   23.9650 H   0  0  0  0  0  0  0  0  0  0  0  0
  1  7  1  0
  2  1  2  0
  3  4  1  0
  3  1  1  0
  4  6  1  0
  6 56  1  0
  6  5  1  0
  7  5  1  0
  7  8  1  1
  7  9  1  0
  9 14  1  0
 11 14  2  0
 11 15  1  0
 12 10  2  0
 12 16  1  0
 13 10  1  0
 13 17  1  0
 14 12  1  0
 15 13  2  0
 18 26  1  0
 19 24  1  0
 20 21  1  0
 20 19  1  0
 22 21  1  0
 22 31  1  0
 22 23  1  0
 24 18  1  0
 24 23  1  0
 25 18  2  0
 26 27  1  0
 26 15  1  0
 28 29  2  0
 29 48  1  0
 30 29  1  0
 30 33  1  0
 31 32  1  0
 31 28  1  0
 32 30  2  0
 33 34  1  0
 34 35  2  0
 36 39  1  0
 36 35  1  0
 37 36  2  0
 38 37  1  0
 38 33  2  0
 39 40  1  0
 40 41  1  0
 41 42  2  0
 43 42  1  0
 43 47  1  0
 44 43  2  0
 45 40  2  0
 45 44  1  0
 46 45  1  0
 48 49  1  0
 49 52  1  0
 49 51  1  0
 50 48  2  0
 53 54  1  0
 53 28  1  0
 55 53  1  0
 56 57  1  0
 58 69  2  0
 59 57  1  0
 59 64  1  0
 60 68  1  0
 60 70  1  0
 61 67  1  0
 61 63  1  0
 62 68  1  0
 63 62  1  0
 64 63  2  0
 65 66  1  0
 65 59  2  0
 66 61  2  0
 67 60  1  0
 68 58  1  0
 70 72  2  0
 71 70  1  0
 73 71  1  0
 74 83  2  0
 74 79  1  0
 75 71  1  0
 75 79  1  0
 76 75  1  0
 77 78  1  0
 77 76  1  0
 78 74  1  0
 79 80  2  0
 80 81  1  0
 82 81  2  0
 83 82  1  0
 84 58  1  0
 84 89  1  0
 84 85  1  0
 85 88  1  1
 85 86  1  0
 87 85  1  0
 89 92  1  0
 90 94  1  0
 90 89  1  0
 91 90  2  0
 94 93  1  0
 96 94  1  0
 96 97  1  0
 96 95  1  0
M  ISO  4  18 100  26 100  56 101  57 101
M  END
>  <TORSDO>  (18) 
F 19

>  <SCORE>  (18) 
-12.351

>  <name>  (18) 
17

>  <ligand_id>  (18) 
17

>  <original_smiles>  (18) 
[H]C([H])=C1C([H])([H])C([H])([H])C([H])(C([H])([H])Oc2c([H])c([H])c3c(c2[H])C([H])([H])N(C(=O)C([H])(N([H])C(=O)C([H])(N([H])C([H])([H])[H])C([H])([H])[H])C(C([H])([H])[H])(C([H])([H])[H])C([H])([H])[H])C([H])(C(=O)N([H])C2([H])c4c([H])c([H])c([H])c([H])c4C([H])([H])C([H])([H])C2([H])[H])C3([H])[H])C([H])([H])[N+]1([H])C([H])([H])c1c([H])c(N([H])C(=O)N2C([H])([H])C([H])([H])C([H])([H])C([H])(n3nc(-c4c([H])c([H])c(Oc5c([H])c([H])c(F)c([H])c5F)c([H])c4[H])c(C(=O)N([H])[H])c3N([H])[H])C2([H])[H])c(C([H])([H])[H])c([H])c1C([H])([H])[H]

>  <smiles>  (18) 
[H]C([H])=C1C([H])([H])C([H])([H])C([H])(C([H])([H])Oc2c([H])c([H])c3c(c2[H])C([H])([H])N(C(=O)C([H])(N([H])C(=O)C([H])(N([H])C([H])([H])[H])C([H])([H])[H])C(C([H])([H])[H])(C([H])([H])[H])C([H])([H])[H])C([H])(C(=O)N([H])C2([H])c4c([H])c([H])c([H])c([H])c4C([H])([H])C([H])([H])C2([H])[H])C3([H])[H])C([H])([H])[N+]1([H])C([H])([H])c1c([H])c(N([H])C(=O)N2C([H])([H])C([H])([H])C([H])([H])C([H])(n3nc(-c4c([H])c([H])c(Oc5c([H])c([H])c(F)c([H])c5F)c([H])c4[H])c(C(=O)N([H])[H])c3N([H])[H])C2([H])[H])c(C([H])([H])[H])c([H])c1C([H])([H])[H]

$$$$
18:0:0
     RDKit          3D

 94102  0  0  1  0  0  0  0  0999 V2000
  -28.8210  -23.4120   20.3090 C   0  0  0  0  0  0  0  0  0  0  0  0
  -29.0260  -22.1290   20.7450 N   0  0  0  0  0  0  0  0  0  0  0  0
  -28.6360  -23.6550   19.1150 O   0  0  0  0  0  0  0  0  0  0  0  0
  -29.1660  -22.0340   21.7400 H   0  0  0  0  0  0  0  0  0  0  0  0
  -28.6200  -25.7890   21.2410 C   0  0  0  0  0  3  0  0  0  0  0  0
  -28.8180  -24.4350   21.3920 C   0  0  0  0  0  0  0  0  0  0  0  0
  -29.0470  -23.9310   22.8160 C   0  0  0  0  0  1  0  0  0  0  0  0
  -28.4180  -26.5750   20.1150 O   0  0  0  0  0  0  0  0  0  0  0  0
  -24.6920  -31.9040   23.2510 C   0  0  0  0  0  0  0  0  0  0  0  0
  -27.3190  -27.4260   20.1410 C   0  0  0  0  0  0  0  0  0  0  0  0
  -23.4860  -30.5110   21.6040 C   0  0  0  0  0  3  0  0  0  0  0  0
  -24.9400  -28.9820   20.1610 C   0  0  0  0  0  0  0  0  0  0  0  0
  -26.0180  -30.8560   21.4090 C   0  0  0  0  0  2  0  0  0  0  0  0
  -26.1050  -29.4860   20.7570 C   0  0  0  0  0  0  0  0  0  0  0  0
  -27.3020  -28.7150   20.7450 C   0  0  0  0  0  3  0  0  0  0  0  0
  -26.1400  -26.9600   19.5300 C   0  0  0  0  0  3  0  0  0  0  0  0
  -24.9560  -27.7210   19.5420 C   0  0  0  0  0  3  0  0  0  0  0  0
  -23.6950  -29.8440   20.2190 C   0  0  0  0  0  2  0  0  0  0  0  0
  -24.7500  -31.1080   22.1450 N   0  0  0  0  0  0  0  0  0  0  0  0
  -23.6110  -32.1720   23.7950 O   0  0  0  0  0  0  0  0  0  0  0  0
  -22.8360  -29.4840   22.5610 C   0  0  0  0  0  0  0  0  0  0  0  0
  -21.5120  -29.2950   22.4330 N   0  0  0  0  0  0  0  0  0  0  0  0
  -23.5200  -28.8580   23.3740 O   0  0  0  0  0  0  0  0  0  0  0  0
  -21.0190  -29.8540   21.7490 H   0  0  0  0  0  0  0  0  0  0  0  0
  -18.1450  -28.0660   22.9150 C   0  0  0  0  0  0  0  0  0  0  0  0
  -20.6990  -28.3480   23.1970 C   0  0  0  0  0  3  0  0  0  0  0  0
  -20.8170  -26.9190   22.6180 C   0  0  0  0  0  2  0  0  0  0  0  0
  -19.7210  -26.5880   21.5990 C   0  0  0  0  0  2  0  0  0  0  0  0
  -18.3370  -26.7190   22.2380 C   0  0  0  0  0  2  0  0  0  0  0  0
  -19.2540  -28.8380   23.3510 C   0  0  0  0  0  0  0  0  0  0  0  0
  -19.0220  -30.0990   23.9440 C   0  0  0  0  0  3  0  0  0  0  0  0
  -17.7120  -30.5870   24.1060 C   0  0  0  0  0  3  0  0  0  0  0  0
  -16.6160  -29.8130   23.6870 C   0  0  0  0  0  3  0  0  0  0  0  0
  -16.8340  -28.5540   23.0970 C   0  0  0  0  0  3  0  0  0  0  0  0
  -25.9770  -32.5340   23.8730 C   0  0  0  0  0  3  0  0  0  0  0  0
  -26.4960  -31.7600   25.1470 C   0  0  1  0  0  0  0  0  0  0  0  0
  -25.4050  -31.5220   26.2160 C   0  0  0  0  0  1  0  0  0  0  0  0
  -27.0770  -30.3820   24.7500 C   0  0  0  0  0  1  0  0  0  0  0  0
  -27.6470  -32.5520   25.8080 C   0  0  0  0  0  1  0  0  0  0  0  0
  -25.6690  -33.9320   24.2050 N   0  0  0  0  0  0  0  0  0  0  0  0
  -25.9930  -34.9860   23.4430 C   0  0  0  0  0  0  0  0  0  0  0  0
  -26.6550  -34.8830   22.4060 O   0  0  0  0  0  0  0  0  0  0  0  0
  -25.0810  -34.0860   25.0110 H   0  0  0  0  0  0  0  0  0  0  0  0
  -24.2590  -36.7750   23.1050 C   0  0  0  0  0  1  0  0  0  0  0  0
  -25.5080  -36.3730   23.9040 C   0  0  0  0  0  3  0  0  0  0  0  0
  -27.6470  -37.2640   24.7160 C   0  0  0  0  0  1  0  0  0  0  0  0
  -26.5380  -37.4280   23.7810 N   0  0  0  0  0  0  0  0  0  0  0  0
  -26.1320  -38.3480   23.9280 H   0  0  0  0  0  0  0  0  0  0  0  0
  -28.9910  -20.8440   19.9790 C   0  0  0  0  0  2  0  0  0  0  0  0
  -32.0970  -18.7850   21.1420 C   0  0  0  0  0  3  0  0  0  0  0  0
  -31.6370  -17.4590   21.0690 C   0  0  0  0  0  3  0  0  0  0  0  0
  -29.4730  -18.2850   20.3430 C   0  0  0  0  0  3  0  0  0  0  0  0
  -31.2720  -19.8760   20.7980 C   0  0  0  0  0  0  0  0  0  0  0  0
  -29.9210  -19.6540   20.4150 C   0  0  0  0  0  0  0  0  0  0  0  0
  -30.3250  -17.1630   20.6360 C   0  0  0  0  0  0  0  0  0  0  0  0
  -31.8990  -21.2620   20.8120 C   0  0  0  0  0  1  0  0  0  0  0  0
  -30.6070  -14.6590   20.1930 C   0  0  0  0  0  0  0  0  0  0  0  0
  -30.3030  -12.4530   19.0980 C   0  0  0  0  0  2  0  0  0  0  0  0
  -29.3280  -12.6110   17.9120 C   0  0  0  0  0  2  0  0  0  0  0  0
  -27.8700  -12.4510   18.3860 C   0  0  0  0  0  2  0  0  0  0  0  0
  -27.5530  -13.2940   19.6520 C   0  0  0  0  0  3  0  0  0  0  0  0
  -28.6490  -13.1400   20.7300 C   0  0  0  0  0  2  0  0  0  0  0  0
  -29.9360  -13.4700   20.1050 N   0  0  0  0  0  0  0  0  0  0  0  0
  -31.7640  -14.7590   19.7760 O   0  0  0  0  0  0  0  0  0  0  0  0
  -29.8810  -15.7720   20.5390 N   0  0  0  0  0  0  0  0  0  0  0  0
  -28.8980  -15.6070   20.6870 H   0  0  0  0  0  0  0  0  0  0  0  0
  -25.1820  -13.8710   20.4510 C   0  0  0  0  0  0  0  0  0  0  0  0
  -24.1310  -13.0880   20.8480 C   0  0  0  0  0  0  0  0  0  0  0  0
  -24.6010  -11.7400   20.7920 C   0  0  0  0  0  0  0  0  0  0  0  0
  -26.2240  -12.9990   20.1770 N   0  0  0  0  0  0  0  0  0  0  0  0
  -25.8820  -11.7110   20.4430 N   0  0  0  0  0  0  0  0  0  0  0  0
  -23.8870  -10.4710   20.9930 C   0  0  0  0  0  0  0  0  0  0  0  0
  -24.3440   -9.5050   21.9160 C   0  0  0  0  0  3  0  0  0  0  0  0
  -23.6290   -8.3030   22.1060 C   0  0  0  0  0  3  0  0  0  0  0  0
  -22.4440   -8.0580   21.3730 C   0  0  0  0  0  0  0  0  0  0  0  0
  -22.0050   -9.0140   20.4400 C   0  0  0  0  0  3  0  0  0  0  0  0
  -22.7200  -10.2080   20.2480 C   0  0  0  0  0  3  0  0  0  0  0  0
  -21.6980   -6.9080   21.4740 O   0  0  0  0  0  0  0  0  0  0  0  0
  -21.6720   -6.1660   22.6270 C   0  0  0  0  0  0  0  0  0  0  0  0
  -21.2420   -6.7140   23.8560 C   0  0  0  0  0  3  0  0  0  0  0  0
  -21.1630   -5.8970   25.0010 C   0  0  0  0  0  3  0  0  0  0  0  0
  -21.5040   -4.5340   24.9200 C   0  0  0  0  0  0  0  0  0  0  0  0
  -21.9280   -3.9860   23.6970 C   0  0  0  0  0  3  0  0  0  0  0  0
  -22.0070   -4.7990   22.5530 C   0  0  0  0  0  0  0  0  0  0  0  0
  -22.3950   -4.2610   21.3710 F   0  0  0  0  0  0  0  0  0  0  0  0
  -21.4220   -3.7470   26.0190 F   0  0  0  0  0  0  0  0  0  0  0  0
  -22.7400  -13.5560   21.1650 C   0  0  0  0  0  0  0  0  0  0  0  0
  -22.0420  -12.8460   22.0450 N   0  0  0  0  0  0  0  0  0  0  0  0
  -22.2830  -14.5840   20.6700 O   0  0  0  0  0  0  0  0  0  0  0  0
  -22.4250  -12.0150   22.4680 H   0  0  0  0  0  0  0  0  0  0  0  0
  -21.1100  -13.1410   22.3000 H   0  0  0  0  0  0  0  0  0  0  0  0
  -25.3300  -15.2440   20.2760 N   0  0  0  0  0  0  0  0  0  0  0  0
  -24.5590  -15.8890   20.4110 H   0  0  0  0  0  0  0  0  0  0  0  0
  -26.1550  -15.6900   19.8950 H   0  0  0  0  0  0  0  0  0  0  0  0
  1  2  1  0
  1  6  1  0
  2  4  1  0
  3  1  2  0
  5  6  2  0
  6  7  1  0
  8 10  1  0
  8  5  1  0
  9 20  2  0
 10 15  1  0
 11 19  1  0
 11 21  1  0
 12 18  1  0
 12 14  1  0
 13 19  1  0
 14 13  1  0
 15 14  2  0
 16 17  1  0
 16 10  2  0
 17 12  2  0
 18 11  1  0
 19  9  1  0
 21 23  2  0
 22 21  1  0
 24 22  1  0
 25 34  2  0
 25 30  1  0
 26 22  1  0
 26 30  1  0
 27 26  1  0
 28 29  1  0
 28 27  1  0
 29 25  1  0
 30 31  2  0
 31 32  1  0
 33 32  2  0
 34 33  1  0
 35  9  1  0
 35 40  1  0
 35 36  1  0
 36 39  1  1
 36 37  1  0
 38 36  1  0
 40 43  1  0
 41 45  1  0
 41 40  1  0
 42 41  2  0
 45 44  1  0
 47 45  1  0
 47 48  1  0
 47 46  1  0
 49 54  1  0
 49  2  1  0
 51 50  1  0
 52 54  2  0
 52 55  1  0
 53 56  1  0
 53 50  2  0
 54 53  1  0
 55 51  2  0
 57 65  1  0
 58 63  1  0
 59 60  1  0
 59 58  1  0
 61 60  1  0
 61 70  1  0
 61 62  1  0
 63 57  1  0
 63 62  1  0
 64 57  2  0
 65 55  1  0
 65 66  1  0
 67 68  2  0
 68 87  1  0
 69 68  1  0
 69 72  1  0
 70 71  1  0
 70 67  1  0
 71 69  2  0
 72 73  1  0
 73 74  2  0
 75 78  1  0
 75 74  1  0
 76 75  2  0
 77 76  1  0
 77 72  2  0
 78 79  1  0
 79 80  1  0
 80 81  2  0
 82 81  1  0
 82 86  1  0
 83 82  2  0
 84 79  2  0
 84 83  1  0
 85 84  1  0
 87 88  1  0
 88 91  1  0
 88 90  1  0
 89 87  2  0
 92 93  1  0
 92 67  1  0
 94 92  1  0
M  ISO  4   5 101   8 101  57 100  65 100
M  END
>  <TORSDO>  (19) 
F 19

>  <SCORE>  (19) 
-14.434

>  <name>  (19) 
18

>  <ligand_id>  (19) 
18

>  <original_smiles>  (19) 
[H]C(Oc1c([H])c([H])c2c(c1[H])C([H])([H])N(C(=O)C([H])(N([H])C(=O)C([H])(N([H])C([H])([H])[H])C([H])([H])[H])C(C([H])([H])[H])(C([H])([H])[H])C([H])([H])[H])C([H])(C(=O)N([H])C1([H])c3c([H])c([H])c([H])c([H])c3C([H])([H])C([H])([H])C1([H])[H])C2([H])[H])=C(C(=O)N([H])C([H])([H])c1c([H])c(N([H])C(=O)N2C([H])([H])C([H])([H])C([H])([H])C([H])(n3nc(-c4c([H])c([H])c(Oc5c([H])c([H])c(F)c([H])c5F)c([H])c4[H])c(C(=O)N([H])[H])c3N([H])[H])C2([H])[H])c([H])c([H])c1C([H])([H])[H])C([H])([H])[H]

>  <smiles>  (19) 
[H]C(Oc1c([H])c([H])c2c(c1[H])C([H])([H])N(C(=O)C([H])(N([H])C(=O)C([H])(N([H])C([H])([H])[H])C([H])([H])[H])C(C([H])([H])[H])(C([H])([H])[H])C([H])([H])[H])C([H])(C(=O)N([H])C1([H])c3c([H])c([H])c([H])c([H])c3C([H])([H])C([H])([H])C1([H])[H])C2([H])[H])=C(C(=O)N([H])C([H])([H])c1c([H])c(N([H])C(=O)N2C([H])([H])C([H])([H])C([H])([H])C([H])(n3nc(-c4c([H])c([H])c(Oc5c([H])c([H])c(F)c([H])c5F)c([H])c4[H])c(C(=O)N([H])[H])c3N([H])[H])C2([H])[H])c([H])c([H])c1C([H])([H])[H])C([H])([H])[H]

$$$$
19:0:0
     RDKit          3D

105115  0  0  1  0  0  0  0  0999 V2000
  -29.1910  -23.9700   19.3750 C   0  0  0  0  0  0  0  0  0  0  0  0
  -29.3370  -24.0580   18.0340 C   0  0  0  0  0  3  0  0  0  0  0  0
  -26.7560  -22.6260   21.8090 C   0  0  0  0  0  2  0  0  0  0  0  0
  -27.6230  -23.8330   22.2200 C   0  0  0  0  0  2  0  0  0  0  0  0
  -26.8450  -22.1940   20.3300 C   0  0  0  0  0  2  0  0  0  0  0  0
  -27.5520  -25.0260   21.2450 C   0  0  0  0  0  2  0  0  0  0  0  0
  -28.2000  -21.6180   19.8890 C   0  0  0  0  0  2  0  0  0  0  0  0
  -28.7470  -25.2330   20.2750 C   0  0  0  0  0  3  0  0  0  0  0  0
  -29.3310  -22.5600   20.1070 N   0  0  1  0  0  4  0  0  0  0  0  0
  -29.1150  -22.8180   21.0600 H   0  0  0  0  0  0  0  0  0  0  0  0
  -30.2680  -23.0060   15.9500 C   0  0  0  0  0  0  0  0  0  0  0  0
  -29.6500  -22.9440   17.1460 C   0  0  0  0  0  3  0  0  0  0  0  0
  -30.5800  -21.7510   15.1490 C   0  0  0  0  0  2  0  0  0  0  0  0
  -30.7900  -24.2710   15.2900 C   0  0  0  0  0  2  0  0  0  0  0  0
  -32.0960  -21.6270   14.8940 C   0  0  0  0  0  2  0  0  0  0  0  0
  -32.3110  -24.1670   15.1060 C   0  0  0  0  0  2  0  0  0  0  0  0
  -32.6970  -22.9150   14.2960 C   0  0  0  0  0  2  0  0  0  0  0  0
  -28.6550  -26.6280   19.6770 O   0  0  0  0  0  0  0  0  0  0  0  0
  -24.7570  -31.7010   23.1550 C   0  0  0  0  0  0  0  0  0  0  0  0
  -27.5070  -27.4540   19.7620 C   0  0  0  0  0  0  0  0  0  0  0  0
  -23.5980  -30.4130   21.3910 C   0  0  0  0  0  3  0  0  0  0  0  0
  -25.1000  -29.0230   19.8490 C   0  0  0  0  0  0  0  0  0  0  0  0
  -26.1270  -30.8170   21.2460 C   0  0  0  0  0  2  0  0  0  0  0  0
  -26.2520  -29.4910   20.4940 C   0  0  0  0  0  0  0  0  0  0  0  0
  -27.4620  -28.7240   20.4340 C   0  0  0  0  0  3  0  0  0  0  0  0
  -26.3320  -27.0450   19.1020 C   0  0  0  0  0  3  0  0  0  0  0  0
  -25.1460  -27.8120   19.1380 C   0  0  0  0  0  3  0  0  0  0  0  0
  -23.8370  -29.8600   19.9580 C   0  0  0  0  0  2  0  0  0  0  0  0
  -24.8450  -30.9960   21.9870 N   0  0  0  0  0  0  0  0  0  0  0  0
  -23.6650  -31.8910   23.7120 O   0  0  0  0  0  0  0  0  0  0  0  0
  -22.9660  -29.3010   22.2630 C   0  0  0  0  0  0  0  0  0  0  0  0
  -21.6610  -29.0440   22.0690 N   0  0  0  0  0  0  0  0  0  0  0  0
  -23.6530  -28.6730   23.0730 O   0  0  0  0  0  0  0  0  0  0  0  0
  -21.1610  -29.6070   21.3950 H   0  0  0  0  0  0  0  0  0  0  0  0
  -18.3280  -27.6900   22.4600 C   0  0  0  0  0  0  0  0  0  0  0  0
  -20.8800  -28.0070   22.7470 C   0  0  0  0  0  3  0  0  0  0  0  0
  -21.0250  -26.6450   22.0280 C   0  0  0  0  0  2  0  0  0  0  0  0
  -19.9260  -26.3900   20.9910 C   0  0  0  0  0  2  0  0  0  0  0  0
  -18.5450  -26.4240   21.6490 C   0  0  0  0  0  2  0  0  0  0  0  0
  -19.4240  -28.4440   22.9610 C   0  0  0  0  0  0  0  0  0  0  0  0
  -19.1640  -29.6340   23.6760 C   0  0  0  0  0  3  0  0  0  0  0  0
  -17.8430  -30.0650   23.9000 C   0  0  0  0  0  3  0  0  0  0  0  0
  -16.7630  -29.3060   23.4150 C   0  0  0  0  0  3  0  0  0  0  0  0
  -17.0070  -28.1230   22.6990 C   0  0  0  0  0  3  0  0  0  0  0  0
  -26.0180  -32.3200   23.8340 C   0  0  0  0  0  3  0  0  0  0  0  0
  -26.5610  -31.4560   25.0360 C   0  0  1  0  0  0  0  0  0  0  0  0
  -25.4670  -31.0340   26.0460 C   0  0  0  0  0  1  0  0  0  0  0  0
  -27.2430  -30.1660   24.5220 C   0  0  0  0  0  1  0  0  0  0  0  0
  -27.6390  -32.2490   25.8090 C   0  0  0  0  0  1  0  0  0  0  0  0
  -25.6650  -33.6720   24.2940 N   0  0  0  0  0  0  0  0  0  0  0  0
  -25.9480  -34.8010   23.6300 C   0  0  0  0  0  0  0  0  0  0  0  0
  -26.6010  -34.8160   22.5830 O   0  0  0  0  0  0  0  0  0  0  0  0
  -25.1020  -33.7320   25.1280 H   0  0  0  0  0  0  0  0  0  0  0  0
  -24.1580  -36.5600   23.4470 C   0  0  0  0  0  1  0  0  0  0  0  0
  -25.4180  -36.1260   24.2140 C   0  0  0  0  0  3  0  0  0  0  0  0
  -27.5220  -37.0070   25.1270 C   0  0  0  0  0  1  0  0  0  0  0  0
  -26.4150  -37.2190   24.1980 N   0  0  0  0  0  0  0  0  0  0  0  0
  -25.9770  -38.1080   24.4270 H   0  0  0  0  0  0  0  0  0  0  0  0
  -30.6570  -21.8110   20.4200 C   0  0  0  0  0  2  0  0  0  0  0  0
  -32.7810  -19.2120   18.3950 C   0  0  0  0  0  3  0  0  0  0  0  0
  -32.4850  -17.9560   18.9410 C   0  0  0  0  0  3  0  0  0  0  0  0
  -32.1730  -20.3990   18.8500 C   0  0  0  0  0  0  0  0  0  0  0  0
  -31.1530  -20.3740   19.8470 C   0  0  0  0  0  0  0  0  0  0  0  0
  -30.8670  -19.0330   20.4120 C   0  0  0  0  0  0  0  0  0  0  0  0
  -31.5570  -17.8050   19.9890 C   0  0  0  0  0  0  0  0  0  0  0  0
  -32.7750  -21.6800   18.2830 C   0  0  0  0  0  1  0  0  0  0  0  0
  -29.8780  -18.8670   21.5570 C   0  0  0  0  0  1  0  0  0  0  0  0
  -31.9890  -15.2250   20.1710 C   0  0  0  0  0  0  0  0  0  0  0  0
  -31.6570  -12.9530   19.1720 C   0  0  0  0  0  2  0  0  0  0  0  0
  -30.7700  -13.0960   17.9150 C   0  0  0  0  0  2  0  0  0  0  0  0
  -29.2780  -13.0270   18.2960 C   0  0  0  0  0  2  0  0  0  0  0  0
  -28.9300  -13.9350   19.5080 C   0  0  0  0  0  3  0  0  0  0  0  0
  -29.9460  -13.7780   20.6620 C   0  0  0  0  0  2  0  0  0  0  0  0
  -31.2830  -14.0370   20.1170 N   0  0  0  0  0  0  0  0  0  0  0  0
  -33.1680  -15.2340   19.8090 O   0  0  0  0  0  0  0  0  0  0  0  0
  -31.3310  -16.4150   20.5010 N   0  0  0  0  0  0  0  0  0  0  0  0
  -30.4790  -16.2870   21.0270 H   0  0  0  0  0  0  0  0  0  0  0  0
  -26.5590  -14.6860   20.1320 C   0  0  0  0  0  0  0  0  0  0  0  0
  -25.4400  -13.9870   20.4960 C   0  0  0  0  0  0  0  0  0  0  0  0
  -25.8220  -12.6100   20.5240 C   0  0  0  0  0  0  0  0  0  0  0  0
  -27.5560  -13.7380   19.9590 N   0  0  0  0  0  0  0  0  0  0  0  0
  -27.1170  -12.4880   20.2580 N   0  0  0  0  0  0  0  0  0  0  0  0
  -25.0160  -11.3990   20.7320 C   0  0  0  0  0  0  0  0  0  0  0  0
  -25.3670  -10.4350   21.7030 C   0  0  0  0  0  3  0  0  0  0  0  0
  -24.5650   -9.2890   21.8980 C   0  0  0  0  0  3  0  0  0  0  0  0
  -23.3960   -9.1010   21.1220 C   0  0  0  0  0  0  0  0  0  0  0  0
  -23.0640  -10.0530   20.1420 C   0  0  0  0  0  3  0  0  0  0  0  0
  -23.8650  -11.1890   19.9450 C   0  0  0  0  0  3  0  0  0  0  0  0
  -22.5700   -8.0070   21.2260 O   0  0  0  0  0  0  0  0  0  0  0  0
  -22.2630   -7.4510   22.4410 C   0  0  0  0  0  0  0  0  0  0  0  0
  -21.6490   -8.1990   23.4700 C   0  0  0  0  0  3  0  0  0  0  0  0
  -21.2850   -7.5700   24.6770 C   0  0  0  0  0  3  0  0  0  0  0  0
  -21.5250   -6.1940   24.8540 C   0  0  0  0  0  0  0  0  0  0  0  0
  -22.1330   -5.4470   23.8300 C   0  0  0  0  0  3  0  0  0  0  0  0
  -22.4970   -6.0740   22.6240 C   0  0  0  0  0  0  0  0  0  0  0  0
  -23.0610   -5.3440   21.6330 F   0  0  0  0  0  0  0  0  0  0  0  0
  -21.1700   -5.5870   26.0110 F   0  0  0  0  0  0  0  0  0  0  0  0
  -24.0660  -14.5520   20.7060 C   0  0  0  0  0  0  0  0  0  0  0  0
  -23.3010  -13.9900   21.6350 N   0  0  0  0  0  0  0  0  0  0  0  0
  -23.6770  -15.5330   20.0740 O   0  0  0  0  0  0  0  0  0  0  0  0
  -23.6260  -13.1980   22.1700 H   0  0  0  0  0  0  0  0  0  0  0  0
  -22.3780  -14.3560   21.8140 H   0  0  0  0  0  0  0  0  0  0  0  0
  -26.8060  -16.0380   19.9140 N   0  0  0  0  0  0  0  0  0  0  0  0
  -26.0650  -16.7290   19.9730 H   0  0  0  0  0  0  0  0  0  0  0  0
  -27.6830  -16.4270   19.5870 H   0  0  0  0  0  0  0  0  0  0  0  0
  1  9  1  0
  1  8  1  0
  2  1  2  0
  3  4  1  0
  5  3  1  0
  6  4  1  0
  7  9  1  0
  7  5  1  0
  8 18  1  0
  8  6  1  0
  9 59  1  0
  9 10  1  1
 11 12  2  0
 12  2  1  0
 13 11  1  0
 14 11  1  0
 15 13  1  0
 16 14  1  0
 17 15  1  0
 17 16  1  0
 18 20  1  0
 19 30  2  0
 20 25  1  0
 21 29  1  0
 21 31  1  0
 22 28  1  0
 22 24  1  0
 23 29  1  0
 24 23  1  0
 25 24  2  0
 26 27  1  0
 26 20  2  0
 27 22  2  0
 28 21  1  0
 29 19  1  0
 31 33  2  0
 32 31  1  0
 34 32  1  0
 35 44  2  0
 35 40  1  0
 36 32  1  0
 36 40  1  0
 37 36  1  0
 38 39  1  0
 38 37  1  0
 39 35  1  0
 40 41  2  0
 41 42  1  0
 43 42  2  0
 44 43  1  0
 45 19  1  0
 45 50  1  0
 45 46  1  0
 46 49  1  1
 46 47  1  0
 48 46  1  0
 50 53  1  0
 51 55  1  0
 51 50  1  0
 52 51  2  0
 55 54  1  0
 57 55  1  0
 57 58  1  0
 57 56  1  0
 60 62  2  0
 60 61  1  0
 61 65  2  0
 62 63  1  0
 63 64  2  0
 63 59  1  0
 64 67  1  0
 65 64  1  0
 65 76  1  0
 66 62  1  0
 68 76  1  0
 69 74  1  0
 70 71  1  0
 70 69  1  0
 72 71  1  0
 72 81  1  0
 72 73  1  0
 74 68  1  0
 74 73  1  0
 75 68  2  0
 76 77  1  0
 78 79  2  0
 79 80  1  0
 79 98  1  0
 80 83  1  0
 81 78  1  0
 81 82  1  0
 82 80  2  0
 83 84  1  0
 84 85  2  0
 86 89  1  0
 86 85  1  0
 87 86  2  0
 88 87  1  0
 88 83  2  0
 89 90  1  0
 90 95  2  0
 90 91  1  0
 91 92  2  0
 92 93  1  0
 93 97  1  0
 94 93  2  0
 95 94  1  0
 96 95  1  0
 98 99  1  0
 99102  1  0
 99101  1  0
100 98  2  0
103104  1  0
103 78  1  0
105103  1  0
M  ISO  4   8 101  18 101  68 100  76 100
M  END
>  <TORSDO>  (20) 
F 19

>  <SCORE>  (20) 
-10.772

>  <name>  (20) 
19

>  <ligand_id>  (20) 
19

>  <original_smiles>  (20) 
[H]C(C([H])=C1C([H])(Oc2c([H])c([H])c3c(c2[H])C([H])([H])N(C(=O)C([H])(N([H])C(=O)C([H])(N([H])C([H])([H])[H])C([H])([H])[H])C(C([H])([H])[H])(C([H])([H])[H])C([H])([H])[H])C([H])(C(=O)N([H])C2([H])c4c([H])c([H])c([H])c([H])c4C([H])([H])C([H])([H])C2([H])[H])C3([H])[H])C([H])([H])C([H])([H])C([H])([H])C([H])([H])C([H])([H])[N+]1([H])C([H])([H])c1c(C([H])([H])[H])c([H])c([H])c(N([H])C(=O)N2C([H])([H])C([H])([H])C([H])([H])C([H])(n3nc(-c4c([H])c([H])c(Oc5c([H])c([H])c(F)c([H])c5F)c([H])c4[H])c(C(=O)N([H])[H])c3N([H])[H])C2([H])[H])c1C([H])([H])[H])=C1C([H])([H])C([H])([H])C([H])([H])C([H])([H])C1([H])[H]

>  <smiles>  (20) 
[H]C(C([H])=C1C([H])(Oc2c([H])c([H])c3c(c2[H])C([H])([H])N(C(=O)C([H])(N([H])C(=O)C([H])(N([H])C([H])([H])[H])C([H])([H])[H])C(C([H])([H])[H])(C([H])([H])[H])C([H])([H])[H])C([H])(C(=O)N([H])C2([H])c4c([H])c([H])c([H])c([H])c4C([H])([H])C([H])([H])C2([H])[H])C3([H])[H])C([H])([H])C([H])([H])C([H])([H])C([H])([H])C([H])([H])[N+]1([H])C([H])([H])c1c(C([H])([H])[H])c([H])c([H])c(N([H])C(=O)N2C([H])([H])C([H])([H])C([H])([H])C([H])(n3nc(-c4c([H])c([H])c(Oc5c([H])c([H])c(F)c([H])c5F)c([H])c4[H])c(C(=O)N([H])[H])c3N([H])[H])C2([H])[H])c1C([H])([H])[H])=C1C([H])([H])C([H])([H])C([H])([H])C([H])([H])C1([H])[H]

$$$$
20:0:0
     RDKit          3D

 98107  0  0  1  0  0  0  0  0999 V2000
  -29.6050  -24.6530   20.3370 C   0  0  0  0  0  2  0  0  0  0  0  0
  -28.9530  -25.4760   19.4760 C   0  0  0  0  0  0  0  0  0  0  0  0
  -30.4480  -23.4970   20.0180 C   0  0  0  0  0  0  0  0  0  0  0  0
  -31.7840  -23.6580   19.9330 C   0  0  0  0  0  3  0  0  0  0  0  0
  -28.8280  -25.3270   17.9490 C   0  0  0  0  0  3  0  0  0  0  0  0
  -29.5620  -24.1500   17.2690 C   0  0  0  0  0  2  0  0  0  0  0  0
  -28.9300  -22.7400   17.4370 C   0  0  0  0  0  2  0  0  0  0  0  0
  -28.6640  -22.1920   18.8670 C   0  0  0  0  0  2  0  0  0  0  0  0
  -32.8170  -22.6050   19.5730 C   0  0  0  0  0  1  0  0  0  0  0  0
  -29.8770  -22.1410   19.7220 N   0  0  2  0  0  4  0  0  0  0  0  0
  -30.5710  -21.6640   19.1660 H   0  0  0  0  0  0  0  0  0  0  0  0
  -28.6420  -26.7350   19.9650 O   0  0  0  0  0  0  0  0  0  0  0  0
  -24.5710  -31.7130   22.9880 C   0  0  0  0  0  0  0  0  0  0  0  0
  -27.4080  -27.3660   19.9130 C   0  0  0  0  0  0  0  0  0  0  0  0
  -23.4360  -30.2890   21.3160 C   0  0  0  0  0  3  0  0  0  0  0  0
  -24.9570  -28.8010   19.9080 C   0  0  0  0  0  0  0  0  0  0  0  0
  -25.9520  -30.7270   21.1550 C   0  0  0  0  0  2  0  0  0  0  0  0
  -26.0910  -29.3640   20.5040 C   0  0  0  0  0  0  0  0  0  0  0  0
  -27.3150  -28.6560   20.4940 C   0  0  0  0  0  3  0  0  0  0  0  0
  -26.2360  -26.7990   19.3650 C   0  0  0  0  0  3  0  0  0  0  0  0
  -25.0250  -27.5190   19.3380 C   0  0  0  0  0  3  0  0  0  0  0  0
  -23.6870  -29.6210   19.9380 C   0  0  0  0  0  2  0  0  0  0  0  0
  -24.6710  -30.9250   21.8780 N   0  0  0  0  0  0  0  0  0  0  0  0
  -23.4720  -31.9480   23.5100 O   0  0  0  0  0  0  0  0  0  0  0  0
  -22.7990  -29.2430   22.2590 C   0  0  0  0  0  0  0  0  0  0  0  0
  -21.4730  -29.0650   22.1460 N   0  0  0  0  0  0  0  0  0  0  0  0
  -23.4940  -28.5940   23.0460 O   0  0  0  0  0  0  0  0  0  0  0  0
  -20.9750  -29.6370   21.4780 H   0  0  0  0  0  0  0  0  0  0  0  0
  -18.0960  -27.9040   22.7010 C   0  0  0  0  0  0  0  0  0  0  0  0
  -20.6650  -28.1060   22.8990 C   0  0  0  0  0  3  0  0  0  0  0  0
  -20.7240  -26.7030   22.2530 C   0  0  0  0  0  2  0  0  0  0  0  0
  -19.5820  -26.4460   21.2640 C   0  0  0  0  0  2  0  0  0  0  0  0
  -18.2250  -26.5840   21.9590 C   0  0  0  0  0  2  0  0  0  0  0  0
  -19.2410  -28.6270   23.1280 C   0  0  0  0  0  0  0  0  0  0  0  0
  -19.0660  -29.8660   23.7800 C   0  0  0  0  0  3  0  0  0  0  0  0
  -17.7760  -30.3810   24.0120 C   0  0  0  0  0  3  0  0  0  0  0  0
  -16.6460  -29.6540   23.6010 C   0  0  0  0  0  3  0  0  0  0  0  0
  -16.8060  -28.4170   22.9530 C   0  0  0  0  0  3  0  0  0  0  0  0
  -25.8250  -32.3790   23.6360 C   0  0  0  0  0  3  0  0  0  0  0  0
  -25.4540  -33.7500   24.0120 N   0  0  0  0  0  0  0  0  0  0  0  0
  -25.7740  -34.8430   23.3090 C   0  0  0  0  0  0  0  0  0  0  0  0
  -26.4830  -34.8070   22.2990 O   0  0  0  0  0  0  0  0  0  0  0  0
  -24.8250  -33.8490   24.7950 H   0  0  0  0  0  0  0  0  0  0  0  0
  -24.0080  -36.5980   22.9530 C   0  0  0  0  0  1  0  0  0  0  0  0
  -25.2200  -36.1920   23.8060 C   0  0  0  0  0  3  0  0  0  0  0  0
  -27.2790  -37.1040   24.7850 C   0  0  0  0  0  1  0  0  0  0  0  0
  -26.2220  -37.2810   23.7930 N   0  0  0  0  0  0  0  0  0  0  0  0
  -25.7780  -38.1800   23.9600 H   0  0  0  0  0  0  0  0  0  0  0  0
  -26.3720  -31.5870   24.8870 C   0  0  1  0  0  0  0  0  0  0  0  0
  -25.2870  -31.2500   25.9350 C   0  0  0  0  0  1  0  0  0  0  0  0
  -27.0290  -30.2590   24.4430 C   0  0  0  0  0  1  0  0  0  0  0  0
  -27.4770  -32.4130   25.5870 C   0  0  0  0  0  1  0  0  0  0  0  0
  -29.7490  -21.2740   20.9330 C   0  0  0  0  0  2  0  0  0  0  0  0
  -31.1640  -19.1240   21.0550 C   0  0  0  0  0  3  0  0  0  0  0  0
  -31.3020  -17.7110   21.0570 C   0  0  0  0  0  3  0  0  0  0  0  0
  -28.9820  -17.5080   20.3930 C   0  0  0  0  0  3  0  0  0  0  0  0
  -29.9310  -19.7500   20.7370 C   0  0  0  0  0  0  0  0  0  0  0  0
  -30.1990  -16.8810   20.7450 C   0  0  0  0  0  0  0  0  0  0  0  0
  -28.8430  -18.9140   20.3780 C   0  0  0  0  0  0  0  0  0  0  0  0
  -27.3010  -19.5780   19.9620 Cl  0  0  0  0  0  0  0  0  0  0  0  0
  -30.9240  -14.5130   20.1700 C   0  0  0  0  0  0  0  0  0  0  0  0
  -30.5770  -12.3940   18.9420 C   0  0  0  0  0  2  0  0  0  0  0  0
  -29.5620  -12.6620   17.8090 C   0  0  0  0  0  2  0  0  0  0  0  0
  -28.1100  -12.5370   18.3150 C   0  0  0  0  0  2  0  0  0  0  0  0
  -27.8650  -13.3130   19.6360 C   0  0  0  0  0  3  0  0  0  0  0  0
  -28.9760  -12.9900   20.6630 C   0  0  0  0  0  2  0  0  0  0  0  0
  -30.2740  -13.3210   20.0430 N   0  0  0  0  0  0  0  0  0  0  0  0
  -32.0190  -14.7390   19.6450 O   0  0  0  0  0  0  0  0  0  0  0  0
  -30.2000  -15.4490   20.8220 N   0  0  0  0  0  0  0  0  0  0  0  0
  -29.3630  -15.0550   21.2230 H   0  0  0  0  0  0  0  0  0  0  0  0
  -25.5220  -13.9500   20.4920 C   0  0  0  0  0  0  0  0  0  0  0  0
  -24.4570  -13.1890   20.8940 C   0  0  0  0  0  0  0  0  0  0  0  0
  -24.8820  -11.8290   20.7860 C   0  0  0  0  0  0  0  0  0  0  0  0
  -26.5320  -13.0550   20.1750 N   0  0  0  0  0  0  0  0  0  0  0  0
  -26.1520  -11.7720   20.4040 N   0  0  0  0  0  0  0  0  0  0  0  0
  -24.1350  -10.5780   20.9680 C   0  0  0  0  0  0  0  0  0  0  0  0
  -24.5530   -9.5970   21.8950 C   0  0  0  0  0  3  0  0  0  0  0  0
  -23.8090   -8.4100   22.0640 C   0  0  0  0  0  3  0  0  0  0  0  0
  -22.6330   -8.1960   21.3070 C   0  0  0  0  0  0  0  0  0  0  0  0
  -22.2350   -9.1640   20.3680 C   0  0  0  0  0  3  0  0  0  0  0  0
  -22.9790  -10.3430   20.1970 C   0  0  0  0  0  3  0  0  0  0  0  0
  -21.8610   -7.0620   21.3880 O   0  0  0  0  0  0  0  0  0  0  0  0
  -21.7480   -6.3480   22.5530 C   0  0  0  0  0  0  0  0  0  0  0  0
  -21.2590   -6.9350   23.7400 C   0  0  0  0  0  3  0  0  0  0  0  0
  -21.0940   -6.1500   24.8980 C   0  0  0  0  0  3  0  0  0  0  0  0
  -21.4080   -4.7760   24.8680 C   0  0  0  0  0  0  0  0  0  0  0  0
  -21.8900   -4.1890   23.6850 C   0  0  0  0  0  3  0  0  0  0  0  0
  -22.0550   -4.9730   22.5300 C   0  0  0  0  0  0  0  0  0  0  0  0
  -22.4990   -4.3980   21.3870 F   0  0  0  0  0  0  0  0  0  0  0  0
  -21.2420   -4.0180   25.9770 F   0  0  0  0  0  0  0  0  0  0  0  0
  -23.0890  -13.6840   21.2630 C   0  0  0  0  0  0  0  0  0  0  0  0
  -22.4020  -12.9790   22.1550 N   0  0  0  0  0  0  0  0  0  0  0  0
  -22.6400  -14.7300   20.7950 O   0  0  0  0  0  0  0  0  0  0  0  0
  -22.7800  -12.1310   22.5510 H   0  0  0  0  0  0  0  0  0  0  0  0
  -21.4860  -13.2910   22.4460 H   0  0  0  0  0  0  0  0  0  0  0  0
  -25.7080  -15.3220   20.3530 N   0  0  0  0  0  0  0  0  0  0  0  0
  -24.9490  -15.9770   20.5040 H   0  0  0  0  0  0  0  0  0  0  0  0
  -26.5160  -15.7470   19.9190 H   0  0  0  0  0  0  0  0  0  0  0  0
  2 12  1  0
  2  1  1  0
  3  1  1  0
  4  3  2  0
  5  2  2  0
  6  7  1  0
  6  5  1  0
  7  8  1  0
  8 10  1  0
  9  4  1  0
 10  3  1  0
 10 53  1  0
 10 11  1  6
 13 24  2  0
 14 12  1  0
 14 19  1  0
 15 23  1  0
 15 25  1  0
 16 22  1  0
 16 18  1  0
 17 23  1  0
 18 17  1  0
 19 18  2  0
 20 14  2  0
 21 20  1  0
 21 16  2  0
 22 15  1  0
 23 13  1  0
 25 27  2  0
 26 25  1  0
 28 26  1  0
 29 38  2  0
 29 34  1  0
 30 26  1  0
 30 34  1  0
 31 30  1  0
 32 33  1  0
 32 31  1  0
 33 29  1  0
 34 35  2  0
 35 36  1  0
 37 36  2  0
 38 37  1  0
 39 13  1  0
 39 40  1  0
 39 49  1  0
 40 43  1  0
 41 45  1  0
 41 40  1  0
 42 41  2  0
 45 44  1  0
 47 45  1  0
 47 48  1  0
 47 46  1  0
 49 52  1  1
 49 50  1  0
 51 49  1  0
 54 55  1  0
 56 58  1  0
 57 53  1  0
 57 54  2  0
 58 69  1  0
 58 55  2  0
 59 56  2  0
 59 57  1  0
 60 59  1  0
 61 69  1  0
 62 67  1  0
 63 64  1  0
 63 62  1  0
 65 64  1  0
 65 74  1  0
 65 66  1  0
 67 61  1  0
 67 66  1  0
 68 61  2  0
 69 70  1  0
 71 72  2  0
 72 91  1  0
 73 72  1  0
 73 76  1  0
 74 75  1  0
 74 71  1  0
 75 73  2  0
 76 77  1  0
 77 78  2  0
 79 82  1  0
 79 78  1  0
 80 79  2  0
 81 80  1  0
 81 76  2  0
 82 83  1  0
 83 84  1  0
 84 85  2  0
 86 85  1  0
 86 90  1  0
 87 86  2  0
 88 83  2  0
 88 87  1  0
 89 88  1  0
 91 92  1  0
 92 95  1  0
 92 94  1  0
 93 91  2  0
 96 71  1  0
 96 97  1  0
 98 96  1  0
M  ISO  4   2 101  12 101  61 100  69 100
M  END
>  <TORSDO>  (21) 
F 18

>  <SCORE>  (21) 
-14.447

>  <name>  (21) 
20

>  <ligand_id>  (21) 
20

>  <original_smiles>  (21) 
[H]C1=C(Oc2c([H])c([H])c3c(c2[H])C([H])([H])N(C(=O)C([H])(N([H])C(=O)C([H])(N([H])C([H])([H])[H])C([H])([H])[H])C(C([H])([H])[H])(C([H])([H])[H])C([H])([H])[H])C([H])(C(=O)N([H])C2([H])c4c([H])c([H])c([H])c([H])c4C([H])([H])C([H])([H])C2([H])[H])C3([H])[H])C([H])([H])C([H])([H])C([H])([H])C([H])([H])[N+]([H])(C([H])([H])c2c([H])c([H])c(N([H])C(=O)N3C([H])([H])C([H])([H])C([H])([H])C([H])(n4nc(-c5c([H])c([H])c(Oc6c([H])c([H])c(F)c([H])c6F)c([H])c5[H])c(C(=O)N([H])[H])c4N([H])[H])C3([H])[H])c([H])c2Cl)C1=C([H])C([H])([H])[H]

>  <smiles>  (21) 
[H]C1=C(Oc2c([H])c([H])c3c(c2[H])C([H])([H])N(C(=O)C([H])(N([H])C(=O)C([H])(N([H])C([H])([H])[H])C([H])([H])[H])C(C([H])([H])[H])(C([H])([H])[H])C([H])([H])[H])C([H])(C(=O)N([H])C2([H])c4c([H])c([H])c([H])c([H])c4C([H])([H])C([H])([H])C2([H])[H])C3([H])[H])C([H])([H])C([H])([H])C([H])([H])C([H])([H])[N+]([H])(C([H])([H])c2c([H])c([H])c(N([H])C(=O)N3C([H])([H])C([H])([H])C([H])([H])C([H])(n4nc(-c5c([H])c([H])c(Oc6c([H])c([H])c(F)c([H])c6F)c([H])c5[H])c(C(=O)N([H])[H])c4N([H])[H])C3([H])[H])c([H])c2Cl)C1=C([H])C([H])([H])[H]

$$$$
21:0:0
     RDKit          3D

 94102  0  0  1  0  0  0  0  0999 V2000
  -30.4850  -18.3130   20.4470 C   0  0  0  0  0  3  0  0  0  0  0  0
  -28.1600  -19.8050   19.9590 C   0  0  0  0  0  3  0  0  0  0  0  0
  -30.5710  -19.7120   20.2360 C   0  0  0  0  0  0  0  0  0  0  0  0
  -29.2470  -17.6320   20.4030 C   0  0  0  0  0  0  0  0  0  0  0  0
  -29.4110  -20.4620   19.9000 C   0  0  0  0  0  0  0  0  0  0  0  0
  -28.0730  -18.4180   20.2350 C   0  0  0  0  0  0  0  0  0  0  0  0
  -31.9410  -20.3630   20.3110 C   0  0  0  0  0  1  0  0  0  0  0  0
  -26.5060  -17.6920   20.3230 Cl  0  0  0  0  0  0  0  0  0  0  0  0
  -29.1640  -16.0880   20.4700 C   0  0  0  0  0  2  0  0  0  0  0  0
  -30.7810  -14.2740   19.6390 C   0  0  0  0  0  0  0  0  0  0  0  0
  -30.4650  -11.9260   18.9270 C   0  0  0  0  0  2  0  0  0  0  0  0
  -29.4340  -11.8230   17.7850 C   0  0  0  0  0  2  0  0  0  0  0  0
  -28.0150  -11.6980   18.3600 C   0  0  0  0  0  2  0  0  0  0  0  0
  -27.7140  -12.7740   19.4320 C   0  0  0  0  0  3  0  0  0  0  0  0
  -28.8500  -12.8380   20.4790 C   0  0  0  0  0  2  0  0  0  0  0  0
  -30.1130  -13.0900   19.7680 N   0  0  0  0  0  0  0  0  0  0  0  0
  -31.8010  -14.3660   18.9530 O   0  0  0  0  0  0  0  0  0  0  0  0
  -30.4370  -15.3510   20.3790 N   0  0  0  0  0  0  0  0  0  0  0  0
  -31.2150  -15.9920   20.4290 H   0  0  0  0  0  0  0  0  0  0  0  0
  -25.4470  -13.4850   20.4120 C   0  0  0  0  0  0  0  0  0  0  0  0
  -24.3910  -12.7650   20.8930 C   0  0  0  0  0  0  0  0  0  0  0  0
  -24.7710  -11.3900   20.7880 C   0  0  0  0  0  0  0  0  0  0  0  0
  -26.4120  -12.5590   20.0530 N   0  0  0  0  0  0  0  0  0  0  0  0
  -26.0150  -11.2900   20.3320 N   0  0  0  0  0  0  0  0  0  0  0  0
  -24.0060  -10.1630   21.0380 C   0  0  0  0  0  0  0  0  0  0  0  0
  -24.4690   -9.1690   21.9280 C   0  0  0  0  0  3  0  0  0  0  0  0
  -23.6990   -8.0090   22.1680 C   0  0  0  0  0  3  0  0  0  0  0  0
  -22.4550   -7.8370   21.5180 C   0  0  0  0  0  0  0  0  0  0  0  0
  -22.0110   -8.8210   20.6160 C   0  0  0  0  0  3  0  0  0  0  0  0
  -22.7790   -9.9690   20.3760 C   0  0  0  0  0  3  0  0  0  0  0  0
  -21.6570   -6.7280   21.6660 O   0  0  0  0  0  0  0  0  0  0  0  0
  -21.6510   -5.9970   22.8250 C   0  0  0  0  0  0  0  0  0  0  0  0
  -21.3180   -6.5750   24.0690 C   0  0  0  0  0  3  0  0  0  0  0  0
  -21.2580   -5.7700   25.2250 C   0  0  0  0  0  3  0  0  0  0  0  0
  -21.5170   -4.3880   25.1350 C   0  0  0  0  0  0  0  0  0  0  0  0
  -21.8430   -3.8120   23.8950 C   0  0  0  0  0  3  0  0  0  0  0  0
  -21.9060   -4.6120   22.7430 C   0  0  0  0  0  0  0  0  0  0  0  0
  -22.2010   -4.0480   21.5480 F   0  0  0  0  0  0  0  0  0  0  0  0
  -21.4490   -3.6130   26.2430 F   0  0  0  0  0  0  0  0  0  0  0  0
  -23.0650  -13.3140   21.3320 C   0  0  0  0  0  0  0  0  0  0  0  0
  -22.4060  -12.6570   22.2790 N   0  0  0  0  0  0  0  0  0  0  0  0
  -22.6280  -14.3690   20.8700 O   0  0  0  0  0  0  0  0  0  0  0  0
  -22.7760  -11.8090   22.6810 H   0  0  0  0  0  0  0  0  0  0  0  0
  -21.5270  -13.0170   22.6190 H   0  0  0  0  0  0  0  0  0  0  0  0
  -25.6560  -14.8470   20.2240 N   0  0  0  0  0  0  0  0  0  0  0  0
  -24.8920  -15.5020   20.3540 H   0  0  0  0  0  0  0  0  0  0  0  0
  -26.4080  -15.2150   19.6580 H   0  0  0  0  0  0  0  0  0  0  0  0
  -29.5080  -21.8980   19.3360 C   0  0  0  0  0  2  0  0  0  0  0  0
  -28.9140  -22.9740   20.1610 N   0  0  0  0  0  4  0  0  0  0  0  0
  -29.5350  -23.1310   20.9390 H   0  0  0  0  0  0  0  0  0  0  0  0
  -28.0280  -22.6660   20.5240 H   0  0  0  0  0  0  0  0  0  0  0  0
  -28.7150  -24.2650   19.4370 C   0  0  0  0  0  2  0  0  0  0  0  0
  -28.3810  -25.4340   20.3930 C   0  0  0  0  0  2  0  0  0  0  0  0
  -28.4270  -26.7100   19.7400 O   0  0  0  0  0  0  0  0  0  0  0  0
  -24.4950  -31.6330   23.0320 C   0  0  0  0  0  0  0  0  0  0  0  0
  -27.2460  -27.4100   19.7710 C   0  0  0  0  0  0  0  0  0  0  0  0
  -23.3220  -30.2750   21.3300 C   0  0  0  0  0  3  0  0  0  0  0  0
  -24.8100  -28.8390   19.8410 C   0  0  0  0  0  0  0  0  0  0  0  0
  -25.8310  -30.7130   21.1420 C   0  0  0  0  0  2  0  0  0  0  0  0
  -25.9510  -29.3710   20.4520 C   0  0  0  0  0  0  0  0  0  0  0  0
  -27.1740  -28.6650   20.4140 C   0  0  0  0  0  3  0  0  0  0  0  0
  -26.0890  -26.8830   19.1600 C   0  0  0  0  0  3  0  0  0  0  0  0
  -24.8740  -27.5920   19.1940 C   0  0  0  0  0  3  0  0  0  0  0  0
  -23.5450  -29.6640   19.9200 C   0  0  0  0  0  2  0  0  0  0  0  0
  -24.5680  -30.8870   21.8930 N   0  0  0  0  0  0  0  0  0  0  0  0
  -23.4100  -31.8480   23.5850 O   0  0  0  0  0  0  0  0  0  0  0  0
  -22.7020  -29.1950   22.2460 C   0  0  0  0  0  0  0  0  0  0  0  0
  -21.3760  -29.0160   22.1430 N   0  0  0  0  0  0  0  0  0  0  0  0
  -23.4110  -28.5270   23.0060 O   0  0  0  0  0  0  0  0  0  0  0  0
  -20.8660  -29.6170   21.5110 H   0  0  0  0  0  0  0  0  0  0  0  0
  -18.0160  -27.8010   22.6730 C   0  0  0  0  0  0  0  0  0  0  0  0
  -20.5820  -28.0270   22.8720 C   0  0  0  0  0  3  0  0  0  0  0  0
  -20.6530  -26.6380   22.1920 C   0  0  0  0  0  2  0  0  0  0  0  0
  -19.5160  -26.3940   21.1960 C   0  0  0  0  0  2  0  0  0  0  0  0
  -18.1590  -26.5030   21.8940 C   0  0  0  0  0  2  0  0  0  0  0  0
  -19.1540  -28.5250   23.1150 C   0  0  0  0  0  0  0  0  0  0  0  0
  -18.9640  -29.7450   23.8000 C   0  0  0  0  0  3  0  0  0  0  0  0
  -17.6730  -30.2400   24.0520 C   0  0  0  0  0  3  0  0  0  0  0  0
  -16.5490  -29.5120   23.6240 C   0  0  0  0  0  3  0  0  0  0  0  0
  -16.7240  -28.2950   22.9400 C   0  0  0  0  0  3  0  0  0  0  0  0
  -25.7640  -32.2690   23.6800 C   0  0  0  0  0  3  0  0  0  0  0  0
  -25.4300  -33.6520   24.0410 N   0  0  0  0  0  0  0  0  0  0  0  0
  -25.7530  -34.7290   23.3140 C   0  0  0  0  0  0  0  0  0  0  0  0
  -26.4360  -34.6610   22.2880 O   0  0  0  0  0  0  0  0  0  0  0  0
  -24.8310  -33.7770   24.8450 H   0  0  0  0  0  0  0  0  0  0  0  0
  -23.9910  -36.4960   22.9830 C   0  0  0  0  0  1  0  0  0  0  0  0
  -25.2330  -36.0980   23.7980 C   0  0  0  0  0  3  0  0  0  0  0  0
  -27.3420  -37.0060   24.6680 C   0  0  0  0  0  1  0  0  0  0  0  0
  -26.2440  -37.1740   23.7190 N   0  0  0  0  0  0  0  0  0  0  0  0
  -25.8170  -38.0830   23.8840 H   0  0  0  0  0  0  0  0  0  0  0  0
  -26.2820  -31.4740   24.9380 C   0  0  1  0  0  0  0  0  0  0  0  0
  -25.1940  -31.2020   26.0010 C   0  0  0  0  0  1  0  0  0  0  0  0
  -26.8810  -30.1140   24.5110 C   0  0  0  0  0  1  0  0  0  0  0  0
  -27.4200  -32.2660   25.6250 C   0  0  0  0  0  1  0  0  0  0  0  0
  2  6  1  0
  3  7  1  0
  3  1  2  0
  4  1  1  0
  4  9  1  0
  5  2  2  0
  5  3  1  0
  6  8  1  0
  6  4  2  0
 10 16  1  0
 10 18  1  0
 11 16  1  0
 12 13  1  0
 12 11  1  0
 14 13  1  0
 14 23  1  0
 14 15  1  0
 16 15  1  0
 17 10  2  0
 18 19  1  0
 18  9  1  0
 20 21  2  0
 21 40  1  0
 22 21  1  0
 22 25  1  0
 23 24  1  0
 23 20  1  0
 24 22  2  0
 25 26  1  0
 26 27  2  0
 28 31  1  0
 28 27  1  0
 29 28  2  0
 30 29  1  0
 30 25  2  0
 31 32  1  0
 32 33  1  0
 33 34  2  0
 35 34  1  0
 35 39  1  0
 36 35  2  0
 37 32  2  0
 37 36  1  0
 38 37  1  0
 40 41  1  0
 41 44  1  0
 41 43  1  0
 42 40  2  0
 45 46  1  0
 45 20  1  0
 47 45  1  0
 48  5  1  0
 48 49  1  0
 49 51  1  0
 49 50  1  0
 52 49  1  0
 52 53  1  0
 54 56  1  0
 54 53  1  0
 55 66  2  0
 56 61  1  0
 57 65  1  0
 57 67  1  0
 58 64  1  0
 58 60  1  0
 59 65  1  0
 60 59  1  0
 61 60  2  0
 62 63  1  0
 62 56  2  0
 63 58  2  0
 64 57  1  0
 65 55  1  0
 67 69  2  0
 68 67  1  0
 70 68  1  0
 71 80  2  0
 71 76  1  0
 72 68  1  0
 72 76  1  0
 73 72  1  0
 74 75  1  0
 74 73  1  0
 75 71  1  0
 76 77  2  0
 77 78  1  0
 79 78  2  0
 80 79  1  0
 81 55  1  0
 81 82  1  0
 81 91  1  0
 82 85  1  0
 83 87  1  0
 83 82  1  0
 84 83  2  0
 87 86  1  0
 89 87  1  0
 89 90  1  0
 89 88  1  0
 91 94  1  1
 91 92  1  0
 93 91  1  0
M  ISO  4  10 100  18 100  53 101  54 101
M  END
>  <TORSDO>  (22) 
F 21

>  <SCORE>  (22) 
-12.806

>  <name>  (22) 
21

>  <ligand_id>  (22) 
21

>  <original_smiles>  (22) 
[H]c1c([H])c([H])c2c(c1[H])C([H])([H])C([H])([H])C([H])([H])C2([H])N([H])C(=O)C1([H])N(C(=O)C([H])(N([H])C(=O)C([H])(N([H])C([H])([H])[H])C([H])([H])[H])C(C([H])([H])[H])(C([H])([H])[H])C([H])([H])[H])C([H])([H])c2c([H])c(OC([H])([H])C([H])([H])[N+]([H])([H])C([H])([H])c3c([H])c(Cl)c(C([H])([H])N([H])C(=O)N4C([H])([H])C([H])([H])C([H])([H])C([H])(n5nc(-c6c([H])c([H])c(Oc7c([H])c([H])c(F)c([H])c7F)c([H])c6[H])c(C(=O)N([H])[H])c5N([H])[H])C4([H])[H])c([H])c3C([H])([H])[H])c([H])c([H])c2C1([H])[H]

>  <smiles>  (22) 
[H]c1c([H])c([H])c2c(c1[H])C([H])([H])C([H])([H])C([H])([H])C2([H])N([H])C(=O)C1([H])N(C(=O)C([H])(N([H])C(=O)C([H])(N([H])C([H])([H])[H])C([H])([H])[H])C(C([H])([H])[H])(C([H])([H])[H])C([H])([H])[H])C([H])([H])c2c([H])c(OC([H])([H])C([H])([H])[N+]([H])([H])C([H])([H])c3c([H])c(Cl)c(C([H])([H])N([H])C(=O)N4C([H])([H])C([H])([H])C([H])([H])C([H])(n5nc(-c6c([H])c([H])c(Oc7c([H])c([H])c(F)c([H])c7F)c([H])c6[H])c(C(=O)N([H])[H])c5N([H])[H])C4([H])[H])c([H])c3C([H])([H])[H])c([H])c([H])c2C1([H])[H]

$$$$
22:0:0
     RDKit          3D

 91 99  0  0  1  0  0  0  0  0999 V2000
  -29.1960  -20.5780   19.9020 C   0  0  0  0  0  2  0  0  0  0  0  0
  -31.8360  -18.5920   21.9690 C   0  0  0  0  0  3  0  0  0  0  0  0
  -31.4340  -17.2640   21.7410 C   0  0  0  0  0  3  0  0  0  0  0  0
  -29.5310  -18.0870   20.4710 C   0  0  0  0  0  3  0  0  0  0  0  0
  -31.1220  -19.6800   21.4210 C   0  0  0  0  0  0  0  0  0  0  0  0
  -29.9460  -19.4420   20.6540 C   0  0  0  0  0  0  0  0  0  0  0  0
  -30.2810  -16.9870   20.9790 C   0  0  0  0  0  0  0  0  0  0  0  0
  -31.6720  -21.0790   21.6550 C   0  0  0  0  0  1  0  0  0  0  0  0
  -30.5940  -14.5730   20.3430 C   0  0  0  0  0  0  0  0  0  0  0  0
  -30.2850  -12.4240   19.1610 C   0  0  0  0  0  2  0  0  0  0  0  0
  -29.3060  -12.6230   17.9880 C   0  0  0  0  0  2  0  0  0  0  0  0
  -27.8480  -12.4560   18.4570 C   0  0  0  0  0  2  0  0  0  0  0  0
  -27.5330  -13.2750   19.7370 C   0  0  0  0  0  3  0  0  0  0  0  0
  -28.6220  -13.0670   20.8130 C   0  0  0  0  0  2  0  0  0  0  0  0
  -29.9220  -13.3960   20.2060 N   0  0  0  0  0  0  0  0  0  0  0  0
  -31.7400  -14.7300   19.9120 O   0  0  0  0  0  0  0  0  0  0  0  0
  -29.8560  -15.6260   20.7740 N   0  0  0  0  0  0  0  0  0  0  0  0
  -28.8730  -15.4380   20.8950 H   0  0  0  0  0  0  0  0  0  0  0  0
  -25.1520  -13.8460   20.5220 C   0  0  0  0  0  0  0  0  0  0  0  0
  -24.1030  -13.0570   20.9150 C   0  0  0  0  0  0  0  0  0  0  0  0
  -24.5790  -11.7110   20.8560 C   0  0  0  0  0  0  0  0  0  0  0  0
  -26.2000  -12.9780   20.2530 N   0  0  0  0  0  0  0  0  0  0  0  0
  -25.8600  -11.6890   20.5130 N   0  0  0  0  0  0  0  0  0  0  0  0
  -23.8710  -10.4390   21.0540 C   0  0  0  0  0  0  0  0  0  0  0  0
  -24.3290   -9.4720   21.9750 C   0  0  0  0  0  3  0  0  0  0  0  0
  -23.6210   -8.2650   22.1600 C   0  0  0  0  0  3  0  0  0  0  0  0
  -22.4390   -8.0170   21.4200 C   0  0  0  0  0  0  0  0  0  0  0  0
  -22.0020   -8.9720   20.4860 C   0  0  0  0  0  3  0  0  0  0  0  0
  -22.7120  -10.1700   20.3000 C   0  0  0  0  0  3  0  0  0  0  0  0
  -21.7030   -6.8590   21.5110 O   0  0  0  0  0  0  0  0  0  0  0  0
  -21.6770   -6.1130   22.6610 C   0  0  0  0  0  0  0  0  0  0  0  0
  -21.2440   -6.6520   23.8920 C   0  0  0  0  0  3  0  0  0  0  0  0
  -21.1660   -5.8300   25.0340 C   0  0  0  0  0  3  0  0  0  0  0  0
  -21.5140   -4.4680   24.9460 C   0  0  0  0  0  0  0  0  0  0  0  0
  -21.9450   -3.9290   23.7210 C   0  0  0  0  0  3  0  0  0  0  0  0
  -22.0230   -4.7480   22.5820 C   0  0  0  0  0  0  0  0  0  0  0  0
  -22.4150   -4.2180   21.3980 F   0  0  0  0  0  0  0  0  0  0  0  0
  -21.4350   -3.6760   26.0410 F   0  0  0  0  0  0  0  0  0  0  0  0
  -22.7080  -13.5170   21.2300 C   0  0  0  0  0  0  0  0  0  0  0  0
  -22.0090  -12.8000   22.1040 N   0  0  0  0  0  0  0  0  0  0  0  0
  -22.2460  -14.5460   20.7410 O   0  0  0  0  0  0  0  0  0  0  0  0
  -22.3960  -11.9680   22.5220 H   0  0  0  0  0  0  0  0  0  0  0  0
  -21.0760  -13.0890   22.3590 H   0  0  0  0  0  0  0  0  0  0  0  0
  -25.2940  -15.2200   20.3520 N   0  0  0  0  0  0  0  0  0  0  0  0
  -24.5210  -15.8600   20.4870 H   0  0  0  0  0  0  0  0  0  0  0  0
  -26.1180  -15.6690   19.9720 H   0  0  0  0  0  0  0  0  0  0  0  0
  -28.7180  -22.8920   19.9820 C   0  0  0  0  0  3  0  0  0  0  0  0
  -28.8930  -21.8100   20.6560 N   0  0  0  0  0  0  0  0  0  0  0  0
  -28.3710  -24.2720   20.5760 C   0  0  0  0  0  2  0  0  0  0  0  0
  -28.5690  -25.4630   19.5900 C   0  0  0  0  0  2  0  0  0  0  0  0
  -28.4180  -26.7680   20.1880 O   0  0  0  0  0  0  0  0  0  0  0  0
  -24.5670  -31.9400   23.2250 C   0  0  0  0  0  0  0  0  0  0  0  0
  -27.2140  -27.4570   20.1720 C   0  0  0  0  0  0  0  0  0  0  0  0
  -23.3640  -30.5290   21.5890 C   0  0  0  0  0  3  0  0  0  0  0  0
  -24.8160  -28.9770   20.1800 C   0  0  0  0  0  0  0  0  0  0  0  0
  -25.8900  -30.8810   21.3920 C   0  0  0  0  0  2  0  0  0  0  0  0
  -25.9730  -29.5010   20.7640 C   0  0  0  0  0  0  0  0  0  0  0  0
  -27.1720  -28.7490   20.7530 C   0  0  0  0  0  3  0  0  0  0  0  0
  -26.0270  -26.9430   19.6000 C   0  0  0  0  0  3  0  0  0  0  0  0
  -24.8380  -27.6990   19.5960 C   0  0  0  0  0  3  0  0  0  0  0  0
  -23.5760  -29.8420   20.2140 C   0  0  0  0  0  2  0  0  0  0  0  0
  -24.6250  -31.1340   22.1260 N   0  0  0  0  0  0  0  0  0  0  0  0
  -23.4850  -32.2160   23.7610 O   0  0  0  0  0  0  0  0  0  0  0  0
  -22.7080  -29.5160   22.5560 C   0  0  0  0  0  0  0  0  0  0  0  0
  -21.3850  -29.3350   22.4220 N   0  0  0  0  0  0  0  0  0  0  0  0
  -23.3870  -28.8960   23.3790 O   0  0  0  0  0  0  0  0  0  0  0  0
  -20.9010  -29.8820   21.7250 H   0  0  0  0  0  0  0  0  0  0  0  0
  -18.0030  -28.1660   22.9240 C   0  0  0  0  0  0  0  0  0  0  0  0
  -20.5620  -28.4060   23.1960 C   0  0  0  0  0  3  0  0  0  0  0  0
  -20.6570  -26.9760   22.6180 C   0  0  0  0  0  2  0  0  0  0  0  0
  -19.5530  -26.6600   21.6050 C   0  0  0  0  0  2  0  0  0  0  0  0
  -18.1720  -26.8150   22.2490 C   0  0  0  0  0  2  0  0  0  0  0  0
  -19.1260  -28.9200   23.3540 C   0  0  0  0  0  0  0  0  0  0  0  0
  -18.9170  -30.1850   23.9450 C   0  0  0  0  0  3  0  0  0  0  0  0
  -17.6160  -30.6950   24.1120 C   0  0  0  0  0  3  0  0  0  0  0  0
  -16.5060  -29.9360   23.7000 C   0  0  0  0  0  3  0  0  0  0  0  0
  -16.7010  -28.6740   23.1120 C   0  0  0  0  0  3  0  0  0  0  0  0
  -25.8540  -32.5730   23.8440 C   0  0  0  0  0  3  0  0  0  0  0  0
  -26.3720  -31.8050   25.1220 C   0  0  1  0  0  0  0  0  0  0  0  0
  -25.2780  -31.5670   26.1890 C   0  0  0  0  0  1  0  0  0  0  0  0
  -26.9590  -30.4300   24.7300 C   0  0  0  0  0  1  0  0  0  0  0  0
  -27.5230  -32.6020   25.7830 C   0  0  0  0  0  1  0  0  0  0  0  0
  -25.5470  -33.9720   24.1700 N   0  0  0  0  0  0  0  0  0  0  0  0
  -25.8840  -35.0220   23.4090 C   0  0  0  0  0  0  0  0  0  0  0  0
  -26.5600  -34.9150   22.3820 O   0  0  0  0  0  0  0  0  0  0  0  0
  -24.9580  -34.1290   24.9750 H   0  0  0  0  0  0  0  0  0  0  0  0
  -24.1690  -36.8180   23.0260 C   0  0  0  0  0  1  0  0  0  0  0  0
  -25.3960  -36.4130   23.8580 C   0  0  0  0  0  3  0  0  0  0  0  0
  -27.5180  -37.2890   24.7310 C   0  0  0  0  0  1  0  0  0  0  0  0
  -26.4350  -37.4610   23.7660 N   0  0  0  0  0  0  0  0  0  0  0  0
  -26.0300  -38.3820   23.9080 H   0  0  0  0  0  0  0  0  0  0  0  0
  1  6  1  0
  1 48  1  0
  3  2  1  0
  4  6  2  0
  4  7  1  0
  5  8  1  0
  5  2  2  0
  6  5  1  0
  7  3  2  0
  9 17  1  0
 10 15  1  0
 11 12  1  0
 11 10  1  0
 13 12  1  0
 13 22  1  0
 13 14  1  0
 15  9  1  0
 15 14  1  0
 16  9  2  0
 17 18  1  0
 17  7  1  0
 19 20  2  0
 20 39  1  0
 21 20  1  0
 21 24  1  0
 22 23  1  0
 22 19  1  0
 23 21  2  0
 24 25  1  0
 25 26  2  0
 27 30  1  0
 27 26  1  0
 28 27  2  0
 29 28  1  0
 29 24  2  0
 30 31  1  0
 31 32  1  0
 32 33  2  0
 34 33  1  0
 34 38  1  0
 35 34  2  0
 36 31  2  0
 36 35  1  0
 37 36  1  0
 39 40  1  0
 40 43  1  0
 40 42  1  0
 41 39  2  0
 44 45  1  0
 44 19  1  0
 46 44  1  0
 47 49  1  0
 47 48  2  0
 50 51  1  0
 50 49  1  0
 52 63  2  0
 53 51  1  0
 53 58  1  0
 54 62  1  0
 54 64  1  0
 55 61  1  0
 55 57  1  0
 56 62  1  0
 57 56  1  0
 58 57  2  0
 59 53  2  0
 60 59  1  0
 60 55  2  0
 61 54  1  0
 62 52  1  0
 64 66  2  0
 65 64  1  0
 67 65  1  0
 68 77  2  0
 68 73  1  0
 69 65  1  0
 69 73  1  0
 70 69  1  0
 71 72  1  0
 71 70  1  0
 72 68  1  0
 73 74  2  0
 74 75  1  0
 76 75  2  0
 77 76  1  0
 78 52  1  0
 78 83  1  0
 78 79  1  0
 79 82  1  1
 79 80  1  0
 81 79  1  0
 83 86  1  0
 84 88  1  0
 84 83  1  0
 85 84  2  0
 88 87  1  0
 90 88  1  0
 90 91  1  0
 90 89  1  0
M  ISO  4   9 100  17 100  50 101  51 101
M  END
>  <TORSDO>  (23) 
F 20

>  <SCORE>  (23) 
-13.885

>  <name>  (23) 
22

>  <ligand_id>  (23) 
22

>  <original_smiles>  (23) 
[H]C(=NC([H])([H])c1c([H])c(N([H])C(=O)N2C([H])([H])C([H])([H])C([H])([H])C([H])(n3nc(-c4c([H])c([H])c(Oc5c([H])c([H])c(F)c([H])c5F)c([H])c4[H])c(C(=O)N([H])[H])c3N([H])[H])C2([H])[H])c([H])c([H])c1C([H])([H])[H])C([H])([H])C([H])([H])Oc1c([H])c([H])c2c(c1[H])C([H])([H])N(C(=O)C([H])(N([H])C(=O)C([H])(N([H])C([H])([H])[H])C([H])([H])[H])C(C([H])([H])[H])(C([H])([H])[H])C([H])([H])[H])C([H])(C(=O)N([H])C1([H])c3c([H])c([H])c([H])c([H])c3C([H])([H])C([H])([H])C1([H])[H])C2([H])[H]

>  <smiles>  (23) 
[H]C(=NC([H])([H])c1c([H])c(N([H])C(=O)N2C([H])([H])C([H])([H])C([H])([H])C([H])(n3nc(-c4c([H])c([H])c(Oc5c([H])c([H])c(F)c([H])c5F)c([H])c4[H])c(C(=O)N([H])[H])c3N([H])[H])C2([H])[H])c([H])c([H])c1C([H])([H])[H])C([H])([H])C([H])([H])Oc1c([H])c([H])c2c(c1[H])C([H])([H])N(C(=O)C([H])(N([H])C(=O)C([H])(N([H])C([H])([H])[H])C([H])([H])[H])C(C([H])([H])[H])(C([H])([H])[H])C([H])([H])[H])C([H])(C(=O)N([H])C1([H])c3c([H])c([H])c([H])c([H])c3C([H])([H])C([H])([H])C1([H])[H])C2([H])[H]

$$$$
23:0:0
     RDKit          3D

 95104  0  0  1  0  0  0  0  0999 V2000
  -28.6600  -23.7630   19.7520 C   0  0  0  0  0  0  0  0  0  0  0  0
  -29.8840  -23.9710   22.3590 C   0  0  0  0  0  2  0  0  0  0  0  0
  -29.5510  -25.2970   21.6650 C   0  0  0  0  0  2  0  0  0  0  0  0
  -30.3310  -22.9150   21.3280 C   0  0  0  0  0  2  0  0  0  0  0  0
  -28.4820  -25.1460   20.5710 C   0  0  0  0  0  3  0  0  0  0  0  0
  -29.3080  -22.6470   20.3020 N   0  0  0  0  0  0  0  0  0  0  0  0
  -28.1200  -23.6840   18.6440 O   0  0  0  0  0  0  0  0  0  0  0  0
  -28.4790  -26.4570   19.8360 O   0  0  0  0  0  0  0  0  0  0  0  0
  -24.6120  -31.7240   23.0700 C   0  0  0  0  0  0  0  0  0  0  0  0
  -27.3450  -27.2910   19.9030 C   0  0  0  0  0  0  0  0  0  0  0  0
  -23.4420  -30.3150   21.4160 C   0  0  0  0  0  3  0  0  0  0  0  0
  -24.9320  -28.8370   19.9470 C   0  0  0  0  0  0  0  0  0  0  0  0
  -25.9680  -30.7230   21.2090 C   0  0  0  0  0  2  0  0  0  0  0  0
  -26.0920  -29.3550   20.5370 C   0  0  0  0  0  0  0  0  0  0  0  0
  -27.3080  -28.5980   20.4960 C   0  0  0  0  0  3  0  0  0  0  0  0
  -26.1610  -26.8290   19.2990 C   0  0  0  0  0  3  0  0  0  0  0  0
  -24.9690  -27.5810   19.3180 C   0  0  0  0  0  3  0  0  0  0  0  0
  -23.6660  -29.6690   20.0220 C   0  0  0  0  0  2  0  0  0  0  0  0
  -24.6940  -30.9390   21.9540 N   0  0  0  0  0  0  0  0  0  0  0  0
  -23.5270  -31.9480   23.6220 O   0  0  0  0  0  0  0  0  0  0  0  0
  -22.8250  -29.2580   22.3640 C   0  0  0  0  0  0  0  0  0  0  0  0
  -21.5050  -29.0360   22.2500 N   0  0  0  0  0  0  0  0  0  0  0  0
  -23.5350  -28.6420   23.1620 O   0  0  0  0  0  0  0  0  0  0  0  0
  -20.9880  -29.5900   21.5810 H   0  0  0  0  0  0  0  0  0  0  0  0
  -18.1890  -27.6700   22.7340 C   0  0  0  0  0  0  0  0  0  0  0  0
  -20.7310  -28.0530   23.0110 C   0  0  0  0  0  3  0  0  0  0  0  0
  -20.9030  -26.6320   22.4240 C   0  0  0  0  0  2  0  0  0  0  0  0
  -19.8200  -26.2650   21.4040 C   0  0  0  0  0  2  0  0  0  0  0  0
  -18.4320  -26.3370   22.0470 C   0  0  0  0  0  2  0  0  0  0  0  0
  -19.2690  -28.4830   23.1730 C   0  0  0  0  0  0  0  0  0  0  0  0
  -18.9870  -29.7270   23.7780 C   0  0  0  0  0  3  0  0  0  0  0  0
  -17.6600  -30.1630   23.9440 C   0  0  0  0  0  3  0  0  0  0  0  0
  -16.5950  -29.3490   23.5200 C   0  0  0  0  0  3  0  0  0  0  0  0
  -16.8600  -28.1040   22.9230 C   0  0  0  0  0  3  0  0  0  0  0  0
  -25.8770  -32.3930   23.6920 C   0  0  0  0  0  3  0  0  0  0  0  0
  -25.5160  -33.7690   24.0610 N   0  0  0  0  0  0  0  0  0  0  0  0
  -25.8310  -34.8580   23.3460 C   0  0  0  0  0  0  0  0  0  0  0  0
  -26.5230  -34.8090   22.3250 O   0  0  0  0  0  0  0  0  0  0  0  0
  -24.8970  -33.8770   24.8520 H   0  0  0  0  0  0  0  0  0  0  0  0
  -24.0530  -36.6100   23.0230 C   0  0  0  0  0  1  0  0  0  0  0  0
  -25.2940  -36.2150   23.8400 C   0  0  0  0  0  3  0  0  0  0  0  0
  -27.3910  -37.1320   24.7300 C   0  0  0  0  0  1  0  0  0  0  0  0
  -26.2940  -37.3010   23.7790 N   0  0  0  0  0  0  0  0  0  0  0  0
  -25.8590  -38.2030   23.9550 H   0  0  0  0  0  0  0  0  0  0  0  0
  -26.4380  -31.6130   24.9460 C   0  0  1  0  0  0  0  0  0  0  0  0
  -25.3690  -31.3160   26.0230 C   0  0  0  0  0  1  0  0  0  0  0  0
  -27.0650  -30.2660   24.5190 C   0  0  0  0  0  1  0  0  0  0  0  0
  -27.5680  -32.4350   25.6110 C   0  0  0  0  0  1  0  0  0  0  0  0
  -29.3140  -21.2120   19.7190 C   0  0  0  0  0  2  0  0  0  0  0  0
  -30.1440  -18.6230   19.7610 C   0  0  0  0  0  3  0  0  0  0  0  0
  -30.4770  -18.6640   22.5040 C   0  0  0  0  0  3  0  0  0  0  0  0
  -29.8480  -19.8790   20.4580 C   0  0  0  0  0  0  0  0  0  0  0  0
  -30.8160  -17.4840   21.8090 C   0  0  0  0  0  0  0  0  0  0  0  0
  -30.5990  -17.3910   20.4100 C   0  0  0  0  0  0  0  0  0  0  0  0
  -29.9430  -19.8040   21.8710 C   0  0  0  0  0  0  0  0  0  0  0  0
  -31.3030  -16.3070   22.6410 C   0  0  0  0  0  1  0  0  0  0  0  0
  -29.3170  -21.0290   22.9180 Cl  0  0  0  0  0  0  0  0  0  0  0  0
  -31.3260  -14.8860   19.8300 C   0  0  0  0  0  0  0  0  0  0  0  0
  -30.9930  -12.5920   18.8640 C   0  0  0  0  0  2  0  0  0  0  0  0
  -30.0080  -12.6820   17.6760 C   0  0  0  0  0  2  0  0  0  0  0  0
  -28.5450  -12.6120   18.1620 C   0  0  0  0  0  2  0  0  0  0  0  0
  -28.2690  -13.5620   19.3580 C   0  0  0  0  0  3  0  0  0  0  0  0
  -29.3580  -13.4230   20.4410 C   0  0  0  0  0  2  0  0  0  0  0  0
  -30.6510  -13.6890   19.7940 N   0  0  0  0  0  0  0  0  0  0  0  0
  -32.5290  -14.9340   19.5470 O   0  0  0  0  0  0  0  0  0  0  0  0
  -30.5270  -16.0270   19.8230 N   0  0  0  0  0  0  0  0  0  0  0  0
  -29.5700  -15.7360   19.7000 H   0  0  0  0  0  0  0  0  0  0  0  0
  -25.9850  -14.3540   20.2190 C   0  0  0  0  0  0  0  0  0  0  0  0
  -24.8680  -13.6730   20.6170 C   0  0  0  0  0  0  0  0  0  0  0  0
  -25.1990  -12.2860   20.5290 C   0  0  0  0  0  0  0  0  0  0  0  0
  -26.9270  -13.3880   19.9040 N   0  0  0  0  0  0  0  0  0  0  0  0
  -26.4630  -12.1360   20.1560 N   0  0  0  0  0  0  0  0  0  0  0  0
  -24.3660  -11.0920   20.7190 C   0  0  0  0  0  0  0  0  0  0  0  0
  -24.7330  -10.0700   21.6240 C   0  0  0  0  0  3  0  0  0  0  0  0
  -23.9040   -8.9420   21.8000 C   0  0  0  0  0  3  0  0  0  0  0  0
  -22.6970   -8.8260   21.0730 C   0  0  0  0  0  0  0  0  0  0  0  0
  -22.3490   -9.8360   20.1580 C   0  0  0  0  0  3  0  0  0  0  0  0
  -23.1770  -10.9560   19.9780 C   0  0  0  0  0  3  0  0  0  0  0  0
  -21.8450   -7.7520   21.1600 O   0  0  0  0  0  0  0  0  0  0  0  0
  -21.7300   -7.0160   22.3130 C   0  0  0  0  0  0  0  0  0  0  0  0
  -21.3780   -7.6110   23.5450 C   0  0  0  0  0  3  0  0  0  0  0  0
  -21.2000   -6.8070   24.6890 C   0  0  0  0  0  3  0  0  0  0  0  0
  -21.3660   -5.4130   24.6030 C   0  0  0  0  0  0  0  0  0  0  0  0
  -21.7130   -4.8180   23.3770 C   0  0  0  0  0  3  0  0  0  0  0  0
  -21.8900   -5.6180   22.2350 C   0  0  0  0  0  0  0  0  0  0  0  0
  -22.2030   -5.0370   21.0500 F   0  0  0  0  0  0  0  0  0  0  0  0
  -21.1910   -4.6400   25.7010 F   0  0  0  0  0  0  0  0  0  0  0  0
  -23.5340  -14.2700   20.9660 C   0  0  0  0  0  0  0  0  0  0  0  0
  -22.8000  -13.6440   21.8800 N   0  0  0  0  0  0  0  0  0  0  0  0
  -23.1560  -15.3270   20.4610 O   0  0  0  0  0  0  0  0  0  0  0  0
  -23.1190  -12.7890   22.3090 H   0  0  0  0  0  0  0  0  0  0  0  0
  -21.9070  -14.0280   22.1570 H   0  0  0  0  0  0  0  0  0  0  0  0
  -26.2680  -15.7090   20.0740 N   0  0  0  0  0  0  0  0  0  0  0  0
  -25.5710  -16.4230   20.2540 H   0  0  0  0  0  0  0  0  0  0  0  0
  -27.1230  -16.0830   19.6860 H   0  0  0  0  0  0  0  0  0  0  0  0
  1  6  1  0
  1  5  1  0
  3  2  1  0
  4  2  1  0
  5  8  1  0
  5  3  1  0
  6  4  1  0
  7  1  2  0
  8 10  1  0
  9 20  2  0
 10 15  1  0
 11 19  1  0
 11 21  1  0
 12 18  1  0
 12 14  1  0
 13 19  1  0
 14 13  1  0
 15 14  2  0
 16 17  1  0
 16 10  2  0
 17 12  2  0
 18 11  1  0
 19  9  1  0
 21 23  2  0
 22 21  1  0
 24 22  1  0
 25 34  2  0
 25 30  1  0
 26 22  1  0
 26 30  1  0
 27 26  1  0
 28 29  1  0
 28 27  1  0
 29 25  1  0
 30 31  2  0
 31 32  1  0
 33 32  2  0
 34 33  1  0
 35  9  1  0
 35 36  1  0
 35 45  1  0
 36 39  1  0
 37 41  1  0
 37 36  1  0
 38 37  2  0
 41 40  1  0
 43 41  1  0
 43 44  1  0
 43 42  1  0
 45 48  1  1
 45 46  1  0
 47 45  1  0
 49  6  1  0
 49 52  1  0
 50 54  2  0
 50 52  1  0
 52 55  2  0
 53 51  2  0
 53 56  1  0
 54 53  1  0
 55 51  1  0
 55 57  1  0
 59 64  1  0
 60 61  1  0
 60 59  1  0
 62 61  1  0
 62 71  1  0
 62 63  1  0
 64 58  1  0
 64 63  1  0
 65 58  2  0
 66 58  1  0
 66 54  1  0
 67 66  1  0
 68 69  2  0
 69 88  1  0
 70 69  1  0
 70 73  1  0
 71 72  1  0
 71 68  1  0
 72 70  2  0
 73 74  1  0
 74 75  2  0
 76 79  1  0
 76 75  1  0
 77 76  2  0
 78 77  1  0
 78 73  2  0
 79 80  1  0
 80 81  1  0
 81 82  2  0
 83 82  1  0
 83 87  1  0
 84 83  2  0
 85 80  2  0
 85 84  1  0
 86 85  1  0
 88 89  1  0
 89 92  1  0
 89 91  1  0
 90 88  2  0
 93 68  1  0
 93 94  1  0
 95 93  1  0
M  ISO  4   5 101   8 101  58 100  66 100
M  END
>  <TORSDO>  (24) 
F 18

>  <SCORE>  (24) 
-12.023

>  <name>  (24) 
23

>  <ligand_id>  (24) 
23

>  <original_smiles>  (24) 
[H]c1c([H])c([H])c2c(c1[H])C([H])([H])C([H])([H])C([H])([H])C2([H])N([H])C(=O)C1([H])N(C(=O)C([H])(N([H])C(=O)C([H])(N([H])C([H])([H])[H])C([H])([H])[H])C(C([H])([H])[H])(C([H])([H])[H])C([H])([H])[H])C([H])([H])c2c([H])c(OC3([H])C(=O)N(C([H])([H])c4c([H])c(N([H])C(=O)N5C([H])([H])C([H])([H])C([H])([H])C([H])(n6nc(-c7c([H])c([H])c(Oc8c([H])c([H])c(F)c([H])c8F)c([H])c7[H])c(C(=O)N([H])[H])c6N([H])[H])C5([H])[H])c(C([H])([H])[H])c([H])c4Cl)C([H])([H])C([H])([H])C3([H])[H])c([H])c([H])c2C1([H])[H]

>  <smiles>  (24) 
[H]c1c([H])c([H])c2c(c1[H])C([H])([H])C([H])([H])C([H])([H])C2([H])N([H])C(=O)C1([H])N(C(=O)C([H])(N([H])C(=O)C([H])(N([H])C([H])([H])[H])C([H])([H])[H])C(C([H])([H])[H])(C([H])([H])[H])C([H])([H])[H])C([H])([H])c2c([H])c(OC3([H])C(=O)N(C([H])([H])c4c([H])c(N([H])C(=O)N5C([H])([H])C([H])([H])C([H])([H])C([H])(n6nc(-c7c([H])c([H])c(Oc8c([H])c([H])c(F)c([H])c8F)c([H])c7[H])c(C(=O)N([H])[H])c6N([H])[H])C5([H])[H])c(C([H])([H])[H])c([H])c4Cl)C([H])([H])C([H])([H])C3([H])[H])c([H])c([H])c2C1([H])[H]

$$$$
24:0:0
     RDKit          3D

 97105  0  0  1  0  0  0  0  0999 V2000
  -30.1020  -20.1440   21.8520 C   0  0  0  0  0  0  0  0  0  0  0  0
  -30.1110  -20.0730   23.1790 N   0  0  0  0  0  4  0  0  0  0  0  0
  -29.4740  -21.1860   21.2770 N   0  0  0  0  0  0  0  0  0  0  0  0
  -30.6970  -19.3730   23.6070 H   0  0  0  0  0  0  0  0  0  0  0  0
  -29.5700  -20.6680   23.7860 H   0  0  0  0  0  0  0  0  0  0  0  0
  -29.1860  -21.9550   21.8620 H   0  0  0  0  0  0  0  0  0  0  0  0
  -32.0950  -19.4470   20.5980 C   0  0  0  0  0  3  0  0  0  0  0  0
  -32.9590  -18.4590   20.0980 C   0  0  0  0  0  3  0  0  0  0  0  0
  -30.8260  -19.0970   21.1070 C   0  0  0  0  0  0  0  0  0  0  0  0
  -30.3780  -17.7440   21.0070 C   0  0  0  0  0  0  0  0  0  0  0  0
  -31.2390  -16.7460   20.4560 C   0  0  0  0  0  0  0  0  0  0  0  0
  -32.5560  -17.1210   20.0660 C   0  0  0  0  0  0  0  0  0  0  0  0
  -28.9780  -17.3580   21.4790 C   0  0  0  0  0  1  0  0  0  0  0  0
  -33.4770  -16.2040   19.6950 F   0  0  0  0  0  0  0  0  0  0  0  0
  -31.1750  -14.4220   19.5160 C   0  0  0  0  0  0  0  0  0  0  0  0
  -30.6160  -12.2260   18.5220 C   0  0  0  0  0  2  0  0  0  0  0  0
  -29.5230  -12.3640   17.4450 C   0  0  0  0  0  2  0  0  0  0  0  0
  -28.1260  -12.2750   18.0850 C   0  0  0  0  0  2  0  0  0  0  0  0
  -27.9770  -13.2320   19.2890 C   0  0  0  0  0  3  0  0  0  0  0  0
  -29.1640  -13.0850   20.2710 C   0  0  0  0  0  2  0  0  0  0  0  0
  -30.4190  -13.2890   19.5260 N   0  0  0  0  0  0  0  0  0  0  0  0
  -32.1320  -14.5620   18.7470 O   0  0  0  0  0  0  0  0  0  0  0  0
  -30.8010  -15.3840   20.3820 N   0  0  0  0  0  0  0  0  0  0  0  0
  -29.9700  -15.1570   20.9010 H   0  0  0  0  0  0  0  0  0  0  0  0
  -25.7630  -13.9840   20.3650 C   0  0  0  0  0  0  0  0  0  0  0  0
  -24.7020  -13.2770   20.8700 C   0  0  0  0  0  0  0  0  0  0  0  0
  -25.0420  -11.8980   20.7230 C   0  0  0  0  0  0  0  0  0  0  0  0
  -26.6880  -13.0380   19.9540 N   0  0  0  0  0  0  0  0  0  0  0  0
  -26.2670  -11.7760   20.2280 N   0  0  0  0  0  0  0  0  0  0  0  0
  -24.2480  -10.6860   20.9730 C   0  0  0  0  0  0  0  0  0  0  0  0
  -24.6320   -9.7450   21.9530 C   0  0  0  0  0  3  0  0  0  0  0  0
  -23.8460   -8.5960   22.1930 C   0  0  0  0  0  3  0  0  0  0  0  0
  -22.6610   -8.3810   21.4470 C   0  0  0  0  0  0  0  0  0  0  0  0
  -22.2930   -9.3100   20.4540 C   0  0  0  0  0  3  0  0  0  0  0  0
  -23.0810  -10.4500   20.2180 C   0  0  0  0  0  3  0  0  0  0  0  0
  -21.8470   -7.2810   21.5870 O   0  0  0  0  0  0  0  0  0  0  0  0
  -21.6370   -6.6920   22.8070 C   0  0  0  0  0  0  0  0  0  0  0  0
  -21.0810   -7.4090   23.8900 C   0  0  0  0  0  3  0  0  0  0  0  0
  -20.8150   -6.7520   25.1090 C   0  0  0  0  0  3  0  0  0  0  0  0
  -21.0930   -5.3780   25.2430 C   0  0  0  0  0  0  0  0  0  0  0  0
  -21.6430   -4.6610   24.1660 C   0  0  0  0  0  3  0  0  0  0  0  0
  -21.9110   -5.3150   22.9530 C   0  0  0  0  0  0  0  0  0  0  0  0
  -22.4190   -4.6170   21.9080 F   0  0  0  0  0  0  0  0  0  0  0  0
  -20.8300   -4.7460   26.4110 F   0  0  0  0  0  0  0  0  0  0  0  0
  -23.4060  -13.8470   21.3680 C   0  0  0  0  0  0  0  0  0  0  0  0
  -22.7810  -13.1810   22.3340 N   0  0  0  0  0  0  0  0  0  0  0  0
  -22.9650  -14.9100   20.9380 O   0  0  0  0  0  0  0  0  0  0  0  0
  -23.1610  -12.3230   22.7010 H   0  0  0  0  0  0  0  0  0  0  0  0
  -21.9230  -13.5480   22.7180 H   0  0  0  0  0  0  0  0  0  0  0  0
  -26.0170  -15.3400   20.1940 N   0  0  0  0  0  0  0  0  0  0  0  0
  -25.3360  -16.0660   20.3900 H   0  0  0  0  0  0  0  0  0  0  0  0
  -26.7910  -15.6680   19.6310 H   0  0  0  0  0  0  0  0  0  0  0  0
  -29.2640  -21.3940   19.8330 C   0  0  0  0  0  2  0  0  0  0  0  0
  -28.2570  -22.5320   19.5380 C   0  0  0  0  0  2  0  0  0  0  0  0
  -28.8620  -23.9310   19.2370 C   0  0  0  0  0  2  0  0  0  0  0  0
  -27.7510  -24.9670   18.9630 C   0  0  0  0  0  2  0  0  0  0  0  0
  -28.0980  -26.3780   19.0050 O   0  0  0  0  0  0  0  0  0  0  0  0
  -24.9380  -31.1430   23.3170 C   0  0  0  0  0  0  0  0  0  0  0  0
  -27.0170  -27.2220   19.2260 C   0  0  0  0  0  0  0  0  0  0  0  0
  -23.5080  -30.0680   21.6230 C   0  0  0  0  0  3  0  0  0  0  0  0
  -24.7270  -28.8010   19.7900 C   0  0  0  0  0  0  0  0  0  0  0  0
  -26.0160  -30.4030   21.1900 C   0  0  0  0  0  2  0  0  0  0  0  0
  -25.9730  -29.1690   20.3140 C   0  0  0  0  0  0  0  0  0  0  0  0
  -27.1290  -28.3880   20.0310 C   0  0  0  0  0  3  0  0  0  0  0  0
  -25.7400  -26.9130   18.6920 C   0  0  0  0  0  3  0  0  0  0  0  0
  -24.6080  -27.6730   18.9810 C   0  0  0  0  0  3  0  0  0  0  0  0
  -23.5360  -29.6510   20.1370 C   0  0  0  0  0  2  0  0  0  0  0  0
  -24.8460  -30.5400   22.0980 N   0  0  0  0  0  0  0  0  0  0  0  0
  -23.9340  -31.3380   24.0170 O   0  0  0  0  0  0  0  0  0  0  0  0
  -22.9250  -28.9060   22.4560 C   0  0  0  0  0  0  0  0  0  0  0  0
  -21.6390  -28.5900   22.2320 N   0  0  0  0  0  0  0  0  0  0  0  0
  -23.6280  -28.2940   23.2610 O   0  0  0  0  0  0  0  0  0  0  0  0
  -21.1230  -29.1320   21.5530 H   0  0  0  0  0  0  0  0  0  0  0  0
  -18.4960  -26.7970   22.2540 C   0  0  0  0  0  0  0  0  0  0  0  0
  -20.9000  -27.5010   22.8730 C   0  0  0  0  0  3  0  0  0  0  0  0
  -21.3450  -26.1190   22.3200 C   0  0  0  0  0  2  0  0  0  0  0  0
  -20.4590  -25.6210   21.1730 C   0  0  0  0  0  2  0  0  0  0  0  0
  -19.0060  -25.4990   21.6540 C   0  0  0  0  0  2  0  0  0  0  0  0
  -19.3900  -27.7410   22.8190 C   0  0  0  0  0  0  0  0  0  0  0  0
  -18.8780  -28.9480   23.3440 C   0  0  0  0  0  3  0  0  0  0  0  0
  -17.4960  -29.2120   23.3220 C   0  0  0  0  0  3  0  0  0  0  0  0
  -16.6140  -28.2710   22.7670 C   0  0  0  0  0  3  0  0  0  0  0  0
  -17.1100  -27.0660   22.2420 C   0  0  0  0  0  3  0  0  0  0  0  0
  -26.3030  -31.6440   23.8760 C   0  0  0  0  0  3  0  0  0  0  0  0
  -26.1090  -33.0190   24.3530 N   0  0  0  0  0  0  0  0  0  0  0  0
  -26.4700  -34.1150   23.6750 C   0  0  0  0  0  0  0  0  0  0  0  0
  -27.0730  -34.0730   22.6010 O   0  0  0  0  0  0  0  0  0  0  0  0
  -25.5770  -33.1320   25.2020 H   0  0  0  0  0  0  0  0  0  0  0  0
  -24.8680  -36.0480   23.5650 C   0  0  0  0  0  1  0  0  0  0  0  0
  -26.1010  -35.4780   24.2840 C   0  0  0  0  0  3  0  0  0  0  0  0
  -28.3160  -36.1220   25.1210 C   0  0  0  0  0  1  0  0  0  0  0  0
  -27.2040  -36.4620   24.2380 N   0  0  0  0  0  0  0  0  0  0  0  0
  -26.8710  -37.3890   24.4900 H   0  0  0  0  0  0  0  0  0  0  0  0
  -26.8740  -30.7220   25.0260 C   0  0  1  0  0  0  0  0  0  0  0  0
  -25.8430  -30.3940   26.1290 C   0  0  0  0  0  1  0  0  0  0  0  0
  -27.3860  -29.3830   24.4440 C   0  0  0  0  0  1  0  0  0  0  0  0
  -28.0860  -31.4120   25.6950 C   0  0  0  0  0  1  0  0  0  0  0  0
  1  2  2  0
  2  4  1  0
  2  5  1  0
  3  1  1  0
  3  6  1  0
  7  9  1  0
  8  7  2  0
  9  1  1  0
 10  9  2  0
 10 13  1  0
 11 10  1  0
 12  8  1  0
 12 11  2  0
 14 12  1  0
 15 21  1  0
 15 23  1  0
 16 21  1  0
 17 18  1  0
 17 16  1  0
 19 18  1  0
 19 28  1  0
 19 20  1  0
 21 20  1  0
 22 15  2  0
 23 11  1  0
 23 24  1  0
 25 26  2  0
 26 45  1  0
 27 26  1  0
 27 30  1  0
 28 29  1  0
 28 25  1  0
 29 27  2  0
 30 31  1  0
 31 32  2  0
 33 36  1  0
 33 32  1  0
 34 33  2  0
 35 34  1  0
 35 30  2  0
 36 37  1  0
 37 42  2  0
 37 38  1  0
 38 39  2  0
 39 40  1  0
 40 44  1  0
 41 40  2  0
 42 41  1  0
 43 42  1  0
 45 46  1  0
 46 48  1  0
 46 49  1  0
 47 45  2  0
 50 25  1  0
 50 51  1  0
 52 50  1  0
 53  3  1  0
 54 53  1  0
 55 54  1  0
 56 57  1  0
 56 55  1  0
 57 59  1  0
 58 69  2  0
 59 64  1  0
 60 68  1  0
 60 70  1  0
 61 67  1  0
 61 63  1  0
 62 68  1  0
 63 62  1  0
 64 63  2  0
 65 66  1  0
 65 59  2  0
 66 61  2  0
 67 60  1  0
 68 58  1  0
 70 72  2  0
 71 70  1  0
 73 71  1  0
 74 79  1  0
 75 71  1  0
 76 75  1  0
 77 78  1  0
 77 76  1  0
 78 74  1  0
 79 75  1  0
 79 80  2  0
 81 80  1  0
 82 81  2  0
 83 74  2  0
 83 82  1  0
 84 58  1  0
 84 85  1  0
 84 94  1  0
 85 88  1  0
 86 90  1  0
 86 85  1  0
 87 86  2  0
 90 89  1  0
 92 90  1  0
 92 93  1  0
 92 91  1  0
 94 97  1  1
 94 95  1  0
 96 94  1  0
M  ISO  4  15 100  23 100  56 101  57 101
M  END
>  <TORSDO>  (25) 
F 21

>  <SCORE>  (25) 
-9.730

>  <name>  (25) 
24

>  <ligand_id>  (25) 
24

>  <original_smiles>  (25) 
[H]c1c([H])c([H])c2c(c1[H])C([H])([H])C([H])([H])C([H])([H])C2([H])N([H])C(=O)C1([H])N(C(=O)C([H])(N([H])C(=O)C([H])(N([H])C([H])([H])[H])C([H])([H])[H])C(C([H])([H])[H])(C([H])([H])[H])C([H])([H])[H])C([H])([H])c2c([H])c(OC([H])([H])C([H])([H])C([H])([H])C([H])([H])[N+]([H])=C(c3c([H])c([H])c(F)c(N([H])C(=O)N4C([H])([H])C([H])([H])C([H])([H])C([H])(n5nc(-c6c([H])c([H])c(Oc7c([H])c([H])c(F)c([H])c7F)c([H])c6[H])c(C(=O)N([H])[H])c5N([H])[H])C4([H])[H])c3C([H])([H])[H])N([H])[H])c([H])c([H])c2C1([H])[H]

>  <smiles>  (25) 
[H]c1c([H])c([H])c2c(c1[H])C([H])([H])C([H])([H])C([H])([H])C2([H])N([H])C(=O)C1([H])N(C(=O)C([H])(N([H])C(=O)C([H])(N([H])C([H])([H])[H])C([H])([H])[H])C(C([H])([H])[H])(C([H])([H])[H])C([H])([H])[H])C([H])([H])c2c([H])c(OC([H])([H])C([H])([H])C([H])([H])C([H])([H])[N+]([H])=C(c3c([H])c([H])c(F)c(N([H])C(=O)N4C([H])([H])C([H])([H])C([H])([H])C([H])(n5nc(-c6c([H])c([H])c(Oc7c([H])c([H])c(F)c([H])c7F)c([H])c6[H])c(C(=O)N([H])[H])c5N([H])[H])C4([H])[H])c3C([H])([H])[H])N([H])[H])c([H])c([H])c2C1([H])[H]

$$$$
25:0:0
     RDKit          3D

 95104  0  0  1  0  0  0  0  0999 V2000
  -28.4790  -23.7460   19.9320 C   0  0  0  0  0  0  0  0  0  0  0  0
  -30.1260  -24.0010   22.2850 C   0  0  0  0  0  2  0  0  0  0  0  0
  -29.7130  -25.3170   21.6180 C   0  0  0  0  0  2  0  0  0  0  0  0
  -30.3810  -22.9110   21.2260 C   0  0  0  0  0  2  0  0  0  0  0  0
  -28.4840  -25.1720   20.7000 C   0  0  0  0  0  3  0  0  0  0  0  0
  -29.1920  -22.6330   20.4030 N   0  0  0  0  0  0  0  0  0  0  0  0
  -27.7420  -23.6370   18.9470 O   0  0  0  0  0  0  0  0  0  0  0  0
  -28.4390  -26.4500   19.9110 O   0  0  0  0  0  0  0  0  0  0  0  0
  -24.6630  -31.8070   23.1070 C   0  0  0  0  0  0  0  0  0  0  0  0
  -27.3160  -27.2980   19.9820 C   0  0  0  0  0  0  0  0  0  0  0  0
  -23.4690  -30.4120   21.4560 C   0  0  0  0  0  3  0  0  0  0  0  0
  -24.9330  -28.8930   20.0030 C   0  0  0  0  0  0  0  0  0  0  0  0
  -26.0050  -30.7660   21.2580 C   0  0  0  0  0  2  0  0  0  0  0  0
  -26.1020  -29.3920   20.5960 C   0  0  0  0  0  0  0  0  0  0  0  0
  -27.3010  -28.6080   20.5680 C   0  0  0  0  0  3  0  0  0  0  0  0
  -26.1250  -26.8570   19.3750 C   0  0  0  0  0  3  0  0  0  0  0  0
  -24.9500  -27.6340   19.3820 C   0  0  0  0  0  3  0  0  0  0  0  0
  -23.6860  -29.7540   20.0660 C   0  0  0  0  0  2  0  0  0  0  0  0
  -24.7320  -31.0140   21.9960 N   0  0  0  0  0  0  0  0  0  0  0  0
  -23.5790  -32.0590   23.6530 O   0  0  0  0  0  0  0  0  0  0  0  0
  -22.8280  -29.3740   22.4090 C   0  0  0  0  0  0  0  0  0  0  0  0
  -21.5050  -29.1710   22.2850 N   0  0  0  0  0  0  0  0  0  0  0  0
  -23.5220  -28.7530   23.2190 O   0  0  0  0  0  0  0  0  0  0  0  0
  -21.0030  -29.7260   21.6070 H   0  0  0  0  0  0  0  0  0  0  0  0
  -18.1640  -27.8600   22.7480 C   0  0  0  0  0  0  0  0  0  0  0  0
  -20.7090  -28.2090   23.0490 C   0  0  0  0  0  3  0  0  0  0  0  0
  -20.8670  -26.7790   22.4790 C   0  0  0  0  0  2  0  0  0  0  0  0
  -19.7890  -26.4170   21.4520 C   0  0  0  0  0  2  0  0  0  0  0  0
  -18.3950  -26.5160   22.0780 C   0  0  0  0  0  2  0  0  0  0  0  0
  -19.2510  -28.6620   23.1900 C   0  0  0  0  0  0  0  0  0  0  0  0
  -18.9810  -29.9160   23.7780 C   0  0  0  0  0  3  0  0  0  0  0  0
  -17.6580  -30.3720   23.9260 C   0  0  0  0  0  3  0  0  0  0  0  0
  -16.5860  -29.5690   23.5000 C   0  0  0  0  0  3  0  0  0  0  0  0
  -16.8400  -28.3140   22.9180 C   0  0  0  0  0  3  0  0  0  0  0  0
  -25.9390  -32.4540   23.7280 C   0  0  0  0  0  3  0  0  0  0  0  0
  -25.6030  -33.8370   24.0970 N   0  0  0  0  0  0  0  0  0  0  0  0
  -25.9160  -34.9180   23.3700 C   0  0  0  0  0  0  0  0  0  0  0  0
  -26.5860  -34.8560   22.3350 O   0  0  0  0  0  0  0  0  0  0  0  0
  -25.0040  -33.9570   24.9010 H   0  0  0  0  0  0  0  0  0  0  0  0
  -24.1560  -36.6900   23.0690 C   0  0  0  0  0  1  0  0  0  0  0  0
  -25.4040  -36.2840   23.8680 C   0  0  0  0  0  3  0  0  0  0  0  0
  -27.5280  -37.1780   24.7170 C   0  0  0  0  0  1  0  0  0  0  0  0
  -26.4190  -37.3580   23.7840 N   0  0  0  0  0  0  0  0  0  0  0  0
  -25.9980  -38.2650   23.9610 H   0  0  0  0  0  0  0  0  0  0  0  0
  -26.4870  -31.6650   24.9800 C   0  0  1  0  0  0  0  0  0  0  0  0
  -25.4130  -31.3840   26.0580 C   0  0  0  0  0  1  0  0  0  0  0  0
  -27.0900  -30.3070   24.5540 C   0  0  0  0  0  1  0  0  0  0  0  0
  -27.6310  -32.4670   25.6450 C   0  0  0  0  0  1  0  0  0  0  0  0
  -29.0570  -21.1790   19.8820 C   0  0  0  0  0  2  0  0  0  0  0  0
  -29.8480  -18.5790   19.8300 C   0  0  0  0  0  3  0  0  0  0  0  0
  -30.5200  -18.6020   22.5110 C   0  0  0  0  0  3  0  0  0  0  0  0
  -29.6680  -19.8410   20.5560 C   0  0  0  0  0  0  0  0  0  0  0  0
  -30.3580  -17.3390   20.4160 C   0  0  0  0  0  0  0  0  0  0  0  0
  -29.9480  -19.7590   21.9470 C   0  0  0  0  0  0  0  0  0  0  0  0
  -30.7320  -17.4190   21.7790 C   0  0  0  0  0  0  0  0  0  0  0  0
  -29.5060  -21.0070   23.0560 Cl  0  0  0  0  0  0  0  0  0  0  0  0
  -31.3330  -16.0450   22.6430 Cl  0  0  0  0  0  0  0  0  0  0  0  0
  -31.0550  -14.8530   19.8110 C   0  0  0  0  0  0  0  0  0  0  0  0
  -30.7490  -12.5690   18.8170 C   0  0  0  0  0  2  0  0  0  0  0  0
  -29.7500  -12.6490   17.6430 C   0  0  0  0  0  2  0  0  0  0  0  0
  -28.2960  -12.5430   18.1490 C   0  0  0  0  0  2  0  0  0  0  0  0
  -28.0140  -13.4700   19.3620 C   0  0  0  0  0  3  0  0  0  0  0  0
  -29.1220  -13.3490   20.4300 C   0  0  0  0  0  2  0  0  0  0  0  0
  -30.3940  -13.6480   19.7630 N   0  0  0  0  0  0  0  0  0  0  0  0
  -32.2550  -14.9160   19.5260 O   0  0  0  0  0  0  0  0  0  0  0  0
  -30.2520  -15.9880   19.8050 N   0  0  0  0  0  0  0  0  0  0  0  0
  -29.2940  -15.7330   19.6290 H   0  0  0  0  0  0  0  0  0  0  0  0
  -25.7110  -14.1960   20.2290 C   0  0  0  0  0  0  0  0  0  0  0  0
  -24.6190  -13.4810   20.6410 C   0  0  0  0  0  0  0  0  0  0  0  0
  -24.9970  -12.1040   20.5630 C   0  0  0  0  0  0  0  0  0  0  0  0
  -26.6840  -13.2580   19.9220 N   0  0  0  0  0  0  0  0  0  0  0  0
  -26.2650  -11.9940   20.1870 N   0  0  0  0  0  0  0  0  0  0  0  0
  -24.2060  -10.8850   20.7690 C   0  0  0  0  0  0  0  0  0  0  0  0
  -24.6050   -9.8910   21.6890 C   0  0  0  0  0  3  0  0  0  0  0  0
  -23.8170   -8.7370   21.8830 C   0  0  0  0  0  3  0  0  0  0  0  0
  -22.6150   -8.5670   21.1540 C   0  0  0  0  0  0  0  0  0  0  0  0
  -22.2320   -9.5500   20.2240 C   0  0  0  0  0  3  0  0  0  0  0  0
  -23.0210  -10.6970   20.0290 C   0  0  0  0  0  3  0  0  0  0  0  0
  -21.8010   -7.4660   21.2560 O   0  0  0  0  0  0  0  0  0  0  0  0
  -21.7060   -6.7460   22.4200 C   0  0  0  0  0  0  0  0  0  0  0  0
  -21.3280   -7.3490   23.6390 C   0  0  0  0  0  3  0  0  0  0  0  0
  -21.1760   -6.5590   24.7970 C   0  0  0  0  0  3  0  0  0  0  0  0
  -21.3910   -5.1690   24.7350 C   0  0  0  0  0  0  0  0  0  0  0  0
  -21.7650   -4.5680   23.5210 C   0  0  0  0  0  3  0  0  0  0  0  0
  -21.9180   -5.3540   22.3670 C   0  0  0  0  0  0  0  0  0  0  0  0
  -22.2560   -4.7660   21.1930 F   0  0  0  0  0  0  0  0  0  0  0  0
  -21.2400   -4.4080   25.8440 F   0  0  0  0  0  0  0  0  0  0  0  0
  -23.2690  -14.0370   20.9900 C   0  0  0  0  0  0  0  0  0  0  0  0
  -22.5540  -13.3880   21.9030 N   0  0  0  0  0  0  0  0  0  0  0  0
  -22.8590  -15.0830   20.4880 O   0  0  0  0  0  0  0  0  0  0  0  0
  -22.8970  -12.5390   22.3270 H   0  0  0  0  0  0  0  0  0  0  0  0
  -21.6510  -13.7440   22.1810 H   0  0  0  0  0  0  0  0  0  0  0  0
  -25.9480  -15.5570   20.0660 N   0  0  0  0  0  0  0  0  0  0  0  0
  -25.2230  -16.2450   20.2450 H   0  0  0  0  0  0  0  0  0  0  0  0
  -26.7890  -15.9640   19.6800 H   0  0  0  0  0  0  0  0  0  0  0  0
  1  6  1  0
  1  5  1  0
  3  2  1  0
  4  2  1  0
  5  8  1  0
  5  3  1  0
  6  4  1  0
  7  1  2  0
  8 10  1  0
  9 20  2  0
 10 15  1  0
 11 19  1  0
 11 21  1  0
 12 18  1  0
 12 14  1  0
 13 19  1  0
 14 13  1  0
 15 14  2  0
 16 17  1  0
 16 10  2  0
 17 12  2  0
 18 11  1  0
 19  9  1  0
 21 23  2  0
 22 21  1  0
 24 22  1  0
 25 34  2  0
 25 30  1  0
 26 22  1  0
 26 30  1  0
 27 26  1  0
 28 29  1  0
 28 27  1  0
 29 25  1  0
 30 31  2  0
 31 32  1  0
 33 32  2  0
 34 33  1  0
 35  9  1  0
 35 36  1  0
 35 45  1  0
 36 39  1  0
 37 41  1  0
 37 36  1  0
 38 37  2  0
 41 40  1  0
 43 41  1  0
 43 44  1  0
 43 42  1  0
 45 48  1  1
 45 46  1  0
 47 45  1  0
 49  6  1  0
 49 52  1  0
 50 53  2  0
 50 52  1  0
 52 54  2  0
 53 55  1  0
 54 51  1  0
 54 56  1  0
 55 51  2  0
 55 57  1  0
 59 64  1  0
 60 61  1  0
 60 59  1  0
 62 61  1  0
 62 71  1  0
 62 63  1  0
 64 58  1  0
 64 63  1  0
 65 58  2  0
 66 58  1  0
 66 53  1  0
 67 66  1  0
 68 69  2  0
 69 88  1  0
 70 69  1  0
 70 73  1  0
 71 72  1  0
 71 68  1  0
 72 70  2  0
 73 74  1  0
 74 75  2  0
 76 79  1  0
 76 75  1  0
 77 76  2  0
 78 77  1  0
 78 73  2  0
 79 80  1  0
 80 81  1  0
 81 82  2  0
 83 82  1  0
 83 87  1  0
 84 83  2  0
 85 80  2  0
 85 84  1  0
 86 85  1  0
 88 89  1  0
 89 92  1  0
 89 91  1  0
 90 88  2  0
 93 68  1  0
 93 94  1  0
 95 93  1  0
M  ISO  4   5 101   8 101  58 100  66 100
M  END
>  <TORSDO>  (26) 
F 18

>  <SCORE>  (26) 
-12.696

>  <name>  (26) 
25

>  <ligand_id>  (26) 
25

>  <original_smiles>  (26) 
[H]c1c([H])c([H])c2c(c1[H])C([H])([H])C([H])([H])C([H])([H])C2([H])N([H])C(=O)C1([H])N(C(=O)C([H])(N([H])C(=O)C([H])(N([H])C([H])([H])[H])C([H])([H])[H])C(C([H])([H])[H])(C([H])([H])[H])C([H])([H])[H])C([H])([H])c2c([H])c(OC3([H])C(=O)N(C([H])([H])c4c([H])c(N([H])C(=O)N5C([H])([H])C([H])([H])C([H])([H])C([H])(n6nc(-c7c([H])c([H])c(Oc8c([H])c([H])c(F)c([H])c8F)c([H])c7[H])c(C(=O)N([H])[H])c6N([H])[H])C5([H])[H])c(Cl)c([H])c4Cl)C([H])([H])C([H])([H])C3([H])[H])c([H])c([H])c2C1([H])[H]

>  <smiles>  (26) 
[H]c1c([H])c([H])c2c(c1[H])C([H])([H])C([H])([H])C([H])([H])C2([H])N([H])C(=O)C1([H])N(C(=O)C([H])(N([H])C(=O)C([H])(N([H])C([H])([H])[H])C([H])([H])[H])C(C([H])([H])[H])(C([H])([H])[H])C([H])([H])[H])C([H])([H])c2c([H])c(OC3([H])C(=O)N(C([H])([H])c4c([H])c(N([H])C(=O)N5C([H])([H])C([H])([H])C([H])([H])C([H])(n6nc(-c7c([H])c([H])c(Oc8c([H])c([H])c(F)c([H])c8F)c([H])c7[H])c(C(=O)N([H])[H])c6N([H])[H])C5([H])[H])c(Cl)c([H])c4Cl)C([H])([H])C([H])([H])C3([H])[H])c([H])c([H])c2C1([H])[H]

$$$$
26:0:0
     RDKit          3D

 93101  0  0  1  0  0  0  0  0999 V2000
  -29.4810  -21.8390   21.8240 N   0  0  0  0  0  4  0  0  0  0  0  0
  -29.7650  -22.3800   22.6250 H   0  0  0  0  0  0  0  0  0  0  0  0
  -28.6270  -21.3740   22.0820 H   0  0  0  0  0  0  0  0  0  0  0  0
  -30.5560  -20.8120   21.6390 C   0  0  0  0  0  2  0  0  0  0  0  0
  -30.0730  -19.6360   19.4450 C   0  0  0  0  0  3  0  0  0  0  0  0
  -29.9540  -18.4860   18.6520 C   0  0  0  0  0  3  0  0  0  0  0  0
  -30.2290  -18.2240   21.4250 C   0  0  0  0  0  3  0  0  0  0  0  0
  -30.2340  -19.5300   20.8370 C   0  0  0  0  0  0  0  0  0  0  0  0
  -29.9970  -17.1950   19.2200 C   0  0  0  0  0  0  0  0  0  0  0  0
  -30.1310  -17.0360   20.6310 C   0  0  0  0  0  0  0  0  0  0  0  0
  -29.9050  -16.0250   18.2560 C   0  0  0  0  0  1  0  0  0  0  0  0
  -30.8810  -14.6630   21.0640 C   0  0  0  0  0  0  0  0  0  0  0  0
  -30.7870  -12.3680   20.1620 C   0  0  0  0  0  2  0  0  0  0  0  0
  -29.9810  -12.3990   18.8440 C   0  0  0  0  0  2  0  0  0  0  0  0
  -28.4640  -12.3030   19.1060 C   0  0  0  0  0  2  0  0  0  0  0  0
  -27.9710  -13.2170   20.2610 C   0  0  0  0  0  3  0  0  0  0  0  0
  -28.9070  -13.1360   21.4870 C   0  0  0  0  0  2  0  0  0  0  0  0
  -30.2730  -13.4410   21.0300 N   0  0  0  0  0  0  0  0  0  0  0  0
  -32.0760  -14.8100   20.7830 O   0  0  0  0  0  0  0  0  0  0  0  0
  -30.0640  -15.7310   21.2590 N   0  0  0  0  0  0  0  0  0  0  0  0
  -29.1630  -15.4850   21.6380 H   0  0  0  0  0  0  0  0  0  0  0  0
  -25.5150  -13.8360   20.6980 C   0  0  0  0  0  0  0  0  0  0  0  0
  -24.4140  -13.0720   20.9760 C   0  0  0  0  0  0  0  0  0  0  0  0
  -24.8770  -11.7210   21.0320 C   0  0  0  0  0  0  0  0  0  0  0  0
  -26.5780  -12.9500   20.6040 N   0  0  0  0  0  0  0  0  0  0  0  0
  -26.1920  -11.6760   20.8630 N   0  0  0  0  0  0  0  0  0  0  0  0
  -24.1360  -10.4620   21.1820 C   0  0  0  0  0  0  0  0  0  0  0  0
  -24.4870   -9.5120   22.1650 C   0  0  0  0  0  3  0  0  0  0  0  0
  -23.7500   -8.3170   22.3020 C   0  0  0  0  0  3  0  0  0  0  0  0
  -22.6450   -8.0660   21.4540 C   0  0  0  0  0  0  0  0  0  0  0  0
  -22.3150   -9.0030   20.4600 C   0  0  0  0  0  3  0  0  0  0  0  0
  -23.0540  -10.1890   20.3210 C   0  0  0  0  0  3  0  0  0  0  0  0
  -21.8860   -6.9200   21.4950 O   0  0  0  0  0  0  0  0  0  0  0  0
  -21.7520   -6.1900   22.6480 C   0  0  0  0  0  0  0  0  0  0  0  0
  -21.2200   -6.7530   23.8290 C   0  0  0  0  0  3  0  0  0  0  0  0
  -21.0340   -5.9490   24.9710 C   0  0  0  0  0  3  0  0  0  0  0  0
  -21.3680   -4.5810   24.9320 C   0  0  0  0  0  0  0  0  0  0  0  0
  -21.8920   -4.0180   23.7560 C   0  0  0  0  0  3  0  0  0  0  0  0
  -22.0810   -4.8200   22.6170 C   0  0  0  0  0  0  0  0  0  0  0  0
  -22.5660   -4.2690   21.4780 F   0  0  0  0  0  0  0  0  0  0  0  0
  -21.1820   -3.8060   26.0260 F   0  0  0  0  0  0  0  0  0  0  0  0
  -22.9950  -13.5530   21.0850 C   0  0  0  0  0  0  0  0  0  0  0  0
  -22.1790  -12.8890   21.8970 N   0  0  0  0  0  0  0  0  0  0  0  0
  -22.6120  -14.5560   20.4830 O   0  0  0  0  0  0  0  0  0  0  0  0
  -22.4900  -12.0780   22.4110 H   0  0  0  0  0  0  0  0  0  0  0  0
  -21.2230  -13.1970   22.0020 H   0  0  0  0  0  0  0  0  0  0  0  0
  -25.7010  -15.2020   20.4960 N   0  0  0  0  0  0  0  0  0  0  0  0
  -24.9410  -15.8710   20.5360 H   0  0  0  0  0  0  0  0  0  0  0  0
  -26.5840  -15.6260   20.2420 H   0  0  0  0  0  0  0  0  0  0  0  0
  -29.2160  -22.8140   20.7160 C   0  0  0  0  0  2  0  0  0  0  0  0
  -29.0390  -24.3150   21.1490 C   0  0  0  0  0  2  0  0  0  0  0  0
  -28.4010  -25.2180   20.0410 C   0  0  0  0  0  2  0  0  0  0  0  0
  -28.4370  -26.6590   20.2650 O   0  0  0  0  0  0  0  0  0  0  0  0
  -24.6040  -31.8790   23.2480 C   0  0  0  0  0  0  0  0  0  0  0  0
  -27.2740  -27.4220   20.1730 C   0  0  0  0  0  0  0  0  0  0  0  0
  -23.4130  -30.4870   21.5840 C   0  0  0  0  0  3  0  0  0  0  0  0
  -24.8840  -28.9710   20.1500 C   0  0  0  0  0  0  0  0  0  0  0  0
  -25.9470  -30.8400   21.4220 C   0  0  0  0  0  2  0  0  0  0  0  0
  -26.0370  -29.4750   20.7640 C   0  0  0  0  0  0  0  0  0  0  0  0
  -27.2290  -28.7070   20.7740 C   0  0  0  0  0  3  0  0  0  0  0  0
  -26.1080  -26.9680   19.5100 C   0  0  0  0  0  3  0  0  0  0  0  0
  -24.9200  -27.7200   19.5150 C   0  0  0  0  0  3  0  0  0  0  0  0
  -23.6390  -29.8280   20.1970 C   0  0  0  0  0  2  0  0  0  0  0  0
  -24.6710  -31.0860   22.1400 N   0  0  0  0  0  0  0  0  0  0  0  0
  -23.5180  -32.1430   23.7810 O   0  0  0  0  0  0  0  0  0  0  0  0
  -22.7580  -29.4560   22.5310 C   0  0  0  0  0  0  0  0  0  0  0  0
  -21.4310  -29.2830   22.4080 N   0  0  0  0  0  0  0  0  0  0  0  0
  -23.4410  -28.8130   23.3340 O   0  0  0  0  0  0  0  0  0  0  0  0
  -20.9400  -29.8550   21.7360 H   0  0  0  0  0  0  0  0  0  0  0  0
  -18.0510  -28.1050   22.9140 C   0  0  0  0  0  0  0  0  0  0  0  0
  -20.6120  -28.3360   23.1670 C   0  0  0  0  0  3  0  0  0  0  0  0
  -20.6960  -26.9150   22.5650 C   0  0  0  0  0  2  0  0  0  0  0  0
  -19.5840  -26.6220   21.5530 C   0  0  0  0  0  2  0  0  0  0  0  0
  -18.2080  -26.7670   22.2120 C   0  0  0  0  0  2  0  0  0  0  0  0
  -19.1800  -28.8490   23.3490 C   0  0  0  0  0  0  0  0  0  0  0  0
  -18.9780  -30.1030   23.9660 C   0  0  0  0  0  3  0  0  0  0  0  0
  -17.6820  -30.6140   24.1520 C   0  0  0  0  0  3  0  0  0  0  0  0
  -16.5660  -29.8670   23.7360 C   0  0  0  0  0  3  0  0  0  0  0  0
  -16.7510  -28.6140   23.1240 C   0  0  0  0  0  3  0  0  0  0  0  0
  -25.8830  -32.5100   23.8800 C   0  0  0  0  0  3  0  0  0  0  0  0
  -25.5660  -33.9030   24.2210 N   0  0  0  0  0  0  0  0  0  0  0  0
  -25.9030  -34.9660   23.4780 C   0  0  0  0  0  0  0  0  0  0  0  0
  -26.5850  -34.8760   22.4530 O   0  0  0  0  0  0  0  0  0  0  0  0
  -24.9640  -34.0460   25.0190 H   0  0  0  0  0  0  0  0  0  0  0  0
  -24.1820  -36.7620   23.1130 C   0  0  0  0  0  1  0  0  0  0  0  0
  -25.4050  -36.3460   23.9460 C   0  0  0  0  0  3  0  0  0  0  0  0
  -27.5170  -37.2200   24.8410 C   0  0  0  0  0  1  0  0  0  0  0  0
  -26.4390  -37.4010   23.8720 N   0  0  0  0  0  0  0  0  0  0  0  0
  -26.0270  -38.3200   24.0220 H   0  0  0  0  0  0  0  0  0  0  0  0
  -26.4000  -31.7290   25.1520 C   0  0  1  0  0  0  0  0  0  0  0  0
  -25.3070  -31.4770   26.2150 C   0  0  0  0  0  1  0  0  0  0  0  0
  -26.9940  -30.3590   24.7520 C   0  0  0  0  0  1  0  0  0  0  0  0
  -27.5420  -32.5260   25.8260 C   0  0  0  0  0  1  0  0  0  0  0  0
  1  3  1  0
  1  2  1  0
  4  1  1  0
  5  8  1  0
  6  9  1  0
  6  5  2  0
  8  7  2  0
  8  4  1  0
  9 10  2  0
 10 20  1  0
 10  7  1  0
 11  9  1  0
 12 20  1  0
 13 18  1  0
 14 15  1  0
 14 13  1  0
 16 15  1  0
 16 25  1  0
 16 17  1  0
 18 12  1  0
 18 17  1  0
 19 12  2  0
 20 21  1  0
 22 23  2  0
 23 24  1  0
 23 42  1  0
 24 27  1  0
 25 22  1  0
 25 26  1  0
 26 24  2  0
 27 28  1  0
 28 29  2  0
 30 33  1  0
 30 29  1  0
 31 30  2  0
 32 31  1  0
 32 27  2  0
 33 34  1  0
 34 35  1  0
 35 36  2  0
 37 36  1  0
 37 41  1  0
 38 37  2  0
 39 34  2  0
 39 38  1  0
 40 39  1  0
 42 43  1  0
 43 46  1  0
 43 45  1  0
 44 42  2  0
 47 48  1  0
 47 22  1  0
 49 47  1  0
 50 51  1  0
 50  1  1  0
 52 53  1  0
 52 51  1  0
 54 65  2  0
 55 53  1  0
 55 60  1  0
 56 64  1  0
 56 66  1  0
 57 63  1  0
 57 59  1  0
 58 64  1  0
 59 60  2  0
 59 58  1  0
 61 62  1  0
 61 55  2  0
 62 57  2  0
 63 56  1  0
 64 54  1  0
 66 68  2  0
 67 66  1  0
 69 67  1  0
 70 79  2  0
 70 75  1  0
 71 67  1  0
 71 75  1  0
 72 71  1  0
 73 74  1  0
 73 72  1  0
 74 70  1  0
 75 76  2  0
 76 77  1  0
 78 77  2  0
 79 78  1  0
 80 54  1  0
 80 81  1  0
 80 90  1  0
 81 84  1  0
 82 86  1  0
 82 81  1  0
 83 82  2  0
 86 85  1  0
 88 86  1  0
 88 89  1  0
 88 87  1  0
 90 93  1  1
 90 91  1  0
 92 90  1  0
M  ISO  4  12 100  20 100  52 101  53 101
M  END
>  <TORSDO>  (27) 
F 21

>  <SCORE>  (27) 
-12.640

>  <name>  (27) 
26

>  <ligand_id>  (27) 
26

>  <original_smiles>  (27) 
[H]c1c([H])c([H])c2c(c1[H])C([H])([H])C([H])([H])C([H])([H])C2([H])N([H])C(=O)C1([H])N(C(=O)C([H])(N([H])C(=O)C([H])(N([H])C([H])([H])[H])C([H])([H])[H])C(C([H])([H])[H])(C([H])([H])[H])C([H])([H])[H])C([H])([H])c2c([H])c(OC([H])([H])C([H])([H])C([H])([H])[N+]([H])([H])C([H])([H])c3c([H])c([H])c(C([H])([H])[H])c(N([H])C(=O)N4C([H])([H])C([H])([H])C([H])([H])C([H])(n5nc(-c6c([H])c([H])c(Oc7c([H])c([H])c(F)c([H])c7F)c([H])c6[H])c(C(=O)N([H])[H])c5N([H])[H])C4([H])[H])c3[H])c([H])c([H])c2C1([H])[H]

>  <smiles>  (27) 
[H]c1c([H])c([H])c2c(c1[H])C([H])([H])C([H])([H])C([H])([H])C2([H])N([H])C(=O)C1([H])N(C(=O)C([H])(N([H])C(=O)C([H])(N([H])C([H])([H])[H])C([H])([H])[H])C(C([H])([H])[H])(C([H])([H])[H])C([H])([H])[H])C([H])([H])c2c([H])c(OC([H])([H])C([H])([H])C([H])([H])[N+]([H])([H])C([H])([H])c3c([H])c([H])c(C([H])([H])[H])c(N([H])C(=O)N4C([H])([H])C([H])([H])C([H])([H])C([H])(n5nc(-c6c([H])c([H])c(Oc7c([H])c([H])c(F)c([H])c7F)c([H])c6[H])c(C(=O)N([H])[H])c5N([H])[H])C4([H])[H])c3[H])c([H])c([H])c2C1([H])[H]

$$$$
27:0:0
     RDKit          3D

 97106  0  0  1  0  0  0  0  0999 V2000
  -29.6060  -22.7910   18.7860 C   0  0  0  0  0  0  0  0  0  0  0  0
  -30.9320  -22.6320   18.5670 C   0  0  0  0  0  3  0  0  0  0  0  0
  -28.6740  -23.4470   17.7710 C   0  0  0  0  0  2  0  0  0  0  0  0
  -28.3480  -24.9120   18.1620 C   0  0  0  0  0  2  0  0  0  0  0  0
  -28.2870  -23.9460   20.5920 C   0  0  0  0  0  2  0  0  0  0  0  0
  -28.5830  -25.2060   19.6700 C   0  0  0  0  0  3  0  0  0  0  0  0
  -28.7960  -22.6060   20.0460 N   0  0  2  0  0  4  0  0  0  0  0  0
  -27.9410  -22.1930   19.7060 H   0  0  0  0  0  0  0  0  0  0  0  0
  -33.2490  -22.0610   19.1000 C   0  0  0  0  0  2  0  0  0  0  0  0
  -31.9720  -22.2110   19.4830 C   0  0  0  0  0  3  0  0  0  0  0  0
  -28.3590  -26.5950   20.1430 O   0  0  0  0  0  0  0  0  0  0  0  0
  -24.5890  -31.9000   23.1910 C   0  0  0  0  0  0  0  0  0  0  0  0
  -27.1710  -27.3360   20.1260 C   0  0  0  0  0  0  0  0  0  0  0  0
  -23.3650  -30.4920   21.5740 C   0  0  0  0  0  3  0  0  0  0  0  0
  -24.7910  -28.9240   20.1470 C   0  0  0  0  0  0  0  0  0  0  0  0
  -25.8980  -30.8180   21.3450 C   0  0  0  0  0  2  0  0  0  0  0  0
  -25.9670  -29.4340   20.7080 C   0  0  0  0  0  0  0  0  0  0  0  0
  -27.1550  -28.6540   20.6790 C   0  0  0  0  0  3  0  0  0  0  0  0
  -25.9570  -26.8490   19.5970 C   0  0  0  0  0  3  0  0  0  0  0  0
  -24.7850  -27.6350   19.5890 C   0  0  0  0  0  3  0  0  0  0  0  0
  -23.5580  -29.8030   20.1990 C   0  0  0  0  0  2  0  0  0  0  0  0
  -24.6390  -31.0890   22.0940 N   0  0  0  0  0  0  0  0  0  0  0  0
  -23.5140  -32.1800   23.7400 O   0  0  0  0  0  0  0  0  0  0  0  0
  -22.7140  -29.4820   22.5490 C   0  0  0  0  0  0  0  0  0  0  0  0
  -21.3890  -29.2970   22.4260 N   0  0  0  0  0  0  0  0  0  0  0  0
  -23.4000  -28.8700   23.3730 O   0  0  0  0  0  0  0  0  0  0  0  0
  -20.8980  -29.8410   21.7310 H   0  0  0  0  0  0  0  0  0  0  0  0
  -18.0190  -28.0850   22.9240 C   0  0  0  0  0  0  0  0  0  0  0  0
  -20.5730  -28.3640   23.2050 C   0  0  0  0  0  3  0  0  0  0  0  0
  -20.6890  -26.9270   22.6450 C   0  0  0  0  0  2  0  0  0  0  0  0
  -19.5910  -26.5840   21.6330 C   0  0  0  0  0  2  0  0  0  0  0  0
  -18.2070  -26.7270   22.2700 C   0  0  0  0  0  2  0  0  0  0  0  0
  -19.1290  -28.8620   23.3480 C   0  0  0  0  0  0  0  0  0  0  0  0
  -18.8960  -30.1340   23.9170 C   0  0  0  0  0  3  0  0  0  0  0  0
  -17.5860  -30.6240   24.0750 C   0  0  0  0  0  3  0  0  0  0  0  0
  -16.4900  -29.8430   23.6680 C   0  0  0  0  0  3  0  0  0  0  0  0
  -16.7080  -28.5760   23.0960 C   0  0  0  0  0  3  0  0  0  0  0  0
  -25.8800  -32.5330   23.7990 C   0  0  0  0  0  3  0  0  0  0  0  0
  -26.4150  -31.7540   25.0640 C   0  0  1  0  0  0  0  0  0  0  0  0
  -25.3390  -31.5080   26.1480 C   0  0  0  0  0  1  0  0  0  0  0  0
  -26.9960  -30.3820   24.6530 C   0  0  0  0  0  1  0  0  0  0  0  0
  -27.5720  -32.5470   25.7150 C   0  0  0  0  0  1  0  0  0  0  0  0
  -25.5720  -33.9280   24.1400 N   0  0  0  0  0  0  0  0  0  0  0  0
  -25.8800  -34.9860   23.3760 C   0  0  0  0  0  0  0  0  0  0  0  0
  -26.5250  -34.8870   22.3290 O   0  0  0  0  0  0  0  0  0  0  0  0
  -25.0000  -34.0790   24.9580 H   0  0  0  0  0  0  0  0  0  0  0  0
  -24.1380  -36.7760   23.0700 C   0  0  0  0  0  1  0  0  0  0  0  0
  -25.4000  -36.3700   23.8500 C   0  0  0  0  0  3  0  0  0  0  0  0
  -27.5490  -37.2670   24.6320 C   0  0  0  0  0  1  0  0  0  0  0  0
  -26.4250  -37.4290   23.7140 N   0  0  0  0  0  0  0  0  0  0  0  0
  -26.0170  -38.3460   23.8700 H   0  0  0  0  0  0  0  0  0  0  0  0
  -29.1780  -21.5690   21.0970 C   0  0  0  0  0  2  0  0  0  0  0  0
  -28.3210  -19.1670   20.4840 C   0  0  0  0  0  3  0  0  0  0  0  0
  -28.4910  -17.7560   20.3960 C   0  0  0  0  0  3  0  0  0  0  0  0
  -30.6590  -19.3950   20.9660 C   0  0  0  0  0  3  0  0  0  0  0  0
  -29.4010  -20.0390   20.7690 C   0  0  0  0  0  0  0  0  0  0  0  0
  -30.8360  -17.9740   20.8940 C   0  0  0  0  0  0  0  0  0  0  0  0
  -29.7420  -17.1070   20.5910 C   0  0  0  0  0  0  0  0  0  0  0  0
  -32.2010  -17.4120   21.2430 C   0  0  0  0  0  1  0  0  0  0  0  0
  -30.5040  -14.6530   20.0570 C   0  0  0  0  0  0  0  0  0  0  0  0
  -30.2480  -12.4550   18.9110 C   0  0  0  0  0  2  0  0  0  0  0  0
  -29.2160  -12.6090   17.7740 C   0  0  0  0  0  2  0  0  0  0  0  0
  -27.7780  -12.4170   18.2960 C   0  0  0  0  0  2  0  0  0  0  0  0
  -27.4980  -13.2380   19.5840 C   0  0  0  0  0  3  0  0  0  0  0  0
  -28.6320  -13.0430   20.6150 C   0  0  0  0  0  2  0  0  0  0  0  0
  -29.8990  -13.4240   19.9700 N   0  0  0  0  0  0  0  0  0  0  0  0
  -31.6060  -14.8550   19.5430 O   0  0  0  0  0  0  0  0  0  0  0  0
  -29.7360  -15.6400   20.6250 N   0  0  0  0  0  0  0  0  0  0  0  0
  -28.8600  -15.2560   20.9420 H   0  0  0  0  0  0  0  0  0  0  0  0
  -25.1640  -13.8060   20.4980 C   0  0  0  0  0  0  0  0  0  0  0  0
  -24.1290  -13.0180   20.9210 C   0  0  0  0  0  0  0  0  0  0  0  0
  -24.5850  -11.6700   20.8020 C   0  0  0  0  0  0  0  0  0  0  0  0
  -26.1870  -12.9370   20.1530 N   0  0  0  0  0  0  0  0  0  0  0  0
  -25.8470  -11.6450   20.3920 N   0  0  0  0  0  0  0  0  0  0  0  0
  -23.8700  -10.4020   20.9980 C   0  0  0  0  0  0  0  0  0  0  0  0
  -24.3440   -9.4230   21.9000 C   0  0  0  0  0  3  0  0  0  0  0  0
  -23.6320   -8.2180   22.0860 C   0  0  0  0  0  3  0  0  0  0  0  0
  -22.4340   -7.9840   21.3710 C   0  0  0  0  0  0  0  0  0  0  0  0
  -21.9780   -8.9520   20.4570 C   0  0  0  0  0  3  0  0  0  0  0  0
  -22.6910  -10.1480   20.2690 C   0  0  0  0  0  3  0  0  0  0  0  0
  -21.6900   -6.8310   21.4660 O   0  0  0  0  0  0  0  0  0  0  0  0
  -21.6660   -6.0830   22.6170 C   0  0  0  0  0  0  0  0  0  0  0  0
  -21.2370   -6.6240   23.8490 C   0  0  0  0  0  3  0  0  0  0  0  0
  -21.1640   -5.8030   24.9910 C   0  0  0  0  0  3  0  0  0  0  0  0
  -21.5080   -4.4410   24.9020 C   0  0  0  0  0  0  0  0  0  0  0  0
  -21.9280   -3.8990   23.6750 C   0  0  0  0  0  3  0  0  0  0  0  0
  -22.0050   -4.7190   22.5350 C   0  0  0  0  0  0  0  0  0  0  0  0
  -22.3900   -4.1870   21.3490 F   0  0  0  0  0  0  0  0  0  0  0  0
  -21.4310   -3.6490   25.9960 F   0  0  0  0  0  0  0  0  0  0  0  0
  -22.7560  -13.4830   21.3150 C   0  0  0  0  0  0  0  0  0  0  0  0
  -22.0940  -12.7550   22.2100 N   0  0  0  0  0  0  0  0  0  0  0  0
  -22.2790  -14.5230   20.8630 O   0  0  0  0  0  0  0  0  0  0  0  0
  -22.4900  -11.9120   22.5990 H   0  0  0  0  0  0  0  0  0  0  0  0
  -21.1730  -13.0430   22.5050 H   0  0  0  0  0  0  0  0  0  0  0  0
  -25.3140  -15.1830   20.3530 N   0  0  0  0  0  0  0  0  0  0  0  0
  -24.5430  -15.8220   20.5180 H   0  0  0  0  0  0  0  0  0  0  0  0
  -26.0960  -15.6240   19.8900 H   0  0  0  0  0  0  0  0  0  0  0  0
  1  7  1  0
  2  1  2  0
  2 10  1  0
  3  4  1  0
  3  1  1  0
  4  6  1  0
  6 11  1  0
  6  5  1  0
  7  5  1  0
  7 52  1  0
  7  8  1  6
  9 10  2  0
 12 23  2  0
 13 11  1  0
 13 18  1  0
 14 22  1  0
 14 24  1  0
 15 21  1  0
 15 17  1  0
 16 22  1  0
 17 16  1  0
 18 17  2  0
 19 13  2  0
 20 19  1  0
 20 15  2  0
 21 14  1  0
 22 12  1  0
 24 26  2  0
 25 24  1  0
 27 25  1  0
 28 37  2  0
 28 33  1  0
 29 25  1  0
 29 33  1  0
 30 29  1  0
 31 32  1  0
 31 30  1  0
 32 28  1  0
 33 34  2  0
 34 35  1  0
 36 35  2  0
 37 36  1  0
 38 12  1  0
 38 43  1  0
 38 39  1  0
 39 42  1  1
 39 40  1  0
 41 39  1  0
 43 46  1  0
 44 48  1  0
 44 43  1  0
 45 44  2  0
 48 47  1  0
 50 48  1  0
 50 51  1  0
 50 49  1  0
 53 56  1  0
 54 53  2  0
 54 58  1  0
 56 55  2  0
 56 52  1  0
 57 55  1  0
 57 59  1  0
 58 68  1  0
 58 57  2  0
 60 68  1  0
 61 66  1  0
 62 63  1  0
 62 61  1  0
 64 63  1  0
 64 73  1  0
 64 65  1  0
 66 60  1  0
 66 65  1  0
 67 60  2  0
 68 69  1  0
 70 71  2  0
 71 90  1  0
 72 71  1  0
 72 75  1  0
 73 74  1  0
 73 70  1  0
 74 72  2  0
 75 76  1  0
 76 77  2  0
 78 81  1  0
 78 77  1  0
 79 78  2  0
 80 79  1  0
 80 75  2  0
 81 82  1  0
 82 83  1  0
 83 84  2  0
 85 84  1  0
 85 89  1  0
 86 85  2  0
 87 82  2  0
 87 86  1  0
 88 87  1  0
 90 91  1  0
 91 94  1  0
 91 93  1  0
 92 90  2  0
 95 70  1  0
 95 96  1  0
 97 95  1  0
M  ISO  4   6 101  11 101  60 100  68 100
M  END
>  <TORSDO>  (28) 
F 19

>  <SCORE>  (28) 
-14.141

>  <name>  (28) 
27

>  <ligand_id>  (28) 
27

>  <original_smiles>  (28) 
[H]C([H])=C([H])C([H])=C1C([H])([H])C([H])([H])C([H])(Oc2c([H])c([H])c3c(c2[H])C([H])([H])N(C(=O)C([H])(N([H])C(=O)C([H])(N([H])C([H])([H])[H])C([H])([H])[H])C(C([H])([H])[H])(C([H])([H])[H])C([H])([H])[H])C([H])(C(=O)N([H])C2([H])c4c([H])c([H])c([H])c([H])c4C([H])([H])C([H])([H])C2([H])[H])C3([H])[H])C([H])([H])[N+]1([H])C([H])([H])c1c([H])c([H])c(N([H])C(=O)N2C([H])([H])C([H])([H])C([H])([H])C([H])(n3nc(-c4c([H])c([H])c(Oc5c([H])c([H])c(F)c([H])c5F)c([H])c4[H])c(C(=O)N([H])[H])c3N([H])[H])C2([H])[H])c(C([H])([H])[H])c1[H]

>  <smiles>  (28) 
[H]C([H])=C([H])C([H])=C1C([H])([H])C([H])([H])C([H])(Oc2c([H])c([H])c3c(c2[H])C([H])([H])N(C(=O)C([H])(N([H])C(=O)C([H])(N([H])C([H])([H])[H])C([H])([H])[H])C(C([H])([H])[H])(C([H])([H])[H])C([H])([H])[H])C([H])(C(=O)N([H])C2([H])c4c([H])c([H])c([H])c([H])c4C([H])([H])C([H])([H])C2([H])[H])C3([H])[H])C([H])([H])[N+]1([H])C([H])([H])c1c([H])c([H])c(N([H])C(=O)N2C([H])([H])C([H])([H])C([H])([H])C([H])(n3nc(-c4c([H])c([H])c(Oc5c([H])c([H])c(F)c([H])c5F)c([H])c4[H])c(C(=O)N([H])[H])c3N([H])[H])C2([H])[H])c(C([H])([H])[H])c1[H]

$$$$
28:0:0
     RDKit          3D

 94102  0  0  1  0  0  0  0  0999 V2000
  -28.9880  -22.5000   19.9720 N   0  0  0  0  0  4  0  0  0  0  0  0
  -28.8050  -22.3420   18.9950 H   0  0  0  0  0  0  0  0  0  0  0  0
  -29.9750  -22.6890   20.0630 H   0  0  0  0  0  0  0  0  0  0  0  0
  -28.7510  -21.1490   20.6690 C   0  0  0  0  0  2  0  0  0  0  0  0
  -30.2760  -19.9610   18.9560 C   0  0  0  0  0  3  0  0  0  0  0  0
  -30.8900  -18.8390   18.3790 C   0  0  0  0  0  3  0  0  0  0  0  0
  -29.4250  -18.5120   20.7100 C   0  0  0  0  0  3  0  0  0  0  0  0
  -29.4980  -19.8450   20.1240 C   0  0  0  0  0  0  0  0  0  0  0  0
  -30.7730  -17.5430   18.9260 C   0  0  0  0  0  0  0  0  0  0  0  0
  -30.0710  -17.3250   20.1540 C   0  0  0  0  0  0  0  0  0  0  0  0
  -31.3700  -16.4310   18.0780 C   0  0  0  0  0  1  0  0  0  0  0  0
  -30.6990  -14.8170   20.6740 C   0  0  0  0  0  0  0  0  0  0  0  0
  -30.5550  -12.5150   19.7370 C   0  0  0  0  0  2  0  0  0  0  0  0
  -29.6810  -12.5440   18.4630 C   0  0  0  0  0  2  0  0  0  0  0  0
  -28.1900  -12.3990   18.8180 C   0  0  0  0  0  2  0  0  0  0  0  0
  -27.7540  -13.3180   19.9910 C   0  0  0  0  0  3  0  0  0  0  0  0
  -28.7520  -13.2580   21.1680 C   0  0  0  0  0  2  0  0  0  0  0  0
  -30.0780  -13.5910   20.6340 N   0  0  0  0  0  0  0  0  0  0  0  0
  -31.9150  -14.8850   20.4790 O   0  0  0  0  0  0  0  0  0  0  0  0
  -29.9070  -15.9580   20.7380 N   0  0  0  0  0  0  0  0  0  0  0  0
  -28.9940  -15.7840   21.1290 H   0  0  0  0  0  0  0  0  0  0  0  0
  -25.3310  -13.9170   20.5860 C   0  0  0  0  0  0  0  0  0  0  0  0
  -24.2470  -13.1480   20.9120 C   0  0  0  0  0  0  0  0  0  0  0  0
  -24.7130  -11.7960   20.9290 C   0  0  0  0  0  0  0  0  0  0  0  0
  -26.3860  -13.0370   20.4180 N   0  0  0  0  0  0  0  0  0  0  0  0
  -26.0180  -11.7570   20.6900 N   0  0  0  0  0  0  0  0  0  0  0  0
  -23.9790  -10.5360   21.0990 C   0  0  0  0  0  0  0  0  0  0  0  0
  -24.3710   -9.5770   22.0590 C   0  0  0  0  0  3  0  0  0  0  0  0
  -23.6370   -8.3810   22.2170 C   0  0  0  0  0  3  0  0  0  0  0  0
  -22.4990   -8.1360   21.4150 C   0  0  0  0  0  0  0  0  0  0  0  0
  -22.1260   -9.0830   20.4450 C   0  0  0  0  0  3  0  0  0  0  0  0
  -22.8600  -10.2710   20.2850 C   0  0  0  0  0  3  0  0  0  0  0  0
  -21.7390   -6.9930   21.4820 O   0  0  0  0  0  0  0  0  0  0  0  0
  -21.6440   -6.2580   22.6370 C   0  0  0  0  0  0  0  0  0  0  0  0
  -21.1700   -6.8200   23.8410 C   0  0  0  0  0  3  0  0  0  0  0  0
  -21.0240   -6.0110   24.9860 C   0  0  0  0  0  3  0  0  0  0  0  0
  -21.3430   -4.6420   24.9260 C   0  0  0  0  0  0  0  0  0  0  0  0
  -21.8090   -4.0790   23.7250 C   0  0  0  0  0  3  0  0  0  0  0  0
  -21.9570   -4.8850   22.5830 C   0  0  0  0  0  0  0  0  0  0  0  0
  -22.3880   -4.3330   21.4230 F   0  0  0  0  0  0  0  0  0  0  0  0
  -21.1950   -3.8620   26.0230 F   0  0  0  0  0  0  0  0  0  0  0  0
  -22.8370  -13.6260   21.0990 C   0  0  0  0  0  0  0  0  0  0  0  0
  -22.0650  -12.9480   21.9410 N   0  0  0  0  0  0  0  0  0  0  0  0
  -22.4250  -14.6380   20.5340 O   0  0  0  0  0  0  0  0  0  0  0  0
  -22.4090  -12.1310   22.4220 H   0  0  0  0  0  0  0  0  0  0  0  0
  -21.1160  -13.2520   22.1080 H   0  0  0  0  0  0  0  0  0  0  0  0
  -25.5020  -15.2850   20.3930 N   0  0  0  0  0  0  0  0  0  0  0  0
  -24.7270  -15.9370   20.4480 H   0  0  0  0  0  0  0  0  0  0  0  0
  -26.3590  -15.7190   20.0710 H   0  0  0  0  0  0  0  0  0  0  0  0
  -28.2250  -23.7790   20.3830 C   0  0  0  0  0  2  0  0  0  0  0  0
  -28.6500  -25.1580   19.6440 C   0  0  0  0  0  3  0  0  0  0  0  0
  -29.1120  -26.2790   17.3590 C   0  0  0  0  0  1  0  0  0  0  0  0
  -28.4610  -25.1050   18.1080 C   0  0  0  0  0  2  0  0  0  0  0  0
  -28.4060  -26.5280   20.2100 O   0  0  0  0  0  0  0  0  0  0  0  0
  -24.6280  -31.8910   23.2190 C   0  0  0  0  0  0  0  0  0  0  0  0
  -27.2410  -27.3200   20.1470 C   0  0  0  0  0  0  0  0  0  0  0  0
  -23.4200  -30.4870   21.5840 C   0  0  0  0  0  3  0  0  0  0  0  0
  -24.8650  -28.9350   20.1510 C   0  0  0  0  0  0  0  0  0  0  0  0
  -25.9560  -30.8130   21.3830 C   0  0  0  0  0  2  0  0  0  0  0  0
  -26.0360  -29.4320   20.7340 C   0  0  0  0  0  0  0  0  0  0  0  0
  -27.2210  -28.6370   20.7190 C   0  0  0  0  0  3  0  0  0  0  0  0
  -26.0360  -26.8660   19.5730 C   0  0  0  0  0  3  0  0  0  0  0  0
  -24.8680  -27.6580   19.5630 C   0  0  0  0  0  3  0  0  0  0  0  0
  -23.6270  -29.8080   20.2030 C   0  0  0  0  0  2  0  0  0  0  0  0
  -24.6870  -31.0820   22.1180 N   0  0  0  0  0  0  0  0  0  0  0  0
  -23.5470  -32.1640   23.7600 O   0  0  0  0  0  0  0  0  0  0  0  0
  -22.7650  -29.4710   22.5510 C   0  0  0  0  0  0  0  0  0  0  0  0
  -21.4380  -29.2930   22.4360 N   0  0  0  0  0  0  0  0  0  0  0  0
  -23.4510  -28.8450   23.3630 O   0  0  0  0  0  0  0  0  0  0  0  0
  -20.9430  -29.8520   21.7540 H   0  0  0  0  0  0  0  0  0  0  0  0
  -18.0670  -28.0900   22.9570 C   0  0  0  0  0  0  0  0  0  0  0  0
  -20.6260  -28.3540   23.2110 C   0  0  0  0  0  3  0  0  0  0  0  0
  -20.7270  -26.9240   22.6330 C   0  0  0  0  0  2  0  0  0  0  0  0
  -19.6190  -26.6000   21.6250 C   0  0  0  0  0  2  0  0  0  0  0  0
  -18.2410  -26.7410   22.2790 C   0  0  0  0  0  2  0  0  0  0  0  0
  -19.1870  -28.8530   23.3800 C   0  0  0  0  0  0  0  0  0  0  0  0
  -18.9700  -30.1150   23.9760 C   0  0  0  0  0  3  0  0  0  0  0  0
  -17.6650  -30.6130   24.1530 C   0  0  0  0  0  3  0  0  0  0  0  0
  -16.5590  -29.8460   23.7460 C   0  0  0  0  0  3  0  0  0  0  0  0
  -16.7610  -28.5870   23.1540 C   0  0  0  0  0  3  0  0  0  0  0  0
  -25.9120  -32.5290   23.8350 C   0  0  0  0  0  3  0  0  0  0  0  0
  -25.5970  -33.9270   24.1690 N   0  0  0  0  0  0  0  0  0  0  0  0
  -25.9160  -34.9820   23.4090 C   0  0  0  0  0  0  0  0  0  0  0  0
  -26.5740  -34.8840   22.3700 O   0  0  0  0  0  0  0  0  0  0  0  0
  -25.0120  -34.0760   24.9780 H   0  0  0  0  0  0  0  0  0  0  0  0
  -24.1790  -36.7720   23.0760 C   0  0  0  0  0  1  0  0  0  0  0  0
  -25.4290  -36.3680   23.8760 C   0  0  0  0  0  3  0  0  0  0  0  0
  -27.5670  -37.2580   24.6920 C   0  0  0  0  0  1  0  0  0  0  0  0
  -26.4560  -37.4250   23.7580 N   0  0  0  0  0  0  0  0  0  0  0  0
  -26.0480  -38.3430   23.9100 H   0  0  0  0  0  0  0  0  0  0  0  0
  -26.4370  -31.7610   25.1090 C   0  0  1  0  0  0  0  0  0  0  0  0
  -25.3520  -31.5230   26.1850 C   0  0  0  0  0  1  0  0  0  0  0  0
  -27.0210  -30.3830   24.7170 C   0  0  0  0  0  1  0  0  0  0  0  0
  -27.5890  -32.5580   25.7660 C   0  0  0  0  0  1  0  0  0  0  0  0
  1  3  1  0
  1 50  1  0
  1  4  1  0
  2  1  1  0
  5  8  1  0
  6  9  1  0
  6  5  2  0
  8  4  1  0
  8  7  2  0
  9 10  2  0
 10  7  1  0
 10 20  1  0
 11  9  1  0
 12 20  1  0
 13 18  1  0
 14 15  1  0
 14 13  1  0
 16 15  1  0
 16 25  1  0
 16 17  1  0
 18 12  1  0
 18 17  1  0
 19 12  2  0
 20 21  1  0
 22 23  2  0
 23 24  1  0
 23 42  1  0
 24 27  1  0
 25 22  1  0
 25 26  1  0
 26 24  2  0
 27 28  1  0
 28 29  2  0
 30 33  1  0
 30 29  1  0
 31 30  2  0
 32 31  1  0
 32 27  2  0
 33 34  1  0
 34 35  1  0
 35 36  2  0
 37 36  1  0
 37 41  1  0
 38 37  2  0
 39 34  2  0
 39 38  1  0
 40 39  1  0
 42 43  1  0
 43 46  1  0
 43 45  1  0
 44 42  2  0
 47 48  1  0
 47 22  1  0
 49 47  1  0
 51 53  1  0
 51 54  1  0
 51 50  1  0
 52 53  1  0
 55 66  2  0
 56 54  1  0
 56 61  1  0
 57 65  1  0
 57 67  1  0
 58 64  1  0
 58 60  1  0
 59 65  1  0
 60 59  1  0
 61 60  2  0
 62 56  2  0
 63 62  1  0
 63 58  2  0
 64 57  1  0
 65 55  1  0
 67 69  2  0
 68 67  1  0
 70 68  1  0
 71 80  2  0
 71 76  1  0
 72 68  1  0
 72 76  1  0
 73 72  1  0
 74 75  1  0
 74 73  1  0
 75 71  1  0
 76 77  2  0
 77 78  1  0
 79 78  2  0
 80 79  1  0
 81 55  1  0
 81 82  1  0
 81 91  1  0
 82 85  1  0
 83 87  1  0
 83 82  1  0
 84 83  2  0
 87 86  1  0
 89 87  1  0
 89 90  1  0
 89 88  1  0
 91 94  1  1
 91 92  1  0
 93 91  1  0
M  ISO  4  12 100  20 100  51 101  54 101
M  END
>  <TORSDO>  (29) 
F 21

>  <SCORE>  (29) 
-13.389

>  <name>  (29) 
28

>  <ligand_id>  (29) 
28

>  <original_smiles>  (29) 
[H]c1c([H])c([H])c2c(c1[H])C([H])([H])C([H])([H])C([H])([H])C2([H])N([H])C(=O)C1([H])N(C(=O)C([H])(N([H])C(=O)C([H])(N([H])C([H])([H])[H])C([H])([H])[H])C(C([H])([H])[H])(C([H])([H])[H])C([H])([H])[H])C([H])([H])c2c([H])c(OC([H])(C([H])([H])C([H])([H])[H])C([H])([H])[N+]([H])([H])C([H])([H])c3c([H])c([H])c(C([H])([H])[H])c(N([H])C(=O)N4C([H])([H])C([H])([H])C([H])([H])C([H])(n5nc(-c6c([H])c([H])c(Oc7c([H])c([H])c(F)c([H])c7F)c([H])c6[H])c(C(=O)N([H])[H])c5N([H])[H])C4([H])[H])c3[H])c([H])c([H])c2C1([H])[H]

>  <smiles>  (29) 
[H]c1c([H])c([H])c2c(c1[H])C([H])([H])C([H])([H])C([H])([H])C2([H])N([H])C(=O)C1([H])N(C(=O)C([H])(N([H])C(=O)C([H])(N([H])C([H])([H])[H])C([H])([H])[H])C(C([H])([H])[H])(C([H])([H])[H])C([H])([H])[H])C([H])([H])c2c([H])c(OC([H])(C([H])([H])C([H])([H])[H])C([H])([H])[N+]([H])([H])C([H])([H])c3c([H])c([H])c(C([H])([H])[H])c(N([H])C(=O)N4C([H])([H])C([H])([H])C([H])([H])C([H])(n5nc(-c6c([H])c([H])c(Oc7c([H])c([H])c(F)c([H])c7F)c([H])c6[H])c(C(=O)N([H])[H])c5N([H])[H])C4([H])[H])c3[H])c([H])c([H])c2C1([H])[H]

$$$$
29:0:0
     RDKit          3D

 99108  0  0  1  0  0  0  0  0999 V2000
  -30.9720  -23.1230   19.2620 C   0  0  0  0  0  0  0  0  0  0  0  0
  -32.0530  -23.1380   18.4560 C   0  0  0  0  0  3  0  0  0  0  0  0
  -30.2770  -24.3810   19.7740 C   0  0  0  0  0  2  0  0  0  0  0  0
  -28.0560  -22.5040   18.7950 C   0  0  0  0  0  2  0  0  0  0  0  0
  -27.8770  -24.0240   18.9530 C   0  0  0  0  0  2  0  0  0  0  0  0
  -28.8570  -21.8520   19.9410 C   0  0  0  0  0  2  0  0  0  0  0  0
  -29.1720  -24.8450   18.8020 C   0  0  0  0  0  3  0  0  0  0  0  0
  -32.7880  -21.9410   17.8790 C   0  0  0  0  0  1  0  0  0  0  0  0
  -30.3310  -21.8390   19.7130 N   0  0  2  0  0  4  0  0  0  0  0  0
  -30.4400  -21.2090   18.9340 H   0  0  0  0  0  0  0  0  0  0  0  0
  -31.0740  -21.1480   20.8020 C   0  0  0  0  0  2  0  0  0  0  0  0
  -30.4320  -18.9010   19.7470 C   0  0  0  0  0  3  0  0  0  0  0  0
  -30.6840  -17.5630   22.1970 C   0  0  0  0  0  3  0  0  0  0  0  0
  -30.1650  -17.5190   19.8150 C   0  0  0  0  0  0  0  0  0  0  0  0
  -30.7940  -19.6400   20.8980 C   0  0  0  0  0  0  0  0  0  0  0  0
  -30.3270  -16.8310   21.0460 C   0  0  0  0  0  0  0  0  0  0  0  0
  -30.9170  -18.9530   22.1320 C   0  0  0  0  0  0  0  0  0  0  0  0
  -29.6820  -16.8180   18.5530 C   0  0  0  0  0  1  0  0  0  0  0  0
  -31.3770  -19.7780   23.5790 Cl  0  0  0  0  0  0  0  0  0  0  0  0
  -30.7670  -14.4570   20.5640 C   0  0  0  0  0  0  0  0  0  0  0  0
  -30.4730  -12.3200   19.3840 C   0  0  0  0  0  2  0  0  0  0  0  0
  -29.5540  -12.5500   18.1670 C   0  0  0  0  0  2  0  0  0  0  0  0
  -28.0720  -12.4200   18.5660 C   0  0  0  0  0  2  0  0  0  0  0  0
  -27.7180  -13.2520   19.8280 C   0  0  0  0  0  3  0  0  0  0  0  0
  -28.7460  -13.0000   20.9540 C   0  0  0  0  0  2  0  0  0  0  0  0
  -30.0910  -13.2880   20.4230 N   0  0  0  0  0  0  0  0  0  0  0  0
  -31.8860  -14.6560   20.0800 O   0  0  0  0  0  0  0  0  0  0  0  0
  -30.0830  -15.4360   21.1770 N   0  0  0  0  0  0  0  0  0  0  0  0
  -29.2450  -15.1600   21.6650 H   0  0  0  0  0  0  0  0  0  0  0  0
  -25.3040  -13.8780   20.4710 C   0  0  0  0  0  0  0  0  0  0  0  0
  -24.2250  -13.1120   20.8230 C   0  0  0  0  0  0  0  0  0  0  0  0
  -24.6820  -11.7590   20.8160 C   0  0  0  0  0  0  0  0  0  0  0  0
  -26.3510  -12.9900   20.2750 N   0  0  0  0  0  0  0  0  0  0  0  0
  -25.9780  -11.7120   20.5370 N   0  0  0  0  0  0  0  0  0  0  0  0
  -23.9480  -10.5000   21.0020 C   0  0  0  0  0  0  0  0  0  0  0  0
  -24.3590   -9.5400   21.9540 C   0  0  0  0  0  3  0  0  0  0  0  0
  -23.6270   -8.3460   22.1250 C   0  0  0  0  0  3  0  0  0  0  0  0
  -22.4690   -8.1040   21.3470 C   0  0  0  0  0  0  0  0  0  0  0  0
  -22.0790   -9.0520   20.3870 C   0  0  0  0  0  3  0  0  0  0  0  0
  -22.8110  -10.2390   20.2130 C   0  0  0  0  0  3  0  0  0  0  0  0
  -21.7110   -6.9610   21.4290 O   0  0  0  0  0  0  0  0  0  0  0  0
  -21.6330   -6.2310   22.5870 C   0  0  0  0  0  0  0  0  0  0  0  0
  -21.1690   -6.7960   23.7950 C   0  0  0  0  0  3  0  0  0  0  0  0
  -21.0380   -5.9910   24.9440 C   0  0  0  0  0  3  0  0  0  0  0  0
  -21.3600   -4.6230   24.8860 C   0  0  0  0  0  0  0  0  0  0  0  0
  -21.8170   -4.0560   23.6830 C   0  0  0  0  0  3  0  0  0  0  0  0
  -21.9500   -4.8570   22.5360 C   0  0  0  0  0  0  0  0  0  0  0  0
  -22.3700   -4.3030   21.3740 F   0  0  0  0  0  0  0  0  0  0  0  0
  -21.2270   -3.8470   25.9880 F   0  0  0  0  0  0  0  0  0  0  0  0
  -22.8240  -13.5960   21.0620 C   0  0  0  0  0  0  0  0  0  0  0  0
  -22.0770  -12.9120   21.9220 N   0  0  0  0  0  0  0  0  0  0  0  0
  -22.3980  -14.6170   20.5220 O   0  0  0  0  0  0  0  0  0  0  0  0
  -22.4310  -12.0860   22.3810 H   0  0  0  0  0  0  0  0  0  0  0  0
  -21.1370  -13.2200   22.1260 H   0  0  0  0  0  0  0  0  0  0  0  0
  -25.4770  -15.2460   20.2840 N   0  0  0  0  0  0  0  0  0  0  0  0
  -24.7120  -15.9050   20.3730 H   0  0  0  0  0  0  0  0  0  0  0  0
  -26.3400  -15.6810   19.9840 H   0  0  0  0  0  0  0  0  0  0  0  0
  -28.9160  -26.3670   18.8690 C   0  0  0  0  0  2  0  0  0  0  0  0
  -28.4470  -26.7950   20.1490 O   0  0  0  0  0  0  0  0  0  0  0  0
  -24.5960  -31.9060   23.2610 C   0  0  0  0  0  0  0  0  0  0  0  0
  -27.2650  -27.4990   20.1600 C   0  0  0  0  0  0  0  0  0  0  0  0
  -23.3970  -30.5060   21.6110 C   0  0  0  0  0  3  0  0  0  0  0  0
  -24.8570  -28.9740   20.1910 C   0  0  0  0  0  0  0  0  0  0  0  0
  -25.9210  -30.8700   21.4240 C   0  0  0  0  0  2  0  0  0  0  0  0
  -26.0100  -29.5000   20.7880 C   0  0  0  0  0  0  0  0  0  0  0  0
  -27.2130  -28.7620   20.7870 C   0  0  0  0  0  3  0  0  0  0  0  0
  -26.0910  -26.9740   19.5740 C   0  0  0  0  0  3  0  0  0  0  0  0
  -24.8900  -27.7050   19.5890 C   0  0  0  0  0  3  0  0  0  0  0  0
  -23.6120  -29.8300   20.2300 C   0  0  0  0  0  2  0  0  0  0  0  0
  -24.6560  -31.1090   22.1570 N   0  0  0  0  0  0  0  0  0  0  0  0
  -23.5130  -32.1760   23.7970 O   0  0  0  0  0  0  0  0  0  0  0  0
  -22.7450  -29.4800   22.5650 C   0  0  0  0  0  0  0  0  0  0  0  0
  -21.4230  -29.2890   22.4250 N   0  0  0  0  0  0  0  0  0  0  0  0
  -23.4250  -28.8600   23.3860 O   0  0  0  0  0  0  0  0  0  0  0  0
  -20.9360  -29.8430   21.7350 H   0  0  0  0  0  0  0  0  0  0  0  0
  -18.0530  -28.0750   22.8870 C   0  0  0  0  0  0  0  0  0  0  0  0
  -20.6050  -28.3480   23.1880 C   0  0  0  0  0  3  0  0  0  0  0  0
  -20.7230  -26.9160   22.6160 C   0  0  0  0  0  2  0  0  0  0  0  0
  -19.6350  -26.5840   21.5910 C   0  0  0  0  0  2  0  0  0  0  0  0
  -18.2450  -26.7240   22.2180 C   0  0  0  0  0  2  0  0  0  0  0  0
  -19.1630  -28.8440   23.3280 C   0  0  0  0  0  0  0  0  0  0  0  0
  -18.9310  -30.1090   23.9120 C   0  0  0  0  0  3  0  0  0  0  0  0
  -17.6210  -30.6040   24.0600 C   0  0  0  0  0  3  0  0  0  0  0  0
  -16.5260  -29.8330   23.6350 C   0  0  0  0  0  3  0  0  0  0  0  0
  -16.7430  -28.5690   23.0560 C   0  0  0  0  0  3  0  0  0  0  0  0
  -25.8810  -32.5350   23.8840 C   0  0  0  0  0  3  0  0  0  0  0  0
  -26.3930  -31.7650   25.1620 C   0  0  1  0  0  0  0  0  0  0  0  0
  -25.2960  -31.5310   26.2270 C   0  0  0  0  0  1  0  0  0  0  0  0
  -26.9770  -30.3880   24.7730 C   0  0  0  0  0  1  0  0  0  0  0  0
  -27.5420  -32.5600   25.8270 C   0  0  0  0  0  1  0  0  0  0  0  0
  -25.5740  -33.9350   24.2060 N   0  0  0  0  0  0  0  0  0  0  0  0
  -25.9100  -34.9810   23.4400 C   0  0  0  0  0  0  0  0  0  0  0  0
  -26.5810  -34.8700   22.4100 O   0  0  0  0  0  0  0  0  0  0  0  0
  -24.9790  -34.0960   25.0060 H   0  0  0  0  0  0  0  0  0  0  0  0
  -24.1830  -36.7710   23.0700 C   0  0  0  0  0  1  0  0  0  0  0  0
  -25.4230  -36.3720   23.8870 C   0  0  0  0  0  3  0  0  0  0  0  0
  -27.5540  -37.2620   24.7190 C   0  0  0  0  0  1  0  0  0  0  0  0
  -26.4560  -37.4240   23.7690 N   0  0  0  0  0  0  0  0  0  0  0  0
  -26.0510  -38.3450   23.9070 H   0  0  0  0  0  0  0  0  0  0  0  0
  1  9  1  0
  1  3  1  0
  2  1  2  0
  4  5  1  0
  4  6  1  0
  7 58  1  0
  7  5  1  0
  7  3  1  0
  8  2  1  0
  9  6  1  0
  9 11  1  0
  9 10  1  6
 11 15  1  0
 12 14  2  0
 12 15  1  0
 14 16  1  0
 15 17  2  0
 16 28  1  0
 16 13  2  0
 17 13  1  0
 17 19  1  0
 18 14  1  0
 20 28  1  0
 21 26  1  0
 22 23  1  0
 22 21  1  0
 24 23  1  0
 24 33  1  0
 24 25  1  0
 26 20  1  0
 26 25  1  0
 27 20  2  0
 28 29  1  0
 30 31  2  0
 31 50  1  0
 32 31  1  0
 32 35  1  0
 33 30  1  0
 33 34  1  0
 34 32  2  0
 35 36  1  0
 36 37  2  0
 38 41  1  0
 38 37  1  0
 39 38  2  0
 40 39  1  0
 40 35  2  0
 41 42  1  0
 42 43  1  0
 43 44  2  0
 45 44  1  0
 45 49  1  0
 46 45  2  0
 47 42  2  0
 47 46  1  0
 48 47  1  0
 50 51  1  0
 51 54  1  0
 51 53  1  0
 52 50  2  0
 55 56  1  0
 55 30  1  0
 57 55  1  0
 58 59  1  0
 59 61  1  0
 60 71  2  0
 61 66  1  0
 62 70  1  0
 62 72  1  0
 63 69  1  0
 63 65  1  0
 64 70  1  0
 65 64  1  0
 66 65  2  0
 67 68  1  0
 67 61  2  0
 68 63  2  0
 69 62  1  0
 70 60  1  0
 72 74  2  0
 73 72  1  0
 75 73  1  0
 76 85  2  0
 76 81  1  0
 77 73  1  0
 77 81  1  0
 78 77  1  0
 79 80  1  0
 79 78  1  0
 80 76  1  0
 81 82  2  0
 82 83  1  0
 84 83  2  0
 85 84  1  0
 86 60  1  0
 86 91  1  0
 86 87  1  0
 87 90  1  1
 87 88  1  0
 89 87  1  0
 91 94  1  0
 92 96  1  0
 92 91  1  0
 93 92  2  0
 96 95  1  0
 98 96  1  0
 98 99  1  0
 98 97  1  0
M  ISO  4  20 100  28 100  58 101  59 101
M  END
>  <TORSDO>  (30) 
F 19

>  <SCORE>  (30) 
-14.458

>  <name>  (30) 
29

>  <ligand_id>  (30) 
29

>  <original_smiles>  (30) 
[H]C(=C1C([H])([H])C([H])(C([H])([H])Oc2c([H])c([H])c3c(c2[H])C([H])([H])N(C(=O)C([H])(N([H])C(=O)C([H])(N([H])C([H])([H])[H])C([H])([H])[H])C(C([H])([H])[H])(C([H])([H])[H])C([H])([H])[H])C([H])(C(=O)N([H])C2([H])c4c([H])c([H])c([H])c([H])c4C([H])([H])C([H])([H])C2([H])[H])C3([H])[H])C([H])([H])C([H])([H])C([H])([H])[N+]1([H])C([H])([H])c1c([H])c(C([H])([H])[H])c(N([H])C(=O)N2C([H])([H])C([H])([H])C([H])([H])C([H])(n3nc(-c4c([H])c([H])c(Oc5c([H])c([H])c(F)c([H])c5F)c([H])c4[H])c(C(=O)N([H])[H])c3N([H])[H])C2([H])[H])c([H])c1Cl)C([H])([H])[H]

>  <smiles>  (30) 
[H]C(=C1C([H])([H])C([H])(C([H])([H])Oc2c([H])c([H])c3c(c2[H])C([H])([H])N(C(=O)C([H])(N([H])C(=O)C([H])(N([H])C([H])([H])[H])C([H])([H])[H])C(C([H])([H])[H])(C([H])([H])[H])C([H])([H])[H])C([H])(C(=O)N([H])C2([H])c4c([H])c([H])c([H])c([H])c4C([H])([H])C([H])([H])C2([H])[H])C3([H])[H])C([H])([H])C([H])([H])C([H])([H])[N+]1([H])C([H])([H])c1c([H])c(C([H])([H])[H])c(N([H])C(=O)N2C([H])([H])C([H])([H])C([H])([H])C([H])(n3nc(-c4c([H])c([H])c(Oc5c([H])c([H])c(F)c([H])c5F)c([H])c4[H])c(C(=O)N([H])[H])c3N([H])[H])C2([H])[H])c([H])c1Cl)C([H])([H])[H]

$$$$
30:0:0
     RDKit          3D

 96105  0  0  1  0  0  0  0  0999 V2000
  -29.9130  -21.7020   21.2810 C   0  0  0  0  0  2  0  0  0  0  0  0
  -31.0760  -17.9160   21.0610 C   0  0  0  0  0  3  0  0  0  0  0  0
  -31.0890  -19.3380   21.2230 C   0  0  0  0  0  0  0  0  0  0  0  0
  -29.9720  -20.1660   20.8640 C   0  0  0  0  0  0  0  0  0  0  0  0
  -28.8730  -19.4810   20.2630 C   0  0  0  0  0  0  0  0  0  0  0  0
  -29.9720  -17.2350   20.4990 C   0  0  0  0  0  0  0  0  0  0  0  0
  -28.9110  -18.0650   20.0390 C   0  0  0  0  0  0  0  0  0  0  0  0
  -32.3340  -19.9430   21.8500 C   0  0  0  0  0  1  0  0  0  0  0  0
  -27.6020  -20.2450   19.8990 C   0  0  0  0  0  1  0  0  0  0  0  0
  -27.6290  -17.3160   19.1560 Cl  0  0  0  0  0  0  0  0  0  0  0  0
  -30.6440  -14.7240   20.1900 C   0  0  0  0  0  0  0  0  0  0  0  0
  -30.3910  -12.5170   19.0660 C   0  0  0  0  0  2  0  0  0  0  0  0
  -29.3980  -12.6830   17.8940 C   0  0  0  0  0  2  0  0  0  0  0  0
  -27.9400  -12.5170   18.3750 C   0  0  0  0  0  2  0  0  0  0  0  0
  -27.6320  -13.3390   19.6550 C   0  0  0  0  0  3  0  0  0  0  0  0
  -28.7360  -13.1460   20.7200 C   0  0  0  0  0  2  0  0  0  0  0  0
  -30.0210  -13.5040   20.0980 N   0  0  0  0  0  0  0  0  0  0  0  0
  -31.8120  -14.8820   19.8280 O   0  0  0  0  0  0  0  0  0  0  0  0
  -29.8110  -15.7760   20.4650 N   0  0  0  0  0  0  0  0  0  0  0  0
  -28.8540  -15.4810   20.5730 H   0  0  0  0  0  0  0  0  0  0  0  0
  -25.2560  -13.9140   20.4570 C   0  0  0  0  0  0  0  0  0  0  0  0
  -24.2050  -13.1340   20.8490 C   0  0  0  0  0  0  0  0  0  0  0  0
  -24.6750  -11.7890   20.7890 C   0  0  0  0  0  0  0  0  0  0  0  0
  -26.3000  -13.0460   20.1810 N   0  0  0  0  0  0  0  0  0  0  0  0
  -25.9560  -11.7590   20.4420 N   0  0  0  0  0  0  0  0  0  0  0  0
  -23.9580  -10.5240   20.9870 C   0  0  0  0  0  0  0  0  0  0  0  0
  -24.4080   -9.5600   21.9150 C   0  0  0  0  0  3  0  0  0  0  0  0
  -23.6900   -8.3600   22.1040 C   0  0  0  0  0  3  0  0  0  0  0  0
  -22.5080   -8.1170   21.3640 C   0  0  0  0  0  0  0  0  0  0  0  0
  -22.0780   -9.0710   20.4250 C   0  0  0  0  0  3  0  0  0  0  0  0
  -22.7970  -10.2630   20.2350 C   0  0  0  0  0  3  0  0  0  0  0  0
  -21.7610   -6.9690   21.4610 O   0  0  0  0  0  0  0  0  0  0  0  0
  -21.7190   -6.2350   22.6180 C   0  0  0  0  0  0  0  0  0  0  0  0
  -21.2720   -6.7910   23.8370 C   0  0  0  0  0  3  0  0  0  0  0  0
  -21.1780   -5.9830   24.9870 C   0  0  0  0  0  3  0  0  0  0  0  0
  -21.5210   -4.6180   24.9200 C   0  0  0  0  0  0  0  0  0  0  0  0
  -21.9610   -4.0620   23.7060 C   0  0  0  0  0  3  0  0  0  0  0  0
  -22.0570   -4.8680   22.5590 C   0  0  0  0  0  0  0  0  0  0  0  0
  -22.4620   -4.3220   21.3860 F   0  0  0  0  0  0  0  0  0  0  0  0
  -21.4230   -3.8400   26.0230 F   0  0  0  0  0  0  0  0  0  0  0  0
  -22.8160  -13.6070   21.1640 C   0  0  0  0  0  0  0  0  0  0  0  0
  -22.1160  -12.9020   22.0450 N   0  0  0  0  0  0  0  0  0  0  0  0
  -22.3610  -14.6360   20.6650 O   0  0  0  0  0  0  0  0  0  0  0  0
  -22.4970  -12.0690   22.4670 H   0  0  0  0  0  0  0  0  0  0  0  0
  -21.1840  -13.2000   22.3010 H   0  0  0  0  0  0  0  0  0  0  0  0
  -25.3840  -15.2840   20.2940 N   0  0  0  0  0  0  0  0  0  0  0  0
  -24.5890  -15.9010   20.4170 H   0  0  0  0  0  0  0  0  0  0  0  0
  -26.1820  -15.7590   19.8870 H   0  0  0  0  0  0  0  0  0  0  0  0
  -29.1020  -24.0730   20.8430 C   0  0  0  0  0  0  0  0  0  0  0  0
  -28.9880  -23.5270   17.9970 C   0  0  0  0  0  2  0  0  0  0  0  0
  -28.9500  -24.9930   18.4470 C   0  0  0  0  0  2  0  0  0  0  0  0
  -29.8440  -22.6690   18.9450 C   0  0  0  0  0  2  0  0  0  0  0  0
  -28.4090  -25.1210   19.8770 C   0  0  0  0  0  3  0  0  0  0  0  0
  -29.4950  -22.8320   20.3650 N   0  0  0  0  0  0  0  0  0  0  0  0
  -29.1920  -24.3570   22.0420 O   0  0  0  0  0  0  0  0  0  0  0  0
  -28.4590  -26.5480   20.2900 O   0  0  0  0  0  0  0  0  0  0  0  0
  -24.6230  -31.8770   23.2230 C   0  0  0  0  0  0  0  0  0  0  0  0
  -27.3170  -27.3660   20.1830 C   0  0  0  0  0  0  0  0  0  0  0  0
  -23.4450  -30.4750   21.5640 C   0  0  0  0  0  3  0  0  0  0  0  0
  -24.9270  -28.9490   20.1440 C   0  0  0  0  0  0  0  0  0  0  0  0
  -25.9810  -30.8230   21.4050 C   0  0  0  0  0  2  0  0  0  0  0  0
  -26.0810  -29.4480   20.7580 C   0  0  0  0  0  0  0  0  0  0  0  0
  -27.2740  -28.6660   20.7730 C   0  0  0  0  0  3  0  0  0  0  0  0
  -26.1410  -26.9300   19.5240 C   0  0  0  0  0  3  0  0  0  0  0  0
  -24.9600  -27.6940   19.5170 C   0  0  0  0  0  3  0  0  0  0  0  0
  -23.6790  -29.8070   20.1830 C   0  0  0  0  0  2  0  0  0  0  0  0
  -24.7010  -31.0750   22.1210 N   0  0  0  0  0  0  0  0  0  0  0  0
  -23.5320  -32.1420   23.7510 O   0  0  0  0  0  0  0  0  0  0  0  0
  -22.7840  -29.4490   22.5130 C   0  0  0  0  0  0  0  0  0  0  0  0
  -21.4560  -29.2770   22.3890 N   0  0  0  0  0  0  0  0  0  0  0  0
  -23.4630  -28.8100   23.3210 O   0  0  0  0  0  0  0  0  0  0  0  0
  -20.9680  -29.8440   21.7100 H   0  0  0  0  0  0  0  0  0  0  0  0
  -18.0740  -28.1080   22.9070 C   0  0  0  0  0  0  0  0  0  0  0  0
  -20.6380  -28.3340   23.1510 C   0  0  0  0  0  3  0  0  0  0  0  0
  -20.7180  -26.9120   22.5490 C   0  0  0  0  0  2  0  0  0  0  0  0
  -19.6020  -26.6210   21.5410 C   0  0  0  0  0  2  0  0  0  0  0  0
  -18.2290  -26.7690   22.2030 C   0  0  0  0  0  2  0  0  0  0  0  0
  -19.2070  -28.8490   23.3380 C   0  0  0  0  0  0  0  0  0  0  0  0
  -19.0080  -30.1020   23.9570 C   0  0  0  0  0  3  0  0  0  0  0  0
  -17.7120  -30.6140   24.1480 C   0  0  0  0  0  3  0  0  0  0  0  0
  -16.5940  -29.8690   23.7330 C   0  0  0  0  0  3  0  0  0  0  0  0
  -16.7760  -28.6180   23.1190 C   0  0  0  0  0  3  0  0  0  0  0  0
  -25.8940  -32.5180   23.8580 C   0  0  0  0  0  3  0  0  0  0  0  0
  -25.5760  -33.9170   24.1760 N   0  0  0  0  0  0  0  0  0  0  0  0
  -25.9170  -34.9670   23.4180 C   0  0  0  0  0  0  0  0  0  0  0  0
  -26.6040  -34.8610   22.3980 O   0  0  0  0  0  0  0  0  0  0  0  0
  -24.9710  -34.0740   24.9690 H   0  0  0  0  0  0  0  0  0  0  0  0
  -24.1970  -36.7580   23.0190 C   0  0  0  0  0  1  0  0  0  0  0  0
  -25.4180  -36.3560   23.8610 C   0  0  0  0  0  3  0  0  0  0  0  0
  -27.5290  -37.2470   24.7450 C   0  0  0  0  0  1  0  0  0  0  0  0
  -26.4520  -37.4100   23.7710 N   0  0  0  0  0  0  0  0  0  0  0  0
  -26.0410  -38.3300   23.9060 H   0  0  0  0  0  0  0  0  0  0  0  0
  -26.3970  -31.7560   25.1450 C   0  0  1  0  0  0  0  0  0  0  0  0
  -25.2910  -31.5170   26.1990 C   0  0  0  0  0  1  0  0  0  0  0  0
  -26.9940  -30.3810   24.7690 C   0  0  0  0  0  1  0  0  0  0  0  0
  -27.5360  -32.5610   25.8190 C   0  0  0  0  0  1  0  0  0  0  0  0
  2  3  1  0
  3  8  1  0
  4  3  2  0
  4  1  1  0
  5  4  1  0
  6  2  2  0
  7  5  2  0
  7  6  1  0
  9  5  1  0
 10  7  1  0
 11 19  1  0
 12 17  1  0
 13 14  1  0
 13 12  1  0
 15 14  1  0
 15 24  1  0
 15 16  1  0
 17 11  1  0
 17 16  1  0
 18 11  2  0
 19  6  1  0
 19 20  1  0
 21 22  2  0
 22 41  1  0
 23 22  1  0
 23 26  1  0
 24 25  1  0
 24 21  1  0
 25 23  2  0
 26 27  1  0
 27 28  2  0
 29 32  1  0
 29 28  1  0
 30 29  2  0
 31 30  1  0
 31 26  2  0
 32 33  1  0
 33 34  1  0
 34 35  2  0
 36 35  1  0
 36 40  1  0
 37 36  2  0
 38 33  2  0
 38 37  1  0
 39 38  1  0
 41 42  1  0
 42 45  1  0
 42 44  1  0
 43 41  2  0
 46 47  1  0
 46 21  1  0
 48 46  1  0
 49 55  2  0
 50 51  1  0
 50 52  1  0
 51 53  1  0
 52 54  1  0
 53 56  1  0
 53 49  1  0
 54 49  1  0
 54  1  1  0
 57 68  2  0
 58 56  1  0
 58 63  1  0
 59 67  1  0
 59 69  1  0
 60 66  1  0
 60 62  1  0
 61 67  1  0
 62 63  2  0
 62 61  1  0
 64 58  2  0
 65 64  1  0
 65 60  2  0
 66 59  1  0
 67 57  1  0
 69 71  2  0
 70 69  1  0
 72 70  1  0
 73 82  2  0
 73 78  1  0
 74 70  1  0
 74 78  1  0
 75 74  1  0
 76 77  1  0
 76 75  1  0
 77 73  1  0
 78 79  2  0
 79 80  1  0
 81 80  2  0
 82 81  1  0
 83 57  1  0
 83 84  1  0
 83 93  1  0
 84 87  1  0
 85 89  1  0
 85 84  1  0
 86 85  2  0
 89 88  1  0
 91 89  1  0
 91 92  1  0
 91 90  1  0
 93 96  1  1
 93 94  1  0
 95 93  1  0
M  ISO  4  11 100  19 100  53 101  56 101
M  END
>  <TORSDO>  (31) 
F 18

>  <SCORE>  (31) 
-15.298

>  <name>  (31) 
30

>  <ligand_id>  (31) 
30

>  <original_smiles>  (31) 
[H]c1c([H])c([H])c2c(c1[H])C([H])([H])C([H])([H])C([H])([H])C2([H])N([H])C(=O)C1([H])N(C(=O)C([H])(N([H])C(=O)C([H])(N([H])C([H])([H])[H])C([H])([H])[H])C(C([H])([H])[H])(C([H])([H])[H])C([H])([H])[H])C([H])([H])c2c([H])c(OC3([H])C(=O)N(C([H])([H])c4c(C([H])([H])[H])c([H])c(N([H])C(=O)N5C([H])([H])C([H])([H])C([H])([H])C([H])(n6nc(-c7c([H])c([H])c(Oc8c([H])c([H])c(F)c([H])c8F)c([H])c7[H])c(C(=O)N([H])[H])c6N([H])[H])C5([H])[H])c(Cl)c4C([H])([H])[H])C([H])([H])C([H])([H])C3([H])[H])c([H])c([H])c2C1([H])[H]

>  <smiles>  (31) 
[H]c1c([H])c([H])c2c(c1[H])C([H])([H])C([H])([H])C([H])([H])C2([H])N([H])C(=O)C1([H])N(C(=O)C([H])(N([H])C(=O)C([H])(N([H])C([H])([H])[H])C([H])([H])[H])C(C([H])([H])[H])(C([H])([H])[H])C([H])([H])[H])C([H])([H])c2c([H])c(OC3([H])C(=O)N(C([H])([H])c4c(C([H])([H])[H])c([H])c(N([H])C(=O)N5C([H])([H])C([H])([H])C([H])([H])C([H])(n6nc(-c7c([H])c([H])c(Oc8c([H])c([H])c(F)c([H])c8F)c([H])c7[H])c(C(=O)N([H])[H])c6N([H])[H])C5([H])[H])c(Cl)c4C([H])([H])[H])C([H])([H])C([H])([H])C3([H])[H])c([H])c([H])c2C1([H])[H]

$$$$
31:0:0
     RDKit          3D

 95103  0  0  1  0  0  0  0  0999 V2000
  -29.8040  -20.7810   20.4780 C   0  0  0  0  0  0  0  0  0  0  0  0
  -31.0450  -20.9630   20.8210 N   0  0  0  0  0  4  0  0  0  0  0  0
  -31.7400  -20.2190   20.7710 H   0  0  0  0  0  0  0  0  0  0  0  0
  -31.4230  -21.8570   21.1110 H   0  0  0  0  0  0  0  0  0  0  0  0
  -28.7790  -19.2380   18.8410 C   0  0  0  0  0  3  0  0  0  0  0  0
  -28.8950  -16.8100   18.9790 C   0  0  0  0  0  3  0  0  0  0  0  0
  -29.4570  -19.3670   20.0690 C   0  0  0  0  0  0  0  0  0  0  0  0
  -29.8190  -18.1690   20.7940 C   0  0  0  0  0  0  0  0  0  0  0  0
  -29.5510  -16.8760   20.2300 C   0  0  0  0  0  0  0  0  0  0  0  0
  -28.5030  -17.9750   18.2990 C   0  0  0  0  0  0  0  0  0  0  0  0
  -30.4830  -18.2380   22.1690 C   0  0  0  0  0  1  0  0  0  0  0  0
  -27.8620  -17.8740   17.1100 F   0  0  0  0  0  0  0  0  0  0  0  0
  -30.5880  -14.6210   20.4320 C   0  0  0  0  0  0  0  0  0  0  0  0
  -30.3570  -12.4480   19.2910 C   0  0  0  0  0  2  0  0  0  0  0  0
  -29.4000  -12.6590   18.0970 C   0  0  0  0  0  2  0  0  0  0  0  0
  -27.9330  -12.4880   18.5350 C   0  0  0  0  0  2  0  0  0  0  0  0
  -27.5920  -13.2840   19.8250 C   0  0  0  0  0  3  0  0  0  0  0  0
  -28.6650  -13.0630   20.9180 C   0  0  0  0  0  2  0  0  0  0  0  0
  -29.9760  -13.4070   20.3410 N   0  0  0  0  0  0  0  0  0  0  0  0
  -31.7110  -14.8380   19.9640 O   0  0  0  0  0  0  0  0  0  0  0  0
  -29.8270  -15.6330   20.9190 N   0  0  0  0  0  0  0  0  0  0  0  0
  -29.0610  -15.2940   21.4830 H   0  0  0  0  0  0  0  0  0  0  0  0
  -25.1910  -13.8340   20.5610 C   0  0  0  0  0  0  0  0  0  0  0  0
  -24.1430  -13.0330   20.9270 C   0  0  0  0  0  0  0  0  0  0  0  0
  -24.6300  -11.6920   20.8690 C   0  0  0  0  0  0  0  0  0  0  0  0
  -26.2510  -12.9750   20.3090 N   0  0  0  0  0  0  0  0  0  0  0  0
  -25.9170  -11.6830   20.5500 N   0  0  0  0  0  0  0  0  0  0  0  0
  -23.9320  -10.4120   21.0440 C   0  0  0  0  0  0  0  0  0  0  0  0
  -24.3580   -9.4640   21.9990 C   0  0  0  0  0  3  0  0  0  0  0  0
  -23.6580   -8.2490   22.1610 C   0  0  0  0  0  3  0  0  0  0  0  0
  -22.5200   -7.9730   21.3660 C   0  0  0  0  0  0  0  0  0  0  0  0
  -22.1150   -8.9110   20.4000 C   0  0  0  0  0  3  0  0  0  0  0  0
  -22.8150  -10.1180   20.2360 C   0  0  0  0  0  3  0  0  0  0  0  0
  -21.7940   -6.8080   21.4350 O   0  0  0  0  0  0  0  0  0  0  0  0
  -21.6790   -6.1020   22.6050 C   0  0  0  0  0  0  0  0  0  0  0  0
  -21.1130   -6.6710   23.7680 C   0  0  0  0  0  3  0  0  0  0  0  0
  -20.9510   -5.8890   24.9280 C   0  0  0  0  0  3  0  0  0  0  0  0
  -21.3430   -4.5360   24.9260 C   0  0  0  0  0  0  0  0  0  0  0  0
  -21.9010   -3.9650   23.7690 C   0  0  0  0  0  3  0  0  0  0  0  0
  -22.0660   -4.7480   22.6120 C   0  0  0  0  0  0  0  0  0  0  0  0
  -22.5850   -4.1870   21.4910 F   0  0  0  0  0  0  0  0  0  0  0  0
  -21.1810   -3.7810   26.0380 F   0  0  0  0  0  0  0  0  0  0  0  0
  -22.7390  -13.4790   21.2200 C   0  0  0  0  0  0  0  0  0  0  0  0
  -22.0310  -12.7480   22.0740 N   0  0  0  0  0  0  0  0  0  0  0  0
  -22.2790  -14.5080   20.7280 O   0  0  0  0  0  0  0  0  0  0  0  0
  -22.4170  -11.9150   22.4930 H   0  0  0  0  0  0  0  0  0  0  0  0
  -21.0900  -13.0270   22.3140 H   0  0  0  0  0  0  0  0  0  0  0  0
  -25.3280  -15.2100   20.4050 N   0  0  0  0  0  0  0  0  0  0  0  0
  -24.5440  -15.8440   20.5220 H   0  0  0  0  0  0  0  0  0  0  0  0
  -26.1650  -15.6720   20.0740 H   0  0  0  0  0  0  0  0  0  0  0  0
  -29.2240  -23.0930   20.6390 C   0  0  0  0  0  3  0  0  0  0  0  0
  -28.9270  -21.8520   20.4070 N   0  0  0  0  0  0  0  0  0  0  0  0
  -28.2590  -24.2970   20.6180 C   0  0  0  0  0  2  0  0  0  0  0  0
  -28.7490  -25.5150   19.7650 C   0  0  0  0  0  2  0  0  0  0  0  0
  -28.5820  -26.8310   20.3450 O   0  0  0  0  0  0  0  0  0  0  0  0
  -24.6370  -31.9770   23.3010 C   0  0  0  0  0  0  0  0  0  0  0  0
  -27.3810  -27.5210   20.2900 C   0  0  0  0  0  0  0  0  0  0  0  0
  -23.4710  -30.5450   21.6560 C   0  0  0  0  0  3  0  0  0  0  0  0
  -24.9630  -29.0110   20.2620 C   0  0  0  0  0  0  0  0  0  0  0  0
  -25.9960  -30.9300   21.4890 C   0  0  0  0  0  2  0  0  0  0  0  0
  -26.1060  -29.5520   20.8620 C   0  0  0  0  0  0  0  0  0  0  0  0
  -27.3110  -28.8110   20.8760 C   0  0  0  0  0  3  0  0  0  0  0  0
  -26.2170  -26.9990   19.6850 C   0  0  0  0  0  3  0  0  0  0  0  0
  -25.0130  -27.7330   19.6750 C   0  0  0  0  0  3  0  0  0  0  0  0
  -23.7070  -29.8560   20.2850 C   0  0  0  0  0  2  0  0  0  0  0  0
  -24.7180  -31.1680   22.2060 N   0  0  0  0  0  0  0  0  0  0  0  0
  -23.5450  -32.2370   23.8270 O   0  0  0  0  0  0  0  0  0  0  0  0
  -22.8210  -29.5240   22.6170 C   0  0  0  0  0  0  0  0  0  0  0  0
  -21.5010  -29.3230   22.4750 N   0  0  0  0  0  0  0  0  0  0  0  0
  -23.5020  -28.9170   23.4470 O   0  0  0  0  0  0  0  0  0  0  0  0
  -21.0110  -29.8690   21.7810 H   0  0  0  0  0  0  0  0  0  0  0  0
  -18.1310  -28.1090   22.9540 C   0  0  0  0  0  0  0  0  0  0  0  0
  -20.6860  -28.3790   23.2410 C   0  0  0  0  0  3  0  0  0  0  0  0
  -20.8010  -26.9490   22.6620 C   0  0  0  0  0  2  0  0  0  0  0  0
  -19.7060  -26.6230   21.6410 C   0  0  0  0  0  2  0  0  0  0  0  0
  -18.3200  -26.7600   22.2780 C   0  0  0  0  0  2  0  0  0  0  0  0
  -19.2430  -28.8750   23.3910 C   0  0  0  0  0  0  0  0  0  0  0  0
  -19.0170  -30.1360   23.9820 C   0  0  0  0  0  3  0  0  0  0  0  0
  -17.7100  -30.6330   24.1420 C   0  0  0  0  0  3  0  0  0  0  0  0
  -16.6110  -29.8620   23.7250 C   0  0  0  0  0  3  0  0  0  0  0  0
  -16.8220  -28.6030   23.1360 C   0  0  0  0  0  3  0  0  0  0  0  0
  -25.9070  -32.6310   23.9330 C   0  0  0  0  0  3  0  0  0  0  0  0
  -26.4100  -31.8870   25.2310 C   0  0  1  0  0  0  0  0  0  0  0  0
  -25.3000  -31.6420   26.2790 C   0  0  0  0  0  1  0  0  0  0  0  0
  -27.0240  -30.5160   24.8670 C   0  0  0  0  0  1  0  0  0  0  0  0
  -27.5300  -32.7110   25.9080 C   0  0  0  0  0  1  0  0  0  0  0  0
  -25.5820  -34.0330   24.2310 N   0  0  0  0  0  0  0  0  0  0  0  0
  -25.9220  -35.0740   23.4570 C   0  0  0  0  0  0  0  0  0  0  0  0
  -26.6090  -34.9580   22.4390 O   0  0  0  0  0  0  0  0  0  0  0  0
  -24.9720  -34.1970   25.0170 H   0  0  0  0  0  0  0  0  0  0  0  0
  -24.1850  -36.8450   23.0430 C   0  0  0  0  0  1  0  0  0  0  0  0
  -25.4160  -36.4660   23.8820 C   0  0  0  0  0  3  0  0  0  0  0  0
  -27.5260  -37.3830   24.7360 C   0  0  0  0  0  1  0  0  0  0  0  0
  -26.4420  -37.5250   23.7680 N   0  0  0  0  0  0  0  0  0  0  0  0
  -26.0260  -38.4440   23.8920 H   0  0  0  0  0  0  0  0  0  0  0  0
  1  2  2  0
  2  4  1  0
  3  2  1  0
  5  7  1  0
  6  9  2  0
  7  1  1  0
  7  8  2  0
  8 11  1  0
  9  8  1  0
  9 21  1  0
 10  5  2  0
 10  6  1  0
 12 10  1  0
 13 21  1  0
 14 19  1  0
 15 16  1  0
 15 14  1  0
 17 16  1  0
 17 26  1  0
 17 18  1  0
 19 13  1  0
 19 18  1  0
 20 13  2  0
 21 22  1  0
 23 24  2  0
 24 43  1  0
 25 24  1  0
 25 28  1  0
 26 27  1  0
 26 23  1  0
 27 25  2  0
 28 29  1  0
 29 30  2  0
 31 34  1  0
 31 30  1  0
 32 31  2  0
 33 32  1  0
 33 28  2  0
 34 35  1  0
 35 40  2  0
 35 36  1  0
 36 37  2  0
 38 37  1  0
 38 42  1  0
 39 38  2  0
 40 39  1  0
 41 40  1  0
 43 44  1  0
 44 47  1  0
 44 46  1  0
 45 43  2  0
 48 49  1  0
 48 23  1  0
 50 48  1  0
 52  1  1  0
 52 51  2  0
 53 51  1  0
 54 55  1  0
 54 53  1  0
 56 67  2  0
 57 55  1  0
 57 62  1  0
 58 66  1  0
 58 68  1  0
 59 65  1  0
 59 61  1  0
 60 66  1  0
 61 62  2  0
 61 60  1  0
 63 57  2  0
 64 63  1  0
 64 59  2  0
 65 58  1  0
 66 56  1  0
 68 70  2  0
 69 68  1  0
 71 69  1  0
 72 81  2  0
 72 77  1  0
 73 69  1  0
 73 77  1  0
 74 73  1  0
 75 76  1  0
 75 74  1  0
 76 72  1  0
 77 78  2  0
 78 79  1  0
 80 79  2  0
 81 80  1  0
 82 56  1  0
 82 87  1  0
 82 83  1  0
 83 86  1  1
 83 84  1  0
 85 83  1  0
 87 90  1  0
 88 92  1  0
 88 87  1  0
 89 88  2  0
 92 91  1  0
 94 92  1  0
 94 95  1  0
 94 93  1  0
M  ISO  4  13 100  21 100  54 101  55 101
M  END
>  <TORSDO>  (32) 
F 20

>  <SCORE>  (32) 
-13.935

>  <name>  (32) 
31

>  <ligand_id>  (32) 
31

>  <original_smiles>  (32) 
[H]C(=NC(c1c([H])c(F)c([H])c(N([H])C(=O)N2C([H])([H])C([H])([H])C([H])([H])C([H])(n3nc(-c4c([H])c([H])c(Oc5c([H])c([H])c(F)c([H])c5F)c([H])c4[H])c(C(=O)N([H])[H])c3N([H])[H])C2([H])[H])c1C([H])([H])[H])=[N+]([H])[H])C([H])([H])C([H])([H])Oc1c([H])c([H])c2c(c1[H])C([H])([H])N(C(=O)C([H])(N([H])C(=O)C([H])(N([H])C([H])([H])[H])C([H])([H])[H])C(C([H])([H])[H])(C([H])([H])[H])C([H])([H])[H])C([H])(C(=O)N([H])C1([H])c3c([H])c([H])c([H])c([H])c3C([H])([H])C([H])([H])C1([H])[H])C2([H])[H]

>  <smiles>  (32) 
[H]C(=NC(c1c([H])c(F)c([H])c(N([H])C(=O)N2C([H])([H])C([H])([H])C([H])([H])C([H])(n3nc(-c4c([H])c([H])c(Oc5c([H])c([H])c(F)c([H])c5F)c([H])c4[H])c(C(=O)N([H])[H])c3N([H])[H])C2([H])[H])c1C([H])([H])[H])=[N+]([H])[H])C([H])([H])C([H])([H])Oc1c([H])c([H])c2c(c1[H])C([H])([H])N(C(=O)C([H])(N([H])C(=O)C([H])(N([H])C([H])([H])[H])C([H])([H])[H])C(C([H])([H])[H])(C([H])([H])[H])C([H])([H])[H])C([H])(C(=O)N([H])C1([H])c3c([H])c([H])c([H])c([H])c3C([H])([H])C([H])([H])C1([H])[H])C2([H])[H]

$$$$
32:0:0
     RDKit          3D

103112  0  0  1  0  0  0  0  0999 V2000
  -29.5950  -18.5350   20.5860 C   0  0  0  0  0  3  0  0  0  0  0  0
  -30.3330  -18.4440   17.9240 C   0  0  0  0  0  3  0  0  0  0  0  0
  -29.5090  -19.7840   19.8190 C   0  0  0  0  0  0  0  0  0  0  0  0
  -29.8830  -19.6670   18.4470 C   0  0  0  0  0  0  0  0  0  0  0  0
  -30.0340  -17.2440   20.0460 C   0  0  0  0  0  0  0  0  0  0  0  0
  -30.4100  -17.2660   18.6720 C   0  0  0  0  0  0  0  0  0  0  0  0
  -29.7610  -20.7870   17.4220 C   0  0  0  0  0  2  0  0  0  0  0  0
  -28.8810  -21.1740   20.3660 C   0  0  0  0  0  2  0  0  0  0  0  0
  -31.0590  -21.1100   16.6340 C   0  0  0  0  0  2  0  0  0  0  0  0
  -32.3730  -21.1930   17.4470 C   0  0  0  0  0  2  0  0  0  0  0  0
  -32.6890  -22.5730   18.0550 C   0  0  0  0  0  2  0  0  0  0  0  0
  -31.5280  -23.2010   18.8410 C   0  0  0  0  0  2  0  0  0  0  0  0
  -31.1380  -22.4320   20.1140 C   0  0  0  0  0  2  0  0  0  0  0  0
  -29.6910  -22.4910   20.4780 N   0  0  1  0  0  4  0  0  0  0  0  0
  -30.8740  -15.8780   17.7550 Cl  0  0  0  0  0  0  0  0  0  0  0  0
  -29.8810  -22.3030   21.4530 H   0  0  0  0  0  0  0  0  0  0  0  0
  -30.7290  -14.7920   20.6220 C   0  0  0  0  0  0  0  0  0  0  0  0
  -30.5660  -12.4850   19.6860 C   0  0  0  0  0  2  0  0  0  0  0  0
  -29.6920  -12.4860   18.4110 C   0  0  0  0  0  2  0  0  0  0  0  0
  -28.1950  -12.3870   18.7600 C   0  0  0  0  0  2  0  0  0  0  0  0
  -27.7720  -13.3130   19.9340 C   0  0  0  0  0  3  0  0  0  0  0  0
  -28.7680  -13.2480   21.1090 C   0  0  0  0  0  2  0  0  0  0  0  0
  -30.0970  -13.5700   20.5790 N   0  0  0  0  0  0  0  0  0  0  0  0
  -31.9330  -14.8660   20.3680 O   0  0  0  0  0  0  0  0  0  0  0  0
  -29.9610  -15.9420   20.7700 N   0  0  0  0  0  0  0  0  0  0  0  0
  -29.0800  -15.7760   21.2310 H   0  0  0  0  0  0  0  0  0  0  0  0
  -25.3620  -13.9330   20.5710 C   0  0  0  0  0  0  0  0  0  0  0  0
  -24.2710  -13.1710   20.8910 C   0  0  0  0  0  0  0  0  0  0  0  0
  -24.7160  -11.8140   20.8740 C   0  0  0  0  0  0  0  0  0  0  0  0
  -26.4030  -13.0410   20.3690 N   0  0  0  0  0  0  0  0  0  0  0  0
  -26.0200  -11.7620   20.6190 N   0  0  0  0  0  0  0  0  0  0  0  0
  -23.9670  -10.5610   21.0270 C   0  0  0  0  0  0  0  0  0  0  0  0
  -24.3660   -9.5670   21.9480 C   0  0  0  0  0  3  0  0  0  0  0  0
  -23.6180   -8.3780   22.0880 C   0  0  0  0  0  3  0  0  0  0  0  0
  -22.4570   -8.1740   21.3060 C   0  0  0  0  0  0  0  0  0  0  0  0
  -22.0780   -9.1570   20.3740 C   0  0  0  0  0  3  0  0  0  0  0  0
  -22.8260  -10.3360   20.2310 C   0  0  0  0  0  3  0  0  0  0  0  0
  -21.6800   -7.0420   21.3560 O   0  0  0  0  0  0  0  0  0  0  0  0
  -21.6110   -6.2660   22.4870 C   0  0  0  0  0  0  0  0  0  0  0  0
  -21.1870   -6.7920   23.7270 C   0  0  0  0  0  3  0  0  0  0  0  0
  -21.0650   -5.9420   24.8450 C   0  0  0  0  0  3  0  0  0  0  0  0
  -21.3570   -4.5710   24.7240 C   0  0  0  0  0  0  0  0  0  0  0  0
  -21.7740   -4.0450   23.4890 C   0  0  0  0  0  3  0  0  0  0  0  0
  -21.8980   -4.8910   22.3720 C   0  0  0  0  0  0  0  0  0  0  0  0
  -22.2800   -4.3750   21.1790 F   0  0  0  0  0  0  0  0  0  0  0  0
  -21.2330   -3.7540   25.7970 F   0  0  0  0  0  0  0  0  0  0  0  0
  -22.8690  -13.6660   21.1020 C   0  0  0  0  0  0  0  0  0  0  0  0
  -22.0970  -12.9870   21.9400 N   0  0  0  0  0  0  0  0  0  0  0  0
  -22.4670  -14.6940   20.5570 O   0  0  0  0  0  0  0  0  0  0  0  0
  -22.4360  -12.1590   22.4060 H   0  0  0  0  0  0  0  0  0  0  0  0
  -21.1520  -13.3000   22.1170 H   0  0  0  0  0  0  0  0  0  0  0  0
  -25.5530  -15.3010   20.4110 N   0  0  0  0  0  0  0  0  0  0  0  0
  -24.7840  -15.9590   20.4860 H   0  0  0  0  0  0  0  0  0  0  0  0
  -26.4180  -15.7360   20.1190 H   0  0  0  0  0  0  0  0  0  0  0  0
  -29.1320  -23.9280   20.7720 C   0  0  0  0  0  2  0  0  0  0  0  0
  -28.0840  -24.8160   19.8950 C   0  0  0  0  0  3  0  0  0  0  0  0
  -28.2260  -26.3290   19.9900 O   0  0  0  0  0  0  0  0  0  0  0  0
  -24.6140  -31.8340   23.0970 C   0  0  0  0  0  0  0  0  0  0  0  0
  -27.1210  -27.2240   19.9630 C   0  0  0  0  0  0  0  0  0  0  0  0
  -23.3770  -30.4660   21.4630 C   0  0  0  0  0  3  0  0  0  0  0  0
  -24.7900  -28.9170   19.9960 C   0  0  0  0  0  0  0  0  0  0  0  0
  -25.9230  -30.7440   21.2510 C   0  0  0  0  0  2  0  0  0  0  0  0
  -25.9780  -29.3710   20.5810 C   0  0  0  0  0  0  0  0  0  0  0  0
  -27.1470  -28.5390   20.5470 C   0  0  0  0  0  3  0  0  0  0  0  0
  -25.8940  -26.8370   19.3820 C   0  0  0  0  0  3  0  0  0  0  0  0
  -24.7520  -27.6580   19.3860 C   0  0  0  0  0  3  0  0  0  0  0  0
  -23.5670  -29.8120   20.0700 C   0  0  0  0  0  2  0  0  0  0  0  0
  -24.6590  -31.0310   21.9940 N   0  0  0  0  0  0  0  0  0  0  0  0
  -23.5390  -32.1180   23.6470 O   0  0  0  0  0  0  0  0  0  0  0  0
  -22.7150  -29.4430   22.4190 C   0  0  0  0  0  0  0  0  0  0  0  0
  -21.3830  -29.2870   22.3210 N   0  0  0  0  0  0  0  0  0  0  0  0
  -23.4000  -28.7950   23.2140 O   0  0  0  0  0  0  0  0  0  0  0  0
  -20.8860  -29.8640   21.6560 H   0  0  0  0  0  0  0  0  0  0  0  0
  -18.0010  -28.1310   22.8830 C   0  0  0  0  0  0  0  0  0  0  0  0
  -20.5690  -28.3510   23.0980 C   0  0  0  0  0  3  0  0  0  0  0  0
  -20.6370  -26.9260   22.5000 C   0  0  0  0  0  2  0  0  0  0  0  0
  -19.5080  -26.6340   21.5070 C   0  0  0  0  0  2  0  0  0  0  0  0
  -18.1440  -26.7890   22.1840 C   0  0  0  0  0  2  0  0  0  0  0  0
  -19.1400  -28.8700   23.2990 C   0  0  0  0  0  0  0  0  0  0  0  0
  -18.9530  -30.1270   23.9150 C   0  0  0  0  0  3  0  0  0  0  0  0
  -17.6600  -30.6420   24.1200 C   0  0  0  0  0  3  0  0  0  0  0  0
  -16.5350  -29.9000   23.7200 C   0  0  0  0  0  3  0  0  0  0  0  0
  -16.7070  -28.6460   23.1070 C   0  0  0  0  0  3  0  0  0  0  0  0
  -25.9080  -32.4550   23.7060 C   0  0  0  0  0  3  0  0  0  0  0  0
  -25.6060  -33.8450   24.0740 N   0  0  0  0  0  0  0  0  0  0  0  0
  -25.9540  -34.9190   23.3520 C   0  0  0  0  0  0  0  0  0  0  0  0
  -26.6340  -34.8400   22.3240 O   0  0  0  0  0  0  0  0  0  0  0  0
  -25.0070  -33.9810   24.8750 H   0  0  0  0  0  0  0  0  0  0  0  0
  -24.2490  -36.7390   23.0310 C   0  0  0  0  0  1  0  0  0  0  0  0
  -25.4750  -36.2970   23.8460 C   0  0  0  0  0  3  0  0  0  0  0  0
  -27.6070  -37.1360   24.7310 C   0  0  0  0  0  1  0  0  0  0  0  0
  -26.5200  -37.3430   23.7770 N   0  0  0  0  0  0  0  0  0  0  0  0
  -26.1210  -38.2620   23.9490 H   0  0  0  0  0  0  0  0  0  0  0  0
  -26.4460  -31.6570   24.9560 C   0  0  1  0  0  0  0  0  0  0  0  0
  -25.3770  -31.4090   26.0450 C   0  0  0  0  0  1  0  0  0  0  0  0
  -27.0110  -30.2830   24.5300 C   0  0  0  0  0  1  0  0  0  0  0  0
  -27.6200  -32.4300   25.6030 C   0  0  0  0  0  1  0  0  0  0  0  0
  -27.9600  -24.3620   18.4170 C   0  0  0  0  0  2  0  0  0  0  0  0
  -28.7860  -25.1700   17.3920 C   0  0  0  0  0  2  0  0  0  0  0  0
  -27.9030  -25.8950   16.3580 C   0  0  0  0  0  2  0  0  0  0  0  0
  -28.4580  -27.2530   15.9180 C   0  0  0  0  0  2  0  0  0  0  0  0
  -27.9730  -29.3710   14.5760 C   0  0  0  0  0  1  0  0  0  0  0  0
  -27.4760  -27.9850   14.9950 C   0  0  0  0  0  2  0  0  0  0  0  0
  2  4  2  0
  2  6  1  0
  3  8  1  0
  3  1  2  0
  4  3  1  0
  5  1  1  0
  5 25  1  0
  6  5  2  0
  7  4  1  0
  8 14  1  0
  9  7  1  0
  9 10  1  0
 10 11  1  0
 11 12  1  0
 12 13  1  0
 13 14  1  0
 14 55  1  0
 14 16  1  1
 15  6  1  0
 17 25  1  0
 18 23  1  0
 19 20  1  0
 19 18  1  0
 21 20  1  0
 21 30  1  0
 21 22  1  0
 23 17  1  0
 23 22  1  0
 24 17  2  0
 25 26  1  0
 27 28  2  0
 28 47  1  0
 29 28  1  0
 29 32  1  0
 30 27  1  0
 30 31  1  0
 31 29  2  0
 32 33  1  0
 33 34  2  0
 35 38  1  0
 35 34  1  0
 36 35  2  0
 37 36  1  0
 37 32  2  0
 38 39  1  0
 39 40  1  0
 40 41  2  0
 42 41  1  0
 42 46  1  0
 43 42  2  0
 44 39  2  0
 44 43  1  0
 45 44  1  0
 47 48  1  0
 48 51  1  0
 48 50  1  0
 49 47  2  0
 52 53  1  0
 52 27  1  0
 54 52  1  0
 56 98  1  0
 56 57  1  0
 56 55  1  0
 58 69  2  0
 59 57  1  0
 59 64  1  0
 60 68  1  0
 60 70  1  0
 61 67  1  0
 61 63  1  0
 62 68  1  0
 63 62  1  0
 64 63  2  0
 65 66  1  0
 65 59  2  0
 66 61  2  0
 67 60  1  0
 68 58  1  0
 70 72  2  0
 71 70  1  0
 73 71  1  0
 74 83  2  0
 74 79  1  0
 75 71  1  0
 75 79  1  0
 76 75  1  0
 77 78  1  0
 77 76  1  0
 78 74  1  0
 79 80  2  0
 80 81  1  0
 82 81  2  0
 83 82  1  0
 84 58  1  0
 84 85  1  0
 84 94  1  0
 85 88  1  0
 86 90  1  0
 86 85  1  0
 87 86  2  0
 90 89  1  0
 92 90  1  0
 92 93  1  0
 92 91  1  0
 94 97  1  1
 94 95  1  0
 96 94  1  0
 99 98  1  0
100 99  1  0
101100  1  0
102103  1  0
103101  1  0
M  ISO  4  17 100  25 100  56 101  57 101
M  END
>  <TORSDO>  (33) 
F 23

>  <SCORE>  (33) 
-12.835

>  <name>  (33) 
32

>  <ligand_id>  (33) 
32

>  <original_smiles>  (33) 
[H]c1c([H])c([H])c2c(c1[H])C([H])([H])C([H])([H])C([H])([H])C2([H])N([H])C(=O)C1([H])N(C(=O)C([H])(N([H])C(=O)C([H])(N([H])C([H])([H])[H])C([H])([H])[H])C(C([H])([H])[H])(C([H])([H])[H])C([H])([H])[H])C([H])([H])c2c([H])c(OC([H])(C([H])([H])C([H])([H])C([H])([H])C([H])([H])C([H])([H])C([H])([H])[H])C([H])([H])[N+]3([H])C([H])([H])c4c([H])c(N([H])C(=O)N5C([H])([H])C([H])([H])C([H])([H])C([H])(n6nc(-c7c([H])c([H])c(Oc8c([H])c([H])c(F)c([H])c8F)c([H])c7[H])c(C(=O)N([H])[H])c6N([H])[H])C5([H])[H])c(Cl)c([H])c4C([H])([H])C([H])([H])C([H])([H])C([H])([H])C([H])([H])C3([H])[H])c([H])c([H])c2C1([H])[H]

>  <smiles>  (33) 
[H]c1c([H])c([H])c2c(c1[H])C([H])([H])C([H])([H])C([H])([H])C2([H])N([H])C(=O)C1([H])N(C(=O)C([H])(N([H])C(=O)C([H])(N([H])C([H])([H])[H])C([H])([H])[H])C(C([H])([H])[H])(C([H])([H])[H])C([H])([H])[H])C([H])([H])c2c([H])c(OC([H])(C([H])([H])C([H])([H])C([H])([H])C([H])([H])C([H])([H])C([H])([H])[H])C([H])([H])[N+]3([H])C([H])([H])c4c([H])c(N([H])C(=O)N5C([H])([H])C([H])([H])C([H])([H])C([H])(n6nc(-c7c([H])c([H])c(Oc8c([H])c([H])c(F)c([H])c8F)c([H])c7[H])c(C(=O)N([H])[H])c6N([H])[H])C5([H])[H])c(Cl)c([H])c4C([H])([H])C([H])([H])C([H])([H])C([H])([H])C([H])([H])C3([H])[H])c([H])c([H])c2C1([H])[H]

$$$$
33:0:0
     RDKit          3D

 96104  0  0  1  0  0  0  0  0999 V2000
  -29.7560  -19.0080   21.5960 C   0  0  0  0  0  3  0  0  0  0  0  0
  -29.4250  -20.3470   21.2800 C   0  0  0  0  0  3  0  0  0  0  0  0
  -28.9390  -18.3200   19.4310 C   0  0  0  0  0  3  0  0  0  0  0  0
  -29.5380  -17.9760   20.6620 C   0  0  0  0  0  0  0  0  0  0  0  0
  -28.8360  -20.6970   20.0440 C   0  0  0  0  0  0  0  0  0  0  0  0
  -28.5290  -19.6480   19.1250 C   0  0  0  0  0  0  0  0  0  0  0  0
  -26.3340  -20.5620   18.0870 C   0  0  0  0  0  1  0  0  0  0  0  0
  -27.7030  -19.8880   17.8460 C   0  0  2  0  0  0  0  0  0  0  0  0
  -27.4270  -18.7250   17.2560 F   0  0  0  0  0  0  0  0  0  0  0  0
  -28.4190  -20.6070   16.9800 F   0  0  0  0  0  0  0  0  0  0  0  0
  -29.8600  -16.5080   21.0100 C   0  0  0  0  0  2  0  0  0  0  0  0
  -31.0820  -14.5930   19.9440 C   0  0  0  0  0  0  0  0  0  0  0  0
  -30.7470  -12.3470   18.9940 C   0  0  0  0  0  2  0  0  0  0  0  0
  -29.7720  -12.4920   17.8080 C   0  0  0  0  0  2  0  0  0  0  0  0
  -28.3070  -12.4320   18.2890 C   0  0  0  0  0  2  0  0  0  0  0  0
  -28.0290  -13.3340   19.5250 C   0  0  0  0  0  3  0  0  0  0  0  0
  -29.1200  -13.1600   20.6030 C   0  0  0  0  0  2  0  0  0  0  0  0
  -30.4130  -13.4090   19.9580 N   0  0  0  0  0  0  0  0  0  0  0  0
  -32.2440  -14.6900   19.5420 O   0  0  0  0  0  0  0  0  0  0  0  0
  -30.2930  -15.6850   19.8700 N   0  0  0  0  0  0  0  0  0  0  0  0
  -30.5950  -16.2800   19.1130 H   0  0  0  0  0  0  0  0  0  0  0  0
  -25.7210  -14.0490   20.3900 C   0  0  0  0  0  0  0  0  0  0  0  0
  -24.6290  -13.3320   20.7840 C   0  0  0  0  0  0  0  0  0  0  0  0
  -24.9960  -11.9550   20.6560 C   0  0  0  0  0  0  0  0  0  0  0  0
  -26.6910  -13.1180   20.0610 N   0  0  0  0  0  0  0  0  0  0  0  0
  -26.2610  -11.8510   20.2760 N   0  0  0  0  0  0  0  0  0  0  0  0
  -24.2030  -10.7340   20.8230 C   0  0  0  0  0  0  0  0  0  0  0  0
  -24.6260   -9.6810   21.6630 C   0  0  0  0  0  3  0  0  0  0  0  0
  -23.8330   -8.5240   21.8170 C   0  0  0  0  0  3  0  0  0  0  0  0
  -22.6010   -8.4130   21.1300 C   0  0  0  0  0  0  0  0  0  0  0  0
  -22.1930   -9.4550   20.2770 C   0  0  0  0  0  3  0  0  0  0  0  0
  -22.9860  -10.6050   20.1220 C   0  0  0  0  0  3  0  0  0  0  0  0
  -21.7740   -7.3190   21.2020 O   0  0  0  0  0  0  0  0  0  0  0  0
  -21.7520   -6.5070   22.3070 C   0  0  0  0  0  0  0  0  0  0  0  0
  -21.4390   -7.0040   23.5910 C   0  0  0  0  0  3  0  0  0  0  0  0
  -21.3630   -6.1220   24.6880 C   0  0  0  0  0  3  0  0  0  0  0  0
  -21.5800   -4.7450   24.5000 C   0  0  0  0  0  0  0  0  0  0  0  0
  -21.8780   -4.2450   23.2200 C   0  0  0  0  0  3  0  0  0  0  0  0
  -21.9620   -5.1240   22.1260 C   0  0  0  0  0  0  0  0  0  0  0  0
  -22.2340   -4.6360   20.8920 F   0  0  0  0  0  0  0  0  0  0  0  0
  -21.4950   -3.8960   25.5520 F   0  0  0  0  0  0  0  0  0  0  0  0
  -23.2840  -13.8830   21.1620 C   0  0  0  0  0  0  0  0  0  0  0  0
  -22.5680  -13.2020   22.0460 N   0  0  0  0  0  0  0  0  0  0  0  0
  -22.8820  -14.9550   20.7130 O   0  0  0  0  0  0  0  0  0  0  0  0
  -22.9100  -12.3350   22.4370 H   0  0  0  0  0  0  0  0  0  0  0  0
  -21.6720  -13.5570   22.3450 H   0  0  0  0  0  0  0  0  0  0  0  0
  -25.9650  -15.4100   20.2590 N   0  0  0  0  0  0  0  0  0  0  0  0
  -25.2230  -16.0900   20.3570 H   0  0  0  0  0  0  0  0  0  0  0  0
  -26.7750  -15.7700   19.7730 H   0  0  0  0  0  0  0  0  0  0  0  0
  -28.4440  -22.1720   19.7840 C   0  0  0  0  0  2  0  0  0  0  0  0
  -29.4530  -23.2170   20.0930 N   0  0  0  0  0  4  0  0  0  0  0  0
  -30.0710  -23.2890   19.2970 H   0  0  0  0  0  0  0  0  0  0  0  0
  -30.0190  -22.9290   20.8740 H   0  0  0  0  0  0  0  0  0  0  0  0
  -28.8320  -24.5380   20.4240 C   0  0  0  0  0  2  0  0  0  0  0  0
  -29.5310  -25.7670   19.7920 C   0  0  0  0  0  2  0  0  0  0  0  0
  -29.2140  -27.0070   20.4490 O   0  0  0  0  0  0  0  0  0  0  0  0
  -24.7390  -31.7400   23.2860 C   0  0  0  0  0  0  0  0  0  0  0  0
  -27.9690  -27.5960   20.3380 C   0  0  0  0  0  0  0  0  0  0  0  0
  -23.7840  -30.3120   21.5090 C   0  0  0  0  0  3  0  0  0  0  0  0
  -25.4640  -28.9240   20.1730 C   0  0  0  0  0  0  0  0  0  0  0  0
  -26.2840  -30.8550   21.5420 C   0  0  0  0  0  2  0  0  0  0  0  0
  -26.5210  -29.5130   20.8770 C   0  0  0  0  0  0  0  0  0  0  0  0
  -27.7670  -28.8520   20.9600 C   0  0  0  0  0  3  0  0  0  0  0  0
  -26.8900  -27.0220   19.6260 C   0  0  0  0  0  3  0  0  0  0  0  0
  -25.6430  -27.6750   19.5500 C   0  0  0  0  0  3  0  0  0  0  0  0
  -24.1590  -29.6930   20.1340 C   0  0  0  0  0  2  0  0  0  0  0  0
  -24.9460  -30.9830   22.1700 N   0  0  0  0  0  0  0  0  0  0  0  0
  -23.5980  -31.9140   23.7390 O   0  0  0  0  0  0  0  0  0  0  0  0
  -23.1370  -29.2120   22.3750 C   0  0  0  0  0  0  0  0  0  0  0  0
  -21.8280  -28.9930   22.1830 N   0  0  0  0  0  0  0  0  0  0  0  0
  -23.8130  -28.5510   23.1700 O   0  0  0  0  0  0  0  0  0  0  0  0
  -21.3240  -29.6170   21.5710 H   0  0  0  0  0  0  0  0  0  0  0  0
  -18.4730  -27.6900   22.4740 C   0  0  0  0  0  0  0  0  0  0  0  0
  -21.0200  -27.9640   22.8380 C   0  0  0  0  0  3  0  0  0  0  0  0
  -21.1700  -26.5930   22.1420 C   0  0  0  0  0  2  0  0  0  0  0  0
  -20.0910  -26.2970   21.0950 C   0  0  0  0  0  2  0  0  0  0  0  0
  -18.6820  -26.4060   21.6850 C   0  0  0  0  0  2  0  0  0  0  0  0
  -19.5670  -28.4330   22.9880 C   0  0  0  0  0  0  0  0  0  0  0  0
  -19.3200  -29.6440   23.6690 C   0  0  0  0  0  3  0  0  0  0  0  0
  -18.0120  -30.1190   23.8500 C   0  0  0  0  0  3  0  0  0  0  0  0
  -16.9280  -29.3730   23.3560 C   0  0  0  0  0  3  0  0  0  0  0  0
  -17.1570  -28.1620   22.6720 C   0  0  0  0  0  3  0  0  0  0  0  0
  -25.9180  -32.4370   24.0320 C   0  0  0  0  0  3  0  0  0  0  0  0
  -25.5090  -33.8170   24.3160 N   0  0  0  0  0  0  0  0  0  0  0  0
  -25.8670  -34.8830   23.5870 C   0  0  0  0  0  0  0  0  0  0  0  0
  -26.6420  -34.8090   22.6290 O   0  0  0  0  0  0  0  0  0  0  0  0
  -24.8270  -33.9440   25.0500 H   0  0  0  0  0  0  0  0  0  0  0  0
  -24.0830  -36.5720   23.0430 C   0  0  0  0  0  1  0  0  0  0  0  0
  -25.2620  -36.2460   23.9720 C   0  0  0  0  0  3  0  0  0  0  0  0
  -27.2560  -37.2540   24.9900 C   0  0  0  0  0  1  0  0  0  0  0  0
  -26.2420  -37.3520   23.9460 N   0  0  0  0  0  0  0  0  0  0  0  0
  -25.7750  -38.2490   24.0420 H   0  0  0  0  0  0  0  0  0  0  0  0
  -26.3410  -31.6960   25.3600 C   0  0  1  0  0  0  0  0  0  0  0  0
  -25.1610  -31.4080   26.3140 C   0  0  0  0  0  1  0  0  0  0  0  0
  -27.0180  -30.3420   25.0400 C   0  0  0  0  0  1  0  0  0  0  0  0
  -27.3820  -32.5410   26.1310 C   0  0  0  0  0  1  0  0  0  0  0  0
  2  1  1  0
  3  4  1  0
  4 11  1  0
  4  1  2  0
  5  2  2  0
  6  3  2  0
  6  5  1  0
  8  7  1  1
  8  6  1  0
  9  8  1  0
 10  8  1  0
 12 18  1  0
 13 18  1  0
 14 15  1  0
 14 13  1  0
 16 15  1  0
 16 25  1  0
 16 17  1  0
 18 17  1  0
 19 12  2  0
 20 12  1  0
 20 11  1  0
 21 20  1  0
 22 23  2  0
 23 42  1  0
 24 23  1  0
 24 27  1  0
 25 26  1  0
 25 22  1  0
 26 24  2  0
 27 28  1  0
 28 29  2  0
 30 33  1  0
 30 29  1  0
 31 30  2  0
 32 31  1  0
 32 27  2  0
 33 34  1  0
 34 35  1  0
 35 36  2  0
 37 36  1  0
 37 41  1  0
 38 37  2  0
 39 34  2  0
 39 38  1  0
 40 39  1  0
 42 43  1  0
 43 46  1  0
 43 45  1  0
 44 42  2  0
 47 48  1  0
 47 22  1  0
 49 47  1  0
 50  5  1  0
 50 51  1  0
 51 54  1  0
 51 53  1  0
 52 51  1  0
 55 54  1  0
 55 56  1  0
 57 68  2  0
 58 56  1  0
 58 63  1  0
 59 67  1  0
 59 69  1  0
 60 62  1  0
 61 67  1  0
 62 63  2  0
 62 61  1  0
 64 58  2  0
 65 64  1  0
 65 60  2  0
 66 60  1  0
 66 59  1  0
 67 57  1  0
 69 71  2  0
 70 69  1  0
 72 70  1  0
 73 82  2  0
 73 78  1  0
 74 70  1  0
 74 78  1  0
 75 74  1  0
 76 77  1  0
 76 75  1  0
 77 73  1  0
 78 79  2  0
 79 80  1  0
 81 80  2  0
 82 81  1  0
 83 57  1  0
 83 84  1  0
 83 93  1  0
 84 87  1  0
 85 89  1  0
 85 84  1  0
 86 85  2  0
 89 88  1  0
 91 89  1  0
 91 92  1  0
 91 90  1  0
 93 96  1  1
 93 94  1  0
 95 93  1  0
M  ISO  4  12 100  20 100  55 101  56 101
M  END
>  <TORSDO>  (34) 
F 22

>  <SCORE>  (34) 
-12.328

>  <name>  (34) 
33

>  <ligand_id>  (34) 
33

>  <original_smiles>  (34) 
[H]c1c([H])c([H])c2c(c1[H])C([H])([H])C([H])([H])C([H])([H])C2([H])N([H])C(=O)C1([H])N(C(=O)C([H])(N([H])C(=O)C([H])(N([H])C([H])([H])[H])C([H])([H])[H])C(C([H])([H])[H])(C([H])([H])[H])C([H])([H])[H])C([H])([H])c2c([H])c(OC([H])([H])C([H])([H])[N+]([H])([H])C([H])([H])c3c([H])c([H])c(C([H])([H])N([H])C(=O)N4C([H])([H])C([H])([H])C([H])([H])C([H])(n5nc(-c6c([H])c([H])c(Oc7c([H])c([H])c(F)c([H])c7F)c([H])c6[H])c(C(=O)N([H])[H])c5N([H])[H])C4([H])[H])c([H])c3C(F)(F)C([H])([H])[H])c([H])c([H])c2C1([H])[H]

>  <smiles>  (34) 
[H]c1c([H])c([H])c2c(c1[H])C([H])([H])C([H])([H])C([H])([H])C2([H])N([H])C(=O)C1([H])N(C(=O)C([H])(N([H])C(=O)C([H])(N([H])C([H])([H])[H])C([H])([H])[H])C(C([H])([H])[H])(C([H])([H])[H])C([H])([H])[H])C([H])([H])c2c([H])c(OC([H])([H])C([H])([H])[N+]([H])([H])C([H])([H])c3c([H])c([H])c(C([H])([H])N([H])C(=O)N4C([H])([H])C([H])([H])C([H])([H])C([H])(n5nc(-c6c([H])c([H])c(Oc7c([H])c([H])c(F)c([H])c7F)c([H])c6[H])c(C(=O)N([H])[H])c5N([H])[H])C4([H])[H])c([H])c3C(F)(F)C([H])([H])[H])c([H])c([H])c2C1([H])[H]

$$$$
34:0:0
     RDKit          3D

 97106  0  0  1  0  0  0  0  0999 V2000
  -28.0730  -22.2490   21.0470 C   0  0  0  0  0  0  0  0  0  0  0  0
  -27.9920  -21.5040   22.1640 C   0  0  0  0  0  2  0  0  0  0  0  0
  -26.9100  -22.5980   20.1470 C   0  0  0  0  0  2  0  0  0  0  0  0
  -26.1700  -23.8220   20.7060 C   0  0  0  0  0  2  0  0  0  0  0  0
  -27.1320  -24.9360   21.1700 C   0  0  0  0  0  2  0  0  0  0  0  0
  -29.4860  -24.3410   20.3040 C   0  0  0  0  0  2  0  0  0  0  0  0
  -28.1950  -25.2720   20.0820 C   0  0  0  0  0  3  0  0  0  0  0  0
  -29.3740  -22.8230   20.5800 N   0  0  2  0  0  4  0  0  0  0  0  0
  -29.9570  -22.7700   21.4000 H   0  0  0  0  0  0  0  0  0  0  0  0
  -28.4290  -26.7460   20.0000 O   0  0  0  0  0  0  0  0  0  0  0  0
  -24.6400  -31.9490   23.1980 C   0  0  0  0  0  0  0  0  0  0  0  0
  -27.3190  -27.6090   19.9070 C   0  0  0  0  0  0  0  0  0  0  0  0
  -23.4470  -30.6020   21.5080 C   0  0  0  0  0  3  0  0  0  0  0  0
  -24.9170  -29.1610   19.9840 C   0  0  0  0  0  0  0  0  0  0  0  0
  -25.9730  -30.9870   21.3120 C   0  0  0  0  0  2  0  0  0  0  0  0
  -26.0780  -29.6440   20.6000 C   0  0  0  0  0  0  0  0  0  0  0  0
  -27.2800  -28.8800   20.5560 C   0  0  0  0  0  3  0  0  0  0  0  0
  -26.1450  -27.2010   19.2290 C   0  0  0  0  0  3  0  0  0  0  0  0
  -24.9540  -27.9450   19.2850 C   0  0  0  0  0  3  0  0  0  0  0  0
  -23.6560  -29.9950   20.0930 C   0  0  0  0  0  2  0  0  0  0  0  0
  -24.7050  -31.1950   22.0630 N   0  0  0  0  0  0  0  0  0  0  0  0
  -23.5570  -32.1750   23.7580 O   0  0  0  0  0  0  0  0  0  0  0  0
  -22.8200  -29.5250   22.4250 C   0  0  0  0  0  0  0  0  0  0  0  0
  -21.5010  -29.3060   22.2850 N   0  0  0  0  0  0  0  0  0  0  0  0
  -23.5170  -28.8950   23.2230 O   0  0  0  0  0  0  0  0  0  0  0  0
  -20.9970  -29.8710   21.6160 H   0  0  0  0  0  0  0  0  0  0  0  0
  -18.1670  -27.9740   22.7110 C   0  0  0  0  0  0  0  0  0  0  0  0
  -20.7120  -28.3140   23.0170 C   0  0  0  0  0  3  0  0  0  0  0  0
  -20.8710  -26.9080   22.3940 C   0  0  0  0  0  2  0  0  0  0  0  0
  -19.7920  -26.5840   21.3560 C   0  0  0  0  0  2  0  0  0  0  0  0
  -18.3960  -26.6590   21.9830 C   0  0  0  0  0  2  0  0  0  0  0  0
  -19.2520  -28.7600   23.1790 C   0  0  0  0  0  0  0  0  0  0  0  0
  -18.9820  -29.9940   23.8120 C   0  0  0  0  0  3  0  0  0  0  0  0
  -17.6570  -30.4420   23.9770 C   0  0  0  0  0  3  0  0  0  0  0  0
  -16.5870  -29.6510   23.5250 C   0  0  0  0  0  3  0  0  0  0  0  0
  -16.8400  -28.4170   22.9000 C   0  0  0  0  0  3  0  0  0  0  0  0
  -25.9170  -32.5770   23.8370 C   0  0  0  0  0  3  0  0  0  0  0  0
  -25.6020  -33.9730   24.1730 N   0  0  0  0  0  0  0  0  0  0  0  0
  -25.9330  -35.0320   23.4200 C   0  0  0  0  0  0  0  0  0  0  0  0
  -26.6080  -34.9360   22.3920 O   0  0  0  0  0  0  0  0  0  0  0  0
  -25.0070  -34.1180   24.9740 H   0  0  0  0  0  0  0  0  0  0  0  0
  -24.2000  -36.8190   23.0690 C   0  0  0  0  0  1  0  0  0  0  0  0
  -25.4400  -36.4160   23.8840 C   0  0  0  0  0  3  0  0  0  0  0  0
  -27.5660  -37.3090   24.7300 C   0  0  0  0  0  1  0  0  0  0  0  0
  -26.4700  -37.4730   23.7770 N   0  0  0  0  0  0  0  0  0  0  0  0
  -26.0610  -38.3920   23.9190 H   0  0  0  0  0  0  0  0  0  0  0  0
  -26.4220  -31.7980   25.1120 C   0  0  1  0  0  0  0  0  0  0  0  0
  -25.3180  -31.5460   26.1680 C   0  0  0  0  0  1  0  0  0  0  0  0
  -27.0120  -30.4250   24.7150 C   0  0  0  0  0  1  0  0  0  0  0  0
  -27.5650  -32.5900   25.7890 C   0  0  0  0  0  1  0  0  0  0  0  0
  -30.1560  -21.8900   19.6750 C   0  0  0  0  0  2  0  0  0  0  0  0
  -31.0750  -18.2860   21.0860 C   0  0  0  0  0  3  0  0  0  0  0  0
  -29.3490  -19.4570   19.2330 C   0  0  0  0  0  3  0  0  0  0  0  0
  -31.0620  -19.7080   20.9140 C   0  0  0  0  0  0  0  0  0  0  0  0
  -30.1780  -20.3360   19.9810 C   0  0  0  0  0  0  0  0  0  0  0  0
  -30.2430  -17.4200   20.3290 C   0  0  0  0  0  0  0  0  0  0  0  0
  -29.3770  -18.0430   19.3920 C   0  0  0  0  0  0  0  0  0  0  0  0
  -32.0240  -20.5380   21.7490 C   0  0  0  0  0  1  0  0  0  0  0  0
  -28.3180  -17.0850   18.4170 Cl  0  0  0  0  0  0  0  0  0  0  0  0
  -30.8970  -14.9610   20.1400 C   0  0  0  0  0  0  0  0  0  0  0  0
  -30.6710  -12.7270   19.0810 C   0  0  0  0  0  2  0  0  0  0  0  0
  -29.6990  -12.8510   17.8870 C   0  0  0  0  0  2  0  0  0  0  0  0
  -28.2340  -12.6840   18.3420 C   0  0  0  0  0  2  0  0  0  0  0  0
  -27.8960  -13.5360   19.5950 C   0  0  0  0  0  3  0  0  0  0  0  0
  -28.9820  -13.3880   20.6850 C   0  0  0  0  0  2  0  0  0  0  0  0
  -30.2790  -13.7400   20.0800 N   0  0  0  0  0  0  0  0  0  0  0  0
  -32.0300  -15.1370   19.6850 O   0  0  0  0  0  0  0  0  0  0  0  0
  -30.1450  -15.9950   20.6140 N   0  0  0  0  0  0  0  0  0  0  0  0
  -29.2430  -15.7010   20.9500 H   0  0  0  0  0  0  0  0  0  0  0  0
  -25.5180  -14.1180   20.3710 C   0  0  0  0  0  0  0  0  0  0  0  0
  -24.4630  -13.3400   20.7600 C   0  0  0  0  0  0  0  0  0  0  0  0
  -24.9280  -11.9900   20.7070 C   0  0  0  0  0  0  0  0  0  0  0  0
  -26.5600  -13.2430   20.1050 N   0  0  0  0  0  0  0  0  0  0  0  0
  -26.2110  -11.9570   20.3650 N   0  0  0  0  0  0  0  0  0  0  0  0
  -24.2100  -10.7260   20.9060 C   0  0  0  0  0  0  0  0  0  0  0  0
  -24.6280   -9.7840   21.8710 C   0  0  0  0  0  3  0  0  0  0  0  0
  -23.9120   -8.5810   22.0550 C   0  0  0  0  0  3  0  0  0  0  0  0
  -22.7630   -8.3100   21.2730 C   0  0  0  0  0  0  0  0  0  0  0  0
  -22.3670   -9.2410   20.2960 C   0  0  0  0  0  3  0  0  0  0  0  0
  -23.0840  -10.4350   20.1110 C   0  0  0  0  0  3  0  0  0  0  0  0
  -22.0190   -7.1590   21.3660 O   0  0  0  0  0  0  0  0  0  0  0  0
  -21.9020   -6.4720   22.5460 C   0  0  0  0  0  0  0  0  0  0  0  0
  -21.3350   -7.0600   23.6990 C   0  0  0  0  0  3  0  0  0  0  0  0
  -21.1690   -6.2940   24.8710 C   0  0  0  0  0  3  0  0  0  0  0  0
  -21.5590   -4.9410   24.8890 C   0  0  0  0  0  0  0  0  0  0  0  0
  -22.1190   -4.3520   23.7420 C   0  0  0  0  0  3  0  0  0  0  0  0
  -22.2880   -5.1150   22.5730 C   0  0  0  0  0  0  0  0  0  0  0  0
  -22.8060   -4.5390   21.4630 F   0  0  0  0  0  0  0  0  0  0  0  0
  -21.3920   -4.2050   26.0120 F   0  0  0  0  0  0  0  0  0  0  0  0
  -23.0700  -13.8110   21.0660 C   0  0  0  0  0  0  0  0  0  0  0  0
  -22.3620  -13.1070   21.9440 N   0  0  0  0  0  0  0  0  0  0  0  0
  -22.6170  -14.8390   20.5650 O   0  0  0  0  0  0  0  0  0  0  0  0
  -22.7390  -12.2760   22.3770 H   0  0  0  0  0  0  0  0  0  0  0  0
  -21.4280  -13.4060   22.1840 H   0  0  0  0  0  0  0  0  0  0  0  0
  -25.6690  -15.4900   20.2020 N   0  0  0  0  0  0  0  0  0  0  0  0
  -24.8890  -16.1290   20.3180 H   0  0  0  0  0  0  0  0  0  0  0  0
  -26.4830  -15.9330   19.7920 H   0  0  0  0  0  0  0  0  0  0  0  0
  1  2  2  0
  3  4  1  0
  3  1  1  0
  4  5  1  0
  6  8  1  0
  7 10  1  0
  7  6  1  0
  7  5  1  0
  8  1  1  0
  8  9  1  1
 11 22  2  0
 12 10  1  0
 12 17  1  0
 13 21  1  0
 13 23  1  0
 14 20  1  0
 14 16  1  0
 15 21  1  0
 16 15  1  0
 17 16  2  0
 18 19  1  0
 18 12  2  0
 19 14  2  0
 20 13  1  0
 21 11  1  0
 23 25  2  0
 24 23  1  0
 26 24  1  0
 27 36  2  0
 27 32  1  0
 28 24  1  0
 28 32  1  0
 29 28  1  0
 30 31  1  0
 30 29  1  0
 31 27  1  0
 32 33  2  0
 33 34  1  0
 35 34  2  0
 36 35  1  0
 37 11  1  0
 37 38  1  0
 37 47  1  0
 38 41  1  0
 39 43  1  0
 39 38  1  0
 40 39  2  0
 43 42  1  0
 45 43  1  0
 45 46  1  0
 45 44  1  0
 47 50  1  1
 47 48  1  0
 49 47  1  0
 51 55  1  0
 51  8  1  0
 53 57  2  0
 53 55  1  0
 54 52  1  0
 54 58  1  0
 55 54  2  0
 56 68  1  0
 56 52  2  0
 57 56  1  0
 59 57  1  0
 60 68  1  0
 61 66  1  0
 62 63  1  0
 62 61  1  0
 64 63  1  0
 64 73  1  0
 64 65  1  0
 66 60  1  0
 66 65  1  0
 67 60  2  0
 68 69  1  0
 70 71  2  0
 71 90  1  0
 72 71  1  0
 72 75  1  0
 73 74  1  0
 73 70  1  0
 74 72  2  0
 75 76  1  0
 76 77  2  0
 78 81  1  0
 78 77  1  0
 79 78  2  0
 80 79  1  0
 80 75  2  0
 81 82  1  0
 82 87  2  0
 82 83  1  0
 83 84  2  0
 84 85  1  0
 85 89  1  0
 86 85  2  0
 87 86  1  0
 88 87  1  0
 90 91  1  0
 91 94  1  0
 91 93  1  0
 92 90  2  0
 95 96  1  0
 95 70  1  0
 97 95  1  0
M  ISO  4   7 101  10 101  60 100  68 100
M  END
>  <TORSDO>  (35) 
F 18

>  <SCORE>  (35) 
-14.031

>  <name>  (35) 
34

>  <ligand_id>  (35) 
34

>  <original_smiles>  (35) 
[H]C([H])=C1C([H])([H])C([H])([H])C([H])([H])C([H])(Oc2c([H])c([H])c3c(c2[H])C([H])([H])N(C(=O)C([H])(N([H])C(=O)C([H])(N([H])C([H])([H])[H])C([H])([H])[H])C(C([H])([H])[H])(C([H])([H])[H])C([H])([H])[H])C([H])(C(=O)N([H])C2([H])c4c([H])c([H])c([H])c([H])c4C([H])([H])C([H])([H])C2([H])[H])C3([H])[H])C([H])([H])[N+]1([H])C([H])([H])c1c([H])c(Cl)c(N([H])C(=O)N2C([H])([H])C([H])([H])C([H])([H])C([H])(n3nc(-c4c([H])c([H])c(Oc5c([H])c([H])c(F)c([H])c5F)c([H])c4[H])c(C(=O)N([H])[H])c3N([H])[H])C2([H])[H])c([H])c1C([H])([H])[H]

>  <smiles>  (35) 
[H]C([H])=C1C([H])([H])C([H])([H])C([H])([H])C([H])(Oc2c([H])c([H])c3c(c2[H])C([H])([H])N(C(=O)C([H])(N([H])C(=O)C([H])(N([H])C([H])([H])[H])C([H])([H])[H])C(C([H])([H])[H])(C([H])([H])[H])C([H])([H])[H])C([H])(C(=O)N([H])C2([H])c4c([H])c([H])c([H])c([H])c4C([H])([H])C([H])([H])C2([H])[H])C3([H])[H])C([H])([H])[N+]1([H])C([H])([H])c1c([H])c(Cl)c(N([H])C(=O)N2C([H])([H])C([H])([H])C([H])([H])C([H])(n3nc(-c4c([H])c([H])c(Oc5c([H])c([H])c(F)c([H])c5F)c([H])c4[H])c(C(=O)N([H])[H])c3N([H])[H])C2([H])[H])c([H])c1C([H])([H])[H]

$$$$
35:0:0
     RDKit          3D

 93101  0  0  1  0  0  0  0  0999 V2000
  -29.6530  -21.2720   20.8940 C   0  0  0  0  0  2  0  0  0  0  0  0
  -30.3040  -20.0160   18.7670 C   0  0  0  0  0  3  0  0  0  0  0  0
  -30.6240  -18.8820   18.0050 C   0  0  0  0  0  3  0  0  0  0  0  0
  -29.9500  -19.9070   20.1250 C   0  0  0  0  0  0  0  0  0  0  0  0
  -29.9810  -18.5620   20.7020 C   0  0  0  0  0  0  0  0  0  0  0  0
  -30.3410  -17.3700   19.9340 C   0  0  0  0  0  0  0  0  0  0  0  0
  -30.6290  -17.5870   18.5550 C   0  0  0  0  0  0  0  0  0  0  0  0
  -29.6380  -18.4040   22.1760 C   0  0  0  0  0  1  0  0  0  0  0  0
  -30.9240  -16.3090   17.4320 Cl  0  0  0  0  0  0  0  0  0  0  0  0
  -31.0310  -14.8620   20.1330 C   0  0  0  0  0  0  0  0  0  0  0  0
  -30.7500  -12.6310   19.0580 C   0  0  0  0  0  2  0  0  0  0  0  0
  -29.7690  -12.7580   17.8700 C   0  0  0  0  0  2  0  0  0  0  0  0
  -28.3090  -12.6320   18.3430 C   0  0  0  0  0  2  0  0  0  0  0  0
  -28.0040  -13.4800   19.6050 C   0  0  0  0  0  3  0  0  0  0  0  0
  -29.0940  -13.3120   20.6850 C   0  0  0  0  0  2  0  0  0  0  0  0
  -30.3840  -13.6500   20.0680 N   0  0  0  0  0  0  0  0  0  0  0  0
  -32.2020  -14.9610   19.7580 O   0  0  0  0  0  0  0  0  0  0  0  0
  -30.2880  -15.9820   20.4690 N   0  0  0  0  0  0  0  0  0  0  0  0
  -29.4390  -15.7660   20.9680 H   0  0  0  0  0  0  0  0  0  0  0  0
  -25.6420  -14.0920   20.4060 C   0  0  0  0  0  0  0  0  0  0  0  0
  -24.5780  -13.3240   20.7960 C   0  0  0  0  0  0  0  0  0  0  0  0
  -25.0250  -11.9690   20.7360 C   0  0  0  0  0  0  0  0  0  0  0  0
  -26.6700  -13.2050   20.1300 N   0  0  0  0  0  0  0  0  0  0  0  0
  -26.3080  -11.9220   20.3940 N   0  0  0  0  0  0  0  0  0  0  0  0
  -24.2930  -10.7110   20.9270 C   0  0  0  0  0  0  0  0  0  0  0  0
  -24.7060   -9.7520   21.8770 C   0  0  0  0  0  3  0  0  0  0  0  0
  -23.9730   -8.5590   22.0560 C   0  0  0  0  0  3  0  0  0  0  0  0
  -22.8110   -8.3170   21.2860 C   0  0  0  0  0  0  0  0  0  0  0  0
  -22.4170   -9.2650   20.3240 C   0  0  0  0  0  3  0  0  0  0  0  0
  -23.1520  -10.4490   20.1430 C   0  0  0  0  0  3  0  0  0  0  0  0
  -22.0500   -7.1760   21.3750 O   0  0  0  0  0  0  0  0  0  0  0  0
  -21.9210   -6.4870   22.5530 C   0  0  0  0  0  0  0  0  0  0  0  0
  -21.3810   -7.0880   23.7120 C   0  0  0  0  0  3  0  0  0  0  0  0
  -21.2000   -6.3230   24.8820 C   0  0  0  0  0  3  0  0  0  0  0  0
  -21.5500   -4.9590   24.8940 C   0  0  0  0  0  0  0  0  0  0  0  0
  -22.0830   -4.3580   23.7400 C   0  0  0  0  0  3  0  0  0  0  0  0
  -22.2640   -5.1200   22.5720 C   0  0  0  0  0  0  0  0  0  0  0  0
  -22.7580   -4.5320   21.4570 F   0  0  0  0  0  0  0  0  0  0  0  0
  -21.3700   -4.2230   26.0160 F   0  0  0  0  0  0  0  0  0  0  0  0
  -23.1930  -13.8110   21.1090 C   0  0  0  0  0  0  0  0  0  0  0  0
  -22.4860  -13.1190   21.9960 N   0  0  0  0  0  0  0  0  0  0  0  0
  -22.7490  -14.8410   20.6040 O   0  0  0  0  0  0  0  0  0  0  0  0
  -22.8600  -12.2860   22.4260 H   0  0  0  0  0  0  0  0  0  0  0  0
  -21.5590  -13.4270   22.2500 H   0  0  0  0  0  0  0  0  0  0  0  0
  -25.8190  -15.4630   20.2380 N   0  0  0  0  0  0  0  0  0  0  0  0
  -25.0620  -16.1250   20.3730 H   0  0  0  0  0  0  0  0  0  0  0  0
  -26.6560  -15.8920   19.8650 H   0  0  0  0  0  0  0  0  0  0  0  0
  -28.9980  -22.4380   20.1450 N   0  0  0  0  0  4  0  0  0  0  0  0
  -28.0110  -22.2300   20.1110 H   0  0  0  0  0  0  0  0  0  0  0  0
  -29.3290  -22.4040   19.1950 H   0  0  0  0  0  0  0  0  0  0  0  0
  -29.1840  -23.8850   20.6420 C   0  0  0  0  0  3  0  0  0  0  0  0
  -28.2290  -25.0180   20.0100 C   0  0  0  0  0  3  0  0  0  0  0  0
  -28.4250  -26.4840   20.2690 O   0  0  0  0  0  0  0  0  0  0  0  0
  -24.6230  -31.8870   23.2250 C   0  0  0  0  0  0  0  0  0  0  0  0
  -27.3130  -27.3520   20.1760 C   0  0  0  0  0  0  0  0  0  0  0  0
  -23.4510  -30.4800   21.5710 C   0  0  0  0  0  3  0  0  0  0  0  0
  -24.9340  -28.9590   20.1450 C   0  0  0  0  0  0  0  0  0  0  0  0
  -25.9900  -30.8260   21.4120 C   0  0  0  0  0  2  0  0  0  0  0  0
  -26.0930  -29.4510   20.7580 C   0  0  0  0  0  0  0  0  0  0  0  0
  -27.2840  -28.6600   20.7650 C   0  0  0  0  0  3  0  0  0  0  0  0
  -26.1340  -26.9360   19.5130 C   0  0  0  0  0  3  0  0  0  0  0  0
  -24.9600  -27.7090   19.5110 C   0  0  0  0  0  3  0  0  0  0  0  0
  -23.6860  -29.8160   20.1880 C   0  0  0  0  0  2  0  0  0  0  0  0
  -24.7070  -31.0830   22.1260 N   0  0  0  0  0  0  0  0  0  0  0  0
  -23.5310  -32.1480   23.7530 O   0  0  0  0  0  0  0  0  0  0  0  0
  -22.7950  -29.4490   22.5210 C   0  0  0  0  0  0  0  0  0  0  0  0
  -21.4700  -29.2600   22.3890 N   0  0  0  0  0  0  0  0  0  0  0  0
  -23.4770  -28.8240   23.3370 O   0  0  0  0  0  0  0  0  0  0  0  0
  -20.9790  -29.8180   21.7060 H   0  0  0  0  0  0  0  0  0  0  0  0
  -18.0990  -28.0450   22.8920 C   0  0  0  0  0  0  0  0  0  0  0  0
  -20.6590  -28.3100   23.1520 C   0  0  0  0  0  3  0  0  0  0  0  0
  -20.7620  -26.8860   22.5580 C   0  0  0  0  0  2  0  0  0  0  0  0
  -19.6560  -26.5730   21.5450 C   0  0  0  0  0  2  0  0  0  0  0  0
  -18.2770  -26.7050   22.1980 C   0  0  0  0  0  2  0  0  0  0  0  0
  -19.2170  -28.8050   23.3260 C   0  0  0  0  0  0  0  0  0  0  0  0
  -18.9980  -30.0600   23.9360 C   0  0  0  0  0  3  0  0  0  0  0  0
  -17.6920  -30.5540   24.1150 C   0  0  0  0  0  3  0  0  0  0  0  0
  -16.5880  -29.7910   23.6970 C   0  0  0  0  0  3  0  0  0  0  0  0
  -16.7930  -28.5380   23.0910 C   0  0  0  0  0  3  0  0  0  0  0  0
  -25.8910  -32.5360   23.8590 C   0  0  0  0  0  3  0  0  0  0  0  0
  -26.4010  -31.7750   25.1450 C   0  0  1  0  0  0  0  0  0  0  0  0
  -25.3000  -31.5260   26.2010 C   0  0  0  0  0  1  0  0  0  0  0  0
  -27.0050  -30.4030   24.7650 C   0  0  0  0  0  1  0  0  0  0  0  0
  -27.5330  -32.5850   25.8180 C   0  0  0  0  0  1  0  0  0  0  0  0
  -25.5630  -33.9320   24.1820 N   0  0  0  0  0  0  0  0  0  0  0  0
  -25.8950  -34.9880   23.4250 C   0  0  0  0  0  0  0  0  0  0  0  0
  -26.5800  -34.8880   22.4040 O   0  0  0  0  0  0  0  0  0  0  0  0
  -24.9590  -34.0830   24.9760 H   0  0  0  0  0  0  0  0  0  0  0  0
  -24.1620  -36.7690   23.0380 C   0  0  0  0  0  1  0  0  0  0  0  0
  -25.3900  -36.3720   23.8740 C   0  0  0  0  0  3  0  0  0  0  0  0
  -27.4960  -37.2770   24.7550 C   0  0  0  0  0  1  0  0  0  0  0  0
  -26.4170  -37.4320   23.7830 N   0  0  0  0  0  0  0  0  0  0  0  0
  -26.0000  -38.3500   23.9160 H   0  0  0  0  0  0  0  0  0  0  0  0
  2  4  1  0
  3  7  1  0
  3  2  2  0
  4  5  2  0
  4  1  1  0
  5  8  1  0
  6 18  1  0
  6  5  1  0
  7  6  2  0
  9  7  1  0
 10 18  1  0
 11 16  1  0
 12 13  1  0
 12 11  1  0
 14 13  1  0
 14 23  1  0
 14 15  1  0
 16 10  1  0
 16 15  1  0
 17 10  2  0
 18 19  1  0
 20 21  2  0
 21 40  1  0
 22 21  1  0
 22 25  1  0
 23 24  1  0
 23 20  1  0
 24 22  2  0
 25 26  1  0
 26 27  2  0
 28 31  1  0
 28 27  1  0
 29 28  2  0
 30 29  1  0
 30 25  2  0
 31 32  1  0
 32 37  2  0
 32 33  1  0
 33 34  2  0
 34 35  1  0
 35 39  1  0
 36 35  2  0
 37 36  1  0
 38 37  1  0
 40 41  1  0
 41 44  1  0
 41 43  1  0
 42 40  2  0
 45 46  1  0
 45 20  1  0
 47 45  1  0
 48 51  1  0
 48  1  1  0
 49 48  1  0
 50 48  1  0
 52 53  1  0
 52 51  2  0
 54 65  2  0
 55 53  1  0
 55 60  1  0
 56 64  1  0
 56 66  1  0
 57 63  1  0
 57 59  1  0
 58 64  1  0
 59 60  2  0
 59 58  1  0
 61 55  2  0
 62 61  1  0
 62 57  2  0
 63 56  1  0
 64 54  1  0
 66 68  2  0
 67 66  1  0
 69 67  1  0
 70 79  2  0
 70 75  1  0
 71 67  1  0
 71 75  1  0
 72 71  1  0
 73 74  1  0
 73 72  1  0
 74 70  1  0
 75 76  2  0
 76 77  1  0
 78 77  2  0
 79 78  1  0
 80 54  1  0
 80 85  1  0
 80 81  1  0
 81 84  1  1
 81 82  1  0
 83 81  1  0
 85 88  1  0
 86 90  1  0
 86 85  1  0
 87 86  2  0
 90 89  1  0
 92 90  1  0
 92 93  1  0
 92 91  1  0
M  ISO  4  10 100  18 100  52 101  53 101
M  END
>  <TORSDO>  (36) 
F 20

>  <SCORE>  (36) 
-12.218

>  <name>  (36) 
35

>  <ligand_id>  (36) 
35

>  <original_smiles>  (36) 
[H]c1c([H])c([H])c2c(c1[H])C([H])([H])C([H])([H])C([H])([H])C2([H])N([H])C(=O)C1([H])N(C(=O)C([H])(N([H])C(=O)C([H])(N([H])C([H])([H])[H])C([H])([H])[H])C(C([H])([H])[H])(C([H])([H])[H])C([H])([H])[H])C([H])([H])c2c([H])c(OC([H])([H])C([H])([H])[N+]([H])([H])C([H])([H])c3c([H])c([H])c(Cl)c(N([H])C(=O)N4C([H])([H])C([H])([H])C([H])([H])C([H])(n5nc(-c6c([H])c([H])c(Oc7c([H])c([H])c(F)c([H])c7F)c([H])c6[H])c(C(=O)N([H])[H])c5N([H])[H])C4([H])[H])c3C([H])([H])[H])c([H])c([H])c2C1([H])[H]

>  <smiles>  (36) 
[H]c1c([H])c([H])c2c(c1[H])C([H])([H])C([H])([H])C([H])([H])C2([H])N([H])C(=O)C1([H])N(C(=O)C([H])(N([H])C(=O)C([H])(N([H])C([H])([H])[H])C([H])([H])[H])C(C([H])([H])[H])(C([H])([H])[H])C([H])([H])[H])C([H])([H])c2c([H])c(OC([H])([H])C([H])([H])[N+]([H])([H])C([H])([H])c3c([H])c([H])c(Cl)c(N([H])C(=O)N4C([H])([H])C([H])([H])C([H])([H])C([H])(n5nc(-c6c([H])c([H])c(Oc7c([H])c([H])c(F)c([H])c7F)c([H])c6[H])c(C(=O)N([H])[H])c5N([H])[H])C4([H])[H])c3C([H])([H])[H])c([H])c([H])c2C1([H])[H]

$$$$
36:0:0
     RDKit          3D

 95104  0  0  1  0  0  0  0  0999 V2000
  -29.2430  -22.8920   20.1140 C   0  0  0  0  0  0  0  0  0  0  0  0
  -27.3610  -23.1140   22.2430 C   0  0  0  0  0  2  0  0  0  0  0  0
  -27.7050  -24.4530   21.5510 C   0  0  0  0  0  2  0  0  0  0  0  0
  -28.5490  -22.1170   22.3200 C   0  0  0  0  0  2  0  0  0  0  0  0
  -28.9060  -24.4150   20.5710 C   0  0  0  0  0  3  0  0  0  0  0  0
  -29.1180  -21.8170   21.0000 N   0  0  0  0  0  0  0  0  0  0  0  0
  -29.6620  -22.6890   18.9730 O   0  0  0  0  0  0  0  0  0  0  0  0
  -29.7280  -20.3880   20.9140 C   0  0  0  0  0  2  0  0  0  0  0  0
  -28.3250  -19.6840   18.9910 C   0  0  0  0  0  3  0  0  0  0  0  0
  -27.7690  -18.8520   18.0140 C   0  0  0  0  0  3  0  0  0  0  0  0
  -28.5250  -16.9330   19.2720 C   0  0  0  0  0  3  0  0  0  0  0  0
  -29.0140  -19.1920   20.1400 C   0  0  0  0  0  0  0  0  0  0  0  0
  -29.0870  -17.7050   20.3220 C   0  0  0  0  0  0  0  0  0  0  0  0
  -27.8950  -17.4730   18.1470 C   0  0  0  0  0  0  0  0  0  0  0  0
  -27.3340  -16.4250   16.8970 Cl  0  0  0  0  0  0  0  0  0  0  0  0
  -30.4380  -15.6970   21.3920 C   0  0  0  0  0  0  0  0  0  0  0  0
  -30.5450  -13.3950   20.3870 C   0  0  0  0  0  2  0  0  0  0  0  0
  -29.7930  -13.2930   19.0460 C   0  0  0  0  0  2  0  0  0  0  0  0
  -28.2850  -13.0540   19.2660 C   0  0  0  0  0  2  0  0  0  0  0  0
  -27.6700  -13.8900   20.4270 C   0  0  0  0  0  3  0  0  0  0  0  0
  -28.5870  -13.9540   21.6610 C   0  0  0  0  0  2  0  0  0  0  0  0
  -29.8800  -14.4480   21.1890 N   0  0  0  0  0  0  0  0  0  0  0  0
  -31.6660  -15.7910   21.3870 O   0  0  0  0  0  0  0  0  0  0  0  0
  -29.6870  -16.8890   21.4190 N   0  0  0  0  0  0  0  0  0  0  0  0
  -30.0770  -17.5100   22.1140 H   0  0  0  0  0  0  0  0  0  0  0  0
  -25.1820  -14.2510   20.8900 C   0  0  0  0  0  0  0  0  0  0  0  0
  -24.1470  -13.3730   21.0820 C   0  0  0  0  0  0  0  0  0  0  0  0
  -24.7240  -12.0680   21.0550 C   0  0  0  0  0  0  0  0  0  0  0  0
  -26.3140  -13.4660   20.7540 N   0  0  0  0  0  0  0  0  0  0  0  0
  -26.0420  -12.1470   20.9230 N   0  0  0  0  0  0  0  0  0  0  0  0
  -24.0890  -10.7420   21.0910 C   0  0  0  0  0  0  0  0  0  0  0  0
  -24.4960   -9.7510   22.0090 C   0  0  0  0  0  3  0  0  0  0  0  0
  -23.8570   -8.4920   22.0370 C   0  0  0  0  0  3  0  0  0  0  0  0
  -22.7960   -8.2160   21.1420 C   0  0  0  0  0  0  0  0  0  0  0  0
  -22.4070   -9.1970   20.2140 C   0  0  0  0  0  3  0  0  0  0  0  0
  -23.0500  -10.4480   20.1850 C   0  0  0  0  0  3  0  0  0  0  0  0
  -22.1350   -7.0120   21.0800 O   0  0  0  0  0  0  0  0  0  0  0  0
  -21.9960   -6.2110   22.1840 C   0  0  0  0  0  0  0  0  0  0  0  0
  -21.3440   -6.6560   23.3550 C   0  0  0  0  0  3  0  0  0  0  0  0
  -21.1680   -5.7780   24.4390 C   0  0  0  0  0  3  0  0  0  0  0  0
  -21.6260   -4.4500   24.3540 C   0  0  0  0  0  0  0  0  0  0  0  0
  -22.2710   -4.0010   23.1870 C   0  0  0  0  0  3  0  0  0  0  0  0
  -22.4520   -4.8780   22.1050 C   0  0  0  0  0  0  0  0  0  0  0  0
  -23.0530   -4.4370   20.9730 F   0  0  0  0  0  0  0  0  0  0  0  0
  -21.4490   -3.6010   25.3930 F   0  0  0  0  0  0  0  0  0  0  0  0
  -22.6910  -13.7260   21.1790 C   0  0  0  0  0  0  0  0  0  0  0  0
  -21.9230  -12.9390   21.9260 N   0  0  0  0  0  0  0  0  0  0  0  0
  -22.2360  -14.7280   20.6340 O   0  0  0  0  0  0  0  0  0  0  0  0
  -22.3030  -12.1260   22.3870 H   0  0  0  0  0  0  0  0  0  0  0  0
  -20.9430  -13.1520   22.0410 H   0  0  0  0  0  0  0  0  0  0  0  0
  -25.2540  -15.6370   20.7970 N   0  0  0  0  0  0  0  0  0  0  0  0
  -24.4330  -16.2370   20.8350 H   0  0  0  0  0  0  0  0  0  0  0  0
  -26.1130  -16.1490   20.6440 H   0  0  0  0  0  0  0  0  0  0  0  0
  -28.7740  -25.6430   19.4970 C   0  0  0  0  0  2  0  0  0  0  0  0
  -28.6950  -27.1120   19.8900 O   0  0  0  0  0  0  0  0  0  0  0  0
  -24.5520  -32.0930   23.2940 C   0  0  0  0  0  0  0  0  0  0  0  0
  -27.5090  -27.8970   19.9110 C   0  0  0  0  0  0  0  0  0  0  0  0
  -23.4620  -30.7000   21.5700 C   0  0  0  0  0  3  0  0  0  0  0  0
  -25.0240  -29.3520   20.0520 C   0  0  0  0  0  0  0  0  0  0  0  0
  -25.9800  -31.2110   21.4170 C   0  0  0  0  0  2  0  0  0  0  0  0
  -26.1610  -29.8850   20.6690 C   0  0  0  0  0  0  0  0  0  0  0  0
  -27.4020  -29.1710   20.5880 C   0  0  0  0  0  3  0  0  0  0  0  0
  -26.3260  -27.4280   19.2950 C   0  0  0  0  0  3  0  0  0  0  0  0
  -25.1120  -28.1350   19.3620 C   0  0  0  0  0  3  0  0  0  0  0  0
  -23.7270  -30.1270   20.1540 C   0  0  0  0  0  2  0  0  0  0  0  0
  -24.6820  -31.3560   22.1480 N   0  0  0  0  0  0  0  0  0  0  0  0
  -23.4500  -32.2510   23.8370 O   0  0  0  0  0  0  0  0  0  0  0  0
  -22.8840  -29.5810   22.4710 C   0  0  0  0  0  0  0  0  0  0  0  0
  -21.5870  -29.2740   22.3080 N   0  0  0  0  0  0  0  0  0  0  0  0
  -23.6080  -28.9940   23.2810 O   0  0  0  0  0  0  0  0  0  0  0  0
  -21.0610  -29.8100   21.6330 H   0  0  0  0  0  0  0  0  0  0  0  0
  -18.3590  -27.6690   22.6390 C   0  0  0  0  0  0  0  0  0  0  0  0
  -20.8610  -28.2100   23.0060 C   0  0  0  0  0  3  0  0  0  0  0  0
  -21.1440  -26.8270   22.3720 C   0  0  0  0  0  2  0  0  0  0  0  0
  -20.1180  -26.4240   21.3100 C   0  0  0  0  0  2  0  0  0  0  0  0
  -18.7100  -26.3820   21.9120 C   0  0  0  0  0  2  0  0  0  0  0  0
  -19.3670  -28.5350   23.1390 C   0  0  0  0  0  0  0  0  0  0  0  0
  -18.9860  -29.7340   23.7760 C   0  0  0  0  0  3  0  0  0  0  0  0
  -17.6260  -30.0720   23.9190 C   0  0  0  0  0  3  0  0  0  0  0  0
  -16.6310  -29.2040   23.4360 C   0  0  0  0  0  3  0  0  0  0  0  0
  -16.9980  -28.0030   22.8030 C   0  0  0  0  0  3  0  0  0  0  0  0
  -25.7760  -32.7940   23.9580 C   0  0  0  0  0  3  0  0  0  0  0  0
  -26.2740  -32.0660   25.2690 C   0  0  1  0  0  0  0  0  0  0  0  0
  -25.1510  -31.8010   26.2990 C   0  0  0  0  0  1  0  0  0  0  0  0
  -26.9320  -30.7080   24.9280 C   0  0  0  0  0  1  0  0  0  0  0  0
  -27.3600  -32.9230   25.9620 C   0  0  0  0  0  1  0  0  0  0  0  0
  -25.3840  -34.1790   24.2630 N   0  0  0  0  0  0  0  0  0  0  0  0
  -25.7490  -35.2520   23.5480 C   0  0  0  0  0  0  0  0  0  0  0  0
  -26.5140  -35.1800   22.5820 O   0  0  0  0  0  0  0  0  0  0  0  0
  -24.7110  -34.3020   25.0040 H   0  0  0  0  0  0  0  0  0  0  0  0
  -24.0360  -37.0190   23.0110 C   0  0  0  0  0  1  0  0  0  0  0  0
  -25.1710  -36.6180   23.9670 C   0  0  0  0  0  3  0  0  0  0  0  0
  -27.1620  -37.5270   25.0800 C   0  0  0  0  0  1  0  0  0  0  0  0
  -26.1820  -37.6950   24.0100 N   0  0  0  0  0  0  0  0  0  0  0  0
  -25.7390  -38.6010   24.1210 H   0  0  0  0  0  0  0  0  0  0  0  0
  1  5  1  0
  1  6  1  0
  2  4  1  0
  3  2  1  0
  5 54  1  0
  5  3  1  0
  6  4  1  0
  7  1  2  0
  8  6  1  0
  9 12  1  0
 10 14  1  0
 10  9  2  0
 11 13  1  0
 12 13  2  0
 12  8  1  0
 13 24  1  0
 14 11  2  0
 15 14  1  0
 16 24  1  0
 17 22  1  0
 18 19  1  0
 18 17  1  0
 20 19  1  0
 20 29  1  0
 20 21  1  0
 22 16  1  0
 22 21  1  0
 23 16  2  0
 24 25  1  0
 26 27  2  0
 27 46  1  0
 28 27  1  0
 28 31  1  0
 29 26  1  0
 29 30  1  0
 30 28  2  0
 31 32  1  0
 32 33  2  0
 34 33  1  0
 35 34  2  0
 36 35  1  0
 36 31  2  0
 37 34  1  0
 37 38  1  0
 38 39  1  0
 39 40  2  0
 41 40  1  0
 41 45  1  0
 42 41  2  0
 43 38  2  0
 43 42  1  0
 44 43  1  0
 46 47  1  0
 47 50  1  0
 47 49  1  0
 48 46  2  0
 51 52  1  0
 51 26  1  0
 53 51  1  0
 54 55  1  0
 55 57  1  0
 56 67  2  0
 57 62  1  0
 58 66  1  0
 58 68  1  0
 59 65  1  0
 59 61  1  0
 60 66  1  0
 61 60  1  0
 62 61  2  0
 63 64  1  0
 63 57  2  0
 64 59  2  0
 65 58  1  0
 66 56  1  0
 68 70  2  0
 69 68  1  0
 71 69  1  0
 72 81  2  0
 72 77  1  0
 73 69  1  0
 73 77  1  0
 74 73  1  0
 75 76  1  0
 75 74  1  0
 76 72  1  0
 77 78  2  0
 78 79  1  0
 80 79  2  0
 81 80  1  0
 82 56  1  0
 82 87  1  0
 82 83  1  0
 83 86  1  1
 83 84  1  0
 85 83  1  0
 87 90  1  0
 88 92  1  0
 88 87  1  0
 89 88  2  0
 92 91  1  0
 92 94  1  0
 94 95  1  0
 94 93  1  0
M  ISO  4  16 100  24 100  54 101  55 101
M  END
>  <TORSDO>  (37) 
F 19

>  <SCORE>  (37) 
-7.597

>  <name>  (37) 
36

>  <ligand_id>  (37) 
36

>  <original_smiles>  (37) 
[H]c1c([H])c([H])c2c(c1[H])C([H])([H])C([H])([H])C([H])([H])C2([H])N([H])C(=O)C1([H])N(C(=O)C([H])(N([H])C(=O)C([H])(N([H])C([H])([H])[H])C([H])([H])[H])C(C([H])([H])[H])(C([H])([H])[H])C([H])([H])[H])C([H])([H])c2c([H])c(OC([H])([H])C3([H])C(=O)N(C([H])([H])c4c([H])c([H])c(Cl)c([H])c4N([H])C(=O)N4C([H])([H])C([H])([H])C([H])([H])C([H])(n5nc(-c6c([H])c([H])c(Oc7c([H])c([H])c(F)c([H])c7F)c([H])c6[H])c(C(=O)N([H])[H])c5N([H])[H])C4([H])[H])C([H])([H])C([H])([H])C3([H])[H])c([H])c([H])c2C1([H])[H]

>  <smiles>  (37) 
[H]c1c([H])c([H])c2c(c1[H])C([H])([H])C([H])([H])C([H])([H])C2([H])N([H])C(=O)C1([H])N(C(=O)C([H])(N([H])C(=O)C([H])(N([H])C([H])([H])[H])C([H])([H])[H])C(C([H])([H])[H])(C([H])([H])[H])C([H])([H])[H])C([H])([H])c2c([H])c(OC([H])([H])C3([H])C(=O)N(C([H])([H])c4c([H])c([H])c(Cl)c([H])c4N([H])C(=O)N4C([H])([H])C([H])([H])C([H])([H])C([H])(n5nc(-c6c([H])c([H])c(Oc7c([H])c([H])c(F)c([H])c7F)c([H])c6[H])c(C(=O)N([H])[H])c5N([H])[H])C4([H])[H])C([H])([H])C([H])([H])C3([H])[H])c([H])c([H])c2C1([H])[H]

$$$$
37:0:0
     RDKit          3D

 95104  0  0  1  0  0  0  0  0999 V2000
  -29.1000  -22.8360   20.6940 C   0  0  0  0  0  0  0  0  0  0  0  0
  -30.9070  -23.8800   22.7610 C   0  0  0  0  0  2  0  0  0  0  0  0
  -29.6830  -24.6830   22.2930 C   0  0  0  0  0  2  0  0  0  0  0  0
  -30.7860  -22.3660   22.4850 C   0  0  0  0  0  2  0  0  0  0  0  0
  -29.3840  -24.3630   20.8140 C   0  0  0  0  0  3  0  0  0  0  0  0
  -29.6920  -21.9740   21.5700 N   0  0  0  0  0  0  0  0  0  0  0  0
  -28.3050  -22.4400   19.8350 O   0  0  0  0  0  0  0  0  0  0  0  0
  -29.2130  -20.5750   21.7290 C   0  0  0  0  0  2  0  0  0  0  0  0
  -30.5850  -19.8360   19.7030 C   0  0  0  0  0  3  0  0  0  0  0  0
  -31.0930  -18.8330   18.8650 C   0  0  0  0  0  3  0  0  0  0  0  0
  -29.7220  -18.1080   21.1900 C   0  0  0  0  0  3  0  0  0  0  0  0
  -29.8710  -19.4870   20.8640 C   0  0  0  0  0  0  0  0  0  0  0  0
  -30.2410  -17.0670   20.3620 C   0  0  0  0  0  0  0  0  0  0  0  0
  -30.9070  -17.4660   19.1600 C   0  0  0  0  0  0  0  0  0  0  0  0
  -31.4120  -16.3690   17.9240 Cl  0  0  0  0  0  0  0  0  0  0  0  0
  -30.7050  -14.5720   20.4980 C   0  0  0  0  0  0  0  0  0  0  0  0
  -30.4370  -12.3610   19.4480 C   0  0  0  0  0  2  0  0  0  0  0  0
  -29.5230  -12.4900   18.2150 C   0  0  0  0  0  2  0  0  0  0  0  0
  -28.0390  -12.3510   18.6080 C   0  0  0  0  0  2  0  0  0  0  0  0
  -27.6530  -13.2220   19.8380 C   0  0  0  0  0  3  0  0  0  0  0  0
  -28.6960  -13.1030   20.9740 C   0  0  0  0  0  2  0  0  0  0  0  0
  -30.0230  -13.3940   20.4130 N   0  0  0  0  0  0  0  0  0  0  0  0
  -31.8990  -14.6510   20.2210 O   0  0  0  0  0  0  0  0  0  0  0  0
  -29.9590  -15.6880   20.7230 N   0  0  0  0  0  0  0  0  0  0  0  0
  -29.0360  -15.5160   21.0910 H   0  0  0  0  0  0  0  0  0  0  0  0
  -25.2560  -13.8190   20.5510 C   0  0  0  0  0  0  0  0  0  0  0  0
  -24.1860  -13.0440   20.9120 C   0  0  0  0  0  0  0  0  0  0  0  0
  -24.6430  -11.6910   20.8680 C   0  0  0  0  0  0  0  0  0  0  0  0
  -26.3010  -12.9370   20.3130 N   0  0  0  0  0  0  0  0  0  0  0  0
  -25.9340  -11.6530   20.5630 N   0  0  0  0  0  0  0  0  0  0  0  0
  -23.9090  -10.4300   21.0380 C   0  0  0  0  0  0  0  0  0  0  0  0
  -24.3650   -9.4190   21.9130 C   0  0  0  0  0  3  0  0  0  0  0  0
  -23.6290   -8.2240   22.0730 C   0  0  0  0  0  3  0  0  0  0  0  0
  -22.4270   -8.0280   21.3510 C   0  0  0  0  0  0  0  0  0  0  0  0
  -21.9910   -9.0260   20.4620 C   0  0  0  0  0  3  0  0  0  0  0  0
  -22.7260  -10.2110   20.3010 C   0  0  0  0  0  3  0  0  0  0  0  0
  -21.6640   -6.8880   21.4230 O   0  0  0  0  0  0  0  0  0  0  0  0
  -21.6870   -6.0720   22.5270 C   0  0  0  0  0  0  0  0  0  0  0  0
  -21.4030   -6.5610   23.8210 C   0  0  0  0  0  3  0  0  0  0  0  0
  -21.3660   -5.6750   24.9160 C   0  0  0  0  0  3  0  0  0  0  0  0
  -21.6040   -4.3010   24.7180 C   0  0  0  0  0  0  0  0  0  0  0  0
  -21.8850   -3.8110   23.4300 C   0  0  0  0  0  3  0  0  0  0  0  0
  -21.9200   -4.6960   22.3370 C   0  0  0  0  0  0  0  0  0  0  0  0
  -22.1650   -4.2140   21.0920 F   0  0  0  0  0  0  0  0  0  0  0  0
  -21.5620   -3.4490   25.7670 F   0  0  0  0  0  0  0  0  0  0  0  0
  -22.7880  -13.5270   21.1780 C   0  0  0  0  0  0  0  0  0  0  0  0
  -22.0510  -12.8280   22.0350 N   0  0  0  0  0  0  0  0  0  0  0  0
  -22.3570  -14.5570   20.6620 O   0  0  0  0  0  0  0  0  0  0  0  0
  -22.4130  -11.9980   22.4830 H   0  0  0  0  0  0  0  0  0  0  0  0
  -21.1120  -13.1290   22.2460 H   0  0  0  0  0  0  0  0  0  0  0  0
  -25.4160  -15.1900   20.3750 N   0  0  0  0  0  0  0  0  0  0  0  0
  -24.6140  -15.8130   20.3770 H   0  0  0  0  0  0  0  0  0  0  0  0
  -26.2160  -15.5980   19.9050 H   0  0  0  0  0  0  0  0  0  0  0  0
  -28.2120  -25.2180   20.2270 C   0  0  0  0  0  2  0  0  0  0  0  0
  -28.4090  -26.6520   20.1980 O   0  0  0  0  0  0  0  0  0  0  0  0
  -24.6180  -31.8640   23.2230 C   0  0  0  0  0  0  0  0  0  0  0  0
  -27.2560  -27.4230   20.1320 C   0  0  0  0  0  0  0  0  0  0  0  0
  -23.4130  -30.4890   21.5510 C   0  0  0  0  0  3  0  0  0  0  0  0
  -24.8700  -28.9660   20.1130 C   0  0  0  0  0  0  0  0  0  0  0  0
  -25.9400  -30.8330   21.3810 C   0  0  0  0  0  2  0  0  0  0  0  0
  -26.0240  -29.4660   20.7280 C   0  0  0  0  0  0  0  0  0  0  0  0
  -27.2150  -28.7010   20.7420 C   0  0  0  0  0  3  0  0  0  0  0  0
  -26.0860  -26.9560   19.4850 C   0  0  0  0  0  3  0  0  0  0  0  0
  -24.9000  -27.7130   19.4770 C   0  0  0  0  0  3  0  0  0  0  0  0
  -23.6390  -29.8420   20.1560 C   0  0  0  0  0  2  0  0  0  0  0  0
  -24.6740  -31.0710   22.1150 N   0  0  0  0  0  0  0  0  0  0  0  0
  -23.5370  -32.1410   23.7610 O   0  0  0  0  0  0  0  0  0  0  0  0
  -22.7440  -29.4620   22.4950 C   0  0  0  0  0  0  0  0  0  0  0  0
  -21.4160  -29.3050   22.3720 N   0  0  0  0  0  0  0  0  0  0  0  0
  -23.4160  -28.8170   23.3030 O   0  0  0  0  0  0  0  0  0  0  0  0
  -20.9340  -29.8640   21.6840 H   0  0  0  0  0  0  0  0  0  0  0  0
  -18.0270  -28.1420   22.8480 C   0  0  0  0  0  0  0  0  0  0  0  0
  -20.5860  -28.3730   23.1360 C   0  0  0  0  0  3  0  0  0  0  0  0
  -20.6820  -26.9460   22.5490 C   0  0  0  0  0  2  0  0  0  0  0  0
  -19.5790  -26.6410   21.5310 C   0  0  0  0  0  2  0  0  0  0  0  0
  -18.1920  -26.7960   22.1640 C   0  0  0  0  0  2  0  0  0  0  0  0
  -19.1510  -28.8880   23.2900 C   0  0  0  0  0  0  0  0  0  0  0  0
  -18.9420  -30.1490   23.8890 C   0  0  0  0  0  3  0  0  0  0  0  0
  -17.6420  -30.6600   24.0600 C   0  0  0  0  0  3  0  0  0  0  0  0
  -16.5310  -29.9100   23.6350 C   0  0  0  0  0  3  0  0  0  0  0  0
  -16.7260  -28.6560   23.0290 C   0  0  0  0  0  3  0  0  0  0  0  0
  -25.9100  -32.4790   23.8470 C   0  0  0  0  0  3  0  0  0  0  0  0
  -26.4580  -31.6530   25.0760 C   0  0  1  0  0  0  0  0  0  0  0  0
  -25.3990  -31.3570   26.1610 C   0  0  0  0  0  1  0  0  0  0  0  0
  -27.0440  -30.2960   24.6160 C   0  0  0  0  0  1  0  0  0  0  0  0
  -27.6120  -32.4280   25.7510 C   0  0  0  0  0  1  0  0  0  0  0  0
  -25.6000  -33.8610   24.2420 N   0  0  0  0  0  0  0  0  0  0  0  0
  -25.9030  -34.9450   23.5140 C   0  0  0  0  0  0  0  0  0  0  0  0
  -26.5490  -34.8890   22.4640 O   0  0  0  0  0  0  0  0  0  0  0  0
  -25.0460  -33.9800   25.0770 H   0  0  0  0  0  0  0  0  0  0  0  0
  -24.1490  -36.7300   23.2640 C   0  0  0  0  0  1  0  0  0  0  0  0
  -25.4110  -36.3090   24.0350 C   0  0  0  0  0  3  0  0  0  0  0  0
  -27.5580  -37.1790   24.8450 C   0  0  0  0  0  1  0  0  0  0  0  0
  -26.4260  -37.3790   23.9430 N   0  0  0  0  0  0  0  0  0  0  0  0
  -26.0120  -38.2820   24.1570 H   0  0  0  0  0  0  0  0  0  0  0  0
  1  5  1  0
  1  6  1  0
  3  2  1  0
  4  2  1  0
  5 54  1  0
  5  3  1  0
  6  8  1  0
  6  4  1  0
  7  1  2  0
  9 12  1  0
 10 14  1  0
 10  9  2  0
 12 11  2  0
 12  8  1  0
 13 24  1  0
 13 11  1  0
 14 13  2  0
 15 14  1  0
 16 24  1  0
 17 22  1  0
 18 19  1  0
 18 17  1  0
 20 19  1  0
 20 29  1  0
 20 21  1  0
 22 16  1  0
 22 21  1  0
 23 16  2  0
 24 25  1  0
 26 27  2  0
 27 46  1  0
 28 27  1  0
 28 31  1  0
 29 26  1  0
 29 30  1  0
 30 28  2  0
 31 32  1  0
 32 33  2  0
 34 37  1  0
 34 33  1  0
 35 34  2  0
 36 35  1  0
 36 31  2  0
 37 38  1  0
 38 39  1  0
 39 40  2  0
 41 40  1  0
 41 45  1  0
 42 41  2  0
 43 38  2  0
 43 42  1  0
 44 43  1  0
 46 47  1  0
 47 50  1  0
 47 49  1  0
 48 46  2  0
 51 52  1  0
 51 26  1  0
 53 51  1  0
 55 54  1  0
 56 67  2  0
 57 55  1  0
 57 62  1  0
 58 66  1  0
 58 68  1  0
 59 65  1  0
 59 61  1  0
 60 66  1  0
 61 62  2  0
 61 60  1  0
 63 57  2  0
 64 63  1  0
 64 59  2  0
 65 58  1  0
 66 56  1  0
 68 70  2  0
 69 68  1  0
 71 69  1  0
 72 81  2  0
 72 77  1  0
 73 69  1  0
 73 77  1  0
 74 73  1  0
 75 76  1  0
 75 74  1  0
 76 72  1  0
 77 78  2  0
 78 79  1  0
 80 79  2  0
 81 80  1  0
 82 56  1  0
 82 87  1  0
 82 83  1  0
 83 86  1  1
 83 84  1  0
 85 83  1  0
 87 90  1  0
 88 92  1  0
 88 87  1  0
 89 88  2  0
 92 91  1  0
 94 92  1  0
 94 95  1  0
 94 93  1  0
M  ISO  4  16 100  24 100  54 101  55 101
M  END
>  <TORSDO>  (38) 
F 19

>  <SCORE>  (38) 
-12.761

>  <name>  (38) 
37

>  <ligand_id>  (38) 
37

>  <original_smiles>  (38) 
[H]c1c([H])c([H])c2c(c1[H])C([H])([H])C([H])([H])C([H])([H])C2([H])N([H])C(=O)C1([H])N(C(=O)C([H])(N([H])C(=O)C([H])(N([H])C([H])([H])[H])C([H])([H])[H])C(C([H])([H])[H])(C([H])([H])[H])C([H])([H])[H])C([H])([H])c2c([H])c(OC([H])([H])C3([H])C(=O)N(C([H])([H])c4c([H])c([H])c(Cl)c(N([H])C(=O)N5C([H])([H])C([H])([H])C([H])([H])C([H])(n6nc(-c7c([H])c([H])c(Oc8c([H])c([H])c(F)c([H])c8F)c([H])c7[H])c(C(=O)N([H])[H])c6N([H])[H])C5([H])[H])c4[H])C([H])([H])C([H])([H])C3([H])[H])c([H])c([H])c2C1([H])[H]

>  <smiles>  (38) 
[H]c1c([H])c([H])c2c(c1[H])C([H])([H])C([H])([H])C([H])([H])C2([H])N([H])C(=O)C1([H])N(C(=O)C([H])(N([H])C(=O)C([H])(N([H])C([H])([H])[H])C([H])([H])[H])C(C([H])([H])[H])(C([H])([H])[H])C([H])([H])[H])C([H])([H])c2c([H])c(OC([H])([H])C3([H])C(=O)N(C([H])([H])c4c([H])c([H])c(Cl)c(N([H])C(=O)N5C([H])([H])C([H])([H])C([H])([H])C([H])(n6nc(-c7c([H])c([H])c(Oc8c([H])c([H])c(F)c([H])c8F)c([H])c7[H])c(C(=O)N([H])[H])c6N([H])[H])C5([H])[H])c4[H])C([H])([H])C([H])([H])C3([H])[H])c([H])c([H])c2C1([H])[H]

$$$$
38:0:0
     RDKit          3D

 96105  0  0  1  0  0  0  0  0999 V2000
  -29.6700  -23.8260   18.3670 C   0  0  0  0  0  2  0  0  0  0  0  0
  -28.6300  -24.3830   19.3570 C   0  0  0  0  0  2  0  0  0  0  0  0
  -30.3510  -24.4950   21.3500 C   0  0  0  0  0  2  0  0  0  0  0  0
  -30.2690  -22.4390   18.7340 C   0  0  0  0  0  2  0  0  0  0  0  0
  -31.4150  -23.6630   20.5830 C   0  0  0  0  0  2  0  0  0  0  0  0
  -29.1670  -25.1600   20.5900 C   0  0  0  0  0  3  0  0  0  0  0  0
  -30.9090  -22.3440   20.0760 N   0  0  2  0  0  4  0  0  0  0  0  0
  -30.1860  -22.0630   20.7190 H   0  0  0  0  0  0  0  0  0  0  0  0
  -29.3270  -26.5960   20.3750 O   0  0  0  0  0  0  0  0  0  0  0  0
  -25.1280  -31.5750   23.3520 C   0  0  0  0  0  0  0  0  0  0  0  0
  -28.1520  -27.3410   20.2860 C   0  0  0  0  0  0  0  0  0  0  0  0
  -24.0870  -30.1710   21.6080 C   0  0  0  0  0  3  0  0  0  0  0  0
  -25.6930  -28.7670   20.2100 C   0  0  0  0  0  0  0  0  0  0  0  0
  -26.6040  -30.6550   21.5610 C   0  0  0  0  0  2  0  0  0  0  0  0
  -26.7960  -29.3140   20.8770 C   0  0  0  0  0  0  0  0  0  0  0  0
  -28.0310  -28.6120   20.9080 C   0  0  0  0  0  3  0  0  0  0  0  0
  -27.0260  -26.8370   19.5920 C   0  0  0  0  0  3  0  0  0  0  0  0
  -25.8060  -27.5300   19.5600 C   0  0  0  0  0  3  0  0  0  0  0  0
  -24.4040  -29.5580   20.2190 C   0  0  0  0  0  2  0  0  0  0  0  0
  -25.2880  -30.8140   22.2320 N   0  0  0  0  0  0  0  0  0  0  0  0
  -24.0050  -31.7730   23.8400 O   0  0  0  0  0  0  0  0  0  0  0  0
  -23.4400  -29.0820   22.4960 C   0  0  0  0  0  0  0  0  0  0  0  0
  -22.1370  -28.8300   22.2860 N   0  0  0  0  0  0  0  0  0  0  0  0
  -24.1110  -28.4700   23.3320 O   0  0  0  0  0  0  0  0  0  0  0  0
  -21.6560  -29.3810   21.5890 H   0  0  0  0  0  0  0  0  0  0  0  0
  -18.8210  -27.4120   22.5280 C   0  0  0  0  0  0  0  0  0  0  0  0
  -21.3330  -27.8240   22.9800 C   0  0  0  0  0  3  0  0  0  0  0  0
  -21.5670  -26.4160   22.3850 C   0  0  0  0  0  2  0  0  0  0  0  0
  -20.5590  -26.0490   21.2920 C   0  0  0  0  0  2  0  0  0  0  0  0
  -19.1290  -26.0920   21.8420 C   0  0  0  0  0  2  0  0  0  0  0  0
  -19.8570  -28.2320   23.0490 C   0  0  0  0  0  0  0  0  0  0  0  0
  -19.5180  -29.4660   23.6460 C   0  0  0  0  0  3  0  0  0  0  0  0
  -18.1750  -29.8800   23.7310 C   0  0  0  0  0  3  0  0  0  0  0  0
  -17.1530  -29.0570   23.2280 C   0  0  0  0  0  3  0  0  0  0  0  0
  -17.4770  -27.8240   22.6330 C   0  0  0  0  0  3  0  0  0  0  0  0
  -26.3410  -32.2520   24.0600 C   0  0  0  0  0  3  0  0  0  0  0  0
  -25.9500  -33.6270   24.3920 N   0  0  0  0  0  0  0  0  0  0  0  0
  -26.2550  -34.7040   23.6560 C   0  0  0  0  0  0  0  0  0  0  0  0
  -26.9680  -34.6470   22.6500 O   0  0  0  0  0  0  0  0  0  0  0  0
  -25.3190  -33.7430   25.1720 H   0  0  0  0  0  0  0  0  0  0  0  0
  -24.4430  -36.4030   23.2640 C   0  0  0  0  0  1  0  0  0  0  0  0
  -25.6800  -36.0610   24.1080 C   0  0  0  0  0  3  0  0  0  0  0  0
  -27.7360  -37.0540   25.0090 C   0  0  0  0  0  1  0  0  0  0  0  0
  -26.6570  -37.1680   24.0330 N   0  0  0  0  0  0  0  0  0  0  0  0
  -26.1960  -38.0640   24.1740 H   0  0  0  0  0  0  0  0  0  0  0  0
  -26.8170  -31.4790   25.3500 C   0  0  1  0  0  0  0  0  0  0  0  0
  -25.6770  -31.1770   26.3500 C   0  0  0  0  0  1  0  0  0  0  0  0
  -27.4810  -30.1350   24.9700 C   0  0  0  0  0  1  0  0  0  0  0  0
  -27.8940  -32.3100   26.0900 C   0  0  0  0  0  1  0  0  0  0  0  0
  -31.9450  -21.2580   20.1580 C   0  0  0  0  0  2  0  0  0  0  0  0
  -31.8000  -18.9400   19.0930 C   0  0  0  0  0  3  0  0  0  0  0  0
  -31.5870  -17.5440   19.1450 C   0  0  0  0  0  3  0  0  0  0  0  0
  -31.4720  -19.7800   20.1820 C   0  0  0  0  0  0  0  0  0  0  0  0
  -30.8640  -19.1840   21.3240 C   0  0  0  0  0  0  0  0  0  0  0  0
  -30.6660  -17.7680   21.3840 C   0  0  0  0  0  0  0  0  0  0  0  0
  -31.0460  -16.9280   20.3000 C   0  0  0  0  0  0  0  0  0  0  0  0
  -30.4580  -20.0500   22.5150 C   0  0  0  0  0  1  0  0  0  0  0  0
  -30.0560  -17.1470   22.6420 C   0  0  0  0  0  1  0  0  0  0  0  0
  -31.4890  -14.4460   19.8910 C   0  0  0  0  0  0  0  0  0  0  0  0
  -31.0980  -12.1930   18.9520 C   0  0  0  0  0  2  0  0  0  0  0  0
  -30.0880  -12.3170   17.7910 C   0  0  0  0  0  2  0  0  0  0  0  0
  -28.6380  -12.2550   18.3140 C   0  0  0  0  0  2  0  0  0  0  0  0
  -28.3950  -13.1990   19.5210 C   0  0  0  0  0  3  0  0  0  0  0  0
  -29.5090  -13.0350   20.5800 C   0  0  0  0  0  2  0  0  0  0  0  0
  -30.8040  -13.2670   19.9150 N   0  0  0  0  0  0  0  0  0  0  0  0
  -32.5950  -14.5540   19.3520 O   0  0  0  0  0  0  0  0  0  0  0  0
  -30.8150  -15.5070   20.3960 N   0  0  0  0  0  0  0  0  0  0  0  0
  -29.9770  -15.2460   20.8900 H   0  0  0  0  0  0  0  0  0  0  0  0
  -26.1180  -13.9530   20.4520 C   0  0  0  0  0  0  0  0  0  0  0  0
  -25.0210  -13.2490   20.8680 C   0  0  0  0  0  0  0  0  0  0  0  0
  -25.3630  -11.8690   20.7310 C   0  0  0  0  0  0  0  0  0  0  0  0
  -27.0650  -13.0070   20.0940 N   0  0  0  0  0  0  0  0  0  0  0  0
  -26.6180  -11.7440   20.3180 N   0  0  0  0  0  0  0  0  0  0  0  0
  -24.5510  -10.6590   20.9170 C   0  0  0  0  0  0  0  0  0  0  0  0
  -24.9230   -9.6530   21.8360 C   0  0  0  0  0  3  0  0  0  0  0  0
  -24.1170   -8.5080   22.0110 C   0  0  0  0  0  3  0  0  0  0  0  0
  -22.9230   -8.3610   21.2650 C   0  0  0  0  0  0  0  0  0  0  0  0
  -22.5690   -9.3540   20.3350 C   0  0  0  0  0  3  0  0  0  0  0  0
  -23.3750  -10.4920   20.1590 C   0  0  0  0  0  3  0  0  0  0  0  0
  -22.0910   -7.2710   21.3480 O   0  0  0  0  0  0  0  0  0  0  0  0
  -21.9090   -6.5930   22.5270 C   0  0  0  0  0  0  0  0  0  0  0  0
  -21.4430   -7.2380   23.6930 C   0  0  0  0  0  3  0  0  0  0  0  0
  -21.2050   -6.4900   24.8630 C   0  0  0  0  0  3  0  0  0  0  0  0
  -21.4210   -5.0990   24.8670 C   0  0  0  0  0  0  0  0  0  0  0  0
  -21.8800   -4.4550   23.7060 C   0  0  0  0  0  3  0  0  0  0  0  0
  -22.1200   -5.1990   22.5380 C   0  0  0  0  0  0  0  0  0  0  0  0
  -22.5420   -4.5700   21.4140 F   0  0  0  0  0  0  0  0  0  0  0  0
  -21.1850   -4.3790   25.9890 F   0  0  0  0  0  0  0  0  0  0  0  0
  -23.6930  -13.8190   21.2780 C   0  0  0  0  0  0  0  0  0  0  0  0
  -22.9910  -13.1490   22.1850 N   0  0  0  0  0  0  0  0  0  0  0  0
  -23.2920  -14.8920   20.8290 O   0  0  0  0  0  0  0  0  0  0  0  0
  -23.3300  -12.2780   22.5680 H   0  0  0  0  0  0  0  0  0  0  0  0
  -22.1030  -13.5100   22.5000 H   0  0  0  0  0  0  0  0  0  0  0  0
  -26.3840  -15.3140   20.3310 N   0  0  0  0  0  0  0  0  0  0  0  0
  -25.6830  -16.0200   20.5320 H   0  0  0  0  0  0  0  0  0  0  0  0
  -27.2360  -15.7020   19.9460 H   0  0  0  0  0  0  0  0  0  0  0  0
  1  4  1  0
  1  2  1  0
  2  6  1  0
  4  7  1  0
  5  3  1  0
  6  9  1  0
  6  3  1  0
  7 50  1  0
  7  5  1  0
  7  8  1  1
 10 21  2  0
 11  9  1  0
 11 16  1  0
 12 20  1  0
 12 22  1  0
 13 19  1  0
 13 15  1  0
 14 20  1  0
 15 16  2  0
 15 14  1  0
 17 11  2  0
 18 17  1  0
 18 13  2  0
 19 12  1  0
 20 10  1  0
 22 24  2  0
 23 22  1  0
 25 23  1  0
 26 35  2  0
 26 31  1  0
 27 23  1  0
 27 31  1  0
 28 27  1  0
 29 30  1  0
 29 28  1  0
 30 26  1  0
 31 32  2  0
 32 33  1  0
 34 33  2  0
 35 34  1  0
 36 10  1  0
 36 37  1  0
 36 46  1  0
 37 40  1  0
 38 42  1  0
 38 37  1  0
 39 38  2  0
 42 41  1  0
 44 42  1  0
 44 45  1  0
 44 43  1  0
 46 49  1  1
 46 47  1  0
 48 46  1  0
 50 53  1  0
 51 52  2  0
 51 53  1  0
 52 56  1  0
 53 54  2  0
 54 55  1  0
 54 57  1  0
 55 58  1  0
 56 67  1  0
 56 55  2  0
 59 65  1  0
 59 67  1  0
 60 65  1  0
 61 62  1  0
 61 60  1  0
 63 62  1  0
 63 72  1  0
 63 64  1  0
 65 64  1  0
 66 59  2  0
 67 68  1  0
 69 70  2  0
 70 89  1  0
 71 70  1  0
 71 74  1  0
 72 73  1  0
 72 69  1  0
 73 71  2  0
 74 75  1  0
 75 76  2  0
 77 80  1  0
 77 76  1  0
 78 77  2  0
 79 78  1  0
 79 74  2  0
 80 81  1  0
 81 86  2  0
 81 82  1  0
 82 83  2  0
 83 84  1  0
 84 88  1  0
 85 84  2  0
 86 85  1  0
 87 86  1  0
 89 90  1  0
 90 93  1  0
 90 92  1  0
 91 89  2  0
 94 69  1  0
 94 95  1  0
 96 94  1  0
M  ISO  4   6 101   9 101  59 100  67 100
M  END
>  <TORSDO>  (39) 
F 18

>  <SCORE>  (39) 
-12.158

>  <name>  (39) 
38

>  <ligand_id>  (39) 
38

>  <original_smiles>  (39) 
[H]c1c([H])c([H])c2c(c1[H])C([H])([H])C([H])([H])C([H])([H])C2([H])N([H])C(=O)C1([H])N(C(=O)C([H])(N([H])C(=O)C([H])(N([H])C([H])([H])[H])C([H])([H])[H])C(C([H])([H])[H])(C([H])([H])[H])C([H])([H])[H])C([H])([H])c2c([H])c(OC3([H])C([H])([H])C([H])([H])C([H])([H])[N+]([H])(C([H])([H])c4c([H])c([H])c(N([H])C(=O)N5C([H])([H])C([H])([H])C([H])([H])C([H])(n6nc(-c7c([H])c([H])c(Oc8c([H])c([H])c(F)c([H])c8F)c([H])c7[H])c(C(=O)N([H])[H])c6N([H])[H])C5([H])[H])c(C([H])([H])[H])c4C([H])([H])[H])C([H])([H])C3([H])[H])c([H])c([H])c2C1([H])[H]

>  <smiles>  (39) 
[H]c1c([H])c([H])c2c(c1[H])C([H])([H])C([H])([H])C([H])([H])C2([H])N([H])C(=O)C1([H])N(C(=O)C([H])(N([H])C(=O)C([H])(N([H])C([H])([H])[H])C([H])([H])[H])C(C([H])([H])[H])(C([H])([H])[H])C([H])([H])[H])C([H])([H])c2c([H])c(OC3([H])C([H])([H])C([H])([H])C([H])([H])[N+]([H])(C([H])([H])c4c([H])c([H])c(N([H])C(=O)N5C([H])([H])C([H])([H])C([H])([H])C([H])(n6nc(-c7c([H])c([H])c(Oc8c([H])c([H])c(F)c([H])c8F)c([H])c7[H])c(C(=O)N([H])[H])c6N([H])[H])C5([H])[H])c(C([H])([H])[H])c4C([H])([H])[H])C([H])([H])C3([H])[H])c([H])c([H])c2C1([H])[H]

$$$$
39:0:0
     RDKit          3D

 95104  0  0  1  0  0  0  0  0999 V2000
  -29.2560  -24.9960   21.7400 C   0  0  0  0  0  2  0  0  0  0  0  0
  -30.6030  -24.3040   21.4610 C   0  0  0  0  0  2  0  0  0  0  0  0
  -28.8790  -24.1380   19.3430 C   0  0  0  0  0  2  0  0  0  0  0  0
  -28.4060  -25.1730   20.4630 C   0  0  0  0  0  3  0  0  0  0  0  0
  -30.4030  -22.8590   20.9430 C   0  0  0  0  0  3  0  0  0  0  0  0
  -31.7640  -22.2160   20.6300 C   0  0  0  0  0  1  0  0  0  0  0  0
  -29.5170  -22.7960   19.7450 N   0  0  1  0  0  4  0  0  0  0  0  0
  -30.1640  -22.6680   18.9810 H   0  0  0  0  0  0  0  0  0  0  0  0
  -28.4750  -26.6150   20.1080 O   0  0  0  0  0  0  0  0  0  0  0  0
  -24.6190  -31.8490   23.2660 C   0  0  0  0  0  0  0  0  0  0  0  0
  -27.3160  -27.4040   20.1390 C   0  0  0  0  0  0  0  0  0  0  0  0
  -23.4340  -30.4580   21.6030 C   0  0  0  0  0  3  0  0  0  0  0  0
  -24.9110  -28.9490   20.1570 C   0  0  0  0  0  0  0  0  0  0  0  0
  -25.9650  -30.8310   21.4160 C   0  0  0  0  0  2  0  0  0  0  0  0
  -26.0720  -29.4650   20.7500 C   0  0  0  0  0  0  0  0  0  0  0  0
  -27.2780  -28.7080   20.7220 C   0  0  0  0  0  3  0  0  0  0  0  0
  -26.1320  -26.9270   19.5380 C   0  0  0  0  0  3  0  0  0  0  0  0
  -24.9440  -27.6890   19.5360 C   0  0  0  0  0  3  0  0  0  0  0  0
  -23.6570  -29.8010   20.2140 C   0  0  0  0  0  2  0  0  0  0  0  0
  -24.6910  -31.0600   22.1530 N   0  0  0  0  0  0  0  0  0  0  0  0
  -23.5340  -32.1000   23.8090 O   0  0  0  0  0  0  0  0  0  0  0  0
  -22.7890  -29.4200   22.5510 C   0  0  0  0  0  0  0  0  0  0  0  0
  -21.4660  -29.2230   22.4230 N   0  0  0  0  0  0  0  0  0  0  0  0
  -23.4790  -28.7890   23.3570 O   0  0  0  0  0  0  0  0  0  0  0  0
  -20.9680  -29.7820   21.7470 H   0  0  0  0  0  0  0  0  0  0  0  0
  -18.1070  -27.9760   22.9180 C   0  0  0  0  0  0  0  0  0  0  0  0
  -20.6630  -28.2640   23.1840 C   0  0  0  0  0  3  0  0  0  0  0  0
  -20.7820  -26.8430   22.5850 C   0  0  0  0  0  2  0  0  0  0  0  0
  -19.6790  -26.5230   21.5680 C   0  0  0  0  0  2  0  0  0  0  0  0
  -18.2980  -26.6420   22.2180 C   0  0  0  0  0  2  0  0  0  0  0  0
  -19.2170  -28.7450   23.3590 C   0  0  0  0  0  0  0  0  0  0  0  0
  -18.9840  -29.9930   23.9740 C   0  0  0  0  0  3  0  0  0  0  0  0
  -17.6740  -30.4750   24.1530 C   0  0  0  0  0  3  0  0  0  0  0  0
  -16.5780  -29.7040   23.7280 C   0  0  0  0  0  3  0  0  0  0  0  0
  -16.7950  -28.4570   23.1160 C   0  0  0  0  0  3  0  0  0  0  0  0
  -25.8950  -32.4910   23.8950 C   0  0  0  0  0  3  0  0  0  0  0  0
  -25.5810  -33.8950   24.1990 N   0  0  0  0  0  0  0  0  0  0  0  0
  -25.9290  -34.9360   23.4320 C   0  0  0  0  0  0  0  0  0  0  0  0
  -26.6160  -34.8170   22.4140 O   0  0  0  0  0  0  0  0  0  0  0  0
  -24.9680  -34.0600   24.9840 H   0  0  0  0  0  0  0  0  0  0  0  0
  -24.2100  -36.7280   23.0240 C   0  0  0  0  0  1  0  0  0  0  0  0
  -25.4380  -36.3320   23.8610 C   0  0  0  0  0  3  0  0  0  0  0  0
  -27.5620  -37.2230   24.7130 C   0  0  0  0  0  1  0  0  0  0  0  0
  -26.4730  -37.3830   23.7530 N   0  0  0  0  0  0  0  0  0  0  0  0
  -26.0650  -38.3040   23.8880 H   0  0  0  0  0  0  0  0  0  0  0  0
  -26.3920  -31.7400   25.1920 C   0  0  1  0  0  0  0  0  0  0  0  0
  -25.2810  -31.5240   26.2450 C   0  0  0  0  0  1  0  0  0  0  0  0
  -26.9770  -30.3540   24.8330 C   0  0  0  0  0  1  0  0  0  0  0  0
  -27.5350  -32.5430   25.8580 C   0  0  0  0  0  1  0  0  0  0  0  0
  -28.6820  -21.5220   19.6340 C   0  0  0  0  0  2  0  0  0  0  0  0
  -29.1630  -19.4470   21.1560 C   0  0  0  0  0  3  0  0  0  0  0  0
  -29.4760  -18.0720   21.3640 C   0  0  0  0  0  3  0  0  0  0  0  0
  -30.1460  -17.8550   19.0720 C   0  0  0  0  0  3  0  0  0  0  0  0
  -29.2930  -20.0740   19.8850 C   0  0  0  0  0  0  0  0  0  0  0  0
  -29.9580  -17.2210   20.3320 C   0  0  0  0  0  0  0  0  0  0  0  0
  -29.8210  -19.2360   18.8520 C   0  0  0  0  0  0  0  0  0  0  0  0
  -30.0190  -19.8770   17.2600 Cl  0  0  0  0  0  0  0  0  0  0  0  0
  -30.7810  -14.7650   19.9690 C   0  0  0  0  0  0  0  0  0  0  0  0
  -30.5070  -12.5140   18.9330 C   0  0  0  0  0  2  0  0  0  0  0  0
  -29.4960  -12.6540   17.7730 C   0  0  0  0  0  2  0  0  0  0  0  0
  -28.0500  -12.4980   18.2840 C   0  0  0  0  0  2  0  0  0  0  0  0
  -27.7740  -13.3580   19.5470 C   0  0  0  0  0  3  0  0  0  0  0  0
  -28.8960  -13.1950   20.6010 C   0  0  0  0  0  2  0  0  0  0  0  0
  -30.1760  -13.5310   19.9540 N   0  0  0  0  0  0  0  0  0  0  0  0
  -31.8620  -14.9490   19.3990 O   0  0  0  0  0  0  0  0  0  0  0  0
  -30.0950  -15.7780   20.5920 N   0  0  0  0  0  0  0  0  0  0  0  0
  -29.4280  -15.4210   21.2570 H   0  0  0  0  0  0  0  0  0  0  0  0
  -25.4470  -13.9730   20.4400 C   0  0  0  0  0  0  0  0  0  0  0  0
  -24.3950  -13.2040   20.8580 C   0  0  0  0  0  0  0  0  0  0  0  0
  -24.8290  -11.8460   20.7500 C   0  0  0  0  0  0  0  0  0  0  0  0
  -26.4570  -13.0830   20.1110 N   0  0  0  0  0  0  0  0  0  0  0  0
  -26.0950  -11.7990   20.3540 N   0  0  0  0  0  0  0  0  0  0  0  0
  -24.0910  -10.5920   20.9400 C   0  0  0  0  0  0  0  0  0  0  0  0
  -24.5190   -9.6150   21.8670 C   0  0  0  0  0  3  0  0  0  0  0  0
  -23.7780   -8.4290   22.0510 C   0  0  0  0  0  3  0  0  0  0  0  0
  -22.5950   -8.2090   21.3070 C   0  0  0  0  0  0  0  0  0  0  0  0
  -22.1860   -9.1710   20.3690 C   0  0  0  0  0  3  0  0  0  0  0  0
  -22.9280  -10.3500   20.1810 C   0  0  0  0  0  3  0  0  0  0  0  0
  -21.8260   -7.0730   21.4000 O   0  0  0  0  0  0  0  0  0  0  0  0
  -21.7230   -6.3680   22.5740 C   0  0  0  0  0  0  0  0  0  0  0  0
  -21.2570   -6.9670   23.7650 C   0  0  0  0  0  3  0  0  0  0  0  0
  -21.1010   -6.1910   24.9300 C   0  0  0  0  0  3  0  0  0  0  0  0
  -21.3970   -4.8150   24.9060 C   0  0  0  0  0  0  0  0  0  0  0  0
  -21.8550   -4.2160   23.7200 C   0  0  0  0  0  3  0  0  0  0  0  0
  -22.0150   -4.9900   22.5560 C   0  0  0  0  0  0  0  0  0  0  0  0
  -22.4330   -4.4020   21.4090 F   0  0  0  0  0  0  0  0  0  0  0  0
  -21.2420   -4.0640   26.0220 F   0  0  0  0  0  0  0  0  0  0  0  0
  -23.0290  -13.6920   21.2410 C   0  0  0  0  0  0  0  0  0  0  0  0
  -22.3560  -12.9870   22.1440 N   0  0  0  0  0  0  0  0  0  0  0  0
  -22.5700  -14.7370   20.7790 O   0  0  0  0  0  0  0  0  0  0  0  0
  -22.7370  -12.1400   22.5360 H   0  0  0  0  0  0  0  0  0  0  0  0
  -21.4420  -13.3000   22.4440 H   0  0  0  0  0  0  0  0  0  0  0  0
  -25.6190  -15.3470   20.2940 N   0  0  0  0  0  0  0  0  0  0  0  0
  -24.8660  -16.0030   20.4760 H   0  0  0  0  0  0  0  0  0  0  0  0
  -26.4550  -15.8000   19.9490 H   0  0  0  0  0  0  0  0  0  0  0  0
  2  1  1  0
  3  7  1  0
  3  4  1  0
  4  9  1  0
  4  1  1  0
  5  6  1  0
  5  2  1  0
  7  5  1  0
  7  8  1  6
  9 11  1  0
 10 21  2  0
 11 16  1  0
 12 20  1  0
 12 22  1  0
 13 19  1  0
 13 15  1  0
 14 20  1  0
 15 14  1  0
 16 15  2  0
 17 11  2  0
 18 17  1  0
 18 13  2  0
 19 12  1  0
 20 10  1  0
 22 24  2  0
 23 22  1  0
 25 23  1  0
 26 35  2  0
 26 31  1  0
 27 23  1  0
 27 31  1  0
 28 27  1  0
 29 30  1  0
 29 28  1  0
 30 26  1  0
 31 32  2  0
 32 33  1  0
 34 33  2  0
 35 34  1  0
 36 10  1  0
 36 37  1  0
 36 46  1  0
 37 40  1  0
 38 42  1  0
 38 37  1  0
 39 38  2  0
 42 41  1  0
 44 42  1  0
 44 45  1  0
 44 43  1  0
 46 49  1  1
 46 47  1  0
 48 46  1  0
 50  7  1  0
 50 54  1  0
 51 52  1  0
 53 55  1  0
 54 51  2  0
 55 66  1  0
 55 52  2  0
 56 53  2  0
 56 54  1  0
 57 56  1  0
 58 66  1  0
 59 64  1  0
 60 61  1  0
 60 59  1  0
 62 61  1  0
 62 71  1  0
 62 63  1  0
 64 58  1  0
 64 63  1  0
 65 58  2  0
 66 67  1  0
 68 69  2  0
 69 88  1  0
 70 69  1  0
 70 73  1  0
 71 72  1  0
 71 68  1  0
 72 70  2  0
 73 74  1  0
 74 75  2  0
 76 79  1  0
 76 75  1  0
 77 76  2  0
 78 77  1  0
 78 73  2  0
 79 80  1  0
 80 81  1  0
 81 82  2  0
 83 82  1  0
 83 87  1  0
 84 83  2  0
 85 80  2  0
 85 84  1  0
 86 85  1  0
 88 89  1  0
 89 92  1  0
 89 91  1  0
 90 88  2  0
 93 68  1  0
 93 94  1  0
 95 93  1  0
M  ISO  4   4 101   9 101  58 100  66 100
M  END
>  <TORSDO>  (40) 
F 18

>  <SCORE>  (40) 
-14.028

>  <name>  (40) 
39

>  <ligand_id>  (40) 
39

>  <original_smiles>  (40) 
[H]c1c([H])c([H])c2c(c1[H])C([H])([H])C([H])([H])C([H])([H])C2([H])N([H])C(=O)C1([H])N(C(=O)C([H])(N([H])C(=O)C([H])(N([H])C([H])([H])[H])C([H])([H])[H])C(C([H])([H])[H])(C([H])([H])[H])C([H])([H])[H])C([H])([H])c2c([H])c(OC3([H])C([H])([H])C([H])([H])C([H])(C([H])([H])[H])[N+]([H])(C([H])([H])c4c([H])c([H])c(N([H])C(=O)N5C([H])([H])C([H])([H])C([H])([H])C([H])(n6nc(-c7c([H])c([H])c(Oc8c([H])c([H])c(F)c([H])c8F)c([H])c7[H])c(C(=O)N([H])[H])c6N([H])[H])C5([H])[H])c([H])c4Cl)C3([H])[H])c([H])c([H])c2C1([H])[H]

>  <smiles>  (40) 
[H]c1c([H])c([H])c2c(c1[H])C([H])([H])C([H])([H])C([H])([H])C2([H])N([H])C(=O)C1([H])N(C(=O)C([H])(N([H])C(=O)C([H])(N([H])C([H])([H])[H])C([H])([H])[H])C(C([H])([H])[H])(C([H])([H])[H])C([H])([H])[H])C([H])([H])c2c([H])c(OC3([H])C([H])([H])C([H])([H])C([H])(C([H])([H])[H])[N+]([H])(C([H])([H])c4c([H])c([H])c(N([H])C(=O)N5C([H])([H])C([H])([H])C([H])([H])C([H])(n6nc(-c7c([H])c([H])c(Oc8c([H])c([H])c(F)c([H])c8F)c([H])c7[H])c(C(=O)N([H])[H])c6N([H])[H])C5([H])[H])c([H])c4Cl)C3([H])[H])c([H])c([H])c2C1([H])[H]

$$$$
40:0:0
     RDKit          3D

 97106  0  0  1  0  0  0  0  0999 V2000
  -29.4430  -22.9630   19.6360 C   0  0  0  0  0  0  0  0  0  0  0  0
  -29.3270  -22.4470   18.3960 C   0  0  0  0  0  2  0  0  0  0  0  0
  -29.5880  -24.4850   19.8930 C   0  0  0  0  0  2  0  0  0  0  0  0
  -27.9380  -23.4470   22.2090 C   0  0  0  0  0  2  0  0  0  0  0  0
  -27.9740  -24.9400   21.8130 C   0  0  0  0  0  2  0  0  0  0  0  0
  -29.3130  -22.7330   22.1750 C   0  0  0  0  0  2  0  0  0  0  0  0
  -28.2890  -25.2180   20.3260 C   0  0  0  0  0  3  0  0  0  0  0  0
  -29.6250  -22.0760   20.8710 N   0  0  1  0  0  4  0  0  0  0  0  0
  -30.6250  -21.9230   20.9490 H   0  0  0  0  0  0  0  0  0  0  0  0
  -28.4020  -26.6590   20.1290 O   0  0  0  0  0  0  0  0  0  0  0  0
  -24.5870  -31.8660   23.2110 C   0  0  0  0  0  0  0  0  0  0  0  0
  -27.2380  -27.4210   20.1040 C   0  0  0  0  0  0  0  0  0  0  0  0
  -23.3910  -30.4850   21.5460 C   0  0  0  0  0  3  0  0  0  0  0  0
  -24.8510  -28.9640   20.1110 C   0  0  0  0  0  0  0  0  0  0  0  0
  -25.9220  -30.8370   21.3670 C   0  0  0  0  0  2  0  0  0  0  0  0
  -26.0100  -29.4710   20.7110 C   0  0  0  0  0  0  0  0  0  0  0  0
  -27.2070  -28.7100   20.6980 C   0  0  0  0  0  3  0  0  0  0  0  0
  -26.0600  -26.9490   19.4830 C   0  0  0  0  0  3  0  0  0  0  0  0
  -24.8740  -27.7060   19.4900 C   0  0  0  0  0  3  0  0  0  0  0  0
  -23.6080  -29.8240   20.1600 C   0  0  0  0  0  2  0  0  0  0  0  0
  -24.6520  -31.0780   22.0990 N   0  0  0  0  0  0  0  0  0  0  0  0
  -23.5030  -32.1310   23.7480 O   0  0  0  0  0  0  0  0  0  0  0  0
  -22.7320  -29.4530   22.4900 C   0  0  0  0  0  0  0  0  0  0  0  0
  -21.4060  -29.2790   22.3600 N   0  0  0  0  0  0  0  0  0  0  0  0
  -23.4110  -28.8130   23.2970 O   0  0  0  0  0  0  0  0  0  0  0  0
  -20.9180  -29.8490   21.6840 H   0  0  0  0  0  0  0  0  0  0  0  0
  -18.0220  -28.1070   22.8530 C   0  0  0  0  0  0  0  0  0  0  0  0
  -20.5830  -28.3330   23.1140 C   0  0  0  0  0  3  0  0  0  0  0  0
  -20.6680  -26.9130   22.5050 C   0  0  0  0  0  2  0  0  0  0  0  0
  -19.5550  -26.6260   21.4920 C   0  0  0  0  0  2  0  0  0  0  0  0
  -18.1790  -26.7730   22.1470 C   0  0  0  0  0  2  0  0  0  0  0  0
  -19.1510  -28.8470   23.2940 C   0  0  0  0  0  0  0  0  0  0  0  0
  -18.9500  -30.1010   23.9140 C   0  0  0  0  0  3  0  0  0  0  0  0
  -17.6510  -30.6120   24.0990 C   0  0  0  0  0  3  0  0  0  0  0  0
  -16.5360  -29.8660   23.6770 C   0  0  0  0  0  3  0  0  0  0  0  0
  -16.7230  -28.6180   23.0570 C   0  0  0  0  0  3  0  0  0  0  0  0
  -25.8700  -32.4900   23.8470 C   0  0  0  0  0  3  0  0  0  0  0  0
  -25.5620  -33.8870   24.1840 N   0  0  0  0  0  0  0  0  0  0  0  0
  -25.8850  -34.9400   23.4220 C   0  0  0  0  0  0  0  0  0  0  0  0
  -26.5430  -34.8390   22.3840 O   0  0  0  0  0  0  0  0  0  0  0  0
  -24.9790  -34.0400   24.9930 H   0  0  0  0  0  0  0  0  0  0  0  0
  -24.1430  -36.7260   23.0990 C   0  0  0  0  0  1  0  0  0  0  0  0
  -25.4000  -36.3270   23.8880 C   0  0  0  0  0  3  0  0  0  0  0  0
  -27.5440  -37.2230   24.6840 C   0  0  0  0  0  1  0  0  0  0  0  0
  -26.4270  -37.3830   23.7560 N   0  0  0  0  0  0  0  0  0  0  0  0
  -26.0210  -38.3040   23.9060 H   0  0  0  0  0  0  0  0  0  0  0  0
  -26.3760  -31.7080   25.1210 C   0  0  1  0  0  0  0  0  0  0  0  0
  -25.2740  -31.4600   26.1770 C   0  0  0  0  0  1  0  0  0  0  0  0
  -26.9630  -30.3350   24.7190 C   0  0  0  0  0  1  0  0  0  0  0  0
  -27.5240  -32.4950   25.7970 C   0  0  0  0  0  1  0  0  0  0  0  0
  -29.1250  -20.6440   20.8190 C   0  0  0  0  0  2  0  0  0  0  0  0
  -31.9420  -17.2260   20.8080 C   0  0  0  0  0  3  0  0  0  0  0  0
  -32.4290  -18.5380   20.8700 C   0  0  0  0  0  3  0  0  0  0  0  0
  -29.6620  -18.0900   20.7390 C   0  0  0  0  0  0  0  0  0  0  0  0
  -30.1470  -19.4520   20.7940 C   0  0  0  0  0  0  0  0  0  0  0  0
  -30.5580  -16.9650   20.7130 C   0  0  0  0  0  0  0  0  0  0  0  0
  -31.5610  -19.6410   20.8550 C   0  0  0  0  0  0  0  0  0  0  0  0
  -28.1540  -17.8420   20.7060 C   0  0  0  0  0  1  0  0  0  0  0  0
  -32.3350  -21.1870   20.9210 Cl  0  0  0  0  0  0  0  0  0  0  0  0
  -30.7150  -14.5240   20.0610 C   0  0  0  0  0  0  0  0  0  0  0  0
  -30.3380  -12.3350   18.9720 C   0  0  0  0  0  2  0  0  0  0  0  0
  -29.3390  -12.5100   17.8100 C   0  0  0  0  0  2  0  0  0  0  0  0
  -27.8920  -12.3690   18.3190 C   0  0  0  0  0  2  0  0  0  0  0  0
  -27.6160  -13.2240   19.5850 C   0  0  0  0  0  3  0  0  0  0  0  0
  -28.7320  -13.0520   20.6410 C   0  0  0  0  0  2  0  0  0  0  0  0
  -30.0180  -13.3520   19.9930 N   0  0  0  0  0  0  0  0  0  0  0  0
  -31.8080  -14.6440   19.5010 O   0  0  0  0  0  0  0  0  0  0  0  0
  -30.0920  -15.5910   20.6330 N   0  0  0  0  0  0  0  0  0  0  0  0
  -29.1530  -15.4140   20.9560 H   0  0  0  0  0  0  0  0  0  0  0  0
  -25.2740  -13.8250   20.4580 C   0  0  0  0  0  0  0  0  0  0  0  0
  -24.2240  -13.0510   20.8710 C   0  0  0  0  0  0  0  0  0  0  0  0
  -24.6660  -11.6980   20.7700 C   0  0  0  0  0  0  0  0  0  0  0  0
  -26.2950  -12.9430   20.1390 N   0  0  0  0  0  0  0  0  0  0  0  0
  -25.9360  -11.6560   20.3840 N   0  0  0  0  0  0  0  0  0  0  0  0
  -23.9380  -10.4370   20.9650 C   0  0  0  0  0  0  0  0  0  0  0  0
  -24.3690   -9.4720   21.9020 C   0  0  0  0  0  3  0  0  0  0  0  0
  -23.6400   -8.2770   22.0850 C   0  0  0  0  0  3  0  0  0  0  0  0
  -22.4660   -8.0380   21.3320 C   0  0  0  0  0  0  0  0  0  0  0  0
  -22.0540   -8.9920   20.3850 C   0  0  0  0  0  3  0  0  0  0  0  0
  -22.7830  -10.1780   20.2000 C   0  0  0  0  0  3  0  0  0  0  0  0
  -21.7100   -6.8950   21.4240 O   0  0  0  0  0  0  0  0  0  0  0  0
  -21.6100   -6.1910   22.5980 C   0  0  0  0  0  0  0  0  0  0  0  0
  -21.1120   -6.7810   23.7800 C   0  0  0  0  0  3  0  0  0  0  0  0
  -20.9610   -6.0010   24.9450 C   0  0  0  0  0  3  0  0  0  0  0  0
  -21.2960   -4.6350   24.9280 C   0  0  0  0  0  0  0  0  0  0  0  0
  -21.7870   -4.0450   23.7490 C   0  0  0  0  0  3  0  0  0  0  0  0
  -21.9400   -4.8200   22.5870 C   0  0  0  0  0  0  0  0  0  0  0  0
  -22.3930   -4.2420   21.4480 F   0  0  0  0  0  0  0  0  0  0  0  0
  -21.1440   -3.8840   26.0450 F   0  0  0  0  0  0  0  0  0  0  0  0
  -22.8500  -13.5340   21.2420 C   0  0  0  0  0  0  0  0  0  0  0  0
  -22.1700  -12.8210   22.1330 N   0  0  0  0  0  0  0  0  0  0  0  0
  -22.3920  -14.5780   20.7790 O   0  0  0  0  0  0  0  0  0  0  0  0
  -22.5540  -11.9760   22.5290 H   0  0  0  0  0  0  0  0  0  0  0  0
  -21.2520  -13.1240   22.4230 H   0  0  0  0  0  0  0  0  0  0  0  0
  -25.4390  -15.1980   20.3030 N   0  0  0  0  0  0  0  0  0  0  0  0
  -24.6730  -15.8460   20.4480 H   0  0  0  0  0  0  0  0  0  0  0  0
  -26.2400  -15.6260   19.8570 H   0  0  0  0  0  0  0  0  0  0  0  0
  1  3  1  0
  1  8  1  0
  2  1  2  0
  3  7  1  0
  5  4  1  0
  6  4  1  0
  7 10  1  0
  7  5  1  0
  8  9  1  1
  8  6  1  0
 11 22  2  0
 12 10  1  0
 12 17  1  0
 13 21  1  0
 13 23  1  0
 14 20  1  0
 14 16  1  0
 15 21  1  0
 16 15  1  0
 17 16  2  0
 18 19  1  0
 18 12  2  0
 19 14  2  0
 20 13  1  0
 21 11  1  0
 23 25  2  0
 24 23  1  0
 26 24  1  0
 27 36  2  0
 27 32  1  0
 28 24  1  0
 28 32  1  0
 29 28  1  0
 30 31  1  0
 30 29  1  0
 31 27  1  0
 32 33  2  0
 33 34  1  0
 35 34  2  0
 36 35  1  0
 37 11  1  0
 37 38  1  0
 37 47  1  0
 38 41  1  0
 39 43  1  0
 39 38  1  0
 40 39  2  0
 43 42  1  0
 45 43  1  0
 45 46  1  0
 45 44  1  0
 47 50  1  1
 47 48  1  0
 49 47  1  0
 51  8  1  0
 52 53  1  0
 54 55  2  0
 55 51  1  0
 55 57  1  0
 56 54  1  0
 56 52  2  0
 57 53  2  0
 57 59  1  0
 58 54  1  0
 60 68  1  0
 61 66  1  0
 62 63  1  0
 62 61  1  0
 64 63  1  0
 64 73  1  0
 64 65  1  0
 66 60  1  0
 66 65  1  0
 67 60  2  0
 68 56  1  0
 68 69  1  0
 70 71  2  0
 71 90  1  0
 72 71  1  0
 72 75  1  0
 73 74  1  0
 73 70  1  0
 74 72  2  0
 75 76  1  0
 76 77  2  0
 78 81  1  0
 78 77  1  0
 79 78  2  0
 80 79  1  0
 80 75  2  0
 81 82  1  0
 82 83  1  0
 83 84  2  0
 85 84  1  0
 85 89  1  0
 86 85  2  0
 87 82  2  0
 87 86  1  0
 88 87  1  0
 90 91  1  0
 91 94  1  0
 91 93  1  0
 92 90  2  0
 95 96  1  0
 95 70  1  0
 97 95  1  0
M  ISO  4   7 101  10 101  60 100  68 100
M  END
>  <TORSDO>  (41) 
F 18

>  <SCORE>  (41) 
-14.710

>  <name>  (41) 
40

>  <ligand_id>  (41) 
40

>  <original_smiles>  (41) 
[H]C([H])=C1C([H])([H])C([H])(Oc2c([H])c([H])c3c(c2[H])C([H])([H])N(C(=O)C([H])(N([H])C(=O)C([H])(N([H])C([H])([H])[H])C([H])([H])[H])C(C([H])([H])[H])(C([H])([H])[H])C([H])([H])[H])C([H])(C(=O)N([H])C2([H])c4c([H])c([H])c([H])c([H])c4C([H])([H])C([H])([H])C2([H])[H])C3([H])[H])C([H])([H])C([H])([H])C([H])([H])[N+]1([H])C([H])([H])c1c(Cl)c([H])c([H])c(N([H])C(=O)N2C([H])([H])C([H])([H])C([H])([H])C([H])(n3nc(-c4c([H])c([H])c(Oc5c([H])c([H])c(F)c([H])c5F)c([H])c4[H])c(C(=O)N([H])[H])c3N([H])[H])C2([H])[H])c1C([H])([H])[H]

>  <smiles>  (41) 
[H]C([H])=C1C([H])([H])C([H])(Oc2c([H])c([H])c3c(c2[H])C([H])([H])N(C(=O)C([H])(N([H])C(=O)C([H])(N([H])C([H])([H])[H])C([H])([H])[H])C(C([H])([H])[H])(C([H])([H])[H])C([H])([H])[H])C([H])(C(=O)N([H])C2([H])c4c([H])c([H])c([H])c([H])c4C([H])([H])C([H])([H])C2([H])[H])C3([H])[H])C([H])([H])C([H])([H])C([H])([H])[N+]1([H])C([H])([H])c1c(Cl)c([H])c([H])c(N([H])C(=O)N2C([H])([H])C([H])([H])C([H])([H])C([H])(n3nc(-c4c([H])c([H])c(Oc5c([H])c([H])c(F)c([H])c5F)c([H])c4[H])c(C(=O)N([H])[H])c3N([H])[H])C2([H])[H])c1C([H])([H])[H]

$$$$
41:0:0
     RDKit          3D

100108  0  0  1  0  0  0  0  0999 V2000
  -31.4230  -22.5680   20.0500 C   0  0  0  0  0  2  0  0  0  0  0  0
  -31.3290  -22.0140   21.4280 N   0  0  0  0  0  4  0  0  0  0  0  0
  -31.8890  -22.6160   22.0100 H   0  0  0  0  0  0  0  0  0  0  0  0
  -30.3810  -22.0460   21.7700 H   0  0  0  0  0  0  0  0  0  0  0  0
  -31.8800  -20.6430   21.6270 C   0  0  0  0  0  2  0  0  0  0  0  0
  -30.8790  -19.6960   19.5160 C   0  0  0  0  0  3  0  0  0  0  0  0
  -30.2300  -18.7080   18.7640 C   0  0  0  0  0  3  0  0  0  0  0  0
  -31.1200  -19.5180   20.8950 C   0  0  0  0  0  0  0  0  0  0  0  0
  -29.8710  -17.4840   19.3520 C   0  0  0  0  0  0  0  0  0  0  0  0
  -30.7320  -18.2820   21.5100 C   0  0  0  0  0  0  0  0  0  0  0  0
  -30.1550  -17.2330   20.7230 C   0  0  0  0  0  0  0  0  0  0  0  0
  -29.2110  -16.4500   18.4620 C   0  0  0  0  0  1  0  0  0  0  0  0
  -30.9620  -18.0360   23.0000 C   0  0  0  0  0  1  0  0  0  0  0  0
  -30.6500  -14.8590   21.1880 C   0  0  0  0  0  0  0  0  0  0  0  0
  -30.5880  -12.5210   20.4190 C   0  0  0  0  0  2  0  0  0  0  0  0
  -29.8310  -12.4640   19.0780 C   0  0  0  0  0  2  0  0  0  0  0  0
  -28.3200  -12.2900   19.3130 C   0  0  0  0  0  2  0  0  0  0  0  0
  -27.7570  -13.2840   20.3670 C   0  0  0  0  0  3  0  0  0  0  0  0
  -28.6540  -13.3560   21.6230 C   0  0  0  0  0  2  0  0  0  0  0  0
  -30.0320  -13.6430   21.1920 N   0  0  0  0  0  0  0  0  0  0  0  0
  -31.8500  -14.9910   20.9310 O   0  0  0  0  0  0  0  0  0  0  0  0
  -29.8490  -15.9440   21.2860 N   0  0  0  0  0  0  0  0  0  0  0  0
  -28.8840  -15.7620   21.5140 H   0  0  0  0  0  0  0  0  0  0  0  0
  -25.2940  -13.8490   20.8360 C   0  0  0  0  0  0  0  0  0  0  0  0
  -24.2070  -13.0550   21.0830 C   0  0  0  0  0  0  0  0  0  0  0  0
  -24.6910  -11.7110   21.0900 C   0  0  0  0  0  0  0  0  0  0  0  0
  -26.3700  -12.9850   20.7040 N   0  0  0  0  0  0  0  0  0  0  0  0
  -26.0060  -11.6970   20.9210 N   0  0  0  0  0  0  0  0  0  0  0  0
  -23.9680  -10.4390   21.1940 C   0  0  0  0  0  0  0  0  0  0  0  0
  -24.3190   -9.4710   22.1580 C   0  0  0  0  0  3  0  0  0  0  0  0
  -23.6000   -8.2590   22.2510 C   0  0  0  0  0  3  0  0  0  0  0  0
  -22.5150   -8.0060   21.3780 C   0  0  0  0  0  0  0  0  0  0  0  0
  -22.1850   -8.9640   20.4050 C   0  0  0  0  0  3  0  0  0  0  0  0
  -22.9050  -10.1660   20.3100 C   0  0  0  0  0  3  0  0  0  0  0  0
  -21.7750   -6.8480   21.3810 O   0  0  0  0  0  0  0  0  0  0  0  0
  -21.6320   -6.0880   22.5150 C   0  0  0  0  0  0  0  0  0  0  0  0
  -21.0180   -6.5980   23.6790 C   0  0  0  0  0  3  0  0  0  0  0  0
  -20.8220   -5.7600   24.7960 C   0  0  0  0  0  3  0  0  0  0  0  0
  -21.2310   -4.4130   24.7460 C   0  0  0  0  0  0  0  0  0  0  0  0
  -21.8370   -3.9030   23.5840 C   0  0  0  0  0  3  0  0  0  0  0  0
  -22.0310   -4.7390   22.4700 C   0  0  0  0  0  0  0  0  0  0  0  0
  -22.5950   -4.2380   21.3450 F   0  0  0  0  0  0  0  0  0  0  0  0
  -21.0380   -3.6050   25.8140 F   0  0  0  0  0  0  0  0  0  0  0  0
  -22.7810  -13.5060   21.2010 C   0  0  0  0  0  0  0  0  0  0  0  0
  -21.9780  -12.7930   21.9820 N   0  0  0  0  0  0  0  0  0  0  0  0
  -22.3830  -14.5260   20.6410 O   0  0  0  0  0  0  0  0  0  0  0  0
  -22.3120  -11.9710   22.4620 H   0  0  0  0  0  0  0  0  0  0  0  0
  -21.0140  -13.0680   22.0970 H   0  0  0  0  0  0  0  0  0  0  0  0
  -25.4550  -15.2240   20.6910 N   0  0  0  0  0  0  0  0  0  0  0  0
  -24.6670  -15.8650   20.6960 H   0  0  0  0  0  0  0  0  0  0  0  0
  -26.3260  -15.6780   20.4480 H   0  0  0  0  0  0  0  0  0  0  0  0
  -32.1890  -24.3790   18.5130 C   0  0  0  0  0  1  0  0  0  0  0  0
  -32.8120  -24.5310   20.9050 C   0  0  0  0  0  1  0  0  0  0  0  0
  -31.6620  -24.1170   19.9520 C   0  0  2  0  0  0  0  0  0  0  0  0
  -30.3480  -24.9530   20.2480 C   0  0  0  0  0  2  0  0  0  0  0  0
  -30.1680  -26.1320   19.3560 N   0  0  0  0  0  4  0  0  0  0  0  0
  -29.9770  -25.8030   18.4230 H   0  0  0  0  0  0  0  0  0  0  0  0
  -31.0630  -26.5930   19.3220 H   0  0  0  0  0  0  0  0  0  0  0  0
  -29.0700  -27.2150   19.7620 C   0  0  0  0  0  2  0  0  0  0  0  0
  -27.8330  -26.7770   19.2620 O   0  0  0  0  0  0  0  0  0  0  0  0
  -24.5270  -31.6840   23.2550 C   0  0  0  0  0  0  0  0  0  0  0  0
  -26.7300  -27.5900   19.4740 C   0  0  0  0  0  0  0  0  0  0  0  0
  -23.1240  -30.5570   21.5510 C   0  0  0  0  0  3  0  0  0  0  0  0
  -24.3920  -29.1540   19.8340 C   0  0  0  0  0  0  0  0  0  0  0  0
  -25.6340  -30.8470   21.1920 C   0  0  0  0  0  2  0  0  0  0  0  0
  -25.6040  -29.5640   20.3950 C   0  0  0  0  0  0  0  0  0  0  0  0
  -26.7700  -28.7890   20.2240 C   0  0  0  0  0  3  0  0  0  0  0  0
  -25.5000  -27.1920   18.9060 C   0  0  0  0  0  3  0  0  0  0  0  0
  -24.3300  -27.9660   19.0840 C   0  0  0  0  0  3  0  0  0  0  0  0
  -23.1940  -30.0430   20.0840 C   0  0  0  0  0  2  0  0  0  0  0  0
  -24.4510  -31.0370   22.0590 N   0  0  0  0  0  0  0  0  0  0  0  0
  -23.5090  -31.9290   23.9160 O   0  0  0  0  0  0  0  0  0  0  0  0
  -22.4970  -29.4540   22.4300 C   0  0  0  0  0  0  0  0  0  0  0  0
  -21.1670  -29.2950   22.3310 N   0  0  0  0  0  0  0  0  0  0  0  0
  -23.2010  -28.7430   23.1530 O   0  0  0  0  0  0  0  0  0  0  0  0
  -20.6600  -29.9220   21.7230 H   0  0  0  0  0  0  0  0  0  0  0  0
  -17.8090  -28.0350   22.7570 C   0  0  0  0  0  0  0  0  0  0  0  0
  -20.3660  -28.2920   23.0330 C   0  0  0  0  0  3  0  0  0  0  0  0
  -20.4760  -26.9110   22.3480 C   0  0  0  0  0  2  0  0  0  0  0  0
  -19.3720  -26.6610   21.3160 C   0  0  0  0  0  2  0  0  0  0  0  0
  -17.9940  -26.7430   21.9750 C   0  0  0  0  0  2  0  0  0  0  0  0
  -18.9240  -28.7710   23.2390 C   0  0  0  0  0  0  0  0  0  0  0  0
  -18.7000  -29.9830   23.9270 C   0  0  0  0  0  3  0  0  0  0  0  0
  -17.3930  -30.4590   24.1370 C   0  0  0  0  0  3  0  0  0  0  0  0
  -16.2920  -29.7200   23.6710 C   0  0  0  0  0  3  0  0  0  0  0  0
  -16.5010  -28.5090   22.9880 C   0  0  0  0  0  3  0  0  0  0  0  0
  -25.8930  -32.1710   23.8400 C   0  0  0  0  0  3  0  0  0  0  0  0
  -25.6950  -33.5330   24.3470 N   0  0  0  0  0  0  0  0  0  0  0  0
  -26.0990  -34.6460   23.7170 C   0  0  0  0  0  0  0  0  0  0  0  0
  -26.7470  -34.6220   22.6660 O   0  0  0  0  0  0  0  0  0  0  0  0
  -25.1190  -33.6310   25.1720 H   0  0  0  0  0  0  0  0  0  0  0  0
  -24.5310  -36.6080   23.5970 C   0  0  0  0  0  1  0  0  0  0  0  0
  -25.7210  -35.9970   24.3530 C   0  0  0  0  0  3  0  0  0  0  0  0
  -27.9020  -36.5860   25.3130 C   0  0  0  0  0  1  0  0  0  0  0  0
  -26.8400  -36.9650   24.3860 N   0  0  0  0  0  0  0  0  0  0  0  0
  -26.5080  -37.8900   24.6450 H   0  0  0  0  0  0  0  0  0  0  0  0
  -26.4590  -31.2280   24.9710 C   0  0  1  0  0  0  0  0  0  0  0  0
  -25.4400  -30.9280   26.0950 C   0  0  0  0  0  1  0  0  0  0  0  0
  -26.9180  -29.8750   24.3770 C   0  0  0  0  0  1  0  0  0  0  0  0
  -27.7070  -31.8730   25.6200 C   0  0  0  0  0  1  0  0  0  0  0  0
  1  2  1  0
  2  5  1  0
  2  4  1  0
  2  3  1  0
  6  8  1  0
  7  9  1  0
  7  6  2  0
  8 10  2  0
  8  5  1  0
  9 11  2  0
 10 13  1  0
 11 22  1  0
 11 10  1  0
 12  9  1  0
 14 20  1  0
 14 22  1  0
 15 20  1  0
 16 17  1  0
 16 15  1  0
 18 17  1  0
 18 27  1  0
 18 19  1  0
 20 19  1  0
 21 14  2  0
 22 23  1  0
 24 25  2  0
 25 26  1  0
 25 44  1  0
 26 29  1  0
 27 24  1  0
 27 28  1  0
 28 26  2  0
 29 30  1  0
 30 31  2  0
 32 35  1  0
 32 31  1  0
 33 32  2  0
 34 33  1  0
 34 29  2  0
 35 36  1  0
 36 37  1  0
 37 38  2  0
 39 38  1  0
 39 43  1  0
 40 39  2  0
 41 36  2  0
 41 40  1  0
 42 41  1  0
 44 45  1  0
 45 48  1  0
 45 47  1  0
 46 44  2  0
 49 50  1  0
 49 24  1  0
 51 49  1  0
 54 52  1  6
 54  1  1  0
 54 55  1  0
 54 53  1  0
 56 59  1  0
 56 55  1  0
 57 56  1  0
 58 56  1  0
 60 62  1  0
 60 59  1  0
 61 72  2  0
 62 67  1  0
 63 71  1  0
 63 73  1  0
 64 70  1  0
 64 66  1  0
 65 71  1  0
 66 65  1  0
 67 66  2  0
 68 69  1  0
 68 62  2  0
 69 64  2  0
 70 63  1  0
 71 61  1  0
 73 75  2  0
 74 73  1  0
 76 74  1  0
 77 86  2  0
 77 82  1  0
 78 74  1  0
 78 82  1  0
 79 78  1  0
 80 81  1  0
 80 79  1  0
 81 77  1  0
 82 83  2  0
 83 84  1  0
 85 84  2  0
 86 85  1  0
 87 61  1  0
 87 88  1  0
 87 97  1  0
 88 91  1  0
 89 88  1  0
 89 93  1  0
 90 89  2  0
 93 92  1  0
 93 95  1  0
 95 96  1  0
 95 94  1  0
 97100  1  1
 97 98  1  0
 99 97  1  0
M  ISO  4  14 100  22 100  59 101  60 101
M  END
>  <TORSDO>  (42) 
F 23

>  <SCORE>  (42) 
-10.732

>  <name>  (42) 
41

>  <ligand_id>  (42) 
41

>  <original_smiles>  (42) 
[H]c1c([H])c([H])c2c(c1[H])C([H])([H])C([H])([H])C([H])([H])C2([H])N([H])C(=O)C1([H])N(C(=O)C([H])(N([H])C(=O)C([H])(N([H])C([H])([H])[H])C([H])([H])[H])C(C([H])([H])[H])(C([H])([H])[H])C([H])([H])[H])C([H])([H])c2c([H])c(OC([H])([H])[N+]([H])([H])C([H])([H])C(C([H])([H])[H])(C([H])([H])[H])C([H])([H])[N+]([H])([H])C([H])([H])c3c([H])c([H])c(C([H])([H])[H])c(N([H])C(=O)N4C([H])([H])C([H])([H])C([H])([H])C([H])(n5nc(-c6c([H])c([H])c(Oc7c([H])c([H])c(F)c([H])c7F)c([H])c6[H])c(C(=O)N([H])[H])c5N([H])[H])C4([H])[H])c3C([H])([H])[H])c([H])c([H])c2C1([H])[H]

>  <smiles>  (42) 
[H]c1c([H])c([H])c2c(c1[H])C([H])([H])C([H])([H])C([H])([H])C2([H])N([H])C(=O)C1([H])N(C(=O)C([H])(N([H])C(=O)C([H])(N([H])C([H])([H])[H])C([H])([H])[H])C(C([H])([H])[H])(C([H])([H])[H])C([H])([H])[H])C([H])([H])c2c([H])c(OC([H])([H])[N+]([H])([H])C([H])([H])C(C([H])([H])[H])(C([H])([H])[H])C([H])([H])[N+]([H])([H])C([H])([H])c3c([H])c([H])c(C([H])([H])[H])c(N([H])C(=O)N4C([H])([H])C([H])([H])C([H])([H])C([H])(n5nc(-c6c([H])c([H])c(Oc7c([H])c([H])c(F)c([H])c7F)c([H])c6[H])c(C(=O)N([H])[H])c5N([H])[H])C4([H])[H])c3C([H])([H])[H])c([H])c([H])c2C1([H])[H]

$$$$
42:0:0
     RDKit          3D

 93101  0  0  1  0  0  0  0  0999 V2000
  -29.9410  -21.9250   20.5390 N   0  0  0  0  0  4  0  0  0  0  0  0
  -29.0340  -21.4940   20.5990 H   0  0  0  0  0  0  0  0  0  0  0  0
  -30.1860  -21.9970   19.5650 H   0  0  0  0  0  0  0  0  0  0  0  0
  -30.9270  -21.0390   21.2000 C   0  0  0  0  0  2  0  0  0  0  0  0
  -31.7930  -18.8290   20.2380 C   0  0  0  0  0  3  0  0  0  0  0  0
  -31.6810  -17.4350   20.0530 C   0  0  0  0  0  3  0  0  0  0  0  0
  -29.6040  -18.8670   21.2870 C   0  0  0  0  0  3  0  0  0  0  0  0
  -30.7620  -19.5550   20.8730 C   0  0  0  0  0  0  0  0  0  0  0  0
  -29.4810  -17.4720   21.1050 C   0  0  0  0  0  0  0  0  0  0  0  0
  -30.5310  -16.7340   20.4980 C   0  0  0  0  0  0  0  0  0  0  0  0
  -28.2170  -16.7820   21.5910 C   0  0  0  0  0  1  0  0  0  0  0  0
  -30.8700  -14.4280   19.5060 C   0  0  0  0  0  0  0  0  0  0  0  0
  -30.3110  -12.3690   18.2600 C   0  0  0  0  0  2  0  0  0  0  0  0
  -29.2210  -12.6940   17.2180 C   0  0  0  0  0  2  0  0  0  0  0  0
  -27.8120  -12.6060   17.8390 C   0  0  0  0  0  2  0  0  0  0  0  0
  -27.7020  -13.3760   19.1830 C   0  0  0  0  0  3  0  0  0  0  0  0
  -28.8780  -13.0010   20.1130 C   0  0  0  0  0  2  0  0  0  0  0  0
  -30.1370  -13.2870   19.3960 N   0  0  0  0  0  0  0  0  0  0  0  0
  -31.8870  -14.6340   18.8360 O   0  0  0  0  0  0  0  0  0  0  0  0
  -30.3540  -15.3220   20.3710 N   0  0  0  0  0  0  0  0  0  0  0  0
  -29.5910  -14.9460   20.9110 H   0  0  0  0  0  0  0  0  0  0  0  0
  -25.4470  -14.0660   20.2170 C   0  0  0  0  0  0  0  0  0  0  0  0
  -24.4020  -13.3290   20.7070 C   0  0  0  0  0  0  0  0  0  0  0  0
  -24.7890  -11.9600   20.5730 C   0  0  0  0  0  0  0  0  0  0  0  0
  -26.4100  -13.1480   19.8260 N   0  0  0  0  0  0  0  0  0  0  0  0
  -26.0220  -11.8750   20.0930 N   0  0  0  0  0  0  0  0  0  0  0  0
  -24.0340  -10.7250   20.8210 C   0  0  0  0  0  0  0  0  0  0  0  0
  -24.4660   -9.7740   21.7720 C   0  0  0  0  0  3  0  0  0  0  0  0
  -23.7140   -8.6020   22.0040 C   0  0  0  0  0  3  0  0  0  0  0  0
  -22.5170   -8.3740   21.2860 C   0  0  0  0  0  0  0  0  0  0  0  0
  -22.1040   -9.3120   20.3240 C   0  0  0  0  0  3  0  0  0  0  0  0
  -22.8560  -10.4750   20.0900 C   0  0  0  0  0  3  0  0  0  0  0  0
  -21.7340   -7.2520   21.4270 O   0  0  0  0  0  0  0  0  0  0  0  0
  -21.5790   -6.6330   22.6410 C   0  0  0  0  0  0  0  0  0  0  0  0
  -21.0820   -7.3190   23.7710 C   0  0  0  0  0  3  0  0  0  0  0  0
  -20.8720   -6.6260   24.9800 C   0  0  0  0  0  3  0  0  0  0  0  0
  -21.1470   -5.2490   25.0590 C   0  0  0  0  0  0  0  0  0  0  0  0
  -21.6370   -4.5620   23.9340 C   0  0  0  0  0  3  0  0  0  0  0  0
  -21.8500   -5.2510   22.7290 C   0  0  0  0  0  0  0  0  0  0  0  0
  -22.3000   -4.5810   21.6410 F   0  0  0  0  0  0  0  0  0  0  0  0
  -20.9390   -4.5810   26.2180 F   0  0  0  0  0  0  0  0  0  0  0  0
  -23.0790  -13.8560   21.1800 C   0  0  0  0  0  0  0  0  0  0  0  0
  -22.4560  -13.1790   22.1400 N   0  0  0  0  0  0  0  0  0  0  0  0
  -22.6100  -14.9030   20.7340 O   0  0  0  0  0  0  0  0  0  0  0  0
  -22.8510  -12.3320   22.5200 H   0  0  0  0  0  0  0  0  0  0  0  0
  -21.5750  -13.5140   22.5000 H   0  0  0  0  0  0  0  0  0  0  0  0
  -25.6500  -15.4330   20.0540 N   0  0  0  0  0  0  0  0  0  0  0  0
  -24.9290  -16.1140   20.2660 H   0  0  0  0  0  0  0  0  0  0  0  0
  -26.4560  -15.8390   19.5960 H   0  0  0  0  0  0  0  0  0  0  0  0
  -29.8810  -23.2800   21.1480 C   0  0  0  0  0  2  0  0  0  0  0  0
  -29.2660  -24.3680   20.2350 C   0  0  0  0  0  2  0  0  0  0  0  0
  -29.0050  -25.6890   20.9970 C   0  0  0  0  0  2  0  0  0  0  0  0
  -28.9140  -26.8010   20.1040 O   0  0  0  0  0  0  0  0  0  0  0  0
  -24.6100  -31.5830   23.1790 C   0  0  0  0  0  0  0  0  0  0  0  0
  -27.7070  -27.4540   20.1060 C   0  0  0  0  0  0  0  0  0  0  0  0
  -23.6010  -30.2010   21.3920 C   0  0  0  0  0  3  0  0  0  0  0  0
  -25.2340  -28.8090   20.0150 C   0  0  0  0  0  0  0  0  0  0  0  0
  -26.1080  -30.7060   21.3920 C   0  0  0  0  0  2  0  0  0  0  0  0
  -26.3150  -29.3710   20.7070 C   0  0  0  0  0  0  0  0  0  0  0  0
  -27.5570  -28.7000   20.7540 C   0  0  0  0  0  3  0  0  0  0  0  0
  -26.6140  -26.8950   19.4160 C   0  0  0  0  0  3  0  0  0  0  0  0
  -25.3760  -27.5670   19.3680 C   0  0  0  0  0  3  0  0  0  0  0  0
  -23.9440  -29.5980   20.0030 C   0  0  0  0  0  2  0  0  0  0  0  0
  -24.7870  -30.8430   22.0490 N   0  0  0  0  0  0  0  0  0  0  0  0
  -23.4810  -31.7720   23.6530 O   0  0  0  0  0  0  0  0  0  0  0  0
  -22.9430  -29.1030   22.2570 C   0  0  0  0  0  0  0  0  0  0  0  0
  -21.6340  -28.8820   22.0490 N   0  0  0  0  0  0  0  0  0  0  0  0
  -23.6070  -28.4550   23.0680 O   0  0  0  0  0  0  0  0  0  0  0  0
  -21.1580  -29.4610   21.3700 H   0  0  0  0  0  0  0  0  0  0  0  0
  -18.2780  -27.5710   22.3200 C   0  0  0  0  0  0  0  0  0  0  0  0
  -20.8140  -27.8730   22.7180 C   0  0  0  0  0  3  0  0  0  0  0  0
  -20.9810  -26.4890   22.0480 C   0  0  0  0  0  2  0  0  0  0  0  0
  -19.9310  -26.2120   20.9680 C   0  0  0  0  0  2  0  0  0  0  0  0
  -18.5200  -26.2780   21.5600 C   0  0  0  0  0  2  0  0  0  0  0  0
  -19.3570  -28.3290   22.8490 C   0  0  0  0  0  0  0  0  0  0  0  0
  -19.0800  -29.5430   23.5130 C   0  0  0  0  0  3  0  0  0  0  0  0
  -17.7570  -30.0010   23.6560 C   0  0  0  0  0  3  0  0  0  0  0  0
  -16.6920  -29.2400   23.1450 C   0  0  0  0  0  3  0  0  0  0  0  0
  -16.9530  -28.0270   22.4820 C   0  0  0  0  0  3  0  0  0  0  0  0
  -25.8140  -32.2470   23.9190 C   0  0  0  0  0  3  0  0  0  0  0  0
  -25.4140  -33.6130   24.2800 N   0  0  0  0  0  0  0  0  0  0  0  0
  -25.7490  -34.7100   23.5870 C   0  0  0  0  0  0  0  0  0  0  0  0
  -26.4970  -34.6820   22.6070 O   0  0  0  0  0  0  0  0  0  0  0  0
  -24.7550  -33.7070   25.0400 H   0  0  0  0  0  0  0  0  0  0  0  0
  -23.9740  -36.4380   23.1580 C   0  0  0  0  0  1  0  0  0  0  0  0
  -25.1600  -36.0540   24.0590 C   0  0  0  0  0  3  0  0  0  0  0  0
  -27.1690  -36.9920   25.1110 C   0  0  0  0  0  1  0  0  0  0  0  0
  -26.1480  -37.1540   24.0800 N   0  0  0  0  0  0  0  0  0  0  0  0
  -25.6870  -38.0480   24.2280 H   0  0  0  0  0  0  0  0  0  0  0  0
  -26.2780  -31.4460   25.1970 C   0  0  1  0  0  0  0  0  0  0  0  0
  -25.1230  -31.0930   26.1610 C   0  0  0  0  0  1  0  0  0  0  0  0
  -26.9750  -30.1270   24.7870 C   0  0  0  0  0  1  0  0  0  0  0  0
  -27.3230  -32.2720   25.9830 C   0  0  0  0  0  1  0  0  0  0  0  0
  1  2  1  0
  1 50  1  0
  1  4  1  0
  3  1  1  0
  5  8  1  0
  6  5  2  0
  6 10  1  0
  8  4  1  0
  8  7  2  0
  9  7  1  0
  9 11  1  0
 10  9  2  0
 12 20  1  0
 13 18  1  0
 14 15  1  0
 14 13  1  0
 16 15  1  0
 16 25  1  0
 16 17  1  0
 18 12  1  0
 18 17  1  0
 19 12  2  0
 20 10  1  0
 20 21  1  0
 22 23  2  0
 23 42  1  0
 24 23  1  0
 24 27  1  0
 25 26  1  0
 25 22  1  0
 26 24  2  0
 27 28  1  0
 28 29  2  0
 30 33  1  0
 30 29  1  0
 31 30  2  0
 32 31  1  0
 32 27  2  0
 33 34  1  0
 34 39  2  0
 34 35  1  0
 35 36  2  0
 36 37  1  0
 37 41  1  0
 38 37  2  0
 39 38  1  0
 40 39  1  0
 42 43  1  0
 43 46  1  0
 43 45  1  0
 44 42  2  0
 47 22  1  0
 47 48  1  0
 49 47  1  0
 51 52  1  0
 51 50  1  0
 53 55  1  0
 53 52  1  0
 54 65  2  0
 55 60  1  0
 56 64  1  0
 56 66  1  0
 57 59  1  0
 58 64  1  0
 59 60  2  0
 59 58  1  0
 61 55  2  0
 62 61  1  0
 62 57  2  0
 63 57  1  0
 63 56  1  0
 64 54  1  0
 66 68  2  0
 67 66  1  0
 69 67  1  0
 70 79  2  0
 70 75  1  0
 71 67  1  0
 71 75  1  0
 72 71  1  0
 73 74  1  0
 73 72  1  0
 74 70  1  0
 75 76  2  0
 76 77  1  0
 78 77  2  0
 79 78  1  0
 80 54  1  0
 80 81  1  0
 80 90  1  0
 81 84  1  0
 82 86  1  0
 82 81  1  0
 83 82  2  0
 86 85  1  0
 86 88  1  0
 88 89  1  0
 88 87  1  0
 90 93  1  1
 90 91  1  0
 92 90  1  0
M  ISO  4  12 100  20 100  52 101  53 101
M  END
>  <TORSDO>  (43) 
F 21

>  <SCORE>  (43) 
-9.626

>  <name>  (43) 
42

>  <ligand_id>  (43) 
42

>  <original_smiles>  (43) 
[H]c1c([H])c([H])c2c(c1[H])C([H])([H])C([H])([H])C([H])([H])C2([H])N([H])C(=O)C1([H])N(C(=O)C([H])(N([H])C(=O)C([H])(N([H])C([H])([H])[H])C([H])([H])[H])C(C([H])([H])[H])(C([H])([H])[H])C([H])([H])[H])C([H])([H])c2c([H])c(OC([H])([H])C([H])([H])C([H])([H])[N+]([H])([H])C([H])([H])c3c([H])c([H])c(N([H])C(=O)N4C([H])([H])C([H])([H])C([H])([H])C([H])(n5nc(-c6c([H])c([H])c(Oc7c([H])c([H])c(F)c([H])c7F)c([H])c6[H])c(C(=O)N([H])[H])c5N([H])[H])C4([H])[H])c(C([H])([H])[H])c3[H])c([H])c([H])c2C1([H])[H]

>  <smiles>  (43) 
[H]c1c([H])c([H])c2c(c1[H])C([H])([H])C([H])([H])C([H])([H])C2([H])N([H])C(=O)C1([H])N(C(=O)C([H])(N([H])C(=O)C([H])(N([H])C([H])([H])[H])C([H])([H])[H])C(C([H])([H])[H])(C([H])([H])[H])C([H])([H])[H])C([H])([H])c2c([H])c(OC([H])([H])C([H])([H])C([H])([H])[N+]([H])([H])C([H])([H])c3c([H])c([H])c(N([H])C(=O)N4C([H])([H])C([H])([H])C([H])([H])C([H])(n5nc(-c6c([H])c([H])c(Oc7c([H])c([H])c(F)c([H])c7F)c([H])c6[H])c(C(=O)N([H])[H])c5N([H])[H])C4([H])[H])c(C([H])([H])[H])c3[H])c([H])c([H])c2C1([H])[H]

$$$$
43:0:0
     RDKit          3D

 93101  0  0  1  0  0  0  0  0999 V2000
  -28.7790  -22.6820   19.0930 C   0  0  0  0  0  0  0  0  0  0  0  0
  -28.1580  -20.8630   17.6490 C   0  0  0  0  0  1  0  0  0  0  0  0
  -28.7560  -21.2810   18.9320 N   0  0  0  0  0  0  0  0  0  0  0  0
  -28.6550  -23.3900   18.0850 O   0  0  0  0  0  0  0  0  0  0  0  0
  -30.6750  -17.9940   19.3690 C   0  0  0  0  0  3  0  0  0  0  0  0
  -28.4270  -19.2780   20.4150 C   0  0  0  0  0  3  0  0  0  0  0  0
  -30.4560  -19.4020   19.1500 C   0  0  0  0  0  0  0  0  0  0  0  0
  -28.6430  -17.8780   20.6390 C   0  0  0  0  0  0  0  0  0  0  0  0
  -29.7530  -17.1680   20.0750 C   0  0  0  0  0  0  0  0  0  0  0  0
  -29.2930  -20.0890   19.6330 C   0  0  0  0  0  0  0  0  0  0  0  0
  -31.4550  -20.1450   18.2800 C   0  0  0  0  0  1  0  0  0  0  0  0
  -27.6060  -17.1420   21.4750 C   0  0  0  0  0  1  0  0  0  0  0  0
  -30.5320  -14.6700   19.6000 C   0  0  0  0  0  0  0  0  0  0  0  0
  -30.1910  -12.4710   18.4560 C   0  0  0  0  0  2  0  0  0  0  0  0
  -29.1110  -12.6470   17.3640 C   0  0  0  0  0  2  0  0  0  0  0  0
  -27.6960  -12.4790   17.9500 C   0  0  0  0  0  2  0  0  0  0  0  0
  -27.4940  -13.2850   19.2610 C   0  0  0  0  0  3  0  0  0  0  0  0
  -28.6710  -13.0640   20.2380 C   0  0  0  0  0  2  0  0  0  0  0  0
  -29.9090  -13.4420   19.5380 N   0  0  0  0  0  0  0  0  0  0  0  0
  -31.6260  -14.8440   19.0550 O   0  0  0  0  0  0  0  0  0  0  0  0
  -29.8220  -15.6890   20.2060 N   0  0  0  0  0  0  0  0  0  0  0  0
  -29.0510  -15.3120   20.7330 H   0  0  0  0  0  0  0  0  0  0  0  0
  -25.2010  -13.8760   20.2550 C   0  0  0  0  0  0  0  0  0  0  0  0
  -24.1740  -13.1000   20.7200 C   0  0  0  0  0  0  0  0  0  0  0  0
  -24.6170  -11.7460   20.6020 C   0  0  0  0  0  0  0  0  0  0  0  0
  -26.2040  -12.9960   19.8830 N   0  0  0  0  0  0  0  0  0  0  0  0
  -25.8660  -11.7090   20.1520 N   0  0  0  0  0  0  0  0  0  0  0  0
  -23.9050  -10.4840   20.8390 C   0  0  0  0  0  0  0  0  0  0  0  0
  -24.3880   -9.5230   21.7540 C   0  0  0  0  0  3  0  0  0  0  0  0
  -23.6750   -8.3250   21.9770 C   0  0  0  0  0  3  0  0  0  0  0  0
  -22.4640   -8.0810   21.2870 C   0  0  0  0  0  0  0  0  0  0  0  0
  -22.0000   -9.0300   20.3580 C   0  0  0  0  0  3  0  0  0  0  0  0
  -22.7140  -10.2190   20.1330 C   0  0  0  0  0  3  0  0  0  0  0  0
  -21.7190   -6.9340   21.4190 O   0  0  0  0  0  0  0  0  0  0  0  0
  -21.6830   -6.2310   22.5960 C   0  0  0  0  0  0  0  0  0  0  0  0
  -21.2660   -6.8250   23.8070 C   0  0  0  0  0  3  0  0  0  0  0  0
  -21.1790   -6.0480   24.9790 C   0  0  0  0  0  3  0  0  0  0  0  0
  -21.4980   -4.6770   24.9420 C   0  0  0  0  0  0  0  0  0  0  0  0
  -21.9070   -4.0830   23.7350 C   0  0  0  0  0  3  0  0  0  0  0  0
  -21.9960   -4.8560   22.5650 C   0  0  0  0  0  0  0  0  0  0  0  0
  -22.3690   -4.2730   21.4000 F   0  0  0  0  0  0  0  0  0  0  0  0
  -21.4070   -3.9280   26.0650 F   0  0  0  0  0  0  0  0  0  0  0  0
  -22.8200  -13.5770   21.1560 C   0  0  0  0  0  0  0  0  0  0  0  0
  -22.2010  -12.8800   22.1010 N   0  0  0  0  0  0  0  0  0  0  0  0
  -22.3240  -14.6030   20.6910 O   0  0  0  0  0  0  0  0  0  0  0  0
  -22.6200  -12.0510   22.4940 H   0  0  0  0  0  0  0  0  0  0  0  0
  -21.2950  -13.1790   22.4340 H   0  0  0  0  0  0  0  0  0  0  0  0
  -25.3570  -15.2490   20.0970 N   0  0  0  0  0  0  0  0  0  0  0  0
  -24.6220  -15.9050   20.3380 H   0  0  0  0  0  0  0  0  0  0  0  0
  -26.1530  -15.6910   19.6600 H   0  0  0  0  0  0  0  0  0  0  0  0
  -28.9340  -23.5580   20.3940 C   0  0  0  0  0  2  0  0  0  0  0  0
  -27.9550  -24.8510   20.5570 C   0  0  0  0  0  2  0  0  0  0  0  0
  -28.2380  -26.2830   20.1750 O   0  0  0  0  0  0  0  0  0  0  0  0
  -24.3890  -31.7360   23.0700 C   0  0  0  0  0  0  0  0  0  0  0  0
  -27.1320  -27.1650   20.1100 C   0  0  0  0  0  0  0  0  0  0  0  0
  -23.2400  -30.2980   21.4260 C   0  0  0  0  0  3  0  0  0  0  0  0
  -24.7450  -28.7620   20.0370 C   0  0  0  0  0  0  0  0  0  0  0  0
  -25.7790  -30.6550   21.2850 C   0  0  0  0  0  2  0  0  0  0  0  0
  -25.8970  -29.2690   20.6520 C   0  0  0  0  0  0  0  0  0  0  0  0
  -27.0950  -28.4820   20.6790 C   0  0  0  0  0  3  0  0  0  0  0  0
  -25.9610  -26.7330   19.4490 C   0  0  0  0  0  3  0  0  0  0  0  0
  -24.7820  -27.5010   19.4240 C   0  0  0  0  0  3  0  0  0  0  0  0
  -23.4920  -29.6170   20.0560 C   0  0  0  0  0  2  0  0  0  0  0  0
  -24.4860  -30.9160   21.9820 N   0  0  0  0  0  0  0  0  0  0  0  0
  -23.2920  -31.9980   23.5840 O   0  0  0  0  0  0  0  0  0  0  0  0
  -22.5820  -29.2780   22.3870 C   0  0  0  0  0  0  0  0  0  0  0  0
  -21.2540  -29.1040   22.2720 N   0  0  0  0  0  0  0  0  0  0  0  0
  -23.2660  -28.6460   23.1960 O   0  0  0  0  0  0  0  0  0  0  0  0
  -20.7600  -29.6640   21.5910 H   0  0  0  0  0  0  0  0  0  0  0  0
  -17.8700  -27.9570   22.8440 C   0  0  0  0  0  0  0  0  0  0  0  0
  -20.4400  -28.1670   23.0480 C   0  0  0  0  0  3  0  0  0  0  0  0
  -20.5000  -26.7460   22.4410 C   0  0  0  0  0  2  0  0  0  0  0  0
  -19.3660  -26.4650   21.4500 C   0  0  0  0  0  2  0  0  0  0  0  0
  -18.0050  -26.6190   22.1350 C   0  0  0  0  0  2  0  0  0  0  0  0
  -19.0140  -28.6900   23.2590 C   0  0  0  0  0  0  0  0  0  0  0  0
  -18.8330  -29.9430   23.8850 C   0  0  0  0  0  3  0  0  0  0  0  0
  -17.5420  -30.4610   24.1000 C   0  0  0  0  0  3  0  0  0  0  0  0
  -16.4140  -29.7250   23.6990 C   0  0  0  0  0  3  0  0  0  0  0  0
  -16.5800  -28.4740   23.0760 C   0  0  0  0  0  3  0  0  0  0  0  0
  -25.6480  -32.4020   23.7040 C   0  0  0  0  0  3  0  0  0  0  0  0
  -26.1810  -31.6310   24.9750 C   0  0  1  0  0  0  0  0  0  0  0  0
  -25.0910  -31.3530   26.0350 C   0  0  0  0  0  1  0  0  0  0  0  0
  -26.8040  -30.2730   24.5740 C   0  0  0  0  0  1  0  0  0  0  0  0
  -27.3070  -32.4500   25.6490 C   0  0  0  0  0  1  0  0  0  0  0  0
  -25.2950  -33.7860   24.0510 N   0  0  0  0  0  0  0  0  0  0  0  0
  -25.5920  -34.8580   23.3050 C   0  0  0  0  0  0  0  0  0  0  0  0
  -26.2630  -34.7880   22.2720 O   0  0  0  0  0  0  0  0  0  0  0  0
  -24.6940  -33.9110   24.8530 H   0  0  0  0  0  0  0  0  0  0  0  0
  -23.8110  -36.6030   22.9690 C   0  0  0  0  0  1  0  0  0  0  0  0
  -25.0620  -36.2250   23.7790 C   0  0  0  0  0  3  0  0  0  0  0  0
  -27.1650  -37.1650   24.6290 C   0  0  0  0  0  1  0  0  0  0  0  0
  -26.0610  -37.3100   23.6830 N   0  0  0  0  0  0  0  0  0  0  0  0
  -25.6270  -38.2170   23.8400 H   0  0  0  0  0  0  0  0  0  0  0  0
  1 51  1  0
  2  3  1  0
  3  1  1  0
  3 10  1  0
  4  1  2  0
  5  9  1  0
  6  8  1  0
  7  5  2  0
  7 10  1  0
  8 12  1  0
  9 21  1  0
  9  8  2  0
 10  6  2  0
 11  7  1  0
 13 21  1  0
 14 19  1  0
 15 16  1  0
 15 14  1  0
 17 16  1  0
 17 26  1  0
 17 18  1  0
 19 13  1  0
 19 18  1  0
 20 13  2  0
 21 22  1  0
 23 24  2  0
 24 43  1  0
 25 24  1  0
 25 28  1  0
 26 27  1  0
 26 23  1  0
 27 25  2  0
 28 29  1  0
 29 30  2  0
 31 34  1  0
 31 30  1  0
 32 31  2  0
 33 32  1  0
 33 28  2  0
 34 35  1  0
 35 36  1  0
 36 37  2  0
 38 37  1  0
 38 42  1  0
 39 38  2  0
 40 35  2  0
 40 39  1  0
 41 40  1  0
 43 44  1  0
 44 47  1  0
 44 46  1  0
 45 43  2  0
 48 23  1  0
 48 49  1  0
 50 48  1  0
 51 52  1  0
 53 52  1  0
 54 65  2  0
 55 53  1  0
 55 60  1  0
 56 64  1  0
 56 66  1  0
 57 63  1  0
 57 59  1  0
 58 64  1  0
 59 60  2  0
 59 58  1  0
 61 55  2  0
 62 61  1  0
 62 57  2  0
 63 56  1  0
 64 54  1  0
 66 68  2  0
 67 66  1  0
 69 67  1  0
 70 79  2  0
 70 75  1  0
 71 67  1  0
 71 75  1  0
 72 71  1  0
 73 74  1  0
 73 72  1  0
 74 70  1  0
 75 76  2  0
 76 77  1  0
 78 77  2  0
 79 78  1  0
 80 54  1  0
 80 85  1  0
 80 81  1  0
 81 84  1  1
 81 82  1  0
 83 81  1  0
 85 88  1  0
 86 90  1  0
 86 85  1  0
 87 86  2  0
 90 89  1  0
 92 90  1  0
 92 93  1  0
 92 91  1  0
M  ISO  4  13 100  21 100  52 101  53 101
M  END
>  <TORSDO>  (44) 
F 19

>  <SCORE>  (44) 
-11.396

>  <name>  (44) 
43

>  <ligand_id>  (44) 
43

>  <original_smiles>  (44) 
[H]c1c([H])c([H])c2c(c1[H])C([H])([H])C([H])([H])C([H])([H])C2([H])N([H])C(=O)C1([H])N(C(=O)C([H])(N([H])C(=O)C([H])(N([H])C([H])([H])[H])C([H])([H])[H])C(C([H])([H])[H])(C([H])([H])[H])C([H])([H])[H])C([H])([H])c2c([H])c(OC([H])([H])C([H])([H])C(=O)N(c3c([H])c(C([H])([H])[H])c(N([H])C(=O)N4C([H])([H])C([H])([H])C([H])([H])C([H])(n5nc(-c6c([H])c([H])c(Oc7c([H])c([H])c(F)c([H])c7F)c([H])c6[H])c(C(=O)N([H])[H])c5N([H])[H])C4([H])[H])c([H])c3C([H])([H])[H])C([H])([H])[H])c([H])c([H])c2C1([H])[H]

>  <smiles>  (44) 
[H]c1c([H])c([H])c2c(c1[H])C([H])([H])C([H])([H])C([H])([H])C2([H])N([H])C(=O)C1([H])N(C(=O)C([H])(N([H])C(=O)C([H])(N([H])C([H])([H])[H])C([H])([H])[H])C(C([H])([H])[H])(C([H])([H])[H])C([H])([H])[H])C([H])([H])c2c([H])c(OC([H])([H])C([H])([H])C(=O)N(c3c([H])c(C([H])([H])[H])c(N([H])C(=O)N4C([H])([H])C([H])([H])C([H])([H])C([H])(n5nc(-c6c([H])c([H])c(Oc7c([H])c([H])c(F)c([H])c7F)c([H])c6[H])c(C(=O)N([H])[H])c5N([H])[H])C4([H])[H])c([H])c3C([H])([H])[H])C([H])([H])[H])c([H])c([H])c2C1([H])[H]

$$$$
44:0:0
     RDKit          3D

 94102  0  0  1  0  0  0  0  0999 V2000
  -31.3650  -19.9700   19.2410 C   0  0  0  0  0  3  0  0  0  0  0  0
  -31.5450  -18.6180   19.7040 C   0  0  0  0  0  3  0  0  0  0  0  0
  -29.2040  -18.5070   20.1850 C   0  0  0  0  0  3  0  0  0  0  0  0
  -29.0120  -19.8510   19.7440 C   0  0  0  0  0  0  0  0  0  0  0  0
  -30.0970  -20.6410   19.2400 C   0  0  0  0  0  0  0  0  0  0  0  0
  -30.4540  -17.8420   20.1930 C   0  0  0  0  0  0  0  0  0  0  0  0
  -31.3100  -15.3780   20.6350 C   0  0  0  0  0  0  0  0  0  0  0  0
  -31.2490  -12.9220   20.1950 C   0  0  0  0  0  2  0  0  0  0  0  0
  -30.4900  -12.6930   18.8680 C   0  0  0  0  0  2  0  0  0  0  0  0
  -28.9650  -12.6330   19.0940 C   0  0  0  0  0  2  0  0  0  0  0  0
  -28.4480  -13.7750   20.0100 C   0  0  0  0  0  3  0  0  0  0  0  0
  -29.3310  -13.9220   21.2690 C   0  0  0  0  0  2  0  0  0  0  0  0
  -30.7140  -14.1520   20.8140 N   0  0  0  0  0  0  0  0  0  0  0  0
  -32.5050  -15.4730   20.3440 O   0  0  0  0  0  0  0  0  0  0  0  0
  -30.4530  -16.4530   20.6750 N   0  0  0  0  0  0  0  0  0  0  0  0
  -29.5640  -16.1700   21.0580 H   0  0  0  0  0  0  0  0  0  0  0  0
  -26.0450  -14.5660   20.4640 C   0  0  0  0  0  0  0  0  0  0  0  0
  -24.8860  -13.8810   20.7100 C   0  0  0  0  0  0  0  0  0  0  0  0
  -25.2400  -12.4980   20.7190 C   0  0  0  0  0  0  0  0  0  0  0  0
  -27.0360  -13.6040   20.3430 N   0  0  0  0  0  0  0  0  0  0  0  0
  -26.5490  -12.3550   20.5570 N   0  0  0  0  0  0  0  0  0  0  0  0
  -24.3980  -11.2980   20.8230 C   0  0  0  0  0  0  0  0  0  0  0  0
  -24.7260  -10.2360   21.6940 C   0  0  0  0  0  3  0  0  0  0  0  0
  -23.8890   -9.1030   21.7890 C   0  0  0  0  0  3  0  0  0  0  0  0
  -22.7110   -9.0230   21.0100 C   0  0  0  0  0  0  0  0  0  0  0  0
  -22.4010  -10.0710   20.1270 C   0  0  0  0  0  3  0  0  0  0  0  0
  -23.2360  -11.1970   20.0310 C   0  0  0  0  0  3  0  0  0  0  0  0
  -21.8540   -7.9500   21.0150 O   0  0  0  0  0  0  0  0  0  0  0  0
  -21.8450   -7.0430   22.0420 C   0  0  0  0  0  0  0  0  0  0  0  0
  -21.6210   -7.4360   23.3790 C   0  0  0  0  0  3  0  0  0  0  0  0
  -21.5490   -6.4620   24.3950 C   0  0  0  0  0  3  0  0  0  0  0  0
  -21.6920   -5.0980   24.0760 C   0  0  0  0  0  0  0  0  0  0  0  0
  -21.9080   -4.7060   22.7420 C   0  0  0  0  0  3  0  0  0  0  0  0
  -21.9800   -5.6760   21.7290 C   0  0  0  0  0  0  0  0  0  0  0  0
  -22.1680   -5.2910   20.4440 F   0  0  0  0  0  0  0  0  0  0  0  0
  -21.6150   -4.1620   25.0500 F   0  0  0  0  0  0  0  0  0  0  0  0
  -23.5110  -14.4710   20.8300 C   0  0  0  0  0  0  0  0  0  0  0  0
  -22.6560  -13.8630   21.6460 N   0  0  0  0  0  0  0  0  0  0  0  0
  -23.2020  -15.5040   20.2370 O   0  0  0  0  0  0  0  0  0  0  0  0
  -22.9190  -13.0260   22.1450 H   0  0  0  0  0  0  0  0  0  0  0  0
  -21.7290  -14.2430   21.7750 H   0  0  0  0  0  0  0  0  0  0  0  0
  -26.3350  -15.9180   20.3140 N   0  0  0  0  0  0  0  0  0  0  0  0
  -25.6130  -16.6280   20.3490 H   0  0  0  0  0  0  0  0  0  0  0  0
  -27.2410  -16.2900   20.0600 H   0  0  0  0  0  0  0  0  0  0  0  0
  -27.6490  -20.3700   19.9430 C   0  0  0  0  0  3  0  0  0  0  0  0
  -27.0720  -21.3650   19.2500 C   0  0  0  0  0  3  0  0  0  0  0  0
  -25.6620  -21.8610   19.4970 C   0  0  0  0  0  1  0  0  0  0  0  0
  -29.9250  -22.2000   18.9140 C   0  0  0  0  0  2  0  0  0  0  0  0
  -29.7180  -22.7070   17.4980 N   0  0  0  0  0  4  0  0  0  0  0  0
  -29.3590  -21.9220   16.9780 H   0  0  0  0  0  0  0  0  0  0  0  0
  -30.6300  -22.8900   17.1090 H   0  0  0  0  0  0  0  0  0  0  0  0
  -28.7890  -23.8910   17.1650 C   0  0  0  0  0  3  0  0  0  0  0  0
  -28.9210  -25.2990   17.9160 C   0  0  0  0  0  3  0  0  0  0  0  0
  -28.3610  -26.5660   17.3680 O   0  0  0  0  0  0  0  0  0  0  0  0
  -24.5870  -30.3000   22.3030 C   0  0  0  0  0  0  0  0  0  0  0  0
  -27.1500  -27.1300   17.7940 C   0  0  0  0  0  0  0  0  0  0  0  0
  -23.2930  -29.2710   20.4680 C   0  0  0  0  0  3  0  0  0  0  0  0
  -24.6650  -28.3570   18.5080 C   0  0  0  0  0  0  0  0  0  0  0  0
  -25.7410  -29.9470   20.1070 C   0  0  0  0  0  2  0  0  0  0  0  0
  -25.8520  -28.8180   19.0880 C   0  0  0  0  0  0  0  0  0  0  0  0
  -27.0950  -28.2190   18.7190 C   0  0  0  0  0  3  0  0  0  0  0  0
  -25.9350  -26.7100   17.2200 C   0  0  0  0  0  3  0  0  0  0  0  0
  -24.7060  -27.3130   17.5690 C   0  0  0  0  0  3  0  0  0  0  0  0
  -23.3750  -29.0280   18.9370 C   0  0  0  0  0  2  0  0  0  0  0  0
  -24.5660  -29.8430   21.0180 N   0  0  0  0  0  0  0  0  0  0  0  0
  -23.5720  -30.2770   23.0130 O   0  0  0  0  0  0  0  0  0  0  0  0
  -22.8720  -27.9520   21.1610 C   0  0  0  0  0  0  0  0  0  0  0  0
  -21.5710  -27.6230   21.0970 N   0  0  0  0  0  0  0  0  0  0  0  0
  -23.7100  -27.2370   21.7160 O   0  0  0  0  0  0  0  0  0  0  0  0
  -20.9410  -28.2670   20.6360 H   0  0  0  0  0  0  0  0  0  0  0  0
  -18.4450  -25.8380   21.4430 C   0  0  0  0  0  0  0  0  0  0  0  0
  -20.9600  -26.4050   21.6370 C   0  0  0  0  0  3  0  0  0  0  0  0
  -21.2010  -25.1990   20.7000 C   0  0  0  0  0  2  0  0  0  0  0  0
  -20.0650  -24.9780   19.6970 C   0  0  0  0  0  2  0  0  0  0  0  0
  -18.7390  -24.7440   20.4290 C   0  0  0  0  0  2  0  0  0  0  0  0
  -19.4870  -26.6260   22.0000 C   0  0  0  0  0  0  0  0  0  0  0  0
  -19.1590  -27.6510   22.9120 C   0  0  0  0  0  3  0  0  0  0  0  0
  -17.8210  -27.8920   23.2740 C   0  0  0  0  0  3  0  0  0  0  0  0
  -16.7960  -27.0920   22.7420 C   0  0  0  0  0  3  0  0  0  0  0  0
  -17.1070  -26.0690   21.8290 C   0  0  0  0  0  3  0  0  0  0  0  0
  -25.8840  -30.8980   22.9330 C   0  0  0  0  0  3  0  0  0  0  0  0
  -25.5070  -32.1160   23.6620 N   0  0  0  0  0  0  0  0  0  0  0  0
  -25.7610  -33.3630   23.2460 C   0  0  0  0  0  0  0  0  0  0  0  0
  -26.4070  -33.6080   22.2220 O   0  0  0  0  0  0  0  0  0  0  0  0
  -24.9430  -31.9920   24.4900 H   0  0  0  0  0  0  0  0  0  0  0  0
  -23.9620  -35.1050   23.4230 C   0  0  0  0  0  1  0  0  0  0  0  0
  -25.2130  -34.5220   24.0970 C   0  0  0  0  0  3  0  0  0  0  0  0
  -27.3030  -35.1950   25.2000 C   0  0  0  0  0  1  0  0  0  0  0  0
  -26.2000  -35.5980   24.3330 N   0  0  0  0  0  0  0  0  0  0  0  0
  -25.7530  -36.4120   24.7480 H   0  0  0  0  0  0  0  0  0  0  0  0
  -26.6300  -29.8870   23.8900 C   0  0  1  0  0  0  0  0  0  0  0  0
  -25.7160  -29.2680   24.9720 C   0  0  0  0  0  1  0  0  0  0  0  0
  -27.2530  -28.7280   23.0750 C   0  0  0  0  0  1  0  0  0  0  0  0
  -27.7950  -30.6040   24.6090 C   0  0  0  0  0  1  0  0  0  0  0  0
  1  2  1  0
  2  6  2  0
  3  6  1  0
  4 45  1  0
  4  3  2  0
  5  1  2  0
  5  4  1  0
  6 15  1  0
  7 15  1  0
  7 13  1  0
  8 13  1  0
  9 10  1  0
  9  8  1  0
 11 10  1  0
 11 20  1  0
 11 12  1  0
 13 12  1  0
 14  7  2  0
 15 16  1  0
 17 18  2  0
 18 19  1  0
 18 37  1  0
 19 22  1  0
 20 17  1  0
 20 21  1  0
 21 19  2  0
 22 23  1  0
 23 24  2  0
 25 28  1  0
 25 24  1  0
 26 25  2  0
 27 26  1  0
 27 22  2  0
 28 29  1  0
 29 30  1  0
 30 31  2  0
 32 31  1  0
 32 36  1  0
 33 32  2  0
 34 29  2  0
 34 33  1  0
 35 34  1  0
 37 38  1  0
 38 41  1  0
 38 40  1  0
 39 37  2  0
 42 43  1  0
 42 17  1  0
 44 42  1  0
 46 47  1  0
 46 45  2  0
 48  5  1  0
 49 48  1  0
 50 49  1  0
 51 49  1  0
 52 49  1  0
 52 53  2  0
 54 56  1  0
 54 53  1  0
 55 66  2  0
 56 61  1  0
 57 65  1  0
 57 67  1  0
 58 64  1  0
 58 60  1  0
 59 65  1  0
 60 59  1  0
 61 60  2  0
 62 63  1  0
 62 56  2  0
 63 58  2  0
 64 57  1  0
 65 55  1  0
 67 69  2  0
 68 67  1  0
 70 68  1  0
 71 80  2  0
 71 76  1  0
 72 68  1  0
 72 76  1  0
 73 72  1  0
 74 75  1  0
 74 73  1  0
 75 71  1  0
 76 77  2  0
 77 78  1  0
 79 78  2  0
 80 79  1  0
 81 55  1  0
 81 82  1  0
 81 91  1  0
 82 85  1  0
 83 82  1  0
 83 87  1  0
 84 83  2  0
 87 86  1  0
 87 89  1  0
 89 90  1  0
 89 88  1  0
 91 94  1  1
 91 92  1  0
 93 91  1  0
M  ISO  4   7 100  15 100  53 101  54 101
M  END
>  <TORSDO>  (45) 
F 21

>  <SCORE>  (45) 
-7.985

>  <name>  (45) 
44

>  <ligand_id>  (45) 
44

>  <original_smiles>  (45) 
[H]C(=C([H])C([H])([H])[H])c1c([H])c(N([H])C(=O)N2C([H])([H])C([H])([H])C([H])([H])C([H])(n3nc(-c4c([H])c([H])c(Oc5c([H])c([H])c(F)c([H])c5F)c([H])c4[H])c(C(=O)N([H])[H])c3N([H])[H])C2([H])[H])c([H])c([H])c1C([H])([H])[N+]([H])([H])C([H])([H])C([H])([H])Oc1c([H])c([H])c2c(c1[H])C([H])([H])N(C(=O)C([H])(N([H])C(=O)C([H])(N([H])C([H])([H])[H])C([H])([H])[H])C(C([H])([H])[H])(C([H])([H])[H])C([H])([H])[H])C([H])(C(=O)N([H])C1([H])c3c([H])c([H])c([H])c([H])c3C([H])([H])C([H])([H])C1([H])[H])C2([H])[H]

>  <smiles>  (45) 
[H]C(=C([H])C([H])([H])[H])c1c([H])c(N([H])C(=O)N2C([H])([H])C([H])([H])C([H])([H])C([H])(n3nc(-c4c([H])c([H])c(Oc5c([H])c([H])c(F)c([H])c5F)c([H])c4[H])c(C(=O)N([H])[H])c3N([H])[H])C2([H])[H])c([H])c([H])c1C([H])([H])[N+]([H])([H])C([H])([H])C([H])([H])Oc1c([H])c([H])c2c(c1[H])C([H])([H])N(C(=O)C([H])(N([H])C(=O)C([H])(N([H])C([H])([H])[H])C([H])([H])[H])C(C([H])([H])[H])(C([H])([H])[H])C([H])([H])[H])C([H])(C(=O)N([H])C1([H])c3c([H])c([H])c([H])c([H])c3C([H])([H])C([H])([H])C1([H])[H])C2([H])[H]

$$$$
45:0:0
     RDKit          3D

102111  0  0  1  0  0  0  0  0999 V2000
  -29.6120  -24.6010   20.9510 C   0  0  0  0  0  3  0  0  0  0  0  0
  -28.4240  -25.2410   20.8560 C   0  0  0  0  0  0  0  0  0  0  0  0
  -29.8410  -23.4730   21.8650 C   0  0  0  0  0  0  0  0  0  0  0  0
  -30.3940  -23.7240   23.0790 C   0  0  0  0  0  3  0  0  0  0  0  0
  -27.1640  -24.6160   21.4920 C   0  0  0  0  0  2  0  0  0  0  0  0
  -26.9620  -23.1110   21.1200 C   0  0  0  0  0  2  0  0  0  0  0  0
  -27.8070  -22.0640   21.8970 C   0  0  0  0  0  2  0  0  0  0  0  0
  -29.2620  -22.0990   21.5950 N   0  0  1  0  0  4  0  0  0  0  0  0
  -29.6650  -21.5060   22.3090 H   0  0  0  0  0  0  0  0  0  0  0  0
  -30.3790  -22.7560   24.1620 C   0  0  0  0  0  0  0  0  0  0  0  0
  -31.5680  -22.2140   24.3920 N   0  0  0  0  0  0  0  0  0  0  0  0
  -29.3770  -22.3990   24.7810 O   0  0  0  0  0  0  0  0  0  0  0  0
  -32.3860  -22.5150   23.8780 H   0  0  0  0  0  0  0  0  0  0  0  0
  -31.6670  -21.4860   25.0900 H   0  0  0  0  0  0  0  0  0  0  0  0
  -28.3600  -26.4820   20.1960 O   0  0  0  0  0  0  0  0  0  0  0  0
  -24.5770  -31.7930   23.1950 C   0  0  0  0  0  0  0  0  0  0  0  0
  -27.2270  -27.2870   20.1660 C   0  0  0  0  0  0  0  0  0  0  0  0
  -23.3950  -30.4040   21.5250 C   0  0  0  0  0  3  0  0  0  0  0  0
  -24.8640  -28.8720   20.1010 C   0  0  0  0  0  0  0  0  0  0  0  0
  -25.9320  -30.7450   21.3720 C   0  0  0  0  0  2  0  0  0  0  0  0
  -26.0180  -29.3700   20.7220 C   0  0  0  0  0  0  0  0  0  0  0  0
  -27.2060  -28.5880   20.7440 C   0  0  0  0  0  3  0  0  0  0  0  0
  -26.0730  -26.8470   19.4880 C   0  0  0  0  0  3  0  0  0  0  0  0
  -24.8920  -27.6170   19.4700 C   0  0  0  0  0  3  0  0  0  0  0  0
  -23.6210  -29.7400   20.1390 C   0  0  0  0  0  2  0  0  0  0  0  0
  -24.6540  -30.9970   22.0900 N   0  0  0  0  0  0  0  0  0  0  0  0
  -23.4880  -32.0590   23.7180 O   0  0  0  0  0  0  0  0  0  0  0  0
  -22.7160  -29.3800   22.4640 C   0  0  0  0  0  0  0  0  0  0  0  0
  -21.3870  -29.2280   22.3400 N   0  0  0  0  0  0  0  0  0  0  0  0
  -23.3860  -28.7260   23.2690 O   0  0  0  0  0  0  0  0  0  0  0  0
  -20.9080  -29.8110   21.6670 H   0  0  0  0  0  0  0  0  0  0  0  0
  -17.9810  -28.1240   22.8590 C   0  0  0  0  0  0  0  0  0  0  0  0
  -20.5540  -28.2910   23.0900 C   0  0  0  0  0  3  0  0  0  0  0  0
  -20.5990  -26.8770   22.4670 C   0  0  0  0  0  2  0  0  0  0  0  0
  -19.4670  -26.6240   21.4670 C   0  0  0  0  0  2  0  0  0  0  0  0
  -18.1020  -26.7940   22.1370 C   0  0  0  0  0  2  0  0  0  0  0  0
  -19.1330  -28.8350   23.2930 C   0  0  0  0  0  0  0  0  0  0  0  0
  -18.9630  -30.0860   23.9290 C   0  0  0  0  0  3  0  0  0  0  0  0
  -17.6780  -30.6220   24.1340 C   0  0  0  0  0  3  0  0  0  0  0  0
  -16.5430  -29.9050   23.7140 C   0  0  0  0  0  3  0  0  0  0  0  0
  -16.6960  -28.6560   23.0850 C   0  0  0  0  0  3  0  0  0  0  0  0
  -25.8480  -32.4210   23.8470 C   0  0  0  0  0  3  0  0  0  0  0  0
  -26.3430  -31.6420   25.1250 C   0  0  1  0  0  0  0  0  0  0  0  0
  -25.2320  -31.3950   26.1700 C   0  0  0  0  0  1  0  0  0  0  0  0
  -26.9250  -30.2650   24.7280 C   0  0  0  0  0  1  0  0  0  0  0  0
  -27.4850  -32.4300   25.8080 C   0  0  0  0  0  1  0  0  0  0  0  0
  -25.5330  -33.8180   24.1790 N   0  0  0  0  0  0  0  0  0  0  0  0
  -25.8630  -34.8720   23.4200 C   0  0  0  0  0  0  0  0  0  0  0  0
  -26.5340  -34.7740   22.3900 O   0  0  0  0  0  0  0  0  0  0  0  0
  -24.9420  -33.9740   24.9820 H   0  0  0  0  0  0  0  0  0  0  0  0
  -24.1230  -36.6590   23.0780 C   0  0  0  0  0  1  0  0  0  0  0  0
  -25.3750  -36.2630   23.8800 C   0  0  0  0  0  3  0  0  0  0  0  0
  -27.5120  -37.1540   24.6920 C   0  0  0  0  0  1  0  0  0  0  0  0
  -26.4020  -37.3210   23.7570 N   0  0  0  0  0  0  0  0  0  0  0  0
  -25.9940  -38.2380   23.9200 H   0  0  0  0  0  0  0  0  0  0  0  0
  -29.7020  -21.3690   20.3590 C   0  0  0  0  0  2  0  0  0  0  0  0
  -30.9930  -17.6800   20.9250 C   0  0  0  0  0  3  0  0  0  0  0  0
  -28.7520  -17.5970   20.0150 C   0  0  0  0  0  3  0  0  0  0  0  0
  -30.9300  -19.1070   20.9310 C   0  0  0  0  0  0  0  0  0  0  0  0
  -29.7700  -19.8040   20.4540 C   0  0  0  0  0  0  0  0  0  0  0  0
  -29.8850  -16.9010   20.4990 C   0  0  0  0  0  0  0  0  0  0  0  0
  -28.7000  -19.0120   19.9640 C   0  0  0  0  0  0  0  0  0  0  0  0
  -32.1450  -19.8770   21.4240 C   0  0  0  0  0  1  0  0  0  0  0  0
  -27.2910  -19.7410   19.2780 Cl  0  0  0  0  0  0  0  0  0  0  0  0
  -30.5650  -14.4720   20.0820 C   0  0  0  0  0  0  0  0  0  0  0  0
  -30.2440  -12.3100   18.9070 C   0  0  0  0  0  2  0  0  0  0  0  0
  -29.2320  -12.5410   17.7650 C   0  0  0  0  0  2  0  0  0  0  0  0
  -27.7810  -12.3860   18.2680 C   0  0  0  0  0  2  0  0  0  0  0  0
  -27.5140  -13.1640   19.5860 C   0  0  0  0  0  3  0  0  0  0  0  0
  -28.6400  -12.9190   20.6130 C   0  0  0  0  0  2  0  0  0  0  0  0
  -29.9190  -13.2700   19.9740 N   0  0  0  0  0  0  0  0  0  0  0  0
  -31.6800  -14.6700   19.5920 O   0  0  0  0  0  0  0  0  0  0  0  0
  -29.8100  -15.4630   20.6230 N   0  0  0  0  0  0  0  0  0  0  0  0
  -28.9110  -15.1170   20.9300 H   0  0  0  0  0  0  0  0  0  0  0  0
  -25.1670  -13.7430   20.4510 C   0  0  0  0  0  0  0  0  0  0  0  0
  -24.1300  -12.9610   20.8760 C   0  0  0  0  0  0  0  0  0  0  0  0
  -24.5910  -11.6110   20.7890 C   0  0  0  0  0  0  0  0  0  0  0  0
  -26.1960  -12.8710   20.1430 N   0  0  0  0  0  0  0  0  0  0  0  0
  -25.8610  -11.5840   20.4010 N   0  0  0  0  0  0  0  0  0  0  0  0
  -23.8810  -10.3460   20.9930 C   0  0  0  0  0  0  0  0  0  0  0  0
  -24.3500   -9.3750   21.9080 C   0  0  0  0  0  3  0  0  0  0  0  0
  -23.6360   -8.1720   22.1020 C   0  0  0  0  0  3  0  0  0  0  0  0
  -22.4400   -7.9300   21.3840 C   0  0  0  0  0  0  0  0  0  0  0  0
  -21.9890   -8.8900   20.4630 C   0  0  0  0  0  3  0  0  0  0  0  0
  -22.7020  -10.0860   20.2640 C   0  0  0  0  0  3  0  0  0  0  0  0
  -21.6940   -6.7800   21.4900 O   0  0  0  0  0  0  0  0  0  0  0  0
  -21.6690   -6.0460   22.6490 C   0  0  0  0  0  0  0  0  0  0  0  0
  -21.2620   -6.6050   23.8800 C   0  0  0  0  0  3  0  0  0  0  0  0
  -21.1810   -5.7940   25.0300 C   0  0  0  0  0  3  0  0  0  0  0  0
  -21.4980   -4.4240   24.9510 C   0  0  0  0  0  0  0  0  0  0  0  0
  -21.9000   -3.8650   23.7250 C   0  0  0  0  0  3  0  0  0  0  0  0
  -21.9840   -4.6740   22.5790 C   0  0  0  0  0  0  0  0  0  0  0  0
  -22.3480   -4.1250   21.3940 F   0  0  0  0  0  0  0  0  0  0  0  0
  -21.4170   -3.6430   26.0540 F   0  0  0  0  0  0  0  0  0  0  0  0
  -22.7520  -13.4310   21.2410 C   0  0  0  0  0  0  0  0  0  0  0  0
  -22.0750  -12.7210   22.1370 N   0  0  0  0  0  0  0  0  0  0  0  0
  -22.2850  -14.4670   20.7690 O   0  0  0  0  0  0  0  0  0  0  0  0
  -22.4620  -11.8830   22.5490 H   0  0  0  0  0  0  0  0  0  0  0  0
  -21.1510  -13.0210   22.4180 H   0  0  0  0  0  0  0  0  0  0  0  0
  -25.3140  -15.1170   20.2870 N   0  0  0  0  0  0  0  0  0  0  0  0
  -24.5530  -15.7650   20.4520 H   0  0  0  0  0  0  0  0  0  0  0  0
  -26.1400  -15.5580   19.9040 H   0  0  0  0  0  0  0  0  0  0  0  0
  1  3  1  0
  2  1  2  0
  2  5  1  0
  3  4  2  0
  4 10  1  0
  6  5  1  0
  6  7  1  0
  8  3  1  0
  8  7  1  0
  8  9  1  1
 10 11  1  0
 10 12  2  0
 11 14  1  0
 13 11  1  0
 15  2  1  0
 16 27  2  0
 17 15  1  0
 17 22  1  0
 18 26  1  0
 18 28  1  0
 19 25  1  0
 19 21  1  0
 20 26  1  0
 21 22  2  0
 21 20  1  0
 23 17  2  0
 24 23  1  0
 24 19  2  0
 25 18  1  0
 26 16  1  0
 28 30  2  0
 29 28  1  0
 31 29  1  0
 32 41  2  0
 32 37  1  0
 33 29  1  0
 33 37  1  0
 34 33  1  0
 35 36  1  0
 35 34  1  0
 36 32  1  0
 37 38  2  0
 38 39  1  0
 40 39  2  0
 41 40  1  0
 42 16  1  0
 42 47  1  0
 42 43  1  0
 43 46  1  1
 43 44  1  0
 45 43  1  0
 47 50  1  0
 48 52  1  0
 48 47  1  0
 49 48  2  0
 52 51  1  0
 54 52  1  0
 54 55  1  0
 54 53  1  0
 56 60  1  0
 56  8  1  0
 57 59  1  0
 58 61  1  0
 59 63  1  0
 60 59  2  0
 61 73  1  0
 61 57  2  0
 62 58  2  0
 62 60  1  0
 64 62  1  0
 65 73  1  0
 66 71  1  0
 67 68  1  0
 67 66  1  0
 69 68  1  0
 69 78  1  0
 69 70  1  0
 71 65  1  0
 71 70  1  0
 72 65  2  0
 73 74  1  0
 75 76  2  0
 76 95  1  0
 77 76  1  0
 77 80  1  0
 78 79  1  0
 78 75  1  0
 79 77  2  0
 80 81  1  0
 81 82  2  0
 83 86  1  0
 83 82  1  0
 84 83  2  0
 85 84  1  0
 85 80  2  0
 86 87  1  0
 87 88  1  0
 88 89  2  0
 90 89  1  0
 90 94  1  0
 91 90  2  0
 92 87  2  0
 92 91  1  0
 93 92  1  0
 95 96  1  0
 96 99  1  0
 96 98  1  0
 97 95  2  0
100 75  1  0
100101  1  0
102100  1  0
M  ISO  4   2 101  15 101  65 100  73 100
M  END
>  <TORSDO>  (46) 
F 19

>  <SCORE>  (46) 
-13.793

>  <name>  (46) 
45

>  <ligand_id>  (46) 
45

>  <original_smiles>  (46) 
[H]C1=C(Oc2c([H])c([H])c3c(c2[H])C([H])([H])N(C(=O)C([H])(N([H])C(=O)C([H])(N([H])C([H])([H])[H])C([H])([H])[H])C(C([H])([H])[H])(C([H])([H])[H])C([H])([H])[H])C([H])(C(=O)N([H])C2([H])c4c([H])c([H])c([H])c([H])c4C([H])([H])C([H])([H])C2([H])[H])C3([H])[H])C([H])([H])C([H])([H])C([H])([H])[N+]([H])(C([H])([H])c2c(Cl)c([H])c(N([H])C(=O)N3C([H])([H])C([H])([H])C([H])([H])C([H])(n4nc(-c5c([H])c([H])c(Oc6c([H])c([H])c(F)c([H])c6F)c([H])c5[H])c(C(=O)N([H])[H])c4N([H])[H])C3([H])[H])c([H])c2C([H])([H])[H])C1=C([H])C(=O)N([H])[H]

>  <smiles>  (46) 
[H]C1=C(Oc2c([H])c([H])c3c(c2[H])C([H])([H])N(C(=O)C([H])(N([H])C(=O)C([H])(N([H])C([H])([H])[H])C([H])([H])[H])C(C([H])([H])[H])(C([H])([H])[H])C([H])([H])[H])C([H])(C(=O)N([H])C2([H])c4c([H])c([H])c([H])c([H])c4C([H])([H])C([H])([H])C2([H])[H])C3([H])[H])C([H])([H])C([H])([H])C([H])([H])[N+]([H])(C([H])([H])c2c(Cl)c([H])c(N([H])C(=O)N3C([H])([H])C([H])([H])C([H])([H])C([H])(n4nc(-c5c([H])c([H])c(Oc6c([H])c([H])c(F)c([H])c6F)c([H])c5[H])c(C(=O)N([H])[H])c4N([H])[H])C3([H])[H])c([H])c2C([H])([H])[H])C1=C([H])C(=O)N([H])[H]

$$$$
46:0:0
     RDKit          3D

 96105  0  0  1  0  0  0  0  0999 V2000
  -29.4470  -21.4170   20.9020 C   0  0  0  0  0  2  0  0  0  0  0  0
  -29.2590  -17.9090   18.8970 C   0  0  0  0  0  3  0  0  0  0  0  0
  -27.7660  -19.5260   17.9390 C   0  0  0  0  0  3  0  0  0  0  0  0
  -29.5810  -18.7460   19.9950 C   0  0  0  0  0  0  0  0  0  0  0  0
  -29.0850  -20.1610   19.9570 C   0  0  0  0  0  0  0  0  0  0  0  0
  -28.3830  -18.2830   17.8770 C   0  0  0  0  0  0  0  0  0  0  0  0
  -28.0940  -20.4390   18.9530 C   0  0  0  0  0  0  0  0  0  0  0  0
  -28.0240  -17.1850   16.5950 Cl  0  0  0  0  0  0  0  0  0  0  0  0
  -27.1410  -21.8840   18.9220 Cl  0  0  0  0  0  0  0  0  0  0  0  0
  -30.4340  -17.9080   21.0580 C   0  0  0  0  0  2  0  0  0  0  0  0
  -31.0080  -15.2560   20.9080 C   0  0  0  0  0  0  0  0  0  0  0  0
  -30.8900  -12.9990   19.8180 C   0  0  0  0  0  2  0  0  0  0  0  0
  -30.0440  -13.1070   18.5300 C   0  0  0  0  0  2  0  0  0  0  0  0
  -28.5440  -12.9370   18.8430 C   0  0  0  0  0  2  0  0  0  0  0  0
  -28.0870  -13.7890   20.0550 C   0  0  0  0  0  3  0  0  0  0  0  0
  -29.0580  -13.6510   21.2490 C   0  0  0  0  0  2  0  0  0  0  0  0
  -30.3960  -14.0240   20.7680 N   0  0  0  0  0  0  0  0  0  0  0  0
  -32.2080  -15.3680   20.6440 O   0  0  0  0  0  0  0  0  0  0  0  0
  -30.2060  -16.3720   21.1440 N   0  0  0  0  0  0  0  0  0  0  0  0
  -29.2590  -16.1230   21.3850 H   0  0  0  0  0  0  0  0  0  0  0  0
  -25.6600  -14.3910   20.6150 C   0  0  0  0  0  0  0  0  0  0  0  0
  -24.5600  -13.6220   20.8790 C   0  0  0  0  0  0  0  0  0  0  0  0
  -25.0060  -12.2660   20.8420 C   0  0  0  0  0  0  0  0  0  0  0  0
  -26.7080  -13.5030   20.4320 N   0  0  0  0  0  0  0  0  0  0  0  0
  -26.3160  -12.2180   20.6310 N   0  0  0  0  0  0  0  0  0  0  0  0
  -24.2500  -11.0110   20.9380 C   0  0  0  0  0  0  0  0  0  0  0  0
  -24.6080  -10.0000   21.8570 C   0  0  0  0  0  3  0  0  0  0  0  0
  -23.8520   -8.8100   21.9420 C   0  0  0  0  0  3  0  0  0  0  0  0
  -22.7250   -8.6230   21.1080 C   0  0  0  0  0  0  0  0  0  0  0  0
  -22.3870   -9.6230   20.1780 C   0  0  0  0  0  3  0  0  0  0  0  0
  -23.1430  -10.8040   20.0910 C   0  0  0  0  0  3  0  0  0  0  0  0
  -21.9470   -7.4900   21.1030 O   0  0  0  0  0  0  0  0  0  0  0  0
  -21.8010   -6.7130   22.2240 C   0  0  0  0  0  0  0  0  0  0  0  0
  -21.2740   -7.2320   23.4270 C   0  0  0  0  0  3  0  0  0  0  0  0
  -21.0760   -6.3820   24.5340 C   0  0  0  0  0  3  0  0  0  0  0  0
  -21.3960   -5.0150   24.4380 C   0  0  0  0  0  0  0  0  0  0  0  0
  -21.9160   -4.4950   23.2390 C   0  0  0  0  0  3  0  0  0  0  0  0
  -22.1150   -5.3420   22.1350 C   0  0  0  0  0  0  0  0  0  0  0  0
  -22.5970   -4.8310   20.9760 F   0  0  0  0  0  0  0  0  0  0  0  0
  -21.1990   -4.1960   25.4990 F   0  0  0  0  0  0  0  0  0  0  0  0
  -23.1520  -14.1130   21.0580 C   0  0  0  0  0  0  0  0  0  0  0  0
  -22.3550  -13.4110   21.8570 N   0  0  0  0  0  0  0  0  0  0  0  0
  -22.7650  -15.1530   20.5260 O   0  0  0  0  0  0  0  0  0  0  0  0
  -22.6790  -12.5680   22.3070 H   0  0  0  0  0  0  0  0  0  0  0  0
  -21.4080  -13.7230   22.0220 H   0  0  0  0  0  0  0  0  0  0  0  0
  -25.8530  -15.7640   20.4950 N   0  0  0  0  0  0  0  0  0  0  0  0
  -25.0790  -16.4150   20.5400 H   0  0  0  0  0  0  0  0  0  0  0  0
  -26.7180  -16.1970   20.1990 H   0  0  0  0  0  0  0  0  0  0  0  0
  -28.9520  -24.0680   20.8910 C   0  0  0  0  0  0  0  0  0  0  0  0
  -31.2030  -24.2610   19.1820 C   0  0  0  0  0  2  0  0  0  0  0  0
  -30.4260  -25.5840   19.3730 C   0  0  0  0  0  2  0  0  0  0  0  0
  -30.2900  -23.0180   19.1360 C   0  0  0  0  0  2  0  0  0  0  0  0
  -29.0400  -25.4560   20.0510 C   0  0  0  0  0  3  0  0  0  0  0  0
  -29.4930  -22.8800   20.3620 N   0  0  0  0  0  0  0  0  0  0  0  0
  -28.3690  -24.0730   21.9790 O   0  0  0  0  0  0  0  0  0  0  0  0
  -28.8100  -26.7970   20.7340 O   0  0  0  0  0  0  0  0  0  0  0  0
  -24.7900  -32.1890   23.4880 C   0  0  0  0  0  0  0  0  0  0  0  0
  -27.6770  -27.6430   20.5690 C   0  0  0  0  0  0  0  0  0  0  0  0
  -23.7040  -30.7400   21.8120 C   0  0  0  0  0  3  0  0  0  0  0  0
  -25.2660  -29.2290   20.4490 C   0  0  0  0  0  0  0  0  0  0  0  0
  -26.2450  -31.1280   21.7330 C   0  0  0  0  0  2  0  0  0  0  0  0
  -26.3960  -29.7440   21.0940 C   0  0  0  0  0  0  0  0  0  0  0  0
  -27.5980  -28.9620   21.1440 C   0  0  0  0  0  3  0  0  0  0  0  0
  -26.5170  -27.2010   19.8930 C   0  0  0  0  0  3  0  0  0  0  0  0
  -25.3340  -27.9670   19.8390 C   0  0  0  0  0  3  0  0  0  0  0  0
  -23.9980  -30.0650   20.4460 C   0  0  0  0  0  2  0  0  0  0  0  0
  -24.9300  -31.3730   22.4010 N   0  0  0  0  0  0  0  0  0  0  0  0
  -23.6760  -32.4320   23.9760 O   0  0  0  0  0  0  0  0  0  0  0  0
  -23.0370  -29.7080   22.7520 C   0  0  0  0  0  0  0  0  0  0  0  0
  -21.7280  -29.4670   22.5610 N   0  0  0  0  0  0  0  0  0  0  0  0
  -23.6990  -29.1250   23.6150 O   0  0  0  0  0  0  0  0  0  0  0  0
  -21.2520  -29.9910   21.8400 H   0  0  0  0  0  0  0  0  0  0  0  0
  -18.3870  -28.1230   22.9180 C   0  0  0  0  0  0  0  0  0  0  0  0
  -20.9160  -28.5010   23.3040 C   0  0  0  0  0  3  0  0  0  0  0  0
  -21.1090  -27.0690   22.7510 C   0  0  0  0  0  2  0  0  0  0  0  0
  -20.0710  -26.6870   21.6900 C   0  0  0  0  0  2  0  0  0  0  0  0
  -18.6550  -26.7770   22.2650 C   0  0  0  0  0  2  0  0  0  0  0  0
  -19.4480  -28.9390   23.3910 C   0  0  0  0  0  0  0  0  0  0  0  0
  -19.1450  -30.1950   23.9600 C   0  0  0  0  0  3  0  0  0  0  0  0
  -17.8130  -30.6380   24.0580 C   0  0  0  0  0  3  0  0  0  0  0  0
  -16.7650  -29.8190   23.6020 C   0  0  0  0  0  3  0  0  0  0  0  0
  -17.0520  -28.5640   23.0390 C   0  0  0  0  0  3  0  0  0  0  0  0
  -26.0220  -32.8720   24.1580 C   0  0  0  0  0  3  0  0  0  0  0  0
  -26.4610  -32.1790   25.5050 C   0  0  1  0  0  0  0  0  0  0  0  0
  -25.2980  -31.9540   26.4990 C   0  0  0  0  0  1  0  0  0  0  0  0
  -27.1150  -30.8050   25.2280 C   0  0  0  0  0  1  0  0  0  0  0  0
  -27.5340  -33.0400   26.2120 C   0  0  0  0  0  1  0  0  0  0  0  0
  -25.6760  -34.2820   24.3940 N   0  0  0  0  0  0  0  0  0  0  0  0
  -26.0470  -35.3010   23.6080 C   0  0  0  0  0  0  0  0  0  0  0  0
  -26.7820  -35.1560   22.6280 O   0  0  0  0  0  0  0  0  0  0  0  0
  -25.0330  -34.4690   25.1510 H   0  0  0  0  0  0  0  0  0  0  0  0
  -24.3250  -37.0520   23.0550 C   0  0  0  0  0  1  0  0  0  0  0  0
  -25.5160  -36.7050   23.9620 C   0  0  0  0  0  3  0  0  0  0  0  0
  -27.5810  -37.6650   24.8830 C   0  0  0  0  0  1  0  0  0  0  0  0
  -26.5430  -37.7650   23.8600 N   0  0  0  0  0  0  0  0  0  0  0  0
  -26.1180  -38.6860   23.9280 H   0  0  0  0  0  0  0  0  0  0  0  0
  2  4  1  0
  3  7  2  0
  4 10  1  0
  5  4  2  0
  5  1  1  0
  6  3  1  0
  6  2  2  0
  7  5  1  0
  8  6  1  0
  9  7  1  0
 10 19  1  0
 11 19  1  0
 12 17  1  0
 13 14  1  0
 13 12  1  0
 15 14  1  0
 15 24  1  0
 15 16  1  0
 17 11  1  0
 17 16  1  0
 18 11  2  0
 19 20  1  0
 21 22  2  0
 22 41  1  0
 23 22  1  0
 23 26  1  0
 24 21  1  0
 24 25  1  0
 25 23  2  0
 26 27  1  0
 27 28  2  0
 29 28  1  0
 30 29  2  0
 31 30  1  0
 31 26  2  0
 32 29  1  0
 32 33  1  0
 33 34  1  0
 34 35  2  0
 36 35  1  0
 36 40  1  0
 37 36  2  0
 38 33  2  0
 38 37  1  0
 39 38  1  0
 41 42  1  0
 42 45  1  0
 42 44  1  0
 43 41  2  0
 46 47  1  0
 46 21  1  0
 48 46  1  0
 49 55  2  0
 50 51  1  0
 51 53  1  0
 52 50  1  0
 52 54  1  0
 53 56  1  0
 53 49  1  0
 54 49  1  0
 54  1  1  0
 57 68  2  0
 58 56  1  0
 58 63  1  0
 59 67  1  0
 59 69  1  0
 60 62  1  0
 61 67  1  0
 62 63  2  0
 62 61  1  0
 64 58  2  0
 65 64  1  0
 65 60  2  0
 66 60  1  0
 66 59  1  0
 67 57  1  0
 69 71  2  0
 70 69  1  0
 72 70  1  0
 73 82  2  0
 73 78  1  0
 74 70  1  0
 74 78  1  0
 75 74  1  0
 76 77  1  0
 76 75  1  0
 77 73  1  0
 78 79  2  0
 79 80  1  0
 81 80  2  0
 82 81  1  0
 83 57  1  0
 83 88  1  0
 83 84  1  0
 84 87  1  1
 84 85  1  0
 86 84  1  0
 88 91  1  0
 89 93  1  0
 89 88  1  0
 90 89  2  0
 93 92  1  0
 95 96  1  0
 95 93  1  0
 95 94  1  0
M  ISO  4  11 100  19 100  53 101  56 101
M  END
>  <TORSDO>  (47) 
F 19

>  <SCORE>  (47) 
-11.215

>  <name>  (47) 
46

>  <ligand_id>  (47) 
46

>  <original_smiles>  (47) 
[H]c1c([H])c([H])c2c(c1[H])C([H])([H])C([H])([H])C([H])([H])C2([H])N([H])C(=O)C1([H])N(C(=O)C([H])(N([H])C(=O)C([H])(N([H])C([H])([H])[H])C([H])([H])[H])C(C([H])([H])[H])(C([H])([H])[H])C([H])([H])[H])C([H])([H])c2c([H])c(OC3([H])C(=O)N(C([H])([H])c4c(Cl)c([H])c(Cl)c([H])c4C([H])([H])N([H])C(=O)N4C([H])([H])C([H])([H])C([H])([H])C([H])(n5nc(-c6c([H])c([H])c(Oc7c([H])c([H])c(F)c([H])c7F)c([H])c6[H])c(C(=O)N([H])[H])c5N([H])[H])C4([H])[H])C([H])([H])C([H])([H])C3([H])[H])c([H])c([H])c2C1([H])[H]

>  <smiles>  (47) 
[H]c1c([H])c([H])c2c(c1[H])C([H])([H])C([H])([H])C([H])([H])C2([H])N([H])C(=O)C1([H])N(C(=O)C([H])(N([H])C(=O)C([H])(N([H])C([H])([H])[H])C([H])([H])[H])C(C([H])([H])[H])(C([H])([H])[H])C([H])([H])[H])C([H])([H])c2c([H])c(OC3([H])C(=O)N(C([H])([H])c4c(Cl)c([H])c(Cl)c([H])c4C([H])([H])N([H])C(=O)N4C([H])([H])C([H])([H])C([H])([H])C([H])(n5nc(-c6c([H])c([H])c(Oc7c([H])c([H])c(F)c([H])c7F)c([H])c6[H])c(C(=O)N([H])[H])c5N([H])[H])C4([H])[H])C([H])([H])C([H])([H])C3([H])[H])c([H])c([H])c2C1([H])[H]

$$$$
47:0:0
     RDKit          3D

 94103  0  0  1  0  0  0  0  0999 V2000
  -29.2140  -24.0220   20.6050 C   0  0  0  0  0  0  0  0  0  0  0  0
  -28.1830  -23.3270   17.9770 C   0  0  0  0  0  2  0  0  0  0  0  0
  -28.4940  -24.7930   18.2970 C   0  0  0  0  0  2  0  0  0  0  0  0
  -29.0980  -22.3500   18.7450 C   0  0  0  0  0  2  0  0  0  0  0  0
  -28.3040  -25.0340   19.8010 C   0  0  0  0  0  3  0  0  0  0  0  0
  -29.3930  -22.7270   20.1380 N   0  0  0  0  0  0  0  0  0  0  0  0
  -29.6940  -24.3920   21.6830 O   0  0  0  0  0  0  0  0  0  0  0  0
  -28.4290  -26.4820   20.1180 O   0  0  0  0  0  0  0  0  0  0  0  0
  -24.4960  -31.7340   23.0920 C   0  0  0  0  0  0  0  0  0  0  0  0
  -27.2780  -27.2900   20.0340 C   0  0  0  0  0  0  0  0  0  0  0  0
  -23.3490  -30.3040   21.4410 C   0  0  0  0  0  3  0  0  0  0  0  0
  -24.8570  -28.8230   20.0130 C   0  0  0  0  0  0  0  0  0  0  0  0
  -25.8750  -30.7200   21.2640 C   0  0  0  0  0  2  0  0  0  0  0  0
  -26.0080  -29.3500   20.6140 C   0  0  0  0  0  0  0  0  0  0  0  0
  -27.2200  -28.5970   20.6120 C   0  0  0  0  0  3  0  0  0  0  0  0
  -26.0930  -26.8220   19.4120 C   0  0  0  0  0  3  0  0  0  0  0  0
  -24.9020  -27.5640   19.4030 C   0  0  0  0  0  3  0  0  0  0  0  0
  -23.5920  -29.6500   20.0580 C   0  0  0  0  0  2  0  0  0  0  0  0
  -24.5920  -30.9360   21.9900 N   0  0  0  0  0  0  0  0  0  0  0  0
  -23.4020  -31.9700   23.6240 O   0  0  0  0  0  0  0  0  0  0  0  0
  -22.7230  -29.2550   22.3940 C   0  0  0  0  0  0  0  0  0  0  0  0
  -21.4040  -29.0290   22.2610 N   0  0  0  0  0  0  0  0  0  0  0  0
  -23.4210  -28.6490   23.2110 O   0  0  0  0  0  0  0  0  0  0  0  0
  -20.8980  -29.5730   21.5760 H   0  0  0  0  0  0  0  0  0  0  0  0
  -18.0700  -27.7070   22.7420 C   0  0  0  0  0  0  0  0  0  0  0  0
  -20.6160  -28.0600   23.0260 C   0  0  0  0  0  3  0  0  0  0  0  0
  -20.7720  -26.6340   22.4490 C   0  0  0  0  0  2  0  0  0  0  0  0
  -19.6880  -26.2740   21.4270 C   0  0  0  0  0  2  0  0  0  0  0  0
  -18.2990  -26.3660   22.0640 C   0  0  0  0  0  2  0  0  0  0  0  0
  -19.1580  -28.5090   23.1790 C   0  0  0  0  0  0  0  0  0  0  0  0
  -18.8890  -29.7610   23.7730 C   0  0  0  0  0  3  0  0  0  0  0  0
  -17.5660  -30.2140   23.9330 C   0  0  0  0  0  3  0  0  0  0  0  0
  -16.4930  -29.4080   23.5130 C   0  0  0  0  0  3  0  0  0  0  0  0
  -16.7450  -28.1570   22.9220 C   0  0  0  0  0  3  0  0  0  0  0  0
  -25.7530  -32.4100   23.7220 C   0  0  0  0  0  3  0  0  0  0  0  0
  -25.3860  -33.7870   24.0810 N   0  0  0  0  0  0  0  0  0  0  0  0
  -25.6770  -34.8690   23.3450 C   0  0  0  0  0  0  0  0  0  0  0  0
  -26.3560  -34.8140   22.3160 O   0  0  0  0  0  0  0  0  0  0  0  0
  -24.7860  -33.8980   24.8850 H   0  0  0  0  0  0  0  0  0  0  0  0
  -23.8790  -36.5940   23.0170 C   0  0  0  0  0  1  0  0  0  0  0  0
  -25.1310  -36.2260   23.8290 C   0  0  0  0  0  3  0  0  0  0  0  0
  -27.2250  -37.1770   24.6880 C   0  0  0  0  0  1  0  0  0  0  0  0
  -26.1200  -37.3230   23.7440 N   0  0  0  0  0  0  0  0  0  0  0  0
  -25.6770  -38.2210   23.9130 H   0  0  0  0  0  0  0  0  0  0  0  0
  -26.3070  -31.6360   24.9810 C   0  0  1  0  0  0  0  0  0  0  0  0
  -25.2300  -31.3310   26.0490 C   0  0  0  0  0  1  0  0  0  0  0  0
  -26.9440  -30.2920   24.5600 C   0  0  0  0  0  1  0  0  0  0  0  0
  -27.4300  -32.4630   25.6520 C   0  0  0  0  0  1  0  0  0  0  0  0
  -30.1330  -21.6770   20.9320 C   0  0  0  0  0  2  0  0  0  0  0  0
  -31.2830  -19.3670   20.5300 C   0  0  0  0  0  3  0  0  0  0  0  0
  -31.2980  -17.9390   20.5180 C   0  0  0  0  0  3  0  0  0  0  0  0
  -28.9010  -17.9430   20.6560 C   0  0  0  0  0  3  0  0  0  0  0  0
  -30.0820  -20.1260   20.6340 C   0  0  0  0  0  0  0  0  0  0  0  0
  -30.1030  -17.1830   20.6180 C   0  0  0  0  0  0  0  0  0  0  0  0
  -28.8790  -19.3710   20.6600 C   0  0  0  0  0  0  0  0  0  0  0  0
  -27.3550  -20.1780   20.7570 Cl  0  0  0  0  0  0  0  0  0  0  0  0
  -30.8080  -14.6860   20.3060 C   0  0  0  0  0  0  0  0  0  0  0  0
  -30.5610  -12.4640   19.2210 C   0  0  0  0  0  2  0  0  0  0  0  0
  -29.6060  -12.6240   18.0160 C   0  0  0  0  0  2  0  0  0  0  0  0
  -28.1270  -12.5100   18.4480 C   0  0  0  0  0  2  0  0  0  0  0  0
  -27.8040  -13.3640   19.7030 C   0  0  0  0  0  3  0  0  0  0  0  0
  -28.8640  -13.1500   20.8060 C   0  0  0  0  0  2  0  0  0  0  0  0
  -30.1790  -13.4710   20.2290 N   0  0  0  0  0  0  0  0  0  0  0  0
  -31.9650  -14.8400   19.8960 O   0  0  0  0  0  0  0  0  0  0  0  0
  -30.0100  -15.7240   20.7090 N   0  0  0  0  0  0  0  0  0  0  0  0
  -29.1230  -15.3890   21.0480 H   0  0  0  0  0  0  0  0  0  0  0  0
  -25.4330  -14.0350   20.4390 C   0  0  0  0  0  0  0  0  0  0  0  0
  -24.3450  -13.2940   20.8140 C   0  0  0  0  0  0  0  0  0  0  0  0
  -24.7650  -11.9280   20.7760 C   0  0  0  0  0  0  0  0  0  0  0  0
  -26.4480  -13.1240   20.1930 N   0  0  0  0  0  0  0  0  0  0  0  0
  -26.0510  -11.8510   20.4560 N   0  0  0  0  0  0  0  0  0  0  0  0
  -24.0030  -10.6880   20.9700 C   0  0  0  0  0  0  0  0  0  0  0  0
  -24.4030   -9.7160   21.9120 C   0  0  0  0  0  3  0  0  0  0  0  0
  -23.6450   -8.5380   22.0940 C   0  0  0  0  0  3  0  0  0  0  0  0
  -22.4710   -8.3280   21.3330 C   0  0  0  0  0  0  0  0  0  0  0  0
  -22.0870   -9.2900   20.3820 C   0  0  0  0  0  3  0  0  0  0  0  0
  -22.8460  -10.4570   20.1990 C   0  0  0  0  0  3  0  0  0  0  0  0
  -21.6870   -7.2030   21.4220 O   0  0  0  0  0  0  0  0  0  0  0  0
  -21.5940   -6.4810   22.5860 C   0  0  0  0  0  0  0  0  0  0  0  0
  -21.1560   -7.0660   23.7940 C   0  0  0  0  0  3  0  0  0  0  0  0
  -21.0080   -6.2730   24.9470 C   0  0  0  0  0  3  0  0  0  0  0  0
  -21.2890   -4.8940   24.8960 C   0  0  0  0  0  0  0  0  0  0  0  0
  -21.7190   -4.3070   23.6930 C   0  0  0  0  0  3  0  0  0  0  0  0
  -21.8690   -5.1000   22.5410 C   0  0  0  0  0  0  0  0  0  0  0  0
  -22.2650   -4.5250   21.3790 F   0  0  0  0  0  0  0  0  0  0  0  0
  -21.1390   -4.1290   26.0020 F   0  0  0  0  0  0  0  0  0  0  0  0
  -22.9640  -13.8150   21.0940 C   0  0  0  0  0  0  0  0  0  0  0  0
  -22.2260  -13.1540   21.9790 N   0  0  0  0  0  0  0  0  0  0  0  0
  -22.5480  -14.8430   20.5620 O   0  0  0  0  0  0  0  0  0  0  0  0
  -22.5690  -12.3220   22.4350 H   0  0  0  0  0  0  0  0  0  0  0  0
  -21.3020  -13.4920   22.2080 H   0  0  0  0  0  0  0  0  0  0  0  0
  -25.6370  -15.3990   20.2620 N   0  0  0  0  0  0  0  0  0  0  0  0
  -24.8880  -16.0740   20.3800 H   0  0  0  0  0  0  0  0  0  0  0  0
  -26.4800  -15.8080   19.8810 H   0  0  0  0  0  0  0  0  0  0  0  0
  1  7  2  0
  2  3  1  0
  2  4  1  0
  3  5  1  0
  4  6  1  0
  5  8  1  0
  5  1  1  0
  6  1  1  0
  6 49  1  0
  9 20  2  0
 10  8  1  0
 10 15  1  0
 11 19  1  0
 11 21  1  0
 12 18  1  0
 12 14  1  0
 13 19  1  0
 14 13  1  0
 15 14  2  0
 16 10  2  0
 17 16  1  0
 17 12  2  0
 18 11  1  0
 19  9  1  0
 21 23  2  0
 22 21  1  0
 24 22  1  0
 25 34  2  0
 25 30  1  0
 26 22  1  0
 26 30  1  0
 27 26  1  0
 28 29  1  0
 28 27  1  0
 29 25  1  0
 30 31  2  0
 31 32  1  0
 33 32  2  0
 34 33  1  0
 35  9  1  0
 35 36  1  0
 35 45  1  0
 36 39  1  0
 37 41  1  0
 37 36  1  0
 38 37  2  0
 41 40  1  0
 43 41  1  0
 43 44  1  0
 43 42  1  0
 45 48  1  1
 45 46  1  0
 47 45  1  0
 50 53  1  0
 51 50  2  0
 51 54  1  0
 52 55  1  0
 53 55  2  0
 53 49  1  0
 54 52  2  0
 54 65  1  0
 55 56  1  0
 57 65  1  0
 58 63  1  0
 59 60  1  0
 59 58  1  0
 61 60  1  0
 61 70  1  0
 61 62  1  0
 63 57  1  0
 63 62  1  0
 64 57  2  0
 65 66  1  0
 67 68  2  0
 68 87  1  0
 69 68  1  0
 69 72  1  0
 70 67  1  0
 70 71  1  0
 71 69  2  0
 72 73  1  0
 73 74  2  0
 75 78  1  0
 75 74  1  0
 76 75  2  0
 77 76  1  0
 77 72  2  0
 78 79  1  0
 79 80  1  0
 80 81  2  0
 82 81  1  0
 82 86  1  0
 83 82  2  0
 84 79  2  0
 84 83  1  0
 85 84  1  0
 87 88  1  0
 88 91  1  0
 88 90  1  0
 89 87  2  0
 92 93  1  0
 92 67  1  0
 94 92  1  0
M  ISO  4   5 101   8 101  57 100  65 100
M  END
>  <TORSDO>  (48) 
F 18

>  <SCORE>  (48) 
-13.956

>  <name>  (48) 
47

>  <ligand_id>  (48) 
47

>  <original_smiles>  (48) 
[H]c1c([H])c([H])c2c(c1[H])C([H])([H])C([H])([H])C([H])([H])C2([H])N([H])C(=O)C1([H])N(C(=O)C([H])(N([H])C(=O)C([H])(N([H])C([H])([H])[H])C([H])([H])[H])C(C([H])([H])[H])(C([H])([H])[H])C([H])([H])[H])C([H])([H])c2c([H])c(OC3([H])C(=O)N(C([H])([H])c4c([H])c([H])c(N([H])C(=O)N5C([H])([H])C([H])([H])C([H])([H])C([H])(n6nc(-c7c([H])c([H])c(Oc8c([H])c([H])c(F)c([H])c8F)c([H])c7[H])c(C(=O)N([H])[H])c6N([H])[H])C5([H])[H])c([H])c4Cl)C([H])([H])C([H])([H])C3([H])[H])c([H])c([H])c2C1([H])[H]

>  <smiles>  (48) 
[H]c1c([H])c([H])c2c(c1[H])C([H])([H])C([H])([H])C([H])([H])C2([H])N([H])C(=O)C1([H])N(C(=O)C([H])(N([H])C(=O)C([H])(N([H])C([H])([H])[H])C([H])([H])[H])C(C([H])([H])[H])(C([H])([H])[H])C([H])([H])[H])C([H])([H])c2c([H])c(OC3([H])C(=O)N(C([H])([H])c4c([H])c([H])c(N([H])C(=O)N5C([H])([H])C([H])([H])C([H])([H])C([H])(n6nc(-c7c([H])c([H])c(Oc8c([H])c([H])c(F)c([H])c8F)c([H])c7[H])c(C(=O)N([H])[H])c6N([H])[H])C5([H])[H])c([H])c4Cl)C([H])([H])C([H])([H])C3([H])[H])c([H])c([H])c2C1([H])[H]

$$$$
48:0:0
     RDKit          3D

 93101  0  0  1  0  0  0  0  0999 V2000
  -29.4030  -21.8450   20.6060 N   0  0  0  0  0  4  0  0  0  0  0  0
  -29.0860  -21.5570   19.6970 H   0  0  0  0  0  0  0  0  0  0  0  0
  -30.4030  -21.9620   20.5770 H   0  0  0  0  0  0  0  0  0  0  0  0
  -29.0950  -20.7800   21.5830 C   0  0  0  0  0  2  0  0  0  0  0  0
  -28.7070  -18.4120   20.7390 C   0  0  0  0  0  3  0  0  0  0  0  0
  -29.0800  -17.0540   20.6580 C   0  0  0  0  0  3  0  0  0  0  0  0
  -31.2930  -17.6250   21.5150 C   0  0  0  0  0  3  0  0  0  0  0  0
  -29.6070  -19.3790   21.2490 C   0  0  0  0  0  0  0  0  0  0  0  0
  -30.3630  -16.6500   21.0880 C   0  0  0  0  0  0  0  0  0  0  0  0
  -30.9240  -18.9860   21.5860 C   0  0  0  0  0  0  0  0  0  0  0  0
  -32.0890  -20.1480   22.1240 Cl  0  0  0  0  0  0  0  0  0  0  0  0
  -30.9850  -14.5030   20.1540 C   0  0  0  0  0  0  0  0  0  0  0  0
  -30.5390  -12.4190   18.9150 C   0  0  0  0  0  2  0  0  0  0  0  0
  -29.5350  -12.6660   17.7720 C   0  0  0  0  0  2  0  0  0  0  0  0
  -28.0870  -12.5230   18.2800 C   0  0  0  0  0  2  0  0  0  0  0  0
  -27.8310  -13.3210   19.5850 C   0  0  0  0  0  3  0  0  0  0  0  0
  -28.9450  -13.0850   20.6280 C   0  0  0  0  0  2  0  0  0  0  0  0
  -30.2480  -13.3700   19.9990 N   0  0  0  0  0  0  0  0  0  0  0  0
  -31.9730  -14.7610   19.4640 O   0  0  0  0  0  0  0  0  0  0  0  0
  -30.6860  -15.2710   21.2070 N   0  0  0  0  0  0  0  0  0  0  0  0
  -31.3650  -15.1070   21.9370 H   0  0  0  0  0  0  0  0  0  0  0  0
  -25.4800  -13.9090   20.4540 C   0  0  0  0  0  0  0  0  0  0  0  0
  -24.4300  -13.1270   20.8560 C   0  0  0  0  0  0  0  0  0  0  0  0
  -24.8790  -11.7770   20.7460 C   0  0  0  0  0  0  0  0  0  0  0  0
  -26.5070  -13.0330   20.1330 N   0  0  0  0  0  0  0  0  0  0  0  0
  -26.1500  -11.7420   20.3620 N   0  0  0  0  0  0  0  0  0  0  0  0
  -24.1550  -10.5110   20.9370 C   0  0  0  0  0  0  0  0  0  0  0  0
  -24.5740   -9.5520   21.8870 C   0  0  0  0  0  3  0  0  0  0  0  0
  -23.8530   -8.3500   22.0590 C   0  0  0  0  0  3  0  0  0  0  0  0
  -22.6980   -8.0990   21.2830 C   0  0  0  0  0  0  0  0  0  0  0  0
  -22.2960   -9.0450   20.3240 C   0  0  0  0  0  3  0  0  0  0  0  0
  -23.0180  -10.2380   20.1500 C   0  0  0  0  0  3  0  0  0  0  0  0
  -21.9470   -6.9510   21.3640 O   0  0  0  0  0  0  0  0  0  0  0  0
  -21.7960   -6.2710   22.5460 C   0  0  0  0  0  0  0  0  0  0  0  0
  -21.2410   -6.8830   23.6910 C   0  0  0  0  0  3  0  0  0  0  0  0
  -21.0420   -6.1300   24.8650 C   0  0  0  0  0  3  0  0  0  0  0  0
  -21.3890   -4.7650   24.8930 C   0  0  0  0  0  0  0  0  0  0  0  0
  -21.9380   -4.1530   23.7510 C   0  0  0  0  0  3  0  0  0  0  0  0
  -22.1400   -4.9040   22.5810 C   0  0  0  0  0  0  0  0  0  0  0  0
  -22.6500   -4.3060   21.4770 F   0  0  0  0  0  0  0  0  0  0  0  0
  -21.1890   -4.0390   26.0160 F   0  0  0  0  0  0  0  0  0  0  0  0
  -23.0530  -13.6030   21.2230 C   0  0  0  0  0  0  0  0  0  0  0  0
  -22.3670  -12.8830   22.1030 N   0  0  0  0  0  0  0  0  0  0  0  0
  -22.5980  -14.6500   20.7650 O   0  0  0  0  0  0  0  0  0  0  0  0
  -22.7410  -12.0380   22.5040 H   0  0  0  0  0  0  0  0  0  0  0  0
  -21.4440  -13.1870   22.3820 H   0  0  0  0  0  0  0  0  0  0  0  0
  -25.6280  -15.2830   20.3010 N   0  0  0  0  0  0  0  0  0  0  0  0
  -24.8530  -15.9150   20.4590 H   0  0  0  0  0  0  0  0  0  0  0  0
  -26.4210  -15.7270   19.8560 H   0  0  0  0  0  0  0  0  0  0  0  0
  -28.7340  -23.1130   20.9970 C   0  0  0  0  0  2  0  0  0  0  0  0
  -29.1800  -24.3920   20.2500 C   0  0  0  0  0  2  0  0  0  0  0  0
  -28.4320  -25.6110   20.8420 C   0  0  0  0  0  2  0  0  0  0  0  0
  -28.4910  -26.7910   20.0360 O   0  0  0  0  0  0  0  0  0  0  0  0
  -24.6300  -31.8760   23.2140 C   0  0  0  0  0  0  0  0  0  0  0  0
  -27.3240  -27.5160   20.0630 C   0  0  0  0  0  0  0  0  0  0  0  0
  -23.4360  -30.4710   21.5650 C   0  0  0  0  0  3  0  0  0  0  0  0
  -24.9020  -28.9650   20.1170 C   0  0  0  0  0  0  0  0  0  0  0  0
  -25.9520  -30.8660   21.3570 C   0  0  0  0  0  2  0  0  0  0  0  0
  -26.0540  -29.5040   20.7040 C   0  0  0  0  0  0  0  0  0  0  0  0
  -27.2710  -28.7840   20.6800 C   0  0  0  0  0  3  0  0  0  0  0  0
  -26.1580  -26.9860   19.4690 C   0  0  0  0  0  3  0  0  0  0  0  0
  -24.9470  -27.7030   19.5000 C   0  0  0  0  0  3  0  0  0  0  0  0
  -23.6440  -29.8010   20.1810 C   0  0  0  0  0  2  0  0  0  0  0  0
  -24.6910  -31.0860   22.1040 N   0  0  0  0  0  0  0  0  0  0  0  0
  -23.5480  -32.1270   23.7600 O   0  0  0  0  0  0  0  0  0  0  0  0
  -22.8010  -29.4350   22.5210 C   0  0  0  0  0  0  0  0  0  0  0  0
  -21.4790  -29.2370   22.4020 N   0  0  0  0  0  0  0  0  0  0  0  0
  -23.4990  -28.8080   23.3230 O   0  0  0  0  0  0  0  0  0  0  0  0
  -20.9800  -29.7970   21.7240 H   0  0  0  0  0  0  0  0  0  0  0  0
  -18.1210  -28.0070   22.9090 C   0  0  0  0  0  0  0  0  0  0  0  0
  -20.6780  -28.2820   23.1670 C   0  0  0  0  0  3  0  0  0  0  0  0
  -20.7910  -26.8610   22.5680 C   0  0  0  0  0  2  0  0  0  0  0  0
  -19.6810  -26.5300   21.5640 C   0  0  0  0  0  2  0  0  0  0  0  0
  -18.3010  -26.6640   22.2190 C   0  0  0  0  0  2  0  0  0  0  0  0
  -19.2370  -28.7730   23.3420 C   0  0  0  0  0  0  0  0  0  0  0  0
  -19.0120  -30.0290   23.9480 C   0  0  0  0  0  3  0  0  0  0  0  0
  -17.7040  -30.5160   24.1290 C   0  0  0  0  0  3  0  0  0  0  0  0
  -16.6050  -29.7470   23.7100 C   0  0  0  0  0  3  0  0  0  0  0  0
  -16.8130  -28.4950   23.1030 C   0  0  0  0  0  3  0  0  0  0  0  0
  -25.9150  -32.5140   23.8310 C   0  0  0  0  0  3  0  0  0  0  0  0
  -25.5930  -33.9060   24.1740 N   0  0  0  0  0  0  0  0  0  0  0  0
  -25.9050  -34.9670   23.4190 C   0  0  0  0  0  0  0  0  0  0  0  0
  -26.5710  -34.8790   22.3810 O   0  0  0  0  0  0  0  0  0  0  0  0
  -25.0040  -34.0460   24.9820 H   0  0  0  0  0  0  0  0  0  0  0  0
  -24.1540  -36.7410   23.0860 C   0  0  0  0  0  1  0  0  0  0  0  0
  -25.4060  -36.3460   23.8870 C   0  0  0  0  0  3  0  0  0  0  0  0
  -27.5320  -37.2540   24.7140 C   0  0  0  0  0  1  0  0  0  0  0  0
  -26.4240  -37.4120   23.7740 N   0  0  0  0  0  0  0  0  0  0  0  0
  -26.0050  -38.3250   23.9330 H   0  0  0  0  0  0  0  0  0  0  0  0
  -26.4510  -31.7360   25.0960 C   0  0  1  0  0  0  0  0  0  0  0  0
  -25.3650  -31.4680   26.1630 C   0  0  0  0  0  1  0  0  0  0  0  0
  -27.0520  -30.3740   24.6800 C   0  0  0  0  0  1  0  0  0  0  0  0
  -27.5900  -32.5440   25.7600 C   0  0  0  0  0  1  0  0  0  0  0  0
  1 50  1  0
  1  4  1  0
  2  1  1  0
  3  1  1  0
  5  8  1  0
  6  5  2  0
  6  9  1  0
  7 10  1  0
  8  4  1  0
  8 10  2  0
  9 20  1  0
  9  7  2  0
 10 11  1  0
 12 20  1  0
 13 18  1  0
 14 15  1  0
 14 13  1  0
 16 15  1  0
 16 25  1  0
 16 17  1  0
 18 12  1  0
 18 17  1  0
 19 12  2  0
 20 21  1  0
 22 23  2  0
 23 42  1  0
 24 23  1  0
 24 27  1  0
 25 26  1  0
 25 22  1  0
 26 24  2  0
 27 28  1  0
 28 29  2  0
 30 33  1  0
 30 29  1  0
 31 30  2  0
 32 31  1  0
 32 27  2  0
 33 34  1  0
 34 39  2  0
 34 35  1  0
 35 36  2  0
 36 37  1  0
 37 41  1  0
 38 37  2  0
 39 38  1  0
 40 39  1  0
 42 43  1  0
 43 46  1  0
 43 45  1  0
 44 42  2  0
 47 22  1  0
 47 48  1  0
 49 47  1  0
 51 52  1  0
 51 50  1  0
 53 55  1  0
 53 52  1  0
 54 65  2  0
 55 60  1  0
 56 64  1  0
 56 66  1  0
 57 63  1  0
 57 59  1  0
 58 64  1  0
 59 58  1  0
 60 59  2  0
 61 62  1  0
 61 55  2  0
 62 57  2  0
 63 56  1  0
 64 54  1  0
 66 68  2  0
 67 66  1  0
 69 67  1  0
 70 79  2  0
 70 75  1  0
 71 67  1  0
 71 75  1  0
 72 71  1  0
 73 74  1  0
 73 72  1  0
 74 70  1  0
 75 76  2  0
 76 77  1  0
 78 77  2  0
 79 78  1  0
 80 54  1  0
 80 81  1  0
 80 90  1  0
 81 84  1  0
 82 86  1  0
 82 81  1  0
 83 82  2  0
 86 85  1  0
 88 86  1  0
 88 89  1  0
 88 87  1  0
 90 93  1  1
 90 91  1  0
 92 90  1  0
M  ISO  4  12 100  20 100  52 101  53 101
M  END
>  <TORSDO>  (49) 
F 21

>  <SCORE>  (49) 
-13.049

>  <name>  (49) 
48

>  <ligand_id>  (49) 
48

>  <original_smiles>  (49) 
[H]c1c([H])c([H])c2c(c1[H])C([H])([H])C([H])([H])C([H])([H])C2([H])N([H])C(=O)C1([H])N(C(=O)C([H])(N([H])C(=O)C([H])(N([H])C([H])([H])[H])C([H])([H])[H])C(C([H])([H])[H])(C([H])([H])[H])C([H])([H])[H])C([H])([H])c2c([H])c(OC([H])([H])C([H])([H])C([H])([H])[N+]([H])([H])C([H])([H])c3c([H])c([H])c(N([H])C(=O)N4C([H])([H])C([H])([H])C([H])([H])C([H])(n5nc(-c6c([H])c([H])c(Oc7c([H])c([H])c(F)c([H])c7F)c([H])c6[H])c(C(=O)N([H])[H])c5N([H])[H])C4([H])[H])c([H])c3Cl)c([H])c([H])c2C1([H])[H]

>  <smiles>  (49) 
[H]c1c([H])c([H])c2c(c1[H])C([H])([H])C([H])([H])C([H])([H])C2([H])N([H])C(=O)C1([H])N(C(=O)C([H])(N([H])C(=O)C([H])(N([H])C([H])([H])[H])C([H])([H])[H])C(C([H])([H])[H])(C([H])([H])[H])C([H])([H])[H])C([H])([H])c2c([H])c(OC([H])([H])C([H])([H])C([H])([H])[N+]([H])([H])C([H])([H])c3c([H])c([H])c(N([H])C(=O)N4C([H])([H])C([H])([H])C([H])([H])C([H])(n5nc(-c6c([H])c([H])c(Oc7c([H])c([H])c(F)c([H])c7F)c([H])c6[H])c(C(=O)N([H])[H])c5N([H])[H])C4([H])[H])c([H])c3Cl)c([H])c([H])c2C1([H])[H]

$$$$
49:0:0
     RDKit          3D

 93101  0  0  1  0  0  0  0  0999 V2000
  -28.5160  -22.1720   20.7520 C   0  0  0  0  0  2  0  0  0  0  0  0
  -30.2170  -18.8570   21.7720 C   0  0  0  0  0  3  0  0  0  0  0  0
  -29.9000  -20.2300   21.6540 C   0  0  0  0  0  3  0  0  0  0  0  0
  -28.5790  -18.3340   20.0640 C   0  0  0  0  0  3  0  0  0  0  0  0
  -29.5530  -17.8880   20.9870 C   0  0  0  0  0  0  0  0  0  0  0  0
  -28.9010  -20.6780   20.7570 C   0  0  0  0  0  0  0  0  0  0  0  0
  -28.2440  -19.7070   19.9550 C   0  0  0  0  0  0  0  0  0  0  0  0
  -26.9810  -20.1650   18.8680 Cl  0  0  0  0  0  0  0  0  0  0  0  0
  -29.8310  -16.3850   21.1710 C   0  0  0  0  0  2  0  0  0  0  0  0
  -31.1060  -14.6010   19.8980 C   0  0  0  0  0  0  0  0  0  0  0  0
  -30.6430  -12.4850   18.7240 C   0  0  0  0  0  2  0  0  0  0  0  0
  -29.6260  -12.7710   17.6000 C   0  0  0  0  0  2  0  0  0  0  0  0
  -28.1800  -12.6740   18.1290 C   0  0  0  0  0  2  0  0  0  0  0  0
  -27.9710  -13.4460   19.4630 C   0  0  0  0  0  3  0  0  0  0  0  0
  -29.1070  -13.1650   20.4710 C   0  0  0  0  0  2  0  0  0  0  0  0
  -30.3770  -13.4550   19.8000 N   0  0  0  0  0  0  0  0  0  0  0  0
  -32.2480  -14.6910   19.4520 O   0  0  0  0  0  0  0  0  0  0  0  0
  -30.4000  -15.7480   19.9790 N   0  0  0  0  0  0  0  0  0  0  0  0
  -30.8490  -16.4520   19.4130 H   0  0  0  0  0  0  0  0  0  0  0  0
  -25.6620  -14.0810   20.3890 C   0  0  0  0  0  0  0  0  0  0  0  0
  -24.5990  -13.3220   20.8010 C   0  0  0  0  0  0  0  0  0  0  0  0
  -25.0080  -11.9610   20.6650 C   0  0  0  0  0  0  0  0  0  0  0  0
  -26.6550  -13.1820   20.0350 N   0  0  0  0  0  0  0  0  0  0  0  0
  -26.2710  -11.8990   20.2590 N   0  0  0  0  0  0  0  0  0  0  0  0
  -24.2510  -10.7150   20.8470 C   0  0  0  0  0  0  0  0  0  0  0  0
  -24.6920   -9.7120   21.7380 C   0  0  0  0  0  3  0  0  0  0  0  0
  -23.9420   -8.5280   21.9120 C   0  0  0  0  0  3  0  0  0  0  0  0
  -22.7380   -8.3400   21.1930 C   0  0  0  0  0  0  0  0  0  0  0  0
  -22.3150   -9.3310   20.2900 C   0  0  0  0  0  3  0  0  0  0  0  0
  -23.0660  -10.5050   20.1150 C   0  0  0  0  0  3  0  0  0  0  0  0
  -21.9580   -7.2130   21.2790 O   0  0  0  0  0  0  0  0  0  0  0  0
  -21.8910   -6.4660   22.4280 C   0  0  0  0  0  0  0  0  0  0  0  0
  -21.4870   -7.0280   23.6590 C   0  0  0  0  0  3  0  0  0  0  0  0
  -21.3610   -6.2100   24.7990 C   0  0  0  0  0  3  0  0  0  0  0  0
  -21.6340   -4.8310   24.7110 C   0  0  0  0  0  0  0  0  0  0  0  0
  -22.0360   -4.2700   23.4880 C   0  0  0  0  0  3  0  0  0  0  0  0
  -22.1600   -5.0840   22.3490 C   0  0  0  0  0  0  0  0  0  0  0  0
  -22.5250   -4.5340   21.1650 F   0  0  0  0  0  0  0  0  0  0  0  0
  -21.5070   -4.0440   25.8050 F   0  0  0  0  0  0  0  0  0  0  0  0
  -23.2450  -13.8270   21.2060 C   0  0  0  0  0  0  0  0  0  0  0  0
  -22.5700  -13.1180   22.1050 N   0  0  0  0  0  0  0  0  0  0  0  0
  -22.7960  -14.8810   20.7600 O   0  0  0  0  0  0  0  0  0  0  0  0
  -22.9500  -12.2600   22.4820 H   0  0  0  0  0  0  0  0  0  0  0  0
  -21.6620  -13.4320   22.4170 H   0  0  0  0  0  0  0  0  0  0  0  0
  -25.8630  -15.4520   20.2660 N   0  0  0  0  0  0  0  0  0  0  0  0
  -25.1250  -16.1270   20.4410 H   0  0  0  0  0  0  0  0  0  0  0  0
  -26.6910  -15.8630   19.8540 H   0  0  0  0  0  0  0  0  0  0  0  0
  -29.5190  -23.0470   20.0910 N   0  0  0  0  0  4  0  0  0  0  0  0
  -29.4550  -22.9340   19.0920 H   0  0  0  0  0  0  0  0  0  0  0  0
  -30.4220  -22.7010   20.3650 H   0  0  0  0  0  0  0  0  0  0  0  0
  -29.4910  -24.5040   20.4400 C   0  0  0  0  0  2  0  0  0  0  0  0
  -28.2830  -25.2870   19.8750 C   0  0  0  0  0  2  0  0  0  0  0  0
  -28.4110  -26.7150   20.0540 O   0  0  0  0  0  0  0  0  0  0  0  0
  -24.6690  -31.8910   23.2160 C   0  0  0  0  0  0  0  0  0  0  0  0
  -27.2470  -27.4650   20.0420 C   0  0  0  0  0  0  0  0  0  0  0  0
  -23.4310  -30.5120   21.5810 C   0  0  0  0  0  3  0  0  0  0  0  0
  -24.8570  -28.9920   20.1090 C   0  0  0  0  0  0  0  0  0  0  0  0
  -25.9550  -30.8670   21.3410 C   0  0  0  0  0  2  0  0  0  0  0  0
  -26.0290  -29.5020   20.6850 C   0  0  0  0  0  0  0  0  0  0  0  0
  -27.2250  -28.7450   20.6500 C   0  0  0  0  0  3  0  0  0  0  0  0
  -26.0550  -26.9870   19.4440 C   0  0  0  0  0  3  0  0  0  0  0  0
  -24.8690  -27.7370   19.4820 C   0  0  0  0  0  3  0  0  0  0  0  0
  -23.6120  -29.8450   20.1900 C   0  0  0  0  0  2  0  0  0  0  0  0
  -24.7060  -31.1050   22.1040 N   0  0  0  0  0  0  0  0  0  0  0  0
  -23.5970  -32.1580   23.7790 O   0  0  0  0  0  0  0  0  0  0  0  0
  -22.7940  -29.4830   22.5420 C   0  0  0  0  0  0  0  0  0  0  0  0
  -21.4710  -29.2870   22.4190 N   0  0  0  0  0  0  0  0  0  0  0  0
  -23.4850  -28.8590   23.3490 O   0  0  0  0  0  0  0  0  0  0  0  0
  -20.9730  -29.8310   21.7290 H   0  0  0  0  0  0  0  0  0  0  0  0
  -18.1200  -28.0440   22.9280 C   0  0  0  0  0  0  0  0  0  0  0  0
  -20.6710  -28.3430   23.1970 C   0  0  0  0  0  3  0  0  0  0  0  0
  -20.7970  -26.9070   22.6410 C   0  0  0  0  0  2  0  0  0  0  0  0
  -19.7080  -26.5720   21.6170 C   0  0  0  0  0  2  0  0  0  0  0  0
  -18.3200  -26.6980   22.2500 C   0  0  0  0  0  2  0  0  0  0  0  0
  -19.2250  -28.8280   23.3530 C   0  0  0  0  0  0  0  0  0  0  0  0
  -18.9880  -30.0940   23.9310 C   0  0  0  0  0  3  0  0  0  0  0  0
  -17.6760  -30.5730   24.1000 C   0  0  0  0  0  3  0  0  0  0  0  0
  -16.5850  -29.7860   23.6960 C   0  0  0  0  0  3  0  0  0  0  0  0
  -16.8070  -28.5240   23.1160 C   0  0  0  0  0  3  0  0  0  0  0  0
  -25.9650  -32.5130   23.8220 C   0  0  0  0  0  3  0  0  0  0  0  0
  -25.6710  -33.9140   24.1530 N   0  0  0  0  0  0  0  0  0  0  0  0
  -26.0210  -34.9620   23.3960 C   0  0  0  0  0  0  0  0  0  0  0  0
  -26.6950  -34.8490   22.3680 O   0  0  0  0  0  0  0  0  0  0  0  0
  -25.0730  -34.0780   24.9500 H   0  0  0  0  0  0  0  0  0  0  0  0
  -24.3290  -36.7820   23.0170 C   0  0  0  0  0  1  0  0  0  0  0  0
  -25.5470  -36.3560   23.8510 C   0  0  0  0  0  3  0  0  0  0  0  0
  -27.6820  -37.1970   24.7220 C   0  0  0  0  0  1  0  0  0  0  0  0
  -26.6000  -37.3920   23.7620 N   0  0  0  0  0  0  0  0  0  0  0  0
  -26.2080  -38.3180   23.9080 H   0  0  0  0  0  0  0  0  0  0  0  0
  -26.4970  -31.7380   25.0890 C   0  0  1  0  0  0  0  0  0  0  0  0
  -25.4180  -31.5040   26.1730 C   0  0  0  0  0  1  0  0  0  0  0  0
  -27.0650  -30.3570   24.6850 C   0  0  0  0  0  1  0  0  0  0  0  0
  -27.6620  -32.5240   25.7340 C   0  0  0  0  0  1  0  0  0  0  0  0
  1  6  1  0
  3  2  1  0
  4  5  1  0
  5  9  1  0
  5  2  2  0
  6  3  2  0
  7  4  2  0
  7  6  1  0
  8  7  1  0
 10 18  1  0
 11 16  1  0
 12 13  1  0
 12 11  1  0
 14 13  1  0
 14 23  1  0
 14 15  1  0
 16 10  1  0
 16 15  1  0
 17 10  2  0
 18  9  1  0
 19 18  1  0
 20 21  2  0
 21 40  1  0
 22 21  1  0
 22 25  1  0
 23 24  1  0
 23 20  1  0
 24 22  2  0
 25 26  1  0
 26 27  2  0
 28 31  1  0
 28 27  1  0
 29 28  2  0
 30 29  1  0
 30 25  2  0
 31 32  1  0
 32 33  1  0
 33 34  2  0
 35 34  1  0
 35 39  1  0
 36 35  2  0
 37 32  2  0
 37 36  1  0
 38 37  1  0
 40 41  1  0
 41 44  1  0
 41 43  1  0
 42 40  2  0
 45 20  1  0
 45 46  1  0
 47 45  1  0
 48 50  1  0
 48 51  1  0
 48  1  1  0
 49 48  1  0
 52 53  1  0
 52 51  1  0
 54 65  2  0
 55 53  1  0
 55 60  1  0
 56 64  1  0
 56 66  1  0
 57 63  1  0
 57 59  1  0
 58 64  1  0
 59 58  1  0
 60 59  2  0
 61 62  1  0
 61 55  2  0
 62 57  2  0
 63 56  1  0
 64 54  1  0
 66 68  2  0
 67 66  1  0
 69 67  1  0
 70 79  2  0
 70 75  1  0
 71 67  1  0
 71 75  1  0
 72 71  1  0
 73 74  1  0
 73 72  1  0
 74 70  1  0
 75 76  2  0
 76 77  1  0
 78 77  2  0
 79 78  1  0
 80 54  1  0
 80 81  1  0
 80 90  1  0
 81 84  1  0
 82 86  1  0
 82 81  1  0
 83 82  2  0
 86 85  1  0
 88 86  1  0
 88 89  1  0
 88 87  1  0
 90 93  1  1
 90 91  1  0
 92 90  1  0
M  ISO  4  10 100  18 100  52 101  53 101
M  END
>  <TORSDO>  (50) 
F 21

>  <SCORE>  (50) 
-12.698

>  <name>  (50) 
49

>  <ligand_id>  (50) 
49

>  <original_smiles>  (50) 
[H]c1c([H])c([H])c2c(c1[H])C([H])([H])C([H])([H])C([H])([H])C2([H])N([H])C(=O)C1([H])N(C(=O)C([H])(N([H])C(=O)C([H])(N([H])C([H])([H])[H])C([H])([H])[H])C(C([H])([H])[H])(C([H])([H])[H])C([H])([H])[H])C([H])([H])c2c([H])c(OC([H])([H])C([H])([H])[N+]([H])([H])C([H])([H])c3c([H])c([H])c(C([H])([H])N([H])C(=O)N4C([H])([H])C([H])([H])C([H])([H])C([H])(n5nc(-c6c([H])c([H])c(Oc7c([H])c([H])c(F)c([H])c7F)c([H])c6[H])c(C(=O)N([H])[H])c5N([H])[H])C4([H])[H])c([H])c3Cl)c([H])c([H])c2C1([H])[H]

>  <smiles>  (50) 
[H]c1c([H])c([H])c2c(c1[H])C([H])([H])C([H])([H])C([H])([H])C2([H])N([H])C(=O)C1([H])N(C(=O)C([H])(N([H])C(=O)C([H])(N([H])C([H])([H])[H])C([H])([H])[H])C(C([H])([H])[H])(C([H])([H])[H])C([H])([H])[H])C([H])([H])c2c([H])c(OC([H])([H])C([H])([H])[N+]([H])([H])C([H])([H])c3c([H])c([H])c(C([H])([H])N([H])C(=O)N4C([H])([H])C([H])([H])C([H])([H])C([H])(n5nc(-c6c([H])c([H])c(Oc7c([H])c([H])c(F)c([H])c7F)c([H])c6[H])c(C(=O)N([H])[H])c5N([H])[H])C4([H])[H])c([H])c3Cl)c([H])c([H])c2C1([H])[H]

$$$$
50:0:0
     RDKit          3D

 97106  0  0  1  0  0  0  0  0999 V2000
  -28.7200  -22.3470   21.6770 C   0  0  0  0  0  0  0  0  0  0  0  0
  -29.7070  -22.2470   22.5820 C   0  0  0  0  0  2  0  0  0  0  0  0
  -27.2360  -22.3550   21.9730 C   0  0  0  0  0  2  0  0  0  0  0  0
  -26.7040  -23.7850   22.1580 C   0  0  0  0  0  2  0  0  0  0  0  0
  -26.8110  -24.7230   20.9310 C   0  0  0  0  0  2  0  0  0  0  0  0
  -29.0770  -24.0140   19.7710 C   0  0  0  0  0  2  0  0  0  0  0  0
  -28.2510  -25.1850   20.5360 C   0  0  0  0  0  3  0  0  0  0  0  0
  -28.9030  -22.5470   20.2190 N   0  0  1  0  0  4  0  0  0  0  0  0
  -27.9630  -22.4160   19.8780 H   0  0  0  0  0  0  0  0  0  0  0  0
  -28.3570  -26.6050   20.0090 O   0  0  0  0  0  0  0  0  0  0  0  0
  -24.5800  -31.9100   23.2060 C   0  0  0  0  0  0  0  0  0  0  0  0
  -27.2590  -27.4920   19.9850 C   0  0  0  0  0  0  0  0  0  0  0  0
  -23.4100  -30.5730   21.4920 C   0  0  0  0  0  3  0  0  0  0  0  0
  -24.8910  -29.1090   20.0020 C   0  0  0  0  0  0  0  0  0  0  0  0
  -25.9490  -30.9210   21.3510 C   0  0  0  0  0  2  0  0  0  0  0  0
  -26.0490  -29.5720   20.6430 C   0  0  0  0  0  0  0  0  0  0  0  0
  -27.2370  -28.7750   20.6240 C   0  0  0  0  0  3  0  0  0  0  0  0
  -26.0940  -27.1110   19.2840 C   0  0  0  0  0  3  0  0  0  0  0  0
  -24.9180  -27.8880   19.3120 C   0  0  0  0  0  3  0  0  0  0  0  0
  -23.6450  -29.9690   20.0820 C   0  0  0  0  0  2  0  0  0  0  0  0
  -24.6650  -31.1520   22.0740 N   0  0  0  0  0  0  0  0  0  0  0  0
  -23.4880  -32.1510   23.7430 O   0  0  0  0  0  0  0  0  0  0  0  0
  -22.7480  -29.5060   22.3970 C   0  0  0  0  0  0  0  0  0  0  0  0
  -21.4210  -29.3390   22.2650 N   0  0  0  0  0  0  0  0  0  0  0  0
  -23.4270  -28.8350   23.1780 O   0  0  0  0  0  0  0  0  0  0  0  0
  -20.9320  -29.9330   21.6100 H   0  0  0  0  0  0  0  0  0  0  0  0
  -18.0320  -28.1800   22.7720 C   0  0  0  0  0  0  0  0  0  0  0  0
  -20.6040  -28.3600   22.9840 C   0  0  0  0  0  3  0  0  0  0  0  0
  -20.6550  -26.9770   22.2960 C   0  0  0  0  0  2  0  0  0  0  0  0
  -19.5160  -26.7580   21.2960 C   0  0  0  0  0  2  0  0  0  0  0  0
  -18.1570  -26.8840   21.9890 C   0  0  0  0  0  2  0  0  0  0  0  0
  -19.1800  -28.8810   23.2260 C   0  0  0  0  0  0  0  0  0  0  0  0
  -19.0080  -30.0990   23.9190 C   0  0  0  0  0  3  0  0  0  0  0  0
  -17.7200  -30.6120   24.1660 C   0  0  0  0  0  3  0  0  0  0  0  0
  -16.5860  -29.9040   23.7300 C   0  0  0  0  0  3  0  0  0  0  0  0
  -16.7440  -28.6910   23.0360 C   0  0  0  0  0  3  0  0  0  0  0  0
  -25.8500  -32.5260   23.8700 C   0  0  0  0  0  3  0  0  0  0  0  0
  -25.5480  -33.9270   24.1920 N   0  0  0  0  0  0  0  0  0  0  0  0
  -25.9020  -34.9770   23.4380 C   0  0  0  0  0  0  0  0  0  0  0  0
  -26.5870  -34.8650   22.4170 O   0  0  0  0  0  0  0  0  0  0  0  0
  -24.9410  -34.0870   24.9830 H   0  0  0  0  0  0  0  0  0  0  0  0
  -24.1930  -36.7840   23.0600 C   0  0  0  0  0  1  0  0  0  0  0  0
  -25.4220  -36.3700   23.8850 C   0  0  0  0  0  3  0  0  0  0  0  0
  -27.5470  -37.2480   24.7450 C   0  0  0  0  0  1  0  0  0  0  0  0
  -26.4640  -37.4140   23.7800 N   0  0  0  0  0  0  0  0  0  0  0  0
  -26.0630  -38.3390   23.9130 H   0  0  0  0  0  0  0  0  0  0  0  0
  -26.3120  -31.7500   25.1650 C   0  0  1  0  0  0  0  0  0  0  0  0
  -25.1770  -31.5270   26.1910 C   0  0  0  0  0  1  0  0  0  0  0  0
  -26.8970  -30.3670   24.7950 C   0  0  0  0  0  1  0  0  0  0  0  0
  -27.4450  -32.5340   25.8680 C   0  0  0  0  0  1  0  0  0  0  0  0
  -29.5370  -21.4080   19.3940 C   0  0  0  0  0  2  0  0  0  0  0  0
  -32.0050  -17.9450   20.7870 C   0  0  0  0  0  3  0  0  0  0  0  0
  -32.5000  -19.2600   20.7190 C   0  0  0  0  0  3  0  0  0  0  0  0
  -29.8270  -18.7690   20.0670 C   0  0  0  0  0  0  0  0  0  0  0  0
  -30.3250  -20.1470   19.9930 C   0  0  0  0  0  0  0  0  0  0  0  0
  -30.6770  -17.6300   20.4200 C   0  0  0  0  0  0  0  0  0  0  0  0
  -31.7000  -20.3310   20.2840 C   0  0  0  0  0  0  0  0  0  0  0  0
  -28.3820  -18.4890   19.6880 C   0  0  0  0  0  1  0  0  0  0  0  0
  -32.4750  -21.8610   20.0410 Cl  0  0  0  0  0  0  0  0  0  0  0  0
  -30.9620  -15.0340   20.2080 C   0  0  0  0  0  0  0  0  0  0  0  0
  -30.6820  -12.7680   19.1930 C   0  0  0  0  0  2  0  0  0  0  0  0
  -29.7270  -12.8570   17.9840 C   0  0  0  0  0  2  0  0  0  0  0  0
  -28.2620  -12.7080   18.4350 C   0  0  0  0  0  2  0  0  0  0  0  0
  -27.9180  -13.5990   19.6590 C   0  0  0  0  0  3  0  0  0  0  0  0
  -28.9960  -13.5090   20.7620 C   0  0  0  0  0  2  0  0  0  0  0  0
  -30.2860  -13.8360   20.1430 N   0  0  0  0  0  0  0  0  0  0  0  0
  -32.1440  -15.0710   19.8590 O   0  0  0  0  0  0  0  0  0  0  0  0
  -30.2440  -16.2050   20.4350 N   0  0  0  0  0  0  0  0  0  0  0  0
  -29.2560  -16.0560   20.5650 H   0  0  0  0  0  0  0  0  0  0  0  0
  -25.5510  -14.2080   20.4400 C   0  0  0  0  0  0  0  0  0  0  0  0
  -24.4830  -13.4410   20.8190 C   0  0  0  0  0  0  0  0  0  0  0  0
  -24.9260  -12.0860   20.7590 C   0  0  0  0  0  0  0  0  0  0  0  0
  -26.5800  -13.3190   20.1720 N   0  0  0  0  0  0  0  0  0  0  0  0
  -26.2110  -12.0360   20.4270 N   0  0  0  0  0  0  0  0  0  0  0  0
  -24.1850  -10.8300   20.9410 C   0  0  0  0  0  0  0  0  0  0  0  0
  -24.5930   -9.8630   21.8850 C   0  0  0  0  0  3  0  0  0  0  0  0
  -23.8520   -8.6730   22.0580 C   0  0  0  0  0  3  0  0  0  0  0  0
  -22.6900   -8.4420   21.2840 C   0  0  0  0  0  0  0  0  0  0  0  0
  -22.3010   -9.3970   20.3290 C   0  0  0  0  0  3  0  0  0  0  0  0
  -23.0410  -10.5800   20.1560 C   0  0  0  0  0  3  0  0  0  0  0  0
  -21.9230   -7.3050   21.3650 O   0  0  0  0  0  0  0  0  0  0  0  0
  -21.8240   -6.5850   22.5290 C   0  0  0  0  0  0  0  0  0  0  0  0
  -21.3110   -7.1530   23.7150 C   0  0  0  0  0  3  0  0  0  0  0  0
  -21.1610   -6.3580   24.8700 C   0  0  0  0  0  3  0  0  0  0  0  0
  -21.5140   -4.9950   24.8370 C   0  0  0  0  0  0  0  0  0  0  0  0
  -22.0200   -4.4270   23.6550 C   0  0  0  0  0  3  0  0  0  0  0  0
  -22.1720   -5.2190   22.5040 C   0  0  0  0  0  0  0  0  0  0  0  0
  -22.6410   -4.6610   21.3620 F   0  0  0  0  0  0  0  0  0  0  0  0
  -21.3640   -4.2300   25.9420 F   0  0  0  0  0  0  0  0  0  0  0  0
  -23.0970  -13.9330   21.1200 C   0  0  0  0  0  0  0  0  0  0  0  0
  -22.3750  -13.2360   21.9900 N   0  0  0  0  0  0  0  0  0  0  0  0
  -22.6630  -14.9690   20.6180 O   0  0  0  0  0  0  0  0  0  0  0  0
  -22.7400  -12.3960   22.4160 H   0  0  0  0  0  0  0  0  0  0  0  0
  -21.4440  -13.5440   22.2330 H   0  0  0  0  0  0  0  0  0  0  0  0
  -25.7290  -15.5770   20.2740 N   0  0  0  0  0  0  0  0  0  0  0  0
  -24.9630  -16.2340   20.3810 H   0  0  0  0  0  0  0  0  0  0  0  0
  -26.5510  -15.9940   19.8600 H   0  0  0  0  0  0  0  0  0  0  0  0
  1  3  1  0
  1  2  2  0
  3  4  1  0
  5  4  1  0
  6  8  1  0
  6  7  1  0
  7 10  1  0
  7  5  1  0
  8  1  1  0
  8  9  1  6
 11 22  2  0
 12 10  1  0
 12 17  1  0
 13 21  1  0
 13 23  1  0
 14 20  1  0
 14 16  1  0
 15 21  1  0
 16 15  1  0
 17 16  2  0
 18 19  1  0
 18 12  2  0
 19 14  2  0
 20 13  1  0
 21 11  1  0
 23 25  2  0
 24 23  1  0
 26 24  1  0
 27 36  2  0
 27 32  1  0
 28 24  1  0
 28 32  1  0
 29 28  1  0
 30 31  1  0
 30 29  1  0
 31 27  1  0
 32 33  2  0
 33 34  1  0
 35 34  2  0
 36 35  1  0
 37 11  1  0
 37 38  1  0
 37 47  1  0
 38 41  1  0
 39 43  1  0
 39 38  1  0
 40 39  2  0
 43 42  1  0
 45 43  1  0
 45 46  1  0
 45 44  1  0
 47 50  1  1
 47 48  1  0
 49 47  1  0
 51 55  1  0
 51  8  1  0
 53 52  1  0
 54 56  1  0
 55 54  2  0
 55 57  1  0
 56 68  1  0
 56 52  2  0
 57 53  2  0
 58 54  1  0
 59 57  1  0
 60 68  1  0
 61 66  1  0
 62 63  1  0
 62 61  1  0
 64 63  1  0
 64 73  1  0
 64 65  1  0
 66 60  1  0
 66 65  1  0
 67 60  2  0
 68 69  1  0
 70 71  2  0
 71 90  1  0
 72 71  1  0
 72 75  1  0
 73 74  1  0
 73 70  1  0
 74 72  2  0
 75 76  1  0
 76 77  2  0
 78 81  1  0
 78 77  1  0
 79 78  2  0
 80 79  1  0
 80 75  2  0
 81 82  1  0
 82 83  1  0
 83 84  2  0
 85 84  1  0
 85 89  1  0
 86 85  2  0
 87 82  2  0
 87 86  1  0
 88 87  1  0
 90 91  1  0
 91 94  1  0
 91 93  1  0
 92 90  2  0
 95 96  1  0
 95 70  1  0
 97 95  1  0
M  ISO  4   7 101  10 101  60 100  68 100
M  END
>  <TORSDO>  (51) 
F 18

>  <SCORE>  (51) 
-14.296

>  <name>  (51) 
50

>  <ligand_id>  (51) 
50

>  <original_smiles>  (51) 
[H]C([H])=C1C([H])([H])C([H])([H])C([H])([H])C([H])(Oc2c([H])c([H])c3c(c2[H])C([H])([H])N(C(=O)C([H])(N([H])C(=O)C([H])(N([H])C([H])([H])[H])C([H])([H])[H])C(C([H])([H])[H])(C([H])([H])[H])C([H])([H])[H])C([H])(C(=O)N([H])C2([H])c4c([H])c([H])c([H])c([H])c4C([H])([H])C([H])([H])C2([H])[H])C3([H])[H])C([H])([H])[N+]1([H])C([H])([H])c1c(Cl)c([H])c([H])c(N([H])C(=O)N2C([H])([H])C([H])([H])C([H])([H])C([H])(n3nc(-c4c([H])c([H])c(Oc5c([H])c([H])c(F)c([H])c5F)c([H])c4[H])c(C(=O)N([H])[H])c3N([H])[H])C2([H])[H])c1C([H])([H])[H]

>  <smiles>  (51) 
[H]C([H])=C1C([H])([H])C([H])([H])C([H])([H])C([H])(Oc2c([H])c([H])c3c(c2[H])C([H])([H])N(C(=O)C([H])(N([H])C(=O)C([H])(N([H])C([H])([H])[H])C([H])([H])[H])C(C([H])([H])[H])(C([H])([H])[H])C([H])([H])[H])C([H])(C(=O)N([H])C2([H])c4c([H])c([H])c([H])c([H])c4C([H])([H])C([H])([H])C2([H])[H])C3([H])[H])C([H])([H])[N+]1([H])C([H])([H])c1c(Cl)c([H])c([H])c(N([H])C(=O)N2C([H])([H])C([H])([H])C([H])([H])C([H])(n3nc(-c4c([H])c([H])c(Oc5c([H])c([H])c(F)c([H])c5F)c([H])c4[H])c(C(=O)N([H])[H])c3N([H])[H])C2([H])[H])c1C([H])([H])[H]

$$$$
51:0:0
     RDKit          3D

102111  0  0  1  0  0  0  0  0999 V2000
  -28.7740  -23.7830   21.8880 C   0  0  0  0  0  0  0  0  0  0  0  0
  -28.7510  -22.9260   22.9320 C   0  0  0  0  0  3  0  0  0  0  0  0
  -27.7640  -24.9290   21.8230 C   0  0  0  0  0  2  0  0  0  0  0  0
  -28.4270  -26.2240   21.3410 C   0  0  0  0  0  2  0  0  0  0  0  0
  -29.2450  -24.6320   19.5290 C   0  0  0  0  0  2  0  0  0  0  0  0
  -28.8070  -26.1150   19.8430 C   0  0  0  0  0  3  0  0  0  0  0  0
  -29.7890  -23.9340   20.7520 N   0  0  2  0  0  4  0  0  0  0  0  0
  -30.3480  -24.7010   21.0980 H   0  0  0  0  0  0  0  0  0  0  0  0
  -29.7030  -21.9110   23.3030 C   0  0  0  0  0  3  0  0  0  0  0  0
  -29.4820  -21.0340   24.2910 C   0  0  0  0  0  3  0  0  0  0  0  0
  -30.2600  -19.0420   25.4970 C   0  0  0  0  0  3  0  0  0  0  0  0
  -30.4650  -20.0270   24.6120 C   0  0  0  0  0  3  0  0  0  0  0  0
  -31.0530  -17.0190   26.6050 C   0  0  0  0  0  2  0  0  0  0  0  0
  -31.2730  -18.0540   25.7810 C   0  0  0  0  0  3  0  0  0  0  0  0
  -27.7970  -26.5790   18.9020 O   0  0  0  0  0  0  0  0  0  0  0  0
  -25.3670  -30.9980   23.9920 C   0  0  0  0  0  0  0  0  0  0  0  0
  -26.8170  -27.4590   19.3380 C   0  0  0  0  0  0  0  0  0  0  0  0
  -23.7330  -30.3150   22.2640 C   0  0  0  0  0  3  0  0  0  0  0  0
  -24.7140  -29.1460   20.2170 C   0  0  0  0  0  0  0  0  0  0  0  0
  -26.2300  -30.4420   21.7190 C   0  0  0  0  0  2  0  0  0  0  0  0
  -26.0130  -29.3350   20.7080 C   0  0  0  0  0  0  0  0  0  0  0  0
  -27.0710  -28.5050   20.2600 C   0  0  0  0  0  3  0  0  0  0  0  0
  -25.5060  -27.2980   18.8440 C   0  0  0  0  0  3  0  0  0  0  0  0
  -24.4560  -28.1280   19.2810 C   0  0  0  0  0  3  0  0  0  0  0  0
  -23.6390  -30.0750   20.7340 C   0  0  0  0  0  2  0  0  0  0  0  0
  -25.1370  -30.5820   22.7140 N   0  0  0  0  0  0  0  0  0  0  0  0
  -24.4280  -31.2060   24.7730 O   0  0  0  0  0  0  0  0  0  0  0  0
  -23.0750  -29.1210   22.9950 C   0  0  0  0  0  0  0  0  0  0  0  0
  -21.7820  -28.8880   22.7130 N   0  0  0  0  0  0  0  0  0  0  0  0
  -23.7250  -28.4130   23.7670 O   0  0  0  0  0  0  0  0  0  0  0  0
  -21.3150  -29.5160   22.0740 H   0  0  0  0  0  0  0  0  0  0  0  0
  -18.6350  -27.1530   22.3390 C   0  0  0  0  0  0  0  0  0  0  0  0
  -20.9660  -27.8000   23.2530 C   0  0  0  0  0  3  0  0  0  0  0  0
  -21.4440  -26.4300   22.7190 C   0  0  0  0  0  2  0  0  0  0  0  0
  -20.6980  -25.9830   21.4590 C   0  0  0  0  0  2  0  0  0  0  0  0
  -19.1940  -25.8800   21.7270 C   0  0  0  0  0  2  0  0  0  0  0  0
  -19.4690  -28.0610   23.0420 C   0  0  0  0  0  0  0  0  0  0  0  0
  -18.9050  -29.2460   23.5600 C   0  0  0  0  0  3  0  0  0  0  0  0
  -17.5350  -29.5260   23.3920 C   0  0  0  0  0  3  0  0  0  0  0  0
  -16.7100  -28.6160   22.7090 C   0  0  0  0  0  3  0  0  0  0  0  0
  -17.2610  -27.4320   22.1870 C   0  0  0  0  0  3  0  0  0  0  0  0
  -26.8090  -31.2660   24.5210 C   0  0  0  0  0  3  0  0  0  0  0  0
  -26.7910  -32.5500   25.2350 N   0  0  0  0  0  0  0  0  0  0  0  0
  -27.3650  -33.6750   24.7900 C   0  0  0  0  0  0  0  0  0  0  0  0
  -28.0350  -33.7200   23.7540 O   0  0  0  0  0  0  0  0  0  0  0  0
  -26.2160  -32.5960   26.0630 H   0  0  0  0  0  0  0  0  0  0  0  0
  -26.1750  -35.8870   24.9080 C   0  0  0  0  0  1  0  0  0  0  0  0
  -27.1620  -34.9530   25.6250 C   0  0  0  0  0  3  0  0  0  0  0  0
  -29.3090  -34.9640   26.8170 C   0  0  0  0  0  1  0  0  0  0  0  0
  -28.4200  -35.6800   25.9050 N   0  0  0  0  0  0  0  0  0  0  0  0
  -28.2270  -36.5940   26.3060 H   0  0  0  0  0  0  0  0  0  0  0  0
  -27.3500  -30.1160   25.4580 C   0  0  1  0  0  0  0  0  0  0  0  0
  -26.3830  -29.7450   26.6070 C   0  0  0  0  0  1  0  0  0  0  0  0
  -27.6270  -28.8330   24.6390 C   0  0  0  0  0  1  0  0  0  0  0  0
  -28.6980  -30.5370   26.0890 C   0  0  0  0  0  1  0  0  0  0  0  0
  -30.9790  -23.0290   20.5350 C   0  0  0  0  0  2  0  0  0  0  0  0
  -30.1060  -19.4670   19.2170 C   0  0  0  0  0  3  0  0  0  0  0  0
  -29.9910  -20.8490   19.5220 C   0  0  0  0  0  3  0  0  0  0  0  0
  -31.9340  -19.2520   20.7840 C   0  0  0  0  0  3  0  0  0  0  0  0
  -31.1000  -18.6560   19.8200 C   0  0  0  0  0  0  0  0  0  0  0  0
  -30.9040  -21.4770   20.4000 C   0  0  0  0  0  0  0  0  0  0  0  0
  -31.8870  -20.6460   21.0300 C   0  0  0  0  0  0  0  0  0  0  0  0
  -33.0200  -21.2240   21.8660 C   0  0  0  0  0  1  0  0  0  0  0  0
  -31.4740  -17.2810   19.2270 C   0  0  0  0  0  2  0  0  0  0  0  0
  -31.5440  -14.8310   19.5160 C   0  0  0  0  0  0  0  0  0  0  0  0
  -31.0620  -12.5940   18.6080 C   0  0  0  0  0  2  0  0  0  0  0  0
  -30.0810  -12.7320   17.4250 C   0  0  0  0  0  2  0  0  0  0  0  0
  -28.6230  -12.7130   17.9250 C   0  0  0  0  0  2  0  0  0  0  0  0
  -28.3850  -13.6660   19.1290 C   0  0  0  0  0  3  0  0  0  0  0  0
  -29.4870  -13.5160   20.2030 C   0  0  0  0  0  2  0  0  0  0  0  0
  -30.7860  -13.6990   19.5440 N   0  0  0  0  0  0  0  0  0  0  0  0
  -32.6840  -14.8280   19.0480 O   0  0  0  0  0  0  0  0  0  0  0  0
  -30.9330  -16.0130   19.7810 N   0  0  0  0  0  0  0  0  0  0  0  0
  -29.9740  -15.9960   20.0950 H   0  0  0  0  0  0  0  0  0  0  0  0
  -26.0700  -14.4380   19.9290 C   0  0  0  0  0  0  0  0  0  0  0  0
  -24.9820  -13.7480   20.3940 C   0  0  0  0  0  0  0  0  0  0  0  0
  -25.3670  -12.3720   20.4090 C   0  0  0  0  0  0  0  0  0  0  0  0
  -27.0490  -13.4880   19.6910 N   0  0  0  0  0  0  0  0  0  0  0  0
  -26.6350  -12.2420   20.0400 N   0  0  0  0  0  0  0  0  0  0  0  0
  -24.5840  -11.1640   20.7020 C   0  0  0  0  0  0  0  0  0  0  0  0
  -24.9820  -10.2490   21.7010 C   0  0  0  0  0  3  0  0  0  0  0  0
  -24.2030   -9.1030   21.9750 C   0  0  0  0  0  3  0  0  0  0  0  0
  -23.0110   -8.8680   21.2510 C   0  0  0  0  0  0  0  0  0  0  0  0
  -22.6310   -9.7700   20.2420 C   0  0  0  0  0  3  0  0  0  0  0  0
  -23.4090  -10.9060   19.9660 C   0  0  0  0  0  3  0  0  0  0  0  0
  -22.2030   -7.7710   21.4330 O   0  0  0  0  0  0  0  0  0  0  0  0
  -22.0340   -7.1980   22.6670 C   0  0  0  0  0  0  0  0  0  0  0  0
  -21.5500   -7.9340   23.7710 C   0  0  0  0  0  3  0  0  0  0  0  0
  -21.3240   -7.2900   25.0040 C   0  0  0  0  0  3  0  0  0  0  0  0
  -21.5740   -5.9100   25.1340 C   0  0  0  0  0  0  0  0  0  0  0  0
  -22.0490   -5.1740   24.0340 C   0  0  0  0  0  3  0  0  0  0  0  0
  -22.2760   -5.8160   22.8050 C   0  0  0  0  0  0  0  0  0  0  0  0
  -22.7150   -5.0990   21.7430 F   0  0  0  0  0  0  0  0  0  0  0  0
  -21.3510   -5.2890   26.3150 F   0  0  0  0  0  0  0  0  0  0  0  0
  -23.6310  -14.3170   20.7100 C   0  0  0  0  0  0  0  0  0  0  0  0
  -22.9260  -13.7290   21.6700 N   0  0  0  0  0  0  0  0  0  0  0  0
  -23.2090  -15.3210   20.1370 O   0  0  0  0  0  0  0  0  0  0  0  0
  -23.2780  -12.9160   22.1530 H   0  0  0  0  0  0  0  0  0  0  0  0
  -22.0190  -14.0940   21.9250 H   0  0  0  0  0  0  0  0  0  0  0  0
  -26.3010  -15.7860   19.6720 N   0  0  0  0  0  0  0  0  0  0  0  0
  -25.5860  -16.4930   19.7990 H   0  0  0  0  0  0  0  0  0  0  0  0
  -27.1580  -16.1580   19.2810 H   0  0  0  0  0  0  0  0  0  0  0  0
  1  2  2  0
  2  9  1  0
  3  1  1  0
  4  3  1  0
  5  6  1  0
  5  7  1  0
  6 15  1  0
  6  4  1  0
  7  8  1  1
  7  1  1  0
  9 10  2  0
 10 12  1  0
 11 14  1  0
 12 11  2  0
 14 13  2  0
 15 17  1  0
 16 27  2  0
 17 22  1  0
 18 26  1  0
 18 28  1  0
 19 21  1  0
 19 25  1  0
 20 26  1  0
 21 20  1  0
 22 21  2  0
 23 24  1  0
 23 17  2  0
 24 19  2  0
 25 18  1  0
 26 16  1  0
 28 30  2  0
 29 28  1  0
 31 29  1  0
 32 37  1  0
 33 29  1  0
 34 33  1  0
 35 36  1  0
 35 34  1  0
 36 32  1  0
 37 33  1  0
 37 38  2  0
 39 38  1  0
 40 39  2  0
 41 32  2  0
 41 40  1  0
 42 16  1  0
 42 43  1  0
 42 52  1  0
 43 46  1  0
 44 43  1  0
 44 48  1  0
 45 44  2  0
 48 47  1  0
 48 50  1  0
 50 51  1  0
 50 49  1  0
 52 55  1  1
 52 53  1  0
 54 52  1  0
 56  7  1  0
 57 58  2  0
 57 60  1  0
 58 61  1  0
 59 62  1  0
 60 59  2  0
 61 56  1  0
 61 62  2  0
 62 63  1  0
 64 73  1  0
 64 60  1  0
 65 71  1  0
 65 73  1  0
 66 71  1  0
 67 68  1  0
 67 66  1  0
 69 68  1  0
 69 78  1  0
 69 70  1  0
 71 70  1  0
 72 65  2  0
 73 74  1  0
 75 76  2  0
 76 77  1  0
 76 95  1  0
 77 80  1  0
 78 75  1  0
 78 79  1  0
 79 77  2  0
 80 81  1  0
 81 82  2  0
 83 86  1  0
 83 82  1  0
 84 83  2  0
 85 84  1  0
 85 80  2  0
 86 87  1  0
 87 92  2  0
 87 88  1  0
 88 89  2  0
 89 90  1  0
 90 94  1  0
 91 90  2  0
 92 91  1  0
 93 92  1  0
 95 96  1  0
 96 99  1  0
 96 98  1  0
 97 95  2  0
100101  1  0
100 75  1  0
102100  1  0
M  ISO  4   6 101  15 101  65 100  73 100
M  END
>  <TORSDO>  (52) 
F 22

>  <SCORE>  (52) 
4.200

>  <name>  (52) 
51

>  <ligand_id>  (52) 
51

>  <original_smiles>  (52) 
[H]C([H])=C([H])C([H])=C([H])C([H])=C([H])C([H])=C1C([H])([H])C([H])([H])C([H])(Oc2c([H])c([H])c3c(c2[H])C([H])([H])N(C(=O)C([H])(N([H])C(=O)C([H])(N([H])C([H])([H])[H])C([H])([H])[H])C(C([H])([H])[H])(C([H])([H])[H])C([H])([H])[H])C([H])(C(=O)N([H])C2([H])c4c([H])c([H])c([H])c([H])c4C([H])([H])C([H])([H])C2([H])[H])C3([H])[H])C([H])([H])[N+]1([H])C([H])([H])c1c([H])c([H])c(C([H])([H])N([H])C(=O)N2C([H])([H])C([H])([H])C([H])([H])C([H])(n3nc(-c4c([H])c([H])c(Oc5c([H])c([H])c(F)c([H])c5F)c([H])c4[H])c(C(=O)N([H])[H])c3N([H])[H])C2([H])[H])c([H])c1C([H])([H])[H]

>  <smiles>  (52) 
[H]C([H])=C([H])C([H])=C([H])C([H])=C([H])C([H])=C1C([H])([H])C([H])([H])C([H])(Oc2c([H])c([H])c3c(c2[H])C([H])([H])N(C(=O)C([H])(N([H])C(=O)C([H])(N([H])C([H])([H])[H])C([H])([H])[H])C(C([H])([H])[H])(C([H])([H])[H])C([H])([H])[H])C([H])(C(=O)N([H])C2([H])c4c([H])c([H])c([H])c([H])c4C([H])([H])C([H])([H])C2([H])[H])C3([H])[H])C([H])([H])[N+]1([H])C([H])([H])c1c([H])c([H])c(C([H])([H])N([H])C(=O)N2C([H])([H])C([H])([H])C([H])([H])C([H])(n3nc(-c4c([H])c([H])c(Oc5c([H])c([H])c(F)c([H])c5F)c([H])c4[H])c(C(=O)N([H])[H])c3N([H])[H])C2([H])[H])c([H])c1C([H])([H])[H]

$$$$
52:0:0
     RDKit          3D

 99108  0  0  1  0  0  0  0  0999 V2000
  -28.1020  -24.3910   20.7930 C   0  0  0  0  0  0  0  0  0  0  0  0
  -26.9590  -24.3180   21.5100 C   0  0  0  0  0  3  0  0  0  0  0  0
  -31.0500  -25.3370   19.4460 C   0  0  0  0  0  2  0  0  0  0  0  0
  -30.9650  -23.8390   19.1640 C   0  0  0  0  0  2  0  0  0  0  0  0
  -30.3940  -25.7600   20.7690 C   0  0  0  0  0  2  0  0  0  0  0  0
  -29.5320  -23.3160   18.9390 C   0  0  0  0  0  2  0  0  0  0  0  0
  -28.8580  -25.7870   20.7630 C   0  0  0  0  0  3  0  0  0  0  0  0
  -28.7490  -23.0860   20.1750 N   0  0  1  0  0  4  0  0  0  0  0  0
  -27.9520  -22.6150   19.7770 H   0  0  0  0  0  0  0  0  0  0  0  0
  -25.1900  -23.1530   22.7140 C   0  0  0  0  0  2  0  0  0  0  0  0
  -26.1190  -23.1630   21.7440 C   0  0  0  0  0  3  0  0  0  0  0  0
  -28.4810  -26.8100   19.7810 O   0  0  0  0  0  0  0  0  0  0  0  0
  -24.4810  -31.8990   23.0810 C   0  0  0  0  0  0  0  0  0  0  0  0
  -27.3250  -27.5750   19.9160 C   0  0  0  0  0  0  0  0  0  0  0  0
  -23.3830  -30.5640   21.3170 C   0  0  0  0  0  3  0  0  0  0  0  0
  -24.9260  -29.1060   19.9000 C   0  0  0  0  0  0  0  0  0  0  0  0
  -25.9170  -30.9500   21.2570 C   0  0  0  0  0  2  0  0  0  0  0  0
  -26.0550  -29.6000   20.5660 C   0  0  0  0  0  0  0  0  0  0  0  0
  -27.2630  -28.8440   20.5660 C   0  0  0  0  0  3  0  0  0  0  0  0
  -26.1740  -27.1200   19.2430 C   0  0  0  0  0  3  0  0  0  0  0  0
  -24.9790  -27.8670   19.2440 C   0  0  0  0  0  3  0  0  0  0  0  0
  -23.6690  -29.9510   19.9220 C   0  0  0  0  0  2  0  0  0  0  0  0
  -24.6120  -31.1530   21.9450 N   0  0  0  0  0  0  0  0  0  0  0  0
  -23.3680  -32.1250   23.5790 O   0  0  0  0  0  0  0  0  0  0  0  0
  -22.7030  -29.4880   22.1940 C   0  0  0  0  0  0  0  0  0  0  0  0
  -21.3740  -29.3480   22.0520 N   0  0  0  0  0  0  0  0  0  0  0  0
  -23.3700  -28.7830   22.9560 O   0  0  0  0  0  0  0  0  0  0  0  0
  -20.9010  -29.9680   21.4110 H   0  0  0  0  0  0  0  0  0  0  0  0
  -17.9520  -28.3320   22.6300 C   0  0  0  0  0  0  0  0  0  0  0  0
  -20.5350  -28.3650   22.7380 C   0  0  0  0  0  3  0  0  0  0  0  0
  -20.4830  -27.0330   21.9560 C   0  0  0  0  0  2  0  0  0  0  0  0
  -19.2950  -26.9430   20.9950 C   0  0  0  0  0  2  0  0  0  0  0  0
  -17.9750  -27.0880   21.7570 C   0  0  0  0  0  2  0  0  0  0  0  0
  -19.1560  -28.9410   23.0770 C   0  0  0  0  0  0  0  0  0  0  0  0
  -19.0800  -30.1140   23.8580 C   0  0  0  0  0  3  0  0  0  0  0  0
  -17.8340  -30.6780   24.1930 C   0  0  0  0  0  3  0  0  0  0  0  0
  -16.6460  -30.0620   23.7600 C   0  0  0  0  0  3  0  0  0  0  0  0
  -16.7080  -28.8890   22.9870 C   0  0  0  0  0  3  0  0  0  0  0  0
  -25.7190  -32.5220   23.7990 C   0  0  0  0  0  3  0  0  0  0  0  0
  -26.1720  -31.7040   25.0700 C   0  0  1  0  0  0  0  0  0  0  0  0
  -25.0240  -31.4110   26.0650 C   0  0  0  0  0  1  0  0  0  0  0  0
  -26.7930  -30.3510   24.6520 C   0  0  0  0  0  1  0  0  0  0  0  0
  -27.2710  -32.4830   25.8280 C   0  0  0  0  0  1  0  0  0  0  0  0
  -25.3700  -33.9010   24.1670 N   0  0  0  0  0  0  0  0  0  0  0  0
  -25.7360  -34.9890   23.4780 C   0  0  0  0  0  0  0  0  0  0  0  0
  -26.4690  -34.9360   22.4860 O   0  0  0  0  0  0  0  0  0  0  0  0
  -24.7170  -34.0140   24.9300 H   0  0  0  0  0  0  0  0  0  0  0  0
  -24.0080  -36.7800   23.0990 C   0  0  0  0  0  1  0  0  0  0  0  0
  -25.2060  -36.3530   23.9630 C   0  0  0  0  0  3  0  0  0  0  0  0
  -27.2760  -37.2250   24.9570 C   0  0  0  0  0  1  0  0  0  0  0  0
  -26.2320  -37.4200   23.9550 N   0  0  0  0  0  0  0  0  0  0  0  0
  -25.8070  -38.3300   24.1130 H   0  0  0  0  0  0  0  0  0  0  0  0
  -29.3160  -21.9690   21.0830 C   0  0  0  0  0  2  0  0  0  0  0  0
  -28.7730  -18.1070   20.2530 C   0  0  0  0  0  3  0  0  0  0  0  0
  -31.0560  -18.3540   20.8820 C   0  0  0  0  0  3  0  0  0  0  0  0
  -28.5850  -19.5280   20.2410 C   0  0  0  0  0  0  0  0  0  0  0  0
  -30.8820  -19.7820   20.9170 C   0  0  0  0  0  0  0  0  0  0  0  0
  -29.6160  -20.4350   20.6570 C   0  0  0  0  0  0  0  0  0  0  0  0
  -29.9930  -17.4660   20.5810 C   0  0  0  0  0  0  0  0  0  0  0  0
  -27.2270  -20.0170   19.7610 C   0  0  0  0  0  1  0  0  0  0  0  0
  -32.1190  -20.5770   21.2950 C   0  0  0  0  0  1  0  0  0  0  0  0
  -30.8410  -15.0030   20.1990 C   0  0  0  0  0  0  0  0  0  0  0  0
  -30.6400  -12.8130   19.0130 C   0  0  0  0  0  2  0  0  0  0  0  0
  -29.6280  -12.9560   17.8510 C   0  0  0  0  0  2  0  0  0  0  0  0
  -28.1840  -12.7410   18.3360 C   0  0  0  0  0  2  0  0  0  0  0  0
  -27.8590  -13.5730   19.6030 C   0  0  0  0  0  3  0  0  0  0  0  0
  -28.9590  -13.3780   20.6760 C   0  0  0  0  0  2  0  0  0  0  0  0
  -30.2490  -13.7690   20.0720 N   0  0  0  0  0  0  0  0  0  0  0  0
  -31.9860  -15.2140   19.7800 O   0  0  0  0  0  0  0  0  0  0  0  0
  -30.0150  -15.9960   20.6670 N   0  0  0  0  0  0  0  0  0  0  0  0
  -29.1310  -15.5980   20.9440 H   0  0  0  0  0  0  0  0  0  0  0  0
  -25.4950  -14.1440   20.4240 C   0  0  0  0  0  0  0  0  0  0  0  0
  -24.4390  -13.3560   20.8050 C   0  0  0  0  0  0  0  0  0  0  0  0
  -24.8980  -12.0080   20.7020 C   0  0  0  0  0  0  0  0  0  0  0  0
  -26.5270  -13.2730   20.1200 N   0  0  0  0  0  0  0  0  0  0  0  0
  -26.1770  -11.9820   20.3430 N   0  0  0  0  0  0  0  0  0  0  0  0
  -24.1810  -10.7380   20.8610 C   0  0  0  0  0  0  0  0  0  0  0  0
  -24.5730   -9.7840   21.8250 C   0  0  0  0  0  3  0  0  0  0  0  0
  -23.8480   -8.5820   21.9750 C   0  0  0  0  0  3  0  0  0  0  0  0
  -22.7240   -8.3220   21.1570 C   0  0  0  0  0  0  0  0  0  0  0  0
  -22.3540   -9.2650   20.1830 C   0  0  0  0  0  3  0  0  0  0  0  0
  -23.0780  -10.4600   20.0320 C   0  0  0  0  0  3  0  0  0  0  0  0
  -21.9830   -7.1670   21.2110 O   0  0  0  0  0  0  0  0  0  0  0  0
  -21.7820   -6.4930   22.3910 C   0  0  0  0  0  0  0  0  0  0  0  0
  -21.1580   -7.1050   23.4970 C   0  0  0  0  0  3  0  0  0  0  0  0
  -20.9130   -6.3570   24.6680 C   0  0  0  0  0  3  0  0  0  0  0  0
  -21.2820   -5.0010   24.7260 C   0  0  0  0  0  0  0  0  0  0  0  0
  -21.8960   -4.3880   23.6200 C   0  0  0  0  0  3  0  0  0  0  0  0
  -22.1450   -5.1340   22.4530 C   0  0  0  0  0  0  0  0  0  0  0  0
  -22.7200   -4.5360   21.3820 F   0  0  0  0  0  0  0  0  0  0  0  0
  -21.0380   -4.2770   25.8450 F   0  0  0  0  0  0  0  0  0  0  0  0
  -23.0520  -13.8240   21.1360 C   0  0  0  0  0  0  0  0  0  0  0  0
  -22.3540  -13.0980   22.0040 N   0  0  0  0  0  0  0  0  0  0  0  0
  -22.5940  -14.8620   20.6610 O   0  0  0  0  0  0  0  0  0  0  0  0
  -22.7350  -12.2560   22.4070 H   0  0  0  0  0  0  0  0  0  0  0  0
  -21.4230  -13.3870   22.2620 H   0  0  0  0  0  0  0  0  0  0  0  0
  -25.6560  -15.5180   20.2860 N   0  0  0  0  0  0  0  0  0  0  0  0
  -24.9230  -16.1770   20.5230 H   0  0  0  0  0  0  0  0  0  0  0  0
  -26.4110  -15.9340   19.7540 H   0  0  0  0  0  0  0  0  0  0  0  0
  1  2  2  0
  2 11  1  0
  3  5  1  0
  4  3  1  0
  6  4  1  0
  6  8  1  0
  7 12  1  0
  7  5  1  0
  7  1  1  0
  8  1  1  0
  8 53  1  0
  8  9  1  6
 11 10  2  0
 12 14  1  0
 13 24  2  0
 14 19  1  0
 15 23  1  0
 15 25  1  0
 16 22  1  0
 16 18  1  0
 17 23  1  0
 18 19  2  0
 18 17  1  0
 20 21  1  0
 20 14  2  0
 21 16  2  0
 22 15  1  0
 23 13  1  0
 25 27  2  0
 26 25  1  0
 28 26  1  0
 29 38  2  0
 29 34  1  0
 30 26  1  0
 30 34  1  0
 31 30  1  0
 32 33  1  0
 32 31  1  0
 33 29  1  0
 34 35  2  0
 35 36  1  0
 37 36  2  0
 38 37  1  0
 39 13  1  0
 39 44  1  0
 39 40  1  0
 40 43  1  1
 40 41  1  0
 42 40  1  0
 44 47  1  0
 45 49  1  0
 45 44  1  0
 46 45  2  0
 49 48  1  0
 51 49  1  0
 51 52  1  0
 51 50  1  0
 54 59  1  0
 55 57  1  0
 56 54  2  0
 56 58  1  0
 57 61  1  0
 58 57  2  0
 58 53  1  0
 59 70  1  0
 59 55  2  0
 60 56  1  0
 62 70  1  0
 63 68  1  0
 64 65  1  0
 64 63  1  0
 66 65  1  0
 66 75  1  0
 66 67  1  0
 68 62  1  0
 68 67  1  0
 69 62  2  0
 70 71  1  0
 72 73  2  0
 73 92  1  0
 74 73  1  0
 74 77  1  0
 75 76  1  0
 75 72  1  0
 76 74  2  0
 77 78  1  0
 78 79  2  0
 80 83  1  0
 80 79  1  0
 81 80  2  0
 82 81  1  0
 82 77  2  0
 83 84  1  0
 84 89  2  0
 84 85  1  0
 85 86  2  0
 86 87  1  0
 87 91  1  0
 88 87  2  0
 89 88  1  0
 90 89  1  0
 92 93  1  0
 93 96  1  0
 93 95  1  0
 94 92  2  0
 97 72  1  0
 97 98  1  0
 99 97  1  0
M  ISO  4   7 101  12 101  62 100  70 100
M  END
>  <TORSDO>  (53) 
F 19

>  <SCORE>  (53) 
-13.037

>  <name>  (53) 
52

>  <ligand_id>  (53) 
52

>  <original_smiles>  (53) 
[H]C([H])=C([H])C([H])=C1C([H])(Oc2c([H])c([H])c3c(c2[H])C([H])([H])N(C(=O)C([H])(N([H])C(=O)C([H])(N([H])C([H])([H])[H])C([H])([H])[H])C(C([H])([H])[H])(C([H])([H])[H])C([H])([H])[H])C([H])(C(=O)N([H])C2([H])c4c([H])c([H])c([H])c([H])c4C([H])([H])C([H])([H])C2([H])[H])C3([H])[H])C([H])([H])C([H])([H])C([H])([H])C([H])([H])[N+]1([H])C([H])([H])c1c(C([H])([H])[H])c([H])c(N([H])C(=O)N2C([H])([H])C([H])([H])C([H])([H])C([H])(n3nc(-c4c([H])c([H])c(Oc5c([H])c([H])c(F)c([H])c5F)c([H])c4[H])c(C(=O)N([H])[H])c3N([H])[H])C2([H])[H])c([H])c1C([H])([H])[H]

>  <smiles>  (53) 
[H]C([H])=C([H])C([H])=C1C([H])(Oc2c([H])c([H])c3c(c2[H])C([H])([H])N(C(=O)C([H])(N([H])C(=O)C([H])(N([H])C([H])([H])[H])C([H])([H])[H])C(C([H])([H])[H])(C([H])([H])[H])C([H])([H])[H])C([H])(C(=O)N([H])C2([H])c4c([H])c([H])c([H])c([H])c4C([H])([H])C([H])([H])C2([H])[H])C3([H])[H])C([H])([H])C([H])([H])C([H])([H])C([H])([H])[N+]1([H])C([H])([H])c1c(C([H])([H])[H])c([H])c(N([H])C(=O)N2C([H])([H])C([H])([H])C([H])([H])C([H])(n3nc(-c4c([H])c([H])c(Oc5c([H])c([H])c(F)c([H])c5F)c([H])c4[H])c(C(=O)N([H])[H])c3N([H])[H])C2([H])[H])c([H])c1C([H])([H])[H]

$$$$
53:0:0
     RDKit          3D

 93101  0  0  1  0  0  0  0  0999 V2000
  -30.2940  -21.7490   20.6390 C   0  0  0  0  0  0  0  0  0  0  0  0
  -29.3720  -22.6170   20.1190 N   0  0  0  0  0  0  0  0  0  0  0  0
  -31.2400  -22.2100   21.2820 O   0  0  0  0  0  0  0  0  0  0  0  0
  -28.6080  -22.2310   19.5840 H   0  0  0  0  0  0  0  0  0  0  0  0
  -28.9820  -19.5240   20.3980 C   0  0  0  0  0  3  0  0  0  0  0  0
  -31.2740  -17.9230   20.4810 C   0  0  0  0  0  3  0  0  0  0  0  0
  -30.2210  -20.2070   20.4570 C   0  0  0  0  0  0  0  0  0  0  0  0
  -28.8840  -18.0980   20.3960 C   0  0  0  0  0  0  0  0  0  0  0  0
  -31.3790  -19.3530   20.4830 C   0  0  0  0  0  0  0  0  0  0  0  0
  -30.0280  -17.2460   20.4530 C   0  0  0  0  0  0  0  0  0  0  0  0
  -27.5000  -17.4940   20.3050 C   0  0  0  0  0  1  0  0  0  0  0  0
  -32.7880  -19.9330   20.5240 C   0  0  0  0  0  1  0  0  0  0  0  0
  -30.6150  -14.7090   20.0830 C   0  0  0  0  0  0  0  0  0  0  0  0
  -30.3070  -12.5020   18.9710 C   0  0  0  0  0  2  0  0  0  0  0  0
  -29.2990  -12.6640   17.8100 C   0  0  0  0  0  2  0  0  0  0  0  0
  -27.8510  -12.5040   18.3140 C   0  0  0  0  0  2  0  0  0  0  0  0
  -27.5670  -13.3380   19.5930 C   0  0  0  0  0  3  0  0  0  0  0  0
  -28.6870  -13.1550   20.6450 C   0  0  0  0  0  2  0  0  0  0  0  0
  -29.9670  -13.5020   20.0030 N   0  0  0  0  0  0  0  0  0  0  0  0
  -31.7650  -14.8380   19.6530 O   0  0  0  0  0  0  0  0  0  0  0  0
  -29.8510  -15.7810   20.4810 N   0  0  0  0  0  0  0  0  0  0  0  0
  -28.9360  -15.4900   20.7870 H   0  0  0  0  0  0  0  0  0  0  0  0
  -25.2110  -13.9280   20.4350 C   0  0  0  0  0  0  0  0  0  0  0  0
  -24.1620  -13.1580   20.8510 C   0  0  0  0  0  0  0  0  0  0  0  0
  -24.6150  -11.8070   20.7710 C   0  0  0  0  0  0  0  0  0  0  0  0
  -26.2430  -13.0510   20.1400 N   0  0  0  0  0  0  0  0  0  0  0  0
  -25.8900  -11.7660   20.4010 N   0  0  0  0  0  0  0  0  0  0  0  0
  -23.8870  -10.5470   20.9660 C   0  0  0  0  0  0  0  0  0  0  0  0
  -24.3330   -9.5740   21.8870 C   0  0  0  0  0  3  0  0  0  0  0  0
  -23.6040   -8.3800   22.0720 C   0  0  0  0  0  3  0  0  0  0  0  0
  -22.4170   -8.1520   21.3360 C   0  0  0  0  0  0  0  0  0  0  0  0
  -21.9900   -9.1150   20.4050 C   0  0  0  0  0  3  0  0  0  0  0  0
  -22.7200  -10.3010   20.2170 C   0  0  0  0  0  3  0  0  0  0  0  0
  -21.6570   -7.0110   21.4320 O   0  0  0  0  0  0  0  0  0  0  0  0
  -21.5930   -6.2870   22.5950 C   0  0  0  0  0  0  0  0  0  0  0  0
  -21.1400   -6.8590   23.8050 C   0  0  0  0  0  3  0  0  0  0  0  0
  -21.0220   -6.0610   24.9600 C   0  0  0  0  0  3  0  0  0  0  0  0
  -21.3490   -4.6920   24.9070 C   0  0  0  0  0  0  0  0  0  0  0  0
  -21.7940   -4.1200   23.7040 C   0  0  0  0  0  3  0  0  0  0  0  0
  -21.9140   -4.9150   22.5500 C   0  0  0  0  0  0  0  0  0  0  0  0
  -22.3240   -4.3540   21.3860 F   0  0  0  0  0  0  0  0  0  0  0  0
  -21.2280   -3.9240   26.0140 F   0  0  0  0  0  0  0  0  0  0  0  0
  -22.7840  -13.6430   21.2000 C   0  0  0  0  0  0  0  0  0  0  0  0
  -22.0980  -12.9420   22.0960 N   0  0  0  0  0  0  0  0  0  0  0  0
  -22.3290  -14.6780   20.7160 O   0  0  0  0  0  0  0  0  0  0  0  0
  -22.4790  -12.1040   22.5100 H   0  0  0  0  0  0  0  0  0  0  0  0
  -21.1770  -13.2490   22.3740 H   0  0  0  0  0  0  0  0  0  0  0  0
  -25.3540  -15.2950   20.2530 N   0  0  0  0  0  0  0  0  0  0  0  0
  -24.5660  -15.9250   20.3590 H   0  0  0  0  0  0  0  0  0  0  0  0
  -26.1280  -15.7140   19.7590 H   0  0  0  0  0  0  0  0  0  0  0  0
  -29.4770  -24.1270   20.2460 C   0  0  0  0  0  3  0  0  0  0  0  0
  -28.2500  -25.0430   19.8170 C   0  0  0  0  0  3  0  0  0  0  0  0
  -28.3800  -26.5040   20.0300 O   0  0  0  0  0  0  0  0  0  0  0  0
  -24.5010  -31.7430   23.1150 C   0  0  0  0  0  0  0  0  0  0  0  0
  -27.2290  -27.3070   19.9860 C   0  0  0  0  0  0  0  0  0  0  0  0
  -23.3330  -30.3540   21.4390 C   0  0  0  0  0  3  0  0  0  0  0  0
  -24.8230  -28.8610   19.9910 C   0  0  0  0  0  0  0  0  0  0  0  0
  -25.8660  -30.7290   21.2790 C   0  0  0  0  0  2  0  0  0  0  0  0
  -25.9780  -29.3670   20.6030 C   0  0  0  0  0  0  0  0  0  0  0  0
  -27.1820  -28.6030   20.5890 C   0  0  0  0  0  3  0  0  0  0  0  0
  -26.0480  -26.8520   19.3540 C   0  0  0  0  0  3  0  0  0  0  0  0
  -24.8600  -27.6080   19.3600 C   0  0  0  0  0  3  0  0  0  0  0  0
  -23.5680  -29.7070   20.0490 C   0  0  0  0  0  2  0  0  0  0  0  0
  -24.5850  -30.9580   22.0010 N   0  0  0  0  0  0  0  0  0  0  0  0
  -23.4110  -31.9920   23.6480 O   0  0  0  0  0  0  0  0  0  0  0  0
  -22.6870  -29.3080   22.3750 C   0  0  0  0  0  0  0  0  0  0  0  0
  -21.3650  -29.1090   22.2380 N   0  0  0  0  0  0  0  0  0  0  0  0
  -23.3720  -28.6750   23.1840 O   0  0  0  0  0  0  0  0  0  0  0  0
  -20.8740  -29.6740   21.5590 H   0  0  0  0  0  0  0  0  0  0  0  0
  -18.0000  -27.8640   22.7060 C   0  0  0  0  0  0  0  0  0  0  0  0
  -20.5550  -28.1430   22.9830 C   0  0  0  0  0  3  0  0  0  0  0  0
  -20.6710  -26.7280   22.3690 C   0  0  0  0  0  2  0  0  0  0  0  0
  -19.5710  -26.4200   21.3460 C   0  0  0  0  0  2  0  0  0  0  0  0
  -18.1880  -26.5340   21.9950 C   0  0  0  0  0  2  0  0  0  0  0  0
  -19.1100  -28.6260   23.1540 C   0  0  0  0  0  0  0  0  0  0  0  0
  -18.8790  -29.8720   23.7770 C   0  0  0  0  0  3  0  0  0  0  0  0
  -17.5700  -30.3520   23.9620 C   0  0  0  0  0  3  0  0  0  0  0  0
  -16.4730  -29.5870   23.5300 C   0  0  0  0  0  3  0  0  0  0  0  0
  -16.6890  -28.3460   22.9050 C   0  0  0  0  0  3  0  0  0  0  0  0
  -25.7710  -32.3840   23.7600 C   0  0  0  0  0  3  0  0  0  0  0  0
  -26.2820  -31.6050   25.0330 C   0  0  1  0  0  0  0  0  0  0  0  0
  -25.1790  -31.3380   26.0860 C   0  0  0  0  0  1  0  0  0  0  0  0
  -26.8940  -30.2410   24.6330 C   0  0  0  0  0  1  0  0  0  0  0  0
  -27.4110  -32.4090   25.7190 C   0  0  0  0  0  1  0  0  0  0  0  0
  -25.4390  -33.7730   24.1040 N   0  0  0  0  0  0  0  0  0  0  0  0
  -25.7470  -34.8380   23.3540 C   0  0  0  0  0  0  0  0  0  0  0  0
  -26.4110  -34.7570   22.3170 O   0  0  0  0  0  0  0  0  0  0  0  0
  -24.8480  -33.9090   24.9110 H   0  0  0  0  0  0  0  0  0  0  0  0
  -23.9770  -36.5990   23.0350 C   0  0  0  0  0  1  0  0  0  0  0  0
  -25.2370  -36.2140   23.8280 C   0  0  0  0  0  3  0  0  0  0  0  0
  -27.3590  -37.1430   24.6400 C   0  0  0  0  0  1  0  0  0  0  0  0
  -26.2460  -37.2890   23.7070 N   0  0  0  0  0  0  0  0  0  0  0  0
  -25.8220  -38.2000   23.8580 H   0  0  0  0  0  0  0  0  0  0  0  0
  1  3  2  0
  2 51  1  0
  2  1  1  0
  4  2  1  0
  5  7  1  0
  6  9  1  0
  7  9  2  0
  7  1  1  0
  8  5  2  0
  8 10  1  0
  9 12  1  0
 10  6  2  0
 10 21  1  0
 11  8  1  0
 13 21  1  0
 14 19  1  0
 15 16  1  0
 15 14  1  0
 17 16  1  0
 17 26  1  0
 17 18  1  0
 19 13  1  0
 19 18  1  0
 20 13  2  0
 21 22  1  0
 23 24  2  0
 24 43  1  0
 25 24  1  0
 25 28  1  0
 26 27  1  0
 26 23  1  0
 27 25  2  0
 28 29  1  0
 29 30  2  0
 31 34  1  0
 31 30  1  0
 32 31  2  0
 33 32  1  0
 33 28  2  0
 34 35  1  0
 35 36  1  0
 36 37  2  0
 38 37  1  0
 38 42  1  0
 39 38  2  0
 40 35  2  0
 40 39  1  0
 41 40  1  0
 43 44  1  0
 44 47  1  0
 44 46  1  0
 45 43  2  0
 48 49  1  0
 48 23  1  0
 50 48  1  0
 52 53  1  0
 52 51  2  0
 54 65  2  0
 55 53  1  0
 55 60  1  0
 56 64  1  0
 56 66  1  0
 57 63  1  0
 57 59  1  0
 58 64  1  0
 59 58  1  0
 60 59  2  0
 61 62  1  0
 61 55  2  0
 62 57  2  0
 63 56  1  0
 64 54  1  0
 66 68  2  0
 67 66  1  0
 69 67  1  0
 70 79  2  0
 70 75  1  0
 71 67  1  0
 71 75  1  0
 72 71  1  0
 73 74  1  0
 73 72  1  0
 74 70  1  0
 75 76  2  0
 76 77  1  0
 78 77  2  0
 79 78  1  0
 80 54  1  0
 80 85  1  0
 80 81  1  0
 81 84  1  1
 81 82  1  0
 83 81  1  0
 85 88  1  0
 86 90  1  0
 86 85  1  0
 87 86  2  0
 90 89  1  0
 92 90  1  0
 92 93  1  0
 92 91  1  0
M  ISO  4  13 100  21 100  52 101  53 101
M  END
>  <TORSDO>  (54) 
F 19

>  <SCORE>  (54) 
-14.389

>  <name>  (54) 
53

>  <ligand_id>  (54) 
53

>  <original_smiles>  (54) 
[H]c1c([H])c([H])c2c(c1[H])C([H])([H])C([H])([H])C([H])([H])C2([H])N([H])C(=O)C1([H])N(C(=O)C([H])(N([H])C(=O)C([H])(N([H])C([H])([H])[H])C([H])([H])[H])C(C([H])([H])[H])(C([H])([H])[H])C([H])([H])[H])C([H])([H])c2c([H])c(OC([H])([H])C([H])([H])N([H])C(=O)c3c([H])c(C([H])([H])[H])c(N([H])C(=O)N4C([H])([H])C([H])([H])C([H])([H])C([H])(n5nc(-c6c([H])c([H])c(Oc7c([H])c([H])c(F)c([H])c7F)c([H])c6[H])c(C(=O)N([H])[H])c5N([H])[H])C4([H])[H])c([H])c3C([H])([H])[H])c([H])c([H])c2C1([H])[H]

>  <smiles>  (54) 
[H]c1c([H])c([H])c2c(c1[H])C([H])([H])C([H])([H])C([H])([H])C2([H])N([H])C(=O)C1([H])N(C(=O)C([H])(N([H])C(=O)C([H])(N([H])C([H])([H])[H])C([H])([H])[H])C(C([H])([H])[H])(C([H])([H])[H])C([H])([H])[H])C([H])([H])c2c([H])c(OC([H])([H])C([H])([H])N([H])C(=O)c3c([H])c(C([H])([H])[H])c(N([H])C(=O)N4C([H])([H])C([H])([H])C([H])([H])C([H])(n5nc(-c6c([H])c([H])c(Oc7c([H])c([H])c(F)c([H])c7F)c([H])c6[H])c(C(=O)N([H])[H])c5N([H])[H])C4([H])[H])c([H])c3C([H])([H])[H])c([H])c([H])c2C1([H])[H]

$$$$
54:0:0
     RDKit          3D

 93101  0  0  1  0  0  0  0  0999 V2000
  -29.1420  -21.7290   20.3050 N   0  0  0  0  0  4  0  0  0  0  0  0
  -29.2500  -21.7870   21.3030 H   0  0  0  0  0  0  0  0  0  0  0  0
  -28.1970  -21.4430   20.1160 H   0  0  0  0  0  0  0  0  0  0  0  0
  -30.0510  -20.6590   19.7740 C   0  0  0  0  0  2  0  0  0  0  0  0
  -30.9030  -19.5320   21.9000 C   0  0  0  0  0  3  0  0  0  0  0  0
  -31.2210  -18.3970   22.6700 C   0  0  0  0  0  3  0  0  0  0  0  0
  -29.9780  -18.0760   20.1780 C   0  0  0  0  0  3  0  0  0  0  0  0
  -30.2710  -19.3960   20.6450 C   0  0  0  0  0  0  0  0  0  0  0  0
  -30.3200  -16.9190   20.9420 C   0  0  0  0  0  0  0  0  0  0  0  0
  -30.9330  -17.0990   22.2060 C   0  0  0  0  0  0  0  0  0  0  0  0
  -31.3060  -15.7490   23.2210 Cl  0  0  0  0  0  0  0  0  0  0  0  0
  -30.6980  -14.5740   20.0890 C   0  0  0  0  0  0  0  0  0  0  0  0
  -30.3640  -12.4100   18.9270 C   0  0  0  0  0  2  0  0  0  0  0  0
  -29.3550  -12.6140   17.7760 C   0  0  0  0  0  2  0  0  0  0  0  0
  -27.9050  -12.4760   18.2840 C   0  0  0  0  0  2  0  0  0  0  0  0
  -27.6400  -13.3080   19.5660 C   0  0  0  0  0  3  0  0  0  0  0  0
  -28.7490  -13.0650   20.6150 C   0  0  0  0  0  2  0  0  0  0  0  0
  -30.0380  -13.3850   19.9790 N   0  0  0  0  0  0  0  0  0  0  0  0
  -31.8260  -14.7530   19.6230 O   0  0  0  0  0  0  0  0  0  0  0  0
  -29.9300  -15.5990   20.5330 N   0  0  0  0  0  0  0  0  0  0  0  0
  -28.9950  -15.3270   20.7960 H   0  0  0  0  0  0  0  0  0  0  0  0
  -25.2940  -13.9490   20.4050 C   0  0  0  0  0  0  0  0  0  0  0  0
  -24.2350  -13.1920   20.8250 C   0  0  0  0  0  0  0  0  0  0  0  0
  -24.6700  -11.8330   20.7600 C   0  0  0  0  0  0  0  0  0  0  0  0
  -26.3100  -13.0520   20.1120 N   0  0  0  0  0  0  0  0  0  0  0  0
  -25.9420  -11.7750   20.3850 N   0  0  0  0  0  0  0  0  0  0  0  0
  -23.9340  -10.5820   20.9770 C   0  0  0  0  0  0  0  0  0  0  0  0
  -24.4010   -9.5970   21.8750 C   0  0  0  0  0  3  0  0  0  0  0  0
  -23.6660   -8.4090   22.0800 C   0  0  0  0  0  3  0  0  0  0  0  0
  -22.4510   -8.1970   21.3870 C   0  0  0  0  0  0  0  0  0  0  0  0
  -22.0010   -9.1710   20.4780 C   0  0  0  0  0  3  0  0  0  0  0  0
  -22.7360  -10.3500   20.2700 C   0  0  0  0  0  3  0  0  0  0  0  0
  -21.6840   -7.0640   21.5050 O   0  0  0  0  0  0  0  0  0  0  0  0
  -21.6830   -6.3100   22.6510 C   0  0  0  0  0  0  0  0  0  0  0  0
  -21.3560   -6.8660   23.9070 C   0  0  0  0  0  3  0  0  0  0  0  0
  -21.3000   -6.0410   25.0480 C   0  0  0  0  0  3  0  0  0  0  0  0
  -21.5610   -4.6620   24.9340 C   0  0  0  0  0  0  0  0  0  0  0  0
  -21.8830   -4.1060   23.6840 C   0  0  0  0  0  3  0  0  0  0  0  0
  -21.9410   -4.9290   22.5450 C   0  0  0  0  0  0  0  0  0  0  0  0
  -22.2300   -4.3860   21.3380 F   0  0  0  0  0  0  0  0  0  0  0  0
  -21.5000   -3.8680   26.0290 F   0  0  0  0  0  0  0  0  0  0  0  0
  -22.8610  -13.6900   21.1730 C   0  0  0  0  0  0  0  0  0  0  0  0
  -22.1690  -13.0040   22.0760 N   0  0  0  0  0  0  0  0  0  0  0  0
  -22.4110  -14.7210   20.6780 O   0  0  0  0  0  0  0  0  0  0  0  0
  -22.5470  -12.1700   22.5000 H   0  0  0  0  0  0  0  0  0  0  0  0
  -21.2490  -13.3200   22.3510 H   0  0  0  0  0  0  0  0  0  0  0  0
  -25.4700  -15.3180   20.2250 N   0  0  0  0  0  0  0  0  0  0  0  0
  -24.7100  -15.9770   20.3640 H   0  0  0  0  0  0  0  0  0  0  0  0
  -26.2930  -15.7440   19.8190 H   0  0  0  0  0  0  0  0  0  0  0  0
  -29.3920  -23.0890   19.7090 C   0  0  0  0  0  2  0  0  0  0  0  0
  -28.2300  -24.1540   19.7570 C   0  0  0  0  0  2  0  0  0  0  0  0
  -28.3510  -25.3450   20.7640 C   0  0  0  0  0  2  0  0  0  0  0  0
  -28.3640  -26.6780   20.1870 O   0  0  0  0  0  0  0  0  0  0  0  0
  -24.6050  -31.9460   23.2430 C   0  0  0  0  0  0  0  0  0  0  0  0
  -27.1960  -27.4190   20.2120 C   0  0  0  0  0  0  0  0  0  0  0  0
  -23.3790  -30.5360   21.6230 C   0  0  0  0  0  3  0  0  0  0  0  0
  -24.8130  -28.9630   20.2110 C   0  0  0  0  0  0  0  0  0  0  0  0
  -25.9080  -30.8660   21.4060 C   0  0  0  0  0  2  0  0  0  0  0  0
  -25.9800  -29.4830   20.7830 C   0  0  0  0  0  0  0  0  0  0  0  0
  -27.1760  -28.7230   20.7700 C   0  0  0  0  0  3  0  0  0  0  0  0
  -26.0090  -26.9130   19.6430 C   0  0  0  0  0  3  0  0  0  0  0  0
  -24.8240  -27.6780   19.6370 C   0  0  0  0  0  3  0  0  0  0  0  0
  -23.5750  -29.8360   20.2520 C   0  0  0  0  0  2  0  0  0  0  0  0
  -24.6500  -31.1330   22.1490 N   0  0  0  0  0  0  0  0  0  0  0  0
  -23.5290  -32.2310   23.7860 O   0  0  0  0  0  0  0  0  0  0  0  0
  -22.7240  -29.5330   22.6000 C   0  0  0  0  0  0  0  0  0  0  0  0
  -21.3990  -29.3530   22.4760 N   0  0  0  0  0  0  0  0  0  0  0  0
  -23.4060  -28.9180   23.4250 O   0  0  0  0  0  0  0  0  0  0  0  0
  -20.9100  -29.9000   21.7810 H   0  0  0  0  0  0  0  0  0  0  0  0
  -18.0260  -28.1490   22.9620 C   0  0  0  0  0  0  0  0  0  0  0  0
  -20.5780  -28.4280   23.2570 C   0  0  0  0  0  3  0  0  0  0  0  0
  -20.6970  -26.9840   22.7140 C   0  0  0  0  0  2  0  0  0  0  0  0
  -19.6080  -26.6340   21.6950 C   0  0  0  0  0  2  0  0  0  0  0  0
  -18.2180  -26.7860   22.3200 C   0  0  0  0  0  2  0  0  0  0  0  0
  -19.1360  -28.9260   23.3880 C   0  0  0  0  0  0  0  0  0  0  0  0
  -18.9040  -30.2020   23.9470 C   0  0  0  0  0  3  0  0  0  0  0  0
  -17.5950  -30.7000   24.0850 C   0  0  0  0  0  3  0  0  0  0  0  0
  -16.4990  -29.9200   23.6770 C   0  0  0  0  0  3  0  0  0  0  0  0
  -16.7150  -28.6460   23.1210 C   0  0  0  0  0  3  0  0  0  0  0  0
  -25.8990  -32.5740   23.8500 C   0  0  0  0  0  3  0  0  0  0  0  0
  -25.5990  -33.9720   24.1860 N   0  0  0  0  0  0  0  0  0  0  0  0
  -25.9280  -35.0240   23.4240 C   0  0  0  0  0  0  0  0  0  0  0  0
  -26.5880  -34.9190   22.3860 O   0  0  0  0  0  0  0  0  0  0  0  0
  -25.0150  -34.1280   24.9940 H   0  0  0  0  0  0  0  0  0  0  0  0
  -24.1990  -36.8180   23.0920 C   0  0  0  0  0  1  0  0  0  0  0  0
  -25.4500  -36.4140   23.8860 C   0  0  0  0  0  3  0  0  0  0  0  0
  -27.6000  -37.2900   24.6830 C   0  0  0  0  0  1  0  0  0  0  0  0
  -26.4820  -37.4650   23.7600 N   0  0  0  0  0  0  0  0  0  0  0  0
  -26.0810  -38.3860   23.9180 H   0  0  0  0  0  0  0  0  0  0  0  0
  -26.4290  -31.7990   25.1200 C   0  0  1  0  0  0  0  0  0  0  0  0
  -25.3510  -31.5650   26.2030 C   0  0  0  0  0  1  0  0  0  0  0  0
  -27.0010  -30.4210   24.7160 C   0  0  0  0  0  1  0  0  0  0  0  0
  -27.5920  -32.5890   25.7670 C   0  0  0  0  0  1  0  0  0  0  0  0
  1  2  1  0
  3  1  1  0
  4  1  1  0
  4  8  1  0
  5  6  1  0
  7  8  1  0
  7  9  2  0
  8  5  2  0
  9 10  1  0
 10  6  2  0
 10 11  1  0
 12 20  1  0
 13 18  1  0
 14 15  1  0
 14 13  1  0
 16 15  1  0
 16 25  1  0
 16 17  1  0
 18 12  1  0
 18 17  1  0
 19 12  2  0
 20 21  1  0
 20  9  1  0
 22 23  2  0
 23 42  1  0
 24 23  1  0
 24 27  1  0
 25 26  1  0
 25 22  1  0
 26 24  2  0
 27 28  1  0
 28 29  2  0
 30 33  1  0
 30 29  1  0
 31 30  2  0
 32 31  1  0
 32 27  2  0
 33 34  1  0
 34 35  1  0
 35 36  2  0
 37 36  1  0
 37 41  1  0
 38 37  2  0
 39 34  2  0
 39 38  1  0
 40 39  1  0
 42 43  1  0
 43 46  1  0
 43 45  1  0
 44 42  2  0
 47 48  1  0
 47 22  1  0
 49 47  1  0
 50 51  1  0
 50  1  1  0
 51 52  1  0
 53 55  1  0
 53 52  1  0
 54 65  2  0
 55 60  1  0
 56 64  1  0
 56 66  1  0
 57 63  1  0
 57 59  1  0
 58 64  1  0
 59 58  1  0
 60 59  2  0
 61 55  2  0
 62 61  1  0
 62 57  2  0
 63 56  1  0
 64 54  1  0
 66 68  2  0
 67 66  1  0
 69 67  1  0
 70 79  2  0
 70 75  1  0
 71 67  1  0
 71 75  1  0
 72 71  1  0
 73 74  1  0
 73 72  1  0
 74 70  1  0
 75 76  2  0
 76 77  1  0
 78 77  2  0
 79 78  1  0
 80 54  1  0
 80 81  1  0
 80 90  1  0
 81 84  1  0
 82 86  1  0
 82 81  1  0
 83 82  2  0
 86 85  1  0
 88 86  1  0
 88 89  1  0
 88 87  1  0
 90 93  1  1
 90 91  1  0
 92 90  1  0
M  ISO  4  12 100  20 100  52 101  53 101
M  END
>  <TORSDO>  (55) 
F 21

>  <SCORE>  (55) 
-11.822

>  <name>  (55) 
54

>  <ligand_id>  (55) 
54

>  <original_smiles>  (55) 
[H]c1c([H])c([H])c2c(c1[H])C([H])([H])C([H])([H])C([H])([H])C2([H])N([H])C(=O)C1([H])N(C(=O)C([H])(N([H])C(=O)C([H])(N([H])C([H])([H])[H])C([H])([H])[H])C(C([H])([H])[H])(C([H])([H])[H])C([H])([H])[H])C([H])([H])c2c([H])c(OC([H])([H])C([H])([H])C([H])([H])[N+]([H])([H])C([H])([H])c3c([H])c([H])c(Cl)c(N([H])C(=O)N4C([H])([H])C([H])([H])C([H])([H])C([H])(n5nc(-c6c([H])c([H])c(Oc7c([H])c([H])c(F)c([H])c7F)c([H])c6[H])c(C(=O)N([H])[H])c5N([H])[H])C4([H])[H])c3[H])c([H])c([H])c2C1([H])[H]

>  <smiles>  (55) 
[H]c1c([H])c([H])c2c(c1[H])C([H])([H])C([H])([H])C([H])([H])C2([H])N([H])C(=O)C1([H])N(C(=O)C([H])(N([H])C(=O)C([H])(N([H])C([H])([H])[H])C([H])([H])[H])C(C([H])([H])[H])(C([H])([H])[H])C([H])([H])[H])C([H])([H])c2c([H])c(OC([H])([H])C([H])([H])C([H])([H])[N+]([H])([H])C([H])([H])c3c([H])c([H])c(Cl)c(N([H])C(=O)N4C([H])([H])C([H])([H])C([H])([H])C([H])(n5nc(-c6c([H])c([H])c(Oc7c([H])c([H])c(F)c([H])c7F)c([H])c6[H])c(C(=O)N([H])[H])c5N([H])[H])C4([H])[H])c3[H])c([H])c([H])c2C1([H])[H]

$$$$
55:0:0
     RDKit          3D

 96100  0  0  1  0  0  0  0  0999 V2000
  -30.3580  -20.5730   16.9040 C   0  0  0  0  0  2  0  0  0  0  0  0
  -31.0180  -22.5990   18.2150 C   0  0  0  0  0  2  0  0  0  0  0  0
  -31.4480  -21.6250   17.2840 C   0  0  0  0  0  3  0  0  0  0  0  0
  -32.6450  -21.1000   17.8410 C   0  0  0  0  0  3  0  0  0  0  0  0
  -32.5490  -20.7890   19.2560 C   0  0  2  0  0  0  0  0  0  0  0  0
  -31.1330  -20.6470   19.7730 C   0  0  0  0  0  3  0  0  0  0  0  0
  -31.1250  -22.1150   19.5580 C   0  0  2  0  0  0  0  0  0  0  0  0
  -33.9270  -21.0220   17.0380 C   0  0  0  0  0  1  0  0  0  0  0  0
  -33.8410  -20.6390   20.0590 C   0  0  0  0  0  1  0  0  0  0  0  0
  -31.7140  -23.2060   20.7800 Cl  0  0  0  0  0  0  0  0  0  0  0  0
  -30.0600  -16.5950   19.9950 C   0  0  0  0  0  0  0  0  0  0  0  0
  -30.1980  -13.8270   19.0160 C   0  0  0  0  0  2  0  0  0  0  0  0
  -29.3580  -12.9820   17.9580 C   0  0  0  0  0  2  0  0  0  0  0  0
  -28.0730  -12.3990   18.5440 C   0  0  0  0  0  2  0  0  0  0  0  0
  -27.5200  -13.4160   19.5500 C   0  0  0  0  0  3  0  0  0  0  0  0
  -28.5690  -14.1030   20.5220 C   0  0  0  0  0  2  0  0  0  0  0  0
  -29.4960  -15.0910   19.7640 N   0  0  0  0  0  0  0  0  0  0  0  0
  -31.2570  -16.1320   19.9650 O   0  0  0  0  0  0  0  0  0  0  0  0
  -29.6470  -18.4490   20.0570 N   0  0  0  0  0  2  0  0  0  0  0  0
  -28.6510  -18.6090   20.0890 H   0  0  0  0  0  0  0  0  0  0  0  0
  -25.2230  -13.8620   20.4690 C   0  0  0  0  0  0  0  0  0  0  0  0
  -24.1810  -13.0820   20.8740 C   0  0  0  0  0  0  0  0  0  0  0  0
  -24.6360  -11.7300   20.7890 C   0  0  0  0  0  0  0  0  0  0  0  0
  -26.2570  -13.0050   20.1670 N   0  0  0  0  0  0  0  0  0  0  0  0
  -25.9180  -11.7010   20.4040 N   0  0  0  0  0  0  0  0  0  0  0  0
  -23.8880  -10.4750   20.9990 C   0  0  0  0  0  0  0  0  0  0  0  0
  -24.3370   -9.4820   21.8980 C   0  0  0  0  0  3  0  0  0  0  0  0
  -23.5810   -8.3060   22.1090 C   0  0  0  0  0  3  0  0  0  0  0  0
  -22.3590   -8.1120   21.4230 C   0  0  0  0  0  0  0  0  0  0  0  0
  -21.9240   -9.0930   20.5130 C   0  0  0  0  0  3  0  0  0  0  0  0
  -22.6800  -10.2590   20.3010 C   0  0  0  0  0  3  0  0  0  0  0  0
  -21.5730   -6.9890   21.5430 O   0  0  0  0  0  0  0  0  0  0  0  0
  -21.5730   -6.2260   22.6840 C   0  0  0  0  0  0  0  0  0  0  0  0
  -21.2530   -6.7740   23.9460 C   0  0  0  0  0  3  0  0  0  0  0  0
  -21.1980   -5.9420   25.0810 C   0  0  0  0  0  3  0  0  0  0  0  0
  -21.4500   -4.5630   24.9570 C   0  0  0  0  0  0  0  0  0  0  0  0
  -21.7600   -4.0140   23.7010 C   0  0  0  0  0  3  0  0  0  0  0  0
  -21.8180   -4.8430   22.5680 C   0  0  0  0  0  0  0  0  0  0  0  0
  -22.0980   -4.3040   21.3560 F   0  0  0  0  0  0  0  0  0  0  0  0
  -21.3900   -3.7620   26.0470 F   0  0  0  0  0  0  0  0  0  0  0  0
  -22.8060  -13.5750   21.2160 C   0  0  0  0  0  0  0  0  0  0  0  0
  -22.1140  -12.8890   22.1180 N   0  0  0  0  0  0  0  0  0  0  0  0
  -22.3610  -14.6090   20.7210 O   0  0  0  0  0  0  0  0  0  0  0  0
  -22.4910  -12.0550   22.5430 H   0  0  0  0  0  0  0  0  0  0  0  0
  -21.1930  -13.2030   22.3880 H   0  0  0  0  0  0  0  0  0  0  0  0
  -25.3710  -15.2350   20.2920 N   0  0  0  0  0  0  0  0  0  0  0  0
  -24.6070  -15.8850   20.4360 H   0  0  0  0  0  0  0  0  0  0  0  0
  -26.2020  -15.6750   19.9170 H   0  0  0  0  0  0  0  0  0  0  0  0
  -28.5200  -20.9690   18.6890 C   0  0  0  0  0  2  0  0  0  0  0  0
  -31.2070  -19.4510   21.3420 C   0  0  0  0  0 15  0  0  0  0  0  0
  -29.4350  -20.8840   21.6630 C   0  0  0  0  0 15  0  0  0  0  0  0
  -31.2710  -18.9730   18.9370 C   0  0  0  0  0  1  0  0  0  0  0  0
  -28.3850  -22.2200   20.2850 C   0  0  0  0  0 15  0  0  0  0  0  0
  -29.7170  -19.9360   18.0870 N   0  0  0  0  0  2  0  0  0  0  0  0
  -27.5390  -21.0840   17.9480 O   0  0  0  0  0  1  0  0  0  0  0  0
  -28.1490  -24.4110   20.2310 O   0  0  0  0  0  1  0  0  0  0  0  0
  -24.6620  -31.7390   22.9950 C   0  0  0  0  0  0  0  0  0  0  0  0
  -27.2190  -25.9490   20.1990 C   0  0  0  0  0  0  0  0  0  0  0  0
  -23.5200  -30.2690   21.4000 C   0  0  0  0  0  3  0  0  0  0  0  0
  -24.9910  -28.4450   20.0790 C   0  0  0  0  0  0  0  0  0  0  0  0
  -26.1260  -30.2140   21.3690 C   0  0  0  0  0  2  0  0  0  0  0  0
  -26.1980  -28.6810   20.7450 C   0  0  0  0  0  0  0  0  0  0  0  0
  -27.2530  -27.4940   20.7450 C   0  0  0  0  0  3  0  0  0  0  0  0
  -25.9650  -26.1250   19.4690 C   0  0  0  0  0  3  0  0  0  0  0  0
  -24.9620  -27.1970   19.4110 C   0  0  0  0  0  3  0  0  0  0  0  0
  -23.8070  -29.4770   20.0760 C   0  0  0  0  0  2  0  0  0  0  0  0
  -24.8040  -30.7940   21.9720 N   0  0  0  0  0  0  0  0  0  0  0  0
  -23.5480  -32.0690   23.4530 O   0  0  0  0  0  0  0  0  0  0  0  0
  -22.7390  -29.3790   22.4130 C   0  0  0  0  0  0  0  0  0  0  0  0
  -21.3980  -29.2720   22.3100 N   0  0  0  0  0  0  0  0  0  0  0  0
  -23.3700  -28.7720   23.2800 O   0  0  0  0  0  0  0  0  0  0  0  0
  -20.9280  -29.8100   21.5940 H   0  0  0  0  0  0  0  0  0  0  0  0
  -17.9910  -28.0920   22.9050 C   0  0  0  0  0  0  0  0  0  0  0  0
  -20.5600  -28.3580   23.1070 C   0  0  0  0  0  3  0  0  0  0  0  0
  -20.6370  -26.9150   22.5520 C   0  0  0  0  0  2  0  0  0  0  0  0
  -19.5180  -26.5920   21.5580 C   0  0  0  0  0  2  0  0  0  0  0  0
  -18.1490  -26.7430   22.2260 C   0  0  0  0  0  2  0  0  0  0  0  0
  -19.1210  -28.8580   23.3030 C   0  0  0  0  0  0  0  0  0  0  0  0
  -18.9100  -30.1150   23.9110 C   0  0  0  0  0  3  0  0  0  0  0  0
  -17.6070  -30.6080   24.1180 C   0  0  0  0  0  3  0  0  0  0  0  0
  -16.4940  -29.8420   23.7290 C   0  0  0  0  0  3  0  0  0  0  0  0
  -16.6880  -28.5850   23.1300 C   0  0  0  0  0  3  0  0  0  0  0  0
  -25.8780  -32.4660   23.6540 C   0  0  0  0  0  3  0  0  0  0  0  0
  -25.4890  -33.8560   24.0100 N   0  0  0  0  0  0  0  0  0  0  0  0
  -25.8120  -34.9660   23.3280 C   0  0  0  0  0  0  0  0  0  0  0  0
  -26.5050  -34.9300   22.3090 O   0  0  0  0  0  0  0  0  0  0  0  0
  -24.8660  -33.9530   24.7990 H   0  0  0  0  0  0  0  0  0  0  0  0
  -24.0490  -36.7570   23.0550 C   0  0  0  0  0  1  0  0  0  0  0  0
  -25.2950  -36.3290   23.8490 C   0  0  0  0  0  3  0  0  0  0  0  0
  -27.4040  -37.2380   24.7310 C   0  0  0  0  0  1  0  0  0  0  0  0
  -26.3040  -37.4130   23.7880 N   0  0  0  0  0  0  0  0  0  0  0  0
  -25.8750  -38.3160   23.9660 H   0  0  0  0  0  0  0  0  0  0  0  0
  -26.3920  -31.7360   24.9580 C   0  0  1  0  0  0  0  0  0  0  0  0
  -25.2900  -31.4930   26.0190 C   0  0  0  0  0  1  0  0  0  0  0  0
  -27.0130  -30.3650   24.6240 C   0  0  0  0  0  1  0  0  0  0  0  0
  -27.5160  -32.5700   25.6180 C   0  0  0  0  0  1  0  0  0  0  0  0
  1 54  1  0
  2  7  1  0
  3  1  1  0
  3  4  1  0
  3  2  1  0
  4  8  1  0
  4  5  1  0
  5  7  1  0
  5  6  1  0
  5  9  1  1
  6 52  1  0
  7  6  1  0
  7 10  1  1
 11 19  1  0
 12 17  1  0
 13 14  1  0
 13 12  1  0
 15 14  1  0
 15 24  1  0
 15 16  1  0
 17 11  1  0
 17 16  1  0
 18 11  2  0
 19 20  1  0
 21 22  2  0
 22 41  1  0
 23 22  1  0
 23 26  1  0
 24 25  1  0
 24 21  1  0
 25 23  2  0
 26 27  1  0
 27 28  2  0
 29 32  1  0
 29 28  1  0
 30 29  2  0
 31 30  1  0
 31 26  2  0
 32 33  1  0
 33 34  1  0
 34 35  2  0
 36 35  1  0
 36 40  1  0
 37 36  2  0
 38 33  2  0
 38 37  1  0
 39 38  1  0
 41 42  1  0
 42 45  1  0
 42 44  1  0
 43 41  2  0
 46 47  1  0
 46 21  1  0
 48 46  1  0
 54 49  1  0
 55 49  1  0
 57 68  2  0
 58 56  1  0
 58 63  1  0
 59 67  1  0
 59 69  1  0
 60 62  1  0
 61 67  1  0
 62 61  1  0
 63 62  2  0
 64 58  2  0
 65 64  1  0
 65 60  2  0
 66 60  1  0
 66 59  1  0
 67 57  1  0
 69 71  2  0
 70 69  1  0
 72 70  1  0
 73 82  2  0
 73 78  1  0
 74 70  1  0
 74 78  1  0
 75 74  1  0
 76 77  1  0
 76 75  1  0
 77 73  1  0
 78 79  2  0
 79 80  1  0
 81 80  2  0
 82 81  1  0
 83 57  1  0
 83 84  1  0
 83 93  1  0
 84 87  1  0
 85 89  1  0
 85 84  1  0
 86 85  2  0
 89 88  1  0
 91 89  1  0
 91 92  1  0
 91 90  1  0
 93 96  1  1
 93 94  1  0
 95 93  1  0
M  ISO  4  11 100  19 100  53 101  56 101
M  END
>  <TORSDO>  (56) 
F 18

>  <SCORE>  (56) 
-15.963

>  <name>  (56) 
55

>  <ligand_id>  (56) 
55

>  <original_smiles>  (56) 
[H]c1c([H])c([H])c2c(c1[H])C([H])([H])C([H])([H])C([H])([H])C2([H])N([H])C(=O)C1([H])N(C(=O)C([H])(N([H])C(=O)C([H])(N([H])C([H])([H])[H])C([H])([H])[H])C(C([H])([H])[H])(C([H])([H])[H])C([H])([H])[H])C([H])([H])c2c([H])c(OC3([H])C(=O)N(C([H])([H])c4c([H])c(Cl)c(N([H])C(=O)N5C([H])([H])C([H])([H])C([H])([H])C([H])(n6nc(-c7c([H])c([H])c(Oc8c([H])c([H])c(F)c([H])c8F)c([H])c7[H])c(C(=O)N([H])[H])c6N([H])[H])C5([H])[H])c(C([H])([H])[H])c4C([H])([H])[H])C([H])([H])C([H])([H])C3([H])[H])c([H])c([H])c2C1([H])[H]

>  <smiles>  (56) 
[H]c1c([H])c([H])c2c(c1[H])C([H])([H])C([H])([H])C([H])([H])C2([H])N([H])C(=O)C1([H])N(C(=O)C([H])(N([H])C(=O)C([H])(N([H])C([H])([H])[H])C([H])([H])[H])C(C([H])([H])[H])(C([H])([H])[H])C([H])([H])[H])C([H])([H])c2c([H])c(OC3([H])C(=O)N(C([H])([H])c4c([H])c(Cl)c(N([H])C(=O)N5C([H])([H])C([H])([H])C([H])([H])C([H])(n6nc(-c7c([H])c([H])c(Oc8c([H])c([H])c(F)c([H])c8F)c([H])c7[H])c(C(=O)N([H])[H])c6N([H])[H])C5([H])[H])c(C([H])([H])[H])c4C([H])([H])[H])C([H])([H])C([H])([H])C3([H])[H])c([H])c([H])c2C1([H])[H]

$$$$
56:0:0
     RDKit          3D

 93101  0  0  1  0  0  0  0  0999 V2000
  -25.8580  -23.3400   21.6850 C   0  0  0  0  0  2  0  0  0  0  0  0
  -25.7840  -21.9920   19.4420 C   0  0  0  0  0  3  0  0  0  0  0  0
  -26.2780  -21.1610   18.3880 C   0  0  0  0  0  3  0  0  0  0  0  0
  -27.4510  -20.9410   20.8020 C   0  0  0  0  0  3  0  0  0  0  0  0
  -26.3700  -21.9720   20.7170 C   0  0  0  0  0  0  0  0  0  0  0  0
  -27.4650  -20.4090   18.5550 C   0  0  0  0  0  0  0  0  0  0  0  0
  -27.9600  -19.8820   19.7970 C   0  0  0  0  0  0  0  0  0  0  0  0
  -28.3940  -21.0280   17.5300 C   0  0  0  0  0  1  0  0  0  0  0  0
  -29.3490  -18.7260   19.8210 C   0  0  0  0  0  2  0  0  0  0  0  0
  -31.0020  -16.2160   20.6480 C   0  0  0  0  0  0  0  0  0  0  0  0
  -31.4940  -13.7380   20.1460 C   0  0  0  0  0  2  0  0  0  0  0  0
  -30.7890  -12.9490   18.9790 C   0  0  0  0  0  2  0  0  0  0  0  0
  -29.3330  -12.5810   19.3650 C   0  0  0  0  0  2  0  0  0  0  0  0
  -28.6580  -13.7610   20.0630 C   0  0  0  0  0  3  0  0  0  0  0  0
  -29.4830  -14.2360   21.2830 C   0  0  0  0  0  2  0  0  0  0  0  0
  -30.6490  -14.8310   20.7060 N   0  0  0  0  0  0  0  0  0  0  0  0
  -32.2050  -16.2440   20.6670 O   0  0  0  0  0  0  0  0  0  0  0  0
  -29.9580  -17.3580   20.6290 N   0  0  0  0  0  0  0  0  0  0  0  0
  -30.5010  -17.8570   21.3080 H   0  0  0  0  0  0  0  0  0  0  0  0
  -26.3000  -14.4790   20.5710 C   0  0  0  0  0  0  0  0  0  0  0  0
  -25.1750  -13.7970   20.8030 C   0  0  0  0  0  0  0  0  0  0  0  0
  -25.5430  -12.4030   20.8230 C   0  0  0  0  0  0  0  0  0  0  0  0
  -27.2900  -13.5390   20.4350 N   0  0  0  0  0  0  0  0  0  0  0  0
  -26.8460  -12.2690   20.6700 N   0  0  0  0  0  0  0  0  0  0  0  0
  -24.7300  -11.1940   20.9000 C   0  0  0  0  0  0  0  0  0  0  0  0
  -24.9700  -10.2030   21.8790 C   0  0  0  0  0  3  0  0  0  0  0  0
  -24.1530   -9.0640   21.9480 C   0  0  0  0  0  3  0  0  0  0  0  0
  -23.0770   -8.9000   21.0410 C   0  0  0  0  0  0  0  0  0  0  0  0
  -22.8610   -9.8780   20.0540 C   0  0  0  0  0  3  0  0  0  0  0  0
  -23.6810  -11.0140   19.9810 C   0  0  0  0  0  3  0  0  0  0  0  0
  -22.2440   -7.8130   21.0200 O   0  0  0  0  0  0  0  0  0  0  0  0
  -21.9510   -7.1110   22.1620 C   0  0  0  0  0  0  0  0  0  0  0  0
  -21.3900   -7.7360   23.2970 C   0  0  0  0  0  3  0  0  0  0  0  0
  -21.0420   -6.9650   24.4230 C   0  0  0  0  0  3  0  0  0  0  0  0
  -21.2440   -5.5710   24.4150 C   0  0  0  0  0  0  0  0  0  0  0  0
  -21.7990   -4.9480   23.2820 C   0  0  0  0  0  3  0  0  0  0  0  0
  -22.1480   -5.7160   22.1580 C   0  0  0  0  0  0  0  0  0  0  0  0
  -22.6640   -5.1080   21.0620 F   0  0  0  0  0  0  0  0  0  0  0  0
  -20.9010   -4.8290   25.4930 F   0  0  0  0  0  0  0  0  0  0  0  0
  -23.7890  -14.3610   20.8980 C   0  0  0  0  0  0  0  0  0  0  0  0
  -22.9280  -13.7350   21.6570 N   0  0  0  0  0  0  0  0  0  0  0  0
  -23.5020  -15.4160   20.3100 O   0  0  0  0  0  0  0  0  0  0  0  0
  -23.1810  -12.8820   22.1410 H   0  0  0  0  0  0  0  0  0  0  0  0
  -21.9940  -14.0990   21.7840 H   0  0  0  0  0  0  0  0  0  0  0  0
  -26.6170  -15.8420   20.4070 N   0  0  0  0  0  0  0  0  0  0  0  0
  -25.9020  -16.5630   20.3740 H   0  0  0  0  0  0  0  0  0  0  0  0
  -27.5280  -16.1610   20.1080 H   0  0  0  0  0  0  0  0  0  0  0  0
  -27.4780  -25.2800   22.3460 C   0  0  0  0  0  0  0  0  0  0  0  0
  -26.4980  -24.7240   21.6820 N   0  0  0  0  0  0  0  0  0  0  0  0
  -27.7540  -24.7390   23.4020 O   0  0  0  0  0  0  0  0  0  0  0  0
  -25.9940  -25.4680   21.2810 H   0  0  0  0  0  0  0  0  0  0  0  0
  -27.8250  -26.7800   22.0390 C   0  0  0  0  0  2  0  0  0  0  0  0
  -28.5060  -27.2300   20.7780 O   0  0  0  0  0  0  0  0  0  0  0  0
  -24.6470  -32.0220   23.6360 C   0  0  0  0  0  0  0  0  0  0  0  0
  -27.6000  -28.1170   20.2160 C   0  0  0  0  0  0  0  0  0  0  0  0
  -23.6030  -30.5960   21.9820 C   0  0  0  0  0  3  0  0  0  0  0  0
  -25.0710  -29.3120   20.3540 C   0  0  0  0  0  0  0  0  0  0  0  0
  -25.9950  -31.2760   21.6540 C   0  0  0  0  0  2  0  0  0  0  0  0
  -26.1880  -29.9990   20.8520 C   0  0  0  0  0  0  0  0  0  0  0  0
  -27.4710  -29.4430   20.7210 C   0  0  0  0  0  3  0  0  0  0  0  0
  -26.4970  -27.5160   19.5930 C   0  0  0  0  0  3  0  0  0  0  0  0
  -25.2180  -28.0970   19.6340 C   0  0  0  0  0  3  0  0  0  0  0  0
  -23.7400  -29.9650   20.5880 C   0  0  0  0  0  2  0  0  0  0  0  0
  -24.7890  -31.2830   22.5000 N   0  0  0  0  0  0  0  0  0  0  0  0
  -23.5820  -32.1430   24.2320 O   0  0  0  0  0  0  0  0  0  0  0  0
  -23.0280  -29.4760   22.8210 C   0  0  0  0  0  0  0  0  0  0  0  0
  -21.8030  -29.2640   22.4650 N   0  0  0  0  0  0  0  0  0  0  0  0
  -23.5890  -28.7500   23.6500 O   0  0  0  0  0  0  0  0  0  0  0  0
  -21.5210  -30.0270   21.7930 H   0  0  0  0  0  0  0  0  0  0  0  0
  -18.6470  -27.3000   22.6260 C   0  0  0  0  0  0  0  0  0  0  0  0
  -20.9960  -28.1470   22.9240 C   0  0  0  0  0  3  0  0  0  0  0  0
  -21.6590  -26.6590   22.8590 C   0  0  0  0  0  2  0  0  0  0  0  0
  -20.8000  -25.7990   21.9590 C   0  0  0  0  0  2  0  0  0  0  0  0
  -19.2950  -25.9630   22.1790 C   0  0  0  0  0  2  0  0  0  0  0  0
  -19.4690  -28.3090   23.1390 C   0  0  0  0  0  0  0  0  0  0  0  0
  -18.8930  -29.5400   23.6580 C   0  0  0  0  0  3  0  0  0  0  0  0
  -17.5050  -29.7400   23.8050 C   0  0  0  0  0  3  0  0  0  0  0  0
  -16.6050  -28.7870   23.2210 C   0  0  0  0  0  3  0  0  0  0  0  0
  -17.1670  -27.6280   22.6650 C   0  0  0  0  0  3  0  0  0  0  0  0
  -25.8960  -32.7830   24.2640 C   0  0  0  0  0  3  0  0  0  0  0  0
  -26.3910  -32.0780   25.5470 C   0  0  1  0  0  0  0  0  0  0  0  0
  -25.3020  -31.7760   26.6030 C   0  0  0  0  0  1  0  0  0  0  0  0
  -27.1030  -30.7380   25.1990 C   0  0  0  0  0  1  0  0  0  0  0  0
  -27.4370  -33.0020   26.2150 C   0  0  0  0  0  1  0  0  0  0  0  0
  -25.4820  -34.1600   24.4960 N   0  0  0  0  0  0  0  0  0  0  0  0
  -25.8070  -35.1910   23.7020 C   0  0  0  0  0  0  0  0  0  0  0  0
  -26.5030  -35.0880   22.6850 O   0  0  0  0  0  0  0  0  0  0  0  0
  -24.8460  -34.3280   25.2520 H   0  0  0  0  0  0  0  0  0  0  0  0
  -24.0030  -36.8790   23.2170 C   0  0  0  0  0  1  0  0  0  0  0  0
  -25.2400  -36.5880   24.0760 C   0  0  0  0  0  3  0  0  0  0  0  0
  -27.3260  -37.5780   24.8910 C   0  0  0  0  0  1  0  0  0  0  0  0
  -26.2300  -37.6670   23.9330 N   0  0  0  0  0  0  0  0  0  0  0  0
  -25.7840  -38.5660   24.0290 H   0  0  0  0  0  0  0  0  0  0  0  0
  2  5  1  0
  3  6  1  0
  3  2  2  0
  5  4  2  0
  5  1  1  0
  6  7  2  0
  7  9  1  0
  7  4  1  0
  8  6  1  0
  9 18  1  0
 10 17  2  0
 10 16  1  0
 11 16  1  0
 12 13  1  0
 12 11  1  0
 14 13  1  0
 14 23  1  0
 14 15  1  0
 16 15  1  0
 18 10  1  0
 18 19  1  0
 20 21  2  0
 21 22  1  0
 21 40  1  0
 22 25  1  0
 23 20  1  0
 23 24  1  0
 24 22  2  0
 25 26  1  0
 26 27  2  0
 28 27  1  0
 29 28  2  0
 30 29  1  0
 30 25  2  0
 31 28  1  0
 31 32  1  0
 32 33  1  0
 33 34  2  0
 35 34  1  0
 35 39  1  0
 36 35  2  0
 37 32  2  0
 37 36  1  0
 38 37  1  0
 40 41  1  0
 41 44  1  0
 41 43  1  0
 42 40  2  0
 45 20  1  0
 46 45  1  0
 47 45  1  0
 48 50  2  0
 49  1  1  0
 49 48  1  0
 51 49  1  0
 52 48  1  0
 53 52  1  0
 54 65  2  0
 55 60  1  0
 55 53  1  0
 56 64  1  0
 56 66  1  0
 57 63  1  0
 57 59  1  0
 58 64  1  0
 59 58  1  0
 60 59  2  0
 61 62  1  0
 61 55  2  0
 62 57  2  0
 63 56  1  0
 64 54  1  0
 66 68  2  0
 67 66  1  0
 69 67  1  0
 70 79  2  0
 70 75  1  0
 71 67  1  0
 71 75  1  0
 72 71  1  0
 73 74  1  0
 73 72  1  0
 74 70  1  0
 75 76  2  0
 76 77  1  0
 78 77  2  0
 79 78  1  0
 80 54  1  0
 80 85  1  0
 80 81  1  0
 81 84  1  1
 81 82  1  0
 83 81  1  0
 85 88  1  0
 86 90  1  0
 86 85  1  0
 87 86  2  0
 90 89  1  0
 92 93  1  0
 92 90  1  0
 92 91  1  0
M  ISO  4  10 100  18 100  52 101  53 101
M  END
>  <TORSDO>  (57) 
F 20

>  <SCORE>  (57) 
-9.710

>  <name>  (57) 
56

>  <ligand_id>  (57) 
56

>  <original_smiles>  (57) 
[H]c1c([H])c([H])c2c(c1[H])C([H])([H])C([H])([H])C([H])([H])C2([H])N([H])C(=O)C1([H])N(C(=O)C([H])(N([H])C(=O)C([H])(N([H])C([H])([H])[H])C([H])([H])[H])C(C([H])([H])[H])(C([H])([H])[H])C([H])([H])[H])C([H])([H])c2c([H])c(OC([H])([H])C(=O)N([H])C([H])([H])c3c([H])c([H])c(C([H])([H])[H])c(C([H])([H])N([H])C(=O)N4C([H])([H])C([H])([H])C([H])([H])C([H])(n5nc(-c6c([H])c([H])c(Oc7c([H])c([H])c(F)c([H])c7F)c([H])c6[H])c(C(=O)N([H])[H])c5N([H])[H])C4([H])[H])c3[H])c([H])c([H])c2C1([H])[H]

>  <smiles>  (57) 
[H]c1c([H])c([H])c2c(c1[H])C([H])([H])C([H])([H])C([H])([H])C2([H])N([H])C(=O)C1([H])N(C(=O)C([H])(N([H])C(=O)C([H])(N([H])C([H])([H])[H])C([H])([H])[H])C(C([H])([H])[H])(C([H])([H])[H])C([H])([H])[H])C([H])([H])c2c([H])c(OC([H])([H])C(=O)N([H])C([H])([H])c3c([H])c([H])c(C([H])([H])[H])c(C([H])([H])N([H])C(=O)N4C([H])([H])C([H])([H])C([H])([H])C([H])(n5nc(-c6c([H])c([H])c(Oc7c([H])c([H])c(F)c([H])c7F)c([H])c6[H])c(C(=O)N([H])[H])c5N([H])[H])C4([H])[H])c3[H])c([H])c([H])c2C1([H])[H]

$$$$
57:0:0
     RDKit          3D

103112  0  0  1  0  0  0  0  0999 V2000
  -28.2530  -24.0230   19.8510 C   0  0  0  0  0  0  0  0  0  0  0  0
  -28.3520  -23.4590   18.6260 C   0  0  0  0  0  3  0  0  0  0  0  0
  -26.5350  -25.2230   22.3890 C   0  0  0  0  0  2  0  0  0  0  0  0
  -26.8790  -23.8360   22.9220 C   0  0  0  0  0  2  0  0  0  0  0  0
  -27.7190  -25.8890   21.6810 C   0  0  0  0  0  2  0  0  0  0  0  0
  -27.1980  -22.7990   21.8310 C   0  0  0  0  0  2  0  0  0  0  0  0
  -27.9060  -25.4970   20.1960 C   0  0  0  0  0  3  0  0  0  0  0  0
  -28.4060  -23.0750   21.0050 N   0  0  2  0  0  4  0  0  0  0  0  0
  -28.4640  -22.1840   20.5360 H   0  0  0  0  0  0  0  0  0  0  0  0
  -28.0280  -24.6230   16.2720 C   0  0  0  0  0  3  0  0  0  0  0  0
  -28.1690  -24.1210   17.3760 C   0  0  0  0  0  0  0  0  0  0  0  0
  -29.7270  -23.0670   21.6940 C   0  0  0  0  0  2  0  0  0  0  0  0
  -30.8280  -19.6100   20.6770 C   0  0  0  0  0  3  0  0  0  0  0  0
  -30.4110  -20.8710   20.8820 C   0  0  0  0  0  3  0  0  0  0  0  0
  -31.3200  -18.7570   22.8510 C   0  0  0  0  0  3  0  0  0  0  0  0
  -31.3070  -18.6680   21.5080 C   0  0  0  0  0  3  0  0  0  0  0  0
  -30.2270  -21.6310   21.9900 C   0  0  0  0  0  0  0  0  0  0  0  0
  -30.4930  -21.2600   23.2790 C   0  0  0  0  0  0  0  0  0  0  0  0
  -30.9710  -19.9040   23.7150 C   0  0  0  0  0  0  0  0  0  0  0  0
  -31.1160  -19.6960   24.9570 N   0  0  0  0  0  2  0  0  0  0  0  0
  -30.2780  -22.4150   24.5610 Cl  0  0  0  0  0  0  0  0  0  0  0  0
  -31.4550  -18.7590   25.1430 H   0  0  0  0  0  0  0  0  0  0  0  0
  -32.1550  -17.5580   20.8950 C   0  0  0  0  0  2  0  0  0  0  0  0
  -32.0240  -15.1610   20.3100 C   0  0  0  0  0  0  0  0  0  0  0  0
  -31.8250  -12.7430   19.8920 C   0  0  0  0  0  2  0  0  0  0  0  0
  -30.9920  -12.4650   18.6270 C   0  0  0  0  0  2  0  0  0  0  0  0
  -29.4950  -12.3870   18.9790 C   0  0  0  0  0  2  0  0  0  0  0  0
  -29.0210  -13.5990   19.8240 C   0  0  0  0  0  3  0  0  0  0  0  0
  -29.9750  -13.8570   21.0120 C   0  0  0  0  0  2  0  0  0  0  0  0
  -31.3460  -13.9990   20.4900 N   0  0  0  0  0  0  0  0  0  0  0  0
  -33.0980  -15.2250   19.7050 O   0  0  0  0  0  0  0  0  0  0  0  0
  -31.4790  -16.2580   20.8550 N   0  0  0  0  0  0  0  0  0  0  0  0
  -30.6060  -16.1510   21.3490 H   0  0  0  0  0  0  0  0  0  0  0  0
  -26.6710  -14.3860   20.5240 C   0  0  0  0  0  0  0  0  0  0  0  0
  -25.5310  -13.6950   20.8360 C   0  0  0  0  0  0  0  0  0  0  0  0
  -25.8710  -12.3100   20.7440 C   0  0  0  0  0  0  0  0  0  0  0  0
  -27.6390  -13.4270   20.2670 N   0  0  0  0  0  0  0  0  0  0  0  0
  -27.1580  -12.1710   20.4540 N   0  0  0  0  0  0  0  0  0  0  0  0
  -25.0330  -11.1100   20.8580 C   0  0  0  0  0  0  0  0  0  0  0  0
  -25.2850  -10.1250   21.8400 C   0  0  0  0  0  3  0  0  0  0  0  0
  -24.4550   -8.9890   21.9430 C   0  0  0  0  0  3  0  0  0  0  0  0
  -23.3570   -8.8300   21.0660 C   0  0  0  0  0  0  0  0  0  0  0  0
  -23.1240   -9.8010   20.0770 C   0  0  0  0  0  3  0  0  0  0  0  0
  -23.9540  -10.9290   19.9710 C   0  0  0  0  0  3  0  0  0  0  0  0
  -22.5120   -7.7470   21.0750 O   0  0  0  0  0  0  0  0  0  0  0  0
  -22.1280   -7.1440   22.2460 C   0  0  0  0  0  0  0  0  0  0  0  0
  -21.4720   -7.8580   23.2720 C   0  0  0  0  0  3  0  0  0  0  0  0
  -21.0320   -7.1850   24.4300 C   0  0  0  0  0  3  0  0  0  0  0  0
  -21.2390   -5.7990   24.5580 C   0  0  0  0  0  0  0  0  0  0  0  0
  -21.8870   -5.0850   23.5360 C   0  0  0  0  0  3  0  0  0  0  0  0
  -22.3280   -5.7550   22.3810 C   0  0  0  0  0  0  0  0  0  0  0  0
  -22.9330   -5.0580   21.3890 F   0  0  0  0  0  0  0  0  0  0  0  0
  -20.8110   -5.1500   25.6670 F   0  0  0  0  0  0  0  0  0  0  0  0
  -24.1770  -14.2820   21.1130 C   0  0  0  0  0  0  0  0  0  0  0  0
  -23.3920  -13.6320   21.9680 N   0  0  0  0  0  0  0  0  0  0  0  0
  -23.8260  -15.3460   20.6090 O   0  0  0  0  0  0  0  0  0  0  0  0
  -23.6880  -12.7680   22.3960 H   0  0  0  0  0  0  0  0  0  0  0  0
  -22.4830  -14.0070   22.1970 H   0  0  0  0  0  0  0  0  0  0  0  0
  -26.9600  -15.7430   20.4180 N   0  0  0  0  0  0  0  0  0  0  0  0
  -26.2580  -16.4610   20.5510 H   0  0  0  0  0  0  0  0  0  0  0  0
  -27.8600  -16.1160   20.1420 H   0  0  0  0  0  0  0  0  0  0  0  0
  -28.8580  -26.5440   19.5290 C   0  0  0  0  0  2  0  0  0  0  0  0
  -28.2490  -27.3810   18.5410 O   0  0  0  0  0  0  0  0  0  0  0  0
  -25.0690  -31.3720   23.5450 C   0  0  0  0  0  0  0  0  0  0  0  0
  -27.1660  -28.1180   18.9490 C   0  0  0  0  0  0  0  0  0  0  0  0
  -23.6560  -30.6570   21.6460 C   0  0  0  0  0  3  0  0  0  0  0  0
  -24.8940  -29.6230   19.6740 C   0  0  0  0  0  0  0  0  0  0  0  0
  -26.1800  -30.9430   21.3600 C   0  0  0  0  0  2  0  0  0  0  0  0
  -26.1240  -29.8610   20.3040 C   0  0  0  0  0  0  0  0  0  0  0  0
  -27.2660  -29.1060   19.9520 C   0  0  0  0  0  3  0  0  0  0  0  0
  -25.9270  -27.9100   18.3070 C   0  0  0  0  0  3  0  0  0  0  0  0
  -24.7860  -28.6380   18.6780 C   0  0  0  0  0  3  0  0  0  0  0  0
  -23.7240  -30.4740   20.1070 C   0  0  0  0  0  2  0  0  0  0  0  0
  -24.9910  -30.9840   22.2420 N   0  0  0  0  0  0  0  0  0  0  0  0
  -24.0510  -31.5000   24.2380 O   0  0  0  0  0  0  0  0  0  0  0  0
  -22.9960  -29.4030   22.2670 C   0  0  0  0  0  0  0  0  0  0  0  0
  -21.6620  -29.3030   22.1390 N   0  0  0  0  0  0  0  0  0  0  0  0
  -23.6790  -28.5380   22.8220 O   0  0  0  0  0  0  0  0  0  0  0  0
  -21.1730  -30.0570   21.6780 H   0  0  0  0  0  0  0  0  0  0  0  0
  -18.2770  -28.0510   22.2840 C   0  0  0  0  0  0  0  0  0  0  0  0
  -20.8360  -28.1930   22.6140 C   0  0  0  0  0  3  0  0  0  0  0  0
  -20.9240  -26.9830   21.6570 C   0  0  0  0  0  2  0  0  0  0  0  0
  -19.8210  -26.9710   20.5940 C   0  0  0  0  0  2  0  0  0  0  0  0
  -18.4410  -26.9430   21.2560 C   0  0  0  0  0  2  0  0  0  0  0  0
  -19.4020  -28.6470   22.9110 C   0  0  0  0  0  0  0  0  0  0  0  0
  -19.1980  -29.6950   23.8350 C   0  0  0  0  0  3  0  0  0  0  0  0
  -17.8990  -30.1460   24.1350 C   0  0  0  0  0  3  0  0  0  0  0  0
  -16.7860  -29.5430   23.5230 C   0  0  0  0  0  3  0  0  0  0  0  0
  -16.9770  -28.4930   22.6050 C   0  0  0  0  0  3  0  0  0  0  0  0
  -26.4380  -31.6980   24.2180 C   0  0  0  0  0  3  0  0  0  0  0  0
  -26.2880  -32.9790   24.9210 N   0  0  0  0  0  0  0  0  0  0  0  0
  -26.7980  -34.1420   24.4960 C   0  0  0  0  0  0  0  0  0  0  0  0
  -27.5170  -34.2340   23.4960 O   0  0  0  0  0  0  0  0  0  0  0  0
  -25.6670  -32.9880   25.7170 H   0  0  0  0  0  0  0  0  0  0  0  0
  -25.3960  -36.2260   24.5700 C   0  0  0  0  0  1  0  0  0  0  0  0
  -26.4620  -35.4060   25.3120 C   0  0  0  0  0  3  0  0  0  0  0  0
  -28.5890  -35.6450   26.5150 C   0  0  0  0  0  1  0  0  0  0  0  0
  -27.6400  -36.2580   25.5880 N   0  0  0  0  0  0  0  0  0  0  0  0
  -27.3530  -37.1520   25.9770 H   0  0  0  0  0  0  0  0  0  0  0  0
  -26.9300  -30.5680   25.2040 C   0  0  1  0  0  0  0  0  0  0  0  0
  -25.8710  -30.1530   26.2520 C   0  0  0  0  0  1  0  0  0  0  0  0
  -27.3420  -29.2990   24.4210 C   0  0  0  0  0  1  0  0  0  0  0  0
  -28.1910  -31.0470   25.9610 C   0  0  0  0  0  1  0  0  0  0  0  0
  1  7  1  0
  1  8  1  0
  2  1  2  0
  3  4  1  0
  5  3  1  0
  6  4  1  0
  7 62  1  0
  7  5  1  0
  8 12  1  0
  8  6  1  0
  8  9  1  6
 10 11  3  0
 11  2  1  0
 12 17  1  0
 13 14  2  0
 13 16  1  0
 14 17  1  0
 15 19  2  0
 16 23  1  0
 16 15  1  0
 17 18  2  0
 18 19  1  0
 18 21  1  0
 19 20  1  0
 20 22  1  0
 24 30  1  0
 24 32  1  0
 25 30  1  0
 26 27  1  0
 26 25  1  0
 28 27  1  0
 28 37  1  0
 28 29  1  0
 30 29  1  0
 31 24  2  0
 32 23  1  0
 32 33  1  0
 34 35  2  0
 35 54  1  0
 36 35  1  0
 36 39  1  0
 37 38  1  0
 37 34  1  0
 38 36  2  0
 39 40  1  0
 40 41  2  0
 42 45  1  0
 42 41  1  0
 43 42  2  0
 44 43  1  0
 44 39  2  0
 45 46  1  0
 46 51  2  0
 46 47  1  0
 47 48  2  0
 48 49  1  0
 49 53  1  0
 50 49  2  0
 51 50  1  0
 52 51  1  0
 54 55  1  0
 55 58  1  0
 55 57  1  0
 56 54  2  0
 59 34  1  0
 59 60  1  0
 61 59  1  0
 63 65  1  0
 63 62  1  0
 64 75  2  0
 65 70  1  0
 66 74  1  0
 66 76  1  0
 67 73  1  0
 67 69  1  0
 68 74  1  0
 69 68  1  0
 70 69  2  0
 71 72  1  0
 71 65  2  0
 72 67  2  0
 73 66  1  0
 74 64  1  0
 76 78  2  0
 77 76  1  0
 79 77  1  0
 80 89  2  0
 80 85  1  0
 81 77  1  0
 81 85  1  0
 82 81  1  0
 83 84  1  0
 83 82  1  0
 84 80  1  0
 85 86  2  0
 86 87  1  0
 88 87  2  0
 89 88  1  0
 90 64  1  0
 90 91  1  0
 90100  1  0
 91 94  1  0
 92 91  1  0
 92 96  1  0
 93 92  2  0
 96 95  1  0
 96 98  1  0
 98 99  1  0
 98 97  1  0
100103  1  1
100101  1  0
102100  1  0
M  ISO  4  24 100  32 100  62 101  63 101
M  END
>  <TORSDO>  (58) 
F 21

>  <SCORE>  (58) 
-7.941

>  <name>  (58) 
57

>  <ligand_id>  (58) 
57

>  <original_smiles>  (58) 
[H]C#CC([H])=C1C([H])(C([H])([H])Oc2c([H])c([H])c3c(c2[H])C([H])([H])N(C(=O)C([H])(N([H])C(=O)C([H])(N([H])C([H])([H])[H])C([H])([H])[H])C(C([H])([H])[H])(C([H])([H])[H])C([H])([H])[H])C([H])(C(=O)N([H])C2([H])c4c([H])c([H])c([H])c([H])c4C([H])([H])C([H])([H])C2([H])[H])C3([H])[H])C([H])([H])C([H])([H])C([H])([H])C([H])([H])[N+]1([H])C([H])([H])c1c([H])c([H])c(C([H])([H])N([H])C(=O)N2C([H])([H])C([H])([H])C([H])([H])C([H])(n3nc(-c4c([H])c([H])c(Oc5c([H])c([H])c(F)c([H])c5F)c([H])c4[H])c(C(=O)N([H])[H])c3N([H])[H])C2([H])[H])c([H])c(=N[H])c1Cl

>  <smiles>  (58) 
[H]C#CC([H])=C1C([H])(C([H])([H])Oc2c([H])c([H])c3c(c2[H])C([H])([H])N(C(=O)C([H])(N([H])C(=O)C([H])(N([H])C([H])([H])[H])C([H])([H])[H])C(C([H])([H])[H])(C([H])([H])[H])C([H])([H])[H])C([H])(C(=O)N([H])C2([H])c4c([H])c([H])c([H])c([H])c4C([H])([H])C([H])([H])C2([H])[H])C3([H])[H])C([H])([H])C([H])([H])C([H])([H])C([H])([H])[N+]1([H])C([H])([H])c1c([H])c([H])c(C([H])([H])N([H])C(=O)N2C([H])([H])C([H])([H])C([H])([H])C([H])(n3nc(-c4c([H])c([H])c(Oc5c([H])c([H])c(F)c([H])c5F)c([H])c4[H])c(C(=O)N([H])[H])c3N([H])[H])C2([H])[H])c([H])c(=N[H])c1Cl

$$$$
58:0:0
     RDKit          3D

 96105  0  0  1  0  0  0  0  0999 V2000
  -28.6480  -24.9530   17.9740 C   0  0  0  0  0  2  0  0  0  0  0  0
  -28.4280  -23.5910   17.2880 C   0  0  0  0  0  2  0  0  0  0  0  0
  -29.7170  -23.7060   19.8820 C   0  0  0  0  0  2  0  0  0  0  0  0
  -28.6000  -24.8210   19.5060 C   0  0  0  0  0  3  0  0  0  0  0  0
  -29.5300  -22.5500   17.6310 C   0  0  0  0  0  3  0  0  0  0  0  0
  -29.6950  -22.3420   19.1230 N   0  0  1  0  0  4  0  0  0  0  0  0
  -28.8730  -21.8470   19.4440 H   0  0  0  0  0  0  0  0  0  0  0  0
  -29.9350  -21.0950   15.4830 C   0  0  0  0  0  1  0  0  0  0  0  0
  -29.2200  -21.2390   16.8460 C   0  0  0  0  0  2  0  0  0  0  0  0
  -28.6250  -26.2300   20.0860 O   0  0  0  0  0  0  0  0  0  0  0  0
  -24.6600  -31.6340   23.0780 C   0  0  0  0  0  0  0  0  0  0  0  0
  -27.4880  -27.0930   20.0430 C   0  0  0  0  0  0  0  0  0  0  0  0
  -23.5470  -30.1980   21.4090 C   0  0  0  0  0  3  0  0  0  0  0  0
  -25.0790  -28.6900   20.0180 C   0  0  0  0  0  0  0  0  0  0  0  0
  -26.0930  -30.5670   21.3050 C   0  0  0  0  0  2  0  0  0  0  0  0
  -26.2260  -29.1870   20.6530 C   0  0  0  0  0  0  0  0  0  0  0  0
  -27.4230  -28.3890   20.6720 C   0  0  0  0  0  3  0  0  0  0  0  0
  -26.3080  -26.6830   19.3750 C   0  0  0  0  0  3  0  0  0  0  0  0
  -25.1250  -27.4440   19.3770 C   0  0  0  0  0  3  0  0  0  0  0  0
  -23.8230  -29.5410   20.0320 C   0  0  0  0  0  2  0  0  0  0  0  0
  -24.7840  -30.8210   21.9870 N   0  0  0  0  0  0  0  0  0  0  0  0
  -23.5510  -31.8840   23.5790 O   0  0  0  0  0  0  0  0  0  0  0  0
  -22.8880  -29.1650   22.3550 C   0  0  0  0  0  0  0  0  0  0  0  0
  -21.5590  -28.9780   22.2270 N   0  0  0  0  0  0  0  0  0  0  0  0
  -23.5670  -28.5290   23.1640 O   0  0  0  0  0  0  0  0  0  0  0  0
  -21.0680  -29.5420   21.5500 H   0  0  0  0  0  0  0  0  0  0  0  0
  -18.1880  -27.7520   22.7120 C   0  0  0  0  0  0  0  0  0  0  0  0
  -20.7470  -28.0210   22.9810 C   0  0  0  0  0  3  0  0  0  0  0  0
  -20.8560  -26.6020   22.3720 C   0  0  0  0  0  2  0  0  0  0  0  0
  -19.7520  -26.2970   21.3560 C   0  0  0  0  0  2  0  0  0  0  0  0
  -18.3700  -26.4180   22.0060 C   0  0  0  0  0  2  0  0  0  0  0  0
  -19.3020  -28.5120   23.1540 C   0  0  0  0  0  0  0  0  0  0  0  0
  -19.0760  -29.7630   23.7710 C   0  0  0  0  0  3  0  0  0  0  0  0
  -17.7660  -30.2490   23.9520 C   0  0  0  0  0  3  0  0  0  0  0  0
  -16.6690  -29.4860   23.5250 C   0  0  0  0  0  3  0  0  0  0  0  0
  -16.8770  -28.2380   22.9130 C   0  0  0  0  0  3  0  0  0  0  0  0
  -25.9020  -32.3090   23.7390 C   0  0  0  0  0  3  0  0  0  0  0  0
  -26.4290  -31.5370   25.0110 C   0  0  1  0  0  0  0  0  0  0  0  0
  -25.3270  -31.2380   26.0570 C   0  0  0  0  0  1  0  0  0  0  0  0
  -27.0680  -30.1910   24.6070 C   0  0  0  0  0  1  0  0  0  0  0  0
  -27.5450  -32.3560   25.6930 C   0  0  0  0  0  1  0  0  0  0  0  0
  -25.5280  -33.6890   24.0960 N   0  0  0  0  0  0  0  0  0  0  0  0
  -25.8300  -34.7720   23.3670 C   0  0  0  0  0  0  0  0  0  0  0  0
  -26.5200  -34.7190   22.3450 O   0  0  0  0  0  0  0  0  0  0  0  0
  -24.9200  -33.8030   24.8930 H   0  0  0  0  0  0  0  0  0  0  0  0
  -24.0310  -36.4960   23.0340 C   0  0  0  0  0  1  0  0  0  0  0  0
  -25.2810  -36.1280   23.8510 C   0  0  0  0  0  3  0  0  0  0  0  0
  -27.3700  -37.0770   24.7210 C   0  0  0  0  0  1  0  0  0  0  0  0
  -26.2710  -37.2230   23.7710 N   0  0  0  0  0  0  0  0  0  0  0  0
  -25.8270  -38.1200   23.9420 H   0  0  0  0  0  0  0  0  0  0  0  0
  -30.8860  -21.3900   19.4010 C   0  0  0  0  0  2  0  0  0  0  0  0
  -30.6460  -20.0640   21.5500 C   0  0  0  0  0  3  0  0  0  0  0  0
  -30.6330  -18.8940   22.3210 C   0  0  0  0  0  3  0  0  0  0  0  0
  -30.8860  -18.6720   19.5530 C   0  0  0  0  0  3  0  0  0  0  0  0
  -30.7420  -19.9990   20.1480 C   0  0  0  0  0  0  0  0  0  0  0  0
  -30.7330  -17.6150   21.7320 C   0  0  0  0  0  0  0  0  0  0  0  0
  -30.9190  -17.4400   20.3300 C   0  0  0  0  0  0  0  0  0  0  0  0
  -30.5550  -16.4290   22.6540 C   0  0  0  0  0  1  0  0  0  0  0  0
  -31.6460  -14.8960   19.9490 C   0  0  0  0  0  0  0  0  0  0  0  0
  -31.3020  -12.6010   18.9810 C   0  0  0  0  0  2  0  0  0  0  0  0
  -30.3330  -12.7230   17.7800 C   0  0  0  0  0  2  0  0  0  0  0  0
  -28.8530  -12.7120   18.2290 C   0  0  0  0  0  2  0  0  0  0  0  0
  -28.5800  -13.6030   19.4670 C   0  0  0  0  0  3  0  0  0  0  0  0
  -29.6710  -13.4000   20.5400 C   0  0  0  0  0  2  0  0  0  0  0  0
  -30.9610  -13.6960   19.9070 N   0  0  0  0  0  0  0  0  0  0  0  0
  -32.8620  -14.9170   19.7490 O   0  0  0  0  0  0  0  0  0  0  0  0
  -30.8700  -16.0440   19.8000 N   0  0  0  0  0  0  0  0  0  0  0  0
  -29.9340  -15.7630   19.5570 H   0  0  0  0  0  0  0  0  0  0  0  0
  -26.2820  -14.3780   20.3000 C   0  0  0  0  0  0  0  0  0  0  0  0
  -25.1620  -13.6960   20.6730 C   0  0  0  0  0  0  0  0  0  0  0  0
  -25.4930  -12.3090   20.5820 C   0  0  0  0  0  0  0  0  0  0  0  0
  -27.2350  -13.4160   20.0030 N   0  0  0  0  0  0  0  0  0  0  0  0
  -26.7660  -12.1620   20.2310 N   0  0  0  0  0  0  0  0  0  0  0  0
  -24.6550  -11.1190   20.7590 C   0  0  0  0  0  0  0  0  0  0  0  0
  -24.9930  -10.1070   21.6840 C   0  0  0  0  0  3  0  0  0  0  0  0
  -24.1620   -8.9750   21.8470 C   0  0  0  0  0  3  0  0  0  0  0  0
  -22.9680   -8.8590   21.0950 C   0  0  0  0  0  0  0  0  0  0  0  0
  -22.6440   -9.8620   20.1630 C   0  0  0  0  0  3  0  0  0  0  0  0
  -23.4770  -10.9810   20.0000 C   0  0  0  0  0  3  0  0  0  0  0  0
  -22.1150   -7.7840   21.1690 O   0  0  0  0  0  0  0  0  0  0  0  0
  -21.9510   -7.0700   22.3280 C   0  0  0  0  0  0  0  0  0  0  0  0
  -21.5570   -7.6860   23.5360 C   0  0  0  0  0  3  0  0  0  0  0  0
  -21.3270   -6.9030   24.6860 C   0  0  0  0  0  3  0  0  0  0  0  0
  -21.4870   -5.5050   24.6290 C   0  0  0  0  0  0  0  0  0  0  0  0
  -21.8740   -4.8900   23.4270 C   0  0  0  0  0  3  0  0  0  0  0  0
  -22.0970   -5.6680   22.2780 C   0  0  0  0  0  0  0  0  0  0  0  0
  -22.4520   -5.0650   21.1180 F   0  0  0  0  0  0  0  0  0  0  0  0
  -21.2560   -4.7520   25.7310 F   0  0  0  0  0  0  0  0  0  0  0  0
  -23.8210  -14.2860   21.0040 C   0  0  0  0  0  0  0  0  0  0  0  0
  -23.0670  -13.6560   21.8950 N   0  0  0  0  0  0  0  0  0  0  0  0
  -23.4570  -15.3500   20.5040 O   0  0  0  0  0  0  0  0  0  0  0  0
  -23.3700  -12.7950   22.3280 H   0  0  0  0  0  0  0  0  0  0  0  0
  -22.1720  -14.0460   22.1570 H   0  0  0  0  0  0  0  0  0  0  0  0
  -26.5570  -15.7390   20.1710 N   0  0  0  0  0  0  0  0  0  0  0  0
  -25.8130  -16.4150   20.3060 H   0  0  0  0  0  0  0  0  0  0  0  0
  -27.4020  -16.1460   19.7910 H   0  0  0  0  0  0  0  0  0  0  0  0
  1  4  1  0
  2  5  1  0
  2  1  1  0
  4  3  1  0
  4 10  1  0
  5  9  1  0
  5  6  1  0
  6 51  1  0
  6  7  1  1
  6  3  1  0
  8  9  1  0
 11 22  2  0
 12 10  1  0
 12 17  1  0
 13 21  1  0
 13 23  1  0
 14 20  1  0
 14 16  1  0
 15 21  1  0
 16 17  2  0
 16 15  1  0
 18 19  1  0
 18 12  2  0
 19 14  2  0
 20 13  1  0
 21 11  1  0
 23 25  2  0
 24 23  1  0
 26 24  1  0
 27 36  2  0
 27 32  1  0
 28 24  1  0
 28 32  1  0
 29 28  1  0
 30 31  1  0
 30 29  1  0
 31 27  1  0
 32 33  2  0
 33 34  1  0
 35 34  2  0
 36 35  1  0
 37 11  1  0
 37 42  1  0
 37 38  1  0
 38 41  1  1
 38 39  1  0
 40 38  1  0
 42 45  1  0
 43 47  1  0
 43 42  1  0
 44 43  2  0
 47 46  1  0
 49 47  1  0
 49 50  1  0
 49 48  1  0
 51 55  1  0
 52 53  1  0
 54 55  1  0
 54 57  2  0
 55 52  2  0
 56 53  2  0
 56 58  1  0
 57 56  1  0
 60 65  1  0
 61 62  1  0
 61 60  1  0
 63 62  1  0
 63 72  1  0
 63 64  1  0
 65 59  1  0
 65 64  1  0
 66 59  2  0
 67 59  1  0
 67 57  1  0
 68 67  1  0
 69 70  2  0
 70 89  1  0
 71 70  1  0
 71 74  1  0
 72 73  1  0
 72 69  1  0
 73 71  2  0
 74 75  1  0
 75 76  2  0
 77 80  1  0
 77 76  1  0
 78 77  2  0
 79 78  1  0
 79 74  2  0
 80 81  1  0
 81 82  1  0
 82 83  2  0
 84 83  1  0
 84 88  1  0
 85 84  2  0
 86 81  2  0
 86 85  1  0
 87 86  1  0
 89 90  1  0
 90 93  1  0
 90 92  1  0
 91 89  2  0
 94 69  1  0
 94 95  1  0
 96 94  1  0
M  ISO  4   4 101  10 101  59 100  67 100
M  END
>  <TORSDO>  (59) 
F 19

>  <SCORE>  (59) 
-12.506

>  <name>  (59) 
58

>  <ligand_id>  (59) 
58

>  <original_smiles>  (59) 
[H]c1c([H])c([H])c2c(c1[H])C([H])([H])C([H])([H])C([H])([H])C2([H])N([H])C(=O)C1([H])N(C(=O)C([H])(N([H])C(=O)C([H])(N([H])C([H])([H])[H])C([H])([H])[H])C(C([H])([H])[H])(C([H])([H])[H])C([H])([H])[H])C([H])([H])c2c([H])c(OC3([H])C([H])([H])C([H])([H])C([H])(C([H])([H])C([H])([H])[H])[N+]([H])(C([H])([H])c4c([H])c([H])c(C([H])([H])[H])c(N([H])C(=O)N5C([H])([H])C([H])([H])C([H])([H])C([H])(n6nc(-c7c([H])c([H])c(Oc8c([H])c([H])c(F)c([H])c8F)c([H])c7[H])c(C(=O)N([H])[H])c6N([H])[H])C5([H])[H])c4[H])C3([H])[H])c([H])c([H])c2C1([H])[H]

>  <smiles>  (59) 
[H]c1c([H])c([H])c2c(c1[H])C([H])([H])C([H])([H])C([H])([H])C2([H])N([H])C(=O)C1([H])N(C(=O)C([H])(N([H])C(=O)C([H])(N([H])C([H])([H])[H])C([H])([H])[H])C(C([H])([H])[H])(C([H])([H])[H])C([H])([H])[H])C([H])([H])c2c([H])c(OC3([H])C([H])([H])C([H])([H])C([H])(C([H])([H])C([H])([H])[H])[N+]([H])(C([H])([H])c4c([H])c([H])c(C([H])([H])[H])c(N([H])C(=O)N5C([H])([H])C([H])([H])C([H])([H])C([H])(n6nc(-c7c([H])c([H])c(Oc8c([H])c([H])c(F)c([H])c8F)c([H])c7[H])c(C(=O)N([H])[H])c6N([H])[H])C5([H])[H])c4[H])C3([H])[H])c([H])c([H])c2C1([H])[H]

$$$$
59:0:0
     RDKit          3D

 98107  0  0  1  0  0  0  0  0999 V2000
  -28.3500  -23.0200   18.9950 C   0  0  0  0  0  0  0  0  0  0  0  0
  -27.1590  -22.6670   18.4650 C   0  0  0  0  0  3  0  0  0  0  0  0
  -28.8200  -24.4730   19.0520 C   0  0  0  0  0  2  0  0  0  0  0  0
  -28.1500  -23.1600   21.8480 C   0  0  0  0  0  2  0  0  0  0  0  0
  -28.6810  -24.6020   21.5810 C   0  0  0  0  0  2  0  0  0  0  0  0
  -28.9040  -21.9490   21.2100 C   0  0  0  0  0  2  0  0  0  0  0  0
  -28.1590  -25.1990   20.2490 C   0  0  0  0  0  3  0  0  0  0  0  0
  -26.4740  -21.3230   18.4670 C   0  0  0  0  0  1  0  0  0  0  0  0
  -29.2830  -22.1310   19.7840 N   0  0  1  0  0  4  0  0  0  0  0  0
  -30.1130  -22.7000   19.8770 H   0  0  0  0  0  0  0  0  0  0  0  0
  -28.3110  -26.6440   20.1820 O   0  0  0  0  0  0  0  0  0  0  0  0
  -24.6050  -31.9260   23.2510 C   0  0  0  0  0  0  0  0  0  0  0  0
  -27.1580  -27.4240   20.1470 C   0  0  0  0  0  0  0  0  0  0  0  0
  -23.3640  -30.5410   21.6210 C   0  0  0  0  0  3  0  0  0  0  0  0
  -24.7850  -28.9900   20.1740 C   0  0  0  0  0  0  0  0  0  0  0  0
  -25.8930  -30.8610   21.3960 C   0  0  0  0  0  2  0  0  0  0  0  0
  -25.9540  -29.4850   20.7590 C   0  0  0  0  0  0  0  0  0  0  0  0
  -27.1430  -28.7100   20.7410 C   0  0  0  0  0  3  0  0  0  0  0  0
  -25.9730  -26.9760   19.5130 C   0  0  0  0  0  3  0  0  0  0  0  0
  -24.7910  -27.7370   19.5410 C   0  0  0  0  0  3  0  0  0  0  0  0
  -23.5500  -29.8620   20.2390 C   0  0  0  0  0  2  0  0  0  0  0  0
  -24.6400  -31.1280   22.1470 N   0  0  0  0  0  0  0  0  0  0  0  0
  -23.5310  -32.2100   23.8000 O   0  0  0  0  0  0  0  0  0  0  0  0
  -22.7130  -29.5250   22.5880 C   0  0  0  0  0  0  0  0  0  0  0  0
  -21.3880  -29.3520   22.4670 N   0  0  0  0  0  0  0  0  0  0  0  0
  -23.3940  -28.9000   23.4060 O   0  0  0  0  0  0  0  0  0  0  0  0
  -20.9040  -29.9090   21.7770 H   0  0  0  0  0  0  0  0  0  0  0  0
  -18.0080  -28.1690   22.9710 C   0  0  0  0  0  0  0  0  0  0  0  0
  -20.5650  -28.4220   23.2430 C   0  0  0  0  0  3  0  0  0  0  0  0
  -20.6640  -26.9890   22.6720 C   0  0  0  0  0  2  0  0  0  0  0  0
  -19.5600  -26.6630   21.6600 C   0  0  0  0  0  2  0  0  0  0  0  0
  -18.1790  -26.8170   22.3020 C   0  0  0  0  0  2  0  0  0  0  0  0
  -19.1280  -28.9310   23.3970 C   0  0  0  0  0  0  0  0  0  0  0  0
  -18.9130  -30.1990   23.9810 C   0  0  0  0  0  3  0  0  0  0  0  0
  -17.6070  -30.7030   24.1450 C   0  0  0  0  0  3  0  0  0  0  0  0
  -16.5020  -29.9370   23.7320 C   0  0  0  0  0  3  0  0  0  0  0  0
  -16.7020  -28.6720   23.1530 C   0  0  0  0  0  3  0  0  0  0  0  0
  -25.9030  -32.5400   23.8630 C   0  0  0  0  0  3  0  0  0  0  0  0
  -25.6160  -33.9410   24.1970 N   0  0  0  0  0  0  0  0  0  0  0  0
  -25.9490  -34.9890   23.4340 C   0  0  0  0  0  0  0  0  0  0  0  0
  -26.6030  -34.8800   22.3930 O   0  0  0  0  0  0  0  0  0  0  0  0
  -25.0270  -34.1030   25.0000 H   0  0  0  0  0  0  0  0  0  0  0  0
  -24.2300  -36.8010   23.1080 C   0  0  0  0  0  1  0  0  0  0  0  0
  -25.4810  -36.3830   23.9000 C   0  0  0  0  0  3  0  0  0  0  0  0
  -27.6360  -37.2460   24.6950 C   0  0  0  0  0  1  0  0  0  0  0  0
  -26.5210  -37.4270   23.7680 N   0  0  0  0  0  0  0  0  0  0  0  0
  -26.1280  -38.3530   23.9210 H   0  0  0  0  0  0  0  0  0  0  0  0
  -26.4230  -31.7560   25.1310 C   0  0  1  0  0  0  0  0  0  0  0  0
  -25.3360  -31.5230   26.2050 C   0  0  0  0  0  1  0  0  0  0  0  0
  -26.9850  -30.3740   24.7240 C   0  0  0  0  0  1  0  0  0  0  0  0
  -27.5920  -32.5300   25.7850 C   0  0  0  0  0  1  0  0  0  0  0  0
  -29.9030  -20.9470   19.0860 C   0  0  0  0  0  2  0  0  0  0  0  0
  -30.7020  -19.1130   20.7490 C   0  0  0  0  0  3  0  0  0  0  0  0
  -28.9870  -17.2190   19.5830 C   0  0  0  0  0  3  0  0  0  0  0  0
  -30.7460  -17.7620   21.1880 C   0  0  0  0  0  0  0  0  0  0  0  0
  -29.8260  -19.5260   19.7050 C   0  0  0  0  0  0  0  0  0  0  0  0
  -29.8880  -16.8050   20.5910 C   0  0  0  0  0  0  0  0  0  0  0  0
  -28.9810  -18.5490   19.1210 C   0  0  0  0  0  0  0  0  0  0  0  0
  -31.7310  -17.3430   22.2780 C   0  0  0  0  0  1  0  0  0  0  0  0
  -28.1900  -18.8560   18.0660 F   0  0  0  0  0  0  0  0  0  0  0  0
  -30.5950  -14.4720   20.3950 C   0  0  0  0  0  0  0  0  0  0  0  0
  -30.3180  -12.3460   19.1930 C   0  0  0  0  0  2  0  0  0  0  0  0
  -29.3540  -12.5670   18.0070 C   0  0  0  0  0  2  0  0  0  0  0  0
  -27.8850  -12.4230   18.4470 C   0  0  0  0  0  2  0  0  0  0  0  0
  -27.5570  -13.2330   19.7250 C   0  0  0  0  0  3  0  0  0  0  0  0
  -28.6180  -12.9730   20.8170 C   0  0  0  0  0  2  0  0  0  0  0  0
  -29.9430  -13.2890   20.2550 N   0  0  0  0  0  0  0  0  0  0  0  0
  -31.7150  -14.6880   19.9210 O   0  0  0  0  0  0  0  0  0  0  0  0
  -29.8730  -15.4400   20.9880 N   0  0  0  0  0  0  0  0  0  0  0  0
  -28.9820  -15.1000   21.3140 H   0  0  0  0  0  0  0  0  0  0  0  0
  -25.1450  -13.8380   20.4010 C   0  0  0  0  0  0  0  0  0  0  0  0
  -24.0790  -13.0630   20.7720 C   0  0  0  0  0  0  0  0  0  0  0  0
  -24.5530  -11.7150   20.7680 C   0  0  0  0  0  0  0  0  0  0  0  0
  -26.2010  -12.9630   20.1950 N   0  0  0  0  0  0  0  0  0  0  0  0
  -25.8460  -11.6840   20.4730 N   0  0  0  0  0  0  0  0  0  0  0  0
  -23.8350  -10.4510   20.9780 C   0  0  0  0  0  0  0  0  0  0  0  0
  -24.2630   -9.5110   21.9440 C   0  0  0  0  0  3  0  0  0  0  0  0
  -23.5470   -8.3100   22.1360 C   0  0  0  0  0  3  0  0  0  0  0  0
  -22.3920   -8.0380   21.3640 C   0  0  0  0  0  0  0  0  0  0  0  0
  -21.9850   -8.9680   20.3910 C   0  0  0  0  0  3  0  0  0  0  0  0
  -22.7000  -10.1610   20.1960 C   0  0  0  0  0  3  0  0  0  0  0  0
  -21.6480   -6.8860   21.4660 O   0  0  0  0  0  0  0  0  0  0  0  0
  -21.5920   -6.1710   22.6350 C   0  0  0  0  0  0  0  0  0  0  0  0
  -21.1350   -6.7480   23.8410 C   0  0  0  0  0  3  0  0  0  0  0  0
  -21.0210   -5.9590   25.0020 C   0  0  0  0  0  3  0  0  0  0  0  0
  -21.3560   -4.5920   24.9600 C   0  0  0  0  0  0  0  0  0  0  0  0
  -21.8090   -4.0150   23.7600 C   0  0  0  0  0  3  0  0  0  0  0  0
  -21.9220   -4.8020   22.6000 C   0  0  0  0  0  0  0  0  0  0  0  0
  -22.3370   -4.2360   21.4420 F   0  0  0  0  0  0  0  0  0  0  0  0
  -21.2420   -3.8290   26.0730 F   0  0  0  0  0  0  0  0  0  0  0  0
  -22.6780  -13.5310   21.0280 C   0  0  0  0  0  0  0  0  0  0  0  0
  -21.9480  -12.8410   21.8960 N   0  0  0  0  0  0  0  0  0  0  0  0
  -22.2360  -14.5470   20.4890 O   0  0  0  0  0  0  0  0  0  0  0  0
  -22.3160  -12.0180   22.3520 H   0  0  0  0  0  0  0  0  0  0  0  0
  -21.0070  -13.1430   22.1110 H   0  0  0  0  0  0  0  0  0  0  0  0
  -25.2940  -15.2090   20.2130 N   0  0  0  0  0  0  0  0  0  0  0  0
  -24.5200  -15.8580   20.3170 H   0  0  0  0  0  0  0  0  0  0  0  0
  -26.1570  -15.6660   19.9500 H   0  0  0  0  0  0  0  0  0  0  0  0
  1  3  1  0
  1  9  1  0
  2  8  1  0
  2  1  2  0
  3  7  1  0
  5  4  1  0
  6  4  1  0
  7 11  1  0
  7  5  1  0
  9 10  1  1
  9  6  1  0
 12 23  2  0
 13 11  1  0
 13 18  1  0
 14 22  1  0
 14 24  1  0
 15 21  1  0
 15 17  1  0
 16 22  1  0
 17 16  1  0
 18 17  2  0
 19 20  1  0
 19 13  2  0
 20 15  2  0
 21 14  1  0
 22 12  1  0
 24 26  2  0
 25 24  1  0
 27 25  1  0
 28 37  2  0
 28 33  1  0
 29 25  1  0
 29 33  1  0
 30 29  1  0
 31 32  1  0
 31 30  1  0
 32 28  1  0
 33 34  2  0
 34 35  1  0
 36 35  2  0
 37 36  1  0
 38 12  1  0
 38 39  1  0
 38 48  1  0
 39 42  1  0
 40 44  1  0
 40 39  1  0
 41 40  2  0
 44 43  1  0
 46 44  1  0
 46 47  1  0
 46 45  1  0
 48 51  1  1
 48 49  1  0
 50 48  1  0
 52 56  1  0
 52  9  1  0
 53 55  1  0
 54 57  1  0
 55 59  1  0
 56 53  2  0
 57 69  1  0
 57 55  2  0
 58 54  2  0
 58 56  1  0
 60 58  1  0
 61 69  1  0
 62 67  1  0
 63 64  1  0
 63 62  1  0
 65 64  1  0
 65 74  1  0
 65 66  1  0
 67 61  1  0
 67 66  1  0
 68 61  2  0
 69 70  1  0
 71 72  2  0
 72 91  1  0
 73 72  1  0
 73 76  1  0
 74 71  1  0
 74 75  1  0
 75 73  2  0
 76 77  1  0
 77 78  2  0
 79 82  1  0
 79 78  1  0
 80 79  2  0
 81 80  1  0
 81 76  2  0
 82 83  1  0
 83 84  1  0
 84 85  2  0
 86 85  1  0
 86 90  1  0
 87 86  2  0
 88 83  2  0
 88 87  1  0
 89 88  1  0
 91 92  1  0
 92 95  1  0
 92 94  1  0
 93 91  2  0
 96 97  1  0
 96 71  1  0
 98 96  1  0
M  ISO  4   7 101  11 101  61 100  69 100
M  END
>  <TORSDO>  (60) 
F 18

>  <SCORE>  (60) 
-14.381

>  <name>  (60) 
59

>  <ligand_id>  (60) 
59

>  <original_smiles>  (60) 
[H]C(=C1C([H])([H])C([H])(Oc2c([H])c([H])c3c(c2[H])C([H])([H])N(C(=O)C([H])(N([H])C(=O)C([H])(N([H])C([H])([H])[H])C([H])([H])[H])C(C([H])([H])[H])(C([H])([H])[H])C([H])([H])[H])C([H])(C(=O)N([H])C2([H])c4c([H])c([H])c([H])c([H])c4C([H])([H])C([H])([H])C2([H])[H])C3([H])[H])C([H])([H])C([H])([H])C([H])([H])[N+]1([H])C([H])([H])c1c([H])c(C([H])([H])[H])c(N([H])C(=O)N2C([H])([H])C([H])([H])C([H])([H])C([H])(n3nc(-c4c([H])c([H])c(Oc5c([H])c([H])c(F)c([H])c5F)c([H])c4[H])c(C(=O)N([H])[H])c3N([H])[H])C2([H])[H])c([H])c1F)C([H])([H])[H]

>  <smiles>  (60) 
[H]C(=C1C([H])([H])C([H])(Oc2c([H])c([H])c3c(c2[H])C([H])([H])N(C(=O)C([H])(N([H])C(=O)C([H])(N([H])C([H])([H])[H])C([H])([H])[H])C(C([H])([H])[H])(C([H])([H])[H])C([H])([H])[H])C([H])(C(=O)N([H])C2([H])c4c([H])c([H])c([H])c([H])c4C([H])([H])C([H])([H])C2([H])[H])C3([H])[H])C([H])([H])C([H])([H])C([H])([H])[N+]1([H])C([H])([H])c1c([H])c(C([H])([H])[H])c(N([H])C(=O)N2C([H])([H])C([H])([H])C([H])([H])C([H])(n3nc(-c4c([H])c([H])c(Oc5c([H])c([H])c(F)c([H])c5F)c([H])c4[H])c(C(=O)N([H])[H])c3N([H])[H])C2([H])[H])c([H])c1F)C([H])([H])[H]

$$$$
60:0:0
     RDKit          3D

 99107  0  0  1  0  0  0  0  0999 V2000
  -31.6990  -21.7100   18.8240 N   0  0  0  0  0  4  0  0  0  0  0  0
  -32.5600  -21.1920   18.7460 H   0  0  0  0  0  0  0  0  0  0  0  0
  -31.5810  -21.9610   19.7940 H   0  0  0  0  0  0  0  0  0  0  0  0
  -30.5790  -20.8670   18.3600 C   0  0  0  0  0  2  0  0  0  0  0  0
  -29.3670  -19.0610   19.7010 C   0  0  0  0  0  3  0  0  0  0  0  0
  -31.5200  -17.2980   19.4260 C   0  0  0  0  0  3  0  0  0  0  0  0
  -30.5330  -19.4940   19.0280 C   0  0  0  0  0  0  0  0  0  0  0  0
  -30.3330  -16.8320   20.0530 C   0  0  0  0  0  0  0  0  0  0  0  0
  -29.2630  -17.7440   20.2000 C   0  0  0  0  0  0  0  0  0  0  0  0
  -31.6200  -18.6030   18.9150 C   0  0  0  0  0  0  0  0  0  0  0  0
  -27.7920  -17.2440   20.9560 Cl  0  0  0  0  0  0  0  0  0  0  0  0
  -33.0910  -19.0700   18.1330 Cl  0  0  0  0  0  0  0  0  0  0  0  0
  -30.7880  -14.3790   20.0930 C   0  0  0  0  0  0  0  0  0  0  0  0
  -30.3410  -12.2730   18.9300 C   0  0  0  0  0  2  0  0  0  0  0  0
  -29.3610  -12.5650   17.7760 C   0  0  0  0  0  2  0  0  0  0  0  0
  -27.9100  -12.4360   18.2700 C   0  0  0  0  0  2  0  0  0  0  0  0
  -27.6450  -13.2370   19.5720 C   0  0  0  0  0  3  0  0  0  0  0  0
  -28.7480  -12.9850   20.6270 C   0  0  0  0  0  2  0  0  0  0  0  0
  -30.0510  -13.2430   19.9980 N   0  0  0  0  0  0  0  0  0  0  0  0
  -31.9420  -14.4440   19.6740 O   0  0  0  0  0  0  0  0  0  0  0  0
  -30.1290  -15.4790   20.4990 N   0  0  0  0  0  0  0  0  0  0  0  0
  -29.2350  -15.3120   20.9370 H   0  0  0  0  0  0  0  0  0  0  0  0
  -25.2710  -13.8420   20.3580 C   0  0  0  0  0  0  0  0  0  0  0  0
  -24.2170  -13.0690   20.7650 C   0  0  0  0  0  0  0  0  0  0  0  0
  -24.6810  -11.7190   20.7330 C   0  0  0  0  0  0  0  0  0  0  0  0
  -26.3110  -12.9620   20.1020 N   0  0  0  0  0  0  0  0  0  0  0  0
  -25.9610  -11.6800   20.3860 N   0  0  0  0  0  0  0  0  0  0  0  0
  -23.9610  -10.4580   20.9570 C   0  0  0  0  0  0  0  0  0  0  0  0
  -24.4140   -9.5090   21.9020 C   0  0  0  0  0  3  0  0  0  0  0  0
  -23.6980   -8.3120   22.1130 C   0  0  0  0  0  3  0  0  0  0  0  0
  -22.5150   -8.0540   21.3790 C   0  0  0  0  0  0  0  0  0  0  0  0
  -22.0800   -8.9930   20.4250 C   0  0  0  0  0  3  0  0  0  0  0  0
  -22.7970  -10.1820   20.2130 C   0  0  0  0  0  3  0  0  0  0  0  0
  -21.7660   -6.9090   21.4990 O   0  0  0  0  0  0  0  0  0  0  0  0
  -21.7310   -6.1920   22.6680 C   0  0  0  0  0  0  0  0  0  0  0  0
  -21.3100   -6.7700   23.8850 C   0  0  0  0  0  3  0  0  0  0  0  0
  -21.2230   -5.9780   25.0480 C   0  0  0  0  0  3  0  0  0  0  0  0
  -21.5460   -4.6100   24.9940 C   0  0  0  0  0  0  0  0  0  0  0  0
  -21.9580   -4.0290   23.7810 C   0  0  0  0  0  3  0  0  0  0  0  0
  -22.0470   -4.8180   22.6200 C   0  0  0  0  0  0  0  0  0  0  0  0
  -22.4250   -4.2500   21.4500 F   0  0  0  0  0  0  0  0  0  0  0  0
  -21.4550   -3.8470   26.1090 F   0  0  0  0  0  0  0  0  0  0  0  0
  -22.8280  -13.5480   21.0800 C   0  0  0  0  0  0  0  0  0  0  0  0
  -22.1300  -12.8590   21.9760 N   0  0  0  0  0  0  0  0  0  0  0  0
  -22.3720  -14.5690   20.5700 O   0  0  0  0  0  0  0  0  0  0  0  0
  -22.5080  -12.0320   22.4110 H   0  0  0  0  0  0  0  0  0  0  0  0
  -21.2030  -13.1710   22.2330 H   0  0  0  0  0  0  0  0  0  0  0  0
  -25.4270  -15.2100   20.1700 N   0  0  0  0  0  0  0  0  0  0  0  0
  -24.6790  -15.8690   20.3530 H   0  0  0  0  0  0  0  0  0  0  0  0
  -26.2970  -15.6630   19.9190 H   0  0  0  0  0  0  0  0  0  0  0  0
  -31.8560  -22.9820   18.0920 C   0  0  0  0  0  2  0  0  0  0  0  0
  -32.1020  -24.0880   19.1020 C   0  0  0  0  0  0  0  0  0  0  0  0
  -31.5340  -25.2750   18.8620 N   0  0  0  0  0  0  0  0  0  0  0  0
  -32.7570  -23.8520   20.1180 O   0  0  0  0  0  0  0  0  0  0  0  0
  -31.0250  -25.3930   17.9940 H   0  0  0  0  0  0  0  0  0  0  0  0
  -31.5480  -26.4040   19.7850 C   0  0  0  0  0  2  0  0  0  0  0  0
  -30.6570  -26.1520   21.0230 C   0  0  0  0  0  2  0  0  0  0  0  0
  -29.4200  -27.0520   21.0890 C   0  0  0  0  0  2  0  0  0  0  0  0
  -28.3960  -26.6490   20.1740 O   0  0  0  0  0  0  0  0  0  0  0  0
  -24.5760  -31.8360   23.2020 C   0  0  0  0  0  0  0  0  0  0  0  0
  -27.2350  -27.3980   20.1920 C   0  0  0  0  0  0  0  0  0  0  0  0
  -23.3590  -30.4240   21.5660 C   0  0  0  0  0  3  0  0  0  0  0  0
  -24.8100  -28.8620   20.1600 C   0  0  0  0  0  0  0  0  0  0  0  0
  -25.8730  -30.7890   21.3580 C   0  0  0  0  0  2  0  0  0  0  0  0
  -25.9530  -29.4080   20.7500 C   0  0  0  0  0  0  0  0  0  0  0  0
  -27.1560  -28.6850   20.7760 C   0  0  0  0  0  3  0  0  0  0  0  0
  -26.0770  -26.8580   19.5930 C   0  0  0  0  0  3  0  0  0  0  0  0
  -24.8630  -27.5810   19.5800 C   0  0  0  0  0  3  0  0  0  0  0  0
  -23.5640  -29.7190   20.1950 C   0  0  0  0  0  2  0  0  0  0  0  0
  -24.6200  -31.0300   22.1030 N   0  0  0  0  0  0  0  0  0  0  0  0
  -23.4980  -32.1200   23.7410 O   0  0  0  0  0  0  0  0  0  0  0  0
  -22.7010  -29.4210   22.5370 C   0  0  0  0  0  0  0  0  0  0  0  0
  -21.3740  -29.2580   22.4130 N   0  0  0  0  0  0  0  0  0  0  0  0
  -23.3800  -28.7870   23.3500 O   0  0  0  0  0  0  0  0  0  0  0  0
  -20.8900  -29.8210   21.7260 H   0  0  0  0  0  0  0  0  0  0  0  0
  -17.9810  -28.1470   22.9390 C   0  0  0  0  0  0  0  0  0  0  0  0
  -20.5450  -28.3380   23.1890 C   0  0  0  0  0  3  0  0  0  0  0  0
  -20.6080  -26.9080   22.6040 C   0  0  0  0  0  2  0  0  0  0  0  0
  -19.4900  -26.6160   21.5990 C   0  0  0  0  0  2  0  0  0  0  0  0
  -18.1180  -26.7940   22.2550 C   0  0  0  0  0  2  0  0  0  0  0  0
  -19.1210  -28.8770   23.3620 C   0  0  0  0  0  0  0  0  0  0  0  0
  -18.9430  -30.1440   23.9590 C   0  0  0  0  0  3  0  0  0  0  0  0
  -17.6540  -30.6810   24.1340 C   0  0  0  0  0  3  0  0  0  0  0  0
  -16.5260  -29.9470   23.7270 C   0  0  0  0  0  3  0  0  0  0  0  0
  -16.6900  -28.6800   23.1380 C   0  0  0  0  0  3  0  0  0  0  0  0
  -25.8690  -32.4560   23.8220 C   0  0  0  0  0  3  0  0  0  0  0  0
  -25.5730  -33.8540   24.1570 N   0  0  0  0  0  0  0  0  0  0  0  0
  -25.9190  -34.9070   23.4040 C   0  0  0  0  0  0  0  0  0  0  0  0
  -26.5970  -34.8020   22.3770 O   0  0  0  0  0  0  0  0  0  0  0  0
  -24.9730  -34.0110   24.9540 H   0  0  0  0  0  0  0  0  0  0  0  0
  -24.2110  -36.7150   23.0360 C   0  0  0  0  0  1  0  0  0  0  0  0
  -25.4370  -36.2960   23.8620 C   0  0  0  0  0  3  0  0  0  0  0  0
  -27.5680  -37.1580   24.7270 C   0  0  0  0  0  1  0  0  0  0  0  0
  -26.4790  -37.3410   23.7700 N   0  0  0  0  0  0  0  0  0  0  0  0
  -26.0800  -38.2630   23.9210 H   0  0  0  0  0  0  0  0  0  0  0  0
  -26.3920  -31.6730   25.0860 C   0  0  1  0  0  0  0  0  0  0  0  0
  -25.3020  -31.4180   26.1520 C   0  0  0  0  0  1  0  0  0  0  0  0
  -26.9800  -30.3030   24.6720 C   0  0  0  0  0  1  0  0  0  0  0  0
  -27.5380  -32.4660   25.7600 C   0  0  0  0  0  1  0  0  0  0  0  0
  1  3  1  0
  2  1  1  0
  4  1  1  0
  4  7  1  0
  5  9  1  0
  6  8  1  0
  7  5  2  0
  8  9  2  0
  8 21  1  0
  9 11  1  0
 10  7  1  0
 10  6  2  0
 12 10  1  0
 13 21  1  0
 14 19  1  0
 15 16  1  0
 15 14  1  0
 17 16  1  0
 17 26  1  0
 17 18  1  0
 19 13  1  0
 19 18  1  0
 20 13  2  0
 21 22  1  0
 23 24  2  0
 24 43  1  0
 25 24  1  0
 25 28  1  0
 26 23  1  0
 26 27  1  0
 27 25  2  0
 28 29  1  0
 29 30  2  0
 31 34  1  0
 31 30  1  0
 32 31  2  0
 33 32  1  0
 33 28  2  0
 34 35  1  0
 35 36  1  0
 36 37  2  0
 38 37  1  0
 38 42  1  0
 39 38  2  0
 40 35  2  0
 40 39  1  0
 41 40  1  0
 43 44  1  0
 44 47  1  0
 44 46  1  0
 45 43  2  0
 48 49  1  0
 48 23  1  0
 50 48  1  0
 51  1  1  0
 51 52  1  0
 52 54  2  0
 53 52  1  0
 53 56  1  0
 55 53  1  0
 56 57  1  0
 57 58  1  0
 59 61  1  0
 59 58  1  0
 60 71  2  0
 61 66  1  0
 62 70  1  0
 62 72  1  0
 63 69  1  0
 63 65  1  0
 64 70  1  0
 65 66  2  0
 65 64  1  0
 67 61  2  0
 68 67  1  0
 68 63  2  0
 69 62  1  0
 70 60  1  0
 72 74  2  0
 73 72  1  0
 75 73  1  0
 76 85  2  0
 76 81  1  0
 77 73  1  0
 77 81  1  0
 78 77  1  0
 79 80  1  0
 79 78  1  0
 80 76  1  0
 81 82  2  0
 82 83  1  0
 84 83  2  0
 85 84  1  0
 86 60  1  0
 86 87  1  0
 86 96  1  0
 87 90  1  0
 88 92  1  0
 88 87  1  0
 89 88  2  0
 92 91  1  0
 94 92  1  0
 94 95  1  0
 94 93  1  0
 96 99  1  1
 96 97  1  0
 98 96  1  0
M  ISO  4  13 100  21 100  58 101  59 101
M  END
>  <TORSDO>  (61) 
F 23

>  <SCORE>  (61) 
-12.280

>  <name>  (61) 
60

>  <ligand_id>  (61) 
60

>  <original_smiles>  (61) 
[H]c1c([H])c([H])c2c(c1[H])C([H])([H])C([H])([H])C([H])([H])C2([H])N([H])C(=O)C1([H])N(C(=O)C([H])(N([H])C(=O)C([H])(N([H])C([H])([H])[H])C([H])([H])[H])C(C([H])([H])[H])(C([H])([H])[H])C([H])([H])[H])C([H])([H])c2c([H])c(OC([H])([H])C([H])([H])C([H])([H])N([H])C(=O)C([H])([H])[N+]([H])([H])C([H])([H])c3c([H])c(Cl)c(N([H])C(=O)N4C([H])([H])C([H])([H])C([H])([H])C([H])(n5nc(-c6c([H])c([H])c(Oc7c([H])c([H])c(F)c([H])c7F)c([H])c6[H])c(C(=O)N([H])[H])c5N([H])[H])C4([H])[H])c([H])c3Cl)c([H])c([H])c2C1([H])[H]

>  <smiles>  (61) 
[H]c1c([H])c([H])c2c(c1[H])C([H])([H])C([H])([H])C([H])([H])C2([H])N([H])C(=O)C1([H])N(C(=O)C([H])(N([H])C(=O)C([H])(N([H])C([H])([H])[H])C([H])([H])[H])C(C([H])([H])[H])(C([H])([H])[H])C([H])([H])[H])C([H])([H])c2c([H])c(OC([H])([H])C([H])([H])C([H])([H])N([H])C(=O)C([H])([H])[N+]([H])([H])C([H])([H])c3c([H])c(Cl)c(N([H])C(=O)N4C([H])([H])C([H])([H])C([H])([H])C([H])(n5nc(-c6c([H])c([H])c(Oc7c([H])c([H])c(F)c([H])c7F)c([H])c6[H])c(C(=O)N([H])[H])c5N([H])[H])C4([H])[H])c([H])c3Cl)c([H])c([H])c2C1([H])[H]

$$$$
61:0:0
     RDKit          3D

 95103  0  0  1  0  0  0  0  0999 V2000
  -28.9390  -19.2470   19.5170 C   0  0  0  0  0  3  0  0  0  0  0  0
  -28.9470  -17.8310   19.6730 C   0  0  0  0  0  3  0  0  0  0  0  0
  -30.6820  -18.0200   21.3260 C   0  0  0  0  0  3  0  0  0  0  0  0
  -29.7960  -20.0990   20.2610 C   0  0  0  0  0  0  0  0  0  0  0  0
  -30.6610  -19.4500   21.2010 C   0  0  0  0  0  0  0  0  0  0  0  0
  -29.8390  -17.1760   20.5610 C   0  0  0  0  0  0  0  0  0  0  0  0
  -30.5790  -14.7000   20.4630 C   0  0  0  0  0  0  0  0  0  0  0  0
  -30.4060  -12.4660   19.3890 C   0  0  0  0  0  2  0  0  0  0  0  0
  -29.4660  -12.5970   18.1690 C   0  0  0  0  0  2  0  0  0  0  0  0
  -27.9900  -12.4310   18.5860 C   0  0  0  0  0  2  0  0  0  0  0  0
  -27.6190  -13.2860   19.8260 C   0  0  0  0  0  3  0  0  0  0  0  0
  -28.6690  -13.1190   20.9480 C   0  0  0  0  0  2  0  0  0  0  0  0
  -29.9830  -13.4700   20.3830 N   0  0  0  0  0  0  0  0  0  0  0  0
  -31.7490  -14.8780   20.1050 O   0  0  0  0  0  0  0  0  0  0  0  0
  -29.7360  -15.7340   20.7720 N   0  0  0  0  0  0  0  0  0  0  0  0
  -28.8020  -15.4070   20.9620 H   0  0  0  0  0  0  0  0  0  0  0  0
  -25.2170  -13.8850   20.5150 C   0  0  0  0  0  0  0  0  0  0  0  0
  -24.1480  -13.1120   20.8760 C   0  0  0  0  0  0  0  0  0  0  0  0
  -24.6130  -11.7610   20.8550 C   0  0  0  0  0  0  0  0  0  0  0  0
  -26.2660  -13.0050   20.2960 N   0  0  0  0  0  0  0  0  0  0  0  0
  -25.9060  -11.7230   20.5600 N   0  0  0  0  0  0  0  0  0  0  0  0
  -23.8870  -10.4980   21.0410 C   0  0  0  0  0  0  0  0  0  0  0  0
  -24.3040   -9.5400   21.9920 C   0  0  0  0  0  3  0  0  0  0  0  0
  -23.5790   -8.3410   22.1650 C   0  0  0  0  0  3  0  0  0  0  0  0
  -22.4250   -8.0920   21.3860 C   0  0  0  0  0  0  0  0  0  0  0  0
  -22.0270   -9.0380   20.4250 C   0  0  0  0  0  3  0  0  0  0  0  0
  -22.7540  -10.2280   20.2510 C   0  0  0  0  0  3  0  0  0  0  0  0
  -21.6740   -6.9430   21.4660 O   0  0  0  0  0  0  0  0  0  0  0  0
  -21.5930   -6.2180   22.6280 C   0  0  0  0  0  0  0  0  0  0  0  0
  -21.1070   -6.7830   23.8270 C   0  0  0  0  0  3  0  0  0  0  0  0
  -20.9720   -5.9830   24.9790 C   0  0  0  0  0  3  0  0  0  0  0  0
  -21.3150   -4.6190   24.9330 C   0  0  0  0  0  0  0  0  0  0  0  0
  -21.7940   -4.0520   23.7380 C   0  0  0  0  0  3  0  0  0  0  0  0
  -21.9290   -4.8500   22.5880 C   0  0  0  0  0  0  0  0  0  0  0  0
  -22.3710   -4.2940   21.4340 F   0  0  0  0  0  0  0  0  0  0  0  0
  -21.1770   -3.8480   26.0370 F   0  0  0  0  0  0  0  0  0  0  0  0
  -22.7460  -13.5880   21.1300 C   0  0  0  0  0  0  0  0  0  0  0  0
  -22.0050  -12.8900   21.9840 N   0  0  0  0  0  0  0  0  0  0  0  0
  -22.3140  -14.6130   20.6060 O   0  0  0  0  0  0  0  0  0  0  0  0
  -22.3650  -12.0610   22.4330 H   0  0  0  0  0  0  0  0  0  0  0  0
  -21.0650  -13.1930   22.1950 H   0  0  0  0  0  0  0  0  0  0  0  0
  -25.3780  -15.2560   20.3340 N   0  0  0  0  0  0  0  0  0  0  0  0
  -24.6010  -15.9020   20.4300 H   0  0  0  0  0  0  0  0  0  0  0  0
  -26.2170  -15.6990   19.9840 H   0  0  0  0  0  0  0  0  0  0  0  0
  -31.6030  -20.2670   22.0830 C   0  0  1  0  0  0  0  0  0  0  0  0
  -32.0840  -19.5460   23.0970 F   0  0  0  0  0  0  0  0  0  0  0  0
  -32.6350  -20.7010   21.3600 F   0  0  0  0  0  0  0  0  0  0  0  0
  -30.9690  -21.3170   22.6080 F   0  0  0  0  0  0  0  0  0  0  0  0
  -29.8850  -21.6420   19.9150 C   0  0  0  0  0  2  0  0  0  0  0  0
  -29.1090  -24.0470   20.1530 C   0  0  0  0  0  0  0  0  0  0  0  0
  -27.9500  -22.2730   21.4400 C   0  0  0  0  0  1  0  0  0  0  0  0
  -28.9860  -22.7090   20.4990 N   0  0  0  0  0  0  0  0  0  0  0  0
  -29.9970  -24.4170   19.3750 O   0  0  0  0  0  0  0  0  0  0  0  0
  -28.1260  -25.1510   20.7160 C   0  0  0  0  0  2  0  0  0  0  0  0
  -28.3480  -26.5440   20.2490 O   0  0  0  0  0  0  0  0  0  0  0  0
  -24.5820  -31.9310   23.2450 C   0  0  0  0  0  0  0  0  0  0  0  0
  -27.2290  -27.3840   20.2180 C   0  0  0  0  0  0  0  0  0  0  0  0
  -23.3920  -30.5250   21.6000 C   0  0  0  0  0  3  0  0  0  0  0  0
  -24.8570  -28.9770   20.1890 C   0  0  0  0  0  0  0  0  0  0  0  0
  -25.9300  -30.8550   21.4300 C   0  0  0  0  0  2  0  0  0  0  0  0
  -26.0190  -29.4750   20.7910 C   0  0  0  0  0  0  0  0  0  0  0  0
  -27.2100  -28.6900   20.7970 C   0  0  0  0  0  3  0  0  0  0  0  0
  -26.0480  -26.9410   19.5810 C   0  0  0  0  0  3  0  0  0  0  0  0
  -24.8720  -27.7140   19.5740 C   0  0  0  0  0  3  0  0  0  0  0  0
  -23.6160  -29.8450   20.2240 C   0  0  0  0  0  2  0  0  0  0  0  0
  -24.6530  -31.1210   22.1490 N   0  0  0  0  0  0  0  0  0  0  0  0
  -23.4960  -32.2070   23.7730 O   0  0  0  0  0  0  0  0  0  0  0  0
  -22.7260  -29.5090   22.5590 C   0  0  0  0  0  0  0  0  0  0  0  0
  -21.4000  -29.3360   22.4290 N   0  0  0  0  0  0  0  0  0  0  0  0
  -23.4010  -28.8810   23.3780 O   0  0  0  0  0  0  0  0  0  0  0  0
  -20.9150  -29.8950   21.7420 H   0  0  0  0  0  0  0  0  0  0  0  0
  -18.0130  -28.1740   22.9420 C   0  0  0  0  0  0  0  0  0  0  0  0
  -20.5750  -28.4010   23.1970 C   0  0  0  0  0  3  0  0  0  0  0  0
  -20.6570  -26.9730   22.6080 C   0  0  0  0  0  2  0  0  0  0  0  0
  -19.5440  -26.6720   21.5990 C   0  0  0  0  0  2  0  0  0  0  0  0
  -18.1690  -26.8290   22.2530 C   0  0  0  0  0  2  0  0  0  0  0  0
  -19.1430  -28.9200   23.3700 C   0  0  0  0  0  0  0  0  0  0  0  0
  -18.9430  -30.1800   23.9740 C   0  0  0  0  0  3  0  0  0  0  0  0
  -17.6450  -30.6940   24.1530 C   0  0  0  0  0  3  0  0  0  0  0  0
  -16.5290  -29.9460   23.7400 C   0  0  0  0  0  3  0  0  0  0  0  0
  -16.7140  -28.6870   23.1410 C   0  0  0  0  0  3  0  0  0  0  0  0
  -25.8610  -32.5660   23.8740 C   0  0  0  0  0  3  0  0  0  0  0  0
  -26.3640  -31.8050   25.1620 C   0  0  1  0  0  0  0  0  0  0  0  0
  -25.2600  -31.5780   26.2210 C   0  0  0  0  0  1  0  0  0  0  0  0
  -26.9490  -30.4250   24.7870 C   0  0  0  0  0  1  0  0  0  0  0  0
  -27.5090  -32.6040   25.8280 C   0  0  0  0  0  1  0  0  0  0  0  0
  -25.5510  -33.9680   24.1900 N   0  0  0  0  0  0  0  0  0  0  0  0
  -25.8950  -35.0140   23.4260 C   0  0  0  0  0  0  0  0  0  0  0  0
  -26.5760  -34.9010   22.4040 O   0  0  0  0  0  0  0  0  0  0  0  0
  -24.9480  -34.1300   24.9830 H   0  0  0  0  0  0  0  0  0  0  0  0
  -24.1850  -36.8160   23.0280 C   0  0  0  0  0  1  0  0  0  0  0  0
  -25.4060  -36.4070   23.8670 C   0  0  0  0  0  3  0  0  0  0  0  0
  -27.5260  -37.2850   24.7410 C   0  0  0  0  0  1  0  0  0  0  0  0
  -26.4460  -37.4540   23.7710 N   0  0  0  0  0  0  0  0  0  0  0  0
  -26.0420  -38.3770   23.9060 H   0  0  0  0  0  0  0  0  0  0  0  0
  1  2  2  0
  1  4  1  0
  2  6  1  0
  4  5  2  0
  5  3  1  0
  5 45  1  0
  6 15  1  0
  6  3  2  0
  7 15  1  0
  8 13  1  0
  9 10  1  0
  9  8  1  0
 11 10  1  0
 11 20  1  0
 11 12  1  0
 13  7  1  0
 13 12  1  0
 14  7  2  0
 15 16  1  0
 17 18  2  0
 18 37  1  0
 19 18  1  0
 19 22  1  0
 20 17  1  0
 20 21  1  0
 21 19  2  0
 22 23  1  0
 23 24  2  0
 25 28  1  0
 25 24  1  0
 26 25  2  0
 27 26  1  0
 27 22  2  0
 28 29  1  0
 29 30  1  0
 30 31  2  0
 32 31  1  0
 32 36  1  0
 33 32  2  0
 34 29  2  0
 34 33  1  0
 35 34  1  0
 37 38  1  0
 38 41  1  0
 38 40  1  0
 39 37  2  0
 42 43  1  0
 42 17  1  0
 44 42  1  0
 45 48  1  1
 45 46  1  0
 47 45  1  0
 49  4  1  0
 49 52  1  0
 50 52  1  0
 50 54  1  0
 52 51  1  0
 53 50  2  0
 55 54  1  0
 56 67  2  0
 57 55  1  0
 57 62  1  0
 58 66  1  0
 58 68  1  0
 59 65  1  0
 59 61  1  0
 60 66  1  0
 61 62  2  0
 61 60  1  0
 63 57  2  0
 64 63  1  0
 64 59  2  0
 65 58  1  0
 66 56  1  0
 68 70  2  0
 69 68  1  0
 71 69  1  0
 72 81  2  0
 72 77  1  0
 73 69  1  0
 73 77  1  0
 74 73  1  0
 75 76  1  0
 75 74  1  0
 76 72  1  0
 77 78  2  0
 78 79  1  0
 80 79  2  0
 81 80  1  0
 82 56  1  0
 82 87  1  0
 82 83  1  0
 83 86  1  1
 83 84  1  0
 85 83  1  0
 87 90  1  0
 88 92  1  0
 88 87  1  0
 89 88  2  0
 92 91  1  0
 94 92  1  0
 94 95  1  0
 94 93  1  0
M  ISO  4   7 100  15 100  54 101  55 101
M  END
>  <TORSDO>  (62) 
F 20

>  <SCORE>  (62) 
-14.474

>  <name>  (62) 
61

>  <ligand_id>  (62) 
61

>  <original_smiles>  (62) 
[H]c1c([H])c([H])c2c(c1[H])C([H])([H])C([H])([H])C([H])([H])C2([H])N([H])C(=O)C1([H])N(C(=O)C([H])(N([H])C(=O)C([H])(N([H])C([H])([H])[H])C([H])([H])[H])C(C([H])([H])[H])(C([H])([H])[H])C([H])([H])[H])C([H])([H])c2c([H])c(OC([H])([H])C(=O)N(C([H])([H])[H])C([H])([H])c3c([H])c([H])c(N([H])C(=O)N4C([H])([H])C([H])([H])C([H])([H])C([H])(n5nc(-c6c([H])c([H])c(Oc7c([H])c([H])c(F)c([H])c7F)c([H])c6[H])c(C(=O)N([H])[H])c5N([H])[H])C4([H])[H])c([H])c3C(F)(F)F)c([H])c([H])c2C1([H])[H]

>  <smiles>  (62) 
[H]c1c([H])c([H])c2c(c1[H])C([H])([H])C([H])([H])C([H])([H])C2([H])N([H])C(=O)C1([H])N(C(=O)C([H])(N([H])C(=O)C([H])(N([H])C([H])([H])[H])C([H])([H])[H])C(C([H])([H])[H])(C([H])([H])[H])C([H])([H])[H])C([H])([H])c2c([H])c(OC([H])([H])C(=O)N(C([H])([H])[H])C([H])([H])c3c([H])c([H])c(N([H])C(=O)N4C([H])([H])C([H])([H])C([H])([H])C([H])(n5nc(-c6c([H])c([H])c(Oc7c([H])c([H])c(F)c([H])c7F)c([H])c6[H])c(C(=O)N([H])[H])c5N([H])[H])C4([H])[H])c([H])c3C(F)(F)F)c([H])c([H])c2C1([H])[H]

$$$$
62:0:0
     RDKit          3D

101110  0  0  1  0  0  0  0  0999 V2000
  -28.1280  -24.0600   19.3130 C   0  0  0  0  0  0  0  0  0  0  0  0
  -27.0480  -23.7300   18.5620 C   0  0  0  0  0  3  0  0  0  0  0  0
  -30.7830  -24.7410   20.2790 C   0  0  0  0  0  2  0  0  0  0  0  0
  -30.1740  -25.6500   19.2130 C   0  0  0  0  0  2  0  0  0  0  0  0
  -30.5740  -23.2750   19.8850 C   0  0  0  0  0  2  0  0  0  0  0  0
  -28.6440  -25.5740   19.2440 C   0  0  0  0  0  3  0  0  0  0  0  0
  -29.1500  -22.9010   19.6750 N   0  0  1  0  0  4  0  0  0  0  0  0
  -29.2360  -22.3900   18.8100 H   0  0  0  0  0  0  0  0  0  0  0  0
  -26.5830  -22.4170   18.1450 C   0  0  0  0  0  3  0  0  0  0  0  0
  -25.4180  -22.2560   17.4900 C   0  0  0  0  0  3  0  0  0  0  0  0
  -24.9470  -20.9480   17.0180 C   0  0  0  0  0  3  0  0  0  0  0  0
  -23.5360  -19.4750   15.9110 C   0  0  0  0  0  1  0  0  0  0  0  0
  -23.8760  -20.8160   16.3470 N   0  0  0  0  0  0  0  0  0  0  0  0
  -28.2540  -26.6110   20.2280 O   0  0  0  0  0  0  0  0  0  0  0  0
  -24.6630  -32.0040   23.3640 C   0  0  0  0  0  0  0  0  0  0  0  0
  -27.1590  -27.4900   20.1250 C   0  0  0  0  0  0  0  0  0  0  0  0
  -23.4140  -30.6790   21.6960 C   0  0  0  0  0  3  0  0  0  0  0  0
  -24.8200  -29.1490   20.1990 C   0  0  0  0  0  0  0  0  0  0  0  0
  -25.9570  -30.9540   21.4940 C   0  0  0  0  0  2  0  0  0  0  0  0
  -26.0030  -29.5960   20.8000 C   0  0  0  0  0  0  0  0  0  0  0  0
  -27.1680  -28.7730   20.7620 C   0  0  0  0  0  3  0  0  0  0  0  0
  -25.9490  -27.0960   19.5200 C   0  0  0  0  0  3  0  0  0  0  0  0
  -24.7950  -27.9030   19.5530 C   0  0  0  0  0  3  0  0  0  0  0  0
  -23.5990  -30.0420   20.2930 C   0  0  0  0  0  2  0  0  0  0  0  0
  -24.6990  -31.2280   22.2420 N   0  0  0  0  0  0  0  0  0  0  0  0
  -23.5930  -32.2870   23.9200 O   0  0  0  0  0  0  0  0  0  0  0  0
  -22.7420  -29.6480   22.6340 C   0  0  0  0  0  0  0  0  0  0  0  0
  -21.4140  -29.4890   22.5070 N   0  0  0  0  0  0  0  0  0  0  0  0
  -23.4150  -28.9950   23.4350 O   0  0  0  0  0  0  0  0  0  0  0  0
  -20.9300  -30.0690   21.8360 H   0  0  0  0  0  0  0  0  0  0  0  0
  -18.0290  -28.2980   22.9620 C   0  0  0  0  0  0  0  0  0  0  0  0
  -20.5860  -28.5440   23.2570 C   0  0  0  0  0  3  0  0  0  0  0  0
  -20.6870  -27.1200   22.6630 C   0  0  0  0  0  2  0  0  0  0  0  0
  -19.5930  -26.8160   21.6350 C   0  0  0  0  0  2  0  0  0  0  0  0
  -18.2050  -26.9580   22.2690 C   0  0  0  0  0  2  0  0  0  0  0  0
  -19.1470  -29.0490   23.4120 C   0  0  0  0  0  0  0  0  0  0  0  0
  -18.9270  -30.3040   24.0210 C   0  0  0  0  0  3  0  0  0  0  0  0
  -17.6220  -30.8080   24.1830 C   0  0  0  0  0  3  0  0  0  0  0  0
  -16.5190  -30.0540   23.7490 C   0  0  0  0  0  3  0  0  0  0  0  0
  -16.7230  -28.8000   23.1450 C   0  0  0  0  0  3  0  0  0  0  0  0
  -25.9660  -32.5930   23.9900 C   0  0  0  0  0  3  0  0  0  0  0  0
  -26.4480  -31.8090   25.2720 C   0  0  1  0  0  0  0  0  0  0  0  0
  -25.3420  -31.6150   26.3360 C   0  0  0  0  0  1  0  0  0  0  0  0
  -26.9830  -30.4100   24.8900 C   0  0  0  0  0  1  0  0  0  0  0  0
  -27.6250  -32.5640   25.9370 C   0  0  0  0  0  1  0  0  0  0  0  0
  -25.7070  -34.0040   24.3140 N   0  0  0  0  0  0  0  0  0  0  0  0
  -26.0420  -35.0380   23.5320 C   0  0  0  0  0  0  0  0  0  0  0  0
  -26.6730  -34.9050   22.4800 O   0  0  0  0  0  0  0  0  0  0  0  0
  -25.1420  -34.1840   25.1310 H   0  0  0  0  0  0  0  0  0  0  0  0
  -24.3330  -36.8620   23.2410 C   0  0  0  0  0  1  0  0  0  0  0  0
  -25.6090  -36.4460   23.9900 C   0  0  0  0  0  3  0  0  0  0  0  0
  -27.8020  -37.3030   24.6910 C   0  0  0  0  0  1  0  0  0  0  0  0
  -26.6570  -37.4750   23.8000 N   0  0  0  0  0  0  0  0  0  0  0  0
  -26.2770  -38.4060   23.9480 H   0  0  0  0  0  0  0  0  0  0  0  0
  -28.7250  -21.7660   20.6070 C   0  0  0  0  0  2  0  0  0  0  0  0
  -28.6240  -19.3750   19.4700 C   0  0  0  0  0  3  0  0  0  0  0  0
  -30.4050  -18.2210   21.2720 C   0  0  0  0  0  3  0  0  0  0  0  0
  -28.8540  -17.9610   19.4580 C   0  0  0  0  0  0  0  0  0  0  0  0
  -29.2320  -20.2610   20.4050 C   0  0  0  0  0  0  0  0  0  0  0  0
  -29.7370  -17.3310   20.3860 C   0  0  0  0  0  0  0  0  0  0  0  0
  -30.1680  -19.6340   21.2840 C   0  0  0  0  0  0  0  0  0  0  0  0
  -28.0710  -17.1140   18.4700 C   0  0  0  0  0  1  0  0  0  0  0  0
  -30.9950  -20.5690   22.4810 Cl  0  0  0  0  0  0  0  0  0  0  0  0
  -30.5760  -14.8500   20.2670 C   0  0  0  0  0  0  0  0  0  0  0  0
  -30.4240  -12.5840   19.2430 C   0  0  0  0  0  2  0  0  0  0  0  0
  -29.4540  -12.6700   18.0420 C   0  0  0  0  0  2  0  0  0  0  0  0
  -27.9900  -12.4890   18.4930 C   0  0  0  0  0  2  0  0  0  0  0  0
  -27.6360  -13.3580   19.7290 C   0  0  0  0  0  3  0  0  0  0  0  0
  -28.7140  -13.2280   20.8280 C   0  0  0  0  0  2  0  0  0  0  0  0
  -30.0040  -13.6010   20.2260 N   0  0  0  0  0  0  0  0  0  0  0  0
  -31.7330  -15.0340   19.8740 O   0  0  0  0  0  0  0  0  0  0  0  0
  -29.7270  -15.8770   20.6110 N   0  0  0  0  0  0  0  0  0  0  0  0
  -28.8320  -15.5240   20.9130 H   0  0  0  0  0  0  0  0  0  0  0  0
  -25.2550  -13.9500   20.4930 C   0  0  0  0  0  0  0  0  0  0  0  0
  -24.1970  -13.1710   20.8730 C   0  0  0  0  0  0  0  0  0  0  0  0
  -24.6610  -11.8210   20.8240 C   0  0  0  0  0  0  0  0  0  0  0  0
  -26.2980  -13.0720   20.2340 N   0  0  0  0  0  0  0  0  0  0  0  0
  -25.9470  -11.7880   20.4930 N   0  0  0  0  0  0  0  0  0  0  0  0
  -23.9430  -10.5560   21.0190 C   0  0  0  0  0  0  0  0  0  0  0  0
  -24.3830   -9.5890   21.9500 C   0  0  0  0  0  3  0  0  0  0  0  0
  -23.6640   -8.3890   22.1310 C   0  0  0  0  0  3  0  0  0  0  0  0
  -22.4890   -8.1460   21.3800 C   0  0  0  0  0  0  0  0  0  0  0  0
  -22.0680   -9.1000   20.4370 C   0  0  0  0  0  3  0  0  0  0  0  0
  -22.7880  -10.2920   20.2550 C   0  0  0  0  0  3  0  0  0  0  0  0
  -21.7400   -6.9980   21.4690 O   0  0  0  0  0  0  0  0  0  0  0  0
  -21.6760   -6.2700   22.6300 C   0  0  0  0  0  0  0  0  0  0  0  0
  -21.2050   -6.8300   23.8370 C   0  0  0  0  0  3  0  0  0  0  0  0
  -21.0920   -6.0280   24.9900 C   0  0  0  0  0  3  0  0  0  0  0  0
  -21.4380   -4.6650   24.9350 C   0  0  0  0  0  0  0  0  0  0  0  0
  -21.9020   -4.1020   23.7330 C   0  0  0  0  0  3  0  0  0  0  0  0
  -22.0180   -4.9030   22.5820 C   0  0  0  0  0  0  0  0  0  0  0  0
  -22.4450   -4.3510   21.4210 F   0  0  0  0  0  0  0  0  0  0  0  0
  -21.3220   -3.8910   26.0400 F   0  0  0  0  0  0  0  0  0  0  0  0
  -22.8030  -13.6430   21.1730 C   0  0  0  0  0  0  0  0  0  0  0  0
  -22.0880  -12.9340   22.0390 N   0  0  0  0  0  0  0  0  0  0  0  0
  -22.3570  -14.6750   20.6740 O   0  0  0  0  0  0  0  0  0  0  0  0
  -22.4610  -12.0980   22.4640 H   0  0  0  0  0  0  0  0  0  0  0  0
  -21.1530  -13.2330   22.2810 H   0  0  0  0  0  0  0  0  0  0  0  0
  -25.4130  -15.3230   20.3280 N   0  0  0  0  0  0  0  0  0  0  0  0
  -24.6440  -15.9680   20.4670 H   0  0  0  0  0  0  0  0  0  0  0  0
  -26.2570  -15.7800   20.0090 H   0  0  0  0  0  0  0  0  0  0  0  0
  1  7  1  0
  2  1  2  0
  4  6  1  0
  4  3  1  0
  5  3  1  0
  6  1  1  0
  6 14  1  0
  7  5  1  0
  7 55  1  0
  7  8  1  6
  9  2  1  0
 10  9  2  0
 11 10  1  0
 12 13  1  0
 13 11  2  0
 15 26  2  0
 16 14  1  0
 16 21  1  0
 17 25  1  0
 17 27  1  0
 18 24  1  0
 18 20  1  0
 19 25  1  0
 20 19  1  0
 21 20  2  0
 22 23  1  0
 22 16  2  0
 23 18  2  0
 24 17  1  0
 25 15  1  0
 27 29  2  0
 28 27  1  0
 30 28  1  0
 31 40  2  0
 31 36  1  0
 32 28  1  0
 32 36  1  0
 33 32  1  0
 34 35  1  0
 34 33  1  0
 35 31  1  0
 36 37  2  0
 37 38  1  0
 39 38  2  0
 40 39  1  0
 41 15  1  0
 41 46  1  0
 41 42  1  0
 42 45  1  1
 42 43  1  0
 44 42  1  0
 46 49  1  0
 47 51  1  0
 47 46  1  0
 48 47  2  0
 51 50  1  0
 53 54  1  0
 53 51  1  0
 53 52  1  0
 56 59  1  0
 57 61  1  0
 58 56  2  0
 58 60  1  0
 59 55  1  0
 59 61  2  0
 60 72  1  0
 60 57  2  0
 61 63  1  0
 62 58  1  0
 64 72  1  0
 65 70  1  0
 66 67  1  0
 66 65  1  0
 68 67  1  0
 68 77  1  0
 68 69  1  0
 70 64  1  0
 70 69  1  0
 71 64  2  0
 72 73  1  0
 74 75  2  0
 75 94  1  0
 76 75  1  0
 76 79  1  0
 77 74  1  0
 77 78  1  0
 78 76  2  0
 79 80  1  0
 80 81  2  0
 82 85  1  0
 82 81  1  0
 83 82  2  0
 84 83  1  0
 84 79  2  0
 85 86  1  0
 86 87  1  0
 87 88  2  0
 89 88  1  0
 89 93  1  0
 90 89  2  0
 91 86  2  0
 91 90  1  0
 92 91  1  0
 94 95  1  0
 95 98  1  0
 95 97  1  0
 96 94  2  0
 99100  1  0
 99 74  1  0
101 99  1  0
M  ISO  4   6 101  14 101  64 100  72 100
M  END
>  <TORSDO>  (63) 
F 20

>  <SCORE>  (63) 
-13.927

>  <name>  (63) 
62

>  <ligand_id>  (63) 
62

>  <original_smiles>  (63) 
[H]C(=NC([H])([H])[H])C([H])=C([H])C([H])=C1C([H])(Oc2c([H])c([H])c3c(c2[H])C([H])([H])N(C(=O)C([H])(N([H])C(=O)C([H])(N([H])C([H])([H])[H])C([H])([H])[H])C(C([H])([H])[H])(C([H])([H])[H])C([H])([H])[H])C([H])(C(=O)N([H])C2([H])c4c([H])c([H])c([H])c([H])c4C([H])([H])C([H])([H])C2([H])[H])C3([H])[H])C([H])([H])C([H])([H])C([H])([H])[N+]1([H])C([H])([H])c1c([H])c(C([H])([H])[H])c(N([H])C(=O)N2C([H])([H])C([H])([H])C([H])([H])C([H])(n3nc(-c4c([H])c([H])c(Oc5c([H])c([H])c(F)c([H])c5F)c([H])c4[H])c(C(=O)N([H])[H])c3N([H])[H])C2([H])[H])c([H])c1Cl

>  <smiles>  (63) 
[H]C(=NC([H])([H])[H])C([H])=C([H])C([H])=C1C([H])(Oc2c([H])c([H])c3c(c2[H])C([H])([H])N(C(=O)C([H])(N([H])C(=O)C([H])(N([H])C([H])([H])[H])C([H])([H])[H])C(C([H])([H])[H])(C([H])([H])[H])C([H])([H])[H])C([H])(C(=O)N([H])C2([H])c4c([H])c([H])c([H])c([H])c4C([H])([H])C([H])([H])C2([H])[H])C3([H])[H])C([H])([H])C([H])([H])C([H])([H])[N+]1([H])C([H])([H])c1c([H])c(C([H])([H])[H])c(N([H])C(=O)N2C([H])([H])C([H])([H])C([H])([H])C([H])(n3nc(-c4c([H])c([H])c(Oc5c([H])c([H])c(F)c([H])c5F)c([H])c4[H])c(C(=O)N([H])[H])c3N([H])[H])C2([H])[H])c([H])c1Cl

$$$$
63:0:0
     RDKit          3D

105114  0  0  1  0  0  0  0  0999 V2000
  -29.8380  -25.9290   17.1040 C   0  0  0  0  0  3  0  0  0  0  0  0
  -29.5910  -24.7920   16.3130 C   0  0  0  0  0  3  0  0  0  0  0  0
  -31.2140  -24.5850   18.5900 C   0  0  0  0  0  3  0  0  0  0  0  0
  -30.9740  -23.4340   17.8090 C   0  0  0  0  0  0  0  0  0  0  0  0
  -30.6450  -25.8240   18.2530 C   0  0  0  0  0  0  0  0  0  0  0  0
  -30.1450  -23.5380   16.6560 C   0  0  0  0  0  0  0  0  0  0  0  0
  -29.8060  -22.3330   15.7890 C   0  0  0  0  0  1  0  0  0  0  0  0
  -31.6540  -22.1570   18.2150 C   0  0  0  0  0  0  0  0  0  0  0  0
  -31.5440  -21.8630   19.5140 N   0  0  0  0  0  0  0  0  0  0  0  0
  -32.2920  -21.4790   17.4050 O   0  0  0  0  0  0  0  0  0  0  0  0
  -30.9620  -22.4770   20.0670 H   0  0  0  0  0  0  0  0  0  0  0  0
  -32.3290  -20.8720   20.2410 C   0  0  0  0  0  2  0  0  0  0  0  0
  -31.0380  -18.8610   19.4860 C   0  0  0  0  0  3  0  0  0  0  0  0
  -31.5700  -19.5880   20.5660 C   0  0  0  0  0  0  0  0  0  0  0  0
  -30.4800  -17.5870   19.6680 C   0  0  0  0  0  0  0  0  0  0  0  0
  -31.4480  -19.0670   21.8840 C   0  0  0  0  0  0  0  0  0  0  0  0
  -30.9680  -17.7420   22.0720 C   0  0  0  0  0  0  0  0  0  0  0  0
  -30.5200  -16.9910   20.9540 C   0  0  0  0  0  0  0  0  0  0  0  0
  -29.9000  -16.8780   18.4520 C   0  0  0  0  0  1  0  0  0  0  0  0
  -31.8430  -19.9120   23.0910 C   0  0  0  0  0  1  0  0  0  0  0  0
  -30.9700  -17.1040   23.4600 C   0  0  0  0  0  1  0  0  0  0  0  0
  -30.8120  -14.6150   20.5590 C   0  0  0  0  0  0  0  0  0  0  0  0
  -30.5100  -12.4600   19.4270 C   0  0  0  0  0  2  0  0  0  0  0  0
  -29.6040  -12.6720   18.1980 C   0  0  0  0  0  2  0  0  0  0  0  0
  -28.1190  -12.5500   18.5890 C   0  0  0  0  0  2  0  0  0  0  0  0
  -27.7560  -13.4050   19.8340 C   0  0  0  0  0  3  0  0  0  0  0  0
  -28.7770  -13.1870   20.9740 C   0  0  0  0  0  2  0  0  0  0  0  0
  -30.1230  -13.4530   20.4390 N   0  0  0  0  0  0  0  0  0  0  0  0
  -31.9400  -14.7800   20.0840 O   0  0  0  0  0  0  0  0  0  0  0  0
  -30.1380  -15.6340   21.1130 N   0  0  0  0  0  0  0  0  0  0  0  0
  -29.2610  -15.4380   21.5720 H   0  0  0  0  0  0  0  0  0  0  0  0
  -25.3430  -14.0320   20.4750 C   0  0  0  0  0  0  0  0  0  0  0  0
  -24.2620  -13.2660   20.8220 C   0  0  0  0  0  0  0  0  0  0  0  0
  -24.7180  -11.9120   20.8130 C   0  0  0  0  0  0  0  0  0  0  0  0
  -26.3890  -13.1450   20.2770 N   0  0  0  0  0  0  0  0  0  0  0  0
  -26.0130  -11.8650   20.5330 N   0  0  0  0  0  0  0  0  0  0  0  0
  -23.9820  -10.6540   20.9930 C   0  0  0  0  0  0  0  0  0  0  0  0
  -24.3790   -9.6980   21.9550 C   0  0  0  0  0  3  0  0  0  0  0  0
  -23.6460   -8.5030   22.1220 C   0  0  0  0  0  3  0  0  0  0  0  0
  -22.5010   -8.2560   21.3270 C   0  0  0  0  0  0  0  0  0  0  0  0
  -22.1230   -9.1990   20.3560 C   0  0  0  0  0  3  0  0  0  0  0  0
  -22.8570  -10.3850   20.1880 C   0  0  0  0  0  3  0  0  0  0  0  0
  -21.7420   -7.1130   21.4040 O   0  0  0  0  0  0  0  0  0  0  0  0
  -21.6410   -6.3930   22.5670 C   0  0  0  0  0  0  0  0  0  0  0  0
  -21.1290   -6.9600   23.7530 C   0  0  0  0  0  3  0  0  0  0  0  0
  -20.9790   -6.1650   24.9070 C   0  0  0  0  0  3  0  0  0  0  0  0
  -21.3290   -4.8010   24.8730 C   0  0  0  0  0  0  0  0  0  0  0  0
  -21.8330   -4.2320   23.6900 C   0  0  0  0  0  3  0  0  0  0  0  0
  -21.9860   -5.0250   22.5400 C   0  0  0  0  0  0  0  0  0  0  0  0
  -22.4520   -4.4670   21.3970 F   0  0  0  0  0  0  0  0  0  0  0  0
  -21.1760   -4.0350   25.9780 F   0  0  0  0  0  0  0  0  0  0  0  0
  -22.8600  -13.7500   21.0580 C   0  0  0  0  0  0  0  0  0  0  0  0
  -22.1120  -13.0660   21.9170 N   0  0  0  0  0  0  0  0  0  0  0  0
  -22.4370  -14.7690   20.5160 O   0  0  0  0  0  0  0  0  0  0  0  0
  -22.4650  -12.2400   22.3780 H   0  0  0  0  0  0  0  0  0  0  0  0
  -21.1720  -13.3740   22.1190 H   0  0  0  0  0  0  0  0  0  0  0  0
  -25.5180  -15.4000   20.2930 N   0  0  0  0  0  0  0  0  0  0  0  0
  -24.7510  -16.0580   20.3840 H   0  0  0  0  0  0  0  0  0  0  0  0
  -26.3850  -15.8360   20.0070 H   0  0  0  0  0  0  0  0  0  0  0  0
  -30.8840  -27.0200   19.1570 C   0  0  0  0  0  2  0  0  0  0  0  0
  -29.1690  -26.7370   20.9940 C   0  0  0  0  0  0  0  0  0  0  0  0
  -30.4780  -26.7590   20.5390 N   0  0  0  0  0  0  0  0  0  0  0  0
  -28.8360  -26.6460   22.1760 O   0  0  0  0  0  0  0  0  0  0  0  0
  -31.1900  -26.6660   21.2490 H   0  0  0  0  0  0  0  0  0  0  0  0
  -28.3130  -26.8750   19.9590 O   0  0  0  0  0  0  0  0  0  0  0  0
  -24.4990  -31.9370   23.2140 C   0  0  0  0  0  0  0  0  0  0  0  0
  -27.1300  -27.5600   20.0840 C   0  0  0  0  0  0  0  0  0  0  0  0
  -23.2690  -30.5320   21.5860 C   0  0  0  0  0  3  0  0  0  0  0  0
  -24.7070  -29.0040   20.1420 C   0  0  0  0  0  0  0  0  0  0  0  0
  -25.7800  -30.9230   21.3400 C   0  0  0  0  0  2  0  0  0  0  0  0
  -25.8640  -29.5530   20.7090 C   0  0  0  0  0  0  0  0  0  0  0  0
  -27.0750  -28.8400   20.6810 C   0  0  0  0  0  3  0  0  0  0  0  0
  -25.9600  -27.0110   19.5230 C   0  0  0  0  0  3  0  0  0  0  0  0
  -24.7450  -27.7270   19.5510 C   0  0  0  0  0  3  0  0  0  0  0  0
  -23.4590  -29.8530   20.2030 C   0  0  0  0  0  2  0  0  0  0  0  0
  -24.5340  -31.1450   22.1050 N   0  0  0  0  0  0  0  0  0  0  0  0
  -23.4270  -32.2000   23.7770 O   0  0  0  0  0  0  0  0  0  0  0  0
  -22.6440  -29.5030   22.5540 C   0  0  0  0  0  0  0  0  0  0  0  0
  -21.3210  -29.3050   22.4420 N   0  0  0  0  0  0  0  0  0  0  0  0
  -23.3460  -28.8860   23.3600 O   0  0  0  0  0  0  0  0  0  0  0  0
  -20.8140  -29.8580   21.7660 H   0  0  0  0  0  0  0  0  0  0  0  0
  -17.9680  -28.0810   22.9740 C   0  0  0  0  0  0  0  0  0  0  0  0
  -20.5250  -28.3600   23.2220 C   0  0  0  0  0  3  0  0  0  0  0  0
  -20.6360  -26.9290   22.6440 C   0  0  0  0  0  2  0  0  0  0  0  0
  -19.5270  -26.5980   21.6400 C   0  0  0  0  0  2  0  0  0  0  0  0
  -18.1480  -26.7330   22.2960 C   0  0  0  0  0  2  0  0  0  0  0  0
  -19.0840  -28.8520   23.3940 C   0  0  0  0  0  0  0  0  0  0  0  0
  -18.8610  -30.1150   23.9840 C   0  0  0  0  0  3  0  0  0  0  0  0
  -17.5550  -30.6090   24.1570 C   0  0  0  0  0  3  0  0  0  0  0  0
  -16.4530  -29.8350   23.7530 C   0  0  0  0  0  3  0  0  0  0  0  0
  -16.6600  -28.5730   23.1720 C   0  0  0  0  0  3  0  0  0  0  0  0
  -25.7950  -32.5710   23.8110 C   0  0  0  0  0  3  0  0  0  0  0  0
  -25.4900  -33.9650   24.1490 N   0  0  0  0  0  0  0  0  0  0  0  0
  -25.8190  -35.0180   23.3900 C   0  0  0  0  0  0  0  0  0  0  0  0
  -26.4830  -34.9180   22.3530 O   0  0  0  0  0  0  0  0  0  0  0  0
  -24.9030  -34.1190   24.9570 H   0  0  0  0  0  0  0  0  0  0  0  0
  -24.1030  -36.8160   23.0290 C   0  0  0  0  0  1  0  0  0  0  0  0
  -25.3340  -36.4030   23.8520 C   0  0  0  0  0  3  0  0  0  0  0  0
  -27.4580  -37.2750   24.7220 C   0  0  0  0  0  1  0  0  0  0  0  0
  -26.3720  -37.4520   23.7610 N   0  0  0  0  0  0  0  0  0  0  0  0
  -25.9660  -38.3720   23.9130 H   0  0  0  0  0  0  0  0  0  0  0  0
  -26.3410  -31.7950   25.0720 C   0  0  1  0  0  0  0  0  0  0  0  0
  -25.2710  -31.5440   26.1600 C   0  0  0  0  0  1  0  0  0  0  0  0
  -26.9250  -30.4260   24.6520 C   0  0  0  0  0  1  0  0  0  0  0  0
  -27.4950  -32.5970   25.7200 C   0  0  0  0  0  1  0  0  0  0  0  0
  1  5  1  0
  2  6  1  0
  2  1  2  0
  4  8  1  0
  4  3  1  0
  5  3  2  0
  5 60  1  0
  6  4  2  0
  7  6  1  0
  8  9  1  0
  9 11  1  0
  9 12  1  0
 10  8  2  0
 12 14  1  0
 13 15  2  0
 13 14  1  0
 14 16  2  0
 15 18  1  0
 16 17  1  0
 16 20  1  0
 17 21  1  0
 18 30  1  0
 18 17  2  0
 19 15  1  0
 22 30  1  0
 23 28  1  0
 24 25  1  0
 24 23  1  0
 26 25  1  0
 26 35  1  0
 26 27  1  0
 28 22  1  0
 28 27  1  0
 29 22  2  0
 30 31  1  0
 32 33  2  0
 33 52  1  0
 34 33  1  0
 34 37  1  0
 35 32  1  0
 35 36  1  0
 36 34  2  0
 37 38  1  0
 38 39  2  0
 40 43  1  0
 40 39  1  0
 41 40  2  0
 42 41  1  0
 42 37  2  0
 43 44  1  0
 44 45  1  0
 45 46  2  0
 47 46  1  0
 47 51  1  0
 48 47  2  0
 49 44  2  0
 49 48  1  0
 50 49  1  0
 52 53  1  0
 53 56  1  0
 53 55  1  0
 54 52  2  0
 57 58  1  0
 57 32  1  0
 59 57  1  0
 60 62  1  0
 61 63  2  0
 62 61  1  0
 62 64  1  0
 65 67  1  0
 65 61  1  0
 66 77  2  0
 67 72  1  0
 68 76  1  0
 68 78  1  0
 69 75  1  0
 69 71  1  0
 70 76  1  0
 71 70  1  0
 72 71  2  0
 73 74  1  0
 73 67  2  0
 74 69  2  0
 75 68  1  0
 76 66  1  0
 78 80  2  0
 79 78  1  0
 81 79  1  0
 82 91  2  0
 82 87  1  0
 83 79  1  0
 83 87  1  0
 84 83  1  0
 85 86  1  0
 85 84  1  0
 86 82  1  0
 87 88  2  0
 88 89  1  0
 90 89  2  0
 91 90  1  0
 92 66  1  0
 92 93  1  0
 92102  1  0
 93 96  1  0
 94 98  1  0
 94 93  1  0
 95 94  2  0
 98 97  1  0
100 98  1  0
100101  1  0
100 99  1  0
102105  1  1
102103  1  0
104102  1  0
M  ISO  4  22 100  30 100  61 101  65 101
M  END
>  <TORSDO>  (64) 
F 21

>  <SCORE>  (64) 
-12.926

>  <name>  (64) 
63

>  <ligand_id>  (64) 
63

>  <original_smiles>  (64) 
[H]c1c([H])c([H])c2c(c1[H])C([H])([H])C([H])([H])C([H])([H])C2([H])N([H])C(=O)C1([H])N(C(=O)C([H])(N([H])C(=O)C([H])(N([H])C([H])([H])[H])C([H])([H])[H])C(C([H])([H])[H])(C([H])([H])[H])C([H])([H])[H])C([H])([H])c2c([H])c(OC(=O)N([H])C([H])([H])c3c([H])c([H])c(C([H])([H])[H])c(C(=O)N([H])C([H])([H])c4c([H])c(C([H])([H])[H])c(N([H])C(=O)N5C([H])([H])C([H])([H])C([H])([H])C([H])(n6nc(-c7c([H])c([H])c(Oc8c([H])c([H])c(F)c([H])c8F)c([H])c7[H])c(C(=O)N([H])[H])c6N([H])[H])C5([H])[H])c(C([H])([H])[H])c4C([H])([H])[H])c3[H])c([H])c([H])c2C1([H])[H]

>  <smiles>  (64) 
[H]c1c([H])c([H])c2c(c1[H])C([H])([H])C([H])([H])C([H])([H])C2([H])N([H])C(=O)C1([H])N(C(=O)C([H])(N([H])C(=O)C([H])(N([H])C([H])([H])[H])C([H])([H])[H])C(C([H])([H])[H])(C([H])([H])[H])C([H])([H])[H])C([H])([H])c2c([H])c(OC(=O)N([H])C([H])([H])c3c([H])c([H])c(C([H])([H])[H])c(C(=O)N([H])C([H])([H])c4c([H])c(C([H])([H])[H])c(N([H])C(=O)N5C([H])([H])C([H])([H])C([H])([H])C([H])(n6nc(-c7c([H])c([H])c(Oc8c([H])c([H])c(F)c([H])c8F)c([H])c7[H])c(C(=O)N([H])[H])c6N([H])[H])C5([H])[H])c(C([H])([H])[H])c4C([H])([H])[H])c3[H])c([H])c([H])c2C1([H])[H]

$$$$
64:0:0
     RDKit          3D

 89 97  0  0  1  0  0  0  0  0999 V2000
  -30.5030  -19.8290   19.0140 C   0  0  0  0  0  3  0  0  0  0  0  0
  -30.6840  -18.3940   19.1720 C   0  0  0  0  0  3  0  0  0  0  0  0
  -28.5010  -19.7590   20.2350 C   0  0  0  0  0  3  0  0  0  0  0  0
  -29.3960  -20.6090   19.5090 C   0  0  0  0  0  0  0  0  0  0  0  0
  -28.6580  -18.3150   20.3870 C   0  0  0  0  0  0  0  0  0  0  0  0
  -29.7570  -17.5420   19.8530 C   0  0  0  0  0  0  0  0  0  0  0  0
  -27.5750  -17.5760   21.1540 C   0  0  0  0  0  1  0  0  0  0  0  0
  -30.5630  -14.9210   19.4970 C   0  0  0  0  0  0  0  0  0  0  0  0
  -30.3390  -12.6090   18.4900 C   0  0  0  0  0  2  0  0  0  0  0  0
  -29.2480  -12.6350   17.3930 C   0  0  0  0  0  2  0  0  0  0  0  0
  -27.8500  -12.4160   18.0000 C   0  0  0  0  0  2  0  0  0  0  0  0
  -27.6120  -13.2850   19.2630 C   0  0  0  0  0  3  0  0  0  0  0  0
  -28.8050  -13.2170   20.2410 C   0  0  0  0  0  2  0  0  0  0  0  0
  -29.9990  -13.6480   19.5020 N   0  0  0  0  0  0  0  0  0  0  0  0
  -31.6820  -15.0570   18.9900 O   0  0  0  0  0  0  0  0  0  0  0  0
  -29.7880  -16.0130   19.9550 N   0  0  0  0  0  0  0  0  0  0  0  0
  -28.9870  -15.6570   20.4530 H   0  0  0  0  0  0  0  0  0  0  0  0
  -25.3530  -13.8420   20.3360 C   0  0  0  0  0  0  0  0  0  0  0  0
  -24.3380  -13.0550   20.8050 C   0  0  0  0  0  0  0  0  0  0  0  0
  -24.7750  -11.7050   20.6400 C   0  0  0  0  0  0  0  0  0  0  0  0
  -26.3450  -12.9710   19.9130 N   0  0  0  0  0  0  0  0  0  0  0  0
  -26.0130  -11.6770   20.1590 N   0  0  0  0  0  0  0  0  0  0  0  0
  -24.0630  -10.4390   20.8590 C   0  0  0  0  0  0  0  0  0  0  0  0
  -24.5170   -9.4870   21.7980 C   0  0  0  0  0  3  0  0  0  0  0  0
  -23.8030   -8.2860   22.0030 C   0  0  0  0  0  3  0  0  0  0  0  0
  -22.6200   -8.0290   21.2700 C   0  0  0  0  0  0  0  0  0  0  0  0
  -22.1850   -8.9700   20.3200 C   0  0  0  0  0  3  0  0  0  0  0  0
  -22.9000  -10.1620   20.1120 C   0  0  0  0  0  3  0  0  0  0  0  0
  -21.8760   -6.8800   21.3840 O   0  0  0  0  0  0  0  0  0  0  0  0
  -21.7310   -6.2340   22.5860 C   0  0  0  0  0  0  0  0  0  0  0  0
  -21.1490   -6.8660   23.7060 C   0  0  0  0  0  3  0  0  0  0  0  0
  -20.9550   -6.1430   24.9000 C   0  0  0  0  0  3  0  0  0  0  0  0
  -21.3320   -4.7890   24.9740 C   0  0  0  0  0  0  0  0  0  0  0  0
  -21.9060   -4.1570   23.8570 C   0  0  0  0  0  3  0  0  0  0  0  0
  -22.1020   -4.8770   22.6650 C   0  0  0  0  0  0  0  0  0  0  0  0
  -22.6360   -4.2560   21.5860 F   0  0  0  0  0  0  0  0  0  0  0  0
  -21.1390   -4.0920   26.1180 F   0  0  0  0  0  0  0  0  0  0  0  0
  -22.9960  -13.5260   21.2840 C   0  0  0  0  0  0  0  0  0  0  0  0
  -22.3860  -12.7970   22.2130 N   0  0  0  0  0  0  0  0  0  0  0  0
  -22.5010  -14.5750   20.8710 O   0  0  0  0  0  0  0  0  0  0  0  0
  -22.8020  -11.9490   22.5670 H   0  0  0  0  0  0  0  0  0  0  0  0
  -21.4910  -13.0940   22.5750 H   0  0  0  0  0  0  0  0  0  0  0  0
  -25.5080  -15.2180   20.2060 N   0  0  0  0  0  0  0  0  0  0  0  0
  -24.7570  -15.8620   20.4340 H   0  0  0  0  0  0  0  0  0  0  0  0
  -26.2780  -15.6660   19.7250 H   0  0  0  0  0  0  0  0  0  0  0  0
  -29.2570  -22.1740   19.1870 C   0  0  0  0  0  3  0  0  0  0  0  0
  -28.5640  -23.3240   19.6370 C   0  0  0  0  0  3  0  0  0  0  0  0
  -28.5030  -24.8140   18.9420 C   0  0  0  0  0  2  0  0  0  0  0  0
  -28.4160  -26.1920   19.6470 O   0  0  0  0  0  0  0  0  0  0  0  0
  -24.6110  -31.5770   22.8900 C   0  0  0  0  0  0  0  0  0  0  0  0
  -27.3090  -27.1150   19.5930 C   0  0  0  0  0  0  0  0  0  0  0  0
  -23.4360  -30.2230   21.1980 C   0  0  0  0  0  3  0  0  0  0  0  0
  -24.9170  -28.7720   19.6790 C   0  0  0  0  0  0  0  0  0  0  0  0
  -25.9770  -30.5830   21.0190 C   0  0  0  0  0  2  0  0  0  0  0  0
  -26.0860  -29.2290   20.2970 C   0  0  0  0  0  0  0  0  0  0  0  0
  -27.2770  -28.4140   20.2440 C   0  0  0  0  0  3  0  0  0  0  0  0
  -26.1040  -26.7580   18.9470 C   0  0  0  0  0  3  0  0  0  0  0  0
  -24.9370  -27.5510   18.9920 C   0  0  0  0  0  3  0  0  0  0  0  0
  -23.6600  -29.6220   19.7850 C   0  0  0  0  0  2  0  0  0  0  0  0
  -24.6950  -30.8140   21.7580 N   0  0  0  0  0  0  0  0  0  0  0  0
  -23.5240  -31.7990   23.4440 O   0  0  0  0  0  0  0  0  0  0  0  0
  -22.8050  -29.1470   22.1180 C   0  0  0  0  0  0  0  0  0  0  0  0
  -21.4740  -28.9720   22.0310 N   0  0  0  0  0  0  0  0  0  0  0  0
  -23.5130  -28.4760   22.8730 O   0  0  0  0  0  0  0  0  0  0  0  0
  -20.9580  -29.5670   21.3980 H   0  0  0  0  0  0  0  0  0  0  0  0
  -18.1150  -27.7590   22.6390 C   0  0  0  0  0  0  0  0  0  0  0  0
  -20.6890  -27.9800   22.7710 C   0  0  0  0  0  3  0  0  0  0  0  0
  -20.7390  -26.5990   22.0770 C   0  0  0  0  0  2  0  0  0  0  0  0
  -19.5750  -26.3690   21.1070 C   0  0  0  0  0  2  0  0  0  0  0  0
  -18.2350  -26.4680   21.8430 C   0  0  0  0  0  2  0  0  0  0  0  0
  -19.2660  -28.4750   23.0600 C   0  0  0  0  0  0  0  0  0  0  0  0
  -19.0970  -29.6850   23.7680 C   0  0  0  0  0  3  0  0  0  0  0  0
  -17.8090  -30.1770   24.0570 C   0  0  0  0  0  3  0  0  0  0  0  0
  -16.6740  -29.4550   23.6490 C   0  0  0  0  0  3  0  0  0  0  0  0
  -16.8290  -28.2470   22.9460 C   0  0  0  0  0  3  0  0  0  0  0  0
  -25.8770  -32.2230   23.5330 C   0  0  0  0  0  3  0  0  0  0  0  0
  -25.5100  -33.5760   23.9780 N   0  0  0  0  0  0  0  0  0  0  0  0
  -25.7760  -34.7030   23.3030 C   0  0  0  0  0  0  0  0  0  0  0  0
  -26.4230  -34.7130   22.2520 O   0  0  0  0  0  0  0  0  0  0  0  0
  -24.9290  -33.6380   24.8010 H   0  0  0  0  0  0  0  0  0  0  0  0
  -23.9590  -36.4370   23.1420 C   0  0  0  0  0  1  0  0  0  0  0  0
  -25.2420  -36.0270   23.8840 C   0  0  0  0  0  3  0  0  0  0  0  0
  -27.3520  -36.9530   24.7370 C   0  0  0  0  0  1  0  0  0  0  0  0
  -26.2230  -37.1330   23.8270 N   0  0  0  0  0  0  0  0  0  0  0  0
  -25.7770  -38.0200   24.0470 H   0  0  0  0  0  0  0  0  0  0  0  0
  -26.4570  -31.3860   24.7390 C   0  0  1  0  0  0  0  0  0  0  0  0
  -25.4000  -31.0200   25.8080 C   0  0  0  0  0  1  0  0  0  0  0  0
  -27.0910  -30.0670   24.2380 C   0  0  0  0  0  1  0  0  0  0  0  0
  -27.5850  -32.1820   25.4340 C   0  0  0  0  0  1  0  0  0  0  0  0
  1  2  2  0
  1  4  1  0
  2  6  1  0
  3  5  1  0
  4  3  2  0
  5  7  1  0
  6 16  1  0
  6  5  2  0
  8 14  1  0
  8 16  1  0
  9 14  1  0
 10 11  1  0
 10  9  1  0
 12 11  1  0
 12 21  1  0
 12 13  1  0
 14 13  1  0
 15  8  2  0
 16 17  1  0
 18 19  2  0
 19 38  1  0
 20 19  1  0
 20 23  1  0
 21 22  1  0
 21 18  1  0
 22 20  2  0
 23 24  1  0
 24 25  2  0
 26 29  1  0
 26 25  1  0
 27 26  2  0
 28 27  1  0
 28 23  2  0
 29 30  1  0
 30 35  2  0
 30 31  1  0
 31 32  2  0
 32 33  1  0
 33 37  1  0
 34 33  2  0
 35 34  1  0
 36 35  1  0
 38 39  1  0
 39 41  1  0
 39 42  1  0
 40 38  2  0
 43 18  1  0
 43 44  1  0
 45 43  1  0
 46  4  1  0
 46 47  2  0
 48 47  1  0
 48 49  1  0
 50 61  2  0
 51 49  1  0
 51 56  1  0
 52 60  1  0
 52 62  1  0
 53 59  1  0
 53 55  1  0
 54 60  1  0
 55 54  1  0
 56 55  2  0
 57 58  1  0
 57 51  2  0
 58 53  2  0
 59 52  1  0
 60 50  1  0
 62 64  2  0
 63 62  1  0
 65 63  1  0
 66 75  2  0
 66 71  1  0
 67 63  1  0
 67 71  1  0
 68 67  1  0
 69 70  1  0
 69 68  1  0
 70 66  1  0
 71 72  2  0
 72 73  1  0
 74 73  2  0
 75 74  1  0
 76 50  1  0
 76 77  1  0
 76 86  1  0
 77 80  1  0
 78 82  1  0
 78 77  1  0
 79 78  2  0
 82 81  1  0
 84 82  1  0
 84 85  1  0
 84 83  1  0
 86 89  1  1
 86 87  1  0
 88 86  1  0
M  ISO  4   8 100  16 100  48 101  49 101
M  END
>  <TORSDO>  (65) 
F 18

>  <SCORE>  (65) 
-11.836

>  <name>  (65) 
64

>  <ligand_id>  (65) 
64

>  <original_smiles>  (65) 
[H]C(=C([H])C([H])([H])Oc1c([H])c([H])c2c(c1[H])C([H])([H])N(C(=O)C([H])(N([H])C(=O)C([H])(N([H])C([H])([H])[H])C([H])([H])[H])C(C([H])([H])[H])(C([H])([H])[H])C([H])([H])[H])C([H])(C(=O)N([H])C1([H])c3c([H])c([H])c([H])c([H])c3C([H])([H])C([H])([H])C1([H])[H])C2([H])[H])c1c([H])c([H])c(N([H])C(=O)N2C([H])([H])C([H])([H])C([H])([H])C([H])(n3nc(-c4c([H])c([H])c(Oc5c([H])c([H])c(F)c([H])c5F)c([H])c4[H])c(C(=O)N([H])[H])c3N([H])[H])C2([H])[H])c(C([H])([H])[H])c1[H]

>  <smiles>  (65) 
[H]C(=C([H])C([H])([H])Oc1c([H])c([H])c2c(c1[H])C([H])([H])N(C(=O)C([H])(N([H])C(=O)C([H])(N([H])C([H])([H])[H])C([H])([H])[H])C(C([H])([H])[H])(C([H])([H])[H])C([H])([H])[H])C([H])(C(=O)N([H])C1([H])c3c([H])c([H])c([H])c([H])c3C([H])([H])C([H])([H])C1([H])[H])C2([H])[H])c1c([H])c([H])c(N([H])C(=O)N2C([H])([H])C([H])([H])C([H])([H])C([H])(n3nc(-c4c([H])c([H])c(Oc5c([H])c([H])c(F)c([H])c5F)c([H])c4[H])c(C(=O)N([H])[H])c3N([H])[H])C2([H])[H])c(C([H])([H])[H])c1[H]

$$$$
65:0:0
     RDKit          3D

 95103  0  0  1  0  0  0  0  0999 V2000
  -30.0890  -21.1720   20.8820 N   0  0  0  0  0  4  0  0  0  0  0  0
  -29.2640  -20.7200   20.5250 H   0  0  0  0  0  0  0  0  0  0  0  0
  -30.7340  -21.2800   20.1160 H   0  0  0  0  0  0  0  0  0  0  0  0
  -30.7090  -20.2800   21.8860 C   0  0  0  0  0  2  0  0  0  0  0  0
  -32.6920  -19.2620   20.7360 C   0  0  0  0  0  3  0  0  0  0  0  0
  -32.8010  -16.9350   20.0530 C   0  0  0  0  0  3  0  0  0  0  0  0
  -31.3860  -19.0730   21.2370 C   0  0  0  0  0  0  0  0  0  0  0  0
  -30.7720  -17.7890   21.1360 C   0  0  0  0  0  0  0  0  0  0  0  0
  -31.4830  -16.7220   20.5200 C   0  0  0  0  0  0  0  0  0  0  0  0
  -33.4010  -18.1990   20.1560 C   0  0  0  0  0  0  0  0  0  0  0  0
  -29.3700  -17.5470   21.6880 C   0  0  0  0  0  1  0  0  0  0  0  0
  -35.0080  -18.4440   19.5790 Cl  0  0  0  0  0  0  0  0  0  0  0  0
  -31.3490  -14.4070   19.6610 C   0  0  0  0  0  0  0  0  0  0  0  0
  -31.0040  -12.0650   18.9610 C   0  0  0  0  0  2  0  0  0  0  0  0
  -29.9880  -11.9660   17.8090 C   0  0  0  0  0  2  0  0  0  0  0  0
  -28.5520  -11.8880   18.3570 C   0  0  0  0  0  2  0  0  0  0  0  0
  -28.2560  -12.9900   19.4060 C   0  0  0  0  0  3  0  0  0  0  0  0
  -29.3740  -13.0550   20.4710 C   0  0  0  0  0  2  0  0  0  0  0  0
  -30.6620  -13.2410   19.7780 N   0  0  0  0  0  0  0  0  0  0  0  0
  -32.3230  -14.5330   18.9110 O   0  0  0  0  0  0  0  0  0  0  0  0
  -30.8990  -15.4250   20.4150 N   0  0  0  0  0  0  0  0  0  0  0  0
  -30.0340  -15.2670   20.9090 H   0  0  0  0  0  0  0  0  0  0  0  0
  -26.0180  -13.7520   20.4270 C   0  0  0  0  0  0  0  0  0  0  0  0
  -24.9270  -13.0480   20.8650 C   0  0  0  0  0  0  0  0  0  0  0  0
  -25.2490  -11.6690   20.6870 C   0  0  0  0  0  0  0  0  0  0  0  0
  -26.9410  -12.8020   20.0160 N   0  0  0  0  0  0  0  0  0  0  0  0
  -26.4870  -11.5400   20.2260 N   0  0  0  0  0  0  0  0  0  0  0  0
  -24.4310  -10.4640   20.8750 C   0  0  0  0  0  0  0  0  0  0  0  0
  -24.7770   -9.4760   21.8220 C   0  0  0  0  0  3  0  0  0  0  0  0
  -23.9640   -8.3350   21.9960 C   0  0  0  0  0  3  0  0  0  0  0  0
  -22.7910   -8.1740   21.2210 C   0  0  0  0  0  0  0  0  0  0  0  0
  -22.4630   -9.1500   20.2630 C   0  0  0  0  0  3  0  0  0  0  0  0
  -23.2760  -10.2820   20.0870 C   0  0  0  0  0  3  0  0  0  0  0  0
  -21.9540   -7.0870   21.3040 O   0  0  0  0  0  0  0  0  0  0  0  0
  -21.7060   -6.4590   22.4980 C   0  0  0  0  0  0  0  0  0  0  0  0
  -21.1440   -7.1440   23.5970 C   0  0  0  0  0  3  0  0  0  0  0  0
  -20.8410   -6.4440   24.7830 C   0  0  0  0  0  3  0  0  0  0  0  0
  -21.0910   -5.0610   24.8680 C   0  0  0  0  0  0  0  0  0  0  0  0
  -21.6460   -4.3770   23.7710 C   0  0  0  0  0  3  0  0  0  0  0  0
  -21.9500   -5.0740   22.5890 C   0  0  0  0  0  0  0  0  0  0  0  0
  -22.4650   -4.4060   21.5300 F   0  0  0  0  0  0  0  0  0  0  0  0
  -20.7920   -4.3870   26.0030 F   0  0  0  0  0  0  0  0  0  0  0  0
  -23.6220  -13.6230   21.3340 C   0  0  0  0  0  0  0  0  0  0  0  0
  -22.9420  -12.9370   22.2460 N   0  0  0  0  0  0  0  0  0  0  0  0
  -23.2200  -14.7130   20.9270 O   0  0  0  0  0  0  0  0  0  0  0  0
  -23.2820  -12.0510   22.5920 H   0  0  0  0  0  0  0  0  0  0  0  0
  -22.0710  -13.3000   22.6030 H   0  0  0  0  0  0  0  0  0  0  0  0
  -26.2930  -15.1120   20.3250 N   0  0  0  0  0  0  0  0  0  0  0  0
  -25.6070  -15.8210   20.5610 H   0  0  0  0  0  0  0  0  0  0  0  0
  -27.1360  -15.4970   19.9180 H   0  0  0  0  0  0  0  0  0  0  0  0
  -29.7350  -22.5130   21.3980 C   0  0  0  0  0  2  0  0  0  0  0  0
  -29.1770  -23.4430   20.3000 C   0  0  0  0  0  2  0  0  0  0  0  0
  -28.9780  -24.8950   20.7810 C   0  0  0  0  0  2  0  0  0  0  0  0
  -28.4310  -25.8190   19.6790 C   0  0  0  0  0  2  0  0  0  0  0  0
  -28.3680  -27.1600   20.1780 O   0  0  0  0  0  0  0  0  0  0  0  0
  -24.7750  -32.2220   23.6250 C   0  0  0  0  0  0  0  0  0  0  0  0
  -27.1690  -27.8440   20.2560 C   0  0  0  0  0  0  0  0  0  0  0  0
  -23.4560  -30.9030   22.0010 C   0  0  0  0  0  3  0  0  0  0  0  0
  -24.8010  -29.3880   20.4540 C   0  0  0  0  0  0  0  0  0  0  0  0
  -25.9740  -31.2190   21.6850 C   0  0  0  0  0  2  0  0  0  0  0  0
  -25.9970  -29.8680   21.0000 C   0  0  0  0  0  0  0  0  0  0  0  0
  -27.1790  -29.1020   20.9000 C   0  0  0  0  0  3  0  0  0  0  0  0
  -25.9510  -27.3800   19.7030 C   0  0  0  0  0  3  0  0  0  0  0  0
  -24.7730  -28.1420   19.8060 C   0  0  0  0  0  3  0  0  0  0  0  0
  -23.5800  -30.2680   20.5910 C   0  0  0  0  0  2  0  0  0  0  0  0
  -24.7570  -31.4600   22.4960 N   0  0  0  0  0  0  0  0  0  0  0  0
  -23.7290  -32.4980   24.2280 O   0  0  0  0  0  0  0  0  0  0  0  0
  -22.8340  -29.8610   22.9560 C   0  0  0  0  0  0  0  0  0  0  0  0
  -21.5560  -29.5220   22.7190 N   0  0  0  0  0  0  0  0  0  0  0  0
  -23.4990  -29.3570   23.8650 O   0  0  0  0  0  0  0  0  0  0  0  0
  -21.0760  -29.9860   21.9600 H   0  0  0  0  0  0  0  0  0  0  0  0
  -18.3590  -27.8510   22.8650 C   0  0  0  0  0  0  0  0  0  0  0  0
  -20.7760  -28.5380   23.4660 C   0  0  0  0  0  3  0  0  0  0  0  0
  -21.1760  -27.0980   23.0710 C   0  0  0  0  0  2  0  0  0  0  0  0
  -20.3060  -26.5160   21.9530 C   0  0  0  0  0  2  0  0  0  0  0  0
  -18.8340  -26.4930   22.3750 C   0  0  0  0  0  2  0  0  0  0  0  0
  -19.2730  -28.8170   23.3610 C   0  0  0  0  0  0  0  0  0  0  0  0
  -18.7830  -30.0760   23.7710 C   0  0  0  0  0  3  0  0  0  0  0  0
  -17.4110  -30.3760   23.6930 C   0  0  0  0  0  3  0  0  0  0  0  0
  -16.5080  -29.4110   23.2150 C   0  0  0  0  0  3  0  0  0  0  0  0
  -16.9820  -28.1510   22.8080 C   0  0  0  0  0  3  0  0  0  0  0  0
  -26.1050  -32.8050   24.1970 C   0  0  0  0  0  3  0  0  0  0  0  0
  -25.8680  -34.2190   24.5150 N   0  0  0  0  0  0  0  0  0  0  0  0
  -26.2040  -35.2430   23.7190 C   0  0  0  0  0  0  0  0  0  0  0  0
  -26.8180  -35.0930   22.6580 O   0  0  0  0  0  0  0  0  0  0  0  0
  -25.3190  -34.4120   25.3390 H   0  0  0  0  0  0  0  0  0  0  0  0
  -24.5180  -37.0850   23.4200 C   0  0  0  0  0  1  0  0  0  0  0  0
  -25.7900  -36.6570   24.1680 C   0  0  0  0  0  3  0  0  0  0  0  0
  -28.0050  -37.4750   24.8450 C   0  0  0  0  0  1  0  0  0  0  0  0
  -26.8500  -37.6700   23.9730 N   0  0  0  0  0  0  0  0  0  0  0  0
  -26.4880  -38.6070   24.1350 H   0  0  0  0  0  0  0  0  0  0  0  0
  -26.6300  -32.0270   25.4660 C   0  0  1  0  0  0  0  0  0  0  0  0
  -25.5390  -31.7690   26.5310 C   0  0  0  0  0  1  0  0  0  0  0  0
  -27.2230  -30.6580   25.0590 C   0  0  0  0  0  1  0  0  0  0  0  0
  -27.7740  -32.8230   26.1350 C   0  0  0  0  0  1  0  0  0  0  0  0
  1 51  1  0
  1  4  1  0
  2  1  1  0
  3  1  1  0
  5  7  1  0
  6 10  1  0
  6  9  2  0
  7  4  1  0
  8  7  2  0
  8 11  1  0
  9  8  1  0
 10  5  2  0
 12 10  1  0
 13 19  1  0
 13 21  1  0
 14 19  1  0
 15 16  1  0
 15 14  1  0
 17 16  1  0
 17 26  1  0
 17 18  1  0
 19 18  1  0
 20 13  2  0
 21  9  1  0
 21 22  1  0
 23 24  2  0
 24 43  1  0
 25 24  1  0
 25 28  1  0
 26 27  1  0
 26 23  1  0
 27 25  2  0
 28 29  1  0
 29 30  2  0
 31 34  1  0
 31 30  1  0
 32 31  2  0
 33 32  1  0
 33 28  2  0
 34 35  1  0
 35 40  2  0
 35 36  1  0
 36 37  2  0
 37 38  1  0
 38 42  1  0
 39 38  2  0
 40 39  1  0
 41 40  1  0
 43 44  1  0
 44 46  1  0
 44 47  1  0
 45 43  2  0
 48 23  1  0
 48 49  1  0
 50 48  1  0
 52 53  1  0
 52 51  1  0
 54 55  1  0
 54 53  1  0
 55 57  1  0
 56 67  2  0
 57 62  1  0
 58 66  1  0
 58 68  1  0
 59 65  1  0
 59 61  1  0
 60 66  1  0
 61 60  1  0
 62 61  2  0
 63 64  1  0
 63 57  2  0
 64 59  2  0
 65 58  1  0
 66 56  1  0
 68 70  2  0
 69 68  1  0
 71 69  1  0
 72 77  1  0
 73 69  1  0
 74 73  1  0
 75 76  1  0
 75 74  1  0
 76 72  1  0
 77 73  1  0
 77 78  2  0
 79 78  1  0
 80 79  2  0
 81 72  2  0
 81 80  1  0
 82 56  1  0
 82 83  1  0
 82 92  1  0
 83 86  1  0
 84 88  1  0
 84 83  1  0
 85 84  2  0
 88 87  1  0
 90 91  1  0
 90 88  1  0
 90 89  1  0
 92 95  1  1
 92 93  1  0
 94 92  1  0
M  ISO  4  13 100  21 100  54 101  55 101
M  END
>  <TORSDO>  (66) 
F 22

>  <SCORE>  (66) 
-11.336

>  <name>  (66) 
65

>  <ligand_id>  (66) 
65

>  <original_smiles>  (66) 
[H]c1c([H])c([H])c2c(c1[H])C([H])([H])C([H])([H])C([H])([H])C2([H])N([H])C(=O)C1([H])N(C(=O)C([H])(N([H])C(=O)C([H])(N([H])C([H])([H])[H])C([H])([H])[H])C(C([H])([H])[H])(C([H])([H])[H])C([H])([H])[H])C([H])([H])c2c([H])c(OC([H])([H])C([H])([H])C([H])([H])C([H])([H])[N+]([H])([H])C([H])([H])c3c([H])c(Cl)c([H])c(N([H])C(=O)N4C([H])([H])C([H])([H])C([H])([H])C([H])(n5nc(-c6c([H])c([H])c(Oc7c([H])c([H])c(F)c([H])c7F)c([H])c6[H])c(C(=O)N([H])[H])c5N([H])[H])C4([H])[H])c3C([H])([H])[H])c([H])c([H])c2C1([H])[H]

>  <smiles>  (66) 
[H]c1c([H])c([H])c2c(c1[H])C([H])([H])C([H])([H])C([H])([H])C2([H])N([H])C(=O)C1([H])N(C(=O)C([H])(N([H])C(=O)C([H])(N([H])C([H])([H])[H])C([H])([H])[H])C(C([H])([H])[H])(C([H])([H])[H])C([H])([H])[H])C([H])([H])c2c([H])c(OC([H])([H])C([H])([H])C([H])([H])C([H])([H])[N+]([H])([H])C([H])([H])c3c([H])c(Cl)c([H])c(N([H])C(=O)N4C([H])([H])C([H])([H])C([H])([H])C([H])(n5nc(-c6c([H])c([H])c(Oc7c([H])c([H])c(F)c([H])c7F)c([H])c6[H])c(C(=O)N([H])[H])c5N([H])[H])C4([H])[H])c3C([H])([H])[H])c([H])c([H])c2C1([H])[H]

$$$$
66:0:0
     RDKit          3D

 97105  0  0  1  0  0  0  0  0999 V2000
  -31.9010  -20.9320   21.7700 C   0  0  0  0  0  0  0  0  0  0  0  0
  -32.9050  -21.1830   22.6120 N   0  0  0  0  0  4  0  0  0  0  0  0
  -31.3390  -21.9560   21.0990 N   0  0  0  0  0  0  0  0  0  0  0  0
  -33.2870  -20.4250   23.1580 H   0  0  0  0  0  0  0  0  0  0  0  0
  -33.2960  -22.1010   22.7330 H   0  0  0  0  0  0  0  0  0  0  0  0
  -30.6330  -21.7000   20.4180 H   0  0  0  0  0  0  0  0  0  0  0  0
  -32.3970  -18.5230   21.8870 C   0  0  0  0  0  3  0  0  0  0  0  0
  -32.0820  -17.1640   21.7310 C   0  0  0  0  0  3  0  0  0  0  0  0
  -31.4610  -19.5320   21.5780 C   0  0  0  0  0  0  0  0  0  0  0  0
  -30.1620  -19.1500   21.1260 C   0  0  0  0  0  0  0  0  0  0  0  0
  -29.8610  -17.7670   20.9200 C   0  0  0  0  0  0  0  0  0  0  0  0
  -30.8270  -16.7640   21.2170 C   0  0  0  0  0  0  0  0  0  0  0  0
  -29.0770  -20.2050   20.8830 C   0  0  0  0  0  1  0  0  0  0  0  0
  -28.4890  -17.3700   20.3760 C   0  0  0  0  0  1  0  0  0  0  0  0
  -30.9760  -14.5130   20.1340 C   0  0  0  0  0  0  0  0  0  0  0  0
  -30.5910  -12.3890   18.9370 C   0  0  0  0  0  2  0  0  0  0  0  0
  -29.6040  -12.5970   17.7720 C   0  0  0  0  0  2  0  0  0  0  0  0
  -28.1520  -12.4430   18.2610 C   0  0  0  0  0  2  0  0  0  0  0  0
  -27.8610  -13.2810   19.5340 C   0  0  0  0  0  3  0  0  0  0  0  0
  -28.9560  -13.0610   20.6020 C   0  0  0  0  0  2  0  0  0  0  0  0
  -30.2680  -13.3590   19.9950 N   0  0  0  0  0  0  0  0  0  0  0  0
  -31.9880  -14.7480   19.4660 O   0  0  0  0  0  0  0  0  0  0  0  0
  -30.4940  -15.3830   21.0390 N   0  0  0  0  0  0  0  0  0  0  0  0
  -29.6650  -15.0680   21.5150 H   0  0  0  0  0  0  0  0  0  0  0  0
  -25.4890  -13.8750   20.3430 C   0  0  0  0  0  0  0  0  0  0  0  0
  -24.4380  -13.0960   20.7490 C   0  0  0  0  0  0  0  0  0  0  0  0
  -24.8990  -11.7450   20.6790 C   0  0  0  0  0  0  0  0  0  0  0  0
  -26.5260  -12.9990   20.0600 N   0  0  0  0  0  0  0  0  0  0  0  0
  -26.1760  -11.7120   20.3160 N   0  0  0  0  0  0  0  0  0  0  0  0
  -24.1830  -10.4790   20.8820 C   0  0  0  0  0  0  0  0  0  0  0  0
  -24.6210   -9.5260   21.8270 C   0  0  0  0  0  3  0  0  0  0  0  0
  -23.9060   -8.3240   22.0180 C   0  0  0  0  0  3  0  0  0  0  0  0
  -22.7380   -8.0660   21.2620 C   0  0  0  0  0  0  0  0  0  0  0  0
  -22.3180   -9.0090   20.3060 C   0  0  0  0  0  3  0  0  0  0  0  0
  -23.0340  -10.2020   20.1150 C   0  0  0  0  0  3  0  0  0  0  0  0
  -21.9930   -6.9160   21.3610 O   0  0  0  0  0  0  0  0  0  0  0  0
  -21.8900   -6.2250   22.5420 C   0  0  0  0  0  0  0  0  0  0  0  0
  -21.3960   -6.8310   23.7190 C   0  0  0  0  0  3  0  0  0  0  0  0
  -21.2400   -6.0660   24.8920 C   0  0  0  0  0  3  0  0  0  0  0  0
  -21.5670   -4.6970   24.8890 C   0  0  0  0  0  0  0  0  0  0  0  0
  -22.0520   -4.0900   23.7170 C   0  0  0  0  0  3  0  0  0  0  0  0
  -22.2100   -4.8520   22.5450 C   0  0  0  0  0  0  0  0  0  0  0  0
  -22.6580   -4.2580   21.4130 F   0  0  0  0  0  0  0  0  0  0  0  0
  -21.4100   -3.9590   26.0130 F   0  0  0  0  0  0  0  0  0  0  0  0
  -23.0530  -13.5660   21.0880 C   0  0  0  0  0  0  0  0  0  0  0  0
  -22.3770  -12.8770   21.9990 N   0  0  0  0  0  0  0  0  0  0  0  0
  -22.5820  -14.5830   20.5810 O   0  0  0  0  0  0  0  0  0  0  0  0
  -22.7710  -12.0540   22.4310 H   0  0  0  0  0  0  0  0  0  0  0  0
  -21.4490  -13.1740   22.2690 H   0  0  0  0  0  0  0  0  0  0  0  0
  -25.6440  -15.2460   20.1720 N   0  0  0  0  0  0  0  0  0  0  0  0
  -24.8720  -15.8920   20.2990 H   0  0  0  0  0  0  0  0  0  0  0  0
  -26.4630  -15.6830   19.7700 H   0  0  0  0  0  0  0  0  0  0  0  0
  -31.7480  -23.3770   21.1280 C   0  0  0  0  0  2  0  0  0  0  0  0
  -30.5480  -24.3040   21.2560 C   0  0  0  0  0  3  0  0  0  0  0  0
  -30.4520  -25.5060   20.6510 C   0  0  0  0  0  3  0  0  0  0  0  0
  -29.3110  -26.4940   20.8330 C   0  0  0  0  0  2  0  0  0  0  0  0
  -28.7480  -26.8810   19.5800 O   0  0  0  0  0  0  0  0  0  0  0  0
  -24.7530  -31.6320   23.0920 C   0  0  0  0  0  0  0  0  0  0  0  0
  -27.5660  -27.5800   19.6780 C   0  0  0  0  0  0  0  0  0  0  0  0
  -23.5880  -30.2990   21.3610 C   0  0  0  0  0  3  0  0  0  0  0  0
  -25.0970  -28.9410   19.8150 C   0  0  0  0  0  0  0  0  0  0  0  0
  -26.0840  -30.8030   21.1570 C   0  0  0  0  0  2  0  0  0  0  0  0
  -26.2300  -29.4830   20.4330 C   0  0  0  0  0  0  0  0  0  0  0  0
  -27.4690  -28.8060   20.3720 C   0  0  0  0  0  3  0  0  0  0  0  0
  -26.4220  -27.0540   19.0440 C   0  0  0  0  0  3  0  0  0  0  0  0
  -25.1840  -27.7210   19.1190 C   0  0  0  0  0  3  0  0  0  0  0  0
  -23.8120  -29.7300   19.9320 C   0  0  0  0  0  2  0  0  0  0  0  0
  -24.8260  -30.9230   21.9300 N   0  0  0  0  0  0  0  0  0  0  0  0
  -23.6700  -31.8090   23.6660 O   0  0  0  0  0  0  0  0  0  0  0  0
  -23.0030  -29.1810   22.2540 C   0  0  0  0  0  0  0  0  0  0  0  0
  -21.6900  -28.9320   22.1190 N   0  0  0  0  0  0  0  0  0  0  0  0
  -23.7250  -28.5410   23.0220 O   0  0  0  0  0  0  0  0  0  0  0  0
  -21.1640  -29.5010   21.4710 H   0  0  0  0  0  0  0  0  0  0  0  0
  -18.3960  -27.5130   22.5380 C   0  0  0  0  0  0  0  0  0  0  0  0
  -20.9350  -27.9010   22.8300 C   0  0  0  0  0  3  0  0  0  0  0  0
  -21.1200  -26.5190   22.1620 C   0  0  0  0  0  2  0  0  0  0  0  0
  -20.0360  -26.1980   21.1290 C   0  0  0  0  0  2  0  0  0  0  0  0
  -18.6490  -26.2220   21.7780 C   0  0  0  0  0  2  0  0  0  0  0  0
  -19.4680  -28.3080   23.0200 C   0  0  0  0  0  0  0  0  0  0  0  0
  -19.1780  -29.5180   23.6880 C   0  0  0  0  0  3  0  0  0  0  0  0
  -17.8460  -29.9300   23.8840 C   0  0  0  0  0  3  0  0  0  0  0  0
  -16.7870  -29.1320   23.4170 C   0  0  0  0  0  3  0  0  0  0  0  0
  -17.0640  -27.9240   22.7510 C   0  0  0  0  0  3  0  0  0  0  0  0
  -26.0180  -32.2780   23.7390 C   0  0  0  0  0  3  0  0  0  0  0  0
  -26.5530  -31.4790   24.9910 C   0  0  1  0  0  0  0  0  0  0  0  0
  -25.4630  -31.1780   26.0450 C   0  0  0  0  0  1  0  0  0  0  0  0
  -27.1710  -30.1310   24.5500 C   0  0  0  0  0  1  0  0  0  0  0  0
  -27.6800  -32.2820   25.6830 C   0  0  0  0  0  1  0  0  0  0  0  0
  -25.6710  -33.6570   24.1100 N   0  0  0  0  0  0  0  0  0  0  0  0
  -25.9980  -34.7400   23.3920 C   0  0  0  0  0  0  0  0  0  0  0  0
  -26.6910  -34.6850   22.3740 O   0  0  0  0  0  0  0  0  0  0  0  0
  -25.0560  -33.7710   24.9030 H   0  0  0  0  0  0  0  0  0  0  0  0
  -24.2380  -36.5030   23.0560 C   0  0  0  0  0  1  0  0  0  0  0  0
  -25.4710  -36.1010   23.8830 C   0  0  0  0  0  3  0  0  0  0  0  0
  -27.5630  -37.0060   24.7930 C   0  0  0  0  0  1  0  0  0  0  0  0
  -26.4820  -37.1790   23.8280 N   0  0  0  0  0  0  0  0  0  0  0  0
  -26.0510  -38.0850   23.9930 H   0  0  0  0  0  0  0  0  0  0  0  0
  1  2  2  0
  2  5  1  0
  2  4  1  0
  3 53  1  0
  3  1  1  0
  6  3  1  0
  8  7  1  0
  9  1  1  0
  9  7  2  0
 10  9  1  0
 11 10  2  0
 11 12  1  0
 12  8  2  0
 13 10  1  0
 14 11  1  0
 15 23  1  0
 16 21  1  0
 17 18  1  0
 17 16  1  0
 19 18  1  0
 19 28  1  0
 19 20  1  0
 21 15  1  0
 21 20  1  0
 22 15  2  0
 23 12  1  0
 23 24  1  0
 25 26  2  0
 26 45  1  0
 27 26  1  0
 27 30  1  0
 28 29  1  0
 28 25  1  0
 29 27  2  0
 30 31  1  0
 31 32  2  0
 33 36  1  0
 33 32  1  0
 34 33  2  0
 35 34  1  0
 35 30  2  0
 36 37  1  0
 37 42  2  0
 37 38  1  0
 38 39  2  0
 40 39  1  0
 40 44  1  0
 41 40  2  0
 42 41  1  0
 43 42  1  0
 45 46  1  0
 46 49  1  0
 46 48  1  0
 47 45  2  0
 50 51  1  0
 50 25  1  0
 52 50  1  0
 53 54  1  0
 55 56  1  0
 55 54  2  0
 57 59  1  0
 57 56  1  0
 58 69  2  0
 59 64  1  0
 60 68  1  0
 60 70  1  0
 61 67  1  0
 61 63  1  0
 62 68  1  0
 63 62  1  0
 64 63  2  0
 65 66  1  0
 65 59  2  0
 66 61  2  0
 67 60  1  0
 68 58  1  0
 70 72  2  0
 71 70  1  0
 73 71  1  0
 74 83  2  0
 74 79  1  0
 75 71  1  0
 75 79  1  0
 76 75  1  0
 77 78  1  0
 77 76  1  0
 78 74  1  0
 79 80  2  0
 80 81  1  0
 82 81  2  0
 83 82  1  0
 84 58  1  0
 84 89  1  0
 84 85  1  0
 85 88  1  1
 85 86  1  0
 87 85  1  0
 89 92  1  0
 90 94  1  0
 90 89  1  0
 91 90  2  0
 94 93  1  0
 96 94  1  0
 96 97  1  0
 96 95  1  0
M  ISO  4  15 100  23 100  56 101  57 101
M  END
>  <TORSDO>  (67) 
F 20

>  <SCORE>  (67) 
-11.878

>  <name>  (67) 
66

>  <ligand_id>  (67) 
66

>  <original_smiles>  (67) 
[H]C(=C([H])C([H])([H])[N+]([H])=C(c1c([H])c([H])c(N([H])C(=O)N2C([H])([H])C([H])([H])C([H])([H])C([H])(n3nc(-c4c([H])c([H])c(Oc5c([H])c([H])c(F)c([H])c5F)c([H])c4[H])c(C(=O)N([H])[H])c3N([H])[H])C2([H])[H])c(C([H])([H])[H])c1C([H])([H])[H])N([H])[H])C([H])([H])Oc1c([H])c([H])c2c(c1[H])C([H])([H])N(C(=O)C([H])(N([H])C(=O)C([H])(N([H])C([H])([H])[H])C([H])([H])[H])C(C([H])([H])[H])(C([H])([H])[H])C([H])([H])[H])C([H])(C(=O)N([H])C1([H])c3c([H])c([H])c([H])c([H])c3C([H])([H])C([H])([H])C1([H])[H])C2([H])[H]

>  <smiles>  (67) 
[H]C(=C([H])C([H])([H])[N+]([H])=C(c1c([H])c([H])c(N([H])C(=O)N2C([H])([H])C([H])([H])C([H])([H])C([H])(n3nc(-c4c([H])c([H])c(Oc5c([H])c([H])c(F)c([H])c5F)c([H])c4[H])c(C(=O)N([H])[H])c3N([H])[H])C2([H])[H])c(C([H])([H])[H])c1C([H])([H])[H])N([H])[H])C([H])([H])Oc1c([H])c([H])c2c(c1[H])C([H])([H])N(C(=O)C([H])(N([H])C(=O)C([H])(N([H])C([H])([H])[H])C([H])([H])[H])C(C([H])([H])[H])(C([H])([H])[H])C([H])([H])[H])C([H])(C(=O)N([H])C1([H])c3c([H])c([H])c([H])c([H])c3C([H])([H])C([H])([H])C1([H])[H])C2([H])[H]

$$$$
67:0:0
     RDKit          3D

 94102  0  0  1  0  0  0  0  0999 V2000
  -30.4530  -18.3490   21.6330 C   0  0  0  0  0  3  0  0  0  0  0  0
  -29.9570  -19.3270   19.0770 C   0  0  0  0  0  3  0  0  0  0  0  0
  -30.4600  -19.7590   21.3970 C   0  0  0  0  0  0  0  0  0  0  0  0
  -30.2190  -20.2890   20.0930 C   0  0  0  0  0  0  0  0  0  0  0  0
  -30.2380  -17.3920   20.6080 C   0  0  0  0  0  0  0  0  0  0  0  0
  -29.9590  -17.9190   19.3160 C   0  0  0  0  0  0  0  0  0  0  0  0
  -29.5580  -16.8700   18.0000 Cl  0  0  0  0  0  0  0  0  0  0  0  0
  -30.9860  -14.9280   20.6720 C   0  0  0  0  0  0  0  0  0  0  0  0
  -30.9180  -12.5800   19.8680 C   0  0  0  0  0  2  0  0  0  0  0  0
  -30.0540  -12.5340   18.5860 C   0  0  0  0  0  2  0  0  0  0  0  0
  -28.5610  -12.3710   18.9350 C   0  0  0  0  0  2  0  0  0  0  0  0
  -28.0940  -13.3600   20.0360 C   0  0  0  0  0  3  0  0  0  0  0  0
  -29.0750  -13.3660   21.2300 C   0  0  0  0  0  2  0  0  0  0  0  0
  -30.4140  -13.6840   20.7090 N   0  0  0  0  0  0  0  0  0  0  0  0
  -32.1520  -15.0920   20.3050 O   0  0  0  0  0  0  0  0  0  0  0  0
  -30.1550  -15.9760   20.9540 N   0  0  0  0  0  0  0  0  0  0  0  0
  -29.2900  -15.6990   21.3910 H   0  0  0  0  0  0  0  0  0  0  0  0
  -25.6780  -13.9830   20.6580 C   0  0  0  0  0  0  0  0  0  0  0  0
  -24.5880  -13.2190   20.9740 C   0  0  0  0  0  0  0  0  0  0  0  0
  -25.0330  -11.8630   20.9450 C   0  0  0  0  0  0  0  0  0  0  0  0
  -26.7210  -13.0920   20.4570 N   0  0  0  0  0  0  0  0  0  0  0  0
  -26.3350  -11.8110   20.6890 N   0  0  0  0  0  0  0  0  0  0  0  0
  -24.2850  -10.6070   21.0900 C   0  0  0  0  0  0  0  0  0  0  0  0
  -24.6590   -9.6280   22.0370 C   0  0  0  0  0  3  0  0  0  0  0  0
  -23.9140   -8.4380   22.1710 C   0  0  0  0  0  3  0  0  0  0  0  0
  -22.7780   -8.2160   21.3550 C   0  0  0  0  0  0  0  0  0  0  0  0
  -22.4230   -9.1840   20.3980 C   0  0  0  0  0  3  0  0  0  0  0  0
  -23.1690  -10.3660   20.2640 C   0  0  0  0  0  3  0  0  0  0  0  0
  -22.0100   -7.0790   21.3950 O   0  0  0  0  0  0  0  0  0  0  0  0
  -21.8960   -6.3270   22.5370 C   0  0  0  0  0  0  0  0  0  0  0  0
  -21.3620   -6.8610   23.7300 C   0  0  0  0  0  3  0  0  0  0  0  0
  -21.1980   -6.0340   24.8590 C   0  0  0  0  0  3  0  0  0  0  0  0
  -21.5580   -4.6750   24.7970 C   0  0  0  0  0  0  0  0  0  0  0  0
  -22.0830   -4.1400   23.6080 C   0  0  0  0  0  3  0  0  0  0  0  0
  -22.2500   -4.9640   22.4800 C   0  0  0  0  0  0  0  0  0  0  0  0
  -22.7370   -4.4380   21.3310 F   0  0  0  0  0  0  0  0  0  0  0  0
  -21.3930   -3.8800   25.8790 F   0  0  0  0  0  0  0  0  0  0  0  0
  -23.1860  -13.7120   21.1940 C   0  0  0  0  0  0  0  0  0  0  0  0
  -22.4130  -13.0130   22.0180 N   0  0  0  0  0  0  0  0  0  0  0  0
  -22.7830  -14.7500   20.6710 O   0  0  0  0  0  0  0  0  0  0  0  0
  -22.7500  -12.1740   22.4640 H   0  0  0  0  0  0  0  0  0  0  0  0
  -21.4710  -13.3270   22.2080 H   0  0  0  0  0  0  0  0  0  0  0  0
  -25.8670  -15.3540   20.5050 N   0  0  0  0  0  0  0  0  0  0  0  0
  -25.1020  -16.0150   20.5880 H   0  0  0  0  0  0  0  0  0  0  0  0
  -26.7310  -15.7830   20.1980 H   0  0  0  0  0  0  0  0  0  0  0  0
  -29.5680  -21.5750   22.9310 C   0  0  0  0  0  1  0  0  0  0  0  0
  -30.7530  -20.6630   22.5880 C   0  0  0  0  0  2  0  0  0  0  0  0
  -30.3990  -21.8120   19.7130 C   0  0  0  0  0  2  0  0  0  0  0  0
  -29.2340  -22.7750   19.7710 N   0  0  0  0  0  4  0  0  0  0  0  0
  -28.7180  -22.5900   20.6140 H   0  0  0  0  0  0  0  0  0  0  0  0
  -28.6280  -22.5470   18.9980 H   0  0  0  0  0  0  0  0  0  0  0  0
  -29.5810  -24.2620   19.7190 C   0  0  0  0  0  3  0  0  0  0  0  0
  -28.3720  -25.2730   19.5250 C   0  0  0  0  0  3  0  0  0  0  0  0
  -28.5700  -26.7130   19.8120 O   0  0  0  0  0  0  0  0  0  0  0  0
  -24.7310  -31.6980   23.3370 C   0  0  0  0  0  0  0  0  0  0  0  0
  -27.4320  -27.5360   19.8370 C   0  0  0  0  0  0  0  0  0  0  0  0
  -23.5600  -30.4710   21.5440 C   0  0  0  0  0  3  0  0  0  0  0  0
  -25.0430  -29.1030   19.9760 C   0  0  0  0  0  0  0  0  0  0  0  0
  -26.0960  -30.8390   21.4230 C   0  0  0  0  0  2  0  0  0  0  0  0
  -26.1990  -29.5410   20.6330 C   0  0  0  0  0  0  0  0  0  0  0  0
  -27.3970  -28.7710   20.5540 C   0  0  0  0  0  3  0  0  0  0  0  0
  -26.2470  -27.1520   19.1640 C   0  0  0  0  0  3  0  0  0  0  0  0
  -25.0680  -27.9150   19.2330 C   0  0  0  0  0  3  0  0  0  0  0  0
  -23.7940  -29.9520   20.1020 C   0  0  0  0  0  2  0  0  0  0  0  0
  -24.8140  -31.0140   22.1590 N   0  0  0  0  0  0  0  0  0  0  0  0
  -23.6400  -31.9050   23.8860 O   0  0  0  0  0  0  0  0  0  0  0  0
  -22.9000  -29.3490   22.3810 C   0  0  0  0  0  0  0  0  0  0  0  0
  -21.5810  -29.1600   22.2070 N   0  0  0  0  0  0  0  0  0  0  0  0
  -23.5750  -28.6570   23.1480 O   0  0  0  0  0  0  0  0  0  0  0  0
  -21.0950  -29.7750   21.5690 H   0  0  0  0  0  0  0  0  0  0  0  0
  -18.2150  -27.8730   22.5210 C   0  0  0  0  0  0  0  0  0  0  0  0
  -20.7650  -28.1350   22.8610 C   0  0  0  0  0  3  0  0  0  0  0  0
  -20.8970  -26.7740   22.1390 C   0  0  0  0  0  2  0  0  0  0  0  0
  -19.8160  -26.5460   21.0790 C   0  0  0  0  0  2  0  0  0  0  0  0
  -18.4220  -26.6050   21.7110 C   0  0  0  0  0  2  0  0  0  0  0  0
  -19.3160  -28.6000   23.0480 C   0  0  0  0  0  0  0  0  0  0  0  0
  -19.0690  -29.7910   23.7650 C   0  0  0  0  0  3  0  0  0  0  0  0
  -17.7540  -30.2550   23.9610 C   0  0  0  0  0  3  0  0  0  0  0  0
  -16.6690  -29.5230   23.4510 C   0  0  0  0  0  3  0  0  0  0  0  0
  -16.9000  -28.3340   22.7370 C   0  0  0  0  0  3  0  0  0  0  0  0
  -26.0010  -32.2720   24.0380 C   0  0  0  0  0  3  0  0  0  0  0  0
  -25.7120  -33.6650   24.4070 N   0  0  0  0  0  0  0  0  0  0  0  0
  -26.0630  -34.7330   23.6780 C   0  0  0  0  0  0  0  0  0  0  0  0
  -26.7320  -34.6480   22.6450 O   0  0  0  0  0  0  0  0  0  0  0  0
  -25.1200  -33.8070   25.2110 H   0  0  0  0  0  0  0  0  0  0  0  0
  -24.3490  -36.5530   23.3880 C   0  0  0  0  0  1  0  0  0  0  0  0
  -25.5960  -36.1160   24.1730 C   0  0  0  0  0  3  0  0  0  0  0  0
  -27.7430  -36.9680   25.0060 C   0  0  0  0  0  1  0  0  0  0  0  0
  -26.6380  -37.1600   24.0700 N   0  0  0  0  0  0  0  0  0  0  0  0
  -26.2420  -38.0820   24.2320 H   0  0  0  0  0  0  0  0  0  0  0  0
  -26.4400  -31.4410   25.3060 C   0  0  1  0  0  0  0  0  0  0  0  0
  -25.2960  -31.2000   26.3190 C   0  0  0  0  0  1  0  0  0  0  0  0
  -27.0000  -30.0610   24.8900 C   0  0  0  0  0  1  0  0  0  0  0  0
  -27.5820  -32.1780   26.0430 C   0  0  0  0  0  1  0  0  0  0  0  0
  2  6  2  0
  2  4  1  0
  3  1  1  0
  3 47  1  0
  4  3  2  0
  5 16  1  0
  5  1  2  0
  6  5  1  0
  7  6  1  0
  8 14  1  0
  8 16  1  0
  9 14  1  0
 10 11  1  0
 10  9  1  0
 12 11  1  0
 12 21  1  0
 12 13  1  0
 14 13  1  0
 15  8  2  0
 16 17  1  0
 18 19  2  0
 19 38  1  0
 20 19  1  0
 20 23  1  0
 21 18  1  0
 21 22  1  0
 22 20  2  0
 23 24  1  0
 24 25  2  0
 26 29  1  0
 26 25  1  0
 27 26  2  0
 28 27  1  0
 28 23  2  0
 29 30  1  0
 30 31  1  0
 31 32  2  0
 33 32  1  0
 33 37  1  0
 34 33  2  0
 35 30  2  0
 35 34  1  0
 36 35  1  0
 38 39  1  0
 39 42  1  0
 39 41  1  0
 40 38  2  0
 43 44  1  0
 43 18  1  0
 45 43  1  0
 47 46  1  0
 48 49  1  0
 48  4  1  0
 49 50  1  0
 51 49  1  0
 52 49  1  0
 53 52  2  0
 53 54  1  0
 54 56  1  0
 55 66  2  0
 56 61  1  0
 57 65  1  0
 57 67  1  0
 58 64  1  0
 58 60  1  0
 59 65  1  0
 60 59  1  0
 61 60  2  0
 62 63  1  0
 62 56  2  0
 63 58  2  0
 64 57  1  0
 65 55  1  0
 67 69  2  0
 68 67  1  0
 70 68  1  0
 71 80  2  0
 71 76  1  0
 72 68  1  0
 72 76  1  0
 73 72  1  0
 74 75  1  0
 74 73  1  0
 75 71  1  0
 76 77  2  0
 77 78  1  0
 79 78  2  0
 80 79  1  0
 81 55  1  0
 81 82  1  0
 81 91  1  0
 82 85  1  0
 83 87  1  0
 83 82  1  0
 84 83  2  0
 87 86  1  0
 89 87  1  0
 89 90  1  0
 89 88  1  0
 91 94  1  1
 91 92  1  0
 93 91  1  0
M  ISO  4   8 100  16 100  53 101  54 101
M  END
>  <TORSDO>  (68) 
F 21

>  <SCORE>  (68) 
-12.230

>  <name>  (68) 
67

>  <ligand_id>  (68) 
67

>  <original_smiles>  (68) 
[H]c1c([H])c([H])c2c(c1[H])C([H])([H])C([H])([H])C([H])([H])C2([H])N([H])C(=O)C1([H])N(C(=O)C([H])(N([H])C(=O)C([H])(N([H])C([H])([H])[H])C([H])([H])[H])C(C([H])([H])[H])(C([H])([H])[H])C([H])([H])[H])C([H])([H])c2c([H])c(OC([H])([H])C([H])([H])[N+]([H])([H])C([H])([H])c3c([H])c(Cl)c(N([H])C(=O)N4C([H])([H])C([H])([H])C([H])([H])C([H])(n5nc(-c6c([H])c([H])c(Oc7c([H])c([H])c(F)c([H])c7F)c([H])c6[H])c(C(=O)N([H])[H])c5N([H])[H])C4([H])[H])c([H])c3C([H])([H])C([H])([H])[H])c([H])c([H])c2C1([H])[H]

>  <smiles>  (68) 
[H]c1c([H])c([H])c2c(c1[H])C([H])([H])C([H])([H])C([H])([H])C2([H])N([H])C(=O)C1([H])N(C(=O)C([H])(N([H])C(=O)C([H])(N([H])C([H])([H])[H])C([H])([H])[H])C(C([H])([H])[H])(C([H])([H])[H])C([H])([H])[H])C([H])([H])c2c([H])c(OC([H])([H])C([H])([H])[N+]([H])([H])C([H])([H])c3c([H])c(Cl)c(N([H])C(=O)N4C([H])([H])C([H])([H])C([H])([H])C([H])(n5nc(-c6c([H])c([H])c(Oc7c([H])c([H])c(F)c([H])c7F)c([H])c6[H])c(C(=O)N([H])[H])c5N([H])[H])C4([H])[H])c([H])c3C([H])([H])C([H])([H])[H])c([H])c([H])c2C1([H])[H]

$$$$
68:0:0
     RDKit          3D

 95103  0  0  1  0  0  0  0  0999 V2000
  -29.3320  -21.7270   20.4020 N   0  0  0  0  0  4  0  0  0  0  0  0
  -28.6080  -21.2620   20.9210 H   0  0  0  0  0  0  0  0  0  0  0  0
  -28.9430  -21.9440   19.5000 H   0  0  0  0  0  0  0  0  0  0  0  0
  -30.4430  -20.7420   20.1610 C   0  0  0  0  0  2  0  0  0  0  0  0
  -30.1830  -18.1600   20.3510 C   0  0  0  0  0  3  0  0  0  0  0  0
  -30.6290  -16.9560   22.4170 C   0  0  0  0  0  3  0  0  0  0  0  0
  -30.4520  -19.4160   20.9860 C   0  0  0  0  0  0  0  0  0  0  0  0
  -30.8300  -19.4040   22.3610 C   0  0  0  0  0  0  0  0  0  0  0  0
  -30.2980  -16.9200   21.0520 C   0  0  0  0  0  0  0  0  0  0  0  0
  -30.8900  -18.1750   23.0690 C   0  0  0  0  0  0  0  0  0  0  0  0
  -31.1830  -20.7030   23.0790 C   0  0  0  0  0  1  0  0  0  0  0  0
  -31.2780  -18.1040   24.7530 Cl  0  0  0  0  0  0  0  0  0  0  0  0
  -30.7120  -14.6150   20.1020 C   0  0  0  0  0  0  0  0  0  0  0  0
  -30.4010  -12.4460   18.9380 C   0  0  0  0  0  2  0  0  0  0  0  0
  -29.4000  -12.6370   17.7810 C   0  0  0  0  0  2  0  0  0  0  0  0
  -27.9460  -12.4930   18.2780 C   0  0  0  0  0  2  0  0  0  0  0  0
  -27.6630  -13.3260   19.5550 C   0  0  0  0  0  3  0  0  0  0  0  0
  -28.7670  -13.0980   20.6120 C   0  0  0  0  0  2  0  0  0  0  0  0
  -30.0570  -13.4240   19.9820 N   0  0  0  0  0  0  0  0  0  0  0  0
  -31.8570  -14.7890   19.6710 O   0  0  0  0  0  0  0  0  0  0  0  0
  -29.9260  -15.6530   20.4880 N   0  0  0  0  0  0  0  0  0  0  0  0
  -28.9730  -15.3770   20.6690 H   0  0  0  0  0  0  0  0  0  0  0  0
  -25.3060  -13.9540   20.3740 C   0  0  0  0  0  0  0  0  0  0  0  0
  -24.2460  -13.1890   20.7830 C   0  0  0  0  0  0  0  0  0  0  0  0
  -24.6910  -11.8340   20.7240 C   0  0  0  0  0  0  0  0  0  0  0  0
  -26.3300  -13.0620   20.0910 N   0  0  0  0  0  0  0  0  0  0  0  0
  -25.9670  -11.7820   20.3620 N   0  0  0  0  0  0  0  0  0  0  0  0
  -23.9610  -10.5780   20.9370 C   0  0  0  0  0  0  0  0  0  0  0  0
  -24.4100   -9.6100   21.8630 C   0  0  0  0  0  3  0  0  0  0  0  0
  -23.6820   -8.4190   22.0610 C   0  0  0  0  0  3  0  0  0  0  0  0
  -22.4900   -8.1840   21.3350 C   0  0  0  0  0  0  0  0  0  0  0  0
  -22.0600   -9.1410   20.3980 C   0  0  0  0  0  3  0  0  0  0  0  0
  -22.7890  -10.3250   20.1980 C   0  0  0  0  0  3  0  0  0  0  0  0
  -21.7310   -7.0440   21.4450 O   0  0  0  0  0  0  0  0  0  0  0  0
  -21.6870   -6.3180   22.6070 C   0  0  0  0  0  0  0  0  0  0  0  0
  -21.2860   -6.8950   23.8320 C   0  0  0  0  0  3  0  0  0  0  0  0
  -21.1870   -6.0960   24.9880 C   0  0  0  0  0  3  0  0  0  0  0  0
  -21.4810   -4.7210   24.9210 C   0  0  0  0  0  0  0  0  0  0  0  0
  -21.8750   -4.1430   23.7020 C   0  0  0  0  0  3  0  0  0  0  0  0
  -21.9750   -4.9390   22.5480 C   0  0  0  0  0  0  0  0  0  0  0  0
  -22.3360   -4.3740   21.3710 F   0  0  0  0  0  0  0  0  0  0  0  0
  -21.3780   -3.9510   26.0290 F   0  0  0  0  0  0  0  0  0  0  0  0
  -22.8660  -13.6800   21.1160 C   0  0  0  0  0  0  0  0  0  0  0  0
  -22.1670  -12.9880   22.0090 N   0  0  0  0  0  0  0  0  0  0  0  0
  -22.4170  -14.7120   20.6170 O   0  0  0  0  0  0  0  0  0  0  0  0
  -22.5410  -12.1530   22.4350 H   0  0  0  0  0  0  0  0  0  0  0  0
  -21.2420  -13.3000   22.2720 H   0  0  0  0  0  0  0  0  0  0  0  0
  -25.4780  -15.3230   20.1960 N   0  0  0  0  0  0  0  0  0  0  0  0
  -24.7190  -15.9820   20.3330 H   0  0  0  0  0  0  0  0  0  0  0  0
  -26.3100  -15.7530   19.8120 H   0  0  0  0  0  0  0  0  0  0  0  0
  -29.6680  -23.0320   21.0730 C   0  0  0  0  0  2  0  0  0  0  0  0
  -30.4370  -24.7050   19.3630 C   0  0  0  0  0  2  0  0  0  0  0  0
  -29.4850  -24.3240   20.2320 C   0  0  0  0  0  0  0  0  0  0  0  0
  -28.2180  -25.1870   20.4360 C   0  0  0  0  0  2  0  0  0  0  0  0
  -28.3860  -26.6180   20.1630 O   0  0  0  0  0  0  0  0  0  0  0  0
  -24.5970  -31.8960   23.2150 C   0  0  0  0  0  0  0  0  0  0  0  0
  -27.2340  -27.4010   20.1470 C   0  0  0  0  0  0  0  0  0  0  0  0
  -23.3910  -30.4890   21.5800 C   0  0  0  0  0  3  0  0  0  0  0  0
  -24.8440  -28.9520   20.1510 C   0  0  0  0  0  0  0  0  0  0  0  0
  -25.9210  -30.8400   21.3750 C   0  0  0  0  0  2  0  0  0  0  0  0
  -26.0070  -29.4640   20.7370 C   0  0  0  0  0  0  0  0  0  0  0  0
  -27.2060  -28.7000   20.7270 C   0  0  0  0  0  3  0  0  0  0  0  0
  -26.0480  -26.9290   19.5380 C   0  0  0  0  0  3  0  0  0  0  0  0
  -24.8630  -27.6870   19.5440 C   0  0  0  0  0  3  0  0  0  0  0  0
  -23.6000  -29.8150   20.1990 C   0  0  0  0  0  2  0  0  0  0  0  0
  -24.6550  -31.0920   22.1140 N   0  0  0  0  0  0  0  0  0  0  0  0
  -23.5150  -32.1650   23.7570 O   0  0  0  0  0  0  0  0  0  0  0  0
  -22.7470  -29.4660   22.5420 C   0  0  0  0  0  0  0  0  0  0  0  0
  -21.4200  -29.2830   22.4260 N   0  0  0  0  0  0  0  0  0  0  0  0
  -23.4360  -28.8400   23.3520 O   0  0  0  0  0  0  0  0  0  0  0  0
  -20.9240  -29.8420   21.7460 H   0  0  0  0  0  0  0  0  0  0  0  0
  -18.0500  -28.0850   22.9490 C   0  0  0  0  0  0  0  0  0  0  0  0
  -20.6100  -28.3440   23.2030 C   0  0  0  0  0  3  0  0  0  0  0  0
  -20.7100  -26.9140   22.6240 C   0  0  0  0  0  2  0  0  0  0  0  0
  -19.6000  -26.5910   21.6190 C   0  0  0  0  0  2  0  0  0  0  0  0
  -18.2220  -26.7350   22.2710 C   0  0  0  0  0  2  0  0  0  0  0  0
  -19.1720  -28.8460   23.3720 C   0  0  0  0  0  0  0  0  0  0  0  0
  -18.9570  -30.1090   23.9670 C   0  0  0  0  0  3  0  0  0  0  0  0
  -17.6530  -30.6100   24.1430 C   0  0  0  0  0  3  0  0  0  0  0  0
  -16.5460  -29.8450   23.7360 C   0  0  0  0  0  3  0  0  0  0  0  0
  -16.7460  -28.5850   23.1460 C   0  0  0  0  0  3  0  0  0  0  0  0
  -25.8800  -32.5350   23.8270 C   0  0  0  0  0  3  0  0  0  0  0  0
  -25.5670  -33.9320   24.1600 N   0  0  0  0  0  0  0  0  0  0  0  0
  -25.8900  -34.9860   23.4000 C   0  0  0  0  0  0  0  0  0  0  0  0
  -26.5560  -34.8870   22.3660 O   0  0  0  0  0  0  0  0  0  0  0  0
  -24.9830  -34.0860   24.9680 H   0  0  0  0  0  0  0  0  0  0  0  0
  -24.1510  -36.7690   23.0520 C   0  0  0  0  0  1  0  0  0  0  0  0
  -25.3960  -36.3710   23.8610 C   0  0  0  0  0  3  0  0  0  0  0  0
  -27.5290  -37.2650   24.6850 C   0  0  0  0  0  1  0  0  0  0  0  0
  -26.4230  -37.4310   23.7470 N   0  0  0  0  0  0  0  0  0  0  0  0
  -26.0120  -38.3480   23.8990 H   0  0  0  0  0  0  0  0  0  0  0  0
  -26.4100  -31.7670   25.1000 C   0  0  1  0  0  0  0  0  0  0  0  0
  -25.3260  -31.5250   26.1760 C   0  0  0  0  0  1  0  0  0  0  0  0
  -26.9960  -30.3930   24.6980 C   0  0  0  0  0  1  0  0  0  0  0  0
  -27.5580  -32.5690   25.7550 C   0  0  0  0  0  1  0  0  0  0  0  0
  1  2  1  0
  1 51  1  0
  3  1  1  0
  4  1  1  0
  4  7  1  0
  5  7  2  0
  5  9  1  0
  6 10  1  0
  7  8  1  0
  8 10  2  0
  8 11  1  0
  9  6  2  0
 10 12  1  0
 13 21  1  0
 14 19  1  0
 15 16  1  0
 15 14  1  0
 17 16  1  0
 17 26  1  0
 17 18  1  0
 19 13  1  0
 19 18  1  0
 20 13  2  0
 21 22  1  0
 21  9  1  0
 23 24  2  0
 24 43  1  0
 25 24  1  0
 25 28  1  0
 26 27  1  0
 26 23  1  0
 27 25  2  0
 28 29  1  0
 29 30  2  0
 31 34  1  0
 31 30  1  0
 32 31  2  0
 33 32  1  0
 33 28  2  0
 34 35  1  0
 35 36  1  0
 36 37  2  0
 38 37  1  0
 38 42  1  0
 39 38  2  0
 40 35  2  0
 40 39  1  0
 41 40  1  0
 43 44  1  0
 44 47  1  0
 44 46  1  0
 45 43  2  0
 48 49  1  0
 48 23  1  0
 50 48  1  0
 52 53  2  0
 53 54  1  0
 53 51  1  0
 55 54  1  0
 56 67  2  0
 57 55  1  0
 57 62  1  0
 58 66  1  0
 58 68  1  0
 59 65  1  0
 59 61  1  0
 60 66  1  0
 61 60  1  0
 62 61  2  0
 63 64  1  0
 63 57  2  0
 64 59  2  0
 65 58  1  0
 66 56  1  0
 68 70  2  0
 69 68  1  0
 71 69  1  0
 72 81  2  0
 72 77  1  0
 73 69  1  0
 73 77  1  0
 74 73  1  0
 75 76  1  0
 75 74  1  0
 76 72  1  0
 77 78  2  0
 78 79  1  0
 80 79  2  0
 81 80  1  0
 82 56  1  0
 82 83  1  0
 82 92  1  0
 83 86  1  0
 84 88  1  0
 84 83  1  0
 85 84  2  0
 88 87  1  0
 90 88  1  0
 90 91  1  0
 90 89  1  0
 92 95  1  1
 92 93  1  0
 94 92  1  0
M  ISO  4  13 100  21 100  54 101  55 101
M  END
>  <TORSDO>  (69) 
F 21

>  <SCORE>  (69) 
-11.614

>  <name>  (69) 
68

>  <ligand_id>  (69) 
68

>  <original_smiles>  (69) 
[H]C([H])=C(C([H])([H])Oc1c([H])c([H])c2c(c1[H])C([H])([H])N(C(=O)C([H])(N([H])C(=O)C([H])(N([H])C([H])([H])[H])C([H])([H])[H])C(C([H])([H])[H])(C([H])([H])[H])C([H])([H])[H])C([H])(C(=O)N([H])C1([H])c3c([H])c([H])c([H])c([H])c3C([H])([H])C([H])([H])C1([H])[H])C2([H])[H])C([H])([H])[N+]([H])([H])C([H])([H])c1c([H])c(N([H])C(=O)N2C([H])([H])C([H])([H])C([H])([H])C([H])(n3nc(-c4c([H])c([H])c(Oc5c([H])c([H])c(F)c([H])c5F)c([H])c4[H])c(C(=O)N([H])[H])c3N([H])[H])C2([H])[H])c([H])c(Cl)c1C([H])([H])[H]

>  <smiles>  (69) 
[H]C([H])=C(C([H])([H])Oc1c([H])c([H])c2c(c1[H])C([H])([H])N(C(=O)C([H])(N([H])C(=O)C([H])(N([H])C([H])([H])[H])C([H])([H])[H])C(C([H])([H])[H])(C([H])([H])[H])C([H])([H])[H])C([H])(C(=O)N([H])C1([H])c3c([H])c([H])c([H])c([H])c3C([H])([H])C([H])([H])C1([H])[H])C2([H])[H])C([H])([H])[N+]([H])([H])C([H])([H])c1c([H])c(N([H])C(=O)N2C([H])([H])C([H])([H])C([H])([H])C([H])(n3nc(-c4c([H])c([H])c(Oc5c([H])c([H])c(F)c([H])c5F)c([H])c4[H])c(C(=O)N([H])[H])c3N([H])[H])C2([H])[H])c([H])c(Cl)c1C([H])([H])[H]

$$$$
69:0:0
     RDKit          3D

 95103  0  0  1  0  0  0  0  0999 V2000
  -28.5090  -20.7420   21.5640 C   0  0  0  0  0  2  0  0  0  0  0  0
  -29.7300  -20.5900   19.3200 C   0  0  0  0  0  3  0  0  0  0  0  0
  -30.6660  -20.0140   18.4510 C   0  0  0  0  0  3  0  0  0  0  0  0
  -29.4950  -20.0410   20.6010 C   0  0  0  0  0  0  0  0  0  0  0  0
  -30.1950  -18.8480   20.9750 C   0  0  0  0  0  0  0  0  0  0  0  0
  -31.1430  -18.2510   20.0830 C   0  0  0  0  0  0  0  0  0  0  0  0
  -31.3870  -18.8740   18.8300 C   0  0  0  0  0  0  0  0  0  0  0  0
  -29.9730  -18.2130   22.3460 C   0  0  0  0  0  1  0  0  0  0  0  0
  -32.5960  -18.3170   17.7290 Cl  0  0  0  0  0  0  0  0  0  0  0  0
  -31.9420  -16.9920   20.4790 C   0  0  0  0  0  2  0  0  0  0  0  0
  -31.6840  -14.6880   19.5290 C   0  0  0  0  0  0  0  0  0  0  0  0
  -31.2800  -12.3860   18.7370 C   0  0  0  0  0  2  0  0  0  0  0  0
  -30.2640  -12.3590   17.5800 C   0  0  0  0  0  2  0  0  0  0  0  0
  -28.8260  -12.2960   18.1250 C   0  0  0  0  0  2  0  0  0  0  0  0
  -28.5560  -13.3610   19.2210 C   0  0  0  0  0  3  0  0  0  0  0  0
  -29.6750  -13.3520   20.2880 C   0  0  0  0  0  2  0  0  0  0  0  0
  -30.9650  -13.5360   19.6000 N   0  0  0  0  0  0  0  0  0  0  0  0
  -32.6930  -14.7920   18.8290 O   0  0  0  0  0  0  0  0  0  0  0  0
  -31.2440  -15.7120   20.2790 N   0  0  0  0  0  0  0  0  0  0  0  0
  -30.4200  -15.5460   20.8350 H   0  0  0  0  0  0  0  0  0  0  0  0
  -26.2960  -14.1370   20.1830 C   0  0  0  0  0  0  0  0  0  0  0  0
  -25.2070  -13.4410   20.6350 C   0  0  0  0  0  0  0  0  0  0  0  0
  -25.5440  -12.0590   20.5150 C   0  0  0  0  0  0  0  0  0  0  0  0
  -27.2340  -13.1820   19.8220 N   0  0  0  0  0  0  0  0  0  0  0  0
  -26.7880  -11.9260   20.0750 N   0  0  0  0  0  0  0  0  0  0  0  0
  -24.7370  -10.8540   20.7380 C   0  0  0  0  0  0  0  0  0  0  0  0
  -25.1030   -9.8850   21.6980 C   0  0  0  0  0  3  0  0  0  0  0  0
  -24.2980   -8.7440   21.9070 C   0  0  0  0  0  3  0  0  0  0  0  0
  -23.1130   -8.5630   21.1540 C   0  0  0  0  0  0  0  0  0  0  0  0
  -22.7660   -9.5180   20.1840 C   0  0  0  0  0  3  0  0  0  0  0  0
  -23.5710  -10.6510   19.9730 C   0  0  0  0  0  3  0  0  0  0  0  0
  -22.2830   -7.4740   21.2740 O   0  0  0  0  0  0  0  0  0  0  0  0
  -22.0690   -6.8610   22.4810 C   0  0  0  0  0  0  0  0  0  0  0  0
  -21.5270   -7.5550   23.5850 C   0  0  0  0  0  3  0  0  0  0  0  0
  -21.2560   -6.8680   24.7860 C   0  0  0  0  0  3  0  0  0  0  0  0
  -21.5190   -5.4880   24.8820 C   0  0  0  0  0  0  0  0  0  0  0  0
  -22.0520   -4.7940   23.7820 C   0  0  0  0  0  3  0  0  0  0  0  0
  -22.3230   -5.4780   22.5840 C   0  0  0  0  0  0  0  0  0  0  0  0
  -22.8180   -4.8000   21.5200 F   0  0  0  0  0  0  0  0  0  0  0  0
  -21.2520   -4.8260   26.0330 F   0  0  0  0  0  0  0  0  0  0  0  0
  -23.8910  -14.0210   21.0650 C   0  0  0  0  0  0  0  0  0  0  0  0
  -23.2010  -13.3570   21.9880 N   0  0  0  0  0  0  0  0  0  0  0  0
  -23.4870  -15.0930   20.6190 O   0  0  0  0  0  0  0  0  0  0  0  0
  -23.5430  -12.4880   22.3700 H   0  0  0  0  0  0  0  0  0  0  0  0
  -22.3200  -13.7250   22.3170 H   0  0  0  0  0  0  0  0  0  0  0  0
  -26.5620  -15.4950   20.0340 N   0  0  0  0  0  0  0  0  0  0  0  0
  -25.8750  -16.2100   20.2420 H   0  0  0  0  0  0  0  0  0  0  0  0
  -27.4160  -15.8700   19.6400 H   0  0  0  0  0  0  0  0  0  0  0  0
  -27.9070  -22.0120   21.0780 N   0  0  0  0  0  4  0  0  0  0  0  0
  -27.0050  -22.0890   21.5170 H   0  0  0  0  0  0  0  0  0  0  0  0
  -27.7430  -21.9240   20.0890 H   0  0  0  0  0  0  0  0  0  0  0  0
  -28.6570  -23.2630   21.3730 C   0  0  0  0  0  2  0  0  0  0  0  0
  -28.1380  -24.4800   20.5580 C   0  0  0  0  0  2  0  0  0  0  0  0
  -28.8330  -25.8170   20.9070 C   0  0  0  0  0  2  0  0  0  0  0  0
  -28.6200  -26.8520   19.9350 O   0  0  0  0  0  0  0  0  0  0  0  0
  -24.7600  -31.7580   23.3910 C   0  0  0  0  0  0  0  0  0  0  0  0
  -27.4420  -27.5560   20.0360 C   0  0  0  0  0  0  0  0  0  0  0  0
  -23.5650  -30.4580   21.6580 C   0  0  0  0  0  3  0  0  0  0  0  0
  -25.0320  -29.0270   20.1370 C   0  0  0  0  0  0  0  0  0  0  0  0
  -26.0850  -30.8530   21.4850 C   0  0  0  0  0  2  0  0  0  0  0  0
  -26.1830  -29.5220   20.7650 C   0  0  0  0  0  0  0  0  0  0  0  0
  -27.3920  -28.7930   20.7170 C   0  0  0  0  0  3  0  0  0  0  0  0
  -26.2840  -27.0780   19.3910 C   0  0  0  0  0  3  0  0  0  0  0  0
  -25.0780  -27.8020   19.4490 C   0  0  0  0  0  3  0  0  0  0  0  0
  -23.7800  -29.8680   20.2380 C   0  0  0  0  0  2  0  0  0  0  0  0
  -24.8210  -31.0370   22.2360 N   0  0  0  0  0  0  0  0  0  0  0  0
  -23.6770  -31.9830   23.9500 O   0  0  0  0  0  0  0  0  0  0  0  0
  -22.9250  -29.3700   22.5500 C   0  0  0  0  0  0  0  0  0  0  0  0
  -21.6160  -29.1390   22.3650 N   0  0  0  0  0  0  0  0  0  0  0  0
  -23.6060  -28.7390   23.3620 O   0  0  0  0  0  0  0  0  0  0  0  0
  -21.1270  -29.7060   21.6850 H   0  0  0  0  0  0  0  0  0  0  0  0
  -18.2910  -27.7530   22.6430 C   0  0  0  0  0  0  0  0  0  0  0  0
  -20.8130  -28.1330   23.0620 C   0  0  0  0  0  3  0  0  0  0  0  0
  -21.0230  -26.7290   22.4490 C   0  0  0  0  0  2  0  0  0  0  0  0
  -19.9950  -26.3840   21.3670 C   0  0  0  0  0  2  0  0  0  0  0  0
  -18.5750  -26.4360   21.9380 C   0  0  0  0  0  2  0  0  0  0  0  0
  -19.3420  -28.5570   23.1550 C   0  0  0  0  0  0  0  0  0  0  0  0
  -19.0260  -29.7880   23.7680 C   0  0  0  0  0  3  0  0  0  0  0  0
  -17.6880  -30.2140   23.8800 C   0  0  0  0  0  3  0  0  0  0  0  0
  -16.6500  -29.4070   23.3830 C   0  0  0  0  0  3  0  0  0  0  0  0
  -16.9530  -28.1790   22.7680 C   0  0  0  0  0  3  0  0  0  0  0  0
  -26.0410  -32.3550   24.0520 C   0  0  0  0  0  3  0  0  0  0  0  0
  -25.7300  -33.7350   24.4480 N   0  0  0  0  0  0  0  0  0  0  0  0
  -26.0890  -34.8240   23.7550 C   0  0  0  0  0  0  0  0  0  0  0  0
  -26.7880  -34.7720   22.7390 O   0  0  0  0  0  0  0  0  0  0  0  0
  -25.1060  -33.8480   25.2320 H   0  0  0  0  0  0  0  0  0  0  0  0
  -24.3870  -36.6480   23.4410 C   0  0  0  0  0  1  0  0  0  0  0  0
  -25.5960  -36.1890   24.2720 C   0  0  0  0  0  3  0  0  0  0  0  0
  -27.7040  -37.0090   25.2240 C   0  0  0  0  0  1  0  0  0  0  0  0
  -26.6400  -37.2370   24.2510 N   0  0  0  0  0  0  0  0  0  0  0  0
  -26.2360  -38.1540   24.4270 H   0  0  0  0  0  0  0  0  0  0  0  0
  -26.5510  -31.5190   25.2900 C   0  0  1  0  0  0  0  0  0  0  0  0
  -25.4480  -31.2190   26.3320 C   0  0  0  0  0  1  0  0  0  0  0  0
  -27.1460  -30.1700   24.8260 C   0  0  0  0  0  1  0  0  0  0  0  0
  -27.6890  -32.2850   26.0050 C   0  0  0  0  0  1  0  0  0  0  0  0
  2  4  1  0
  3  7  1  0
  3  2  2  0
  4  5  2  0
  4  1  1  0
  5  8  1  0
  6 10  1  0
  6  5  1  0
  7  6  2  0
  9  7  1  0
 11 17  1  0
 11 19  1  0
 12 17  1  0
 13 14  1  0
 13 12  1  0
 15 14  1  0
 15 24  1  0
 15 16  1  0
 17 16  1  0
 18 11  2  0
 19 10  1  0
 19 20  1  0
 21 22  2  0
 22 41  1  0
 23 22  1  0
 23 26  1  0
 24 25  1  0
 24 21  1  0
 25 23  2  0
 26 27  1  0
 27 28  2  0
 29 32  1  0
 29 28  1  0
 30 29  2  0
 31 30  1  0
 31 26  2  0
 32 33  1  0
 33 38  2  0
 33 34  1  0
 34 35  2  0
 35 36  1  0
 36 40  1  0
 37 36  2  0
 38 37  1  0
 39 38  1  0
 41 42  1  0
 42 45  1  0
 42 44  1  0
 43 41  2  0
 46 21  1  0
 46 47  1  0
 48 46  1  0
 49 52  1  0
 49 50  1  0
 49  1  1  0
 51 49  1  0
 53 54  1  0
 53 52  1  0
 55 57  1  0
 55 54  1  0
 56 67  2  0
 57 62  1  0
 58 66  1  0
 58 68  1  0
 59 65  1  0
 59 61  1  0
 60 66  1  0
 61 60  1  0
 62 61  2  0
 63 64  1  0
 63 57  2  0
 64 59  2  0
 65 58  1  0
 66 56  1  0
 68 70  2  0
 69 68  1  0
 71 69  1  0
 72 81  2  0
 72 77  1  0
 73 69  1  0
 73 77  1  0
 74 73  1  0
 75 76  1  0
 75 74  1  0
 76 72  1  0
 77 78  2  0
 78 79  1  0
 80 79  2  0
 81 80  1  0
 82 56  1  0
 82 83  1  0
 82 92  1  0
 83 86  1  0
 84 88  1  0
 84 83  1  0
 85 84  2  0
 88 87  1  0
 90 88  1  0
 90 91  1  0
 90 89  1  0
 92 95  1  1
 92 93  1  0
 94 92  1  0
M  ISO  4  11 100  19 100  54 101  55 101
M  END
>  <TORSDO>  (70) 
F 22

>  <SCORE>  (70) 
-10.858

>  <name>  (70) 
69

>  <ligand_id>  (70) 
69

>  <original_smiles>  (70) 
[H]c1c([H])c([H])c2c(c1[H])C([H])([H])C([H])([H])C([H])([H])C2([H])N([H])C(=O)C1([H])N(C(=O)C([H])(N([H])C(=O)C([H])(N([H])C([H])([H])[H])C([H])([H])[H])C(C([H])([H])[H])(C([H])([H])[H])C([H])([H])[H])C([H])([H])c2c([H])c(OC([H])([H])C([H])([H])C([H])([H])[N+]([H])([H])C([H])([H])c3c([H])c([H])c(Cl)c(C([H])([H])N([H])C(=O)N4C([H])([H])C([H])([H])C([H])([H])C([H])(n5nc(-c6c([H])c([H])c(Oc7c([H])c([H])c(F)c([H])c7F)c([H])c6[H])c(C(=O)N([H])[H])c5N([H])[H])C4([H])[H])c3C([H])([H])[H])c([H])c([H])c2C1([H])[H]

>  <smiles>  (70) 
[H]c1c([H])c([H])c2c(c1[H])C([H])([H])C([H])([H])C([H])([H])C2([H])N([H])C(=O)C1([H])N(C(=O)C([H])(N([H])C(=O)C([H])(N([H])C([H])([H])[H])C([H])([H])[H])C(C([H])([H])[H])(C([H])([H])[H])C([H])([H])[H])C([H])([H])c2c([H])c(OC([H])([H])C([H])([H])C([H])([H])[N+]([H])([H])C([H])([H])c3c([H])c([H])c(Cl)c(C([H])([H])N([H])C(=O)N4C([H])([H])C([H])([H])C([H])([H])C([H])(n5nc(-c6c([H])c([H])c(Oc7c([H])c([H])c(F)c([H])c7F)c([H])c6[H])c(C(=O)N([H])[H])c5N([H])[H])C4([H])[H])c3C([H])([H])[H])c([H])c([H])c2C1([H])[H]

$$$$
70:0:0
     RDKit          3D

 92100  0  0  1  0  0  0  0  0999 V2000
  -30.3710  -21.6920   20.0940 C   0  0  0  0  0  2  0  0  0  0  0  0
  -31.3050  -19.2820   19.8220 C   0  0  0  0  0  3  0  0  0  0  0  0
  -31.2350  -17.8600   19.9140 C   0  0  0  0  0  3  0  0  0  0  0  0
  -28.9660  -19.4600   20.3140 C   0  0  0  0  0  3  0  0  0  0  0  0
  -30.1810  -20.1280   20.0280 C   0  0  0  0  0  0  0  0  0  0  0  0
  -28.8870  -18.0340   20.4220 C   0  0  0  0  0  0  0  0  0  0  0  0
  -30.0250  -17.1860   20.2310 C   0  0  0  0  0  0  0  0  0  0  0  0
  -27.5380  -17.4290   20.7700 C   0  0  0  0  0  1  0  0  0  0  0  0
  -30.6110  -14.6660   19.8500 C   0  0  0  0  0  0  0  0  0  0  0  0
  -30.2550  -12.4760   18.7260 C   0  0  0  0  0  2  0  0  0  0  0  0
  -29.2180  -12.6720   17.5990 C   0  0  0  0  0  2  0  0  0  0  0  0
  -27.7810  -12.5340   18.1400 C   0  0  0  0  0  2  0  0  0  0  0  0
  -27.5490  -13.3520   19.4390 C   0  0  0  0  0  3  0  0  0  0  0  0
  -28.6910  -13.1260   20.4560 C   0  0  0  0  0  2  0  0  0  0  0  0
  -29.9580  -13.4620   19.7850 N   0  0  0  0  0  0  0  0  0  0  0  0
  -31.7400  -14.8000   19.3690 O   0  0  0  0  0  0  0  0  0  0  0  0
  -29.8830  -15.7250   20.3330 N   0  0  0  0  0  0  0  0  0  0  0  0
  -29.0260  -15.4280   20.7710 H   0  0  0  0  0  0  0  0  0  0  0  0
  -25.2300  -13.9710   20.3570 C   0  0  0  0  0  0  0  0  0  0  0  0
  -24.1810  -13.2090   20.7920 C   0  0  0  0  0  0  0  0  0  0  0  0
  -24.6100  -11.8510   20.6840 C   0  0  0  0  0  0  0  0  0  0  0  0
  -26.2360  -13.0800   20.0190 N   0  0  0  0  0  0  0  0  0  0  0  0
  -25.8710  -11.7970   20.2740 N   0  0  0  0  0  0  0  0  0  0  0  0
  -23.8710  -10.5990   20.8890 C   0  0  0  0  0  0  0  0  0  0  0  0
  -24.3020   -9.6320   21.8250 C   0  0  0  0  0  3  0  0  0  0  0  0
  -23.5640   -8.4440   22.0180 C   0  0  0  0  0  3  0  0  0  0  0  0
  -22.3810   -8.2150   21.2750 C   0  0  0  0  0  0  0  0  0  0  0  0
  -21.9700   -9.1680   20.3270 C   0  0  0  0  0  3  0  0  0  0  0  0
  -22.7080  -10.3480   20.1330 C   0  0  0  0  0  3  0  0  0  0  0  0
  -21.6150   -7.0790   21.3790 O   0  0  0  0  0  0  0  0  0  0  0  0
  -21.4960   -6.3960   22.5630 C   0  0  0  0  0  0  0  0  0  0  0  0
  -21.0000   -7.0120   23.7320 C   0  0  0  0  0  3  0  0  0  0  0  0
  -20.8280   -6.2550   24.9090 C   0  0  0  0  0  3  0  0  0  0  0  0
  -21.1450   -4.8840   24.9160 C   0  0  0  0  0  0  0  0  0  0  0  0
  -21.6330   -4.2670   23.7500 C   0  0  0  0  0  3  0  0  0  0  0  0
  -21.8050   -5.0210   22.5770 C   0  0  0  0  0  0  0  0  0  0  0  0
  -22.2570   -4.4180   21.4510 F   0  0  0  0  0  0  0  0  0  0  0  0
  -20.9730   -4.1540   26.0430 F   0  0  0  0  0  0  0  0  0  0  0  0
  -22.8210  -13.7050   21.1880 C   0  0  0  0  0  0  0  0  0  0  0  0
  -22.1560  -13.0060   22.1020 N   0  0  0  0  0  0  0  0  0  0  0  0
  -22.3590  -14.7470   20.7230 O   0  0  0  0  0  0  0  0  0  0  0  0
  -22.5440  -12.1630   22.5000 H   0  0  0  0  0  0  0  0  0  0  0  0
  -21.2450  -13.3190   22.4100 H   0  0  0  0  0  0  0  0  0  0  0  0
  -25.4010  -15.3410   20.1910 N   0  0  0  0  0  0  0  0  0  0  0  0
  -24.6330  -15.9880   20.3270 H   0  0  0  0  0  0  0  0  0  0  0  0
  -26.1850  -15.7540   19.7020 H   0  0  0  0  0  0  0  0  0  0  0  0
  -29.3830  -24.0440   20.0110 C   0  0  0  0  0  0  0  0  0  0  0  0
  -29.2710  -22.6840   19.8400 N   0  0  0  0  0  0  0  0  0  0  0  0
  -30.4090  -24.5320   20.4900 O   0  0  0  0  0  0  0  0  0  0  0  0
  -28.4150  -22.3300   19.4340 H   0  0  0  0  0  0  0  0  0  0  0  0
  -28.2190  -25.0160   19.5730 C   0  0  0  0  0  2  0  0  0  0  0  0
  -28.3950  -26.4600   19.8800 O   0  0  0  0  0  0  0  0  0  0  0  0
  -24.4910  -31.6500   23.0580 C   0  0  0  0  0  0  0  0  0  0  0  0
  -27.2470  -27.2740   19.8590 C   0  0  0  0  0  0  0  0  0  0  0  0
  -23.3320  -30.2660   21.3740 C   0  0  0  0  0  3  0  0  0  0  0  0
  -24.8300  -28.8100   19.9020 C   0  0  0  0  0  0  0  0  0  0  0  0
  -25.8610  -30.6700   21.2040 C   0  0  0  0  0  2  0  0  0  0  0  0
  -25.9830  -29.3170   20.5130 C   0  0  0  0  0  0  0  0  0  0  0  0
  -27.1960  -28.5610   20.4830 C   0  0  0  0  0  3  0  0  0  0  0  0
  -26.0630  -26.8240   19.2290 C   0  0  0  0  0  3  0  0  0  0  0  0
  -24.8720  -27.5690   19.2520 C   0  0  0  0  0  3  0  0  0  0  0  0
  -23.5670  -29.6440   19.9740 C   0  0  0  0  0  2  0  0  0  0  0  0
  -24.5800  -30.8790   21.9350 N   0  0  0  0  0  0  0  0  0  0  0  0
  -23.4010  -31.8760   23.6010 O   0  0  0  0  0  0  0  0  0  0  0  0
  -22.7010  -29.1990   22.3020 C   0  0  0  0  0  0  0  0  0  0  0  0
  -21.3780  -28.9980   22.1790 N   0  0  0  0  0  0  0  0  0  0  0  0
  -23.4020  -28.5590   23.0900 O   0  0  0  0  0  0  0  0  0  0  0  0
  -20.8690  -29.5700   21.5200 H   0  0  0  0  0  0  0  0  0  0  0  0
  -18.0230  -27.7520   22.7080 C   0  0  0  0  0  0  0  0  0  0  0  0
  -20.5860  -28.0170   22.9240 C   0  0  0  0  0  3  0  0  0  0  0  0
  -20.6820  -26.6160   22.2760 C   0  0  0  0  0  2  0  0  0  0  0  0
  -19.5550  -26.3360   21.2760 C   0  0  0  0  0  2  0  0  0  0  0  0
  -18.1900  -26.4390   21.9620 C   0  0  0  0  0  2  0  0  0  0  0  0
  -19.1490  -28.5000   23.1460 C   0  0  0  0  0  0  0  0  0  0  0  0
  -18.9370  -29.7320   23.8050 C   0  0  0  0  0  3  0  0  0  0  0  0
  -17.6330  -30.2130   24.0300 C   0  0  0  0  0  3  0  0  0  0  0  0
  -16.5240  -29.4610   23.6070 C   0  0  0  0  0  3  0  0  0  0  0  0
  -16.7190  -28.2330   22.9520 C   0  0  0  0  0  3  0  0  0  0  0  0
  -25.7540  -32.3030   23.6980 C   0  0  0  0  0  3  0  0  0  0  0  0
  -26.2750  -31.5290   24.9710 C   0  0  1  0  0  0  0  0  0  0  0  0
  -25.1780  -31.2570   26.0250 C   0  0  0  0  0  1  0  0  0  0  0  0
  -26.8910  -30.1690   24.5710 C   0  0  0  0  0  1  0  0  0  0  0  0
  -27.4010  -32.3410   25.6540 C   0  0  0  0  0  1  0  0  0  0  0  0
  -25.4110  -33.6910   24.0420 N   0  0  0  0  0  0  0  0  0  0  0  0
  -25.7080  -34.7580   23.2870 C   0  0  0  0  0  0  0  0  0  0  0  0
  -26.3710  -34.6800   22.2490 O   0  0  0  0  0  0  0  0  0  0  0  0
  -24.8220  -33.8230   24.8500 H   0  0  0  0  0  0  0  0  0  0  0  0
  -23.9200  -36.4980   22.9760 C   0  0  0  0  0  1  0  0  0  0  0  0
  -25.1900  -36.1280   23.7600 C   0  0  0  0  0  3  0  0  0  0  0  0
  -27.3090  -37.0800   24.5560 C   0  0  0  0  0  1  0  0  0  0  0  0
  -26.1880  -37.2130   23.6300 N   0  0  0  0  0  0  0  0  0  0  0  0
  -25.7550  -38.1200   23.7850 H   0  0  0  0  0  0  0  0  0  0  0  0
  2  3  2  0
  2  5  1  0
  3  7  1  0
  4  6  1  0
  5  1  1  0
  5  4  2  0
  6  8  1  0
  7 17  1  0
  7  6  2  0
  9 17  1  0
 10 15  1  0
 11 12  1  0
 11 10  1  0
 13 12  1  0
 13 22  1  0
 13 14  1  0
 15  9  1  0
 15 14  1  0
 16  9  2  0
 17 18  1  0
 19 20  2  0
 20 39  1  0
 21 20  1  0
 21 24  1  0
 22 23  1  0
 22 19  1  0
 23 21  2  0
 24 25  1  0
 25 26  2  0
 27 30  1  0
 27 26  1  0
 28 27  2  0
 29 28  1  0
 29 24  2  0
 30 31  1  0
 31 36  2  0
 31 32  1  0
 32 33  2  0
 33 34  1  0
 34 38  1  0
 35 34  2  0
 36 35  1  0
 37 36  1  0
 39 40  1  0
 40 43  1  0
 40 42  1  0
 41 39  2  0
 44 45  1  0
 44 19  1  0
 46 44  1  0
 47 49  2  0
 48 47  1  0
 48  1  1  0
 50 48  1  0
 51 52  1  0
 51 47  1  0
 53 64  2  0
 54 52  1  0
 54 59  1  0
 55 63  1  0
 55 65  1  0
 56 62  1  0
 56 58  1  0
 57 63  1  0
 58 57  1  0
 59 58  2  0
 60 61  1  0
 60 54  2  0
 61 56  2  0
 62 55  1  0
 63 53  1  0
 65 67  2  0
 66 65  1  0
 68 66  1  0
 69 78  2  0
 69 74  1  0
 70 66  1  0
 70 74  1  0
 71 70  1  0
 72 73  1  0
 72 71  1  0
 73 69  1  0
 74 75  2  0
 75 76  1  0
 77 76  2  0
 78 77  1  0
 79 53  1  0
 79 84  1  0
 79 80  1  0
 80 83  1  1
 80 81  1  0
 82 80  1  0
 84 87  1  0
 85 89  1  0
 85 84  1  0
 86 85  2  0
 89 88  1  0
 91 89  1  0
 91 92  1  0
 91 90  1  0
M  ISO  4   9 100  17 100  51 101  52 101
M  END
>  <TORSDO>  (71) 
F 19

>  <SCORE>  (71) 
-13.063

>  <name>  (71) 
70

>  <ligand_id>  (71) 
70

>  <original_smiles>  (71) 
[H]c1c([H])c([H])c2c(c1[H])C([H])([H])C([H])([H])C([H])([H])C2([H])N([H])C(=O)C1([H])N(C(=O)C([H])(N([H])C(=O)C([H])(N([H])C([H])([H])[H])C([H])([H])[H])C(C([H])([H])[H])(C([H])([H])[H])C([H])([H])[H])C([H])([H])c2c([H])c(OC([H])([H])C(=O)N([H])C([H])([H])c3c([H])c([H])c(N([H])C(=O)N4C([H])([H])C([H])([H])C([H])([H])C([H])(n5nc(-c6c([H])c([H])c(Oc7c([H])c([H])c(F)c([H])c7F)c([H])c6[H])c(C(=O)N([H])[H])c5N([H])[H])C4([H])[H])c(C([H])([H])[H])c3[H])c([H])c([H])c2C1([H])[H]

>  <smiles>  (71) 
[H]c1c([H])c([H])c2c(c1[H])C([H])([H])C([H])([H])C([H])([H])C2([H])N([H])C(=O)C1([H])N(C(=O)C([H])(N([H])C(=O)C([H])(N([H])C([H])([H])[H])C([H])([H])[H])C(C([H])([H])[H])(C([H])([H])[H])C([H])([H])[H])C([H])([H])c2c([H])c(OC([H])([H])C(=O)N([H])C([H])([H])c3c([H])c([H])c(N([H])C(=O)N4C([H])([H])C([H])([H])C([H])([H])C([H])(n5nc(-c6c([H])c([H])c(Oc7c([H])c([H])c(F)c([H])c7F)c([H])c6[H])c(C(=O)N([H])[H])c5N([H])[H])C4([H])[H])c(C([H])([H])[H])c3[H])c([H])c([H])c2C1([H])[H]

$$$$
71:0:0
     RDKit          3D

 95104  0  0  1  0  0  0  0  0999 V2000
  -28.7070  -23.9790   19.5670 C   0  0  0  0  0  0  0  0  0  0  0  0
  -29.5070  -23.6880   22.3380 C   0  0  0  0  0  2  0  0  0  0  0  0
  -29.6750  -25.0460   21.6510 C   0  0  0  0  0  2  0  0  0  0  0  0
  -29.6630  -22.5180   21.3440 C   0  0  0  0  0  2  0  0  0  0  0  0
  -28.5870  -25.1900   20.5800 C   0  0  0  0  0  3  0  0  0  0  0  0
  -29.0360  -22.7050   20.0210 N   0  0  0  0  0  0  0  0  0  0  0  0
  -28.4450  -24.1940   18.3770 O   0  0  0  0  0  0  0  0  0  0  0  0
  -28.6620  -26.5500   20.0130 O   0  0  0  0  0  0  0  0  0  0  0  0
  -24.5850  -31.6580   23.0620 C   0  0  0  0  0  0  0  0  0  0  0  0
  -27.4910  -27.3070   20.0130 C   0  0  0  0  0  0  0  0  0  0  0  0
  -23.4830  -30.2240   21.3810 C   0  0  0  0  0  3  0  0  0  0  0  0
  -25.0370  -28.7550   19.9810 C   0  0  0  0  0  0  0  0  0  0  0  0
  -26.0060  -30.6770   21.2510 C   0  0  0  0  0  2  0  0  0  0  0  0
  -26.1670  -29.3140   20.5980 C   0  0  0  0  0  0  0  0  0  0  0  0
  -27.3970  -28.6010   20.6020 C   0  0  0  0  0  3  0  0  0  0  0  0
  -26.3430  -26.7830   19.3860 C   0  0  0  0  0  3  0  0  0  0  0  0
  -25.1250  -27.4910   19.3720 C   0  0  0  0  0  3  0  0  0  0  0  0
  -23.7590  -29.5610   20.0030 C   0  0  0  0  0  2  0  0  0  0  0  0
  -24.7080  -30.8710   21.9550 N   0  0  0  0  0  0  0  0  0  0  0  0
  -23.4810  -31.8740   23.5840 O   0  0  0  0  0  0  0  0  0  0  0  0
  -22.8490  -29.1710   22.3220 C   0  0  0  0  0  0  0  0  0  0  0  0
  -21.5240  -28.9750   22.2060 N   0  0  0  0  0  0  0  0  0  0  0  0
  -23.5480  -28.5320   23.1110 O   0  0  0  0  0  0  0  0  0  0  0  0
  -21.0170  -29.5380   21.5390 H   0  0  0  0  0  0  0  0  0  0  0  0
  -18.1690  -27.7270   22.7310 C   0  0  0  0  0  0  0  0  0  0  0  0
  -20.7310  -27.9980   22.9560 C   0  0  0  0  0  3  0  0  0  0  0  0
  -20.8340  -26.5900   22.3240 C   0  0  0  0  0  2  0  0  0  0  0  0
  -19.7130  -26.3010   21.3220 C   0  0  0  0  0  2  0  0  0  0  0  0
  -18.3430  -26.4090   21.9970 C   0  0  0  0  0  2  0  0  0  0  0  0
  -19.2920  -28.4810   23.1680 C   0  0  0  0  0  0  0  0  0  0  0  0
  -19.0730  -29.7190   23.8110 C   0  0  0  0  0  3  0  0  0  0  0  0
  -17.7670  -30.2010   24.0230 C   0  0  0  0  0  3  0  0  0  0  0  0
  -16.6610  -29.4440   23.6020 C   0  0  0  0  0  3  0  0  0  0  0  0
  -16.8640  -28.2080   22.9620 C   0  0  0  0  0  3  0  0  0  0  0  0
  -25.8240  -32.3440   23.7180 C   0  0  0  0  0  3  0  0  0  0  0  0
  -25.4320  -33.7100   24.0940 N   0  0  0  0  0  0  0  0  0  0  0  0
  -25.7080  -34.8080   23.3750 C   0  0  0  0  0  0  0  0  0  0  0  0
  -26.3890  -34.7790   22.3460 O   0  0  0  0  0  0  0  0  0  0  0  0
  -24.8320  -33.8030   24.9000 H   0  0  0  0  0  0  0  0  0  0  0  0
  -23.8890  -36.5110   23.0670 C   0  0  0  0  0  1  0  0  0  0  0  0
  -25.1420  -36.1490   23.8810 C   0  0  0  0  0  3  0  0  0  0  0  0
  -27.2110  -37.1180   24.7760 C   0  0  0  0  0  1  0  0  0  0  0  0
  -26.1150  -37.2600   23.8190 N   0  0  0  0  0  0  0  0  0  0  0  0
  -25.6570  -38.1490   23.9960 H   0  0  0  0  0  0  0  0  0  0  0  0
  -26.3720  -31.5630   24.9740 C   0  0  1  0  0  0  0  0  0  0  0  0
  -25.2860  -31.2280   26.0210 C   0  0  0  0  0  1  0  0  0  0  0  0
  -27.0390  -30.2370   24.5400 C   0  0  0  0  0  1  0  0  0  0  0  0
  -27.4690  -32.3990   25.6740 C   0  0  0  0  0  1  0  0  0  0  0  0
  -28.9100  -21.4780   19.1270 C   0  0  0  0  0  2  0  0  0  0  0  0
  -29.5110  -19.4500   20.7410 C   0  0  0  0  0  3  0  0  0  0  0  0
  -30.0210  -17.6910   18.6380 C   0  0  0  0  0  3  0  0  0  0  0  0
  -29.8290  -18.0820   20.9990 C   0  0  0  0  0  0  0  0  0  0  0  0
  -29.4530  -20.0080   19.4340 C   0  0  0  0  0  0  0  0  0  0  0  0
  -30.0780  -17.1450   19.9460 C   0  0  0  0  0  0  0  0  0  0  0  0
  -29.7190  -19.0670   18.3870 C   0  0  0  0  0  0  0  0  0  0  0  0
  -29.8640  -17.6600   22.4610 C   0  0  0  0  0  1  0  0  0  0  0  0
  -29.5880  -19.5320   16.7300 Cl  0  0  0  0  0  0  0  0  0  0  0  0
  -30.9590  -14.6950   19.6670 C   0  0  0  0  0  0  0  0  0  0  0  0
  -30.6940  -12.4350   18.6500 C   0  0  0  0  0  2  0  0  0  0  0  0
  -29.6340  -12.5370   17.5280 C   0  0  0  0  0  2  0  0  0  0  0  0
  -28.2020  -12.4070   18.0860 C   0  0  0  0  0  2  0  0  0  0  0  0
  -27.9710  -13.2630   19.3580 C   0  0  0  0  0  3  0  0  0  0  0  0
  -29.1250  -13.1020   20.3690 C   0  0  0  0  0  2  0  0  0  0  0  0
  -30.3740  -13.4530   19.6730 N   0  0  0  0  0  0  0  0  0  0  0  0
  -32.0490  -14.8860   19.1140 O   0  0  0  0  0  0  0  0  0  0  0  0
  -30.2170  -15.7090   20.2300 N   0  0  0  0  0  0  0  0  0  0  0  0
  -29.4890  -15.3530   20.8290 H   0  0  0  0  0  0  0  0  0  0  0  0
  -25.6920  -13.8830   20.3640 C   0  0  0  0  0  0  0  0  0  0  0  0
  -24.6490  -13.1220   20.8150 C   0  0  0  0  0  0  0  0  0  0  0  0
  -25.0570  -11.7620   20.6550 C   0  0  0  0  0  0  0  0  0  0  0  0
  -26.6740  -12.9890   19.9680 N   0  0  0  0  0  0  0  0  0  0  0  0
  -26.3010  -11.7040   20.1960 N   0  0  0  0  0  0  0  0  0  0  0  0
  -24.3140  -10.5120   20.8540 C   0  0  0  0  0  0  0  0  0  0  0  0
  -24.6900   -9.5750   21.8430 C   0  0  0  0  0  3  0  0  0  0  0  0
  -23.9460   -8.3890   22.0240 C   0  0  0  0  0  3  0  0  0  0  0  0
  -22.8100   -8.1340   21.2180 C   0  0  0  0  0  0  0  0  0  0  0  0
  -22.4550   -9.0590   20.2200 C   0  0  0  0  0  3  0  0  0  0  0  0
  -23.2000  -10.2340   20.0370 C   0  0  0  0  0  3  0  0  0  0  0  0
  -22.0400   -7.0000   21.3090 O   0  0  0  0  0  0  0  0  0  0  0  0
  -21.7690   -6.4090   22.5170 C   0  0  0  0  0  0  0  0  0  0  0  0
  -21.1110   -7.1030   23.5560 C   0  0  0  0  0  3  0  0  0  0  0  0
  -20.7910   -6.4360   24.7560 C   0  0  0  0  0  3  0  0  0  0  0  0
  -21.1150   -5.0750   24.9140 C   0  0  0  0  0  0  0  0  0  0  0  0
  -21.7640   -4.3800   23.8770 C   0  0  0  0  0  3  0  0  0  0  0  0
  -22.0870   -5.0460   22.6810 C   0  0  0  0  0  0  0  0  0  0  0  0
  -22.6940   -4.3660   21.6780 F   0  0  0  0  0  0  0  0  0  0  0  0
  -20.8020   -4.4310   26.0620 F   0  0  0  0  0  0  0  0  0  0  0  0
  -23.3100  -13.6200   21.2740 C   0  0  0  0  0  0  0  0  0  0  0  0
  -22.6820  -12.9220   22.2130 N   0  0  0  0  0  0  0  0  0  0  0  0
  -22.8350  -14.6680   20.8380 O   0  0  0  0  0  0  0  0  0  0  0  0
  -23.0810  -12.0750   22.5910 H   0  0  0  0  0  0  0  0  0  0  0  0
  -21.7870  -13.2390   22.5600 H   0  0  0  0  0  0  0  0  0  0  0  0
  -25.8790  -15.2560   20.2310 N   0  0  0  0  0  0  0  0  0  0  0  0
  -25.1110  -15.9030   20.3740 H   0  0  0  0  0  0  0  0  0  0  0  0
  -26.6620  -15.6780   19.7460 H   0  0  0  0  0  0  0  0  0  0  0  0
  1  6  1  0
  1  5  1  0
  3  2  1  0
  4  2  1  0
  5  8  1  0
  5  3  1  0
  6  4  1  0
  7  1  2  0
  8 10  1  0
  9 20  2  0
 10 15  1  0
 11 19  1  0
 11 21  1  0
 12 18  1  0
 12 14  1  0
 13 19  1  0
 14 15  2  0
 14 13  1  0
 16 10  2  0
 17 16  1  0
 17 12  2  0
 18 11  1  0
 19  9  1  0
 21 23  2  0
 22 21  1  0
 24 22  1  0
 25 34  2  0
 25 30  1  0
 26 22  1  0
 26 30  1  0
 27 26  1  0
 28 29  1  0
 28 27  1  0
 29 25  1  0
 30 31  2  0
 31 32  1  0
 33 32  2  0
 34 33  1  0
 35  9  1  0
 35 36  1  0
 35 45  1  0
 36 39  1  0
 37 41  1  0
 37 36  1  0
 38 37  2  0
 41 40  1  0
 43 41  1  0
 43 44  1  0
 43 42  1  0
 45 48  1  1
 45 46  1  0
 47 45  1  0
 49 53  1  0
 49  6  1  0
 50 52  1  0
 51 54  1  0
 52 56  1  0
 53 50  2  0
 54 66  1  0
 54 52  2  0
 55 51  2  0
 55 53  1  0
 57 55  1  0
 58 64  1  0
 58 66  1  0
 59 64  1  0
 60 61  1  0
 60 59  1  0
 62 61  1  0
 62 71  1  0
 62 63  1  0
 64 63  1  0
 65 58  2  0
 66 67  1  0
 68 69  2  0
 69 88  1  0
 70 69  1  0
 70 73  1  0
 71 72  1  0
 71 68  1  0
 72 70  2  0
 73 74  1  0
 74 75  2  0
 76 79  1  0
 76 75  1  0
 77 76  2  0
 78 77  1  0
 78 73  2  0
 79 80  1  0
 80 85  2  0
 80 81  1  0
 81 82  2  0
 82 83  1  0
 83 87  1  0
 84 83  2  0
 85 84  1  0
 86 85  1  0
 88 89  1  0
 89 92  1  0
 89 91  1  0
 90 88  2  0
 93 68  1  0
 93 94  1  0
 95 93  1  0
M  ISO  4   5 101   8 101  58 100  66 100
M  END
>  <TORSDO>  (72) 
F 18

>  <SCORE>  (72) 
-12.922

>  <name>  (72) 
71

>  <ligand_id>  (72) 
71

>  <original_smiles>  (72) 
[H]c1c([H])c([H])c2c(c1[H])C([H])([H])C([H])([H])C([H])([H])C2([H])N([H])C(=O)C1([H])N(C(=O)C([H])(N([H])C(=O)C([H])(N([H])C([H])([H])[H])C([H])([H])[H])C(C([H])([H])[H])(C([H])([H])[H])C([H])([H])[H])C([H])([H])c2c([H])c(OC3([H])C(=O)N(C([H])([H])c4c([H])c(C([H])([H])[H])c(N([H])C(=O)N5C([H])([H])C([H])([H])C([H])([H])C([H])(n6nc(-c7c([H])c([H])c(Oc8c([H])c([H])c(F)c([H])c8F)c([H])c7[H])c(C(=O)N([H])[H])c6N([H])[H])C5([H])[H])c([H])c4Cl)C([H])([H])C([H])([H])C3([H])[H])c([H])c([H])c2C1([H])[H]

>  <smiles>  (72) 
[H]c1c([H])c([H])c2c(c1[H])C([H])([H])C([H])([H])C([H])([H])C2([H])N([H])C(=O)C1([H])N(C(=O)C([H])(N([H])C(=O)C([H])(N([H])C([H])([H])[H])C([H])([H])[H])C(C([H])([H])[H])(C([H])([H])[H])C([H])([H])[H])C([H])([H])c2c([H])c(OC3([H])C(=O)N(C([H])([H])c4c([H])c(C([H])([H])[H])c(N([H])C(=O)N5C([H])([H])C([H])([H])C([H])([H])C([H])(n6nc(-c7c([H])c([H])c(Oc8c([H])c([H])c(F)c([H])c8F)c([H])c7[H])c(C(=O)N([H])[H])c6N([H])[H])C5([H])[H])c([H])c4Cl)C([H])([H])C([H])([H])C3([H])[H])c([H])c([H])c2C1([H])[H]

$$$$
72:0:0
     RDKit          3D

 94102  0  0  1  0  0  0  0  0999 V2000
  -29.3110  -21.6930   20.5160 N   0  0  0  0  0  4  0  0  0  0  0  0
  -28.6160  -21.1980   21.0480 H   0  0  0  0  0  0  0  0  0  0  0  0
  -28.8930  -21.9050   19.6260 H   0  0  0  0  0  0  0  0  0  0  0  0
  -30.4470  -20.7450   20.2490 C   0  0  0  0  0  2  0  0  0  0  0  0
  -31.0400  -18.1600   23.0980 C   0  0  0  0  0  3  0  0  0  0  0  0
  -30.7810  -16.9370   22.4570 C   0  0  0  0  0  3  0  0  0  0  0  0
  -30.2290  -18.1510   20.4180 C   0  0  0  0  0  3  0  0  0  0  0  0
  -30.9160  -19.3870   22.4110 C   0  0  0  0  0  0  0  0  0  0  0  0
  -30.4960  -19.4090   21.0520 C   0  0  0  0  0  0  0  0  0  0  0  0
  -30.3920  -16.9090   21.1050 C   0  0  0  0  0  0  0  0  0  0  0  0
  -31.2650  -20.6580   23.1670 C   0  0  0  0  0  1  0  0  0  0  0  0
  -30.7980  -14.6030   20.1510 C   0  0  0  0  0  0  0  0  0  0  0  0
  -30.4840  -12.4320   18.9860 C   0  0  0  0  0  2  0  0  0  0  0  0
  -29.4870  -12.6250   17.8240 C   0  0  0  0  0  2  0  0  0  0  0  0
  -28.0310  -12.4840   18.3150 C   0  0  0  0  0  2  0  0  0  0  0  0
  -27.7460  -13.3200   19.5910 C   0  0  0  0  0  3  0  0  0  0  0  0
  -28.8450  -13.0910   20.6520 C   0  0  0  0  0  2  0  0  0  0  0  0
  -30.1380  -13.4140   20.0280 N   0  0  0  0  0  0  0  0  0  0  0  0
  -31.9410  -14.7740   19.7170 O   0  0  0  0  0  0  0  0  0  0  0  0
  -30.0160  -15.6400   20.5480 N   0  0  0  0  0  0  0  0  0  0  0  0
  -29.0650  -15.3640   20.7380 H   0  0  0  0  0  0  0  0  0  0  0  0
  -25.3870  -13.9550   20.3980 C   0  0  0  0  0  0  0  0  0  0  0  0
  -24.3240  -13.1940   20.8040 C   0  0  0  0  0  0  0  0  0  0  0  0
  -24.7650  -11.8360   20.7480 C   0  0  0  0  0  0  0  0  0  0  0  0
  -26.4100  -13.0600   20.1210 N   0  0  0  0  0  0  0  0  0  0  0  0
  -26.0430  -11.7820   20.3920 N   0  0  0  0  0  0  0  0  0  0  0  0
  -24.0300  -10.5830   20.9590 C   0  0  0  0  0  0  0  0  0  0  0  0
  -24.4790   -9.6110   21.8800 C   0  0  0  0  0  3  0  0  0  0  0  0
  -23.7460   -8.4210   22.0770 C   0  0  0  0  0  3  0  0  0  0  0  0
  -22.5520   -8.1950   21.3540 C   0  0  0  0  0  0  0  0  0  0  0  0
  -22.1220   -9.1560   20.4220 C   0  0  0  0  0  3  0  0  0  0  0  0
  -22.8550  -10.3370   20.2230 C   0  0  0  0  0  3  0  0  0  0  0  0
  -21.7890   -7.0570   21.4620 O   0  0  0  0  0  0  0  0  0  0  0  0
  -21.7500   -6.3230   22.6190 C   0  0  0  0  0  0  0  0  0  0  0  0
  -21.3640   -6.8950   23.8520 C   0  0  0  0  0  3  0  0  0  0  0  0
  -21.2720   -6.0880   25.0050 C   0  0  0  0  0  3  0  0  0  0  0  0
  -21.5560   -4.7110   24.9240 C   0  0  0  0  0  0  0  0  0  0  0  0
  -21.9350   -4.1390   23.6970 C   0  0  0  0  0  3  0  0  0  0  0  0
  -22.0290   -4.9430   22.5480 C   0  0  0  0  0  0  0  0  0  0  0  0
  -22.3740   -4.3840   21.3620 F   0  0  0  0  0  0  0  0  0  0  0  0
  -21.4600   -3.9340   26.0280 F   0  0  0  0  0  0  0  0  0  0  0  0
  -22.9430  -13.6880   21.1300 C   0  0  0  0  0  0  0  0  0  0  0  0
  -22.2410  -13.0010   22.0240 N   0  0  0  0  0  0  0  0  0  0  0  0
  -22.4980  -14.7190   20.6260 O   0  0  0  0  0  0  0  0  0  0  0  0
  -22.6120  -12.1670   22.4530 H   0  0  0  0  0  0  0  0  0  0  0  0
  -21.3170  -13.3160   22.2830 H   0  0  0  0  0  0  0  0  0  0  0  0
  -25.5630  -15.3240   20.2200 N   0  0  0  0  0  0  0  0  0  0  0  0
  -24.8060  -15.9850   20.3580 H   0  0  0  0  0  0  0  0  0  0  0  0
  -26.3980  -15.7540   19.8430 H   0  0  0  0  0  0  0  0  0  0  0  0
  -29.6170  -22.9980   21.1970 C   0  0  0  0  0  2  0  0  0  0  0  0
  -30.4210  -24.6360   19.4690 C   0  0  0  0  0  2  0  0  0  0  0  0
  -29.4640  -24.2850   20.3440 C   0  0  0  0  0  0  0  0  0  0  0  0
  -28.2190  -25.1790   20.5530 C   0  0  0  0  0  2  0  0  0  0  0  0
  -28.4010  -26.5920   20.2140 O   0  0  0  0  0  0  0  0  0  0  0  0
  -24.6290  -31.8930   23.2380 C   0  0  0  0  0  0  0  0  0  0  0  0
  -27.2550  -27.3810   20.1910 C   0  0  0  0  0  0  0  0  0  0  0  0
  -23.4220  -30.4830   21.6100 C   0  0  0  0  0  3  0  0  0  0  0  0
  -24.8700  -28.9370   20.1870 C   0  0  0  0  0  0  0  0  0  0  0  0
  -25.9520  -30.8290   21.4030 C   0  0  0  0  0  2  0  0  0  0  0  0
  -26.0350  -29.4490   20.7710 C   0  0  0  0  0  0  0  0  0  0  0  0
  -27.2310  -28.6830   20.7650 C   0  0  0  0  0  3  0  0  0  0  0  0
  -26.0710  -26.9100   19.5800 C   0  0  0  0  0  3  0  0  0  0  0  0
  -24.8870  -27.6690   19.5840 C   0  0  0  0  0  3  0  0  0  0  0  0
  -23.6290  -29.8020   20.2310 C   0  0  0  0  0  2  0  0  0  0  0  0
  -24.6860  -31.0840   22.1410 N   0  0  0  0  0  0  0  0  0  0  0  0
  -23.5490  -32.1660   23.7800 O   0  0  0  0  0  0  0  0  0  0  0  0
  -22.7740  -29.4640   22.5750 C   0  0  0  0  0  0  0  0  0  0  0  0
  -21.4500  -29.2740   22.4510 N   0  0  0  0  0  0  0  0  0  0  0  0
  -23.4600  -28.8480   23.3970 O   0  0  0  0  0  0  0  0  0  0  0  0
  -20.9560  -29.8250   21.7620 H   0  0  0  0  0  0  0  0  0  0  0  0
  -18.0840  -28.0440   22.9350 C   0  0  0  0  0  0  0  0  0  0  0  0
  -20.6360  -28.3390   23.2290 C   0  0  0  0  0  3  0  0  0  0  0  0
  -20.7630  -26.9010   22.6770 C   0  0  0  0  0  2  0  0  0  0  0  0
  -19.6750  -26.5470   21.6590 C   0  0  0  0  0  2  0  0  0  0  0  0
  -18.2840  -26.6860   22.2850 C   0  0  0  0  0  2  0  0  0  0  0  0
  -19.1890  -28.8270   23.3650 C   0  0  0  0  0  0  0  0  0  0  0  0
  -18.9480  -30.0960   23.9340 C   0  0  0  0  0  3  0  0  0  0  0  0
  -17.6360  -30.5840   24.0790 C   0  0  0  0  0  3  0  0  0  0  0  0
  -16.5450  -29.7980   23.6660 C   0  0  0  0  0  3  0  0  0  0  0  0
  -16.7710  -28.5320   23.1000 C   0  0  0  0  0  3  0  0  0  0  0  0
  -25.9150  -32.5310   23.8500 C   0  0  0  0  0  3  0  0  0  0  0  0
  -25.6020  -33.9270   24.1850 N   0  0  0  0  0  0  0  0  0  0  0  0
  -25.9230  -34.9830   23.4270 C   0  0  0  0  0  0  0  0  0  0  0  0
  -26.5860  -34.8860   22.3910 O   0  0  0  0  0  0  0  0  0  0  0  0
  -25.0190  -34.0790   24.9950 H   0  0  0  0  0  0  0  0  0  0  0  0
  -24.1810  -36.7640   23.0890 C   0  0  0  0  0  1  0  0  0  0  0  0
  -25.4300  -36.3670   23.8920 C   0  0  0  0  0  3  0  0  0  0  0  0
  -27.5670  -37.2600   24.7050 C   0  0  0  0  0  1  0  0  0  0  0  0
  -26.4550  -37.4270   23.7740 N   0  0  0  0  0  0  0  0  0  0  0  0
  -26.0430  -38.3440   23.9310 H   0  0  0  0  0  0  0  0  0  0  0  0
  -26.4480  -31.7600   25.1180 C   0  0  1  0  0  0  0  0  0  0  0  0
  -25.3670  -31.5150   26.1980 C   0  0  0  0  0  1  0  0  0  0  0  0
  -27.0320  -30.3870   24.7130 C   0  0  0  0  0  1  0  0  0  0  0  0
  -27.5990  -32.5590   25.7720 C   0  0  0  0  0  1  0  0  0  0  0  0
  1  2  1  0
  1 50  1  0
  3  1  1  0
  4  1  1  0
  4  9  1  0
  6  5  1  0
  7  9  2  0
  7 10  1  0
  8  5  2  0
  8 11  1  0
  9  8  1  0
 10  6  2  0
 12 20  1  0
 13 18  1  0
 14 15  1  0
 14 13  1  0
 16 15  1  0
 16 25  1  0
 16 17  1  0
 18 12  1  0
 18 17  1  0
 19 12  2  0
 20 21  1  0
 20 10  1  0
 22 23  2  0
 23 42  1  0
 24 23  1  0
 24 27  1  0
 25 26  1  0
 25 22  1  0
 26 24  2  0
 27 28  1  0
 28 29  2  0
 30 33  1  0
 30 29  1  0
 31 30  2  0
 32 31  1  0
 32 27  2  0
 33 34  1  0
 34 35  1  0
 35 36  2  0
 37 36  1  0
 37 41  1  0
 38 37  2  0
 39 34  2  0
 39 38  1  0
 40 39  1  0
 42 43  1  0
 43 46  1  0
 43 45  1  0
 44 42  2  0
 47 48  1  0
 47 22  1  0
 49 47  1  0
 51 52  2  0
 52 53  1  0
 52 50  1  0
 54 53  1  0
 55 66  2  0
 56 54  1  0
 56 61  1  0
 57 65  1  0
 57 67  1  0
 58 64  1  0
 58 60  1  0
 59 65  1  0
 60 59  1  0
 61 60  2  0
 62 63  1  0
 62 56  2  0
 63 58  2  0
 64 57  1  0
 65 55  1  0
 67 69  2  0
 68 67  1  0
 70 68  1  0
 71 80  2  0
 71 76  1  0
 72 68  1  0
 72 76  1  0
 73 72  1  0
 74 75  1  0
 74 73  1  0
 75 71  1  0
 76 77  2  0
 77 78  1  0
 79 78  2  0
 80 79  1  0
 81 55  1  0
 81 82  1  0
 81 91  1  0
 82 85  1  0
 83 87  1  0
 83 82  1  0
 84 83  2  0
 87 86  1  0
 89 87  1  0
 89 90  1  0
 89 88  1  0
 91 94  1  1
 91 92  1  0
 93 91  1  0
M  ISO  4  12 100  20 100  53 101  54 101
M  END
>  <TORSDO>  (73) 
F 21

>  <SCORE>  (73) 
-13.255

>  <name>  (73) 
72

>  <ligand_id>  (73) 
72

>  <original_smiles>  (73) 
[H]C([H])=C(C([H])([H])Oc1c([H])c([H])c2c(c1[H])C([H])([H])N(C(=O)C([H])(N([H])C(=O)C([H])(N([H])C([H])([H])[H])C([H])([H])[H])C(C([H])([H])[H])(C([H])([H])[H])C([H])([H])[H])C([H])(C(=O)N([H])C1([H])c3c([H])c([H])c([H])c([H])c3C([H])([H])C([H])([H])C1([H])[H])C2([H])[H])C([H])([H])[N+]([H])([H])C([H])([H])c1c([H])c(N([H])C(=O)N2C([H])([H])C([H])([H])C([H])([H])C([H])(n3nc(-c4c([H])c([H])c(Oc5c([H])c([H])c(F)c([H])c5F)c([H])c4[H])c(C(=O)N([H])[H])c3N([H])[H])C2([H])[H])c([H])c([H])c1C([H])([H])[H]

>  <smiles>  (73) 
[H]C([H])=C(C([H])([H])Oc1c([H])c([H])c2c(c1[H])C([H])([H])N(C(=O)C([H])(N([H])C(=O)C([H])(N([H])C([H])([H])[H])C([H])([H])[H])C(C([H])([H])[H])(C([H])([H])[H])C([H])([H])[H])C([H])(C(=O)N([H])C1([H])c3c([H])c([H])c([H])c([H])c3C([H])([H])C([H])([H])C1([H])[H])C2([H])[H])C([H])([H])[N+]([H])([H])C([H])([H])c1c([H])c(N([H])C(=O)N2C([H])([H])C([H])([H])C([H])([H])C([H])(n3nc(-c4c([H])c([H])c(Oc5c([H])c([H])c(F)c([H])c5F)c([H])c4[H])c(C(=O)N([H])[H])c3N([H])[H])C2([H])[H])c([H])c([H])c1C([H])([H])[H]

$$$$
73:0:0
     RDKit          3D

 92100  0  0  1  0  0  0  0  0999 V2000
  -29.9670  -21.6390   20.7270 N   0  0  0  0  0  4  0  0  0  0  0  0
  -30.8260  -22.1220   20.9280 H   0  0  0  0  0  0  0  0  0  0  0  0
  -29.5980  -21.3300   21.6120 H   0  0  0  0  0  0  0  0  0  0  0  0
  -30.3830  -20.4500   19.9100 C   0  0  0  0  0  2  0  0  0  0  0  0
  -27.6900  -17.6990   20.2560 C   0  0  0  0  0  3  0  0  0  0  0  0
  -28.3060  -18.9570   20.0890 C   0  0  0  0  0  3  0  0  0  0  0  0
  -28.4570  -16.5430   20.5010 C   0  0  0  0  0  3  0  0  0  0  0  0
  -30.4740  -17.9020   20.4440 C   0  0  0  0  0  3  0  0  0  0  0  0
  -29.7060  -19.0820   20.1860 C   0  0  0  0  0  0  0  0  0  0  0  0
  -29.8620  -16.6180   20.5780 C   0  0  0  0  0  0  0  0  0  0  0  0
  -30.9830  -14.4480   20.1050 C   0  0  0  0  0  0  0  0  0  0  0  0
  -30.5880  -12.2060   19.1190 C   0  0  0  0  0  2  0  0  0  0  0  0
  -29.6120  -12.2790   17.9300 C   0  0  0  0  0  2  0  0  0  0  0  0
  -28.1550  -12.1790   18.4180 C   0  0  0  0  0  2  0  0  0  0  0  0
  -27.8560  -13.1450   19.5970 C   0  0  0  0  0  3  0  0  0  0  0  0
  -28.9450  -13.0480   20.6900 C   0  0  0  0  0  2  0  0  0  0  0  0
  -30.2480  -13.2950   20.0560 N   0  0  0  0  0  0  0  0  0  0  0  0
  -32.0360  -14.5710   19.4760 O   0  0  0  0  0  0  0  0  0  0  0  0
  -30.6080  -15.4430   20.9400 N   0  0  0  0  0  0  0  0  0  0  0  0
  -31.4600  -15.7390   21.3930 H   0  0  0  0  0  0  0  0  0  0  0  0
  -25.5230  -13.8490   20.4170 C   0  0  0  0  0  0  0  0  0  0  0  0
  -24.4390  -13.1240   20.8330 C   0  0  0  0  0  0  0  0  0  0  0  0
  -24.8320  -11.7520   20.7600 C   0  0  0  0  0  0  0  0  0  0  0  0
  -26.5160  -12.9240   20.1350 N   0  0  0  0  0  0  0  0  0  0  0  0
  -26.1040  -11.6560   20.3940 N   0  0  0  0  0  0  0  0  0  0  0  0
  -24.0490  -10.5260   20.9630 C   0  0  0  0  0  0  0  0  0  0  0  0
  -24.4690   -9.5250   21.8660 C   0  0  0  0  0  3  0  0  0  0  0  0
  -23.6880   -8.3640   22.0600 C   0  0  0  0  0  3  0  0  0  0  0  0
  -22.4750   -8.1970   21.3500 C   0  0  0  0  0  0  0  0  0  0  0  0
  -22.0750   -9.1860   20.4350 C   0  0  0  0  0  3  0  0  0  0  0  0
  -22.8550  -10.3380   20.2390 C   0  0  0  0  0  3  0  0  0  0  0  0
  -21.6690   -7.0880   21.4520 O   0  0  0  0  0  0  0  0  0  0  0  0
  -21.6230   -6.3360   22.5990 C   0  0  0  0  0  0  0  0  0  0  0  0
  -21.2720   -6.8990   23.8450 C   0  0  0  0  0  3  0  0  0  0  0  0
  -21.1690   -6.0770   24.9840 C   0  0  0  0  0  3  0  0  0  0  0  0
  -21.4050   -4.6930   24.8790 C   0  0  0  0  0  0  0  0  0  0  0  0
  -21.7500   -4.1310   23.6370 C   0  0  0  0  0  3  0  0  0  0  0  0
  -21.8560   -4.9500   22.5000 C   0  0  0  0  0  0  0  0  0  0  0  0
  -22.1660   -4.3990   21.3020 F   0  0  0  0  0  0  0  0  0  0  0  0
  -21.2980   -3.9020   25.9710 F   0  0  0  0  0  0  0  0  0  0  0  0
  -23.0820  -13.6660   21.1780 C   0  0  0  0  0  0  0  0  0  0  0  0
  -22.3680  -13.0030   22.0800 N   0  0  0  0  0  0  0  0  0  0  0  0
  -22.6660  -14.7140   20.6850 O   0  0  0  0  0  0  0  0  0  0  0  0
  -22.7120  -12.1510   22.4970 H   0  0  0  0  0  0  0  0  0  0  0  0
  -21.4610  -13.3500   22.3580 H   0  0  0  0  0  0  0  0  0  0  0  0
  -25.7330  -15.2090   20.2320 N   0  0  0  0  0  0  0  0  0  0  0  0
  -24.9890  -15.8860   20.3570 H   0  0  0  0  0  0  0  0  0  0  0  0
  -26.5750  -15.6150   19.8460 H   0  0  0  0  0  0  0  0  0  0  0  0
  -29.0540  -22.6450   20.0850 C   0  0  0  0  0  2  0  0  0  0  0  0
  -29.2280  -24.1380   20.5650 C   0  0  0  0  0  2  0  0  0  0  0  0
  -28.1960  -25.1350   19.9360 C   0  0  0  0  0  2  0  0  0  0  0  0
  -28.3630  -26.5600   20.2240 O   0  0  0  0  0  0  0  0  0  0  0  0
  -24.6070  -31.8770   23.2090 C   0  0  0  0  0  0  0  0  0  0  0  0
  -27.2250  -27.3650   20.1520 C   0  0  0  0  0  0  0  0  0  0  0  0
  -23.3990  -30.4700   21.5760 C   0  0  0  0  0  3  0  0  0  0  0  0
  -24.8480  -28.9330   20.1470 C   0  0  0  0  0  0  0  0  0  0  0  0
  -25.9300  -30.8110   21.3810 C   0  0  0  0  0  2  0  0  0  0  0  0
  -26.0120  -29.4340   20.7420 C   0  0  0  0  0  0  0  0  0  0  0  0
  -27.2030  -28.6580   20.7440 C   0  0  0  0  0  3  0  0  0  0  0  0
  -26.0430  -26.9140   19.5180 C   0  0  0  0  0  3  0  0  0  0  0  0
  -24.8620  -27.6760   19.5270 C   0  0  0  0  0  3  0  0  0  0  0  0
  -23.6070  -29.7940   20.1960 C   0  0  0  0  0  2  0  0  0  0  0  0
  -24.6640  -31.0700   22.1120 N   0  0  0  0  0  0  0  0  0  0  0  0
  -23.5260  -32.1540   23.7480 O   0  0  0  0  0  0  0  0  0  0  0  0
  -22.7470  -29.4510   22.5410 C   0  0  0  0  0  0  0  0  0  0  0  0
  -21.4210  -29.2740   22.4220 N   0  0  0  0  0  0  0  0  0  0  0  0
  -23.4320  -28.8260   23.3540 O   0  0  0  0  0  0  0  0  0  0  0  0
  -20.9290  -29.8290   21.7360 H   0  0  0  0  0  0  0  0  0  0  0  0
  -18.0460  -28.0910   22.9430 C   0  0  0  0  0  0  0  0  0  0  0  0
  -20.6060  -28.3400   23.2000 C   0  0  0  0  0  3  0  0  0  0  0  0
  -20.7010  -26.9090   22.6240 C   0  0  0  0  0  2  0  0  0  0  0  0
  -19.5930  -26.5880   21.6180 C   0  0  0  0  0  2  0  0  0  0  0  0
  -18.2140  -26.7390   22.2690 C   0  0  0  0  0  2  0  0  0  0  0  0
  -19.1700  -28.8500   23.3660 C   0  0  0  0  0  0  0  0  0  0  0  0
  -18.9580  -30.1150   23.9560 C   0  0  0  0  0  3  0  0  0  0  0  0
  -17.6560  -30.6210   24.1280 C   0  0  0  0  0  3  0  0  0  0  0  0
  -16.5470  -29.8590   23.7220 C   0  0  0  0  0  3  0  0  0  0  0  0
  -16.7430  -28.5970   23.1350 C   0  0  0  0  0  3  0  0  0  0  0  0
  -25.8940  -32.5120   23.8230 C   0  0  0  0  0  3  0  0  0  0  0  0
  -25.5830  -33.9080   24.1600 N   0  0  0  0  0  0  0  0  0  0  0  0
  -25.9110  -34.9630   23.4030 C   0  0  0  0  0  0  0  0  0  0  0  0
  -26.5790  -34.8650   22.3700 O   0  0  0  0  0  0  0  0  0  0  0  0
  -24.9930  -34.0600   24.9640 H   0  0  0  0  0  0  0  0  0  0  0  0
  -24.1800  -36.7540   23.0540 C   0  0  0  0  0  1  0  0  0  0  0  0
  -25.4210  -36.3480   23.8650 C   0  0  0  0  0  3  0  0  0  0  0  0
  -27.5520  -37.2320   24.7050 C   0  0  0  0  0  1  0  0  0  0  0  0
  -26.4520  -37.4050   23.7600 N   0  0  0  0  0  0  0  0  0  0  0  0
  -26.0450  -38.3230   23.9120 H   0  0  0  0  0  0  0  0  0  0  0  0
  -26.4230  -31.7370   25.0920 C   0  0  1  0  0  0  0  0  0  0  0  0
  -25.3380  -31.4900   26.1650 C   0  0  0  0  0  1  0  0  0  0  0  0
  -27.0080  -30.3630   24.6890 C   0  0  0  0  0  1  0  0  0  0  0  0
  -27.5750  -32.5330   25.7500 C   0  0  0  0  0  1  0  0  0  0  0  0
  1  2  1  0
  1  3  1  0
  4  9  1  0
  4  1  1  0
  5  7  1  0
  6  9  1  0
  6  5  2  0
  7 10  2  0
  8 10  1  0
  9  8  2  0
 10 19  1  0
 11 19  1  0
 12 17  1  0
 13 14  1  0
 13 12  1  0
 15 14  1  0
 15 24  1  0
 15 16  1  0
 17 11  1  0
 17 16  1  0
 18 11  2  0
 19 20  1  0
 21 22  2  0
 22 41  1  0
 23 22  1  0
 23 26  1  0
 24 25  1  0
 24 21  1  0
 25 23  2  0
 26 27  1  0
 27 28  2  0
 29 32  1  0
 29 28  1  0
 30 29  2  0
 31 30  1  0
 31 26  2  0
 32 33  1  0
 33 34  1  0
 34 35  2  0
 36 35  1  0
 36 40  1  0
 37 36  2  0
 38 33  2  0
 38 37  1  0
 39 38  1  0
 41 42  1  0
 42 45  1  0
 42 44  1  0
 43 41  2  0
 46 47  1  0
 46 21  1  0
 48 46  1  0
 49 50  1  0
 49  1  1  0
 51 52  1  0
 51 50  1  0
 53 64  2  0
 54 52  1  0
 54 59  1  0
 55 63  1  0
 55 65  1  0
 56 62  1  0
 56 58  1  0
 57 63  1  0
 58 59  2  0
 58 57  1  0
 60 61  1  0
 60 54  2  0
 61 56  2  0
 62 55  1  0
 63 53  1  0
 65 67  2  0
 66 65  1  0
 68 66  1  0
 69 78  2  0
 69 74  1  0
 70 66  1  0
 70 74  1  0
 71 70  1  0
 72 73  1  0
 72 71  1  0
 73 69  1  0
 74 75  2  0
 75 76  1  0
 77 76  2  0
 78 77  1  0
 79 53  1  0
 79 80  1  0
 79 89  1  0
 80 83  1  0
 81 85  1  0
 81 80  1  0
 82 81  2  0
 85 84  1  0
 87 85  1  0
 87 88  1  0
 87 86  1  0
 89 92  1  1
 89 90  1  0
 91 89  1  0
M  ISO  4  11 100  19 100  51 101  52 101
M  END
>  <TORSDO>  (74) 
F 21

>  <SCORE>  (74) 
-13.527

>  <name>  (74) 
73

>  <ligand_id>  (74) 
73

>  <original_smiles>  (74) 
[H]c1c([H])c([H])c2c(c1[H])C([H])([H])C([H])([H])C([H])([H])C2([H])N([H])C(=O)C1([H])N(C(=O)C([H])(N([H])C(=O)C([H])(N([H])C([H])([H])[H])C([H])([H])[H])C(C([H])([H])[H])(C([H])([H])[H])C([H])([H])[H])C([H])([H])c2c([H])c(OC([H])([H])C([H])([H])C([H])([H])[N+]([H])([H])C([H])([H])c3c([H])c([H])c([H])c(N([H])C(=O)N4C([H])([H])C([H])([H])C([H])([H])C([H])(n5nc(-c6c([H])c([H])c(Oc7c([H])c([H])c(F)c([H])c7F)c([H])c6[H])c(C(=O)N([H])[H])c5N([H])[H])C4([H])[H])c3[H])c([H])c([H])c2C1([H])[H]

>  <smiles>  (74) 
[H]c1c([H])c([H])c2c(c1[H])C([H])([H])C([H])([H])C([H])([H])C2([H])N([H])C(=O)C1([H])N(C(=O)C([H])(N([H])C(=O)C([H])(N([H])C([H])([H])[H])C([H])([H])[H])C(C([H])([H])[H])(C([H])([H])[H])C([H])([H])[H])C([H])([H])c2c([H])c(OC([H])([H])C([H])([H])C([H])([H])[N+]([H])([H])C([H])([H])c3c([H])c([H])c([H])c(N([H])C(=O)N4C([H])([H])C([H])([H])C([H])([H])C([H])(n5nc(-c6c([H])c([H])c(Oc7c([H])c([H])c(F)c([H])c7F)c([H])c6[H])c(C(=O)N([H])[H])c5N([H])[H])C4([H])[H])c3[H])c([H])c([H])c2C1([H])[H]

$$$$
74:0:0
     RDKit          3D

 98107  0  0  1  0  0  0  0  0999 V2000
  -29.4170  -24.1570   19.5670 C   0  0  0  0  0  0  0  0  0  0  0  0
  -29.8500  -24.4940   18.3340 C   0  0  0  0  0  3  0  0  0  0  0  0
  -29.0630  -23.5510   22.4290 C   0  0  0  0  0  2  0  0  0  0  0  0
  -29.0080  -25.0140   21.9770 C   0  0  0  0  0  2  0  0  0  0  0  0
  -30.1030  -22.7770   21.6060 C   0  0  0  0  0  2  0  0  0  0  0  0
  -28.6220  -25.1500   20.4950 C   0  0  0  0  0  3  0  0  0  0  0  0
  -29.7740  -22.7610   20.1600 N   0  0  1  0  0  4  0  0  0  0  0  0
  -30.6620  -22.5250   19.7480 H   0  0  0  0  0  0  0  0  0  0  0  0
  -31.0180  -24.0410   16.2260 C   0  0  0  0  0  2  0  0  0  0  0  0
  -30.6180  -23.6400   17.4420 C   0  0  0  0  0  3  0  0  0  0  0  0
  -28.7410  -26.5930   20.1630 O   0  0  0  0  0  0  0  0  0  0  0  0
  -24.6720  -31.6970   23.2630 C   0  0  0  0  0  0  0  0  0  0  0  0
  -27.5800  -27.3780   20.1430 C   0  0  0  0  0  0  0  0  0  0  0  0
  -23.5900  -30.3260   21.5180 C   0  0  0  0  0  3  0  0  0  0  0  0
  -25.1550  -28.8880   20.0970 C   0  0  0  0  0  0  0  0  0  0  0  0
  -26.1190  -30.7460   21.4560 C   0  0  0  0  0  2  0  0  0  0  0  0
  -26.2770  -29.4000   20.7600 C   0  0  0  0  0  0  0  0  0  0  0  0
  -27.4960  -28.6570   20.7710 C   0  0  0  0  0  3  0  0  0  0  0  0
  -26.4380  -26.9180   19.4540 C   0  0  0  0  0  3  0  0  0  0  0  0
  -25.2350  -27.6520   19.4350 C   0  0  0  0  0  3  0  0  0  0  0  0
  -23.8840  -29.7110   20.1240 C   0  0  0  0  0  2  0  0  0  0  0  0
  -24.8090  -30.9380   22.1370 N   0  0  0  0  0  0  0  0  0  0  0  0
  -23.5570  -31.9140   23.7620 O   0  0  0  0  0  0  0  0  0  0  0  0
  -22.9250  -29.2490   22.4070 C   0  0  0  0  0  0  0  0  0  0  0  0
  -21.6110  -29.0390   22.2220 N   0  0  0  0  0  0  0  0  0  0  0  0
  -23.5920  -28.6060   23.2220 O   0  0  0  0  0  0  0  0  0  0  0  0
  -21.1320  -29.6100   21.5400 H   0  0  0  0  0  0  0  0  0  0  0  0
  -18.2530  -27.7320   22.5420 C   0  0  0  0  0  0  0  0  0  0  0  0
  -20.7920  -28.0440   22.9170 C   0  0  0  0  0  3  0  0  0  0  0  0
  -20.9550  -26.6450   22.2800 C   0  0  0  0  0  2  0  0  0  0  0  0
  -19.8990  -26.3420   21.2130 C   0  0  0  0  0  2  0  0  0  0  0  0
  -18.4910  -26.4210   21.8110 C   0  0  0  0  0  2  0  0  0  0  0  0
  -19.3340  -28.5020   23.0460 C   0  0  0  0  0  0  0  0  0  0  0  0
  -19.0580  -29.7300   23.6860 C   0  0  0  0  0  3  0  0  0  0  0  0
  -17.7350  -30.1880   23.8270 C   0  0  0  0  0  3  0  0  0  0  0  0
  -16.6690  -29.4140   23.3400 C   0  0  0  0  0  3  0  0  0  0  0  0
  -16.9270  -28.1880   22.7020 C   0  0  0  0  0  3  0  0  0  0  0  0
  -25.9040  -32.3460   23.9660 C   0  0  0  0  0  3  0  0  0  0  0  0
  -26.3870  -31.5440   25.2370 C   0  0  1  0  0  0  0  0  0  0  0  0
  -25.2550  -31.2300   26.2420 C   0  0  0  0  0  1  0  0  0  0  0  0
  -27.0360  -30.2030   24.8240 C   0  0  0  0  0  1  0  0  0  0  0  0
  -27.4780  -32.3500   25.9800 C   0  0  0  0  0  1  0  0  0  0  0  0
  -25.5340  -33.7210   24.3310 N   0  0  0  0  0  0  0  0  0  0  0  0
  -25.8590  -34.8110   23.6250 C   0  0  0  0  0  0  0  0  0  0  0  0
  -26.5720  -34.7660   22.6180 O   0  0  0  0  0  0  0  0  0  0  0  0
  -24.9020  -33.8260   25.1120 H   0  0  0  0  0  0  0  0  0  0  0  0
  -24.0780  -36.5520   23.2720 C   0  0  0  0  0  1  0  0  0  0  0  0
  -25.3080  -36.1650   24.1100 C   0  0  0  0  0  3  0  0  0  0  0  0
  -27.3770  -37.1010   25.0420 C   0  0  0  0  0  1  0  0  0  0  0  0
  -26.3040  -37.2570   24.0640 N   0  0  0  0  0  0  0  0  0  0  0  0
  -25.8590  -38.1570   24.2220 H   0  0  0  0  0  0  0  0  0  0  0  0
  -28.9360  -21.5660   19.7410 C   0  0  0  0  0  2  0  0  0  0  0  0
  -29.5780  -19.2260   18.7260 C   0  0  0  0  0  3  0  0  0  0  0  0
  -29.7190  -19.4630   21.1060 C   0  0  0  0  0  3  0  0  0  0  0  0
  -29.4870  -20.0870   19.8540 C   0  0  0  0  0  0  0  0  0  0  0  0
  -29.8170  -17.8180   18.8330 C   0  0  0  0  0  0  0  0  0  0  0  0
  -29.9840  -18.0650   21.2310 C   0  0  0  0  0  0  0  0  0  0  0  0
  -30.0290  -17.1920   20.1020 C   0  0  0  0  0  0  0  0  0  0  0  0
  -29.7310  -16.9960   17.5580 C   0  0  0  0  0  1  0  0  0  0  0  0
  -30.1620  -17.4970   22.6310 C   0  0  0  0  0  1  0  0  0  0  0  0
  -30.8610  -14.7060   19.8940 C   0  0  0  0  0  0  0  0  0  0  0  0
  -30.5960  -12.4180   18.9550 C   0  0  0  0  0  2  0  0  0  0  0  0
  -29.5540  -12.4960   17.8160 C   0  0  0  0  0  2  0  0  0  0  0  0
  -28.1200  -12.3620   18.3660 C   0  0  0  0  0  2  0  0  0  0  0  0
  -27.8640  -13.2750   19.5960 C   0  0  0  0  0  3  0  0  0  0  0  0
  -29.0070  -13.1460   20.6260 C   0  0  0  0  0  2  0  0  0  0  0  0
  -30.2670  -13.4710   19.9360 N   0  0  0  0  0  0  0  0  0  0  0  0
  -31.9730  -14.8620   19.3820 O   0  0  0  0  0  0  0  0  0  0  0  0
  -30.0890  -15.7440   20.3490 N   0  0  0  0  0  0  0  0  0  0  0  0
  -29.3290  -15.4090   20.9200 H   0  0  0  0  0  0  0  0  0  0  0  0
  -25.5940  -13.9300   20.6090 C   0  0  0  0  0  0  0  0  0  0  0  0
  -24.5300  -13.1810   21.0360 C   0  0  0  0  0  0  0  0  0  0  0  0
  -24.9110  -11.8160   20.8540 C   0  0  0  0  0  0  0  0  0  0  0  0
  -26.5580  -13.0210   20.1990 N   0  0  0  0  0  0  0  0  0  0  0  0
  -26.1560  -11.7400   20.4040 N   0  0  0  0  0  0  0  0  0  0  0  0
  -24.1400  -10.5780   21.0290 C   0  0  0  0  0  0  0  0  0  0  0  0
  -24.5300   -9.5900   21.9580 C   0  0  0  0  0  3  0  0  0  0  0  0
  -23.7610   -8.4180   22.1220 C   0  0  0  0  0  3  0  0  0  0  0  0
  -22.5880   -8.2250   21.3550 C   0  0  0  0  0  0  0  0  0  0  0  0
  -22.2160   -9.2020   20.4150 C   0  0  0  0  0  3  0  0  0  0  0  0
  -22.9850  -10.3660   20.2500 C   0  0  0  0  0  3  0  0  0  0  0  0
  -21.7940   -7.1050   21.4280 O   0  0  0  0  0  0  0  0  0  0  0  0
  -21.5990   -6.4370   22.6100 C   0  0  0  0  0  0  0  0  0  0  0  0
  -21.0670   -7.0790   23.7500 C   0  0  0  0  0  3  0  0  0  0  0  0
  -20.8190   -6.3380   24.9220 C   0  0  0  0  0  3  0  0  0  0  0  0
  -21.0900   -4.9560   24.9540 C   0  0  0  0  0  0  0  0  0  0  0  0
  -21.6140   -4.3160   23.8190 C   0  0  0  0  0  3  0  0  0  0  0  0
  -21.8660   -5.0540   22.6490 C   0  0  0  0  0  0  0  0  0  0  0  0
  -22.3500   -4.4270   21.5500 F   0  0  0  0  0  0  0  0  0  0  0  0
  -20.8440   -4.2430   26.0780 F   0  0  0  0  0  0  0  0  0  0  0  0
  -23.1980  -13.7020   21.4930 C   0  0  0  0  0  0  0  0  0  0  0  0
  -22.5510  -13.0010   22.4170 N   0  0  0  0  0  0  0  0  0  0  0  0
  -22.7450  -14.7620   21.0660 O   0  0  0  0  0  0  0  0  0  0  0  0
  -22.9330  -12.1420   22.7850 H   0  0  0  0  0  0  0  0  0  0  0  0
  -21.6590  -13.3280   22.7620 H   0  0  0  0  0  0  0  0  0  0  0  0
  -25.8170  -15.3010   20.5180 N   0  0  0  0  0  0  0  0  0  0  0  0
  -25.1030  -15.9810   20.7540 H   0  0  0  0  0  0  0  0  0  0  0  0
  -26.6520  -15.7240   20.1320 H   0  0  0  0  0  0  0  0  0  0  0  0
  1  7  1  0
  1  6  1  0
  2  1  2  0
  4  3  1  0
  5  3  1  0
  6 11  1  0
  6  4  1  0
  7  5  1  0
  7  8  1  6
  9 10  2  0
 10  2  1  0
 12 23  2  0
 13 11  1  0
 13 18  1  0
 14 22  1  0
 14 24  1  0
 15 21  1  0
 15 17  1  0
 16 22  1  0
 17 18  2  0
 17 16  1  0
 19 13  2  0
 20 19  1  0
 20 15  2  0
 21 14  1  0
 22 12  1  0
 24 26  2  0
 25 24  1  0
 27 25  1  0
 28 37  2  0
 28 33  1  0
 29 25  1  0
 29 33  1  0
 30 29  1  0
 31 32  1  0
 31 30  1  0
 32 28  1  0
 33 34  2  0
 34 35  1  0
 36 35  2  0
 37 36  1  0
 38 12  1  0
 38 43  1  0
 38 39  1  0
 39 42  1  1
 39 40  1  0
 41 39  1  0
 43 46  1  0
 44 48  1  0
 44 43  1  0
 45 44  2  0
 48 47  1  0
 50 48  1  0
 50 51  1  0
 50 49  1  0
 52 55  1  0
 52  7  1  0
 53 56  2  0
 53 55  1  0
 54 57  1  0
 55 54  2  0
 56 58  1  0
 57 60  1  0
 58 69  1  0
 58 57  2  0
 59 56  1  0
 61 67  1  0
 61 69  1  0
 62 67  1  0
 63 64  1  0
 63 62  1  0
 65 64  1  0
 65 74  1  0
 65 66  1  0
 67 66  1  0
 68 61  2  0
 69 70  1  0
 71 72  2  0
 72 91  1  0
 73 76  1  0
 73 72  1  0
 74 75  1  0
 74 71  1  0
 75 73  2  0
 76 77  1  0
 77 78  2  0
 79 82  1  0
 79 78  1  0
 80 79  2  0
 81 80  1  0
 81 76  2  0
 82 83  1  0
 83 88  2  0
 83 84  1  0
 84 85  2  0
 85 86  1  0
 86 90  1  0
 87 86  2  0
 88 87  1  0
 89 88  1  0
 91 92  1  0
 92 95  1  0
 92 94  1  0
 93 91  2  0
 96 71  1  0
 96 97  1  0
 98 96  1  0
M  ISO  4   6 101  11 101  61 100  69 100
M  END
>  <TORSDO>  (75) 
F 19

>  <SCORE>  (75) 
-11.956

>  <name>  (75) 
74

>  <ligand_id>  (75) 
74

>  <original_smiles>  (75) 
[H]C([H])=C([H])C([H])=C1C([H])(Oc2c([H])c([H])c3c(c2[H])C([H])([H])N(C(=O)C([H])(N([H])C(=O)C([H])(N([H])C([H])([H])[H])C([H])([H])[H])C(C([H])([H])[H])(C([H])([H])[H])C([H])([H])[H])C([H])(C(=O)N([H])C2([H])c4c([H])c([H])c([H])c([H])c4C([H])([H])C([H])([H])C2([H])[H])C3([H])[H])C([H])([H])C([H])([H])C([H])([H])[N+]1([H])C([H])([H])c1c([H])c(C([H])([H])[H])c(N([H])C(=O)N2C([H])([H])C([H])([H])C([H])([H])C([H])(n3nc(-c4c([H])c([H])c(Oc5c([H])c([H])c(F)c([H])c5F)c([H])c4[H])c(C(=O)N([H])[H])c3N([H])[H])C2([H])[H])c(C([H])([H])[H])c1[H]

>  <smiles>  (75) 
[H]C([H])=C([H])C([H])=C1C([H])(Oc2c([H])c([H])c3c(c2[H])C([H])([H])N(C(=O)C([H])(N([H])C(=O)C([H])(N([H])C([H])([H])[H])C([H])([H])[H])C(C([H])([H])[H])(C([H])([H])[H])C([H])([H])[H])C([H])(C(=O)N([H])C2([H])c4c([H])c([H])c([H])c([H])c4C([H])([H])C([H])([H])C2([H])[H])C3([H])[H])C([H])([H])C([H])([H])C([H])([H])[N+]1([H])C([H])([H])c1c([H])c(C([H])([H])[H])c(N([H])C(=O)N2C([H])([H])C([H])([H])C([H])([H])C([H])(n3nc(-c4c([H])c([H])c(Oc5c([H])c([H])c(F)c([H])c5F)c([H])c4[H])c(C(=O)N([H])[H])c3N([H])[H])C2([H])[H])c(C([H])([H])[H])c1[H]

$$$$
75:0:0
     RDKit          3D

 99108  0  0  1  0  0  0  0  0999 V2000
  -28.9780  -24.2720   19.4900 C   0  0  0  0  0  0  0  0  0  0  0  0
  -28.8140  -24.5110   18.1730 C   0  0  0  0  0  3  0  0  0  0  0  0
  -30.1240  -23.9630   22.1880 C   0  0  0  0  0  2  0  0  0  0  0  0
  -29.7120  -25.3660   21.7240 C   0  0  0  0  0  2  0  0  0  0  0  0
  -30.6700  -23.1480   21.0060 C   0  0  0  0  0  2  0  0  0  0  0  0
  -28.6800  -25.3710   20.5780 C   0  0  0  0  0  3  0  0  0  0  0  0
  -29.6320  -22.9370   19.9740 N   0  0  1  0  0  4  0  0  0  0  0  0
  -30.1710  -22.6110   19.1890 H   0  0  0  0  0  0  0  0  0  0  0  0
  -28.9500  -23.9060   15.8050 C   0  0  0  0  0  2  0  0  0  0  0  0
  -29.2160  -23.6330   17.0910 C   0  0  0  0  0  3  0  0  0  0  0  0
  -28.7020  -26.7730   20.0990 O   0  0  0  0  0  0  0  0  0  0  0  0
  -24.7770  -31.9240   23.3010 C   0  0  0  0  0  0  0  0  0  0  0  0
  -27.5430  -27.5530   20.1320 C   0  0  0  0  0  0  0  0  0  0  0  0
  -23.6390  -30.5900   21.5610 C   0  0  0  0  0  3  0  0  0  0  0  0
  -25.1510  -29.1120   20.1200 C   0  0  0  0  0  0  0  0  0  0  0  0
  -26.1750  -30.9490   21.4670 C   0  0  0  0  0  2  0  0  0  0  0  0
  -26.2940  -29.6010   20.7680 C   0  0  0  0  0  0  0  0  0  0  0  0
  -27.4950  -28.8350   20.7580 C   0  0  0  0  0  3  0  0  0  0  0  0
  -26.3790  -27.1030   19.4760 C   0  0  0  0  0  3  0  0  0  0  0  0
  -25.1950  -27.8680   19.4670 C   0  0  0  0  0  3  0  0  0  0  0  0
  -23.9030  -29.9710   20.1620 C   0  0  0  0  0  2  0  0  0  0  0  0
  -24.8810  -31.1690   22.1690 N   0  0  0  0  0  0  0  0  0  0  0  0
  -23.6750  -32.1660   23.8150 O   0  0  0  0  0  0  0  0  0  0  0  0
  -22.9590  -29.5270   22.4540 C   0  0  0  0  0  0  0  0  0  0  0  0
  -21.6390  -29.3450   22.2790 N   0  0  0  0  0  0  0  0  0  0  0  0
  -23.6180  -28.8690   23.2630 O   0  0  0  0  0  0  0  0  0  0  0  0
  -21.1670  -29.9280   21.6030 H   0  0  0  0  0  0  0  0  0  0  0  0
  -18.2590  -28.1030   22.6190 C   0  0  0  0  0  0  0  0  0  0  0  0
  -20.8060  -28.3660   22.9790 C   0  0  0  0  0  3  0  0  0  0  0  0
  -20.9360  -26.9640   22.3390 C   0  0  0  0  0  2  0  0  0  0  0  0
  -19.8680  -26.6840   21.2780 C   0  0  0  0  0  2  0  0  0  0  0  0
  -18.4670  -26.7890   21.8860 C   0  0  0  0  0  2  0  0  0  0  0  0
  -19.3590  -28.8520   23.1170 C   0  0  0  0  0  0  0  0  0  0  0  0
  -19.1110  -30.0830   23.7620 C   0  0  0  0  0  3  0  0  0  0  0  0
  -17.7980  -30.5680   23.9110 C   0  0  0  0  0  3  0  0  0  0  0  0
  -16.7130  -29.8160   23.4280 C   0  0  0  0  0  3  0  0  0  0  0  0
  -16.9440  -28.5850   22.7880 C   0  0  0  0  0  3  0  0  0  0  0  0
  -26.0340  -32.5380   23.9930 C   0  0  0  0  0  3  0  0  0  0  0  0
  -26.5120  -31.7190   25.2540 C   0  0  1  0  0  0  0  0  0  0  0  0
  -25.3850  -31.4300   26.2720 C   0  0  0  0  0  1  0  0  0  0  0  0
  -27.1190  -30.3630   24.8260 C   0  0  0  0  0  1  0  0  0  0  0  0
  -27.6330  -32.4930   25.9880 C   0  0  0  0  0  1  0  0  0  0  0  0
  -25.7020  -33.9210   24.3700 N   0  0  0  0  0  0  0  0  0  0  0  0
  -26.0380  -35.0050   23.6590 C   0  0  0  0  0  0  0  0  0  0  0  0
  -26.7260  -34.9480   22.6370 O   0  0  0  0  0  0  0  0  0  0  0  0
  -25.0920  -34.0380   25.1650 H   0  0  0  0  0  0  0  0  0  0  0  0
  -24.2900  -36.7880   23.3490 C   0  0  0  0  0  1  0  0  0  0  0  0
  -25.5270  -36.3700   24.1600 C   0  0  0  0  0  3  0  0  0  0  0  0
  -27.6380  -37.2540   25.0490 C   0  0  0  0  0  1  0  0  0  0  0  0
  -26.5470  -37.4400   24.0960 N   0  0  0  0  0  0  0  0  0  0  0  0
  -26.1270  -38.3490   24.2690 H   0  0  0  0  0  0  0  0  0  0  0  0
  -28.7450  -21.7300   20.2520 C   0  0  0  0  0  2  0  0  0  0  0  0
  -30.2090  -18.1900   21.2630 C   0  0  0  0  0  3  0  0  0  0  0  0
  -29.9120  -19.5840   21.2640 C   0  0  0  0  0  0  0  0  0  0  0  0
  -29.0410  -19.3700   19.0150 C   0  0  0  0  0  0  0  0  0  0  0  0
  -29.2950  -20.2290   20.1430 C   0  0  0  0  0  0  0  0  0  0  0  0
  -29.3830  -17.9630   19.0150 C   0  0  0  0  0  0  0  0  0  0  0  0
  -29.9460  -17.3340   20.1680 C   0  0  0  0  0  0  0  0  0  0  0  0
  -30.1920  -20.3350   22.5600 C   0  0  0  0  0  1  0  0  0  0  0  0
  -28.3080  -19.9230   17.7930 C   0  0  0  0  0  1  0  0  0  0  0  0
  -29.0550  -17.0880   17.8060 C   0  0  0  0  0  1  0  0  0  0  0  0
  -30.8430  -14.8790   19.9580 C   0  0  0  0  0  0  0  0  0  0  0  0
  -30.6650  -12.6110   18.9500 C   0  0  0  0  0  2  0  0  0  0  0  0
  -29.6430  -12.6900   17.7920 C   0  0  0  0  0  2  0  0  0  0  0  0
  -28.2040  -12.4950   18.3100 C   0  0  0  0  0  2  0  0  0  0  0  0
  -27.8960  -13.3690   19.5550 C   0  0  0  0  0  3  0  0  0  0  0  0
  -29.0210  -13.2480   20.6070 C   0  0  0  0  0  2  0  0  0  0  0  0
  -30.2850  -13.6260   19.9520 N   0  0  0  0  0  0  0  0  0  0  0  0
  -31.9660  -15.0810   19.4850 O   0  0  0  0  0  0  0  0  0  0  0  0
  -30.0210  -15.8860   20.3960 N   0  0  0  0  0  0  0  0  0  0  0  0
  -29.2310  -15.5210   20.9070 H   0  0  0  0  0  0  0  0  0  0  0  0
  -25.5650  -13.9300   20.4800 C   0  0  0  0  0  0  0  0  0  0  0  0
  -24.5260  -13.1380   20.8890 C   0  0  0  0  0  0  0  0  0  0  0  0
  -24.9790  -11.7900   20.7510 C   0  0  0  0  0  0  0  0  0  0  0  0
  -26.5850  -13.0620   20.1220 N   0  0  0  0  0  0  0  0  0  0  0  0
  -26.2420  -11.7680   20.3430 N   0  0  0  0  0  0  0  0  0  0  0  0
  -24.2650  -10.5190   20.9280 C   0  0  0  0  0  0  0  0  0  0  0  0
  -24.6850   -9.5620   21.8780 C   0  0  0  0  0  3  0  0  0  0  0  0
  -23.9710   -8.3560   22.0430 C   0  0  0  0  0  3  0  0  0  0  0  0
  -22.8220   -8.0990   21.2560 C   0  0  0  0  0  0  0  0  0  0  0  0
  -22.4210   -9.0450   20.2970 C   0  0  0  0  0  3  0  0  0  0  0  0
  -23.1360  -10.2420   20.1320 C   0  0  0  0  0  3  0  0  0  0  0  0
  -22.0810   -6.9440   21.3290 O   0  0  0  0  0  0  0  0  0  0  0  0
  -21.8870   -6.2860   22.5180 C   0  0  0  0  0  0  0  0  0  0  0  0
  -21.2650   -6.9090   23.6210 C   0  0  0  0  0  3  0  0  0  0  0  0
  -21.0230   -6.1750   24.7990 C   0  0  0  0  0  3  0  0  0  0  0  0
  -21.3940   -4.8190   24.8740 C   0  0  0  0  0  0  0  0  0  0  0  0
  -22.0090   -4.1960   23.7740 C   0  0  0  0  0  3  0  0  0  0  0  0
  -22.2520   -4.9270   22.5980 C   0  0  0  0  0  0  0  0  0  0  0  0
  -22.8270   -4.3150   21.5330 F   0  0  0  0  0  0  0  0  0  0  0  0
  -21.1540   -4.1110   26.0020 F   0  0  0  0  0  0  0  0  0  0  0  0
  -23.1550  -13.6000   21.2910 C   0  0  0  0  0  0  0  0  0  0  0  0
  -22.5070  -12.8800   22.1990 N   0  0  0  0  0  0  0  0  0  0  0  0
  -22.6710  -14.6360   20.8360 O   0  0  0  0  0  0  0  0  0  0  0  0
  -22.9120  -12.0420   22.5890 H   0  0  0  0  0  0  0  0  0  0  0  0
  -21.5900  -13.1720   22.5100 H   0  0  0  0  0  0  0  0  0  0  0  0
  -25.7210  -15.3080   20.3630 N   0  0  0  0  0  0  0  0  0  0  0  0
  -24.9650  -15.9540   20.5620 H   0  0  0  0  0  0  0  0  0  0  0  0
  -26.5390  -15.7640   19.9800 H   0  0  0  0  0  0  0  0  0  0  0  0
  1  7  1  0
  1  6  1  0
  2  1  2  0
  4  3  1  0
  5  3  1  0
  6 11  1  0
  6  4  1  0
  7 52  1  0
  7  5  1  0
  7  8  1  6
  9 10  2  0
 10  2  1  0
 11 13  1  0
 12 23  2  0
 13 18  1  0
 14 22  1  0
 14 24  1  0
 15 21  1  0
 15 17  1  0
 16 22  1  0
 17 16  1  0
 18 17  2  0
 19 13  2  0
 20 19  1  0
 20 15  2  0
 21 14  1  0
 22 12  1  0
 24 26  2  0
 25 24  1  0
 27 25  1  0
 28 37  2  0
 28 33  1  0
 29 25  1  0
 29 33  1  0
 30 29  1  0
 31 32  1  0
 31 30  1  0
 32 28  1  0
 33 34  2  0
 34 35  1  0
 36 35  2  0
 37 36  1  0
 38 12  1  0
 38 43  1  0
 38 39  1  0
 39 42  1  1
 39 40  1  0
 41 39  1  0
 43 46  1  0
 44 48  1  0
 44 43  1  0
 45 44  2  0
 48 47  1  0
 50 48  1  0
 50 51  1  0
 50 49  1  0
 53 54  1  0
 54 59  1  0
 55 56  1  0
 56 52  1  0
 56 54  2  0
 57 55  2  0
 57 58  1  0
 58 70  1  0
 58 53  2  0
 60 55  1  0
 61 57  1  0
 62 70  1  0
 63 68  1  0
 64 65  1  0
 64 63  1  0
 66 65  1  0
 66 75  1  0
 66 67  1  0
 68 62  1  0
 68 67  1  0
 69 62  2  0
 70 71  1  0
 72 73  2  0
 73 92  1  0
 74 73  1  0
 74 77  1  0
 75 76  1  0
 75 72  1  0
 76 74  2  0
 77 78  1  0
 78 79  2  0
 80 83  1  0
 80 79  1  0
 81 80  2  0
 82 81  1  0
 82 77  2  0
 83 84  1  0
 84 89  2  0
 84 85  1  0
 85 86  2  0
 86 87  1  0
 87 91  1  0
 88 87  2  0
 89 88  1  0
 90 89  1  0
 92 93  1  0
 93 96  1  0
 93 95  1  0
 94 92  2  0
 97 72  1  0
 97 98  1  0
 99 97  1  0
M  ISO  4   6 101  11 101  62 100  70 100
M  END
>  <TORSDO>  (76) 
F 19

>  <SCORE>  (76) 
-12.623

>  <name>  (76) 
75

>  <ligand_id>  (76) 
75

>  <original_smiles>  (76) 
[H]C([H])=C([H])C([H])=C1C([H])(Oc2c([H])c([H])c3c(c2[H])C([H])([H])N(C(=O)C([H])(N([H])C(=O)C([H])(N([H])C([H])([H])[H])C([H])([H])[H])C(C([H])([H])[H])(C([H])([H])[H])C([H])([H])[H])C([H])(C(=O)N([H])C2([H])c4c([H])c([H])c([H])c([H])c4C([H])([H])C([H])([H])C2([H])[H])C3([H])[H])C([H])([H])C([H])([H])C([H])([H])[N+]1([H])C([H])([H])c1c(C([H])([H])[H])c([H])c(N([H])C(=O)N2C([H])([H])C([H])([H])C([H])([H])C([H])(n3nc(-c4c([H])c([H])c(Oc5c([H])c([H])c(F)c([H])c5F)c([H])c4[H])c(C(=O)N([H])[H])c3N([H])[H])C2([H])[H])c(C([H])([H])[H])c1C([H])([H])[H]

>  <smiles>  (76) 
[H]C([H])=C([H])C([H])=C1C([H])(Oc2c([H])c([H])c3c(c2[H])C([H])([H])N(C(=O)C([H])(N([H])C(=O)C([H])(N([H])C([H])([H])[H])C([H])([H])[H])C(C([H])([H])[H])(C([H])([H])[H])C([H])([H])[H])C([H])(C(=O)N([H])C2([H])c4c([H])c([H])c([H])c([H])c4C([H])([H])C([H])([H])C2([H])[H])C3([H])[H])C([H])([H])C([H])([H])C([H])([H])[N+]1([H])C([H])([H])c1c(C([H])([H])[H])c([H])c(N([H])C(=O)N2C([H])([H])C([H])([H])C([H])([H])C([H])(n3nc(-c4c([H])c([H])c(Oc5c([H])c([H])c(F)c([H])c5F)c([H])c4[H])c(C(=O)N([H])[H])c3N([H])[H])C2([H])[H])c(C([H])([H])[H])c1C([H])([H])[H]

$$$$
76:0:0
     RDKit          3D

 91 99  0  0  1  0  0  0  0  0999 V2000
  -29.1930  -22.6840   19.7820 N   0  0  0  0  0  4  0  0  0  0  0  0
  -29.1700  -22.2240   18.8860 H   0  0  0  0  0  0  0  0  0  0  0  0
  -30.1530  -22.9540   19.9280 H   0  0  0  0  0  0  0  0  0  0  0  0
  -28.8450  -21.5970   20.7730 C   0  0  0  0  0  2  0  0  0  0  0  0
  -28.1460  -19.1150   20.5070 C   0  0  0  0  0  3  0  0  0  0  0  0
  -30.5080  -19.5150   20.3950 C   0  0  0  0  0  3  0  0  0  0  0  0
  -28.3860  -17.7130   20.4870 C   0  0  0  0  0  3  0  0  0  0  0  0
  -30.7500  -18.0950   20.3520 C   0  0  0  0  0  3  0  0  0  0  0  0
  -29.1940  -20.0710   20.4950 C   0  0  0  0  0  0  0  0  0  0  0  0
  -29.6860  -17.1480   20.4290 C   0  0  0  0  0  0  0  0  0  0  0  0
  -30.6150  -14.6950   20.0770 C   0  0  0  0  0  0  0  0  0  0  0  0
  -30.4050  -12.4760   18.9600 C   0  0  0  0  0  2  0  0  0  0  0  0
  -29.3910  -12.6250   17.8010 C   0  0  0  0  0  2  0  0  0  0  0  0
  -27.9400  -12.4540   18.2980 C   0  0  0  0  0  2  0  0  0  0  0  0
  -27.6460  -13.2760   19.5800 C   0  0  0  0  0  3  0  0  0  0  0  0
  -28.7610  -13.0680   20.6320 C   0  0  0  0  0  2  0  0  0  0  0  0
  -30.0380  -13.4510   20.0050 N   0  0  0  0  0  0  0  0  0  0  0  0
  -31.7510  -14.9070   19.6370 O   0  0  0  0  0  0  0  0  0  0  0  0
  -29.7710  -15.6840   20.5210 N   0  0  0  0  0  0  0  0  0  0  0  0
  -28.9190  -15.2680   20.8640 H   0  0  0  0  0  0  0  0  0  0  0  0
  -25.2870  -13.8660   20.4160 C   0  0  0  0  0  0  0  0  0  0  0  0
  -24.2400  -13.0880   20.8270 C   0  0  0  0  0  0  0  0  0  0  0  0
  -24.7000  -11.7370   20.7530 C   0  0  0  0  0  0  0  0  0  0  0  0
  -26.3210  -12.9890   20.1200 N   0  0  0  0  0  0  0  0  0  0  0  0
  -25.9750  -11.7030   20.3830 N   0  0  0  0  0  0  0  0  0  0  0  0
  -23.9830  -10.4720   20.9570 C   0  0  0  0  0  0  0  0  0  0  0  0
  -24.4290   -9.5140   21.8940 C   0  0  0  0  0  3  0  0  0  0  0  0
  -23.7140   -8.3120   22.0840 C   0  0  0  0  0  3  0  0  0  0  0  0
  -22.5380   -8.0610   21.3380 C   0  0  0  0  0  0  0  0  0  0  0  0
  -22.1120   -9.0080   20.3880 C   0  0  0  0  0  3  0  0  0  0  0  0
  -22.8280  -10.2010   20.1970 C   0  0  0  0  0  3  0  0  0  0  0  0
  -21.7920   -6.9110   21.4380 O   0  0  0  0  0  0  0  0  0  0  0  0
  -21.7190   -6.2020   22.6090 C   0  0  0  0  0  0  0  0  0  0  0  0
  -21.2310   -6.7790   23.8010 C   0  0  0  0  0  3  0  0  0  0  0  0
  -21.1070   -5.9930   24.9650 C   0  0  0  0  0  3  0  0  0  0  0  0
  -21.4630   -4.6320   24.9370 C   0  0  0  0  0  0  0  0  0  0  0  0
  -21.9440   -4.0540   23.7490 C   0  0  0  0  0  3  0  0  0  0  0  0
  -22.0690   -4.8370   22.5870 C   0  0  0  0  0  0  0  0  0  0  0  0
  -22.5140   -4.2690   21.4400 F   0  0  0  0  0  0  0  0  0  0  0  0
  -21.3370   -3.8740   26.0520 F   0  0  0  0  0  0  0  0  0  0  0  0
  -22.8560  -13.5600   21.1710 C   0  0  0  0  0  0  0  0  0  0  0  0
  -22.1690  -12.8480   22.0570 N   0  0  0  0  0  0  0  0  0  0  0  0
  -22.3960  -14.5950   20.6890 O   0  0  0  0  0  0  0  0  0  0  0  0
  -22.5550  -12.0100   22.4680 H   0  0  0  0  0  0  0  0  0  0  0  0
  -21.2430  -13.1460   22.3300 H   0  0  0  0  0  0  0  0  0  0  0  0
  -25.4390  -15.2380   20.2390 N   0  0  0  0  0  0  0  0  0  0  0  0
  -24.6590  -15.8750   20.3570 H   0  0  0  0  0  0  0  0  0  0  0  0
  -26.2180  -15.6550   19.7460 H   0  0  0  0  0  0  0  0  0  0  0  0
  -28.3180  -23.9370   19.6270 C   0  0  0  0  0  2  0  0  0  0  0  0
  -28.4560  -25.1650   20.6370 C   0  0  0  0  0  2  0  0  0  0  0  0
  -28.4420  -26.5610   20.1350 O   0  0  0  0  0  0  0  0  0  0  0  0
  -24.6750  -31.8900   23.2510 C   0  0  0  0  0  0  0  0  0  0  0  0
  -27.2850  -27.3480   20.1820 C   0  0  0  0  0  0  0  0  0  0  0  0
  -23.4650  -30.5000   21.6030 C   0  0  0  0  0  3  0  0  0  0  0  0
  -24.9110  -28.9430   20.1790 C   0  0  0  0  0  0  0  0  0  0  0  0
  -26.0020  -30.8200   21.4160 C   0  0  0  0  0  2  0  0  0  0  0  0
  -26.0800  -29.4400   20.7690 C   0  0  0  0  0  0  0  0  0  0  0  0
  -27.2680  -28.6560   20.7550 C   0  0  0  0  0  3  0  0  0  0  0  0
  -26.0950  -26.8870   19.5840 C   0  0  0  0  0  3  0  0  0  0  0  0
  -24.9200  -27.6700   19.5800 C   0  0  0  0  0  3  0  0  0  0  0  0
  -23.6780  -29.8220   20.2230 C   0  0  0  0  0  2  0  0  0  0  0  0
  -24.7340  -31.0870   22.1470 N   0  0  0  0  0  0  0  0  0  0  0  0
  -23.5930  -32.1680   23.7890 O   0  0  0  0  0  0  0  0  0  0  0  0
  -22.8020  -29.4840   22.5610 C   0  0  0  0  0  0  0  0  0  0  0  0
  -21.4760  -29.3100   22.4330 N   0  0  0  0  0  0  0  0  0  0  0  0
  -23.4790  -28.8540   23.3780 O   0  0  0  0  0  0  0  0  0  0  0  0
  -20.9890  -29.8680   21.7460 H   0  0  0  0  0  0  0  0  0  0  0  0
  -18.0960  -28.1230   22.9210 C   0  0  0  0  0  0  0  0  0  0  0  0
  -20.6530  -28.3720   23.1990 C   0  0  0  0  0  3  0  0  0  0  0  0
  -20.7530  -26.9420   22.6180 C   0  0  0  0  0  2  0  0  0  0  0  0
  -19.6530  -26.6270   21.6010 C   0  0  0  0  0  2  0  0  0  0  0  0
  -18.2690  -26.7750   22.2420 C   0  0  0  0  0  2  0  0  0  0  0  0
  -19.2140  -28.8790   23.3570 C   0  0  0  0  0  0  0  0  0  0  0  0
  -18.9980  -30.1400   23.9520 C   0  0  0  0  0  3  0  0  0  0  0  0
  -17.6960  -30.6450   24.1180 C   0  0  0  0  0  3  0  0  0  0  0  0
  -16.5900  -29.8840   23.7010 C   0  0  0  0  0  3  0  0  0  0  0  0
  -16.7900  -28.6260   23.1060 C   0  0  0  0  0  3  0  0  0  0  0  0
  -25.9610  -32.5150   23.8730 C   0  0  0  0  0  3  0  0  0  0  0  0
  -26.4810  -31.7310   25.1420 C   0  0  1  0  0  0  0  0  0  0  0  0
  -25.3900  -31.4860   26.2110 C   0  0  0  0  0  1  0  0  0  0  0  0
  -27.0600  -30.3560   24.7350 C   0  0  0  0  0  1  0  0  0  0  0  0
  -27.6320  -32.5190   25.8100 C   0  0  0  0  0  1  0  0  0  0  0  0
  -25.6560  -33.9110   24.2190 N   0  0  0  0  0  0  0  0  0  0  0  0
  -25.9860  -34.9690   23.4680 C   0  0  0  0  0  0  0  0  0  0  0  0
  -26.6490  -34.8750   22.4320 O   0  0  0  0  0  0  0  0  0  0  0  0
  -25.0710  -34.0580   25.0260 H   0  0  0  0  0  0  0  0  0  0  0  0
  -24.2650  -36.7710   23.1340 C   0  0  0  0  0  1  0  0  0  0  0  0
  -25.5040  -36.3550   23.9420 C   0  0  0  0  0  3  0  0  0  0  0  0
  -27.6370  -37.2260   24.7870 C   0  0  0  0  0  1  0  0  0  0  0  0
  -26.5400  -37.4060   23.8410 N   0  0  0  0  0  0  0  0  0  0  0  0
  -26.1370  -38.3250   23.9940 H   0  0  0  0  0  0  0  0  0  0  0  0
  1  3  1  0
  1  4  1  0
  2  1  1  0
  6  9  2  0
  7  5  2  0
  8  6  1  0
  8 10  2  0
  9  5  1  0
  9  4  1  0
 10  7  1  0
 10 19  1  0
 11 19  1  0
 12 17  1  0
 13 14  1  0
 13 12  1  0
 15 14  1  0
 15 24  1  0
 15 16  1  0
 17 11  1  0
 17 16  1  0
 18 11  2  0
 19 20  1  0
 21 22  2  0
 22 41  1  0
 23 22  1  0
 23 26  1  0
 24 25  1  0
 24 21  1  0
 25 23  2  0
 26 27  1  0
 27 28  2  0
 29 32  1  0
 29 28  1  0
 30 29  2  0
 31 30  1  0
 31 26  2  0
 32 33  1  0
 33 34  1  0
 34 35  2  0
 36 35  1  0
 36 40  1  0
 37 36  2  0
 38 33  2  0
 38 37  1  0
 39 38  1  0
 41 42  1  0
 42 45  1  0
 42 44  1  0
 43 41  2  0
 46 47  1  0
 46 21  1  0
 48 46  1  0
 49  1  1  0
 49 50  1  0
 51 53  1  0
 51 50  1  0
 52 63  2  0
 53 58  1  0
 54 62  1  0
 54 64  1  0
 55 61  1  0
 55 57  1  0
 56 62  1  0
 57 56  1  0
 58 57  2  0
 59 53  2  0
 60 59  1  0
 60 55  2  0
 61 54  1  0
 62 52  1  0
 64 66  2  0
 65 64  1  0
 67 65  1  0
 68 77  2  0
 68 73  1  0
 69 65  1  0
 69 73  1  0
 70 69  1  0
 71 72  1  0
 71 70  1  0
 72 68  1  0
 73 74  2  0
 74 75  1  0
 76 75  2  0
 77 76  1  0
 78 52  1  0
 78 83  1  0
 78 79  1  0
 79 82  1  1
 79 80  1  0
 81 79  1  0
 83 86  1  0
 84 88  1  0
 84 83  1  0
 85 84  2  0
 88 87  1  0
 90 88  1  0
 90 91  1  0
 90 89  1  0
M  ISO  4  11 100  19 100  50 101  51 101
M  END
>  <TORSDO>  (77) 
F 20

>  <SCORE>  (77) 
-13.810

>  <name>  (77) 
76

>  <ligand_id>  (77) 
76

>  <original_smiles>  (77) 
[H]c1c([H])c([H])c2c(c1[H])C([H])([H])C([H])([H])C([H])([H])C2([H])N([H])C(=O)C1([H])N(C(=O)C([H])(N([H])C(=O)C([H])(N([H])C([H])([H])[H])C([H])([H])[H])C(C([H])([H])[H])(C([H])([H])[H])C([H])([H])[H])C([H])([H])c2c([H])c(OC([H])([H])C([H])([H])[N+]([H])([H])C([H])([H])c3c([H])c([H])c(N([H])C(=O)N4C([H])([H])C([H])([H])C([H])([H])C([H])(n5nc(-c6c([H])c([H])c(Oc7c([H])c([H])c(F)c([H])c7F)c([H])c6[H])c(C(=O)N([H])[H])c5N([H])[H])C4([H])[H])c([H])c3[H])c([H])c([H])c2C1([H])[H]

>  <smiles>  (77) 
[H]c1c([H])c([H])c2c(c1[H])C([H])([H])C([H])([H])C([H])([H])C2([H])N([H])C(=O)C1([H])N(C(=O)C([H])(N([H])C(=O)C([H])(N([H])C([H])([H])[H])C([H])([H])[H])C(C([H])([H])[H])(C([H])([H])[H])C([H])([H])[H])C([H])([H])c2c([H])c(OC([H])([H])C([H])([H])[N+]([H])([H])C([H])([H])c3c([H])c([H])c(N([H])C(=O)N4C([H])([H])C([H])([H])C([H])([H])C([H])(n5nc(-c6c([H])c([H])c(Oc7c([H])c([H])c(F)c([H])c7F)c([H])c6[H])c(C(=O)N([H])[H])c5N([H])[H])C4([H])[H])c([H])c3[H])c([H])c([H])c2C1([H])[H]

$$$$
77:0:0
     RDKit          3D

 93102  0  0  1  0  0  0  0  0999 V2000
  -31.2320  -25.3180   19.2900 C   0  0  0  0  0  2  0  0  0  0  0  0
  -31.2920  -24.0920   20.2220 C   0  0  0  0  0  2  0  0  0  0  0  0
  -30.0420  -25.3290   18.3150 C   0  0  0  0  0  2  0  0  0  0  0  0
  -30.8360  -22.7710   19.5680 C   0  0  0  0  0  2  0  0  0  0  0  0
  -28.5000  -23.7980   19.7950 C   0  0  0  0  0  2  0  0  0  0  0  0
  -28.6670  -25.2130   18.9860 C   0  0  0  0  0  3  0  0  0  0  0  0
  -29.3760  -22.5770   19.4640 N   0  0  0  0  0  0  0  0  0  0  0  0
  -27.5940  -19.6880   21.1360 C   0  0  0  0  0  3  0  0  0  0  0  0
  -28.2390  -18.5320   20.6560 C   0  0  0  0  0  3  0  0  0  0  0  0
  -27.9740  -20.9770   20.7160 C   0  0  0  0  0  3  0  0  0  0  0  0
  -29.2860  -18.6020   19.7130 C   0  0  0  0  0  0  0  0  0  0  0  0
  -29.6250  -19.9540   19.2440 C   0  0  0  0  0  0  0  0  0  0  0  0
  -29.0030  -21.1870   19.7700 C   0  0  0  0  0  0  0  0  0  0  0  0
  -30.6470  -20.0620   18.1170 C   0  0  0  0  0  1  0  0  0  0  0  0
  -29.9620  -17.2380   19.3170 C   0  0  0  0  0  3  0  0  0  0  0  0
  -29.7140  -16.0110   19.7490 N   0  0  0  0  0  0  0  0  0  0  0  0
  -30.5190  -14.8890   19.3320 C   0  0  0  0  0  0  0  0  0  0  0  0
  -30.3310  -12.5210   18.5250 C   0  0  0  0  0  2  0  0  0  0  0  0
  -29.2490  -12.4650   17.4250 C   0  0  0  0  0  2  0  0  0  0  0  0
  -27.8530  -12.2560   18.0470 C   0  0  0  0  0  2  0  0  0  0  0  0
  -27.5860  -13.2130   19.2400 C   0  0  0  0  0  3  0  0  0  0  0  0
  -28.7790  -13.2600   20.2180 C   0  0  0  0  0  2  0  0  0  0  0  0
  -29.9760  -13.6260   19.4500 N   0  0  0  0  0  0  0  0  0  0  0  0
  -31.6090  -14.9970   18.7640 O   0  0  0  0  0  0  0  0  0  0  0  0
  -25.3730  -13.7670   20.4100 C   0  0  0  0  0  0  0  0  0  0  0  0
  -24.3620  -12.9770   20.8860 C   0  0  0  0  0  0  0  0  0  0  0  0
  -24.7750  -11.6280   20.6630 C   0  0  0  0  0  0  0  0  0  0  0  0
  -26.3360  -12.8980   19.9240 N   0  0  0  0  0  0  0  0  0  0  0  0
  -25.9940  -11.6010   20.1380 N   0  0  0  0  0  0  0  0  0  0  0  0
  -24.0560  -10.3640   20.8690 C   0  0  0  0  0  0  0  0  0  0  0  0
  -24.5310   -9.3810   21.7640 C   0  0  0  0  0  3  0  0  0  0  0  0
  -23.8110   -8.1810   21.9590 C   0  0  0  0  0  3  0  0  0  0  0  0
  -22.6030   -7.9570   21.2580 C   0  0  0  0  0  0  0  0  0  0  0  0
  -22.1460   -8.9290   20.3500 C   0  0  0  0  0  3  0  0  0  0  0  0
  -22.8650  -10.1200   20.1540 C   0  0  0  0  0  3  0  0  0  0  0  0
  -21.8510   -6.8120   21.3620 O   0  0  0  0  0  0  0  0  0  0  0  0
  -21.7370   -6.1310   22.5470 C   0  0  0  0  0  0  0  0  0  0  0  0
  -21.2340   -6.7470   23.7140 C   0  0  0  0  0  3  0  0  0  0  0  0
  -21.0680   -5.9920   24.8920 C   0  0  0  0  0  3  0  0  0  0  0  0
  -21.3940   -4.6220   24.9040 C   0  0  0  0  0  0  0  0  0  0  0  0
  -21.8900   -4.0060   23.7410 C   0  0  0  0  0  3  0  0  0  0  0  0
  -22.0580   -4.7590   22.5650 C   0  0  0  0  0  0  0  0  0  0  0  0
  -22.5150   -4.1550   21.4420 F   0  0  0  0  0  0  0  0  0  0  0  0
  -21.2280   -3.8950   26.0330 F   0  0  0  0  0  0  0  0  0  0  0  0
  -23.0440  -13.4470   21.4300 C   0  0  0  0  0  0  0  0  0  0  0  0
  -22.4570  -12.6930   22.3530 N   0  0  0  0  0  0  0  0  0  0  0  0
  -22.5490  -14.5160   21.0730 O   0  0  0  0  0  0  0  0  0  0  0  0
  -22.8780  -11.8280   22.6600 H   0  0  0  0  0  0  0  0  0  0  0  0
  -21.5800  -12.9840   22.7560 H   0  0  0  0  0  0  0  0  0  0  0  0
  -25.5460  -15.1450   20.3280 N   0  0  0  0  0  0  0  0  0  0  0  0
  -24.8420  -15.8040   20.6380 H   0  0  0  0  0  0  0  0  0  0  0  0
  -26.3740  -15.5930   19.9520 H   0  0  0  0  0  0  0  0  0  0  0  0
  -28.4830  -26.5590   19.6440 O   0  0  0  0  0  0  0  0  0  0  0  0
  -24.5080  -31.6400   22.9320 C   0  0  0  0  0  0  0  0  0  0  0  0
  -27.3160  -27.3610   19.5970 C   0  0  0  0  0  0  0  0  0  0  0  0
  -23.3660  -30.2860   21.2150 C   0  0  0  0  0  3  0  0  0  0  0  0
  -24.8790  -28.8950   19.6870 C   0  0  0  0  0  0  0  0  0  0  0  0
  -25.8910  -30.7230   21.0490 C   0  0  0  0  0  2  0  0  0  0  0  0
  -26.0280  -29.3910   20.3130 C   0  0  0  0  0  0  0  0  0  0  0  0
  -27.2440  -28.6360   20.2580 C   0  0  0  0  0  3  0  0  0  0  0  0
  -26.1340  -26.9280   18.9520 C   0  0  0  0  0  3  0  0  0  0  0  0
  -24.9380  -27.6740   18.9970 C   0  0  0  0  0  3  0  0  0  0  0  0
  -23.6040  -29.7080   19.7940 C   0  0  0  0  0  2  0  0  0  0  0  0
  -24.6070  -30.9000   21.7880 N   0  0  0  0  0  0  0  0  0  0  0  0
  -23.4160  -31.8320   23.4850 O   0  0  0  0  0  0  0  0  0  0  0  0
  -22.7580  -29.1830   22.1160 C   0  0  0  0  0  0  0  0  0  0  0  0
  -21.4320  -28.9840   22.0230 N   0  0  0  0  0  0  0  0  0  0  0  0
  -23.4780  -28.5110   22.8590 O   0  0  0  0  0  0  0  0  0  0  0  0
  -20.9070  -29.5810   21.3970 H   0  0  0  0  0  0  0  0  0  0  0  0
  -18.0900  -27.7280   22.6120 C   0  0  0  0  0  0  0  0  0  0  0  0
  -20.6610  -27.9720   22.7450 C   0  0  0  0  0  3  0  0  0  0  0  0
  -20.7240  -26.6060   22.0220 C   0  0  0  0  0  2  0  0  0  0  0  0
  -19.5590  -26.3820   21.0530 C   0  0  0  0  0  2  0  0  0  0  0  0
  -18.2210  -26.4560   21.7930 C   0  0  0  0  0  2  0  0  0  0  0  0
  -19.2350  -28.4480   23.0460 C   0  0  0  0  0  0  0  0  0  0  0  0
  -19.0550  -29.6440   23.7750 C   0  0  0  0  0  3  0  0  0  0  0  0
  -17.7630  -30.1180   24.0730 C   0  0  0  0  0  3  0  0  0  0  0  0
  -16.6350  -29.3930   23.6550 C   0  0  0  0  0  3  0  0  0  0  0  0
  -16.7990  -28.2000   22.9290 C   0  0  0  0  0  3  0  0  0  0  0  0
  -25.7620  -32.2970   23.5890 C   0  0  0  0  0  3  0  0  0  0  0  0
  -25.3810  -33.6530   24.0130 N   0  0  0  0  0  0  0  0  0  0  0  0
  -25.6490  -34.7700   23.3260 C   0  0  0  0  0  0  0  0  0  0  0  0
  -26.3120  -34.7720   22.2850 O   0  0  0  0  0  0  0  0  0  0  0  0
  -24.7870  -33.7220   24.8270 H   0  0  0  0  0  0  0  0  0  0  0  0
  -23.8280  -36.4930   23.1070 C   0  0  0  0  0  1  0  0  0  0  0  0
  -25.0960  -36.0980   23.8810 C   0  0  0  0  0  3  0  0  0  0  0  0
  -27.1890  -37.0350   24.7600 C   0  0  0  0  0  1  0  0  0  0  0  0
  -26.0730  -37.2080   23.8350 N   0  0  0  0  0  0  0  0  0  0  0  0
  -25.6210  -38.0940   24.0440 H   0  0  0  0  0  0  0  0  0  0  0  0
  -26.3260  -31.4730   24.8110 C   0  0  1  0  0  0  0  0  0  0  0  0
  -25.2550  -31.1200   25.8690 C   0  0  0  0  0  1  0  0  0  0  0  0
  -26.9720  -30.1520   24.3340 C   0  0  0  0  0  1  0  0  0  0  0  0
  -27.4430  -32.2810   25.5150 C   0  0  0  0  0  1  0  0  0  0  0  0
  1  2  1  0
  3  6  1  0
  3  1  1  0
  4  2  1  0
  6 53  1  0
  6  5  1  0
  7  4  1  0
  7 13  1  0
  7  5  1  0
  9  8  2  0
 10  8  1  0
 11  9  1  0
 12 11  2  0
 12 13  1  0
 13 10  2  0
 14 12  1  0
 15 11  1  0
 15 16  2  0
 17 23  1  0
 17 16  1  0
 18 23  1  0
 19 20  1  0
 19 18  1  0
 21 20  1  0
 21 28  1  0
 21 22  1  0
 23 22  1  0
 24 17  2  0
 25 26  2  0
 26 45  1  0
 27 30  1  0
 27 26  1  0
 28 29  1  0
 28 25  1  0
 29 27  2  0
 30 31  1  0
 31 32  2  0
 33 36  1  0
 33 32  1  0
 34 33  2  0
 35 34  1  0
 35 30  2  0
 36 37  1  0
 37 42  2  0
 37 38  1  0
 38 39  2  0
 39 40  1  0
 40 44  1  0
 41 40  2  0
 42 41  1  0
 43 42  1  0
 45 46  1  0
 46 48  1  0
 46 49  1  0
 47 45  2  0
 50 25  1  0
 50 51  1  0
 52 50  1  0
 54 65  2  0
 55 53  1  0
 55 60  1  0
 56 64  1  0
 56 66  1  0
 57 63  1  0
 57 59  1  0
 58 64  1  0
 59 58  1  0
 60 59  2  0
 61 62  1  0
 61 55  2  0
 62 57  2  0
 63 56  1  0
 64 54  1  0
 66 68  2  0
 67 66  1  0
 69 67  1  0
 70 79  2  0
 70 75  1  0
 71 67  1  0
 71 75  1  0
 72 71  1  0
 73 74  1  0
 73 72  1  0
 74 70  1  0
 75 76  2  0
 76 77  1  0
 78 77  2  0
 79 78  1  0
 80 54  1  0
 80 81  1  0
 80 90  1  0
 81 84  1  0
 82 86  1  0
 82 81  1  0
 83 82  2  0
 86 85  1  0
 88 86  1  0
 88 89  1  0
 88 87  1  0
 90 93  1  1
 90 91  1  0
 92 90  1  0
M  ISO  4   6 101  16 100  17 100  53 101
M  END
>  <TORSDO>  (78) 
F 18

>  <SCORE>  (78) 
-11.696

>  <name>  (78) 
77

>  <ligand_id>  (78) 
77

>  <original_smiles>  (78) 
[H]C(=NC(=O)N1C([H])([H])C([H])([H])C([H])([H])C([H])(n2nc(-c3c([H])c([H])c(Oc4c([H])c([H])c(F)c([H])c4F)c([H])c3[H])c(C(=O)N([H])[H])c2N([H])[H])C1([H])[H])c1c([H])c([H])c([H])c(N2C([H])([H])C([H])([H])C([H])([H])C([H])([H])C([H])(Oc3c([H])c([H])c4c(c3[H])C([H])([H])N(C(=O)C([H])(N([H])C(=O)C([H])(N([H])C([H])([H])[H])C([H])([H])[H])C(C([H])([H])[H])(C([H])([H])[H])C([H])([H])[H])C([H])(C(=O)N([H])C3([H])c5c([H])c([H])c([H])c([H])c5C([H])([H])C([H])([H])C3([H])[H])C4([H])[H])C2([H])[H])c1C([H])([H])[H]

>  <smiles>  (78) 
[H]C(=NC(=O)N1C([H])([H])C([H])([H])C([H])([H])C([H])(n2nc(-c3c([H])c([H])c(Oc4c([H])c([H])c(F)c([H])c4F)c([H])c3[H])c(C(=O)N([H])[H])c2N([H])[H])C1([H])[H])c1c([H])c([H])c([H])c(N2C([H])([H])C([H])([H])C([H])([H])C([H])([H])C([H])(Oc3c([H])c([H])c4c(c3[H])C([H])([H])N(C(=O)C([H])(N([H])C(=O)C([H])(N([H])C([H])([H])[H])C([H])([H])[H])C(C([H])([H])[H])(C([H])([H])[H])C([H])([H])[H])C([H])(C(=O)N([H])C3([H])c5c([H])c([H])c([H])c([H])c5C([H])([H])C([H])([H])C3([H])[H])C4([H])[H])C2([H])[H])c1C([H])([H])[H]

$$$$
78:0:0
     RDKit          3D

 98107  0  0  1  0  0  0  0  0999 V2000
  -29.1160  -24.1660   20.6340 C   0  0  0  0  0  0  0  0  0  0  0  0
  -29.5020  -24.4530   21.8910 C   0  0  0  0  0  2  0  0  0  0  0  0
  -30.0270  -24.2970   17.6950 C   0  0  0  0  0  2  0  0  0  0  0  0
  -31.1480  -23.6830   18.5570 C   0  0  0  0  0  2  0  0  0  0  0  0
  -29.3290  -25.4870   18.3850 C   0  0  0  0  0  2  0  0  0  0  0  0
  -30.6900  -22.5430   19.4870 C   0  0  0  0  0  2  0  0  0  0  0  0
  -28.4880  -25.2210   19.6570 C   0  0  0  0  0  3  0  0  0  0  0  0
  -29.3300  -22.7450   20.0420 N   0  0  1  0  0  4  0  0  0  0  0  0
  -28.7400  -22.6940   19.2260 H   0  0  0  0  0  0  0  0  0  0  0  0
  -28.3580  -26.5790   20.2300 O   0  0  0  0  0  0  0  0  0  0  0  0
  -24.5990  -31.9020   23.2320 C   0  0  0  0  0  0  0  0  0  0  0  0
  -27.2030  -27.3690   20.1450 C   0  0  0  0  0  0  0  0  0  0  0  0
  -23.3830  -30.5020   21.6000 C   0  0  0  0  0  3  0  0  0  0  0  0
  -24.8260  -28.9600   20.1610 C   0  0  0  0  0  0  0  0  0  0  0  0
  -25.9180  -30.8320   21.3960 C   0  0  0  0  0  2  0  0  0  0  0  0
  -25.9940  -29.4550   20.7500 C   0  0  0  0  0  0  0  0  0  0  0  0
  -27.1800  -28.6680   20.7390 C   0  0  0  0  0  3  0  0  0  0  0  0
  -26.0110  -26.9230   19.5280 C   0  0  0  0  0  3  0  0  0  0  0  0
  -24.8350  -27.6980   19.5460 C   0  0  0  0  0  3  0  0  0  0  0  0
  -23.5870  -29.8290   20.2170 C   0  0  0  0  0  2  0  0  0  0  0  0
  -24.6520  -31.0960   22.1330 N   0  0  0  0  0  0  0  0  0  0  0  0
  -23.5200  -32.1760   23.7780 O   0  0  0  0  0  0  0  0  0  0  0  0
  -22.7340  -29.4820   22.5660 C   0  0  0  0  0  0  0  0  0  0  0  0
  -21.4080  -29.2980   22.4470 N   0  0  0  0  0  0  0  0  0  0  0  0
  -23.4200  -28.8610   23.3810 O   0  0  0  0  0  0  0  0  0  0  0  0
  -20.9120  -29.8540   21.7630 H   0  0  0  0  0  0  0  0  0  0  0  0
  -18.0390  -28.0870   22.9610 C   0  0  0  0  0  0  0  0  0  0  0  0
  -20.5970  -28.3600   23.2230 C   0  0  0  0  0  3  0  0  0  0  0  0
  -20.7040  -26.9270   22.6520 C   0  0  0  0  0  2  0  0  0  0  0  0
  -19.6010  -26.5950   21.6410 C   0  0  0  0  0  2  0  0  0  0  0  0
  -18.2200  -26.7360   22.2890 C   0  0  0  0  0  2  0  0  0  0  0  0
  -19.1550  -28.8560   23.3840 C   0  0  0  0  0  0  0  0  0  0  0  0
  -18.9330  -30.1190   23.9740 C   0  0  0  0  0  3  0  0  0  0  0  0
  -17.6260  -30.6150   24.1400 C   0  0  0  0  0  3  0  0  0  0  0  0
  -16.5240  -29.8450   23.7320 C   0  0  0  0  0  3  0  0  0  0  0  0
  -16.7320  -28.5820   23.1480 C   0  0  0  0  0  3  0  0  0  0  0  0
  -25.8870  -32.5360   23.8430 C   0  0  0  0  0  3  0  0  0  0  0  0
  -25.5780  -33.9340   24.1770 N   0  0  0  0  0  0  0  0  0  0  0  0
  -25.9060  -34.9890   23.4170 C   0  0  0  0  0  0  0  0  0  0  0  0
  -26.5710  -34.8870   22.3820 O   0  0  0  0  0  0  0  0  0  0  0  0
  -24.9860  -34.0880   24.9810 H   0  0  0  0  0  0  0  0  0  0  0  0
  -24.1790  -36.7840   23.0710 C   0  0  0  0  0  1  0  0  0  0  0  0
  -25.4210  -36.3760   23.8800 C   0  0  0  0  0  3  0  0  0  0  0  0
  -27.5570  -37.2580   24.7120 C   0  0  0  0  0  1  0  0  0  0  0  0
  -26.4550  -37.4290   23.7680 N   0  0  0  0  0  0  0  0  0  0  0  0
  -26.0490  -38.3490   23.9170 H   0  0  0  0  0  0  0  0  0  0  0  0
  -26.4150  -31.7670   25.1150 C   0  0  1  0  0  0  0  0  0  0  0  0
  -25.3300  -31.5260   26.1920 C   0  0  0  0  0  1  0  0  0  0  0  0
  -26.9980  -30.3910   24.7190 C   0  0  0  0  0  1  0  0  0  0  0  0
  -27.5700  -32.5630   25.7690 C   0  0  0  0  0  1  0  0  0  0  0  0
  -28.8590  -21.5520   20.8630 C   0  0  0  0  0  2  0  0  0  0  0  0
  -30.0740  -19.3650   21.5170 C   0  0  0  0  0  3  0  0  0  0  0  0
  -29.2920  -20.0550   20.5540 C   0  0  0  0  0  0  0  0  0  0  0  0
  -30.2970  -17.9580   21.4760 C   0  0  0  0  0  0  0  0  0  0  0  0
  -28.8150  -19.2640   19.4620 C   0  0  0  0  0  0  0  0  0  0  0  0
  -29.0600  -17.8420   19.4000 C   0  0  0  0  0  0  0  0  0  0  0  0
  -29.7750  -17.1550   20.4290 C   0  0  0  0  0  0  0  0  0  0  0  0
  -31.0390  -17.3080   22.6290 C   0  0  0  0  0  1  0  0  0  0  0  0
  -27.9910  -19.9150   18.3550 C   0  0  0  0  0  1  0  0  0  0  0  0
  -28.5010  -17.0500   18.2200 C   0  0  0  0  0  1  0  0  0  0  0  0
  -30.5560  -14.6840   20.1740 C   0  0  0  0  0  0  0  0  0  0  0  0
  -30.3420  -12.4520   19.0960 C   0  0  0  0  0  2  0  0  0  0  0  0
  -29.3530  -12.5960   17.9170 C   0  0  0  0  0  2  0  0  0  0  0  0
  -27.8910  -12.4450   18.3910 C   0  0  0  0  0  2  0  0  0  0  0  0
  -27.5780  -13.2830   19.6590 C   0  0  0  0  0  3  0  0  0  0  0  0
  -28.6750  -13.0940   20.7320 C   0  0  0  0  0  2  0  0  0  0  0  0
  -29.9620  -13.4510   20.1150 N   0  0  0  0  0  0  0  0  0  0  0  0
  -31.7010  -14.8730   19.7480 O   0  0  0  0  0  0  0  0  0  0  0  0
  -29.7280  -15.7000   20.5720 N   0  0  0  0  0  0  0  0  0  0  0  0
  -28.8340  -15.3530   20.8800 H   0  0  0  0  0  0  0  0  0  0  0  0
  -25.2150  -13.8870   20.4730 C   0  0  0  0  0  0  0  0  0  0  0  0
  -24.1570  -13.1130   20.8660 C   0  0  0  0  0  0  0  0  0  0  0  0
  -24.6070  -11.7600   20.7920 C   0  0  0  0  0  0  0  0  0  0  0  0
  -26.2440  -13.0030   20.1860 N   0  0  0  0  0  0  0  0  0  0  0  0
  -25.8860  -11.7180   20.4370 N   0  0  0  0  0  0  0  0  0  0  0  0
  -23.8780  -10.4990   20.9850 C   0  0  0  0  0  0  0  0  0  0  0  0
  -24.3080   -9.5340   21.9200 C   0  0  0  0  0  3  0  0  0  0  0  0
  -23.5800   -8.3380   22.1000 C   0  0  0  0  0  3  0  0  0  0  0  0
  -22.4070   -8.1000   21.3430 C   0  0  0  0  0  0  0  0  0  0  0  0
  -21.9960   -9.0550   20.3970 C   0  0  0  0  0  3  0  0  0  0  0  0
  -22.7260  -10.2430   20.2160 C   0  0  0  0  0  3  0  0  0  0  0  0
  -21.6520   -6.9550   21.4310 O   0  0  0  0  0  0  0  0  0  0  0  0
  -21.5680   -6.2360   22.5960 C   0  0  0  0  0  0  0  0  0  0  0  0
  -21.0950   -6.8130   23.7960 C   0  0  0  0  0  3  0  0  0  0  0  0
  -20.9570   -6.0200   24.9520 C   0  0  0  0  0  3  0  0  0  0  0  0
  -21.2820   -4.6510   24.9110 C   0  0  0  0  0  0  0  0  0  0  0  0
  -21.7490   -4.0740   23.7170 C   0  0  0  0  0  3  0  0  0  0  0  0
  -21.8880   -4.8640   22.5620 C   0  0  0  0  0  0  0  0  0  0  0  0
  -22.3160   -4.2990   21.4070 F   0  0  0  0  0  0  0  0  0  0  0  0
  -21.1460   -3.8860   26.0190 F   0  0  0  0  0  0  0  0  0  0  0  0
  -22.7730  -13.5950   21.1970 C   0  0  0  0  0  0  0  0  0  0  0  0
  -22.0700  -12.8870   22.0740 N   0  0  0  0  0  0  0  0  0  0  0  0
  -22.3250  -14.6340   20.7140 O   0  0  0  0  0  0  0  0  0  0  0  0
  -22.4440  -12.0450   22.4870 H   0  0  0  0  0  0  0  0  0  0  0  0
  -21.1430  -13.1920   22.3360 H   0  0  0  0  0  0  0  0  0  0  0  0
  -25.3790  -15.2610   20.3150 N   0  0  0  0  0  0  0  0  0  0  0  0
  -24.6090  -15.9070   20.4570 H   0  0  0  0  0  0  0  0  0  0  0  0
  -26.2070  -15.7080   19.9450 H   0  0  0  0  0  0  0  0  0  0  0  0
  1  2  2  0
  3  5  1  0
  3  4  1  0
  4  6  1  0
  5  7  1  0
  6  8  1  0
  7 10  1  0
  7  1  1  0
  8  1  1  0
  8 51  1  0
  8  9  1  6
 11 22  2  0
 12 10  1  0
 12 17  1  0
 13 21  1  0
 13 23  1  0
 14 20  1  0
 14 16  1  0
 15 21  1  0
 16 15  1  0
 17 16  2  0
 18 19  1  0
 18 12  2  0
 19 14  2  0
 20 13  1  0
 21 11  1  0
 23 25  2  0
 24 23  1  0
 26 24  1  0
 27 36  2  0
 27 32  1  0
 28 24  1  0
 28 32  1  0
 29 28  1  0
 30 31  1  0
 30 29  1  0
 31 27  1  0
 32 33  2  0
 33 34  1  0
 35 34  2  0
 36 35  1  0
 37 11  1  0
 37 38  1  0
 37 47  1  0
 38 41  1  0
 39 43  1  0
 39 38  1  0
 40 39  2  0
 43 42  1  0
 45 43  1  0
 45 46  1  0
 45 44  1  0
 47 50  1  1
 47 48  1  0
 49 47  1  0
 53 51  1  0
 53 52  2  0
 54 52  1  0
 54 58  1  0
 55 53  1  0
 56 55  2  0
 56 57  1  0
 57 69  1  0
 57 54  2  0
 59 55  1  0
 60 56  1  0
 61 69  1  0
 62 67  1  0
 63 64  1  0
 63 62  1  0
 65 64  1  0
 65 74  1  0
 65 66  1  0
 67 61  1  0
 67 66  1  0
 68 61  2  0
 69 70  1  0
 71 72  2  0
 72 91  1  0
 73 72  1  0
 73 76  1  0
 74 75  1  0
 74 71  1  0
 75 73  2  0
 76 77  1  0
 77 78  2  0
 79 82  1  0
 79 78  1  0
 80 79  2  0
 81 80  1  0
 81 76  2  0
 82 83  1  0
 83 84  1  0
 84 85  2  0
 86 85  1  0
 86 90  1  0
 87 86  2  0
 88 83  2  0
 88 87  1  0
 89 88  1  0
 91 92  1  0
 92 95  1  0
 92 94  1  0
 93 91  2  0
 96 97  1  0
 96 71  1  0
 98 96  1  0
M  ISO  4   7 101  10 101  61 100  69 100
M  END
>  <TORSDO>  (79) 
F 18

>  <SCORE>  (79) 
-14.476

>  <name>  (79) 
78

>  <ligand_id>  (79) 
78

>  <original_smiles>  (79) 
[H]C([H])=C1C([H])(Oc2c([H])c([H])c3c(c2[H])C([H])([H])N(C(=O)C([H])(N([H])C(=O)C([H])(N([H])C([H])([H])[H])C([H])([H])[H])C(C([H])([H])[H])(C([H])([H])[H])C([H])([H])[H])C([H])(C(=O)N([H])C2([H])c4c([H])c([H])c([H])c([H])c4C([H])([H])C([H])([H])C2([H])[H])C3([H])[H])C([H])([H])C([H])([H])C([H])([H])C([H])([H])[N+]1([H])C([H])([H])c1c([H])c(C([H])([H])[H])c(N([H])C(=O)N2C([H])([H])C([H])([H])C([H])([H])C([H])(n3nc(-c4c([H])c([H])c(Oc5c([H])c([H])c(F)c([H])c5F)c([H])c4[H])c(C(=O)N([H])[H])c3N([H])[H])C2([H])[H])c(C([H])([H])[H])c1C([H])([H])[H]

>  <smiles>  (79) 
[H]C([H])=C1C([H])(Oc2c([H])c([H])c3c(c2[H])C([H])([H])N(C(=O)C([H])(N([H])C(=O)C([H])(N([H])C([H])([H])[H])C([H])([H])[H])C(C([H])([H])[H])(C([H])([H])[H])C([H])([H])[H])C([H])(C(=O)N([H])C2([H])c4c([H])c([H])c([H])c([H])c4C([H])([H])C([H])([H])C2([H])[H])C3([H])[H])C([H])([H])C([H])([H])C([H])([H])C([H])([H])[N+]1([H])C([H])([H])c1c([H])c(C([H])([H])[H])c(N([H])C(=O)N2C([H])([H])C([H])([H])C([H])([H])C([H])(n3nc(-c4c([H])c([H])c(Oc5c([H])c([H])c(F)c([H])c5F)c([H])c4[H])c(C(=O)N([H])[H])c3N([H])[H])C2([H])[H])c(C([H])([H])[H])c1C([H])([H])[H]

$$$$
79:0:0
     RDKit          3D

 92100  0  0  1  0  0  0  0  0999 V2000
  -29.4530  -19.2770   22.4420 C   0  0  0  0  0  3  0  0  0  0  0  0
  -29.8900  -18.1520   21.7210 C   0  0  0  0  0  3  0  0  0  0  0  0
  -29.3730  -20.5340   21.8170 C   0  0  0  0  0  3  0  0  0  0  0  0
  -30.2590  -18.2710   20.3640 C   0  0  0  0  0  0  0  0  0  0  0  0
  -30.1900  -19.5520   19.7330 C   0  0  0  0  0  0  0  0  0  0  0  0
  -29.7350  -20.6910   20.4590 C   0  0  0  0  0  0  0  0  0  0  0  0
  -30.5920  -19.7110   18.2660 C   0  0  0  0  0  1  0  0  0  0  0  0
  -29.6480  -21.9480   19.8230 N   0  0  0  0  0  0  0  0  0  0  0  0
  -29.9660  -22.0310   18.8610 H   0  0  0  0  0  0  0  0  0  0  0  0
  -29.3070  -23.1710   20.5540 C   0  0  0  0  0  2  0  0  0  0  0  0
  -29.2500  -24.4270   19.6530 C   0  0  0  0  0  2  0  0  0  0  0  0
  -28.8870  -25.7010   20.4460 C   0  0  0  0  0  2  0  0  0  0  0  0
  -28.8090  -26.8640   19.6110 O   0  0  0  0  0  0  0  0  0  0  0  0
  -24.6760  -31.5560   23.0060 C   0  0  0  0  0  0  0  0  0  0  0  0
  -27.5990  -27.5150   19.6610 C   0  0  0  0  0  0  0  0  0  0  0  0
  -23.5580  -30.1750   21.2840 C   0  0  0  0  0  3  0  0  0  0  0  0
  -25.1050  -28.8280   19.7650 C   0  0  0  0  0  0  0  0  0  0  0  0
  -26.0470  -30.7260   21.0960 C   0  0  0  0  0  2  0  0  0  0  0  0
  -26.2250  -29.4040   20.3790 C   0  0  0  0  0  0  0  0  0  0  0  0
  -27.4790  -28.7560   20.3210 C   0  0  0  0  0  3  0  0  0  0  0  0
  -26.4670  -26.9440   19.0460 C   0  0  0  0  0  3  0  0  0  0  0  0
  -25.2200  -27.5980   19.0930 C   0  0  0  0  0  3  0  0  0  0  0  0
  -23.8030  -29.5910   19.8660 C   0  0  0  0  0  2  0  0  0  0  0  0
  -24.7770  -30.8310   21.8560 N   0  0  0  0  0  0  0  0  0  0  0  0
  -23.5840  -31.7180   23.5660 O   0  0  0  0  0  0  0  0  0  0  0  0
  -22.9860  -29.0540   22.1850 C   0  0  0  0  0  0  0  0  0  0  0  0
  -21.6800  -28.7800   22.0410 N   0  0  0  0  0  0  0  0  0  0  0  0
  -23.7150  -28.4390   22.9680 O   0  0  0  0  0  0  0  0  0  0  0  0
  -21.1490  -29.3380   21.3870 H   0  0  0  0  0  0  0  0  0  0  0  0
  -18.4060  -27.3090   22.4510 C   0  0  0  0  0  0  0  0  0  0  0  0
  -20.9350  -27.7410   22.7530 C   0  0  0  0  0  3  0  0  0  0  0  0
  -21.1470  -26.3560   22.0980 C   0  0  0  0  0  2  0  0  0  0  0  0
  -20.0760  -26.0110   21.0590 C   0  0  0  0  0  2  0  0  0  0  0  0
  -18.6850  -26.0170   21.7020 C   0  0  0  0  0  2  0  0  0  0  0  0
  -19.4640  -28.1270   22.9300 C   0  0  0  0  0  0  0  0  0  0  0  0
  -19.1500  -29.3360   23.5890 C   0  0  0  0  0  3  0  0  0  0  0  0
  -17.8110  -29.7290   23.7740 C   0  0  0  0  0  3  0  0  0  0  0  0
  -16.7680  -28.9080   23.3110 C   0  0  0  0  0  3  0  0  0  0  0  0
  -17.0660  -27.7000   22.6550 C   0  0  0  0  0  3  0  0  0  0  0  0
  -25.9210  -32.2350   23.6580 C   0  0  0  0  0  3  0  0  0  0  0  0
  -25.5320  -33.5990   24.0380 N   0  0  0  0  0  0  0  0  0  0  0  0
  -25.8150  -34.6970   23.3250 C   0  0  0  0  0  0  0  0  0  0  0  0
  -26.5030  -34.6720   22.3000 O   0  0  0  0  0  0  0  0  0  0  0  0
  -24.9220  -33.6890   24.8380 H   0  0  0  0  0  0  0  0  0  0  0  0
  -23.9940  -36.4020   23.0140 C   0  0  0  0  0  1  0  0  0  0  0  0
  -25.2460  -36.0370   23.8270 C   0  0  0  0  0  3  0  0  0  0  0  0
  -27.3130  -37.0110   24.7270 C   0  0  0  0  0  1  0  0  0  0  0  0
  -26.2200  -37.1500   23.7690 N   0  0  0  0  0  0  0  0  0  0  0  0
  -25.7610  -38.0410   23.9380 H   0  0  0  0  0  0  0  0  0  0  0  0
  -26.4800  -31.4440   24.9030 C   0  0  1  0  0  0  0  0  0  0  0  0
  -25.4010  -31.1000   25.9560 C   0  0  0  0  0  1  0  0  0  0  0  0
  -27.1430  -30.1200   24.4560 C   0  0  0  0  0  1  0  0  0  0  0  0
  -27.5820  -32.2750   25.6020 C   0  0  0  0  0  1  0  0  0  0  0  0
  -30.7730  -17.0410   19.6020 C   0  0  0  0  0  2  0  0  0  0  0  0
  -31.2200  -14.6250   19.8350 C   0  0  0  0  0  0  0  0  0  0  0  0
  -30.7880  -12.4650   18.7580 C   0  0  0  0  0  2  0  0  0  0  0  0
  -29.7760  -12.7070   17.6180 C   0  0  0  0  0  2  0  0  0  0  0  0
  -28.3300  -12.6100   18.1470 C   0  0  0  0  0  2  0  0  0  0  0  0
  -28.1020  -13.4520   19.4320 C   0  0  0  0  0  3  0  0  0  0  0  0
  -29.2280  -13.2120   20.4650 C   0  0  0  0  0  2  0  0  0  0  0  0
  -30.5170  -13.4620   19.8030 N   0  0  0  0  0  0  0  0  0  0  0  0
  -32.3410  -14.7420   19.3340 O   0  0  0  0  0  0  0  0  0  0  0  0
  -30.5110  -15.7150   20.1840 N   0  0  0  0  0  0  0  0  0  0  0  0
  -29.5970  -15.5570   20.5780 H   0  0  0  0  0  0  0  0  0  0  0  0
  -25.8040  -14.1190   20.3790 C   0  0  0  0  0  0  0  0  0  0  0  0
  -24.7320  -13.3710   20.7880 C   0  0  0  0  0  0  0  0  0  0  0  0
  -25.1190  -12.0050   20.6340 C   0  0  0  0  0  0  0  0  0  0  0  0
  -26.7810  -13.2080   20.0060 N   0  0  0  0  0  0  0  0  0  0  0  0
  -26.3770  -11.9280   20.2150 N   0  0  0  0  0  0  0  0  0  0  0  0
  -24.3490  -10.7660   20.8050 C   0  0  0  0  0  0  0  0  0  0  0  0
  -24.7520   -9.7670   21.7170 C   0  0  0  0  0  3  0  0  0  0  0  0
  -23.9850   -8.5920   21.8770 C   0  0  0  0  0  3  0  0  0  0  0  0
  -22.8020   -8.4110   21.1230 C   0  0  0  0  0  0  0  0  0  0  0  0
  -22.4170   -9.3990   20.2000 C   0  0  0  0  0  3  0  0  0  0  0  0
  -23.1840  -10.5650   20.0380 C   0  0  0  0  0  3  0  0  0  0  0  0
  -22.0070   -7.2920   21.1940 O   0  0  0  0  0  0  0  0  0  0  0  0
  -21.8470   -6.5950   22.3640 C   0  0  0  0  0  0  0  0  0  0  0  0
  -21.3190   -7.2000   23.5250 C   0  0  0  0  0  3  0  0  0  0  0  0
  -21.1050   -6.4310   24.6860 C   0  0  0  0  0  3  0  0  0  0  0  0
  -21.4110   -5.0560   24.6860 C   0  0  0  0  0  0  0  0  0  0  0  0
  -21.9320   -4.4510   23.5290 C   0  0  0  0  0  3  0  0  0  0  0  0
  -22.1470   -5.2180   22.3710 C   0  0  0  0  0  0  0  0  0  0  0  0
  -22.6290   -4.6240   21.2520 F   0  0  0  0  0  0  0  0  0  0  0  0
  -21.1980   -4.3140   25.7980 F   0  0  0  0  0  0  0  0  0  0  0  0
  -23.3870  -13.8910   21.2060 C   0  0  0  0  0  0  0  0  0  0  0  0
  -22.7030  -13.1790   22.0950 N   0  0  0  0  0  0  0  0  0  0  0  0
  -22.9550  -14.9630   20.7810 O   0  0  0  0  0  0  0  0  0  0  0  0
  -23.0660  -12.3120   22.4590 H   0  0  0  0  0  0  0  0  0  0  0  0
  -21.8020  -13.5080   22.4140 H   0  0  0  0  0  0  0  0  0  0  0  0
  -26.0210  -15.4880   20.2740 N   0  0  0  0  0  0  0  0  0  0  0  0
  -25.2950  -16.1650   20.4850 H   0  0  0  0  0  0  0  0  0  0  0  0
  -26.8560  -15.9140   19.8910 H   0  0  0  0  0  0  0  0  0  0  0  0
  2  1  2  0
  3  1  1  0
  4  2  1  0
  5  4  2  0
  5  6  1  0
  6  3  2  0
  7  5  1  0
  8  6  1  0
  8 10  1  0
  9  8  1  0
 11 12  1  0
 11 10  1  0
 13 15  1  0
 13 12  1  0
 14 25  2  0
 15 20  1  0
 16 24  1  0
 16 26  1  0
 17 23  1  0
 17 19  1  0
 18 24  1  0
 19 18  1  0
 20 19  2  0
 21 22  1  0
 21 15  2  0
 22 17  2  0
 23 16  1  0
 24 14  1  0
 26 28  2  0
 27 26  1  0
 29 27  1  0
 30 39  2  0
 30 35  1  0
 31 27  1  0
 31 35  1  0
 32 31  1  0
 33 34  1  0
 33 32  1  0
 34 30  1  0
 35 36  2  0
 36 37  1  0
 38 37  2  0
 39 38  1  0
 40 14  1  0
 40 41  1  0
 40 50  1  0
 41 44  1  0
 42 46  1  0
 42 41  1  0
 43 42  2  0
 46 45  1  0
 48 46  1  0
 48 49  1  0
 48 47  1  0
 50 53  1  1
 50 51  1  0
 52 50  1  0
 54 63  1  0
 54  4  1  0
 55 63  1  0
 56 61  1  0
 57 58  1  0
 57 56  1  0
 59 58  1  0
 59 68  1  0
 59 60  1  0
 61 55  1  0
 61 60  1  0
 62 55  2  0
 63 64  1  0
 65 66  2  0
 66 85  1  0
 67 66  1  0
 67 70  1  0
 68 69  1  0
 68 65  1  0
 69 67  2  0
 70 71  1  0
 71 72  2  0
 73 76  1  0
 73 72  1  0
 74 73  2  0
 75 74  1  0
 75 70  2  0
 76 77  1  0
 77 82  2  0
 77 78  1  0
 78 79  2  0
 79 80  1  0
 80 84  1  0
 81 80  2  0
 82 81  1  0
 83 82  1  0
 85 86  1  0
 86 89  1  0
 86 88  1  0
 87 85  2  0
 90 65  1  0
 90 91  1  0
 92 90  1  0
M  ISO  4  12 101  13 101  55 100  63 100
M  END
>  <TORSDO>  (80) 
F 21

>  <SCORE>  (80) 
-9.771

>  <name>  (80) 
79

>  <ligand_id>  (80) 
79

>  <original_smiles>  (80) 
[H]c1c([H])c(N([H])C([H])([H])C([H])([H])C([H])([H])Oc2c([H])c([H])c3c(c2[H])C([H])([H])N(C(=O)C([H])(N([H])C(=O)C([H])(N([H])C([H])([H])[H])C([H])([H])[H])C(C([H])([H])[H])(C([H])([H])[H])C([H])([H])[H])C([H])(C(=O)N([H])C2([H])c4c([H])c([H])c([H])c([H])c4C([H])([H])C([H])([H])C2([H])[H])C3([H])[H])c(C([H])([H])[H])c(C([H])([H])N([H])C(=O)N2C([H])([H])C([H])([H])C([H])([H])C([H])(n3nc(-c4c([H])c([H])c(Oc5c([H])c([H])c(F)c([H])c5F)c([H])c4[H])c(C(=O)N([H])[H])c3N([H])[H])C2([H])[H])c1[H]

>  <smiles>  (80) 
[H]c1c([H])c(N([H])C([H])([H])C([H])([H])C([H])([H])Oc2c([H])c([H])c3c(c2[H])C([H])([H])N(C(=O)C([H])(N([H])C(=O)C([H])(N([H])C([H])([H])[H])C([H])([H])[H])C(C([H])([H])[H])(C([H])([H])[H])C([H])([H])[H])C([H])(C(=O)N([H])C2([H])c4c([H])c([H])c([H])c([H])c4C([H])([H])C([H])([H])C2([H])[H])C3([H])[H])c(C([H])([H])[H])c(C([H])([H])N([H])C(=O)N2C([H])([H])C([H])([H])C([H])([H])C([H])(n3nc(-c4c([H])c([H])c(Oc5c([H])c([H])c(F)c([H])c5F)c([H])c4[H])c(C(=O)N([H])[H])c3N([H])[H])C2([H])[H])c1[H]

$$$$
80:0:0
     RDKit          3D

 97 98  0  0  1  0  0  0  0  0999 V2000
  -26.3950  -20.8460   20.6990 C   0  0  0  0  0  2  0  0  0  0  0  0
  -26.2170  -19.8880   19.3460 C   0  0  0  0  0  2  0  0  0  0  0  0
  -28.2960  -19.0580   20.4320 C   0  0  0  0  0 15  0  0  0  0  0  0
  -27.8510  -21.2580   21.2550 C   0  0  0  0  0  1  0  0  0  0  0  0
  -26.2490  -18.2190   19.1890 C   0  0  0  0  0  3  0  0  0  0  0  0
  -25.1150  -17.5850   20.0080 C   0  0  0  0  0  1  0  0  0  0  0  0
  -27.5500  -17.4180   19.3770 N   0  0  0  0  0  2  0  0  0  0  0  0
  -27.3630  -16.8750   20.2070 H   0  0  0  0  0  0  0  0  0  0  0  0
  -27.9070  -23.0650   22.6170 O   0  0  0  0  0  1  0  0  0  0  0  0
  -25.5210  -30.1400   26.1930 C   0  0  0  0  0  0  0  0  0  0  0  0
  -27.8970  -24.8350   22.8650 C   0  0  0  0  0  0  0  0  0  0  0  0
  -25.1710  -29.4470   23.8760 C   0  0  0  0  0  3  0  0  0  0  0  0
  -26.9400  -27.8840   22.7010 C   0  0  0  0  0  0  0  0  0  0  0  0
  -27.4200  -28.7940   24.9290 C   0  0  0  0  0  2  0  0  0  0  0  0
  -27.5430  -27.5250   23.8990 C   0  0  0  0  0  0  0  0  0  0  0  0
  -28.0450  -26.0440   23.9510 C   0  0  0  0  0  3  0  0  0  0  0  0
  -27.7100  -25.6760   21.7190 C   0  0  0  0  0  3  0  0  0  0  0  0
  -27.1840  -27.0150   21.6280 C   0  0  0  0  0  3  0  0  0  0  0  0
  -26.0160  -29.1230   22.5980 C   0  0  0  0  0  2  0  0  0  0  0  0
  -26.0600  -29.5120   25.0750 N   0  0  0  0  0  0  0  0  0  0  0  0
  -24.3350  -30.5220   26.2270 O   0  0  0  0  0  0  0  0  0  0  0  0
  -24.0470  -28.3960   24.0870 C   0  0  0  0  0  0  0  0  0  0  0  0
  -22.9290  -28.4860   23.3430 N   0  0  0  0  0  0  0  0  0  0  0  0
  -24.1990  -27.5020   24.9240 O   0  0  0  0  0  0  0  0  0  0  0  0
  -22.8460  -29.2520   22.6900 H   0  0  0  0  0  0  0  0  0  0  0  0
  -19.5230  -27.8660   22.2430 C   0  0  0  0  0  0  0  0  0  0  0  0
  -21.8260  -27.5170   23.3670 C   0  0  0  0  0  3  0  0  0  0  0  0
  -22.0480  -26.4030   22.3160 C   0  0  0  0  0  2  0  0  0  0  0  0
  -21.3770  -26.7030   20.9730 C   0  0  0  0  0  2  0  0  0  0  0  0
  -19.8650  -26.8650   21.1540 C   0  0  0  0  0  2  0  0  0  0  0  0
  -20.4480  -28.1850   23.2740 C   0  0  0  0  0  0  0  0  0  0  0  0
  -20.0850  -29.1440   24.2450 C   0  0  0  0  0  3  0  0  0  0  0  0
  -18.8290  -29.7780   24.1970 C   0  0  0  0  0  3  0  0  0  0  0  0
  -17.9150  -29.4510   23.1810 C   0  0  0  0  0  3  0  0  0  0  0  0
  -18.2600  -28.4940   22.2100 C   0  0  0  0  0  3  0  0  0  0  0  0
  -26.3430  -30.4280   27.4880 C   0  0  0  0  0  3  0  0  0  0  0  0
  -26.4300  -31.8990   27.6820 N   0  0  0  0  0  0  0  0  0  0  0  0
  -27.4530  -32.6890   27.3210 C   0  0  0  0  0  0  0  0  0  0  0  0
  -28.4730  -32.2430   26.7930 O   0  0  0  0  0  0  0  0  0  0  0  0
  -25.6030  -32.3430   28.0510 H   0  0  0  0  0  0  0  0  0  0  0  0
  -26.9400  -34.9400   26.2890 C   0  0  0  0  0  1  0  0  0  0  0  0
  -27.3340  -34.2110   27.5840 C   0  0  0  0  0  3  0  0  0  0  0  0
  -28.8780  -34.3990   29.4900 C   0  0  0  0  0  1  0  0  0  0  0  0
  -28.5700  -34.8200   28.1260 N   0  0  0  0  0  0  0  0  0  0  0  0
  -28.5060  -35.8340   28.1150 H   0  0  0  0  0  0  0  0  0  0  0  0
  -25.7010  -29.7880   28.7820 C   0  0  1  0  0  0  0  0  0  0  0  0
  -24.1680  -29.9730   28.8780 C   0  0  0  0  0  1  0  0  0  0  0  0
  -25.9770  -28.2750   28.8660 C   0  0  0  0  0  1  0  0  0  0  0  0
  -26.3410  -30.4090   30.0480 C   0  0  0  0  0  1  0  0  0  0  0  0
  -27.5870  -15.6160   18.0920 C   0  0  0  0  0 15  0  0  0  0  0  0
  -28.6470  -10.3710   19.3600 C   0  0  0  0  0  2  0  0  0  0  0  0
  -28.5400  -13.4990   17.2520 C   0  0  0  0  0  1  0  0  0  0  0  0
  -30.3290  -12.6510   18.2630 C   0  0  0  0  0  2  0  0  0  0  0  0
  -27.2290  -12.2940   17.2520 C   0  0  0  0  0  0  0  0  0  0  0  0
  -30.1350  -11.3980   19.6850 C   0  0  0  0  0  2  0  0  0  0  0  0
  -27.2050  -10.8330   18.3010 C   0  0  0  0  0  0  0  0  0  0  0  0
  -31.8440  -12.9260   18.0570 C   0  0  0  0  0  1  0  0  0  0  0  0
  -25.9620  -12.6380   16.4940 C   0  0  0  0  0  1  0  0  0  0  0  0
  -25.8110   -9.8070   18.3110 Cl  0  0  0  0  0  0  0  0  0  0  0  0
  -29.8850  -11.7340   23.2160 C   0  0  0  0  0  0  0  0  0  0  0  0
  -30.6230   -9.7420   24.3290 C   0  0  0  0  0  2  0  0  0  0  0  0
  -31.5470   -9.7480   23.1550 C   0  0  0  0  0  2  0  0  0  0  0  0
  -30.5890   -9.4860   21.9080 C   0  0  0  0  0  2  0  0  0  0  0  0
  -28.8430   -9.9090   21.9670 C   0  0  0  0  0  3  0  0  0  0  0  0
  -28.4280   -9.8080   23.3050 C   0  0  0  0  0  2  0  0  0  0  0  0
  -29.5290  -10.5230   23.7840 N   0  0  0  0  0  0  0  0  0  0  0  0
  -29.6660  -12.2790   24.3490 O   0  0  0  0  0  0  0  0  0  0  0  0
  -30.3730  -11.9940   21.5490 N   0  0  0  0  0  2  0  0  0  0  0  0
  -30.7140  -12.9460   21.5420 H   0  0  0  0  0  0  0  0  0  0  0  0
  -27.7210  -12.1360   20.3230 C   0  0  0  0  0  0  0  0  0  0  0  0
  -26.4430  -12.2080   20.1670 C   0  0  0  0  0  0  0  0  0  0  0  0
  -26.3190  -11.2030   21.3490 C   0  0  0  0  0  2  0  0  0  0  0  0
  -28.0350  -11.1720   21.3970 N   0  0  0  0  0  0  0  0  0  0  0  0
  -27.2140  -11.4830   22.1880 N   0  0  0  0  0  2  0  0  0  0  0  0
  -24.2030   -9.3550   21.5140 C   0  0  0  0  0  3  0  0  0  0  0  0
  -23.9380   -8.2870   22.5650 C   0  0  0  0  0  3  0  0  0  0  0  0
  -22.9520   -7.3140   22.7700 C   0  0  0  0  0  3  0  0  0  0  0  0
  -21.9990   -7.0930   21.8020 C   0  0  0  0  0  0  0  0  0  0  0  0
  -22.1470   -7.8820   20.6530 C   0  0  0  0  0  3  0  0  0  0  0  0
  -23.1080   -8.9520   20.5810 C   0  0  0  0  0  3  0  0  0  0  0  0
  -20.9890   -6.1610   21.9560 O   0  0  0  0  0  0  0  0  0  0  0  0
  -20.2990   -6.0480   23.1510 C   0  0  0  0  0  0  0  0  0  0  0  0
  -19.8100   -7.1810   23.8450 C   0  0  0  0  0  3  0  0  0  0  0  0
  -19.0510   -7.0270   25.0260 C   0  0  0  0  0  3  0  0  0  0  0  0
  -18.7630   -5.7400   25.5190 C   0  0  0  0  0  0  0  0  0  0  0  0
  -19.2430   -4.6090   24.8360 C   0  0  0  0  0  3  0  0  0  0  0  0
  -20.0050   -4.7630   23.6620 C   0  0  0  0  0  0  0  0  0  0  0  0
  -20.4470   -3.6610   23.0120 F   0  0  0  0  0  0  0  0  0  0  0  0
  -18.0240   -5.5900   26.6450 F   0  0  0  0  0  0  0  0  0  0  0  0
  -25.3080  -12.7700   18.9270 C   0  0  0  0  0  0  0  0  0  0  0  0
  -23.9000  -12.8690   18.9850 N   0  0  0  0  0  0  0  0  0  0  0  0
  -25.5510  -13.5380   18.0860 O   0  0  0  0  0  0  0  0  0  0  0  0
  -23.4130  -12.4500   19.7660 H   0  0  0  0  0  0  0  0  0  0  0  0
  -23.3890  -13.3390   18.2530 H   0  0  0  0  0  0  0  0  0  0  0  0
  -28.4700  -12.8280   19.4700 N   0  0  0  0  0  0  0  0  0  0  0  0
  -28.1050  -13.3570   18.6870 H   0  0  0  0  0  0  0  0  0  0  0  0
  -29.4850  -12.8020   19.4810 H   0  0  0  0  0  0  0  0  0  0  0  0
  1  4  1  0
  2  1  1  0
  5  2  1  0
  5  7  1  0
  5  6  1  0
  7  8  1  0
  9 11  1  0
 10 21  2  0
 11 16  1  0
 12 22  1  0
 12 20  1  0
 13 15  1  0
 14 20  1  0
 15 16  2  0
 15 14  1  0
 17 11  2  0
 18 17  1  0
 18 13  2  0
 19 13  1  0
 19 12  1  0
 20 10  1  0
 22 24  2  0
 23 22  1  0
 25 23  1  0
 26 31  1  0
 27 23  1  0
 28 27  1  0
 29 30  1  0
 29 28  1  0
 30 26  1  0
 31 27  1  0
 31 32  2  0
 33 32  1  0
 34 33  2  0
 35 26  2  0
 35 34  1  0
 36 10  1  0
 36 37  1  0
 36 46  1  0
 37 40  1  0
 38 42  1  0
 38 37  1  0
 39 38  2  0
 42 41  1  0
 42 44  1  0
 44 43  1  0
 45 44  1  0
 46 48  1  6
 46 47  1  0
 46 49  1  0
 51 55  1  0
 52 54  1  0
 53 55  1  0
 54 56  2  0
 56 59  1  0
 56 51  1  0
 57 53  1  0
 58 54  1  0
 60 66  1  0
 60 67  2  0
 62 61  1  0
 63 64  1  0
 63 62  1  0
 64 73  1  0
 64 65  1  0
 65 66  1  0
 66 61  1  0
 68 60  1  0
 69 68  1  0
 70 73  1  0
 71 70  2  0
 71 72  1  0
 72 74  1  0
 73 74  1  0
 75 76  1  0
 76 77  2  0
 78 81  1  0
 78 77  1  0
 79 78  2  0
 80 79  1  0
 80 75  2  0
 81 82  1  0
 82 87  2  0
 82 83  1  0
 83 84  2  0
 84 85  1  0
 85 89  1  0
 86 85  2  0
 87 86  1  0
 88 87  1  0
 90 91  1  0
 90 71  1  0
 91 93  1  0
 92 90  2  0
 94 91  1  0
 95 97  1  0
 95 70  1  0
 96 95  1  0
M  ISO  4   4 101   9 101  60 100  68 100
M  END
>  <TORSDO>  (81) 
F 18

>  <SCORE>  (81) 
28.103

>  <name>  (81) 
80

>  <ligand_id>  (81) 
80

>  <original_smiles>  (81) 
[H]c1c([H])c([H])c2c(c1[H])C([H])([H])C([H])([H])C([H])([H])C2([H])N([H])C(=O)C1([H])N(C(=O)C([H])(N([H])C(=O)C([H])(N([H])C([H])([H])[H])C([H])([H])[H])C(C([H])([H])[H])(C([H])([H])[H])C([H])([H])[H])C([H])([H])c2c([H])c(OC3([H])C([H])([H])C([H])([H])C([H])(C([H])([H])[H])[N+]([H])(C([H])([H])c4c(C([H])([H])[H])c(Cl)c([H])c(N([H])C(=O)N5C([H])([H])C([H])([H])C([H])([H])C([H])(n6nc(-c7c([H])c([H])c(Oc8c([H])c([H])c(F)c([H])c8F)c([H])c7[H])c(C(=O)N([H])[H])c6N([H])[H])C5([H])[H])c4C([H])([H])[H])C3([H])[H])c([H])c([H])c2C1([H])[H]

>  <smiles>  (81) 
[H]c1c([H])c([H])c2c(c1[H])C([H])([H])C([H])([H])C([H])([H])C2([H])N([H])C(=O)C1([H])N(C(=O)C([H])(N([H])C(=O)C([H])(N([H])C([H])([H])[H])C([H])([H])[H])C(C([H])([H])[H])(C([H])([H])[H])C([H])([H])[H])C([H])([H])c2c([H])c(OC3([H])C([H])([H])C([H])([H])C([H])(C([H])([H])[H])[N+]([H])(C([H])([H])c4c(C([H])([H])[H])c(Cl)c([H])c(N([H])C(=O)N5C([H])([H])C([H])([H])C([H])([H])C([H])(n6nc(-c7c([H])c([H])c(Oc8c([H])c([H])c(F)c([H])c8F)c([H])c7[H])c(C(=O)N([H])[H])c6N([H])[H])C5([H])[H])c4C([H])([H])[H])C3([H])[H])c([H])c([H])c2C1([H])[H]

$$$$
81:0:0
     RDKit          3D

 94102  0  0  1  0  0  0  0  0999 V2000
  -29.2300  -22.3230   19.2410 C   0  0  0  0  0  0  0  0  0  0  0  0
  -29.8780  -21.1580   19.3900 N   0  0  0  0  0  0  0  0  0  0  0  0
  -28.0050  -22.4130   19.3350 O   0  0  0  0  0  0  0  0  0  0  0  0
  -30.8830  -21.1570   19.2830 H   0  0  0  0  0  0  0  0  0  0  0  0
  -29.2430  -19.8660   19.6660 C   0  0  0  0  0  2  0  0  0  0  0  0
  -31.2050  -18.4670   22.7180 C   0  0  0  0  0  3  0  0  0  0  0  0
  -31.0820  -17.0850   22.4960 C   0  0  0  0  0  3  0  0  0  0  0  0
  -29.8690  -17.5420   20.4340 C   0  0  0  0  0  3  0  0  0  0  0  0
  -30.6390  -19.4020   21.8240 C   0  0  0  0  0  0  0  0  0  0  0  0
  -29.9670  -18.9390   20.6560 C   0  0  0  0  0  0  0  0  0  0  0  0
  -30.4140  -16.6140   21.3500 C   0  0  0  0  0  0  0  0  0  0  0  0
  -30.7310  -20.8740   22.1960 C   0  0  0  0  0  1  0  0  0  0  0  0
  -30.6850  -14.3930   20.2960 C   0  0  0  0  0  0  0  0  0  0  0  0
  -30.2950  -12.3120   19.0260 C   0  0  0  0  0  2  0  0  0  0  0  0
  -29.3120  -12.5860   17.8690 C   0  0  0  0  0  2  0  0  0  0  0  0
  -27.8520  -12.4550   18.3440 C   0  0  0  0  0  2  0  0  0  0  0  0
  -27.5800  -13.2530   19.6480 C   0  0  0  0  0  3  0  0  0  0  0  0
  -28.6610  -12.9440   20.7070 C   0  0  0  0  0  2  0  0  0  0  0  0
  -29.9840  -13.2420   20.1200 N   0  0  0  0  0  0  0  0  0  0  0  0
  -31.7150  -14.6630   19.6680 O   0  0  0  0  0  0  0  0  0  0  0  0
  -30.1710  -15.2240   21.2160 N   0  0  0  0  0  0  0  0  0  0  0  0
  -29.4030  -14.8520   21.7550 H   0  0  0  0  0  0  0  0  0  0  0  0
  -25.2070  -13.8930   20.4220 C   0  0  0  0  0  0  0  0  0  0  0  0
  -24.1400  -13.1330   20.8210 C   0  0  0  0  0  0  0  0  0  0  0  0
  -24.5820  -11.7760   20.7710 C   0  0  0  0  0  0  0  0  0  0  0  0
  -26.2340  -12.9990   20.1600 N   0  0  0  0  0  0  0  0  0  0  0  0
  -25.8610  -11.7210   20.4270 N   0  0  0  0  0  0  0  0  0  0  0  0
  -23.8450  -10.5230   20.9810 C   0  0  0  0  0  0  0  0  0  0  0  0
  -24.2880   -9.5520   21.9050 C   0  0  0  0  0  3  0  0  0  0  0  0
  -23.5550   -8.3620   22.1020 C   0  0  0  0  0  3  0  0  0  0  0  0
  -22.3630   -8.1350   21.3730 C   0  0  0  0  0  0  0  0  0  0  0  0
  -21.9390   -9.0940   20.4350 C   0  0  0  0  0  3  0  0  0  0  0  0
  -22.6730  -10.2750   20.2370 C   0  0  0  0  0  3  0  0  0  0  0  0
  -21.6000   -6.9980   21.4790 O   0  0  0  0  0  0  0  0  0  0  0  0
  -21.5660   -6.2570   22.6320 C   0  0  0  0  0  0  0  0  0  0  0  0
  -21.1680   -6.8160   23.8660 C   0  0  0  0  0  3  0  0  0  0  0  0
  -21.0810   -6.0020   25.0140 C   0  0  0  0  0  3  0  0  0  0  0  0
  -21.3830   -4.6310   24.9290 C   0  0  0  0  0  0  0  0  0  0  0  0
  -21.7750   -4.0700   23.7000 C   0  0  0  0  0  3  0  0  0  0  0  0
  -21.8640   -4.8810   22.5550 C   0  0  0  0  0  0  0  0  0  0  0  0
  -22.2200   -4.3320   21.3680 F   0  0  0  0  0  0  0  0  0  0  0  0
  -21.2920   -3.8460   26.0270 F   0  0  0  0  0  0  0  0  0  0  0  0
  -22.7580  -13.6270   21.1390 C   0  0  0  0  0  0  0  0  0  0  0  0
  -22.0480  -12.9360   22.0240 N   0  0  0  0  0  0  0  0  0  0  0  0
  -22.3160  -14.6590   20.6360 O   0  0  0  0  0  0  0  0  0  0  0  0
  -22.4210  -12.1010   22.4530 H   0  0  0  0  0  0  0  0  0  0  0  0
  -21.1200  -13.2430   22.2770 H   0  0  0  0  0  0  0  0  0  0  0  0
  -25.3870  -15.2610   20.2390 N   0  0  0  0  0  0  0  0  0  0  0  0
  -24.6360  -15.9310   20.3640 H   0  0  0  0  0  0  0  0  0  0  0  0
  -26.2400  -15.6830   19.8920 H   0  0  0  0  0  0  0  0  0  0  0  0
  -30.0720  -23.5600   18.8990 C   0  0  0  0  0  2  0  0  0  0  0  0
  -29.7940  -24.8190   19.7540 C   0  0  0  0  0  2  0  0  0  0  0  0
  -28.3990  -25.4480   19.5780 C   0  0  0  0  0  2  0  0  0  0  0  0
  -28.3890  -26.7690   20.1190 O   0  0  0  0  0  0  0  0  0  0  0  0
  -24.5830  -31.8960   23.2420 C   0  0  0  0  0  0  0  0  0  0  0  0
  -27.1960  -27.4650   20.1200 C   0  0  0  0  0  0  0  0  0  0  0  0
  -23.3630  -30.5140   21.5930 C   0  0  0  0  0  3  0  0  0  0  0  0
  -24.8020  -28.9790   20.1550 C   0  0  0  0  0  0  0  0  0  0  0  0
  -25.8900  -30.8580   21.3920 C   0  0  0  0  0  2  0  0  0  0  0  0
  -25.9650  -29.4920   20.7440 C   0  0  0  0  0  0  0  0  0  0  0  0
  -27.1610  -28.7410   20.7270 C   0  0  0  0  0  3  0  0  0  0  0  0
  -26.0080  -26.9590   19.5400 C   0  0  0  0  0  3  0  0  0  0  0  0
  -24.8180  -27.7100   19.5540 C   0  0  0  0  0  3  0  0  0  0  0  0
  -23.5650  -29.8460   20.2070 C   0  0  0  0  0  2  0  0  0  0  0  0
  -24.6310  -31.1030   22.1340 N   0  0  0  0  0  0  0  0  0  0  0  0
  -23.5040  -32.1720   23.7850 O   0  0  0  0  0  0  0  0  0  0  0  0
  -22.7090  -29.4880   22.5450 C   0  0  0  0  0  0  0  0  0  0  0  0
  -21.3840  -29.3120   22.4140 N   0  0  0  0  0  0  0  0  0  0  0  0
  -23.3880  -28.8560   23.3580 O   0  0  0  0  0  0  0  0  0  0  0  0
  -20.8960  -29.8760   21.7330 H   0  0  0  0  0  0  0  0  0  0  0  0
  -18.0040  -28.1350   22.9070 C   0  0  0  0  0  0  0  0  0  0  0  0
  -20.5620  -28.3730   23.1790 C   0  0  0  0  0  3  0  0  0  0  0  0
  -20.6570  -26.9460   22.5930 C   0  0  0  0  0  2  0  0  0  0  0  0
  -19.5520  -26.6370   21.5770 C   0  0  0  0  0  2  0  0  0  0  0  0
  -18.1720  -26.7880   22.2220 C   0  0  0  0  0  2  0  0  0  0  0  0
  -19.1280  -28.8850   23.3420 C   0  0  0  0  0  0  0  0  0  0  0  0
  -18.9190  -30.1470   23.9420 C   0  0  0  0  0  3  0  0  0  0  0  0
  -17.6190  -30.6590   24.1100 C   0  0  0  0  0  3  0  0  0  0  0  0
  -16.5090  -29.9040   23.6920 C   0  0  0  0  0  3  0  0  0  0  0  0
  -16.7020  -28.6440   23.0980 C   0  0  0  0  0  3  0  0  0  0  0  0
  -25.8740  -32.5150   23.8630 C   0  0  0  0  0  3  0  0  0  0  0  0
  -25.5780  -33.9130   24.1990 N   0  0  0  0  0  0  0  0  0  0  0  0
  -25.9160  -34.9640   23.4420 C   0  0  0  0  0  0  0  0  0  0  0  0
  -26.5830  -34.8600   22.4090 O   0  0  0  0  0  0  0  0  0  0  0  0
  -24.9910  -34.0720   25.0060 H   0  0  0  0  0  0  0  0  0  0  0  0
  -24.2020  -36.7730   23.0900 C   0  0  0  0  0  1  0  0  0  0  0  0
  -25.4360  -36.3540   23.9040 C   0  0  0  0  0  3  0  0  0  0  0  0
  -27.5730  -37.2180   24.7500 C   0  0  0  0  0  1  0  0  0  0  0  0
  -26.4780  -37.4000   23.8010 N   0  0  0  0  0  0  0  0  0  0  0  0
  -26.0780  -38.3220   23.9530 H   0  0  0  0  0  0  0  0  0  0  0  0
  -26.3910  -31.7330   25.1320 C   0  0  1  0  0  0  0  0  0  0  0  0
  -25.3010  -31.4920   26.2020 C   0  0  0  0  0  1  0  0  0  0  0  0
  -26.9670  -30.3560   24.7260 C   0  0  0  0  0  1  0  0  0  0  0  0
  -27.5480  -32.5170   25.7960 C   0  0  0  0  0  1  0  0  0  0  0  0
  1  3  2  0
  1  2  1  0
  2  5  1  0
  4  2  1  0
  5 10  1  0
  7  6  1  0
  8 10  2  0
  8 11  1  0
  9 12  1  0
  9  6  2  0
 10  9  1  0
 11  7  2  0
 13 21  1  0
 14 19  1  0
 15 16  1  0
 15 14  1  0
 17 16  1  0
 17 26  1  0
 17 18  1  0
 19 13  1  0
 19 18  1  0
 20 13  2  0
 21 11  1  0
 21 22  1  0
 23 24  2  0
 24 43  1  0
 25 24  1  0
 25 28  1  0
 26 23  1  0
 26 27  1  0
 27 25  2  0
 28 29  1  0
 29 30  2  0
 31 34  1  0
 31 30  1  0
 32 31  2  0
 33 32  1  0
 33 28  2  0
 34 35  1  0
 35 36  1  0
 36 37  2  0
 38 37  1  0
 38 42  1  0
 39 38  2  0
 40 35  2  0
 40 39  1  0
 41 40  1  0
 43 44  1  0
 44 47  1  0
 44 46  1  0
 45 43  2  0
 48 49  1  0
 48 23  1  0
 50 48  1  0
 51  1  1  0
 51 52  1  0
 53 52  1  0
 53 54  1  0
 54 56  1  0
 55 66  2  0
 56 61  1  0
 57 65  1  0
 57 67  1  0
 58 64  1  0
 58 60  1  0
 59 65  1  0
 60 59  1  0
 61 60  2  0
 62 63  1  0
 62 56  2  0
 63 58  2  0
 64 57  1  0
 65 55  1  0
 67 69  2  0
 68 67  1  0
 70 68  1  0
 71 80  2  0
 71 76  1  0
 72 68  1  0
 72 76  1  0
 73 72  1  0
 74 75  1  0
 74 73  1  0
 75 71  1  0
 76 77  2  0
 77 78  1  0
 79 78  2  0
 80 79  1  0
 81 55  1  0
 81 82  1  0
 81 91  1  0
 82 85  1  0
 83 87  1  0
 83 82  1  0
 84 83  2  0
 87 86  1  0
 89 87  1  0
 89 90  1  0
 89 88  1  0
 91 94  1  1
 91 92  1  0
 93 91  1  0
M  ISO  4  13 100  21 100  53 101  54 101
M  END
>  <TORSDO>  (82) 
F 21

>  <SCORE>  (82) 
-13.297

>  <name>  (82) 
81

>  <ligand_id>  (82) 
81

>  <original_smiles>  (82) 
[H]c1c([H])c([H])c2c(c1[H])C([H])([H])C([H])([H])C([H])([H])C2([H])N([H])C(=O)C1([H])N(C(=O)C([H])(N([H])C(=O)C([H])(N([H])C([H])([H])[H])C([H])([H])[H])C(C([H])([H])[H])(C([H])([H])[H])C([H])([H])[H])C([H])([H])c2c([H])c(OC([H])([H])C([H])([H])C([H])([H])C(=O)N([H])C([H])([H])c3c([H])c(N([H])C(=O)N4C([H])([H])C([H])([H])C([H])([H])C([H])(n5nc(-c6c([H])c([H])c(Oc7c([H])c([H])c(F)c([H])c7F)c([H])c6[H])c(C(=O)N([H])[H])c5N([H])[H])C4([H])[H])c([H])c([H])c3C([H])([H])[H])c([H])c([H])c2C1([H])[H]

>  <smiles>  (82) 
[H]c1c([H])c([H])c2c(c1[H])C([H])([H])C([H])([H])C([H])([H])C2([H])N([H])C(=O)C1([H])N(C(=O)C([H])(N([H])C(=O)C([H])(N([H])C([H])([H])[H])C([H])([H])[H])C(C([H])([H])[H])(C([H])([H])[H])C([H])([H])[H])C([H])([H])c2c([H])c(OC([H])([H])C([H])([H])C([H])([H])C(=O)N([H])C([H])([H])c3c([H])c(N([H])C(=O)N4C([H])([H])C([H])([H])C([H])([H])C([H])(n5nc(-c6c([H])c([H])c(Oc7c([H])c([H])c(F)c([H])c7F)c([H])c6[H])c(C(=O)N([H])[H])c5N([H])[H])C4([H])[H])c([H])c([H])c3C([H])([H])[H])c([H])c([H])c2C1([H])[H]

$$$$
82:0:0
     RDKit          3D

116125  0  0  1  0  0  0  0  0999 V2000
  -28.8640  -24.5050   21.5710 C   0  0  0  0  0  0  0  0  0  0  0  0
  -27.5510  -24.8220   21.6620 C   0  0  0  0  0  3  0  0  0  0  0  0
  -31.2980  -25.0220   20.0150 C   0  0  0  0  0  2  0  0  0  0  0  0
  -30.8780  -25.9590   21.1650 C   0  0  0  0  0  2  0  0  0  0  0  0
  -30.1230  -24.1740   19.4810 C   0  0  0  0  0  2  0  0  0  0  0  0
  -30.0160  -25.2570   22.2510 C   0  0  0  0  0  3  0  0  0  0  0  0
  -29.4840  -23.5050   20.6390 N   0  0  2  0  0  4  0  0  0  0  0  0
  -30.3140  -23.2150   21.1310 H   0  0  0  0  0  0  0  0  0  0  0  0
  -26.4620  -24.3410   20.8430 C   0  0  0  0  0  3  0  0  0  0  0  0
  -25.2150  -24.2130   21.3320 C   0  0  0  0  0  3  0  0  0  0  0  0
  -24.0570  -23.8310   20.5490 C   0  0  0  0  0  3  0  0  0  0  0  0
  -23.2330  -24.7170   19.9650 C   0  0  0  0  0  3  0  0  0  0  0  0
  -22.0300  -24.3400   19.2610 C   0  0  0  0  0  3  0  0  0  0  0  0
  -20.8800  -25.0160   19.4090 C   0  0  0  0  0  3  0  0  0  0  0  0
  -19.6350  -24.5970   18.8030 C   0  0  0  0  0  3  0  0  0  0  0  0
  -18.4400  -24.9120   19.3260 C   0  0  0  0  0  3  0  0  0  0  0  0
  -17.1960  -24.4220   18.7710 C   0  0  0  0  0  3  0  0  0  0  0  0
  -16.0100  -24.5800   19.3800 C   0  0  0  0  0  3  0  0  0  0  0  0
  -14.7850  -24.0470   18.8270 C   0  0  0  0  0  3  0  0  0  0  0  0
  -13.5770  -24.2590   19.3730 C   0  0  0  0  0  3  0  0  0  0  0  0
  -12.3670  -23.7150   18.7940 C   0  0  0  0  0  3  0  0  0  0  0  0
  -11.1450  -24.1990   19.0650 C   0  0  0  0  0  3  0  0  0  0  0  0
   -9.9460  -23.6690   18.4500 C   0  0  0  0  0  3  0  0  0  0  0  0
   -8.7780  -24.3290   18.4650 C   0  0  0  0  0  3  0  0  0  0  0  0
   -7.5830  -23.8290   17.8200 C   0  0  0  0  0  3  0  0  0  0  0  0
   -6.4560  -24.5530   17.7280 C   0  0  0  0  0  3  0  0  0  0  0  0
   -5.1920  -24.0790   17.0470 C   0  0  0  0  0  1  0  0  0  0  0  0
  -28.8820  -22.1400   20.5030 C   0  0  0  0  0  2  0  0  0  0  0  0
  -30.7940  -20.9670   19.2690 C   0  0  0  0  0  3  0  0  0  0  0  0
  -28.5210  -20.5090   18.5620 C   0  0  0  0  0  3  0  0  0  0  0  0
  -29.4110  -21.2060   19.4030 C   0  0  0  0  0  0  0  0  0  0  0  0
  -31.2970  -20.1130   18.2650 C   0  0  0  0  0  0  0  0  0  0  0  0
  -28.9990  -19.5940   17.6000 C   0  0  0  0  0  0  0  0  0  0  0  0
  -30.3930  -19.3760   17.4460 C   0  0  0  0  0  0  0  0  0  0  0  0
  -32.8060  -20.0850   18.0830 C   0  0  0  0  0  1  0  0  0  0  0  0
  -27.9940  -18.8490   16.7350 C   0  0  0  0  0  1  0  0  0  0  0  0
  -31.6800  -17.4930   16.3750 C   0  0  0  0  0  0  0  0  0  0  0  0
  -33.3580  -16.4840   14.8800 C   0  0  0  0  0  2  0  0  0  0  0  0
  -34.3170  -17.5920   14.3950 C   0  0  0  0  0  2  0  0  0  0  0  0
  -33.7540  -18.3060   13.1490 C   0  0  0  0  0  2  0  0  0  0  0  0
  -32.2720  -18.7380   13.3200 C   0  0  0  0  0  3  0  0  0  0  0  0
  -31.4290  -17.5660   13.8680 C   0  0  0  0  0  2  0  0  0  0  0  0
  -32.0490  -17.1070   15.1250 N   0  0  0  0  0  0  0  0  0  0  0  0
  -32.1940  -17.0320   17.3960 O   0  0  0  0  0  0  0  0  0  0  0  0
  -30.7960  -18.5070   16.3870 N   0  0  0  0  0  0  0  0  0  0  0  0
  -30.3560  -18.6770   15.4990 H   0  0  0  0  0  0  0  0  0  0  0  0
  -31.8710  -20.5210   11.5080 C   0  0  0  0  0  0  0  0  0  0  0  0
  -31.2100  -20.4730   10.3090 C   0  0  0  0  0  0  0  0  0  0  0  0
  -30.6840  -19.1490   10.2020 C   0  0  0  0  0  0  0  0  0  0  0  0
  -31.7200  -19.2650   12.0750 N   0  0  0  0  0  0  0  0  0  0  0  0
  -30.9560  -18.4540   11.3000 N   0  0  0  0  0  0  0  0  0  0  0  0
  -29.9870  -18.4820    9.0960 C   0  0  0  0  0  0  0  0  0  0  0  0
  -28.6530  -18.0370    9.2240 C   0  0  0  0  0  3  0  0  0  0  0  0
  -28.0010  -17.4140    8.1390 C   0  0  0  0  0  3  0  0  0  0  0  0
  -28.6790  -17.2350    6.9090 C   0  0  0  0  0  0  0  0  0  0  0  0
  -30.0140  -17.6610    6.7950 C   0  0  0  0  0  3  0  0  0  0  0  0
  -30.6660  -18.2760    7.8760 C   0  0  0  0  0  3  0  0  0  0  0  0
  -28.1340  -16.6220    5.8090 O   0  0  0  0  0  0  0  0  0  0  0  0
  -26.7900  -16.6950    5.5370 C   0  0  0  0  0  0  0  0  0  0  0  0
  -26.1830  -17.8900    5.0960 C   0  0  0  0  0  3  0  0  0  0  0  0
  -24.8150  -17.8990    4.7570 C   0  0  0  0  0  3  0  0  0  0  0  0
  -24.0560  -16.7180    4.8530 C   0  0  0  0  0  0  0  0  0  0  0  0
  -24.6600  -15.5260    5.2900 C   0  0  0  0  0  3  0  0  0  0  0  0
  -26.0250  -15.5150    5.6280 C   0  0  0  0  0  0  0  0  0  0  0  0
  -26.6060  -14.3590    6.0260 F   0  0  0  0  0  0  0  0  0  0  0  0
  -22.7460  -16.7210    4.5180 F   0  0  0  0  0  0  0  0  0  0  0  0
  -31.1490  -21.5610    9.2760 C   0  0  0  0  0  0  0  0  0  0  0  0
  -29.9990  -21.7300    8.6320 N   0  0  0  0  0  0  0  0  0  0  0  0
  -32.1120  -22.2980    9.0630 O   0  0  0  0  0  0  0  0  0  0  0  0
  -29.2040  -21.1340    8.8120 H   0  0  0  0  0  0  0  0  0  0  0  0
  -29.9120  -22.4610    7.9420 H   0  0  0  0  0  0  0  0  0  0  0  0
  -32.5980  -21.5170   12.1530 N   0  0  0  0  0  0  0  0  0  0  0  0
  -32.7780  -22.4190   11.7290 H   0  0  0  0  0  0  0  0  0  0  0  0
  -33.0790  -21.3970   13.0340 H   0  0  0  0  0  0  0  0  0  0  0  0
  -29.5190  -26.2750   23.2920 C   0  0  0  0  0  2  0  0  0  0  0  0
  -30.5680  -26.6850   24.1570 O   0  0  0  0  0  0  0  0  0  0  0  0
  -28.7100  -31.3790   29.1380 C   0  0  0  0  0  0  0  0  0  0  0  0
  -30.4560  -28.0040   24.5020 C   0  0  0  0  0  0  0  0  0  0  0  0
  -29.0690  -32.2970   26.8680 C   0  0  0  0  0  3  0  0  0  0  0  0
  -30.1600  -30.7120   25.1980 C   0  0  0  0  0  0  0  0  0  0  0  0
  -30.3010  -30.1950   27.6420 C   0  0  0  0  0  2  0  0  0  0  0  0
  -30.3090  -29.7430   26.1990 C   0  0  0  0  0  0  0  0  0  0  0  0
  -30.4640  -28.3840   25.8580 C   0  0  0  0  0  3  0  0  0  0  0  0
  -30.2980  -28.9820   23.5000 C   0  0  0  0  0  3  0  0  0  0  0  0
  -30.1460  -30.3380   23.8440 C   0  0  0  0  0  3  0  0  0  0  0  0
  -30.0190  -32.1460   25.6510 C   0  0  0  0  0  2  0  0  0  0  0  0
  -29.3240  -31.2670   27.9270 N   0  0  0  0  0  0  0  0  0  0  0  0
  -27.9790  -32.3450   29.3950 O   0  0  0  0  0  0  0  0  0  0  0  0
  -27.6130  -32.3010   26.3560 C   0  0  0  0  0  0  0  0  0  0  0  0
  -27.1870  -33.4410   25.7850 N   0  0  0  0  0  0  0  0  0  0  0  0
  -26.9040  -31.2960   26.4520 O   0  0  0  0  0  0  0  0  0  0  0  0
  -27.8250  -34.2240   25.7540 H   0  0  0  0  0  0  0  0  0  0  0  0
  -25.4340  -35.2510   23.1980 C   0  0  0  0  0  0  0  0  0  0  0  0
  -25.8680  -33.6710   25.1960 C   0  0  0  0  0  3  0  0  0  0  0  0
  -25.4730  -32.5190   24.2420 C   0  0  0  0  0  2  0  0  0  0  0  0
  -25.8520  -32.7890   22.7830 C   0  0  0  0  0  2  0  0  0  0  0  0
  -25.1780  -34.0680   22.2790 C   0  0  0  0  0  2  0  0  0  0  0  0
  -25.7740  -35.0640   24.5640 C   0  0  0  0  0  0  0  0  0  0  0  0
  -26.0370  -36.1950   25.3660 C   0  0  0  0  0  3  0  0  0  0  0  0
  -25.9620  -37.4940   24.8280 C   0  0  0  0  0  3  0  0  0  0  0  0
  -25.6040  -37.6750   23.4810 C   0  0  0  0  0  3  0  0  0  0  0  0
  -25.3380  -36.5570   22.6700 C   0  0  0  0  0  3  0  0  0  0  0  0
  -28.9180  -30.3160   30.2620 C   0  0  0  0  0  3  0  0  0  0  0  0
  -28.8330  -31.0150   31.5500 N   0  0  0  0  0  0  0  0  0  0  0  0
  -29.8310  -31.7190   32.0980 C   0  0  0  0  0  0  0  0  0  0  0  0
  -30.9590  -31.7850   31.5990 O   0  0  0  0  0  0  0  0  0  0  0  0
  -27.9240  -31.0470   31.9900 H   0  0  0  0  0  0  0  0  0  0  0  0
  -29.8150  -33.9670   33.2230 C   0  0  0  0  0  1  0  0  0  0  0  0
  -29.5330  -32.4680   33.4110 C   0  0  0  0  0  3  0  0  0  0  0  0
  -29.9790  -30.5740   34.9070 C   0  0  0  0  0  1  0  0  0  0  0  0
  -30.2980  -31.9590   34.5700 N   0  0  0  0  0  0  0  0  0  0  0  0
  -30.1240  -32.5300   35.3930 H   0  0  0  0  0  0  0  0  0  0  0  0
  -27.8750  -29.1310   30.1980 C   0  0  1  0  0  0  0  0  0  0  0  0
  -26.4040  -29.5940   30.3090 C   0  0  0  0  0  1  0  0  0  0  0  0
  -28.0260  -28.3450   28.8740 C   0  0  0  0  0  1  0  0  0  0  0  0
  -28.1450  -28.1290   31.3440 C   0  0  0  0  0  1  0  0  0  0  0  0
  1  2  2  0
  1  6  1  0
  3  4  1  0
  4  6  1  0
  5  3  1  0
  5  7  1  0
  6 75  1  0
  7  8  1  1
  7  1  1  0
  9 10  2  0
  9  2  1  0
 11 10  1  0
 12 11  2  0
 13 14  2  0
 13 12  1  0
 15 16  2  0
 15 14  1  0
 17 16  1  0
 17 18  2  0
 19 20  2  0
 19 18  1  0
 21 22  2  0
 21 20  1  0
 23 24  2  0
 23 22  1  0
 25 24  1  0
 26 25  2  0
 27 26  1  0
 28  7  1  0
 29 31  1  0
 30 31  2  0
 31 28  1  0
 32 29  2  0
 33 30  1  0
 34 33  2  0
 34 32  1  0
 35 32  1  0
 36 33  1  0
 37 45  1  0
 37 44  2  0
 38 43  1  0
 39 38  1  0
 40 41  1  0
 40 39  1  0
 41 50  1  0
 41 42  1  0
 42 43  1  0
 43 37  1  0
 45 34  1  0
 46 45  1  0
 47 50  1  0
 47 72  1  0
 48 47  2  0
 49 48  1  0
 49 51  2  0
 51 50  1  0
 52 53  1  0
 52 49  1  0
 54 53  2  0
 55 54  1  0
 56 55  2  0
 56 57  1  0
 57 52  2  0
 58 55  1  0
 59 64  1  0
 59 58  1  0
 60 59  2  0
 61 62  2  0
 61 60  1  0
 62 63  1  0
 63 64  2  0
 64 65  1  0
 66 62  1  0
 67 48  1  0
 68 70  1  0
 68 67  1  0
 69 67  2  0
 71 68  1  0
 72 74  1  0
 73 72  1  0
 75 76  1  0
 76 78  1  0
 77 88  2  0
 78 83  1  0
 79 89  1  0
 79 87  1  0
 80 86  1  0
 80 82  1  0
 81 87  1  0
 82 81  1  0
 83 82  2  0
 84 85  1  0
 84 78  2  0
 85 80  2  0
 86 79  1  0
 87 77  1  0
 89 91  2  0
 90 89  1  0
 92 90  1  0
 93 98  1  0
 94 90  1  0
 95 94  1  0
 96 95  1  0
 97 96  1  0
 97 93  1  0
 98 94  1  0
 98 99  2  0
100 99  1  0
101100  2  0
102 93  2  0
102101  1  0
103 77  1  0
103104  1  0
104107  1  0
104105  1  0
105109  1  0
106105  2  0
109108  1  0
109111  1  0
111110  1  0
111112  1  0
113103  1  0
113114  1  1
113116  1  0
115113  1  0
M  ISO  4  37 100  45 100  75 101  76 101
M  END
>  <TORSDO>  (83) 
F 28

>  <SCORE>  (83) 
-4.476

>  <name>  (83) 
82

>  <ligand_id>  (83) 
82

>  <original_smiles>  (83) 
[H]C(C([H])=C([H])C([H])=C([H])C([H])=C([H])C([H])=C([H])C([H])=C1C([H])(C([H])([H])Oc2c([H])c([H])c3c(c2[H])C([H])([H])N(C(=O)C([H])(N([H])C(=O)C([H])(N([H])C([H])([H])[H])C([H])([H])[H])C(C([H])([H])[H])(C([H])([H])[H])C([H])([H])[H])C([H])(C(=O)N([H])C2([H])c4c([H])c([H])c([H])c([H])c4C([H])([H])C([H])([H])C2([H])[H])C3([H])[H])C([H])([H])C([H])([H])C([H])([H])[N+]1([H])C([H])([H])c1c([H])c(C([H])([H])[H])c(N([H])C(=O)N2C([H])([H])C([H])([H])C([H])([H])C([H])(n3nc(-c4c([H])c([H])c(Oc5c([H])c([H])c(F)c([H])c5F)c([H])c4[H])c(C(=O)N([H])[H])c3N([H])[H])C2([H])[H])c(C([H])([H])[H])c1[H])=C([H])C([H])=C([H])C([H])=C([H])C([H])=C([H])C([H])=C([H])C([H])([H])[H]

>  <smiles>  (83) 
[H]C(C([H])=C([H])C([H])=C([H])C([H])=C([H])C([H])=C([H])C([H])=C1C([H])(C([H])([H])Oc2c([H])c([H])c3c(c2[H])C([H])([H])N(C(=O)C([H])(N([H])C(=O)C([H])(N([H])C([H])([H])[H])C([H])([H])[H])C(C([H])([H])[H])(C([H])([H])[H])C([H])([H])[H])C([H])(C(=O)N([H])C2([H])c4c([H])c([H])c([H])c([H])c4C([H])([H])C([H])([H])C2([H])[H])C3([H])[H])C([H])([H])C([H])([H])C([H])([H])[N+]1([H])C([H])([H])c1c([H])c(C([H])([H])[H])c(N([H])C(=O)N2C([H])([H])C([H])([H])C([H])([H])C([H])(n3nc(-c4c([H])c([H])c(Oc5c([H])c([H])c(F)c([H])c5F)c([H])c4[H])c(C(=O)N([H])[H])c3N([H])[H])C2([H])[H])c(C([H])([H])[H])c1[H])=C([H])C([H])=C([H])C([H])=C([H])C([H])=C([H])C([H])=C([H])C([H])([H])[H]

$$$$
83:0:0
     RDKit          3D

100109  0  0  1  0  0  0  0  0999 V2000
  -27.9570  -23.8450   20.6160 C   0  0  0  0  0  0  0  0  0  0  0  0
  -26.6400  -23.7330   20.3230 C   0  0  0  0  0  3  0  0  0  0  0  0
  -29.7400  -24.1940   23.7260 C   0  0  0  0  0  2  0  0  0  0  0  0
  -28.2770  -24.6380   23.5740 C   0  0  0  0  0  2  0  0  0  0  0  0
  -30.0510  -22.8150   23.1210 C   0  0  0  0  0  2  0  0  0  0  0  0
  -28.0470  -25.6790   22.4700 C   0  0  0  0  0  2  0  0  0  0  0  0
  -30.1490  -22.7100   21.5840 C   0  0  0  0  0  2  0  0  0  0  0  0
  -28.5210  -25.2920   21.0500 C   0  0  0  0  0  3  0  0  0  0  0  0
  -28.8350  -22.5210   20.8990 N   0  0  2  0  0  4  0  0  0  0  0  0
  -28.3440  -22.0670   21.6530 H   0  0  0  0  0  0  0  0  0  0  0  0
  -24.6500  -22.5000   19.6050 C   0  0  0  0  0  2  0  0  0  0  0  0
  -25.8220  -22.5350   20.2560 C   0  0  0  0  0  3  0  0  0  0  0  0
  -28.3690  -26.5240   20.1920 O   0  0  0  0  0  0  0  0  0  0  0  0
  -24.6040  -31.9740   23.2540 C   0  0  0  0  0  0  0  0  0  0  0  0
  -27.2600  -27.3980   20.2300 C   0  0  0  0  0  0  0  0  0  0  0  0
  -23.4320  -30.5830   21.5850 C   0  0  0  0  0  3  0  0  0  0  0  0
  -24.9090  -29.0380   20.1750 C   0  0  0  0  0  0  0  0  0  0  0  0
  -25.9740  -30.8950   21.4520 C   0  0  0  0  0  2  0  0  0  0  0  0
  -26.0660  -29.5120   20.8060 C   0  0  0  0  0  0  0  0  0  0  0  0
  -27.2480  -28.7030   20.8280 C   0  0  0  0  0  3  0  0  0  0  0  0
  -26.0970  -27.0050   19.5420 C   0  0  0  0  0  3  0  0  0  0  0  0
  -24.9280  -27.7910   19.5320 C   0  0  0  0  0  3  0  0  0  0  0  0
  -23.6730  -29.9180   20.2030 C   0  0  0  0  0  2  0  0  0  0  0  0
  -24.6880  -31.1690   22.1540 N   0  0  0  0  0  0  0  0  0  0  0  0
  -23.5100  -32.2480   23.7710 O   0  0  0  0  0  0  0  0  0  0  0  0
  -22.7540  -29.5590   22.5280 C   0  0  0  0  0  0  0  0  0  0  0  0
  -21.4270  -29.3960   22.3920 N   0  0  0  0  0  0  0  0  0  0  0  0
  -23.4220  -28.9160   23.3410 O   0  0  0  0  0  0  0  0  0  0  0  0
  -20.9480  -29.9680   21.7100 H   0  0  0  0  0  0  0  0  0  0  0  0
  -18.0290  -28.2520   22.8850 C   0  0  0  0  0  0  0  0  0  0  0  0
  -20.5930  -28.4540   23.1420 C   0  0  0  0  0  3  0  0  0  0  0  0
  -20.6630  -27.0360   22.5270 C   0  0  0  0  0  2  0  0  0  0  0  0
  -19.5470  -26.7630   21.5130 C   0  0  0  0  0  2  0  0  0  0  0  0
  -18.1730  -26.9170   22.1730 C   0  0  0  0  0  2  0  0  0  0  0  0
  -19.1660  -28.9810   23.3250 C   0  0  0  0  0  0  0  0  0  0  0  0
  -18.9790  -30.2300   23.9530 C   0  0  0  0  0  3  0  0  0  0  0  0
  -17.6860  -30.7530   24.1440 C   0  0  0  0  0  3  0  0  0  0  0  0
  -16.5640  -30.0210   23.7210 C   0  0  0  0  0  3  0  0  0  0  0  0
  -16.7350  -28.7720   23.0980 C   0  0  0  0  0  3  0  0  0  0  0  0
  -25.8730  -32.6050   23.9010 C   0  0  0  0  0  3  0  0  0  0  0  0
  -26.3570  -31.8380   25.1920 C   0  0  1  0  0  0  0  0  0  0  0  0
  -25.2380  -31.6110   26.2370 C   0  0  0  0  0  1  0  0  0  0  0  0
  -26.9450  -30.4580   24.8200 C   0  0  0  0  0  1  0  0  0  0  0  0
  -27.4920  -32.6350   25.8790 C   0  0  0  0  0  1  0  0  0  0  0  0
  -25.5590  -34.0050   24.2200 N   0  0  0  0  0  0  0  0  0  0  0  0
  -25.8930  -35.0560   23.4590 C   0  0  0  0  0  0  0  0  0  0  0  0
  -26.5680  -34.9480   22.4310 O   0  0  0  0  0  0  0  0  0  0  0  0
  -24.9570  -34.1610   25.0150 H   0  0  0  0  0  0  0  0  0  0  0  0
  -24.1530  -36.8370   23.1050 C   0  0  0  0  0  1  0  0  0  0  0  0
  -25.4030  -36.4470   23.9080 C   0  0  0  0  0  3  0  0  0  0  0  0
  -27.5390  -37.3520   24.7080 C   0  0  0  0  0  1  0  0  0  0  0  0
  -26.4270  -37.5040   23.7740 N   0  0  0  0  0  0  0  0  0  0  0  0
  -26.0180  -38.4220   23.9170 H   0  0  0  0  0  0  0  0  0  0  0  0
  -28.8140  -21.3300   19.8870 C   0  0  0  0  0  2  0  0  0  0  0  0
  -31.6220  -17.8380   19.5930 C   0  0  0  0  0  3  0  0  0  0  0  0
  -29.4510  -18.6940   20.2110 C   0  0  0  0  0  3  0  0  0  0  0  0
  -32.0210  -19.1390   19.2280 C   0  0  0  0  0  0  0  0  0  0  0  0
  -29.8260  -20.0720   19.8700 C   0  0  0  0  0  0  0  0  0  0  0  0
  -31.1290  -20.2370   19.3080 C   0  0  0  0  0  0  0  0  0  0  0  0
  -30.3200  -17.5280   20.0490 C   0  0  0  0  0  0  0  0  0  0  0  0
  -33.4370  -19.3190   18.6960 C   0  0  0  0  0  1  0  0  0  0  0  0
  -31.6090  -21.5740   18.7320 C   0  0  0  0  0  1  0  0  0  0  0  0
  -30.6170  -14.8950   20.0790 C   0  0  0  0  0  0  0  0  0  0  0  0
  -30.3210  -12.6160   19.0970 C   0  0  0  0  0  2  0  0  0  0  0  0
  -29.3540  -12.6850   17.8960 C   0  0  0  0  0  2  0  0  0  0  0  0
  -27.9000  -12.5170   18.3730 C   0  0  0  0  0  2  0  0  0  0  0  0
  -27.5640  -13.4160   19.5940 C   0  0  0  0  0  3  0  0  0  0  0  0
  -28.6590  -13.3610   20.6830 C   0  0  0  0  0  2  0  0  0  0  0  0
  -29.9350  -13.6950   20.0390 N   0  0  0  0  0  0  0  0  0  0  0  0
  -31.8030  -14.8850   19.7490 O   0  0  0  0  0  0  0  0  0  0  0  0
  -29.9260  -16.0950   20.2900 N   0  0  0  0  0  0  0  0  0  0  0  0
  -28.9630  -15.9600   20.5590 H   0  0  0  0  0  0  0  0  0  0  0  0
  -25.2050  -14.0030   20.4000 C   0  0  0  0  0  0  0  0  0  0  0  0
  -24.1500  -13.2290   20.8000 C   0  0  0  0  0  0  0  0  0  0  0  0
  -24.6100  -11.8770   20.7540 C   0  0  0  0  0  0  0  0  0  0  0  0
  -26.2390  -13.1240   20.1300 N   0  0  0  0  0  0  0  0  0  0  0  0
  -25.8910  -11.8390   20.4080 N   0  0  0  0  0  0  0  0  0  0  0  0
  -23.8870  -10.6160   20.9630 C   0  0  0  0  0  0  0  0  0  0  0  0
  -24.3400   -9.6480   21.8870 C   0  0  0  0  0  3  0  0  0  0  0  0
  -23.6170   -8.4520   22.0850 C   0  0  0  0  0  3  0  0  0  0  0  0
  -22.4250   -8.2150   21.3580 C   0  0  0  0  0  0  0  0  0  0  0  0
  -21.9920   -9.1710   20.4230 C   0  0  0  0  0  3  0  0  0  0  0  0
  -22.7150  -10.3580   20.2230 C   0  0  0  0  0  3  0  0  0  0  0  0
  -21.6720   -7.0710   21.4670 O   0  0  0  0  0  0  0  0  0  0  0  0
  -21.6470   -6.3310   22.6210 C   0  0  0  0  0  0  0  0  0  0  0  0
  -21.2510   -6.8910   23.8560 C   0  0  0  0  0  3  0  0  0  0  0  0
  -21.1730   -6.0770   25.0040 C   0  0  0  0  0  3  0  0  0  0  0  0
  -21.4810   -4.7060   24.9190 C   0  0  0  0  0  0  0  0  0  0  0  0
  -21.8700   -4.1460   23.6880 C   0  0  0  0  0  3  0  0  0  0  0  0
  -21.9500   -4.9570   22.5430 C   0  0  0  0  0  0  0  0  0  0  0  0
  -22.3040   -4.4090   21.3560 F   0  0  0  0  0  0  0  0  0  0  0  0
  -21.3990   -3.9230   26.0200 F   0  0  0  0  0  0  0  0  0  0  0  0
  -22.7620  -13.7080   21.1120 C   0  0  0  0  0  0  0  0  0  0  0  0
  -22.0580  -13.0110   21.9970 N   0  0  0  0  0  0  0  0  0  0  0  0
  -22.3110  -14.7340   20.6050 O   0  0  0  0  0  0  0  0  0  0  0  0
  -22.4370  -12.1800   22.4280 H   0  0  0  0  0  0  0  0  0  0  0  0
  -21.1280  -13.3120   22.2500 H   0  0  0  0  0  0  0  0  0  0  0  0
  -25.3630  -15.3730   20.2170 N   0  0  0  0  0  0  0  0  0  0  0  0
  -24.5950  -16.0240   20.3410 H   0  0  0  0  0  0  0  0  0  0  0  0
  -26.1930  -15.8090   19.8340 H   0  0  0  0  0  0  0  0  0  0  0  0
  1  9  1  0
  1  8  1  0
  2  1  2  0
  4  3  1  0
  5  3  1  0
  6  4  1  0
  7  5  1  0
  8 13  1  0
  8  6  1  0
  9  7  1  0
  9 10  1  1
 11 12  2  0
 12  2  1  0
 13 15  1  0
 14 25  2  0
 15 20  1  0
 16 24  1  0
 16 26  1  0
 17 23  1  0
 17 19  1  0
 18 24  1  0
 19 20  2  0
 19 18  1  0
 21 15  2  0
 22 21  1  0
 22 17  2  0
 23 16  1  0
 24 14  1  0
 26 28  2  0
 27 26  1  0
 29 27  1  0
 30 39  2  0
 30 35  1  0
 31 27  1  0
 31 35  1  0
 32 31  1  0
 33 34  1  0
 33 32  1  0
 34 30  1  0
 35 36  2  0
 36 37  1  0
 38 37  2  0
 39 38  1  0
 40 14  1  0
 40 45  1  0
 40 41  1  0
 41 44  1  1
 41 42  1  0
 43 41  1  0
 45 48  1  0
 46 50  1  0
 46 45  1  0
 47 46  2  0
 50 49  1  0
 52 50  1  0
 52 53  1  0
 52 51  1  0
 54  9  1  0
 55 60  1  0
 57 59  1  0
 57 55  2  0
 58 54  1  0
 58 56  1  0
 59 58  2  0
 60 56  2  0
 60 71  1  0
 61 57  1  0
 62 59  1  0
 63 71  1  0
 64 69  1  0
 65 66  1  0
 65 64  1  0
 67 66  1  0
 67 76  1  0
 67 68  1  0
 69 63  1  0
 69 68  1  0
 70 63  2  0
 71 72  1  0
 73 74  2  0
 74 93  1  0
 75 74  1  0
 75 78  1  0
 76 73  1  0
 76 77  1  0
 77 75  2  0
 78 79  1  0
 79 80  2  0
 81 84  1  0
 81 80  1  0
 82 81  2  0
 83 82  1  0
 83 78  2  0
 84 85  1  0
 85 86  1  0
 86 87  2  0
 88 87  1  0
 88 92  1  0
 89 88  2  0
 90 85  2  0
 90 89  1  0
 91 90  1  0
 93 94  1  0
 94 97  1  0
 94 96  1  0
 95 93  2  0
 98 99  1  0
 98 73  1  0
100 98  1  0
M  ISO  4   8 101  13 101  63 100  71 100
M  END
>  <TORSDO>  (84) 
F 19

>  <SCORE>  (84) 
-13.443

>  <name>  (84) 
83

>  <ligand_id>  (84) 
83

>  <original_smiles>  (84) 
[H]C([H])=C([H])C([H])=C1C([H])(Oc2c([H])c([H])c3c(c2[H])C([H])([H])N(C(=O)C([H])(N([H])C(=O)C([H])(N([H])C([H])([H])[H])C([H])([H])[H])C(C([H])([H])[H])(C([H])([H])[H])C([H])([H])[H])C([H])(C(=O)N([H])C2([H])c4c([H])c([H])c([H])c([H])c4C([H])([H])C([H])([H])C2([H])[H])C3([H])[H])C([H])([H])C([H])([H])C([H])([H])C([H])([H])C([H])([H])[N+]1([H])C([H])([H])c1c([H])c(N([H])C(=O)N2C([H])([H])C([H])([H])C([H])([H])C([H])(n3nc(-c4c([H])c([H])c(Oc5c([H])c([H])c(F)c([H])c5F)c([H])c4[H])c(C(=O)N([H])[H])c3N([H])[H])C2([H])[H])c([H])c(C([H])([H])[H])c1C([H])([H])[H]

>  <smiles>  (84) 
[H]C([H])=C([H])C([H])=C1C([H])(Oc2c([H])c([H])c3c(c2[H])C([H])([H])N(C(=O)C([H])(N([H])C(=O)C([H])(N([H])C([H])([H])[H])C([H])([H])[H])C(C([H])([H])[H])(C([H])([H])[H])C([H])([H])[H])C([H])(C(=O)N([H])C2([H])c4c([H])c([H])c([H])c([H])c4C([H])([H])C([H])([H])C2([H])[H])C3([H])[H])C([H])([H])C([H])([H])C([H])([H])C([H])([H])C([H])([H])[N+]1([H])C([H])([H])c1c([H])c(N([H])C(=O)N2C([H])([H])C([H])([H])C([H])([H])C([H])(n3nc(-c4c([H])c([H])c(Oc5c([H])c([H])c(F)c([H])c5F)c([H])c4[H])c(C(=O)N([H])[H])c3N([H])[H])C2([H])[H])c([H])c(C([H])([H])[H])c1C([H])([H])[H]

$$$$
84:0:0
     RDKit          3D

 98107  0  0  1  0  0  0  0  0999 V2000
  -28.3780  -22.9060   19.5790 C   0  0  0  0  0  0  0  0  0  0  0  0
  -27.5960  -22.7660   18.4890 C   0  0  0  0  0  3  0  0  0  0  0  0
  -29.1470  -24.2040   19.9080 C   0  0  0  0  0  2  0  0  0  0  0  0
  -26.9050  -23.4390   21.8960 C   0  0  0  0  0  2  0  0  0  0  0  0
  -27.3310  -24.9290   21.7720 C   0  0  0  0  0  2  0  0  0  0  0  0
  -28.0400  -22.3810   21.9850 C   0  0  0  0  0  2  0  0  0  0  0  0
  -28.4020  -25.3440   20.7060 C   0  0  0  0  0  3  0  0  0  0  0  0
  -28.4470  -21.8360   20.6600 N   0  0  2  0  0  4  0  0  0  0  0  0
  -27.7150  -21.1760   20.4440 H   0  0  0  0  0  0  0  0  0  0  0  0
  -25.2180  -22.0070   18.1330 C   0  0  0  0  0  1  0  0  0  0  0  0
  -26.6940  -21.5910   18.1480 C   0  0  0  0  0  2  0  0  0  0  0  0
  -28.3180  -26.6630   20.0600 O   0  0  0  0  0  0  0  0  0  0  0  0
  -24.5170  -31.8970   23.1660 C   0  0  0  0  0  0  0  0  0  0  0  0
  -27.1540  -27.4210   20.0800 C   0  0  0  0  0  0  0  0  0  0  0  0
  -23.3100  -30.4970   21.5220 C   0  0  0  0  0  3  0  0  0  0  0  0
  -24.7630  -28.9580   20.0890 C   0  0  0  0  0  0  0  0  0  0  0  0
  -25.8390  -30.8530   21.3190 C   0  0  0  0  0  2  0  0  0  0  0  0
  -25.9260  -29.4790   20.6700 C   0  0  0  0  0  0  0  0  0  0  0  0
  -27.1270  -28.7220   20.6510 C   0  0  0  0  0  3  0  0  0  0  0  0
  -25.9760  -26.9280   19.4840 C   0  0  0  0  0  3  0  0  0  0  0  0
  -24.7850  -27.6840   19.4910 C   0  0  0  0  0  3  0  0  0  0  0  0
  -23.5180  -29.8190   20.1410 C   0  0  0  0  0  2  0  0  0  0  0  0
  -24.5750  -31.1010   22.0600 N   0  0  0  0  0  0  0  0  0  0  0  0
  -23.4370  -32.1650   23.7120 O   0  0  0  0  0  0  0  0  0  0  0  0
  -22.6640  -29.4750   22.4850 C   0  0  0  0  0  0  0  0  0  0  0  0
  -21.3350  -29.3040   22.3740 N   0  0  0  0  0  0  0  0  0  0  0  0
  -23.3550  -28.8390   23.2850 O   0  0  0  0  0  0  0  0  0  0  0  0
  -20.8410  -29.8680   21.6970 H   0  0  0  0  0  0  0  0  0  0  0  0
  -17.9580  -28.1260   22.9170 C   0  0  0  0  0  0  0  0  0  0  0  0
  -20.5230  -28.3610   23.1450 C   0  0  0  0  0  3  0  0  0  0  0  0
  -20.6040  -26.9370   22.5460 C   0  0  0  0  0  2  0  0  0  0  0  0
  -19.4810  -26.6380   21.5490 C   0  0  0  0  0  2  0  0  0  0  0  0
  -18.1120  -26.7860   22.2190 C   0  0  0  0  0  2  0  0  0  0  0  0
  -19.0900  -28.8730   23.3370 C   0  0  0  0  0  0  0  0  0  0  0  0
  -18.8920  -30.1300   23.9510 C   0  0  0  0  0  3  0  0  0  0  0  0
  -17.5950  -30.6380   24.1480 C   0  0  0  0  0  3  0  0  0  0  0  0
  -16.4770  -29.8870   23.7450 C   0  0  0  0  0  3  0  0  0  0  0  0
  -16.6600  -28.6330   23.1350 C   0  0  0  0  0  3  0  0  0  0  0  0
  -25.8030  -32.5320   23.7830 C   0  0  0  0  0  3  0  0  0  0  0  0
  -26.3430  -31.7490   25.0430 C   0  0  1  0  0  0  0  0  0  0  0  0
  -25.2670  -31.4840   26.1210 C   0  0  0  0  0  1  0  0  0  0  0  0
  -26.9330  -30.3830   24.6230 C   0  0  0  0  0  1  0  0  0  0  0  0
  -27.4970  -32.5430   25.7030 C   0  0  0  0  0  1  0  0  0  0  0  0
  -25.4870  -33.9240   24.1380 N   0  0  0  0  0  0  0  0  0  0  0  0
  -25.8050  -34.9910   23.3930 C   0  0  0  0  0  0  0  0  0  0  0  0
  -26.4680  -34.9100   22.3560 O   0  0  0  0  0  0  0  0  0  0  0  0
  -24.9030  -34.0610   24.9500 H   0  0  0  0  0  0  0  0  0  0  0  0
  -24.0660  -36.7780   23.0710 C   0  0  0  0  0  1  0  0  0  0  0  0
  -25.3100  -36.3680   23.8760 C   0  0  0  0  0  3  0  0  0  0  0  0
  -27.4410  -37.2500   24.7160 C   0  0  0  0  0  1  0  0  0  0  0  0
  -26.3350  -37.4300   23.7790 N   0  0  0  0  0  0  0  0  0  0  0  0
  -25.9230  -38.3440   23.9460 H   0  0  0  0  0  0  0  0  0  0  0  0
  -29.6690  -20.9400   20.7400 C   0  0  0  0  0  2  0  0  0  0  0  0
  -29.4270  -19.4270   18.6970 C   0  0  0  0  0  3  0  0  0  0  0  0
  -29.6590  -16.9930   18.7680 C   0  0  0  0  0  3  0  0  0  0  0  0
  -29.7930  -18.2950   20.8250 C   0  0  0  0  0  3  0  0  0  0  0  0
  -29.4370  -18.1800   18.0420 C   0  0  0  0  0  0  0  0  0  0  0  0
  -29.5930  -19.5200   20.0950 C   0  0  0  0  0  0  0  0  0  0  0  0
  -29.8540  -17.0200   20.1670 C   0  0  0  0  0  0  0  0  0  0  0  0
  -29.2070  -18.1220   16.5450 C   0  0  0  0  0  1  0  0  0  0  0  0
  -30.7490  -14.6930   20.4500 C   0  0  0  0  0  0  0  0  0  0  0  0
  -30.5190  -12.4760   19.3860 C   0  0  0  0  0  2  0  0  0  0  0  0
  -29.6070  -12.6480   18.1490 C   0  0  0  0  0  2  0  0  0  0  0  0
  -28.1220  -12.5200   18.5410 C   0  0  0  0  0  2  0  0  0  0  0  0
  -27.7530  -13.3650   19.7900 C   0  0  0  0  0  3  0  0  0  0  0  0
  -28.7840  -13.1720   20.9260 C   0  0  0  0  0  2  0  0  0  0  0  0
  -30.1150  -13.4830   20.3820 N   0  0  0  0  0  0  0  0  0  0  0  0
  -31.9000  -14.8490   20.0260 O   0  0  0  0  0  0  0  0  0  0  0  0
  -30.0040  -15.7570   20.8670 N   0  0  0  0  0  0  0  0  0  0  0  0
  -29.2100  -15.4960   21.4310 H   0  0  0  0  0  0  0  0  0  0  0  0
  -25.3380  -13.9770   20.4280 C   0  0  0  0  0  0  0  0  0  0  0  0
  -24.2640  -13.2060   20.7880 C   0  0  0  0  0  0  0  0  0  0  0  0
  -24.7290  -11.8550   20.7920 C   0  0  0  0  0  0  0  0  0  0  0  0
  -26.3890  -13.0910   20.2380 N   0  0  0  0  0  0  0  0  0  0  0  0
  -26.0250  -11.8120   20.5120 N   0  0  0  0  0  0  0  0  0  0  0  0
  -24.0000  -10.5930   20.9890 C   0  0  0  0  0  0  0  0  0  0  0  0
  -24.4190   -9.6400   21.9430 C   0  0  0  0  0  3  0  0  0  0  0  0
  -23.6940   -8.4430   22.1250 C   0  0  0  0  0  3  0  0  0  0  0  0
  -22.5340   -8.1910   21.3560 C   0  0  0  0  0  0  0  0  0  0  0  0
  -22.1320   -9.1340   20.3930 C   0  0  0  0  0  3  0  0  0  0  0  0
  -22.8580  -10.3230   20.2080 C   0  0  0  0  0  3  0  0  0  0  0  0
  -21.7780   -7.0460   21.4500 O   0  0  0  0  0  0  0  0  0  0  0  0
  -21.7150   -6.3190   22.6100 C   0  0  0  0  0  0  0  0  0  0  0  0
  -21.2850   -6.8900   23.8280 C   0  0  0  0  0  3  0  0  0  0  0  0
  -21.1670   -6.0880   24.9800 C   0  0  0  0  0  3  0  0  0  0  0  0
  -21.4700   -4.7150   24.9180 C   0  0  0  0  0  0  0  0  0  0  0  0
  -21.8940   -4.1420   23.7070 C   0  0  0  0  0  3  0  0  0  0  0  0
  -22.0120   -4.9420   22.5560 C   0  0  0  0  0  0  0  0  0  0  0  0
  -22.3980   -4.3810   21.3850 F   0  0  0  0  0  0  0  0  0  0  0  0
  -21.3530   -3.9430   26.0240 F   0  0  0  0  0  0  0  0  0  0  0  0
  -22.8610  -13.6820   21.0240 C   0  0  0  0  0  0  0  0  0  0  0  0
  -22.1220  -13.0010   21.8920 N   0  0  0  0  0  0  0  0  0  0  0  0
  -22.4280  -14.6930   20.4750 O   0  0  0  0  0  0  0  0  0  0  0  0
  -22.4820  -12.1800   22.3570 H   0  0  0  0  0  0  0  0  0  0  0  0
  -21.1810  -13.3060   22.0990 H   0  0  0  0  0  0  0  0  0  0  0  0
  -25.5050  -15.3450   20.2320 N   0  0  0  0  0  0  0  0  0  0  0  0
  -24.7420  -16.0040   20.3390 H   0  0  0  0  0  0  0  0  0  0  0  0
  -26.3680  -15.7880   19.9430 H   0  0  0  0  0  0  0  0  0  0  0  0
  1  3  1  0
  1  8  1  0
  2  1  2  0
  3  7  1  0
  4  6  1  0
  5  4  1  0
  7 12  1  0
  7  5  1  0
  8 53  1  0
  8  6  1  0
  8  9  1  6
 10 11  1  0
 11  2  1  0
 12 14  1  0
 13 24  2  0
 14 19  1  0
 15 23  1  0
 15 25  1  0
 16 22  1  0
 16 18  1  0
 17 23  1  0
 18 17  1  0
 19 18  2  0
 20 21  1  0
 20 14  2  0
 21 16  2  0
 22 15  1  0
 23 13  1  0
 25 27  2  0
 26 25  1  0
 28 26  1  0
 29 38  2  0
 29 34  1  0
 30 26  1  0
 30 34  1  0
 31 30  1  0
 32 33  1  0
 32 31  1  0
 33 29  1  0
 34 35  2  0
 35 36  1  0
 37 36  2  0
 38 37  1  0
 39 13  1  0
 39 44  1  0
 39 40  1  0
 40 43  1  1
 40 41  1  0
 42 40  1  0
 44 47  1  0
 45 49  1  0
 45 44  1  0
 46 45  2  0
 49 48  1  0
 51 49  1  0
 51 52  1  0
 51 50  1  0
 54 58  1  0
 55 59  2  0
 57 54  2  0
 57 55  1  0
 58 53  1  0
 58 56  2  0
 59 56  1  0
 59 69  1  0
 60 57  1  0
 61 69  1  0
 62 67  1  0
 63 64  1  0
 63 62  1  0
 65 64  1  0
 65 74  1  0
 65 66  1  0
 67 61  1  0
 67 66  1  0
 68 61  2  0
 69 70  1  0
 71 72  2  0
 72 73  1  0
 72 91  1  0
 73 76  1  0
 74 71  1  0
 74 75  1  0
 75 73  2  0
 76 77  1  0
 77 78  2  0
 79 82  1  0
 79 78  1  0
 80 79  2  0
 81 80  1  0
 81 76  2  0
 82 83  1  0
 83 84  1  0
 84 85  2  0
 86 85  1  0
 86 90  1  0
 87 86  2  0
 88 83  2  0
 88 87  1  0
 89 88  1  0
 91 92  1  0
 92 95  1  0
 92 94  1  0
 93 91  2  0
 96 97  1  0
 96 71  1  0
 98 96  1  0
M  ISO  4   7 101  12 101  61 100  69 100
M  END
>  <TORSDO>  (85) 
F 19

>  <SCORE>  (85) 
-14.238

>  <name>  (85) 
84

>  <ligand_id>  (85) 
84

>  <original_smiles>  (85) 
[H]C(=C1C([H])([H])C([H])(Oc2c([H])c([H])c3c(c2[H])C([H])([H])N(C(=O)C([H])(N([H])C(=O)C([H])(N([H])C([H])([H])[H])C([H])([H])[H])C(C([H])([H])[H])(C([H])([H])[H])C([H])([H])[H])C([H])(C(=O)N([H])C2([H])c4c([H])c([H])c([H])c([H])c4C([H])([H])C([H])([H])C2([H])[H])C3([H])[H])C([H])([H])C([H])([H])C([H])([H])[N+]1([H])C([H])([H])c1c([H])c(N([H])C(=O)N2C([H])([H])C([H])([H])C([H])([H])C([H])(n3nc(-c4c([H])c([H])c(Oc5c([H])c([H])c(F)c([H])c5F)c([H])c4[H])c(C(=O)N([H])[H])c3N([H])[H])C2([H])[H])c([H])c(C([H])([H])[H])c1[H])C([H])([H])C([H])([H])[H]

>  <smiles>  (85) 
[H]C(=C1C([H])([H])C([H])(Oc2c([H])c([H])c3c(c2[H])C([H])([H])N(C(=O)C([H])(N([H])C(=O)C([H])(N([H])C([H])([H])[H])C([H])([H])[H])C(C([H])([H])[H])(C([H])([H])[H])C([H])([H])[H])C([H])(C(=O)N([H])C2([H])c4c([H])c([H])c([H])c([H])c4C([H])([H])C([H])([H])C2([H])[H])C3([H])[H])C([H])([H])C([H])([H])C([H])([H])[N+]1([H])C([H])([H])c1c([H])c(N([H])C(=O)N2C([H])([H])C([H])([H])C([H])([H])C([H])(n3nc(-c4c([H])c([H])c(Oc5c([H])c([H])c(F)c([H])c5F)c([H])c4[H])c(C(=O)N([H])[H])c3N([H])[H])C2([H])[H])c([H])c(C([H])([H])[H])c1[H])C([H])([H])C([H])([H])[H]

$$$$
85:0:0
     RDKit          3D

 94102  0  0  1  0  0  0  0  0999 V2000
  -29.0270  -20.8990   21.5120 C   0  0  0  0  0  2  0  0  0  0  0  0
  -30.5550  -18.9240   21.9590 C   0  0  0  0  0  3  0  0  0  0  0  0
  -29.1050  -17.2790   20.2060 C   0  0  0  0  0  3  0  0  0  0  0  0
  -29.5150  -19.4870   21.1840 C   0  0  0  0  0  0  0  0  0  0  0  0
  -30.0830  -16.7070   21.0510 C   0  0  0  0  0  0  0  0  0  0  0  0
  -30.8280  -17.5430   21.9100 C   0  0  0  0  0  0  0  0  0  0  0  0
  -28.8270  -18.6620   20.2590 C   0  0  0  0  0  0  0  0  0  0  0  0
  -32.0210  -16.8790   22.9700 Cl  0  0  0  0  0  0  0  0  0  0  0  0
  -27.5880  -19.3030   19.2390 Cl  0  0  0  0  0  0  0  0  0  0  0  0
  -30.6890  -14.5010   20.1970 C   0  0  0  0  0  0  0  0  0  0  0  0
  -30.3190  -12.4090   18.9480 C   0  0  0  0  0  2  0  0  0  0  0  0
  -29.3280  -12.6890   17.8020 C   0  0  0  0  0  2  0  0  0  0  0  0
  -27.8720  -12.5400   18.2870 C   0  0  0  0  0  2  0  0  0  0  0  0
  -27.6000  -13.3250   19.5970 C   0  0  0  0  0  3  0  0  0  0  0  0
  -28.6940  -13.0350   20.6460 C   0  0  0  0  0  2  0  0  0  0  0  0
  -30.0130  -13.3320   20.0490 N   0  0  0  0  0  0  0  0  0  0  0  0
  -31.6830  -14.8090   19.5300 O   0  0  0  0  0  0  0  0  0  0  0  0
  -30.1970  -15.2990   21.1480 N   0  0  0  0  0  0  0  0  0  0  0  0
  -29.5120  -14.8540   21.7390 H   0  0  0  0  0  0  0  0  0  0  0  0
  -25.2460  -13.9340   20.4520 C   0  0  0  0  0  0  0  0  0  0  0  0
  -24.1920  -13.1580   20.8540 C   0  0  0  0  0  0  0  0  0  0  0  0
  -24.6400  -11.8050   20.7570 C   0  0  0  0  0  0  0  0  0  0  0  0
  -26.2660  -13.0520   20.1290 N   0  0  0  0  0  0  0  0  0  0  0  0
  -25.9090  -11.7650   20.3700 N   0  0  0  0  0  0  0  0  0  0  0  0
  -23.9170  -10.5410   20.9540 C   0  0  0  0  0  0  0  0  0  0  0  0
  -24.3500   -9.5850   21.8990 C   0  0  0  0  0  3  0  0  0  0  0  0
  -23.6310   -8.3850   22.0820 C   0  0  0  0  0  3  0  0  0  0  0  0
  -22.4650   -8.1330   21.3210 C   0  0  0  0  0  0  0  0  0  0  0  0
  -22.0510   -9.0780   20.3660 C   0  0  0  0  0  3  0  0  0  0  0  0
  -22.7710  -10.2700   20.1820 C   0  0  0  0  0  3  0  0  0  0  0  0
  -21.7160   -6.9840   21.4120 O   0  0  0  0  0  0  0  0  0  0  0  0
  -21.6220   -6.2770   22.5830 C   0  0  0  0  0  0  0  0  0  0  0  0
  -21.1120   -6.8570   23.7660 C   0  0  0  0  0  3  0  0  0  0  0  0
  -20.9680   -6.0730   24.9290 C   0  0  0  0  0  3  0  0  0  0  0  0
  -21.3240   -4.7120   24.9070 C   0  0  0  0  0  0  0  0  0  0  0  0
  -21.8280   -4.1310   23.7300 C   0  0  0  0  0  3  0  0  0  0  0  0
  -21.9740   -4.9120   22.5710 C   0  0  0  0  0  0  0  0  0  0  0  0
  -22.4380   -4.3430   21.4310 F   0  0  0  0  0  0  0  0  0  0  0  0
  -21.1800   -3.9560   26.0220 F   0  0  0  0  0  0  0  0  0  0  0  0
  -22.8150  -13.6370   21.2140 C   0  0  0  0  0  0  0  0  0  0  0  0
  -22.1170  -12.9130   22.0810 N   0  0  0  0  0  0  0  0  0  0  0  0
  -22.3640  -14.6860   20.7560 O   0  0  0  0  0  0  0  0  0  0  0  0
  -22.4920  -12.0640   22.4730 H   0  0  0  0  0  0  0  0  0  0  0  0
  -21.1920  -13.2130   22.3550 H   0  0  0  0  0  0  0  0  0  0  0  0
  -25.4110  -15.3080   20.3220 N   0  0  0  0  0  0  0  0  0  0  0  0
  -24.6680  -15.9570   20.5570 H   0  0  0  0  0  0  0  0  0  0  0  0
  -26.2360  -15.7650   19.9590 H   0  0  0  0  0  0  0  0  0  0  0  0
  -29.5490  -22.0110   20.6810 N   0  0  0  0  0  4  0  0  0  0  0  0
  -29.1150  -21.9640   19.7740 H   0  0  0  0  0  0  0  0  0  0  0  0
  -30.5430  -21.9070   20.5620 H   0  0  0  0  0  0  0  0  0  0  0  0
  -29.2620  -23.3340   21.2970 C   0  0  0  0  0  2  0  0  0  0  0  0
  -29.0960  -24.4980   20.2910 C   0  0  0  0  0  2  0  0  0  0  0  0
  -28.5090  -25.7630   20.9590 C   0  0  0  0  0  2  0  0  0  0  0  0
  -28.4310  -26.8420   20.0210 O   0  0  0  0  0  0  0  0  0  0  0  0
  -24.6160  -31.9500   23.1800 C   0  0  0  0  0  0  0  0  0  0  0  0
  -27.2600  -27.5560   20.0670 C   0  0  0  0  0  0  0  0  0  0  0  0
  -23.3980  -30.5340   21.5550 C   0  0  0  0  0  3  0  0  0  0  0  0
  -24.8470  -29.0130   20.1040 C   0  0  0  0  0  0  0  0  0  0  0  0
  -25.9090  -30.9270   21.3160 C   0  0  0  0  0  2  0  0  0  0  0  0
  -26.0020  -29.5560   20.6850 C   0  0  0  0  0  0  0  0  0  0  0  0
  -27.2130  -28.8290   20.6710 C   0  0  0  0  0  3  0  0  0  0  0  0
  -26.0960  -27.0220   19.4740 C   0  0  0  0  0  3  0  0  0  0  0  0
  -24.8880  -27.7470   19.4930 C   0  0  0  0  0  3  0  0  0  0  0  0
  -23.5910  -29.8550   20.1700 C   0  0  0  0  0  2  0  0  0  0  0  0
  -24.6600  -31.1510   22.0770 N   0  0  0  0  0  0  0  0  0  0  0  0
  -23.5420  -32.2130   23.7380 O   0  0  0  0  0  0  0  0  0  0  0  0
  -22.7690  -29.5100   22.5250 C   0  0  0  0  0  0  0  0  0  0  0  0
  -21.4470  -29.3090   22.4110 N   0  0  0  0  0  0  0  0  0  0  0  0
  -23.4710  -28.8980   23.3330 O   0  0  0  0  0  0  0  0  0  0  0  0
  -20.9390  -29.8580   21.7330 H   0  0  0  0  0  0  0  0  0  0  0  0
  -18.0980  -28.0640   22.9460 C   0  0  0  0  0  0  0  0  0  0  0  0
  -20.6540  -28.3600   23.1930 C   0  0  0  0  0  3  0  0  0  0  0  0
  -20.7760  -26.9310   22.6110 C   0  0  0  0  0  2  0  0  0  0  0  0
  -19.6660  -26.5860   21.6120 C   0  0  0  0  0  2  0  0  0  0  0  0
  -18.2870  -26.7150   22.2690 C   0  0  0  0  0  2  0  0  0  0  0  0
  -19.2090  -28.8420   23.3650 C   0  0  0  0  0  0  0  0  0  0  0  0
  -18.9770  -30.1040   23.9540 C   0  0  0  0  0  3  0  0  0  0  0  0
  -17.6680  -30.5870   24.1320 C   0  0  0  0  0  3  0  0  0  0  0  0
  -16.5730  -29.8060   23.7270 C   0  0  0  0  0  3  0  0  0  0  0  0
  -16.7870  -28.5470   23.1380 C   0  0  0  0  0  3  0  0  0  0  0  0
  -25.9100  -32.5910   23.7790 C   0  0  0  0  0  3  0  0  0  0  0  0
  -25.5960  -33.9850   24.1220 N   0  0  0  0  0  0  0  0  0  0  0  0
  -25.9160  -35.0430   23.3650 C   0  0  0  0  0  0  0  0  0  0  0  0
  -26.5770  -34.9500   22.3260 O   0  0  0  0  0  0  0  0  0  0  0  0
  -25.0110  -34.1300   24.9310 H   0  0  0  0  0  0  0  0  0  0  0  0
  -24.1830  -36.8300   23.0210 C   0  0  0  0  0  1  0  0  0  0  0  0
  -25.4220  -36.4240   23.8340 C   0  0  0  0  0  3  0  0  0  0  0  0
  -27.5470  -37.3080   24.6880 C   0  0  0  0  0  1  0  0  0  0  0  0
  -26.4510  -37.4820   23.7360 N   0  0  0  0  0  0  0  0  0  0  0  0
  -26.0410  -38.3990   23.8930 H   0  0  0  0  0  0  0  0  0  0  0  0
  -26.4610  -31.8150   25.0360 C   0  0  1  0  0  0  0  0  0  0  0  0
  -25.3940  -31.5480   26.1210 C   0  0  0  0  0  1  0  0  0  0  0  0
  -27.0570  -30.4510   24.6160 C   0  0  0  0  0  1  0  0  0  0  0  0
  -27.6120  -32.6190   25.6830 C   0  0  0  0  0  1  0  0  0  0  0  0
  3  7  2  0
  3  5  1  0
  4  1  1  0
  4  2  2  0
  5 18  1  0
  5  6  2  0
  6  2  1  0
  6  8  1  0
  7  4  1  0
  9  7  1  0
 10 18  1  0
 11 16  1  0
 12 13  1  0
 12 11  1  0
 14 13  1  0
 14 23  1  0
 14 15  1  0
 16 10  1  0
 16 15  1  0
 17 10  2  0
 18 19  1  0
 20 21  2  0
 21 40  1  0
 22 21  1  0
 22 25  1  0
 23 24  1  0
 23 20  1  0
 24 22  2  0
 25 26  1  0
 26 27  2  0
 28 31  1  0
 28 27  1  0
 29 28  2  0
 30 29  1  0
 30 25  2  0
 31 32  1  0
 32 33  1  0
 33 34  2  0
 35 34  1  0
 35 39  1  0
 36 35  2  0
 37 32  2  0
 37 36  1  0
 38 37  1  0
 40 41  1  0
 41 44  1  0
 41 43  1  0
 42 40  2  0
 45 20  1  0
 45 46  1  0
 47 45  1  0
 48 51  1  0
 48  1  1  0
 49 48  1  0
 50 48  1  0
 52 53  1  0
 52 51  1  0
 54 56  1  0
 54 53  1  0
 55 66  2  0
 56 61  1  0
 57 65  1  0
 57 67  1  0
 58 64  1  0
 58 60  1  0
 59 65  1  0
 60 59  1  0
 61 60  2  0
 62 63  1  0
 62 56  2  0
 63 58  2  0
 64 57  1  0
 65 55  1  0
 67 69  2  0
 68 67  1  0
 70 68  1  0
 71 80  2  0
 71 76  1  0
 72 68  1  0
 72 76  1  0
 73 72  1  0
 74 75  1  0
 74 73  1  0
 75 71  1  0
 76 77  2  0
 77 78  1  0
 79 78  2  0
 80 79  1  0
 81 55  1  0
 81 82  1  0
 81 91  1  0
 82 85  1  0
 83 87  1  0
 83 82  1  0
 84 83  2  0
 87 86  1  0
 89 87  1  0
 89 90  1  0
 89 88  1  0
 91 94  1  1
 91 92  1  0
 93 91  1  0
M  ISO  4  10 100  18 100  53 101  54 101
M  END
>  <TORSDO>  (86) 
F 21

>  <SCORE>  (86) 
-11.365

>  <name>  (86) 
85

>  <ligand_id>  (86) 
85

>  <original_smiles>  (86) 
[H]c1c([H])c([H])c2c(c1[H])C([H])([H])C([H])([H])C([H])([H])C2([H])N([H])C(=O)C1([H])N(C(=O)C([H])(N([H])C(=O)C([H])(N([H])C([H])([H])[H])C([H])([H])[H])C(C([H])([H])[H])(C([H])([H])[H])C([H])([H])[H])C([H])([H])c2c([H])c(OC([H])([H])C([H])([H])C([H])([H])[N+]([H])([H])C([H])([H])c3c([H])c(Cl)c(N([H])C(=O)N4C([H])([H])C([H])([H])C([H])([H])C([H])(n5nc(-c6c([H])c([H])c(Oc7c([H])c([H])c(F)c([H])c7F)c([H])c6[H])c(C(=O)N([H])[H])c5N([H])[H])C4([H])[H])c([H])c3Cl)c([H])c([H])c2C1([H])[H]

>  <smiles>  (86) 
[H]c1c([H])c([H])c2c(c1[H])C([H])([H])C([H])([H])C([H])([H])C2([H])N([H])C(=O)C1([H])N(C(=O)C([H])(N([H])C(=O)C([H])(N([H])C([H])([H])[H])C([H])([H])[H])C(C([H])([H])[H])(C([H])([H])[H])C([H])([H])[H])C([H])([H])c2c([H])c(OC([H])([H])C([H])([H])C([H])([H])[N+]([H])([H])C([H])([H])c3c([H])c(Cl)c(N([H])C(=O)N4C([H])([H])C([H])([H])C([H])([H])C([H])(n5nc(-c6c([H])c([H])c(Oc7c([H])c([H])c(F)c([H])c7F)c([H])c6[H])c(C(=O)N([H])[H])c5N([H])[H])C4([H])[H])c([H])c3Cl)c([H])c([H])c2C1([H])[H]

$$$$
86:0:0
     RDKit          3D

 99108  0  0  1  0  0  0  0  0999 V2000
  -31.0260  -23.1570   19.1070 C   0  0  0  0  0  0  0  0  0  0  0  0
  -32.0590  -23.2090   18.2430 C   0  0  0  0  0  3  0  0  0  0  0  0
  -30.3450  -24.3880   19.6980 C   0  0  0  0  0  2  0  0  0  0  0  0
  -28.1120  -22.5170   18.7410 C   0  0  0  0  0  2  0  0  0  0  0  0
  -27.9160  -24.0260   18.9720 C   0  0  0  0  0  2  0  0  0  0  0  0
  -28.9630  -21.8250   19.8280 C   0  0  0  0  0  2  0  0  0  0  0  0
  -29.1900  -24.8720   18.7940 C   0  0  0  0  0  3  0  0  0  0  0  0
  -32.7750  -22.0370   17.5970 C   0  0  0  0  0  1  0  0  0  0  0  0
  -30.4300  -21.8530   19.5570 N   0  0  2  0  0  4  0  0  0  0  0  0
  -30.5350  -21.2320   18.7700 H   0  0  0  0  0  0  0  0  0  0  0  0
  -31.2270  -21.1750   20.6150 C   0  0  0  0  0  2  0  0  0  0  0  0
  -30.5880  -18.9150   19.6100 C   0  0  0  0  0  3  0  0  0  0  0  0
  -30.7560  -17.6220   22.0890 C   0  0  0  0  0  3  0  0  0  0  0  0
  -30.9310  -19.6720   20.7560 C   0  0  0  0  0  0  0  0  0  0  0  0
  -30.3010  -17.5380   19.6950 C   0  0  0  0  0  0  0  0  0  0  0  0
  -31.0110  -19.0090   22.0090 C   0  0  0  0  0  0  0  0  0  0  0  0
  -30.4270  -16.8720   20.9420 C   0  0  0  0  0  0  0  0  0  0  0  0
  -29.8290  -16.8240   18.4350 C   0  0  0  0  0  1  0  0  0  0  0  0
  -31.3900  -19.7500   23.2810 C   0  0  0  0  0  1  0  0  0  0  0  0
  -30.8860  -14.4790   20.5650 C   0  0  0  0  0  0  0  0  0  0  0  0
  -30.5960  -12.3210   19.4270 C   0  0  0  0  0  2  0  0  0  0  0  0
  -29.6720  -12.5410   18.2110 C   0  0  0  0  0  2  0  0  0  0  0  0
  -28.1920  -12.4120   18.6210 C   0  0  0  0  0  2  0  0  0  0  0  0
  -27.8420  -13.2530   19.8790 C   0  0  0  0  0  3  0  0  0  0  0  0
  -28.8790  -13.0180   21.0000 C   0  0  0  0  0  2  0  0  0  0  0  0
  -30.2170  -13.3040   20.4530 N   0  0  0  0  0  0  0  0  0  0  0  0
  -32.0170  -14.6630   20.1030 O   0  0  0  0  0  0  0  0  0  0  0  0
  -30.1720  -15.4840   21.0990 N   0  0  0  0  0  0  0  0  0  0  0  0
  -29.3190  -15.2270   21.5730 H   0  0  0  0  0  0  0  0  0  0  0  0
  -25.4400  -13.8790   20.5660 C   0  0  0  0  0  0  0  0  0  0  0  0
  -24.3610  -13.1120   20.9170 C   0  0  0  0  0  0  0  0  0  0  0  0
  -24.8100  -11.7580   20.8770 C   0  0  0  0  0  0  0  0  0  0  0  0
  -26.4800  -12.9900   20.3390 N   0  0  0  0  0  0  0  0  0  0  0  0
  -26.1020  -11.7090   20.5820 N   0  0  0  0  0  0  0  0  0  0  0  0
  -24.0720  -10.5000   21.0500 C   0  0  0  0  0  0  0  0  0  0  0  0
  -24.4750   -9.5310   21.9960 C   0  0  0  0  0  3  0  0  0  0  0  0
  -23.7390   -8.3370   22.1550 C   0  0  0  0  0  3  0  0  0  0  0  0
  -22.5850   -8.1040   21.3700 C   0  0  0  0  0  0  0  0  0  0  0  0
  -22.2010   -9.0610   20.4150 C   0  0  0  0  0  3  0  0  0  0  0  0
  -22.9380  -10.2470   20.2520 C   0  0  0  0  0  3  0  0  0  0  0  0
  -21.8230   -6.9630   21.4380 O   0  0  0  0  0  0  0  0  0  0  0  0
  -21.7150   -6.2380   22.5970 C   0  0  0  0  0  0  0  0  0  0  0  0
  -21.1990   -6.8040   23.7840 C   0  0  0  0  0  3  0  0  0  0  0  0
  -21.0400   -6.0040   24.9340 C   0  0  0  0  0  3  0  0  0  0  0  0
  -21.3860   -4.6390   24.8970 C   0  0  0  0  0  0  0  0  0  0  0  0
  -21.8960   -4.0740   23.7140 C   0  0  0  0  0  3  0  0  0  0  0  0
  -22.0570   -4.8710   22.5680 C   0  0  0  0  0  0  0  0  0  0  0  0
  -22.5270   -4.3170   21.4240 F   0  0  0  0  0  0  0  0  0  0  0  0
  -21.2270   -3.8690   25.9980 F   0  0  0  0  0  0  0  0  0  0  0  0
  -22.9650  -13.5990   21.1820 C   0  0  0  0  0  0  0  0  0  0  0  0
  -22.2260  -12.9050   22.0400 N   0  0  0  0  0  0  0  0  0  0  0  0
  -22.5380  -14.6300   20.6630 O   0  0  0  0  0  0  0  0  0  0  0  0
  -22.5820  -12.0710   22.4820 H   0  0  0  0  0  0  0  0  0  0  0  0
  -21.2880  -13.2120   22.2570 H   0  0  0  0  0  0  0  0  0  0  0  0
  -25.6180  -15.2500   20.4030 N   0  0  0  0  0  0  0  0  0  0  0  0
  -24.8560  -15.9090   20.5140 H   0  0  0  0  0  0  0  0  0  0  0  0
  -26.4790  -15.6870   20.0980 H   0  0  0  0  0  0  0  0  0  0  0  0
  -28.9240  -26.3900   18.9190 C   0  0  0  0  0  2  0  0  0  0  0  0
  -28.4480  -26.7750   20.2120 O   0  0  0  0  0  0  0  0  0  0  0  0
  -24.6120  -31.9020   23.3270 C   0  0  0  0  0  0  0  0  0  0  0  0
  -27.2680  -27.4830   20.2310 C   0  0  0  0  0  0  0  0  0  0  0  0
  -23.4100  -30.5080   21.6750 C   0  0  0  0  0  3  0  0  0  0  0  0
  -24.8690  -28.9720   20.2560 C   0  0  0  0  0  0  0  0  0  0  0  0
  -25.9370  -30.8610   21.4950 C   0  0  0  0  0  2  0  0  0  0  0  0
  -26.0220  -29.4920   20.8570 C   0  0  0  0  0  0  0  0  0  0  0  0
  -27.2220  -28.7460   20.8570 C   0  0  0  0  0  3  0  0  0  0  0  0
  -26.0930  -26.9660   19.6440 C   0  0  0  0  0  3  0  0  0  0  0  0
  -24.8950  -27.7030   19.6550 C   0  0  0  0  0  3  0  0  0  0  0  0
  -23.6260  -29.8310   20.2950 C   0  0  0  0  0  2  0  0  0  0  0  0
  -24.6710  -31.1050   22.2240 N   0  0  0  0  0  0  0  0  0  0  0  0
  -23.5290  -32.1770   23.8610 O   0  0  0  0  0  0  0  0  0  0  0  0
  -22.7530  -29.4840   22.6290 C   0  0  0  0  0  0  0  0  0  0  0  0
  -21.4350  -29.2850   22.4740 N   0  0  0  0  0  0  0  0  0  0  0  0
  -23.4280  -28.8720   23.4620 O   0  0  0  0  0  0  0  0  0  0  0  0
  -20.9530  -29.8300   21.7730 H   0  0  0  0  0  0  0  0  0  0  0  0
  -18.0690  -28.0410   22.8860 C   0  0  0  0  0  0  0  0  0  0  0  0
  -20.6120  -28.3450   23.2330 C   0  0  0  0  0  3  0  0  0  0  0  0
  -20.7560  -26.9080   22.6810 C   0  0  0  0  0  2  0  0  0  0  0  0
  -19.6910  -26.5530   21.6390 C   0  0  0  0  0  2  0  0  0  0  0  0
  -18.2890  -26.6850   22.2380 C   0  0  0  0  0  2  0  0  0  0  0  0
  -19.1600  -28.8280   23.3400 C   0  0  0  0  0  0  0  0  0  0  0  0
  -18.9040  -30.0960   23.9030 C   0  0  0  0  0  3  0  0  0  0  0  0
  -17.5860  -30.5790   24.0200 C   0  0  0  0  0  3  0  0  0  0  0  0
  -16.5090  -29.7890   23.5850 C   0  0  0  0  0  3  0  0  0  0  0  0
  -16.7510  -28.5220   23.0230 C   0  0  0  0  0  3  0  0  0  0  0  0
  -25.8980  -32.5270   23.9540 C   0  0  0  0  0  3  0  0  0  0  0  0
  -26.3890  -31.7710   25.2480 C   0  0  1  0  0  0  0  0  0  0  0  0
  -25.2790  -31.5610   26.3040 C   0  0  0  0  0  1  0  0  0  0  0  0
  -26.9620  -30.3810   24.8840 C   0  0  0  0  0  1  0  0  0  0  0  0
  -27.5390  -32.5640   25.9140 C   0  0  0  0  0  1  0  0  0  0  0  0
  -25.6030  -33.9350   24.2540 N   0  0  0  0  0  0  0  0  0  0  0  0
  -25.9560  -34.9680   23.4770 C   0  0  0  0  0  0  0  0  0  0  0  0
  -26.6360  -34.8360   22.4560 O   0  0  0  0  0  0  0  0  0  0  0  0
  -25.0000  -34.1120   25.0440 H   0  0  0  0  0  0  0  0  0  0  0  0
  -24.2530  -36.7720   23.0640 C   0  0  0  0  0  1  0  0  0  0  0  0
  -25.4780  -36.3690   23.9010 C   0  0  0  0  0  3  0  0  0  0  0  0
  -27.6080  -37.2470   24.7490 C   0  0  0  0  0  1  0  0  0  0  0  0
  -26.5260  -37.4070   23.7820 N   0  0  0  0  0  0  0  0  0  0  0  0
  -26.1280  -38.3350   23.9030 H   0  0  0  0  0  0  0  0  0  0  0  0
  1  9  1  0
  1  3  1  0
  2  1  2  0
  4  5  1  0
  4  6  1  0
  7 58  1  0
  7  5  1  0
  7  3  1  0
  8  2  1  0
  9  6  1  0
  9 11  1  0
  9 10  1  6
 11 14  1  0
 12 15  2  0
 12 14  1  0
 14 16  2  0
 15 17  1  0
 16 13  1  0
 16 19  1  0
 17 28  1  0
 17 13  2  0
 18 15  1  0
 20 28  1  0
 21 26  1  0
 22 23  1  0
 22 21  1  0
 24 23  1  0
 24 33  1  0
 24 25  1  0
 26 20  1  0
 26 25  1  0
 27 20  2  0
 28 29  1  0
 30 31  2  0
 31 50  1  0
 32 31  1  0
 32 35  1  0
 33 30  1  0
 33 34  1  0
 34 32  2  0
 35 36  1  0
 36 37  2  0
 38 41  1  0
 38 37  1  0
 39 38  2  0
 40 39  1  0
 40 35  2  0
 41 42  1  0
 42 43  1  0
 43 44  2  0
 45 44  1  0
 45 49  1  0
 46 45  2  0
 47 42  2  0
 47 46  1  0
 48 47  1  0
 50 51  1  0
 51 54  1  0
 51 53  1  0
 52 50  2  0
 55 56  1  0
 55 30  1  0
 57 55  1  0
 58 59  1  0
 59 61  1  0
 60 71  2  0
 61 66  1  0
 62 70  1  0
 62 72  1  0
 63 69  1  0
 63 65  1  0
 64 70  1  0
 65 66  2  0
 65 64  1  0
 67 68  1  0
 67 61  2  0
 68 63  2  0
 69 62  1  0
 70 60  1  0
 72 74  2  0
 73 72  1  0
 75 73  1  0
 76 85  2  0
 76 81  1  0
 77 73  1  0
 77 81  1  0
 78 77  1  0
 79 80  1  0
 79 78  1  0
 80 76  1  0
 81 82  2  0
 82 83  1  0
 84 83  2  0
 85 84  1  0
 86 60  1  0
 86 91  1  0
 86 87  1  0
 87 90  1  1
 87 88  1  0
 89 87  1  0
 91 94  1  0
 92 96  1  0
 92 91  1  0
 93 92  2  0
 96 95  1  0
 98 96  1  0
 98 99  1  0
 98 97  1  0
M  ISO  4  20 100  28 100  58 101  59 101
M  END
>  <TORSDO>  (87) 
F 19

>  <SCORE>  (87) 
-14.289

>  <name>  (87) 
86

>  <ligand_id>  (87) 
86

>  <original_smiles>  (87) 
[H]C(=C1C([H])([H])C([H])(C([H])([H])Oc2c([H])c([H])c3c(c2[H])C([H])([H])N(C(=O)C([H])(N([H])C(=O)C([H])(N([H])C([H])([H])[H])C([H])([H])[H])C(C([H])([H])[H])(C([H])([H])[H])C([H])([H])[H])C([H])(C(=O)N([H])C2([H])c4c([H])c([H])c([H])c([H])c4C([H])([H])C([H])([H])C2([H])[H])C3([H])[H])C([H])([H])C([H])([H])C([H])([H])[N+]1([H])C([H])([H])c1c([H])c(C([H])([H])[H])c(N([H])C(=O)N2C([H])([H])C([H])([H])C([H])([H])C([H])(n3nc(-c4c([H])c([H])c(Oc5c([H])c([H])c(F)c([H])c5F)c([H])c4[H])c(C(=O)N([H])[H])c3N([H])[H])C2([H])[H])c([H])c1C([H])([H])[H])C([H])([H])[H]

>  <smiles>  (87) 
[H]C(=C1C([H])([H])C([H])(C([H])([H])Oc2c([H])c([H])c3c(c2[H])C([H])([H])N(C(=O)C([H])(N([H])C(=O)C([H])(N([H])C([H])([H])[H])C([H])([H])[H])C(C([H])([H])[H])(C([H])([H])[H])C([H])([H])[H])C([H])(C(=O)N([H])C2([H])c4c([H])c([H])c([H])c([H])c4C([H])([H])C([H])([H])C2([H])[H])C3([H])[H])C([H])([H])C([H])([H])C([H])([H])[N+]1([H])C([H])([H])c1c([H])c(C([H])([H])[H])c(N([H])C(=O)N2C([H])([H])C([H])([H])C([H])([H])C([H])(n3nc(-c4c([H])c([H])c(Oc5c([H])c([H])c(F)c([H])c5F)c([H])c4[H])c(C(=O)N([H])[H])c3N([H])[H])C2([H])[H])c([H])c1C([H])([H])[H])C([H])([H])[H]

$$$$
87:0:0
     RDKit          3D

102111  0  0  1  0  0  0  0  0999 V2000
  -28.0660  -23.7450   19.9910 C   0  0  0  0  0  0  0  0  0  0  0  0
  -26.7630  -23.4790   19.7010 C   0  0  0  0  0  3  0  0  0  0  0  0
  -31.0440  -25.0740   20.9710 C   0  0  0  0  0  2  0  0  0  0  0  0
  -31.4590  -23.7410   20.3160 C   0  0  0  0  0  2  0  0  0  0  0  0
  -29.6320  -25.1130   21.6050 C   0  0  0  0  0  2  0  0  0  0  0  0
  -30.4330  -23.1490   19.3160 C   0  0  0  0  0  2  0  0  0  0  0  0
  -28.4230  -25.1770   20.6340 C   0  0  0  0  0  3  0  0  0  0  0  0
  -29.2180  -22.6390   20.0180 N   0  0  2  0  0  4  0  0  0  0  0  0
  -29.4980  -22.5720   20.9800 H   0  0  0  0  0  0  0  0  0  0  0  0
  -26.0860  -22.2610   19.3060 C   0  0  0  0  0  3  0  0  0  0  0  0
  -25.4350  -22.1610   18.1420 C   0  0  0  0  0  3  0  0  0  0  0  0
  -24.1650  -20.8430   16.5330 C   0  0  0  0  0  3  0  0  0  0  0  0
  -24.7070  -20.9750   17.7490 C   0  0  0  0  0  3  0  0  0  0  0  0
  -23.1290  -19.4220   14.8440 C   0  0  0  0  0  2  0  0  0  0  0  0
  -23.4550  -19.6520   16.1240 C   0  0  0  0  0  3  0  0  0  0  0  0
  -28.4110  -26.4650   19.8260 O   0  0  0  0  0  0  0  0  0  0  0  0
  -24.6200  -31.7780   23.0950 C   0  0  0  0  0  0  0  0  0  0  0  0
  -27.2900  -27.3380   19.8660 C   0  0  0  0  0  0  0  0  0  0  0  0
  -23.4210  -30.3860   21.4510 C   0  0  0  0  0  3  0  0  0  0  0  0
  -24.8810  -28.9220   19.9390 C   0  0  0  0  0  0  0  0  0  0  0  0
  -25.9440  -30.7750   21.2130 C   0  0  0  0  0  2  0  0  0  0  0  0
  -26.0480  -29.4130   20.5330 C   0  0  0  0  0  0  0  0  0  0  0  0
  -27.2540  -28.6330   20.4900 C   0  0  0  0  0  3  0  0  0  0  0  0
  -26.1000  -26.9380   19.2230 C   0  0  0  0  0  3  0  0  0  0  0  0
  -24.9120  -27.6910   19.2660 C   0  0  0  0  0  3  0  0  0  0  0  0
  -23.6140  -29.7490   20.0470 C   0  0  0  0  0  2  0  0  0  0  0  0
  -24.6820  -30.9990   21.9730 N   0  0  0  0  0  0  0  0  0  0  0  0
  -23.5470  -32.0070   23.6680 O   0  0  0  0  0  0  0  0  0  0  0  0
  -22.8090  -29.3260   22.4020 C   0  0  0  0  0  0  0  0  0  0  0  0
  -21.4870  -29.1000   22.2920 N   0  0  0  0  0  0  0  0  0  0  0  0
  -23.5240  -28.7060   23.1950 O   0  0  0  0  0  0  0  0  0  0  0  0
  -20.9720  -29.6630   21.6300 H   0  0  0  0  0  0  0  0  0  0  0  0
  -18.1770  -27.7030   22.7480 C   0  0  0  0  0  0  0  0  0  0  0  0
  -20.7150  -28.1090   23.0420 C   0  0  0  0  0  3  0  0  0  0  0  0
  -20.9050  -26.6920   22.4530 C   0  0  0  0  0  2  0  0  0  0  0  0
  -19.8300  -26.3140   21.4290 C   0  0  0  0  0  2  0  0  0  0  0  0
  -18.4360  -26.3730   22.0600 C   0  0  0  0  0  2  0  0  0  0  0  0
  -19.2470  -28.5280   23.1890 C   0  0  0  0  0  0  0  0  0  0  0  0
  -18.9510  -29.7740   23.7830 C   0  0  0  0  0  3  0  0  0  0  0  0
  -17.6200  -30.1960   23.9490 C   0  0  0  0  0  3  0  0  0  0  0  0
  -16.5640  -29.3660   23.5310 C   0  0  0  0  0  3  0  0  0  0  0  0
  -16.8440  -28.1250   22.9320 C   0  0  0  0  0  3  0  0  0  0  0  0
  -25.8990  -32.4310   23.7030 C   0  0  0  0  0  3  0  0  0  0  0  0
  -25.5500  -33.8020   24.1030 N   0  0  0  0  0  0  0  0  0  0  0  0
  -25.8360  -34.9010   23.3940 C   0  0  0  0  0  0  0  0  0  0  0  0
  -26.4880  -34.8690   22.3460 O   0  0  0  0  0  0  0  0  0  0  0  0
  -24.9800  -33.8980   24.9310 H   0  0  0  0  0  0  0  0  0  0  0  0
  -24.0460  -36.6590   23.1660 C   0  0  0  0  0  1  0  0  0  0  0  0
  -25.3140  -36.2490   23.9310 C   0  0  0  0  0  3  0  0  0  0  0  0
  -27.4350  -37.1560   24.7730 C   0  0  0  0  0  1  0  0  0  0  0  0
  -26.3090  -37.3410   23.8600 N   0  0  0  0  0  0  0  0  0  0  0  0
  -25.8780  -38.2390   24.0610 H   0  0  0  0  0  0  0  0  0  0  0  0
  -26.4810  -31.6300   24.9330 C   0  0  1  0  0  0  0  0  0  0  0  0
  -25.4320  -31.3150   26.0270 C   0  0  0  0  0  1  0  0  0  0  0  0
  -27.1010  -30.2900   24.4740 C   0  0  0  0  0  1  0  0  0  0  0  0
  -27.6300  -32.4360   25.5850 C   0  0  0  0  0  1  0  0  0  0  0  0
  -28.9350  -21.1430   19.6870 C   0  0  0  0  0  2  0  0  0  0  0  0
  -29.4200  -18.5180   19.9960 C   0  0  0  0  0  3  0  0  0  0  0  0
  -31.1370  -20.0810   20.6880 C   0  0  0  0  0  3  0  0  0  0  0  0
  -31.5190  -17.6540   20.8520 C   0  0  0  0  0  3  0  0  0  0  0  0
  -29.8420  -19.9030   20.1530 C   0  0  0  0  0  0  0  0  0  0  0  0
  -30.2340  -17.3610   20.3440 C   0  0  0  0  0  0  0  0  0  0  0  0
  -31.9580  -18.9860   21.0300 C   0  0  0  0  0  0  0  0  0  0  0  0
  -33.5200  -19.2840   21.7050 Cl  0  0  0  0  0  0  0  0  0  0  0  0
  -30.4790  -14.7690   20.0840 C   0  0  0  0  0  0  0  0  0  0  0  0
  -30.1760  -12.4900   19.0990 C   0  0  0  0  0  2  0  0  0  0  0  0
  -29.1970  -12.5370   17.9050 C   0  0  0  0  0  2  0  0  0  0  0  0
  -27.7460  -12.3660   18.3880 C   0  0  0  0  0  2  0  0  0  0  0  0
  -27.4060  -13.2770   19.5990 C   0  0  0  0  0  3  0  0  0  0  0  0
  -28.5140  -13.2490   20.6810 C   0  0  0  0  0  2  0  0  0  0  0  0
  -29.7880  -13.5760   20.0290 N   0  0  0  0  0  0  0  0  0  0  0  0
  -31.6580  -14.8080   19.7370 O   0  0  0  0  0  0  0  0  0  0  0  0
  -29.7670  -15.9480   20.2680 N   0  0  0  0  0  0  0  0  0  0  0  0
  -28.7710  -15.8200   20.3440 H   0  0  0  0  0  0  0  0  0  0  0  0
  -25.0350  -13.8460   20.4050 C   0  0  0  0  0  0  0  0  0  0  0  0
  -23.9880  -13.0690   20.8090 C   0  0  0  0  0  0  0  0  0  0  0  0
  -24.4600  -11.7180   20.7720 C   0  0  0  0  0  0  0  0  0  0  0  0
  -26.0820  -12.9750   20.1420 N   0  0  0  0  0  0  0  0  0  0  0  0
  -25.7430  -11.6890   20.4290 N   0  0  0  0  0  0  0  0  0  0  0  0
  -23.7490  -10.4520   20.9950 C   0  0  0  0  0  0  0  0  0  0  0  0
  -24.2420   -9.4750   21.8870 C   0  0  0  0  0  3  0  0  0  0  0  0
  -23.5290   -8.2760   22.1040 C   0  0  0  0  0  3  0  0  0  0  0  0
  -22.3090   -8.0440   21.4220 C   0  0  0  0  0  0  0  0  0  0  0  0
  -21.8340   -9.0110   20.5200 C   0  0  0  0  0  3  0  0  0  0  0  0
  -22.5470  -10.2010   20.3030 C   0  0  0  0  0  3  0  0  0  0  0  0
  -21.5620   -6.8970   21.5470 O   0  0  0  0  0  0  0  0  0  0  0  0
  -21.6280   -6.1100   22.6690 C   0  0  0  0  0  0  0  0  0  0  0  0
  -21.3430   -6.6230   23.9540 C   0  0  0  0  0  3  0  0  0  0  0  0
  -21.3560   -5.7660   25.0710 C   0  0  0  0  0  3  0  0  0  0  0  0
  -21.6410   -4.3980   24.9070 C   0  0  0  0  0  0  0  0  0  0  0  0
  -21.9210   -3.8850   23.6280 C   0  0  0  0  0  3  0  0  0  0  0  0
  -21.9100   -4.7400   22.5120 C   0  0  0  0  0  0  0  0  0  0  0  0
  -22.1580   -4.2370   21.2770 F   0  0  0  0  0  0  0  0  0  0  0  0
  -21.6470   -3.5720   25.9790 F   0  0  0  0  0  0  0  0  0  0  0  0
  -22.5970  -13.5350   21.1220 C   0  0  0  0  0  0  0  0  0  0  0  0
  -21.9130  -12.8470   22.0310 N   0  0  0  0  0  0  0  0  0  0  0  0
  -22.1230  -14.5400   20.5940 O   0  0  0  0  0  0  0  0  0  0  0  0
  -22.3120  -12.0310   22.4710 H   0  0  0  0  0  0  0  0  0  0  0  0
  -20.9810  -13.1350   22.2860 H   0  0  0  0  0  0  0  0  0  0  0  0
  -25.1740  -15.2190   20.2120 N   0  0  0  0  0  0  0  0  0  0  0  0
  -24.3900  -15.8510   20.3420 H   0  0  0  0  0  0  0  0  0  0  0  0
  -25.9910  -15.6790   19.8350 H   0  0  0  0  0  0  0  0  0  0  0  0
  1  8  1  0
  1  7  1  0
  2  1  2  0
  3  5  1  0
  4  3  1  0
  6  8  1  0
  6  4  1  0
  7 16  1  0
  7  5  1  0
  8  9  1  1
 10  2  1  0
 11 10  2  0
 12 13  2  0
 13 11  1  0
 14 15  2  0
 15 12  1  0
 16 18  1  0
 17 28  2  0
 18 23  1  0
 19 27  1  0
 19 29  1  0
 20 26  1  0
 20 22  1  0
 21 27  1  0
 22 21  1  0
 23 22  2  0
 24 25  1  0
 24 18  2  0
 25 20  2  0
 26 19  1  0
 27 17  1  0
 29 31  2  0
 30 29  1  0
 32 30  1  0
 33 42  2  0
 33 38  1  0
 34 30  1  0
 34 38  1  0
 35 34  1  0
 36 37  1  0
 36 35  1  0
 37 33  1  0
 38 39  2  0
 39 40  1  0
 41 40  2  0
 42 41  1  0
 43 17  1  0
 43 44  1  0
 43 53  1  0
 44 47  1  0
 45 49  1  0
 45 44  1  0
 46 45  2  0
 49 48  1  0
 51 49  1  0
 51 52  1  0
 51 50  1  0
 53 56  1  1
 53 54  1  0
 55 53  1  0
 57  8  1  0
 57 61  1  0
 58 61  2  0
 58 62  1  0
 59 63  2  0
 60 63  1  0
 61 59  1  0
 62 60  2  0
 63 64  1  0
 65 73  1  0
 66 71  1  0
 67 68  1  0
 67 66  1  0
 69 68  1  0
 69 78  1  0
 69 70  1  0
 71 65  1  0
 71 70  1  0
 72 65  2  0
 73 74  1  0
 73 62  1  0
 75 76  2  0
 76 95  1  0
 77 76  1  0
 77 80  1  0
 78 75  1  0
 78 79  1  0
 79 77  2  0
 80 81  1  0
 81 82  2  0
 83 86  1  0
 83 82  1  0
 84 83  2  0
 85 84  1  0
 85 80  2  0
 86 87  1  0
 87 88  1  0
 88 89  2  0
 90 89  1  0
 90 94  1  0
 91 90  2  0
 92 87  2  0
 92 91  1  0
 93 92  1  0
 95 96  1  0
 96 99  1  0
 96 98  1  0
 97 95  2  0
100101  1  0
100 75  1  0
102100  1  0
M  ISO  4   7 101  16 101  65 100  73 100
M  END
>  <TORSDO>  (88) 
F 21

>  <SCORE>  (88) 
-12.214

>  <name>  (88) 
87

>  <ligand_id>  (88) 
87

>  <original_smiles>  (88) 
[H]C([H])=C([H])C([H])=C([H])C([H])=C([H])C([H])=C1C([H])(Oc2c([H])c([H])c3c(c2[H])C([H])([H])N(C(=O)C([H])(N([H])C(=O)C([H])(N([H])C([H])([H])[H])C([H])([H])[H])C(C([H])([H])[H])(C([H])([H])[H])C([H])([H])[H])C([H])(C(=O)N([H])C2([H])c4c([H])c([H])c([H])c([H])c4C([H])([H])C([H])([H])C2([H])[H])C3([H])[H])C([H])([H])C([H])([H])C([H])([H])C([H])([H])[N+]1([H])C([H])([H])c1c([H])c(Cl)c([H])c(N([H])C(=O)N2C([H])([H])C([H])([H])C([H])([H])C([H])(n3nc(-c4c([H])c([H])c(Oc5c([H])c([H])c(F)c([H])c5F)c([H])c4[H])c(C(=O)N([H])[H])c3N([H])[H])C2([H])[H])c1[H]

>  <smiles>  (88) 
[H]C([H])=C([H])C([H])=C([H])C([H])=C([H])C([H])=C1C([H])(Oc2c([H])c([H])c3c(c2[H])C([H])([H])N(C(=O)C([H])(N([H])C(=O)C([H])(N([H])C([H])([H])[H])C([H])([H])[H])C(C([H])([H])[H])(C([H])([H])[H])C([H])([H])[H])C([H])(C(=O)N([H])C2([H])c4c([H])c([H])c([H])c([H])c4C([H])([H])C([H])([H])C2([H])[H])C3([H])[H])C([H])([H])C([H])([H])C([H])([H])C([H])([H])[N+]1([H])C([H])([H])c1c([H])c(Cl)c([H])c(N([H])C(=O)N2C([H])([H])C([H])([H])C([H])([H])C([H])(n3nc(-c4c([H])c([H])c(Oc5c([H])c([H])c(F)c([H])c5F)c([H])c4[H])c(C(=O)N([H])[H])c3N([H])[H])C2([H])[H])c1[H]

$$$$
88:0:0
     RDKit          3D

 93101  0  0  1  0  0  0  0  0999 V2000
  -29.8090  -21.9700   21.2790 C   0  0  0  0  0  2  0  0  0  0  0  0
  -29.7110  -19.3920   20.8640 C   0  0  0  0  0  3  0  0  0  0  0  0
  -31.6830  -18.1640   20.1390 C   0  0  0  0  0  3  0  0  0  0  0  0
  -31.7710  -20.6010   20.3950 C   0  0  0  0  0  3  0  0  0  0  0  0
  -30.3290  -18.1450   20.5320 C   0  0  0  0  0  0  0  0  0  0  0  0
  -30.4210  -20.6280   20.8070 C   0  0  0  0  0  0  0  0  0  0  0  0
  -32.3940  -19.3800   20.0630 C   0  0  0  0  0  0  0  0  0  0  0  0
  -34.0390  -19.3760   19.5380 Cl  0  0  0  0  0  0  0  0  0  0  0  0
  -29.5020  -16.8340   20.4670 C   0  0  0  0  0  2  0  0  0  0  0  0
  -30.6410  -14.5600   20.4550 C   0  0  0  0  0  0  0  0  0  0  0  0
  -30.3710  -12.3640   19.3470 C   0  0  0  0  0  2  0  0  0  0  0  0
  -29.4380  -12.5500   18.1310 C   0  0  0  0  0  2  0  0  0  0  0  0
  -27.9600  -12.4110   18.5480 C   0  0  0  0  0  2  0  0  0  0  0  0
  -27.6120  -13.2620   19.7980 C   0  0  0  0  0  3  0  0  0  0  0  0
  -28.6590  -13.0500   20.9170 C   0  0  0  0  0  2  0  0  0  0  0  0
  -29.9960  -13.3560   20.3730 N   0  0  0  0  0  0  0  0  0  0  0  0
  -31.7180  -14.7650   19.8930 O   0  0  0  0  0  0  0  0  0  0  0  0
  -29.9680  -15.5570   21.0760 N   0  0  0  0  0  0  0  0  0  0  0  0
  -29.2980  -15.1970   21.7360 H   0  0  0  0  0  0  0  0  0  0  0  0
  -25.2110  -13.8890   20.4860 C   0  0  0  0  0  0  0  0  0  0  0  0
  -24.1350  -13.1240   20.8530 C   0  0  0  0  0  0  0  0  0  0  0  0
  -24.5870  -11.7710   20.8320 C   0  0  0  0  0  0  0  0  0  0  0  0
  -26.2520  -12.9980   20.2670 N   0  0  0  0  0  0  0  0  0  0  0  0
  -25.8790  -11.7200   20.5330 N   0  0  0  0  0  0  0  0  0  0  0  0
  -23.8510  -10.5140   21.0290 C   0  0  0  0  0  0  0  0  0  0  0  0
  -24.2830   -9.5440   21.9590 C   0  0  0  0  0  3  0  0  0  0  0  0
  -23.5500   -8.3510   22.1470 C   0  0  0  0  0  3  0  0  0  0  0  0
  -22.3700   -8.1210   21.4000 C   0  0  0  0  0  0  0  0  0  0  0  0
  -21.9560   -9.0790   20.4560 C   0  0  0  0  0  3  0  0  0  0  0  0
  -22.6910  -10.2610   20.2710 C   0  0  0  0  0  3  0  0  0  0  0  0
  -21.6100   -6.9800   21.4930 O   0  0  0  0  0  0  0  0  0  0  0  0
  -21.5710   -6.2300   22.6410 C   0  0  0  0  0  0  0  0  0  0  0  0
  -21.1810   -6.7840   23.8800 C   0  0  0  0  0  3  0  0  0  0  0  0
  -21.0920   -5.9620   25.0200 C   0  0  0  0  0  3  0  0  0  0  0  0
  -21.3810   -4.5870   24.9230 C   0  0  0  0  0  0  0  0  0  0  0  0
  -21.7630   -4.0330   23.6880 C   0  0  0  0  0  3  0  0  0  0  0  0
  -21.8540   -4.8520   22.5490 C   0  0  0  0  0  0  0  0  0  0  0  0
  -22.2040   -4.3100   21.3580 F   0  0  0  0  0  0  0  0  0  0  0  0
  -21.2840   -3.7950   26.0160 F   0  0  0  0  0  0  0  0  0  0  0  0
  -22.7400  -13.6110   21.1140 C   0  0  0  0  0  0  0  0  0  0  0  0
  -22.0020  -12.9260   21.9820 N   0  0  0  0  0  0  0  0  0  0  0  0
  -22.3080  -14.6330   20.5840 O   0  0  0  0  0  0  0  0  0  0  0  0
  -22.3680  -12.1020   22.4370 H   0  0  0  0  0  0  0  0  0  0  0  0
  -21.0640  -13.2330   22.1990 H   0  0  0  0  0  0  0  0  0  0  0  0
  -25.3790  -15.2570   20.3040 N   0  0  0  0  0  0  0  0  0  0  0  0
  -24.6060  -15.9070   20.4140 H   0  0  0  0  0  0  0  0  0  0  0  0
  -26.2360  -15.7010   19.9990 H   0  0  0  0  0  0  0  0  0  0  0  0
  -29.5100  -22.9770   20.2120 N   0  0  0  0  0  4  0  0  0  0  0  0
  -30.2360  -22.9340   19.5140 H   0  0  0  0  0  0  0  0  0  0  0  0
  -28.6560  -22.6930   19.7610 H   0  0  0  0  0  0  0  0  0  0  0  0
  -29.3800  -24.4020   20.6850 C   0  0  0  0  0  2  0  0  0  0  0  0
  -28.4170  -25.2760   19.8240 C   0  0  0  0  0  2  0  0  0  0  0  0
  -28.4090  -26.6830   20.1930 O   0  0  0  0  0  0  0  0  0  0  0  0
  -24.5930  -31.8870   23.2260 C   0  0  0  0  0  0  0  0  0  0  0  0
  -27.2270  -27.4140   20.1440 C   0  0  0  0  0  0  0  0  0  0  0  0
  -23.3780  -30.4840   21.5950 C   0  0  0  0  0  3  0  0  0  0  0  0
  -24.8260  -28.9450   20.1600 C   0  0  0  0  0  0  0  0  0  0  0  0
  -25.9040  -30.8390   21.3810 C   0  0  0  0  0  2  0  0  0  0  0  0
  -25.9870  -29.4630   20.7450 C   0  0  0  0  0  0  0  0  0  0  0  0
  -27.1850  -28.7050   20.7350 C   0  0  0  0  0  3  0  0  0  0  0  0
  -26.0420  -26.9330   19.5320 C   0  0  0  0  0  3  0  0  0  0  0  0
  -24.8520  -27.6830   19.5480 C   0  0  0  0  0  3  0  0  0  0  0  0
  -23.5790  -29.8010   20.2160 C   0  0  0  0  0  2  0  0  0  0  0  0
  -24.6440  -31.0840   22.1260 N   0  0  0  0  0  0  0  0  0  0  0  0
  -23.5160  -32.1590   23.7740 O   0  0  0  0  0  0  0  0  0  0  0  0
  -22.7320  -29.4640   22.5600 C   0  0  0  0  0  0  0  0  0  0  0  0
  -21.4060  -29.2850   22.4430 N   0  0  0  0  0  0  0  0  0  0  0  0
  -23.4200  -28.8350   23.3680 O   0  0  0  0  0  0  0  0  0  0  0  0
  -20.9110  -29.8430   21.7600 H   0  0  0  0  0  0  0  0  0  0  0  0
  -18.0330  -28.1010   22.9650 C   0  0  0  0  0  0  0  0  0  0  0  0
  -20.5930  -28.3500   23.2210 C   0  0  0  0  0  3  0  0  0  0  0  0
  -20.6890  -26.9190   22.6450 C   0  0  0  0  0  2  0  0  0  0  0  0
  -19.5810  -26.6000   21.6380 C   0  0  0  0  0  2  0  0  0  0  0  0
  -18.2030  -26.7500   22.2890 C   0  0  0  0  0  2  0  0  0  0  0  0
  -19.1570  -28.8570   23.3890 C   0  0  0  0  0  0  0  0  0  0  0  0
  -18.9460  -30.1230   23.9790 C   0  0  0  0  0  3  0  0  0  0  0  0
  -17.6430  -30.6300   24.1490 C   0  0  0  0  0  3  0  0  0  0  0  0
  -16.5340  -29.8690   23.7430 C   0  0  0  0  0  3  0  0  0  0  0  0
  -16.7290  -28.6070   23.1560 C   0  0  0  0  0  3  0  0  0  0  0  0
  -25.8830  -32.5170   23.8380 C   0  0  0  0  0  3  0  0  0  0  0  0
  -25.5780  -33.9140   24.1740 N   0  0  0  0  0  0  0  0  0  0  0  0
  -25.9080  -34.9680   23.4160 C   0  0  0  0  0  0  0  0  0  0  0  0
  -26.5770  -34.8670   22.3830 O   0  0  0  0  0  0  0  0  0  0  0  0
  -24.9780  -34.0650   24.9720 H   0  0  0  0  0  0  0  0  0  0  0  0
  -24.1790  -36.7610   23.0750 C   0  0  0  0  0  1  0  0  0  0  0  0
  -25.4240  -36.3560   23.8790 C   0  0  0  0  0  3  0  0  0  0  0  0
  -27.5660  -37.2350   24.6980 C   0  0  0  0  0  1  0  0  0  0  0  0
  -26.4570  -37.4100   23.7630 N   0  0  0  0  0  0  0  0  0  0  0  0
  -26.0520  -38.3290   23.9170 H   0  0  0  0  0  0  0  0  0  0  0  0
  -26.4120  -31.7420   25.1060 C   0  0  1  0  0  0  0  0  0  0  0  0
  -25.3260  -31.5040   26.1810 C   0  0  0  0  0  1  0  0  0  0  0  0
  -26.9890  -30.3640   24.7010 C   0  0  0  0  0  1  0  0  0  0  0  0
  -27.5700  -32.5320   25.7590 C   0  0  0  0  0  1  0  0  0  0  0  0
  3  5  1  0
  4  6  2  0
  5  2  2  0
  6  2  1  0
  6  1  1  0
  7  3  2  0
  7  4  1  0
  8  7  1  0
  9  5  1  0
  9 18  1  0
 10 18  1  0
 11 16  1  0
 12 13  1  0
 12 11  1  0
 14 13  1  0
 14 23  1  0
 14 15  1  0
 16 10  1  0
 16 15  1  0
 17 10  2  0
 18 19  1  0
 20 21  2  0
 21 40  1  0
 22 21  1  0
 22 25  1  0
 23 20  1  0
 23 24  1  0
 24 22  2  0
 25 26  1  0
 26 27  2  0
 28 31  1  0
 28 27  1  0
 29 28  2  0
 30 29  1  0
 30 25  2  0
 31 32  1  0
 32 33  1  0
 33 34  2  0
 35 34  1  0
 35 39  1  0
 36 35  2  0
 37 32  2  0
 37 36  1  0
 38 37  1  0
 40 41  1  0
 41 44  1  0
 41 43  1  0
 42 40  2  0
 45 46  1  0
 45 20  1  0
 47 45  1  0
 48 51  1  0
 48  1  1  0
 49 48  1  0
 50 48  1  0
 52 53  1  0
 52 51  1  0
 54 65  2  0
 55 53  1  0
 55 60  1  0
 56 64  1  0
 56 66  1  0
 57 63  1  0
 57 59  1  0
 58 64  1  0
 59 58  1  0
 60 59  2  0
 61 62  1  0
 61 55  2  0
 62 57  2  0
 63 56  1  0
 64 54  1  0
 66 68  2  0
 67 66  1  0
 69 67  1  0
 70 79  2  0
 70 75  1  0
 71 67  1  0
 71 75  1  0
 72 71  1  0
 73 74  1  0
 73 72  1  0
 74 70  1  0
 75 76  2  0
 76 77  1  0
 78 77  2  0
 79 78  1  0
 80 54  1  0
 80 81  1  0
 80 90  1  0
 81 84  1  0
 82 86  1  0
 82 81  1  0
 83 82  2  0
 86 85  1  0
 88 86  1  0
 88 89  1  0
 88 87  1  0
 90 93  1  1
 90 91  1  0
 92 90  1  0
M  ISO  4  10 100  18 100  52 101  53 101
M  END
>  <TORSDO>  (89) 
F 21

>  <SCORE>  (89) 
-13.508

>  <name>  (89) 
88

>  <ligand_id>  (89) 
88

>  <original_smiles>  (89) 
[H]c1c([H])c([H])c2c(c1[H])C([H])([H])C([H])([H])C([H])([H])C2([H])N([H])C(=O)C1([H])N(C(=O)C([H])(N([H])C(=O)C([H])(N([H])C([H])([H])[H])C([H])([H])[H])C(C([H])([H])[H])(C([H])([H])[H])C([H])([H])[H])C([H])([H])c2c([H])c(OC([H])([H])C([H])([H])[N+]([H])([H])C([H])([H])c3c([H])c(Cl)c([H])c(C([H])([H])N([H])C(=O)N4C([H])([H])C([H])([H])C([H])([H])C([H])(n5nc(-c6c([H])c([H])c(Oc7c([H])c([H])c(F)c([H])c7F)c([H])c6[H])c(C(=O)N([H])[H])c5N([H])[H])C4([H])[H])c3[H])c([H])c([H])c2C1([H])[H]

>  <smiles>  (89) 
[H]c1c([H])c([H])c2c(c1[H])C([H])([H])C([H])([H])C([H])([H])C2([H])N([H])C(=O)C1([H])N(C(=O)C([H])(N([H])C(=O)C([H])(N([H])C([H])([H])[H])C([H])([H])[H])C(C([H])([H])[H])(C([H])([H])[H])C([H])([H])[H])C([H])([H])c2c([H])c(OC([H])([H])C([H])([H])[N+]([H])([H])C([H])([H])c3c([H])c(Cl)c([H])c(C([H])([H])N([H])C(=O)N4C([H])([H])C([H])([H])C([H])([H])C([H])(n5nc(-c6c([H])c([H])c(Oc7c([H])c([H])c(F)c([H])c7F)c([H])c6[H])c(C(=O)N([H])[H])c5N([H])[H])C4([H])[H])c3[H])c([H])c([H])c2C1([H])[H]

$$$$
89:0:0
     RDKit          3D

 98107  0  0  1  0  0  0  0  0999 V2000
  -25.4820  -22.2220   19.2910 C   0  0  0  0  0  2  0  0  0  0  0  0
  -26.1870  -21.8650   17.9650 C   0  0  0  0  0  2  0  0  0  0  0  0
  -26.3730  -22.6830   20.4650 C   0  0  0  0  0  2  0  0  0  0  0  0
  -26.8560  -23.0510   17.2330 C   0  0  0  0  0  2  0  0  0  0  0  0
  -26.9940  -24.0860   20.2860 C   0  0  0  0  0  2  0  0  0  0  0  0
  -28.3830  -23.1240   17.4190 C   0  0  0  0  0  2  0  0  0  0  0  0
  -28.4460  -24.1560   19.7570 C   0  0  0  0  0  3  0  0  0  0  0  0
  -28.7720  -22.9610   18.8390 N   0  0  2  0  0  4  0  0  0  0  0  0
  -28.0890  -22.2880   19.1610 H   0  0  0  0  0  0  0  0  0  0  0  0
  -30.0570  -22.1520   19.0300 C   0  0  0  0  0  2  0  0  0  0  0  0
  -30.6050  -19.7020   18.2270 C   0  0  0  0  0  3  0  0  0  0  0  0
  -30.7410  -18.2860   18.4060 C   0  0  0  0  0  3  0  0  0  0  0  0
  -30.0080  -20.5620   19.1970 C   0  0  0  0  0  0  0  0  0  0  0  0
  -29.5290  -19.8980   20.3720 C   0  0  0  0  0  0  0  0  0  0  0  0
  -29.6440  -18.4690   20.5440 C   0  0  0  0  0  0  0  0  0  0  0  0
  -30.2730  -17.6250   19.5730 C   0  0  0  0  0  0  0  0  0  0  0  0
  -28.9110  -20.7210   21.5030 C   0  0  0  0  0  1  0  0  0  0  0  0
  -29.0790  -17.8010   21.8020 C   0  0  0  0  0  1  0  0  0  0  0  0
  -31.1340  -15.1170   19.4750 C   0  0  0  0  0  0  0  0  0  0  0  0
  -30.9850  -12.7170   18.7940 C   0  0  0  0  0  2  0  0  0  0  0  0
  -29.9600  -12.5990   17.6410 C   0  0  0  0  0  2  0  0  0  0  0  0
  -28.5220  -12.4710   18.1850 C   0  0  0  0  0  2  0  0  0  0  0  0
  -28.2050  -13.5200   19.2820 C   0  0  0  0  0  3  0  0  0  0  0  0
  -29.3300  -13.5660   20.3410 C   0  0  0  0  0  2  0  0  0  0  0  0
  -30.5890  -13.8660   19.6370 N   0  0  0  0  0  0  0  0  0  0  0  0
  -32.2480  -15.2630   18.9600 O   0  0  0  0  0  0  0  0  0  0  0  0
  -30.3080  -16.1660   19.8070 N   0  0  0  0  0  0  0  0  0  0  0  0
  -29.5000  -15.8340   20.3090 H   0  0  0  0  0  0  0  0  0  0  0  0
  -25.9350  -14.2250   20.2550 C   0  0  0  0  0  0  0  0  0  0  0  0
  -24.8620  -13.4990   20.6960 C   0  0  0  0  0  0  0  0  0  0  0  0
  -25.2320  -12.1270   20.5610 C   0  0  0  0  0  0  0  0  0  0  0  0
  -26.8940  -13.2960   19.8830 N   0  0  0  0  0  0  0  0  0  0  0  0
  -26.4810  -12.0260   20.1250 N   0  0  0  0  0  0  0  0  0  0  0  0
  -24.4480  -10.9020   20.7650 C   0  0  0  0  0  0  0  0  0  0  0  0
  -24.8540   -9.9080   21.6840 C   0  0  0  0  0  3  0  0  0  0  0  0
  -24.0740   -8.7490   21.8760 C   0  0  0  0  0  3  0  0  0  0  0  0
  -22.8720   -8.5730   21.1500 C   0  0  0  0  0  0  0  0  0  0  0  0
  -22.4820   -9.5540   20.2210 C   0  0  0  0  0  3  0  0  0  0  0  0
  -23.2630  -10.7060   20.0260 C   0  0  0  0  0  3  0  0  0  0  0  0
  -22.0630   -7.4670   21.2530 O   0  0  0  0  0  0  0  0  0  0  0  0
  -21.9260   -6.7820   22.4340 C   0  0  0  0  0  0  0  0  0  0  0  0
  -21.4830   -7.4170   23.6150 C   0  0  0  0  0  3  0  0  0  0  0  0
  -21.2900   -6.6620   24.7900 C   0  0  0  0  0  3  0  0  0  0  0  0
  -21.5300   -5.2760   24.7840 C   0  0  0  0  0  0  0  0  0  0  0  0
  -21.9660   -4.6420   23.6070 C   0  0  0  0  0  3  0  0  0  0  0  0
  -22.1600   -5.3930   22.4350 C   0  0  0  0  0  0  0  0  0  0  0  0
  -22.5600   -4.7740   21.2980 F   0  0  0  0  0  0  0  0  0  0  0  0
  -21.3370   -4.5480   25.9090 F   0  0  0  0  0  0  0  0  0  0  0  0
  -23.5320  -14.0440   21.1280 C   0  0  0  0  0  0  0  0  0  0  0  0
  -22.8590  -13.3620   22.0480 N   0  0  0  0  0  0  0  0  0  0  0  0
  -23.1020  -15.1080   20.6840 O   0  0  0  0  0  0  0  0  0  0  0  0
  -23.2200  -12.4980   22.4250 H   0  0  0  0  0  0  0  0  0  0  0  0
  -21.9710  -13.7080   22.3810 H   0  0  0  0  0  0  0  0  0  0  0  0
  -26.1670  -15.5900   20.1180 N   0  0  0  0  0  0  0  0  0  0  0  0
  -25.4460  -16.2750   20.3110 H   0  0  0  0  0  0  0  0  0  0  0  0
  -26.9870  -15.9920   19.6810 H   0  0  0  0  0  0  0  0  0  0  0  0
  -28.9420  -25.6790   19.4700 C   0  0  0  0  0  2  0  0  0  0  0  0
  -28.3430  -26.6990   18.5670 O   0  0  0  0  0  0  0  0  0  0  0  0
  -24.7690  -31.3570   22.8910 C   0  0  0  0  0  0  0  0  0  0  0  0
  -27.2190  -27.4680   18.9080 C   0  0  0  0  0  0  0  0  0  0  0  0
  -23.4630  -30.1930   21.1520 C   0  0  0  0  0  3  0  0  0  0  0  0
  -24.8220  -28.9640   19.3680 C   0  0  0  0  0  0  0  0  0  0  0  0
  -25.9630  -30.6440   20.8090 C   0  0  0  0  0  2  0  0  0  0  0  0
  -26.0250  -29.3850   19.9520 C   0  0  0  0  0  0  0  0  0  0  0  0
  -27.2260  -28.6420   19.7290 C   0  0  0  0  0  3  0  0  0  0  0  0
  -26.0070  -27.1480   18.2680 C   0  0  0  0  0  3  0  0  0  0  0  0
  -24.8130  -27.8500   18.5180 C   0  0  0  0  0  3  0  0  0  0  0  0
  -23.5690  -29.7650   19.6640 C   0  0  0  0  0  2  0  0  0  0  0  0
  -24.7540  -30.7430   21.6730 N   0  0  0  0  0  0  0  0  0  0  0  0
  -23.7330  -31.4930   23.5590 O   0  0  0  0  0  0  0  0  0  0  0  0
  -22.9280  -29.0000   21.9800 C   0  0  0  0  0  0  0  0  0  0  0  0
  -21.6140  -28.7310   21.8780 N   0  0  0  0  0  0  0  0  0  0  0  0
  -23.6920  -28.3240   22.6750 O   0  0  0  0  0  0  0  0  0  0  0  0
  -21.0510  -29.3370   21.2980 H   0  0  0  0  0  0  0  0  0  0  0  0
  -18.4080  -27.0840   22.1770 C   0  0  0  0  0  0  0  0  0  0  0  0
  -20.9090  -27.6300   22.5380 C   0  0  0  0  0  3  0  0  0  0  0  0
  -21.1990  -26.2830   21.8370 C   0  0  0  0  0  2  0  0  0  0  0  0
  -20.1620  -25.9230   20.7680 C   0  0  0  0  0  2  0  0  0  0  0  0
  -18.7630  -25.8360   21.3850 C   0  0  0  0  0  2  0  0  0  0  0  0
  -19.4160  -27.9350   22.7050 C   0  0  0  0  0  0  0  0  0  0  0  0
  -19.0300  -29.1000   23.4010 C   0  0  0  0  0  3  0  0  0  0  0  0
  -17.6710  -29.4180   23.5770 C   0  0  0  0  0  3  0  0  0  0  0  0
  -16.6780  -28.5650   23.0670 C   0  0  0  0  0  3  0  0  0  0  0  0
  -17.0470  -27.4000   22.3720 C   0  0  0  0  0  3  0  0  0  0  0  0
  -26.0850  -31.9410   23.4940 C   0  0  0  0  0  3  0  0  0  0  0  0
  -26.7480  -30.9930   24.5670 C   0  0  1  0  0  0  0  0  0  0  0  0
  -25.7740  -30.5390   25.6790 C   0  0  0  0  0  1  0  0  0  0  0  0
  -27.3240  -29.7240   23.8960 C   0  0  0  0  0  1  0  0  0  0  0  0
  -27.9360  -31.7180   25.2420 C   0  0  0  0  0  1  0  0  0  0  0  0
  -25.7620  -33.2470   24.0850 N   0  0  0  0  0  0  0  0  0  0  0  0
  -26.0400  -34.4290   23.5200 C   0  0  0  0  0  0  0  0  0  0  0  0
  -26.6660  -34.5330   22.4620 O   0  0  0  0  0  0  0  0  0  0  0  0
  -25.2020  -33.2360   24.9250 H   0  0  0  0  0  0  0  0  0  0  0  0
  -24.2700  -36.2160   23.5590 C   0  0  0  0  0  1  0  0  0  0  0  0
  -25.5450  -35.6960   24.2430 C   0  0  0  0  0  3  0  0  0  0  0  0
  -27.6930  -36.4580   25.1590 C   0  0  0  0  0  1  0  0  0  0  0  0
  -26.5550  -36.7750   24.2980 N   0  0  0  0  0  0  0  0  0  0  0  0
  -26.1390  -37.6410   24.6280 H   0  0  0  0  0  0  0  0  0  0  0  0
  1  3  1  0
  2  1  1  0
  4  6  1  0
  4  2  1  0
  5  3  1  0
  6  8  1  0
  7 57  1  0
  7  5  1  0
  8 10  1  0
  8  9  1  1
  8  7  1  0
 10 13  1  0
 11 12  2  0
 11 13  1  0
 12 16  1  0
 13 14  2  0
 14 15  1  0
 14 17  1  0
 15 18  1  0
 16 27  1  0
 16 15  2  0
 19 25  1  0
 19 27  1  0
 20 25  1  0
 21 22  1  0
 21 20  1  0
 23 22  1  0
 23 32  1  0
 23 24  1  0
 25 24  1  0
 26 19  2  0
 27 28  1  0
 29 30  2  0
 30 49  1  0
 31 30  1  0
 31 34  1  0
 32 33  1  0
 32 29  1  0
 33 31  2  0
 34 35  1  0
 35 36  2  0
 37 40  1  0
 37 36  1  0
 38 37  2  0
 39 38  1  0
 39 34  2  0
 40 41  1  0
 41 46  2  0
 41 42  1  0
 42 43  2  0
 44 43  1  0
 44 48  1  0
 45 44  2  0
 46 45  1  0
 47 46  1  0
 49 50  1  0
 50 53  1  0
 50 52  1  0
 51 49  2  0
 54 29  1  0
 54 55  1  0
 56 54  1  0
 58 60  1  0
 58 57  1  0
 59 70  2  0
 60 65  1  0
 61 69  1  0
 61 71  1  0
 62 68  1  0
 62 64  1  0
 63 69  1  0
 64 63  1  0
 65 64  2  0
 66 67  1  0
 66 60  2  0
 67 62  2  0
 68 61  1  0
 69 59  1  0
 71 73  2  0
 72 71  1  0
 74 72  1  0
 75 84  2  0
 75 80  1  0
 76 72  1  0
 76 80  1  0
 77 76  1  0
 78 79  1  0
 78 77  1  0
 79 75  1  0
 80 81  2  0
 81 82  1  0
 83 82  2  0
 84 83  1  0
 85 59  1  0
 85 90  1  0
 85 86  1  0
 86 89  1  1
 86 87  1  0
 88 86  1  0
 90 93  1  0
 91 90  1  0
 91 95  1  0
 92 91  2  0
 95 94  1  0
 95 97  1  0
 97 98  1  0
 97 96  1  0
M  ISO  4  19 100  27 100  57 101  58 101
M  END
>  <TORSDO>  (90) 
F 19

>  <SCORE>  (90) 
-9.883

>  <name>  (90) 
89

>  <ligand_id>  (90) 
89

>  <original_smiles>  (90) 
[H]c1c([H])c([H])c2c(c1[H])C([H])([H])C([H])([H])C([H])([H])C2([H])N([H])C(=O)C1([H])N(C(=O)C([H])(N([H])C(=O)C([H])(N([H])C([H])([H])[H])C([H])([H])[H])C(C([H])([H])[H])(C([H])([H])[H])C([H])([H])[H])C([H])([H])c2c([H])c(OC([H])([H])C3([H])C([H])([H])C([H])([H])C([H])([H])C([H])([H])C([H])([H])C([H])([H])[N+]3([H])C([H])([H])c3c([H])c([H])c(N([H])C(=O)N4C([H])([H])C([H])([H])C([H])([H])C([H])(n5nc(-c6c([H])c([H])c(Oc7c([H])c([H])c(F)c([H])c7F)c([H])c6[H])c(C(=O)N([H])[H])c5N([H])[H])C4([H])[H])c(C([H])([H])[H])c3C([H])([H])[H])c([H])c([H])c2C1([H])[H]

>  <smiles>  (90) 
[H]c1c([H])c([H])c2c(c1[H])C([H])([H])C([H])([H])C([H])([H])C2([H])N([H])C(=O)C1([H])N(C(=O)C([H])(N([H])C(=O)C([H])(N([H])C([H])([H])[H])C([H])([H])[H])C(C([H])([H])[H])(C([H])([H])[H])C([H])([H])[H])C([H])([H])c2c([H])c(OC([H])([H])C3([H])C([H])([H])C([H])([H])C([H])([H])C([H])([H])C([H])([H])C([H])([H])[N+]3([H])C([H])([H])c3c([H])c([H])c(N([H])C(=O)N4C([H])([H])C([H])([H])C([H])([H])C([H])(n5nc(-c6c([H])c([H])c(Oc7c([H])c([H])c(F)c([H])c7F)c([H])c6[H])c(C(=O)N([H])[H])c5N([H])[H])C4([H])[H])c(C([H])([H])[H])c3C([H])([H])[H])c([H])c([H])c2C1([H])[H]

$$$$
90:0:0
     RDKit          3D

 93102  0  0  1  0  0  0  0  0999 V2000
  -29.1460  -23.7980   20.2220 C   0  0  0  0  0  0  0  0  0  0  0  0
  -28.4830  -23.9420   17.3750 C   0  0  0  0  0  3  0  0  0  0  0  0
  -28.7590  -25.2170   18.1910 C   0  0  0  0  0  2  0  0  0  0  0  0
  -28.7570  -22.5890   18.0670 C   0  0  0  0  0  3  0  0  0  0  0  0
  -28.3350  -25.0760   19.6570 C   0  0  0  0  0  3  0  0  0  0  0  0
  -29.2710  -22.6370   19.4380 N   0  0  0  0  0  0  0  0  0  0  0  0
  -29.6340  -23.8670   21.3560 O   0  0  0  0  0  0  0  0  0  0  0  0
  -28.4410  -26.4330   20.3510 O   0  0  0  0  0  0  0  0  0  0  0  0
  -24.8220  -31.8620   23.5230 C   0  0  0  0  0  0  0  0  0  0  0  0
  -27.3810  -27.3840   20.2640 C   0  0  0  0  0  0  0  0  0  0  0  0
  -23.6210  -30.5940   21.7720 C   0  0  0  0  0  3  0  0  0  0  0  0
  -25.0610  -29.1040   20.2790 C   0  0  0  0  0  0  0  0  0  0  0  0
  -26.1680  -30.8640   21.6550 C   0  0  0  0  0  2  0  0  0  0  0  0
  -26.2300  -29.5160   20.9340 C   0  0  0  0  0  0  0  0  0  0  0  0
  -27.3880  -28.6680   20.9240 C   0  0  0  0  0  3  0  0  0  0  0  0
  -26.1950  -27.0670   19.5550 C   0  0  0  0  0  3  0  0  0  0  0  0
  -25.0540  -27.8910   19.5780 C   0  0  0  0  0  3  0  0  0  0  0  0
  -23.8400  -29.9990   20.3570 C   0  0  0  0  0  2  0  0  0  0  0  0
  -24.8880  -31.1270   22.3730 N   0  0  0  0  0  0  0  0  0  0  0  0
  -23.7360  -32.1260   24.0580 O   0  0  0  0  0  0  0  0  0  0  0  0
  -22.9210  -29.5480   22.6680 C   0  0  0  0  0  0  0  0  0  0  0  0
  -21.6010  -29.3700   22.4840 N   0  0  0  0  0  0  0  0  0  0  0  0
  -23.5710  -28.9070   23.4960 O   0  0  0  0  0  0  0  0  0  0  0  0
  -21.1530  -29.8950   21.7420 H   0  0  0  0  0  0  0  0  0  0  0  0
  -18.2430  -28.0460   22.7670 C   0  0  0  0  0  0  0  0  0  0  0  0
  -20.7710  -28.3880   23.1810 C   0  0  0  0  0  3  0  0  0  0  0  0
  -20.9540  -27.0020   22.5190 C   0  0  0  0  0  2  0  0  0  0  0  0
  -19.9140  -26.7570   21.4180 C   0  0  0  0  0  2  0  0  0  0  0  0
  -18.5160  -26.7460   22.0340 C   0  0  0  0  0  2  0  0  0  0  0  0
  -19.3040  -28.8390   23.2880 C   0  0  0  0  0  0  0  0  0  0  0  0
  -18.9870  -30.0660   23.9250 C   0  0  0  0  0  3  0  0  0  0  0  0
  -17.6470  -30.5000   24.0160 C   0  0  0  0  0  3  0  0  0  0  0  0
  -16.6130  -29.7180   23.4770 C   0  0  0  0  0  3  0  0  0  0  0  0
  -16.9130  -28.4940   22.8620 C   0  0  0  0  0  3  0  0  0  0  0  0
  -26.1050  -32.4320   24.2000 C   0  0  0  0  0  3  0  0  0  0  0  0
  -25.8740  -33.8610   24.4610 N   0  0  0  0  0  0  0  0  0  0  0  0
  -26.2450  -34.8570   23.6450 C   0  0  0  0  0  0  0  0  0  0  0  0
  -26.8880  -34.6700   22.6100 O   0  0  0  0  0  0  0  0  0  0  0  0
  -25.2950  -34.0850   25.2570 H   0  0  0  0  0  0  0  0  0  0  0  0
  -24.5950  -36.7160   23.2440 C   0  0  0  0  0  1  0  0  0  0  0  0
  -25.8380  -36.2900   24.0400 C   0  0  0  0  0  3  0  0  0  0  0  0
  -28.0340  -37.1210   24.7710 C   0  0  0  0  0  1  0  0  0  0  0  0
  -26.9190  -37.2820   23.8420 N   0  0  0  0  0  0  0  0  0  0  0  0
  -26.5580  -38.2280   23.9410 H   0  0  0  0  0  0  0  0  0  0  0  0
  -26.4910  -31.6830   25.5340 C   0  0  1  0  0  0  0  0  0  0  0  0
  -25.3200  -31.5480   26.5350 C   0  0  0  0  0  1  0  0  0  0  0  0
  -27.0230  -30.2640   25.2350 C   0  0  0  0  0  1  0  0  0  0  0  0
  -27.6400  -32.4380   26.2440 C   0  0  0  0  0  1  0  0  0  0  0  0
  -30.0760  -21.3590   19.7110 C   0  0  0  0  0  2  0  0  0  0  0  0
  -27.5220  -18.4830   20.3960 C   0  0  0  0  0  3  0  0  0  0  0  0
  -28.1010  -19.7500   20.1750 C   0  0  0  0  0  3  0  0  0  0  0  0
  -28.2420  -17.2850   20.1760 C   0  0  0  0  0  3  0  0  0  0  0  0
  -30.1430  -18.6360   19.4970 C   0  0  0  0  0  3  0  0  0  0  0  0
  -29.4360  -19.8880   19.7510 C   0  0  0  0  0  0  0  0  0  0  0  0
  -29.5680  -17.3130   19.6940 C   0  0  0  0  0  0  0  0  0  0  0  0
  -30.9480  -15.0300   19.7410 C   0  0  0  0  0  0  0  0  0  0  0  0
  -30.9040  -12.5720   19.2440 C   0  0  0  0  0  2  0  0  0  0  0  0
  -29.9680  -12.2460   18.0570 C   0  0  0  0  0  2  0  0  0  0  0  0
  -28.5180  -12.0660   18.5520 C   0  0  0  0  0  2  0  0  0  0  0  0
  -28.0590  -13.2120   19.4900 C   0  0  0  0  0  3  0  0  0  0  0  0
  -29.1120  -13.4850   20.5790 C   0  0  0  0  0  2  0  0  0  0  0  0
  -30.3710  -13.7930   19.9010 N   0  0  0  0  0  0  0  0  0  0  0  0
  -32.1550  -15.0910   19.4960 O   0  0  0  0  0  0  0  0  0  0  0  0
  -30.1730  -16.0530   19.2020 N   0  0  0  0  0  0  0  0  0  0  0  0
  -30.6630  -16.2900   18.3550 H   0  0  0  0  0  0  0  0  0  0  0  0
  -25.7550  -13.8700   20.4180 C   0  0  0  0  0  0  0  0  0  0  0  0
  -24.6830  -13.1160   20.8240 C   0  0  0  0  0  0  0  0  0  0  0  0
  -25.0880  -11.7570   20.7130 C   0  0  0  0  0  0  0  0  0  0  0  0
  -26.7410  -12.9570   20.0690 N   0  0  0  0  0  0  0  0  0  0  0  0
  -26.3540  -11.6770   20.3180 N   0  0  0  0  0  0  0  0  0  0  0  0
  -24.3220  -10.5180   20.9010 C   0  0  0  0  0  0  0  0  0  0  0  0
  -24.7210   -9.5450   21.8450 C   0  0  0  0  0  3  0  0  0  0  0  0
  -23.9650   -8.3660   22.0180 C   0  0  0  0  0  3  0  0  0  0  0  0
  -22.7950   -8.1550   21.2500 C   0  0  0  0  0  0  0  0  0  0  0  0
  -22.4220   -9.1110   20.2920 C   0  0  0  0  0  3  0  0  0  0  0  0
  -23.1770  -10.2810   20.1140 C   0  0  0  0  0  3  0  0  0  0  0  0
  -22.0070   -7.0320   21.3350 O   0  0  0  0  0  0  0  0  0  0  0  0
  -21.8120   -6.3790   22.5290 C   0  0  0  0  0  0  0  0  0  0  0  0
  -21.2690   -7.0340   23.6550 C   0  0  0  0  0  3  0  0  0  0  0  0
  -21.0160   -6.3070   24.8360 C   0  0  0  0  0  3  0  0  0  0  0  0
  -21.2970   -4.9280   24.8890 C   0  0  0  0  0  0  0  0  0  0  0  0
  -21.8400   -4.2740   23.7680 C   0  0  0  0  0  3  0  0  0  0  0  0
  -22.0940   -5.0010   22.5900 C   0  0  0  0  0  0  0  0  0  0  0  0
  -22.5900   -4.3600   21.5040 F   0  0  0  0  0  0  0  0  0  0  0  0
  -21.0540   -4.2320   26.0240 F   0  0  0  0  0  0  0  0  0  0  0  0
  -23.3280  -13.6380   21.2040 C   0  0  0  0  0  0  0  0  0  0  0  0
  -22.6410  -12.9550   22.1170 N   0  0  0  0  0  0  0  0  0  0  0  0
  -22.8860  -14.6750   20.7220 O   0  0  0  0  0  0  0  0  0  0  0  0
  -23.0080  -12.1110   22.5370 H   0  0  0  0  0  0  0  0  0  0  0  0
  -21.7330  -13.2960   22.4080 H   0  0  0  0  0  0  0  0  0  0  0  0
  -25.9590  -15.2350   20.2980 N   0  0  0  0  0  0  0  0  0  0  0  0
  -25.2270  -15.9010   20.5260 H   0  0  0  0  0  0  0  0  0  0  0  0
  -26.8070  -15.6830   19.9680 H   0  0  0  0  0  0  0  0  0  0  0  0
  1  7  2  0
  2  4  2  0
  2  3  1  0
  3  5  1  0
  4  6  1  0
  5  1  1  0
  5  8  1  0
  6 49  1  0
  6  1  1  0
  9 20  2  0
 10  8  1  0
 10 15  1  0
 11 19  1  0
 11 21  1  0
 12 18  1  0
 12 14  1  0
 13 19  1  0
 14 13  1  0
 15 14  2  0
 16 17  1  0
 16 10  2  0
 17 12  2  0
 18 11  1  0
 19  9  1  0
 21 23  2  0
 22 21  1  0
 24 22  1  0
 25 34  2  0
 25 30  1  0
 26 22  1  0
 26 30  1  0
 27 26  1  0
 28 29  1  0
 28 27  1  0
 29 25  1  0
 30 31  2  0
 31 32  1  0
 33 32  2  0
 34 33  1  0
 35  9  1  0
 35 36  1  0
 35 45  1  0
 36 39  1  0
 37 41  1  0
 37 36  1  0
 38 37  2  0
 41 40  1  0
 43 44  1  0
 43 41  1  0
 43 42  1  0
 45 48  1  1
 45 46  1  0
 47 45  1  0
 49 54  1  0
 51 50  2  0
 52 50  1  0
 53 55  1  0
 53 54  2  0
 54 51  1  0
 55 52  2  0
 56 62  1  0
 57 62  1  0
 58 59  1  0
 58 57  1  0
 60 59  1  0
 60 69  1  0
 60 61  1  0
 62 61  1  0
 63 56  2  0
 64 55  1  0
 64 56  1  0
 65 64  1  0
 66 67  2  0
 67 86  1  0
 68 67  1  0
 68 71  1  0
 69 70  1  0
 69 66  1  0
 70 68  2  0
 71 72  1  0
 72 73  2  0
 74 77  1  0
 74 73  1  0
 75 74  2  0
 76 75  1  0
 76 71  2  0
 77 78  1  0
 78 83  2  0
 78 79  1  0
 79 80  2  0
 80 81  1  0
 81 85  1  0
 82 81  2  0
 83 82  1  0
 84 83  1  0
 86 87  1  0
 87 90  1  0
 87 89  1  0
 88 86  2  0
 91 66  1  0
 91 92  1  0
 93 91  1  0
M  ISO  4   5 101   8 101  56 100  64 100
M  END
>  <TORSDO>  (91) 
F 18

>  <SCORE>  (91) 
-14.037

>  <name>  (91) 
90

>  <ligand_id>  (91) 
90

>  <original_smiles>  (91) 
[H]c1c([H])c(N([H])C(=O)N2C([H])([H])C([H])([H])C([H])([H])C([H])(n3nc(-c4c([H])c([H])c(Oc5c([H])c([H])c(F)c([H])c5F)c([H])c4[H])c(C(=O)N([H])[H])c3N([H])[H])C2([H])[H])c([H])c(C([H])([H])N2C(=O)C([H])(Oc3c([H])c([H])c4c(c3[H])C([H])([H])N(C(=O)C([H])(N([H])C(=O)C([H])(N([H])C([H])([H])[H])C([H])([H])[H])C(C([H])([H])[H])(C([H])([H])[H])C([H])([H])[H])C([H])(C(=O)N([H])C3([H])c5c([H])c([H])c([H])c([H])c5C([H])([H])C([H])([H])C3([H])[H])C4([H])[H])C([H])([H])C([H])([H])C2([H])[H])c1[H]

>  <smiles>  (91) 
[H]c1c([H])c(N([H])C(=O)N2C([H])([H])C([H])([H])C([H])([H])C([H])(n3nc(-c4c([H])c([H])c(Oc5c([H])c([H])c(F)c([H])c5F)c([H])c4[H])c(C(=O)N([H])[H])c3N([H])[H])C2([H])[H])c([H])c(C([H])([H])N2C(=O)C([H])(Oc3c([H])c([H])c4c(c3[H])C([H])([H])N(C(=O)C([H])(N([H])C(=O)C([H])(N([H])C([H])([H])[H])C([H])([H])[H])C(C([H])([H])[H])(C([H])([H])[H])C([H])([H])[H])C([H])(C(=O)N([H])C3([H])c5c([H])c([H])c([H])c([H])c5C([H])([H])C([H])([H])C3([H])[H])C4([H])[H])C([H])([H])C([H])([H])C2([H])[H])c1[H]

$$$$
91:0:0
     RDKit          3D

 93101  0  0  1  0  0  0  0  0999 V2000
  -30.1540  -21.6520   20.2490 C   0  0  0  0  0  2  0  0  0  0  0  0
  -29.1920  -19.3100   19.5970 C   0  0  0  0  0  3  0  0  0  0  0  0
  -30.7120  -17.9470   21.5040 C   0  0  0  0  0  3  0  0  0  0  0  0
  -29.1510  -17.8840   19.6670 C   0  0  0  0  0  0  0  0  0  0  0  0
  -29.9860  -20.0990   20.4710 C   0  0  0  0  0  0  0  0  0  0  0  0
  -29.9290  -17.1630   20.6190 C   0  0  0  0  0  0  0  0  0  0  0  0
  -30.7440  -19.3720   21.4380 C   0  0  0  0  0  0  0  0  0  0  0  0
  -28.2570  -17.1370   18.6930 C   0  0  0  0  0  1  0  0  0  0  0  0
  -31.7560  -20.2020   22.5680 Cl  0  0  0  0  0  0  0  0  0  0  0  0
  -30.5820  -14.6830   20.4090 C   0  0  0  0  0  0  0  0  0  0  0  0
  -30.3620  -12.4630   19.3170 C   0  0  0  0  0  2  0  0  0  0  0  0
  -29.4010  -12.6090   18.1150 C   0  0  0  0  0  2  0  0  0  0  0  0
  -27.9330  -12.4460   18.5570 C   0  0  0  0  0  2  0  0  0  0  0  0
  -27.5880  -13.2920   19.8110 C   0  0  0  0  0  3  0  0  0  0  0  0
  -28.6590  -13.1170   20.9120 C   0  0  0  0  0  2  0  0  0  0  0  0
  -29.9650  -13.4630   20.3260 N   0  0  0  0  0  0  0  0  0  0  0  0
  -31.7370  -14.8540   20.0090 O   0  0  0  0  0  0  0  0  0  0  0  0
  -29.7820  -15.7230   20.7950 N   0  0  0  0  0  0  0  0  0  0  0  0
  -28.8540  -15.4210   21.0500 H   0  0  0  0  0  0  0  0  0  0  0  0
  -25.2030  -13.8920   20.5600 C   0  0  0  0  0  0  0  0  0  0  0  0
  -24.1370  -13.1170   20.9300 C   0  0  0  0  0  0  0  0  0  0  0  0
  -24.5960  -11.7650   20.8740 C   0  0  0  0  0  0  0  0  0  0  0  0
  -26.2430  -13.0120   20.3040 N   0  0  0  0  0  0  0  0  0  0  0  0
  -25.8820  -11.7260   20.5510 N   0  0  0  0  0  0  0  0  0  0  0  0
  -23.8660  -10.5030   21.0540 C   0  0  0  0  0  0  0  0  0  0  0  0
  -24.2890   -9.5320   21.9900 C   0  0  0  0  0  3  0  0  0  0  0  0
  -23.5590   -8.3350   22.1580 C   0  0  0  0  0  3  0  0  0  0  0  0
  -22.3960   -8.1000   21.3880 C   0  0  0  0  0  0  0  0  0  0  0  0
  -21.9930   -9.0580   20.4410 C   0  0  0  0  0  3  0  0  0  0  0  0
  -22.7230  -10.2460   20.2720 C   0  0  0  0  0  3  0  0  0  0  0  0
  -21.6410   -6.9540   21.4640 O   0  0  0  0  0  0  0  0  0  0  0  0
  -21.5590   -6.2210   22.6210 C   0  0  0  0  0  0  0  0  0  0  0  0
  -21.0390   -6.7690   23.8140 C   0  0  0  0  0  3  0  0  0  0  0  0
  -20.9080   -5.9610   24.9620 C   0  0  0  0  0  3  0  0  0  0  0  0
  -21.2870   -4.6050   24.9160 C   0  0  0  0  0  0  0  0  0  0  0  0
  -21.7990   -4.0580   23.7270 C   0  0  0  0  0  3  0  0  0  0  0  0
  -21.9320   -4.8620   22.5820 C   0  0  0  0  0  0  0  0  0  0  0  0
  -22.4080   -4.3230   21.4340 F   0  0  0  0  0  0  0  0  0  0  0  0
  -21.1530   -3.8270   26.0150 F   0  0  0  0  0  0  0  0  0  0  0  0
  -22.7450  -13.5950   21.2220 C   0  0  0  0  0  0  0  0  0  0  0  0
  -22.0210  -12.8880   22.0820 N   0  0  0  0  0  0  0  0  0  0  0  0
  -22.3070  -14.6310   20.7240 O   0  0  0  0  0  0  0  0  0  0  0  0
  -22.3880  -12.0480   22.5070 H   0  0  0  0  0  0  0  0  0  0  0  0
  -21.0870  -13.1900   22.3200 H   0  0  0  0  0  0  0  0  0  0  0  0
  -25.3670  -15.2650   20.4050 N   0  0  0  0  0  0  0  0  0  0  0  0
  -24.6010  -15.9150   20.5400 H   0  0  0  0  0  0  0  0  0  0  0  0
  -26.2120  -15.7130   20.0750 H   0  0  0  0  0  0  0  0  0  0  0  0
  -29.0100  -22.6080   20.5010 N   0  0  0  0  0  4  0  0  0  0  0  0
  -28.6440  -22.4250   21.4200 H   0  0  0  0  0  0  0  0  0  0  0  0
  -28.2840  -22.3770   19.8410 H   0  0  0  0  0  0  0  0  0  0  0  0
  -29.3350  -24.0970   20.3920 C   0  0  0  0  0  3  0  0  0  0  0  0
  -28.1100  -25.0830   20.1930 C   0  0  0  0  0  3  0  0  0  0  0  0
  -28.3330  -26.5460   20.2620 O   0  0  0  0  0  0  0  0  0  0  0  0
  -24.5940  -31.9400   23.2570 C   0  0  0  0  0  0  0  0  0  0  0  0
  -27.2060  -27.3820   20.2100 C   0  0  0  0  0  0  0  0  0  0  0  0
  -23.3900  -30.5420   21.6160 C   0  0  0  0  0  3  0  0  0  0  0  0
  -24.8390  -28.9920   20.1940 C   0  0  0  0  0  0  0  0  0  0  0  0
  -25.9300  -30.8580   21.4360 C   0  0  0  0  0  2  0  0  0  0  0  0
  -26.0080  -29.4810   20.7920 C   0  0  0  0  0  0  0  0  0  0  0  0
  -27.1940  -28.6890   20.7870 C   0  0  0  0  0  3  0  0  0  0  0  0
  -26.0110  -26.9460   19.5910 C   0  0  0  0  0  3  0  0  0  0  0  0
  -24.8440  -27.7300   19.5840 C   0  0  0  0  0  3  0  0  0  0  0  0
  -23.6040  -29.8650   20.2370 C   0  0  0  0  0  2  0  0  0  0  0  0
  -24.6580  -31.1300   22.1590 N   0  0  0  0  0  0  0  0  0  0  0  0
  -23.5100  -32.2210   23.7880 O   0  0  0  0  0  0  0  0  0  0  0  0
  -22.7240  -29.5270   22.5760 C   0  0  0  0  0  0  0  0  0  0  0  0
  -21.3990  -29.3470   22.4390 N   0  0  0  0  0  0  0  0  0  0  0  0
  -23.3970  -28.9060   23.4020 O   0  0  0  0  0  0  0  0  0  0  0  0
  -20.9150  -29.9000   21.7460 H   0  0  0  0  0  0  0  0  0  0  0  0
  -18.0150  -28.1680   22.9340 C   0  0  0  0  0  0  0  0  0  0  0  0
  -20.5750  -28.4120   23.2070 C   0  0  0  0  0  3  0  0  0  0  0  0
  -20.6690  -26.9810   22.6310 C   0  0  0  0  0  2  0  0  0  0  0  0
  -19.5660  -26.6660   21.6150 C   0  0  0  0  0  2  0  0  0  0  0  0
  -18.1850  -26.8180   22.2570 C   0  0  0  0  0  2  0  0  0  0  0  0
  -19.1380  -28.9240   23.3660 C   0  0  0  0  0  0  0  0  0  0  0  0
  -18.9250  -30.1860   23.9590 C   0  0  0  0  0  3  0  0  0  0  0  0
  -17.6230  -30.6950   24.1230 C   0  0  0  0  0  3  0  0  0  0  0  0
  -16.5150  -29.9370   23.7080 C   0  0  0  0  0  3  0  0  0  0  0  0
  -16.7120  -28.6750   23.1190 C   0  0  0  0  0  3  0  0  0  0  0  0
  -25.8780  -32.5690   23.8810 C   0  0  0  0  0  3  0  0  0  0  0  0
  -26.3870  -31.7990   25.1610 C   0  0  1  0  0  0  0  0  0  0  0  0
  -25.2890  -31.5610   26.2240 C   0  0  0  0  0  1  0  0  0  0  0  0
  -26.9730  -30.4210   24.7740 C   0  0  0  0  0  1  0  0  0  0  0  0
  -27.5340  -32.5950   25.8290 C   0  0  0  0  0  1  0  0  0  0  0  0
  -25.5710  -33.9690   24.2070 N   0  0  0  0  0  0  0  0  0  0  0  0
  -25.8910  -35.0170   23.4380 C   0  0  0  0  0  0  0  0  0  0  0  0
  -26.5460  -34.9090   22.3970 O   0  0  0  0  0  0  0  0  0  0  0  0
  -24.9880  -34.1270   25.0160 H   0  0  0  0  0  0  0  0  0  0  0  0
  -24.1580  -36.8090   23.0970 C   0  0  0  0  0  1  0  0  0  0  0  0
  -25.4090  -36.4080   23.8940 C   0  0  0  0  0  3  0  0  0  0  0  0
  -27.5490  -37.3050   24.7010 C   0  0  0  0  0  1  0  0  0  0  0  0
  -26.4410  -37.4600   23.7630 N   0  0  0  0  0  0  0  0  0  0  0  0
  -26.0340  -38.3820   23.9010 H   0  0  0  0  0  0  0  0  0  0  0  0
  1  5  1  0
  1 48  1  0
  2  4  2  0
  2  5  1  0
  4  6  1  0
  5  7  2  0
  6 18  1  0
  6  3  2  0
  7  3  1  0
  7  9  1  0
  8  4  1  0
 10 18  1  0
 11 16  1  0
 12 13  1  0
 12 11  1  0
 14 13  1  0
 14 23  1  0
 14 15  1  0
 16 10  1  0
 16 15  1  0
 17 10  2  0
 18 19  1  0
 20 21  2  0
 21 40  1  0
 22 21  1  0
 22 25  1  0
 23 24  1  0
 23 20  1  0
 24 22  2  0
 25 26  1  0
 26 27  2  0
 28 31  1  0
 28 27  1  0
 29 28  2  0
 30 29  1  0
 30 25  2  0
 31 32  1  0
 32 33  1  0
 33 34  2  0
 35 34  1  0
 35 39  1  0
 36 35  2  0
 37 32  2  0
 37 36  1  0
 38 37  1  0
 40 41  1  0
 41 44  1  0
 41 43  1  0
 42 40  2  0
 45 46  1  0
 45 20  1  0
 47 45  1  0
 48 49  1  0
 50 48  1  0
 51 48  1  0
 52 53  1  0
 52 51  2  0
 54 65  2  0
 55 53  1  0
 55 60  1  0
 56 64  1  0
 56 66  1  0
 57 63  1  0
 57 59  1  0
 58 64  1  0
 59 58  1  0
 60 59  2  0
 61 55  2  0
 62 61  1  0
 62 57  2  0
 63 56  1  0
 64 54  1  0
 66 68  2  0
 67 66  1  0
 69 67  1  0
 70 79  2  0
 70 75  1  0
 71 67  1  0
 71 75  1  0
 72 71  1  0
 73 74  1  0
 73 72  1  0
 74 70  1  0
 75 76  2  0
 76 77  1  0
 78 77  2  0
 79 78  1  0
 80 54  1  0
 80 85  1  0
 80 81  1  0
 81 84  1  1
 81 82  1  0
 83 81  1  0
 85 88  1  0
 86 90  1  0
 86 85  1  0
 87 86  2  0
 90 89  1  0
 92 90  1  0
 92 93  1  0
 92 91  1  0
M  ISO  4  10 100  18 100  52 101  53 101
M  END
>  <TORSDO>  (92) 
F 20

>  <SCORE>  (92) 
-14.207

>  <name>  (92) 
91

>  <ligand_id>  (92) 
91

>  <original_smiles>  (92) 
[H]c1c([H])c([H])c2c(c1[H])C([H])([H])C([H])([H])C([H])([H])C2([H])N([H])C(=O)C1([H])N(C(=O)C([H])(N([H])C(=O)C([H])(N([H])C([H])([H])[H])C([H])([H])[H])C(C([H])([H])[H])(C([H])([H])[H])C([H])([H])[H])C([H])([H])c2c([H])c(OC([H])([H])C([H])([H])[N+]([H])([H])C([H])([H])c3c([H])c(C([H])([H])[H])c(N([H])C(=O)N4C([H])([H])C([H])([H])C([H])([H])C([H])(n5nc(-c6c([H])c([H])c(Oc7c([H])c([H])c(F)c([H])c7F)c([H])c6[H])c(C(=O)N([H])[H])c5N([H])[H])C4([H])[H])c([H])c3Cl)c([H])c([H])c2C1([H])[H]

>  <smiles>  (92) 
[H]c1c([H])c([H])c2c(c1[H])C([H])([H])C([H])([H])C([H])([H])C2([H])N([H])C(=O)C1([H])N(C(=O)C([H])(N([H])C(=O)C([H])(N([H])C([H])([H])[H])C([H])([H])[H])C(C([H])([H])[H])(C([H])([H])[H])C([H])([H])[H])C([H])([H])c2c([H])c(OC([H])([H])C([H])([H])[N+]([H])([H])C([H])([H])c3c([H])c(C([H])([H])[H])c(N([H])C(=O)N4C([H])([H])C([H])([H])C([H])([H])C([H])(n5nc(-c6c([H])c([H])c(Oc7c([H])c([H])c(F)c([H])c7F)c([H])c6[H])c(C(=O)N([H])[H])c5N([H])[H])C4([H])[H])c([H])c3Cl)c([H])c([H])c2C1([H])[H]

$$$$
92:0:0
     RDKit          3D

 98107  0  0  1  0  0  0  0  0999 V2000
  -29.2670  -24.0190   19.1580 C   0  0  0  0  0  0  0  0  0  0  0  0
  -29.3980  -24.3210   17.8490 C   0  0  0  0  0  3  0  0  0  0  0  0
  -28.9530  -23.2910   21.9830 C   0  0  0  0  0  2  0  0  0  0  0  0
  -28.8210  -24.7710   21.6200 C   0  0  0  0  0  2  0  0  0  0  0  0
  -30.1000  -22.6580   21.1890 C   0  0  0  0  0  2  0  0  0  0  0  0
  -28.4670  -24.9640   20.1360 C   0  0  0  0  0  3  0  0  0  0  0  0
  -29.8490  -22.6740   19.7260 N   0  0  1  0  0  4  0  0  0  0  0  0
  -30.7830  -22.6090   19.3520 H   0  0  0  0  0  0  0  0  0  0  0  0
  -29.8190  -23.6840   15.5360 C   0  0  0  0  0  2  0  0  0  0  0  0
  -30.0660  -23.5170   16.8430 C   0  0  0  0  0  3  0  0  0  0  0  0
  -28.5360  -26.4210   19.8720 O   0  0  0  0  0  0  0  0  0  0  0  0
  -24.5120  -31.6370   22.8390 C   0  0  0  0  0  0  0  0  0  0  0  0
  -27.3540  -27.1720   19.8780 C   0  0  0  0  0  0  0  0  0  0  0  0
  -23.3700  -30.1190   21.2610 C   0  0  0  0  0  3  0  0  0  0  0  0
  -24.8910  -28.6140   19.8610 C   0  0  0  0  0  0  0  0  0  0  0  0
  -25.8800  -30.5920   21.0180 C   0  0  0  0  0  2  0  0  0  0  0  0
  -26.0360  -29.2030   20.4140 C   0  0  0  0  0  0  0  0  0  0  0  0
  -27.2740  -28.4960   20.4040 C   0  0  0  0  0  3  0  0  0  0  0  0
  -26.1840  -26.6200   19.3150 C   0  0  0  0  0  3  0  0  0  0  0  0
  -24.9670  -27.3270   19.3020 C   0  0  0  0  0  3  0  0  0  0  0  0
  -23.6010  -29.4090   19.9010 C   0  0  0  0  0  2  0  0  0  0  0  0
  -24.6070  -30.8010   21.7620 N   0  0  0  0  0  0  0  0  0  0  0  0
  -23.4220  -31.8650   23.3840 O   0  0  0  0  0  0  0  0  0  0  0  0
  -22.7840  -29.0950   22.2640 C   0  0  0  0  0  0  0  0  0  0  0  0
  -21.4650  -28.8570   22.1790 N   0  0  0  0  0  0  0  0  0  0  0  0
  -23.5140  -28.5180   23.0730 O   0  0  0  0  0  0  0  0  0  0  0  0
  -20.9350  -29.3730   21.4920 H   0  0  0  0  0  0  0  0  0  0  0  0
  -18.1590  -27.5270   22.8030 C   0  0  0  0  0  0  0  0  0  0  0  0
  -20.7100  -27.9000   22.9910 C   0  0  0  0  0  3  0  0  0  0  0  0
  -20.8580  -26.4650   22.4370 C   0  0  0  0  0  2  0  0  0  0  0  0
  -19.7420  -26.0750   21.4640 C   0  0  0  0  0  2  0  0  0  0  0  0
  -18.3740  -26.1740   22.1470 C   0  0  0  0  0  2  0  0  0  0  0  0
  -19.2570  -28.3450   23.1840 C   0  0  0  0  0  0  0  0  0  0  0  0
  -19.0000  -29.6100   23.7580 C   0  0  0  0  0  3  0  0  0  0  0  0
  -17.6790  -30.0550   23.9570 C   0  0  0  0  0  3  0  0  0  0  0  0
  -16.5980  -29.2350   23.5930 C   0  0  0  0  0  3  0  0  0  0  0  0
  -16.8380  -27.9740   23.0200 C   0  0  0  0  0  3  0  0  0  0  0  0
  -25.7630  -32.3620   23.4230 C   0  0  0  0  0  3  0  0  0  0  0  0
  -26.3850  -31.6200   24.6690 C   0  0  1  0  0  0  0  0  0  0  0  0
  -25.3500  -31.2730   25.7660 C   0  0  0  0  0  1  0  0  0  0  0  0
  -27.0730  -30.3050   24.2360 C   0  0  0  0  0  1  0  0  0  0  0  0
  -27.4820  -32.5030   25.3080 C   0  0  0  0  0  1  0  0  0  0  0  0
  -25.3600  -33.7280   23.7850 N   0  0  0  0  0  0  0  0  0  0  0  0
  -25.6710  -34.8250   23.0820 C   0  0  0  0  0  0  0  0  0  0  0  0
  -26.3990  -34.7960   22.0850 O   0  0  0  0  0  0  0  0  0  0  0  0
  -24.7160  -33.8190   24.5580 H   0  0  0  0  0  0  0  0  0  0  0  0
  -23.8780  -36.5430   22.6850 C   0  0  0  0  0  1  0  0  0  0  0  0
  -25.0840  -36.1660   23.5610 C   0  0  0  0  0  3  0  0  0  0  0  0
  -27.1110  -37.1190   24.5660 C   0  0  0  0  0  1  0  0  0  0  0  0
  -26.0650  -37.2730   23.5580 N   0  0  0  0  0  0  0  0  0  0  0  0
  -25.6030  -38.1650   23.7130 H   0  0  0  0  0  0  0  0  0  0  0  0
  -29.2160  -21.3810   19.2400 C   0  0  0  0  0  2  0  0  0  0  0  0
  -30.6730  -19.6330   20.6660 C   0  0  0  0  0  3  0  0  0  0  0  0
  -30.9840  -18.2960   21.0940 C   0  0  0  0  0  3  0  0  0  0  0  0
  -29.0250  -17.5100   19.9640 C   0  0  0  0  0  3  0  0  0  0  0  0
  -29.5330  -19.9470   19.8590 C   0  0  0  0  0  0  0  0  0  0  0  0
  -28.7250  -18.8220   19.5050 C   0  0  0  0  0  0  0  0  0  0  0  0
  -30.1550  -17.1910   20.7470 C   0  0  0  0  0  0  0  0  0  0  0  0
  -31.1400  -14.7510   20.6680 C   0  0  0  0  0  0  0  0  0  0  0  0
  -31.0100  -12.4280   19.7720 C   0  0  0  0  0  2  0  0  0  0  0  0
  -30.1490  -12.4540   18.4860 C   0  0  0  0  0  2  0  0  0  0  0  0
  -28.6430  -12.3600   18.8130 C   0  0  0  0  0  2  0  0  0  0  0  0
  -28.2170  -13.3210   19.9540 C   0  0  0  0  0  3  0  0  0  0  0  0
  -29.1890  -13.2130   21.1510 C   0  0  0  0  0  2  0  0  0  0  0  0
  -30.5450  -13.5150   20.6570 N   0  0  0  0  0  0  0  0  0  0  0  0
  -32.3010  -14.9170   20.2710 O   0  0  0  0  0  0  0  0  0  0  0  0
  -30.3250  -15.7730   21.0740 N   0  0  0  0  0  0  0  0  0  0  0  0
  -29.5120  -15.3930   21.5310 H   0  0  0  0  0  0  0  0  0  0  0  0
  -25.8200  -14.0380   20.5450 C   0  0  0  0  0  0  0  0  0  0  0  0
  -24.6950  -13.3160   20.8470 C   0  0  0  0  0  0  0  0  0  0  0  0
  -25.0890  -11.9430   20.8230 C   0  0  0  0  0  0  0  0  0  0  0  0
  -26.8290  -13.1060   20.3570 N   0  0  0  0  0  0  0  0  0  0  0  0
  -26.3900  -11.8400   20.5840 N   0  0  0  0  0  0  0  0  0  0  0  0
  -24.2910  -10.7160   20.9560 C   0  0  0  0  0  0  0  0  0  0  0  0
  -24.5950   -9.7380   21.9300 C   0  0  0  0  0  3  0  0  0  0  0  0
  -23.8020   -8.5780   22.0500 C   0  0  0  0  0  3  0  0  0  0  0  0
  -22.6930   -8.3840   21.1930 C   0  0  0  0  0  0  0  0  0  0  0  0
  -22.4090   -9.3480   20.2110 C   0  0  0  0  0  3  0  0  0  0  0  0
  -23.2010  -10.5010   20.0880 C   0  0  0  0  0  3  0  0  0  0  0  0
  -21.8830   -7.2740   21.2200 O   0  0  0  0  0  0  0  0  0  0  0  0
  -21.6820   -6.5570   22.3720 C   0  0  0  0  0  0  0  0  0  0  0  0
  -21.1610   -7.1560   23.5400 C   0  0  0  0  0  3  0  0  0  0  0  0
  -20.9010   -6.3690   24.6790 C   0  0  0  0  0  3  0  0  0  0  0  0
  -21.1570   -4.9850   24.6510 C   0  0  0  0  0  0  0  0  0  0  0  0
  -21.6700   -4.3850   23.4880 C   0  0  0  0  0  3  0  0  0  0  0  0
  -21.9290   -5.1700   22.3510 C   0  0  0  0  0  0  0  0  0  0  0  0
  -22.4040   -4.5830   21.2250 F   0  0  0  0  0  0  0  0  0  0  0  0
  -20.9000   -4.2270   25.7430 F   0  0  0  0  0  0  0  0  0  0  0  0
  -23.3100  -13.8600   21.0510 C   0  0  0  0  0  0  0  0  0  0  0  0
  -22.5110  -13.2100   21.8890 N   0  0  0  0  0  0  0  0  0  0  0  0
  -22.9450  -14.8950   20.4980 O   0  0  0  0  0  0  0  0  0  0  0  0
  -22.8180  -12.3680   22.3570 H   0  0  0  0  0  0  0  0  0  0  0  0
  -21.5800  -13.5580   22.0650 H   0  0  0  0  0  0  0  0  0  0  0  0
  -26.0640  -15.3990   20.3920 N   0  0  0  0  0  0  0  0  0  0  0  0
  -25.3270  -16.0930   20.4580 H   0  0  0  0  0  0  0  0  0  0  0  0
  -26.9420  -15.7860   20.0660 H   0  0  0  0  0  0  0  0  0  0  0  0
  -26.2350  -19.2880   19.3340 C   0  0  0  0  0  1  0  0  0  0  0  0
  -27.5180  -18.9380   18.5760 C   0  0  0  0  0  2  0  0  0  0  0  0
  1  7  1  0
  1  6  1  0
  2  1  2  0
  4  3  1  0
  5  3  1  0
  6 11  1  0
  6  4  1  0
  7  5  1  0
  7  8  1  6
  9 10  2  0
 10  2  1  0
 11 13  1  0
 12 23  2  0
 13 18  1  0
 14 22  1  0
 14 24  1  0
 15 21  1  0
 15 17  1  0
 16 22  1  0
 17 16  1  0
 18 17  2  0
 19 13  2  0
 20 19  1  0
 20 15  2  0
 21 14  1  0
 22 12  1  0
 24 26  2  0
 25 24  1  0
 27 25  1  0
 28 37  2  0
 28 33  1  0
 29 25  1  0
 29 33  1  0
 30 29  1  0
 31 32  1  0
 31 30  1  0
 32 28  1  0
 33 34  2  0
 34 35  1  0
 36 35  2  0
 37 36  1  0
 38 12  1  0
 38 43  1  0
 38 39  1  0
 39 42  1  1
 39 40  1  0
 41 39  1  0
 43 46  1  0
 44 48  1  0
 44 43  1  0
 45 44  2  0
 48 47  1  0
 50 48  1  0
 50 51  1  0
 50 49  1  0
 52  7  1  0
 52 56  1  0
 53 54  1  0
 55 58  1  0
 56 53  2  0
 57 56  1  0
 57 55  2  0
 58 67  1  0
 58 54  2  0
 59 67  1  0
 60 65  1  0
 61 62  1  0
 61 60  1  0
 63 62  1  0
 63 72  1  0
 63 64  1  0
 65 59  1  0
 65 64  1  0
 66 59  2  0
 67 68  1  0
 69 70  2  0
 70 89  1  0
 71 70  1  0
 71 74  1  0
 72 69  1  0
 72 73  1  0
 73 71  2  0
 74 75  1  0
 75 76  2  0
 77 80  1  0
 77 76  1  0
 78 77  2  0
 79 78  1  0
 79 74  2  0
 80 81  1  0
 81 82  1  0
 82 83  2  0
 84 83  1  0
 84 88  1  0
 85 84  2  0
 86 81  2  0
 86 85  1  0
 87 86  1  0
 89 90  1  0
 90 93  1  0
 90 92  1  0
 91 89  2  0
 94 95  1  0
 94 69  1  0
 96 94  1  0
 98 97  1  0
 98 57  1  0
M  ISO  4   6 101  11 101  59 100  67 100
M  END
>  <TORSDO>  (93) 
F 20

>  <SCORE>  (93) 
-12.549

>  <name>  (93) 
92

>  <ligand_id>  (93) 
92

>  <original_smiles>  (93) 
[H]C([H])=C([H])C([H])=C1C([H])(Oc2c([H])c([H])c3c(c2[H])C([H])([H])N(C(=O)C([H])(N([H])C(=O)C([H])(N([H])C([H])([H])[H])C([H])([H])[H])C(C([H])([H])[H])(C([H])([H])[H])C([H])([H])[H])C([H])(C(=O)N([H])C2([H])c4c([H])c([H])c([H])c([H])c4C([H])([H])C([H])([H])C2([H])[H])C3([H])[H])C([H])([H])C([H])([H])C([H])([H])[N+]1([H])C([H])([H])c1c([H])c([H])c(N([H])C(=O)N2C([H])([H])C([H])([H])C([H])([H])C([H])(n3nc(-c4c([H])c([H])c(Oc5c([H])c([H])c(F)c([H])c5F)c([H])c4[H])c(C(=O)N([H])[H])c3N([H])[H])C2([H])[H])c([H])c1C([H])([H])C([H])([H])[H]

>  <smiles>  (93) 
[H]C([H])=C([H])C([H])=C1C([H])(Oc2c([H])c([H])c3c(c2[H])C([H])([H])N(C(=O)C([H])(N([H])C(=O)C([H])(N([H])C([H])([H])[H])C([H])([H])[H])C(C([H])([H])[H])(C([H])([H])[H])C([H])([H])[H])C([H])(C(=O)N([H])C2([H])c4c([H])c([H])c([H])c([H])c4C([H])([H])C([H])([H])C2([H])[H])C3([H])[H])C([H])([H])C([H])([H])C([H])([H])[N+]1([H])C([H])([H])c1c([H])c([H])c(N([H])C(=O)N2C([H])([H])C([H])([H])C([H])([H])C([H])(n3nc(-c4c([H])c([H])c(Oc5c([H])c([H])c(F)c([H])c5F)c([H])c4[H])c(C(=O)N([H])[H])c3N([H])[H])C2([H])[H])c([H])c1C([H])([H])C([H])([H])[H]

$$$$
93:0:0
     RDKit          3D

 95 94  0  0  1  0  0  0  0  0999 V2000
  -22.2450  -27.4230   20.0570 N   0  0  0  0  0  2  0  0  0  0  0  0
  -22.6040  -27.7520   19.1740 H   0  0  0  0  0  0  0  0  0  0  0  0
  -21.3080  -27.1440   19.8070 H   0  0  0  0  0  0  0  0  0  0  0  0
  -23.0410  -25.6440   20.2440 C   0  0  0  0  0 15  0  0  0  0  0  0
  -24.9370  -23.0220   20.8710 C   0  0  0  0  0  3  0  0  0  0  0  0
  -25.8420  -21.7130   20.7660 C   0  0  0  0  0  3  0  0  0  0  0  0
  -25.0870  -23.3290   18.7970 C   0  0  0  0  0  3  0  0  0  0  0  0
  -24.3710  -24.1090   19.9240 C   0  0  0  0  0  3  0  0  0  0  0  0
  -26.5510  -20.9290   19.6430 C   0  0  0  0  0  3  0  0  0  0  0  0
  -26.0030  -22.0190   18.6740 C   0  0  0  0  0  0  0  0  0  0  0  0
  -26.5290  -21.7630   17.0500 Cl  0  0  0  0  0  0  0  0  0  0  0  0
  -27.9030  -19.3870   19.4330 C   0  0  0  0  0 15  0  0  0  0  0  0
  -29.7090  -16.3630   19.5360 C   0  0  0  0  0  0  0  0  0  0  0  0
  -30.5070  -13.7710   18.9020 C   0  0  0  0  0  2  0  0  0  0  0  0
  -29.6880  -13.0160   17.8030 C   0  0  0  0  0  2  0  0  0  0  0  0
  -28.3450  -12.5210   18.3660 C   0  0  0  0  0  2  0  0  0  0  0  0
  -27.7740  -13.5660   19.3430 C   0  0  0  0  0  3  0  0  0  0  0  0
  -28.7610  -14.0450   20.4030 C   0  0  0  0  0  2  0  0  0  0  0  0
  -29.6590  -14.8740   19.6190 N   0  0  0  0  0  0  0  0  0  0  0  0
  -30.9420  -16.5050   19.2630 O   0  0  0  0  0  0  0  0  0  0  0  0
  -28.5140  -17.5440   19.6190 N   0  0  0  0  0  2  0  0  0  0  0  0
  -27.6880  -17.0270   19.8890 H   0  0  0  0  0  0  0  0  0  0  0  0
  -25.6090  -14.1070   20.4560 C   0  0  0  0  0  0  0  0  0  0  0  0
  -24.5780  -13.3310   20.8840 C   0  0  0  0  0  0  0  0  0  0  0  0
  -24.9750  -11.9780   20.6490 C   0  0  0  0  0  0  0  0  0  0  0  0
  -26.5400  -13.2190   19.9640 N   0  0  0  0  0  0  0  0  0  0  0  0
  -26.2040  -11.9250   20.1580 N   0  0  0  0  0  0  0  0  0  0  0  0
  -24.2270  -10.7300   20.7890 C   0  0  0  0  0  0  0  0  0  0  0  0
  -24.6300   -9.7250   21.6920 C   0  0  0  0  0  3  0  0  0  0  0  0
  -23.8760   -8.5390   21.8170 C   0  0  0  0  0  3  0  0  0  0  0  0
  -22.7090   -8.3560   21.0370 C   0  0  0  0  0  0  0  0  0  0  0  0
  -22.3310   -9.3510   20.1190 C   0  0  0  0  0  3  0  0  0  0  0  0
  -23.0850  -10.5270   19.9910 C   0  0  0  0  0  3  0  0  0  0  0  0
  -21.9250   -7.2310   21.0780 O   0  0  0  0  0  0  0  0  0  0  0  0
  -21.6880   -6.5630   22.2530 C   0  0  0  0  0  0  0  0  0  0  0  0
  -21.1110   -7.2020   23.3710 C   0  0  0  0  0  3  0  0  0  0  0  0
  -20.8190   -6.4600   24.5330 C   0  0  0  0  0  3  0  0  0  0  0  0
  -21.1000   -5.0810   24.5750 C   0  0  0  0  0  0  0  0  0  0  0  0
  -21.6720   -4.4430   23.4620 C   0  0  0  0  0  3  0  0  0  0  0  0
  -21.9640   -5.1830   22.3020 C   0  0  0  0  0  0  0  0  0  0  0  0
  -22.4970   -4.5590   21.2240 F   0  0  0  0  0  0  0  0  0  0  0  0
  -20.8130   -4.3660   25.6880 F   0  0  0  0  0  0  0  0  0  0  0  0
  -23.2520  -13.8290   21.3650 C   0  0  0  0  0  0  0  0  0  0  0  0
  -22.6100  -13.0810   22.2530 N   0  0  0  0  0  0  0  0  0  0  0  0
  -22.8070  -14.9130   20.9900 O   0  0  0  0  0  0  0  0  0  0  0  0
  -22.9920  -12.2030   22.5710 H   0  0  0  0  0  0  0  0  0  0  0  0
  -21.7220  -13.3900   22.6210 H   0  0  0  0  0  0  0  0  0  0  0  0
  -25.8250  -15.4830   20.3920 N   0  0  0  0  0  0  0  0  0  0  0  0
  -25.0240  -16.0780   20.5760 H   0  0  0  0  0  0  0  0  0  0  0  0
  -26.3720  -15.8250   19.6150 H   0  0  0  0  0  0  0  0  0  0  0  0
  -21.7960  -29.1070   21.1020 C   0  0  0  0  0 15  0  0  0  0  0  0
  -21.9680  -30.1260   24.2730 C   0  0  0  0  0  3  0  0  0  0  0  0
  -22.5750  -29.7460   23.1210 C   0  0  0  0  0  3  0  0  0  0  0  0
  -24.4630  -29.1940   23.8270 C   0  0  0  0  0 15  0  0  0  0  0  0
  -26.0370  -28.4450   22.9220 O   0  0  0  0  0  1  0  0  0  0  0  0
  -24.5520  -31.7530   22.9560 C   0  0  0  0  0  0  0  0  0  0  0  0
  -26.6480  -27.8840   21.6620 C   0  0  0  0  0  3  0  0  0  0  0  0
  -24.0500  -29.3500   21.3680 C   0  0  0  0  0  2  0  0  0  0  0  0
  -25.3830  -28.9240   19.7270 C   0  0  0  0  0  3  0  0  0  0  0  0
  -26.0170  -30.9460   21.1760 C   0  0  0  0  0  2  0  0  0  0  0  0
  -26.3750  -29.6530   20.4570 C   0  0  0  0  0  3  0  0  0  0  0  0
  -27.3650  -28.8980   21.0710 C   0  0  0  0  0  2  0  0  0  0  0  0
  -26.1480  -26.9480   20.6820 C   0  0  0  0  0  2  0  0  0  0  0  0
  -25.4470  -27.5260   19.6190 C   0  0  0  0  0  2  0  0  0  0  0  0
  -24.0450  -29.4250   19.8490 C   0  0  0  0  0  2  0  0  0  0  0  0
  -24.7830  -30.7620   21.9160 N   0  0  0  0  0  0  0  0  0  0  0  0
  -23.4220  -32.0850   23.3430 O   0  0  0  0  0  0  0  0  0  0  0  0
  -23.6150  -27.5460   22.3010 C   0  0  0  0  0  2  0  0  0  0  0  0
  -22.3020  -27.1340   22.9860 N   0  0  0  0  0  0  0  0  0  0  0  0
  -24.3090  -26.8550   22.9530 O   0  0  0  0  0  1  0  0  0  0  0  0
  -22.5960  -26.3720   23.5820 H   0  0  0  0  0  0  0  0  0  0  0  0
  -18.0740  -27.7280   22.5420 C   0  0  0  0  0  0  0  0  0  0  0  0
  -20.6750  -27.3570   23.2990 C   0  0  0  0  0  3  0  0  0  0  0  0
  -20.2970  -26.0500   22.6620 C   0  0  0  0  0  2  0  0  0  0  0  0
  -19.5520  -26.1480   21.3320 C   0  0  0  0  0  2  0  0  0  0  0  0
  -18.1340  -26.4830   21.6970 C   0  0  0  0  0  2  0  0  0  0  0  0
  -19.2710  -28.3300   23.0970 C   0  0  0  0  0  0  0  0  0  0  0  0
  -18.9320  -29.6680   23.5480 C   0  0  0  0  0  3  0  0  0  0  0  0
  -17.6190  -30.1900   23.7180 C   0  0  0  0  0  3  0  0  0  0  0  0
  -16.5060  -29.4560   23.3070 C   0  0  0  0  0  3  0  0  0  0  0  0
  -16.7550  -28.2430   22.6650 C   0  0  0  0  0  3  0  0  0  0  0  0
  -25.6980  -32.4390   23.8630 C   0  0  0  0  0  3  0  0  0  0  0  0
  -25.3120  -33.8420   24.1130 N   0  0  0  0  0  0  0  0  0  0  0  0
  -25.7470  -34.8790   23.3930 C   0  0  0  0  0  0  0  0  0  0  0  0
  -26.5260  -34.7380   22.4490 O   0  0  0  0  0  0  0  0  0  0  0  0
  -24.6180  -34.0100   24.8290 H   0  0  0  0  0  0  0  0  0  0  0  0
  -24.0640  -36.6670   22.8440 C   0  0  0  0  0  1  0  0  0  0  0  0
  -25.2410  -36.2880   23.7590 C   0  0  0  0  0  3  0  0  0  0  0  0
  -27.3180  -37.2070   24.6990 C   0  0  0  0  0  1  0  0  0  0  0  0
  -26.2880  -37.3310   23.6710 N   0  0  0  0  0  0  0  0  0  0  0  0
  -25.8780  -38.2590   23.7410 H   0  0  0  0  0  0  0  0  0  0  0  0
  -26.0740  -31.8150   25.3070 C   0  0  1  0  0  0  0  0  0  0  0  0
  -24.8610  -31.6500   26.2820 C   0  0  0  0  0  1  0  0  0  0  0  0
  -26.9010  -30.5000   25.1640 C   0  0  0  0  0  1  0  0  0  0  0  0
  -27.0490  -32.7520   26.0690 C   0  0  0  0  0  1  0  0  0  0  0  0
  2  1  1  0
  3  1  1  0
  6  5  1  0
  7  8  1  0
  8  5  2  0
  9  6  2  0
 10  7  2  0
 10  9  1  0
 11 10  1  0
 13 21  1  0
 13 19  1  0
 14 19  1  0
 15 16  1  0
 15 14  1  0
 17 16  1  0
 17 26  1  0
 17 18  1  0
 19 18  1  0
 20 13  2  0
 21 22  1  0
 23 24  2  0
 24 43  1  0
 25 28  1  0
 25 24  1  0
 26 27  1  0
 26 23  1  0
 27 25  2  0
 28 29  1  0
 29 30  2  0
 31 34  1  0
 31 30  1  0
 32 31  2  0
 33 32  1  0
 33 28  2  0
 34 35  1  0
 35 40  2  0
 35 36  1  0
 36 37  2  0
 37 38  1  0
 38 42  1  0
 39 38  2  0
 40 39  1  0
 41 40  1  0
 43 44  1  0
 44 46  1  0
 44 47  1  0
 45 43  2  0
 48 23  1  0
 48 49  1  0
 50 48  1  0
 53 52  3  0
 56 67  2  0
 57 55  1  0
 58 66  1  0
 59 64  1  0
 59 65  1  0
 59 61  1  0
 60 66  1  0
 61 62  1  0
 61 60  1  0
 62 57  1  0
 63 57  1  0
 64 63  1  0
 65 58  1  0
 66 56  1  0
 68 70  1  0
 68 69  1  0
 69 71  1  0
 72 81  2  0
 72 77  1  0
 73 69  1  0
 74 73  1  0
 75 76  1  0
 75 74  1  0
 76 72  1  0
 77 73  1  0
 77 78  2  0
 78 79  1  0
 80 79  2  0
 81 80  1  0
 82 56  1  0
 82 83  1  0
 82 92  1  0
 83 86  1  0
 84 88  1  0
 84 83  1  0
 85 84  2  0
 88 87  1  0
 90 91  1  0
 90 88  1  0
 90 89  1  0
 92 95  1  1
 92 93  1  0
 94 92  1  0
M  ISO  4  13 100  21 100  54 101  55 101
M  END
>  <TORSDO>  (94) 
F 22

>  <SCORE>  (94) 
-10.751

>  <name>  (94) 
93

>  <ligand_id>  (94) 
93

>  <original_smiles>  (94) 
[H]C([H])=C(C([H])([H])Oc1c([H])c([H])c2c(c1[H])C([H])([H])N(C(=O)C([H])(N([H])C(=O)C([H])(N([H])C([H])([H])[H])C([H])([H])[H])C(C([H])([H])[H])(C([H])([H])[H])C([H])([H])[H])C([H])(C(=O)N([H])C1([H])c3c([H])c([H])c([H])c([H])c3C([H])([H])C([H])([H])C1([H])[H])C2([H])[H])C([H])([H])[N+]([H])([H])C([H])([H])c1c([H])c([H])c(C([H])([H])N([H])C(=O)N2C([H])([H])C([H])([H])C([H])([H])C([H])(n3nc(-c4c([H])c([H])c(Oc5c([H])c([H])c(F)c([H])c5F)c([H])c4[H])c(C(=O)N([H])[H])c3N([H])[H])C2([H])[H])c(Cl)c1[H]

>  <smiles>  (94) 
[H]C([H])=C(C([H])([H])Oc1c([H])c([H])c2c(c1[H])C([H])([H])N(C(=O)C([H])(N([H])C(=O)C([H])(N([H])C([H])([H])[H])C([H])([H])[H])C(C([H])([H])[H])(C([H])([H])[H])C([H])([H])[H])C([H])(C(=O)N([H])C1([H])c3c([H])c([H])c([H])c([H])c3C([H])([H])C([H])([H])C1([H])[H])C2([H])[H])C([H])([H])[N+]([H])([H])C([H])([H])c1c([H])c([H])c(C([H])([H])N([H])C(=O)N2C([H])([H])C([H])([H])C([H])([H])C([H])(n3nc(-c4c([H])c([H])c(Oc5c([H])c([H])c(F)c([H])c5F)c([H])c4[H])c(C(=O)N([H])[H])c3N([H])[H])C2([H])[H])c(Cl)c1[H]

$$$$
94:0:0
     RDKit          3D

 94103  0  0  1  0  0  0  0  0999 V2000
  -28.9830  -22.5560   21.9270 C   0  0  0  0  0  0  0  0  0  0  0  0
  -29.8440  -22.3270   22.9430 C   0  0  0  0  0  3  0  0  0  0  0  0
  -27.6900  -23.3490   22.1950 C   0  0  0  0  0  2  0  0  0  0  0  0
  -27.3590  -24.4900   21.1970 C   0  0  0  0  0  2  0  0  0  0  0  0
  -29.0790  -23.4130   19.6530 C   0  0  0  0  0  2  0  0  0  0  0  0
  -28.5700  -24.8650   20.3370 C   0  0  0  0  0  3  0  0  0  0  0  0
  -31.2180  -21.6870   22.8590 C   0  0  0  0  0  1  0  0  0  0  0  0
  -29.2300  -22.1880   20.5980 N   0  0  0  0  0  0  0  0  0  0  0  0
  -30.8070  -20.1020   20.1780 C   0  0  0  0  0  3  0  0  0  0  0  0
  -31.0420  -18.6520   20.1700 C   0  0  0  0  0  3  0  0  0  0  0  0
  -28.7250  -18.3050   20.3060 C   0  0  0  0  0  3  0  0  0  0  0  0
  -28.4820  -19.7340   20.3290 C   0  0  0  0  0  0  0  0  0  0  0  0
  -29.5150  -20.7420   20.3060 C   0  0  0  0  0  0  0  0  0  0  0  0
  -30.0010  -17.6600   20.2570 C   0  0  0  0  0  0  0  0  0  0  0  0
  -27.0240  -20.1580   20.3990 C   0  0  0  0  0  1  0  0  0  0  0  0
  -30.8670  -15.0330   19.8940 C   0  0  0  0  0  0  0  0  0  0  0  0
  -30.6730  -12.7230   18.8660 C   0  0  0  0  0  2  0  0  0  0  0  0
  -29.6450  -12.7660   17.7090 C   0  0  0  0  0  2  0  0  0  0  0  0
  -28.2110  -12.5660   18.2380 C   0  0  0  0  0  2  0  0  0  0  0  0
  -27.9140  -13.4400   19.4850 C   0  0  0  0  0  3  0  0  0  0  0  0
  -29.0490  -13.3500   20.5280 C   0  0  0  0  0  2  0  0  0  0  0  0
  -30.2910  -13.7650   19.8570 N   0  0  0  0  0  0  0  0  0  0  0  0
  -32.0250  -15.1570   19.4760 O   0  0  0  0  0  0  0  0  0  0  0  0
  -30.0440  -16.1250   20.2580 N   0  0  0  0  0  0  0  0  0  0  0  0
  -29.1820  -15.7420   20.6140 H   0  0  0  0  0  0  0  0  0  0  0  0
  -25.6090  -14.0410   20.4280 C   0  0  0  0  0  0  0  0  0  0  0  0
  -24.5540  -13.2740   20.8410 C   0  0  0  0  0  0  0  0  0  0  0  0
  -24.9760  -11.9170   20.7030 C   0  0  0  0  0  0  0  0  0  0  0  0
  -26.6060  -13.1530   20.0640 N   0  0  0  0  0  0  0  0  0  0  0  0
  -26.2380  -11.8660   20.2940 N   0  0  0  0  0  0  0  0  0  0  0  0
  -24.2300  -10.6650   20.8840 C   0  0  0  0  0  0  0  0  0  0  0  0
  -24.6390   -9.6890   21.8200 C   0  0  0  0  0  3  0  0  0  0  0  0
  -23.8930   -8.5020   21.9880 C   0  0  0  0  0  3  0  0  0  0  0  0
  -22.7240   -8.2830   21.2200 C   0  0  0  0  0  0  0  0  0  0  0  0
  -22.3350   -9.2470   20.2750 C   0  0  0  0  0  3  0  0  0  0  0  0
  -23.0810  -10.4250   20.1040 C   0  0  0  0  0  3  0  0  0  0  0  0
  -21.9520   -7.1490   21.2990 O   0  0  0  0  0  0  0  0  0  0  0  0
  -21.7690   -6.4830   22.4840 C   0  0  0  0  0  0  0  0  0  0  0  0
  -21.2190   -7.1170   23.6190 C   0  0  0  0  0  3  0  0  0  0  0  0
  -20.9840   -6.3770   24.7950 C   0  0  0  0  0  3  0  0  0  0  0  0
  -21.2890   -5.0030   24.8350 C   0  0  0  0  0  0  0  0  0  0  0  0
  -21.8320   -4.3690   23.7040 C   0  0  0  0  0  3  0  0  0  0  0  0
  -22.0680   -5.1050   22.5310 C   0  0  0  0  0  0  0  0  0  0  0  0
  -22.5710   -4.4850   21.4370 F   0  0  0  0  0  0  0  0  0  0  0  0
  -21.0560   -4.2900   25.9610 F   0  0  0  0  0  0  0  0  0  0  0  0
  -23.1960  -13.7710   21.2400 C   0  0  0  0  0  0  0  0  0  0  0  0
  -22.5270  -13.0660   22.1450 N   0  0  0  0  0  0  0  0  0  0  0  0
  -22.7400  -14.8200   20.7840 O   0  0  0  0  0  0  0  0  0  0  0  0
  -22.9110  -12.2160   22.5330 H   0  0  0  0  0  0  0  0  0  0  0  0
  -21.6180  -13.3800   22.4550 H   0  0  0  0  0  0  0  0  0  0  0  0
  -25.7940  -15.4160   20.3070 N   0  0  0  0  0  0  0  0  0  0  0  0
  -25.0370  -16.0680   20.4860 H   0  0  0  0  0  0  0  0  0  0  0  0
  -26.5920  -15.8520   19.8630 H   0  0  0  0  0  0  0  0  0  0  0  0
  -28.4970  -26.3050   19.7530 O   0  0  0  0  0  0  0  0  0  0  0  0
  -24.6870  -31.7240   23.0140 C   0  0  0  0  0  0  0  0  0  0  0  0
  -27.3800  -27.2060   19.8260 C   0  0  0  0  0  0  0  0  0  0  0  0
  -23.5260  -30.3800   21.3020 C   0  0  0  0  0  3  0  0  0  0  0  0
  -25.0150  -28.8820   19.8400 C   0  0  0  0  0  0  0  0  0  0  0  0
  -26.0720  -30.7020   21.1720 C   0  0  0  0  0  2  0  0  0  0  0  0
  -26.1780  -29.3360   20.4740 C   0  0  0  0  0  0  0  0  0  0  0  0
  -27.3650  -28.5160   20.4450 C   0  0  0  0  0  3  0  0  0  0  0  0
  -26.1880  -26.8360   19.1720 C   0  0  0  0  0  3  0  0  0  0  0  0
  -25.0290  -27.6450   19.1760 C   0  0  0  0  0  3  0  0  0  0  0  0
  -23.7740  -29.7610   19.9010 C   0  0  0  0  0  2  0  0  0  0  0  0
  -24.7800  -30.9560   21.8860 N   0  0  0  0  0  0  0  0  0  0  0  0
  -23.5920  -31.9670   23.5440 O   0  0  0  0  0  0  0  0  0  0  0  0
  -22.8570  -29.3240   22.2160 C   0  0  0  0  0  0  0  0  0  0  0  0
  -21.5230  -29.1820   22.1140 N   0  0  0  0  0  0  0  0  0  0  0  0
  -23.5380  -28.6380   22.9840 O   0  0  0  0  0  0  0  0  0  0  0  0
  -21.0280  -29.7930   21.4800 H   0  0  0  0  0  0  0  0  0  0  0  0
  -18.1230  -28.0960   22.7340 C   0  0  0  0  0  0  0  0  0  0  0  0
  -20.7050  -28.2070   22.8430 C   0  0  0  0  0  3  0  0  0  0  0  0
  -20.6900  -26.8400   22.1210 C   0  0  0  0  0  2  0  0  0  0  0  0
  -19.5060  -26.6760   21.1610 C   0  0  0  0  0  2  0  0  0  0  0  0
  -18.1790  -26.8190   21.9130 C   0  0  0  0  0  2  0  0  0  0  0  0
  -19.3070  -28.7560   23.1580 C   0  0  0  0  0  0  0  0  0  0  0  0
  -19.1960  -29.9590   23.8900 C   0  0  0  0  0  3  0  0  0  0  0  0
  -17.9330  -30.4980   24.2010 C   0  0  0  0  0  3  0  0  0  0  0  0
  -16.7640  -29.8340   23.7890 C   0  0  0  0  0  3  0  0  0  0  0  0
  -16.8610  -28.6340   23.0630 C   0  0  0  0  0  3  0  0  0  0  0  0
  -25.9490  -32.3530   23.6820 C   0  0  0  0  0  3  0  0  0  0  0  0
  -25.6140  -33.7310   24.0670 N   0  0  0  0  0  0  0  0  0  0  0  0
  -25.9320  -34.8220   23.3570 C   0  0  0  0  0  0  0  0  0  0  0  0
  -26.6040  -34.7710   22.3230 O   0  0  0  0  0  0  0  0  0  0  0  0
  -25.0170  -33.8440   24.8740 H   0  0  0  0  0  0  0  0  0  0  0  0
  -24.1660  -36.5940   23.0930 C   0  0  0  0  0  1  0  0  0  0  0  0
  -25.4260  -36.1830   23.8720 C   0  0  0  0  0  3  0  0  0  0  0  0
  -27.5500  -37.0830   24.7180 C   0  0  0  0  0  1  0  0  0  0  0  0
  -26.4380  -37.2600   23.7880 N   0  0  0  0  0  0  0  0  0  0  0  0
  -26.0140  -38.1660   23.9680 H   0  0  0  0  0  0  0  0  0  0  0  0
  -26.4570  -31.5400   24.9350 C   0  0  1  0  0  0  0  0  0  0  0  0
  -25.3510  -31.2500   25.9780 C   0  0  0  0  0  1  0  0  0  0  0  0
  -27.0630  -30.1860   24.5010 C   0  0  0  0  0  1  0  0  0  0  0  0
  -27.5860  -32.3230   25.6460 C   0  0  0  0  0  1  0  0  0  0  0  0
  1  3  1  0
  1  2  2  0
  4  3  1  0
  5  6  1  0
  5  8  1  0
  6 54  1  0
  6  4  1  0
  7  2  1  0
  8  1  1  0
  9 13  1  0
 10  9  2  0
 10 14  1  0
 11 12  1  0
 12 15  1  0
 13 12  2  0
 13  8  1  0
 14 24  1  0
 14 11  2  0
 16 24  1  0
 17 22  1  0
 18 19  1  0
 18 17  1  0
 20 19  1  0
 20 29  1  0
 20 21  1  0
 22 16  1  0
 22 21  1  0
 23 16  2  0
 24 25  1  0
 26 27  2  0
 27 46  1  0
 28 27  1  0
 28 31  1  0
 29 30  1  0
 29 26  1  0
 30 28  2  0
 31 32  1  0
 32 33  2  0
 34 37  1  0
 34 33  1  0
 35 34  2  0
 36 35  1  0
 36 31  2  0
 37 38  1  0
 38 43  2  0
 38 39  1  0
 39 40  2  0
 40 41  1  0
 41 45  1  0
 42 41  2  0
 43 42  1  0
 44 43  1  0
 46 47  1  0
 47 50  1  0
 47 49  1  0
 48 46  2  0
 51 26  1  0
 51 52  1  0
 53 51  1  0
 54 56  1  0
 55 66  2  0
 56 61  1  0
 57 65  1  0
 57 67  1  0
 58 64  1  0
 58 60  1  0
 59 65  1  0
 60 59  1  0
 61 60  2  0
 62 63  1  0
 62 56  2  0
 63 58  2  0
 64 57  1  0
 65 55  1  0
 67 69  2  0
 68 67  1  0
 70 68  1  0
 71 80  2  0
 71 76  1  0
 72 68  1  0
 72 76  1  0
 73 72  1  0
 74 75  1  0
 74 73  1  0
 75 71  1  0
 76 77  2  0
 77 78  1  0
 79 78  2  0
 80 79  1  0
 81 55  1  0
 81 82  1  0
 81 91  1  0
 82 85  1  0
 83 87  1  0
 83 82  1  0
 84 83  2  0
 87 86  1  0
 89 87  1  0
 89 90  1  0
 89 88  1  0
 91 94  1  1
 91 92  1  0
 93 91  1  0
M  ISO  4   6 101  16 100  24 100  54 101
M  END
>  <TORSDO>  (95) 
F 17

>  <SCORE>  (95) 
-13.706

>  <name>  (95) 
94

>  <ligand_id>  (95) 
94

>  <original_smiles>  (95) 
[H]C(=C1N(c2c([H])c([H])c(N([H])C(=O)N3C([H])([H])C([H])([H])C([H])([H])C([H])(n4nc(-c5c([H])c([H])c(Oc6c([H])c([H])c(F)c([H])c6F)c([H])c5[H])c(C(=O)N([H])[H])c4N([H])[H])C3([H])[H])c([H])c2C([H])([H])[H])C([H])([H])C([H])(Oc2c([H])c([H])c3c(c2[H])C([H])([H])N(C(=O)C([H])(N([H])C(=O)C([H])(N([H])C([H])([H])[H])C([H])([H])[H])C(C([H])([H])[H])(C([H])([H])[H])C([H])([H])[H])C([H])(C(=O)N([H])C2([H])c4c([H])c([H])c([H])c([H])c4C([H])([H])C([H])([H])C2([H])[H])C3([H])[H])C([H])([H])C1([H])[H])C([H])([H])[H]

>  <smiles>  (95) 
[H]C(=C1N(c2c([H])c([H])c(N([H])C(=O)N3C([H])([H])C([H])([H])C([H])([H])C([H])(n4nc(-c5c([H])c([H])c(Oc6c([H])c([H])c(F)c([H])c6F)c([H])c5[H])c(C(=O)N([H])[H])c4N([H])[H])C3([H])[H])c([H])c2C([H])([H])[H])C([H])([H])C([H])(Oc2c([H])c([H])c3c(c2[H])C([H])([H])N(C(=O)C([H])(N([H])C(=O)C([H])(N([H])C([H])([H])[H])C([H])([H])[H])C(C([H])([H])[H])(C([H])([H])[H])C([H])([H])[H])C([H])(C(=O)N([H])C2([H])c4c([H])c([H])c([H])c([H])c4C([H])([H])C([H])([H])C2([H])[H])C3([H])[H])C([H])([H])C1([H])[H])C([H])([H])[H]

$$$$
95:0:0
     RDKit          3D

 93101  0  0  1  0  0  0  0  0999 V2000
  -28.7820  -21.8730   19.8810 N   0  0  0  0  0  4  0  0  0  0  0  0
  -28.0550  -22.1720   19.2520 H   0  0  0  0  0  0  0  0  0  0  0  0
  -29.6190  -21.7880   19.3300 H   0  0  0  0  0  0  0  0  0  0  0  0
  -28.3640  -20.5060   20.3430 C   0  0  0  0  0  2  0  0  0  0  0  0
  -31.6660  -18.8660   21.5420 C   0  0  0  0  0  3  0  0  0  0  0  0
  -30.7000  -19.8330   21.1940 C   0  0  0  0  0  3  0  0  0  0  0  0
  -31.4040  -17.4910   21.3860 C   0  0  0  0  0  3  0  0  0  0  0  0
  -29.4520  -19.4410   20.6630 C   0  0  0  0  0  0  0  0  0  0  0  0
  -30.1650  -17.0520   20.8650 C   0  0  0  0  0  0  0  0  0  0  0  0
  -29.1970  -18.0390   20.5060 C   0  0  0  0  0  0  0  0  0  0  0  0
  -27.6740  -17.5020   19.8860 Cl  0  0  0  0  0  0  0  0  0  0  0  0
  -30.6160  -14.5940   20.4330 C   0  0  0  0  0  0  0  0  0  0  0  0
  -30.3510  -12.4110   19.3040 C   0  0  0  0  0  2  0  0  0  0  0  0
  -29.3970  -12.5940   18.1050 C   0  0  0  0  0  2  0  0  0  0  0  0
  -27.9280  -12.4370   18.5480 C   0  0  0  0  0  2  0  0  0  0  0  0
  -27.5890  -13.2730   19.8130 C   0  0  0  0  0  3  0  0  0  0  0  0
  -28.6590  -13.0790   20.9120 C   0  0  0  0  0  2  0  0  0  0  0  0
  -29.9670  -13.4000   20.3230 N   0  0  0  0  0  0  0  0  0  0  0  0
  -31.7770  -14.7470   20.0410 O   0  0  0  0  0  0  0  0  0  0  0  0
  -29.8370  -15.6490   20.7760 N   0  0  0  0  0  0  0  0  0  0  0  0
  -28.8570  -15.4320   20.8750 H   0  0  0  0  0  0  0  0  0  0  0  0
  -25.1950  -13.8550   20.5530 C   0  0  0  0  0  0  0  0  0  0  0  0
  -24.1360  -13.0750   20.9260 C   0  0  0  0  0  0  0  0  0  0  0  0
  -24.6060  -11.7270   20.8810 C   0  0  0  0  0  0  0  0  0  0  0  0
  -26.2450  -12.9840   20.3050 N   0  0  0  0  0  0  0  0  0  0  0  0
  -25.8950  -11.6980   20.5640 N   0  0  0  0  0  0  0  0  0  0  0  0
  -23.8890  -10.4600   21.0660 C   0  0  0  0  0  0  0  0  0  0  0  0
  -24.3230   -9.4960   22.0020 C   0  0  0  0  0  3  0  0  0  0  0  0
  -23.6050   -8.2930   22.1740 C   0  0  0  0  0  3  0  0  0  0  0  0
  -22.4400   -8.0470   21.4100 C   0  0  0  0  0  0  0  0  0  0  0  0
  -22.0250   -9.0000   20.4640 C   0  0  0  0  0  3  0  0  0  0  0  0
  -22.7440  -10.1940   20.2900 C   0  0  0  0  0  3  0  0  0  0  0  0
  -21.6930   -6.8950   21.4910 O   0  0  0  0  0  0  0  0  0  0  0  0
  -21.6390   -6.1520   22.6440 C   0  0  0  0  0  0  0  0  0  0  0  0
  -21.1530   -6.6920   23.8540 C   0  0  0  0  0  3  0  0  0  0  0  0
  -21.0490   -5.8750   24.9970 C   0  0  0  0  0  3  0  0  0  0  0  0
  -21.4200   -4.5190   24.9310 C   0  0  0  0  0  0  0  0  0  0  0  0
  -21.8980   -3.9780   23.7240 C   0  0  0  0  0  3  0  0  0  0  0  0
  -22.0040   -4.7920   22.5830 C   0  0  0  0  0  0  0  0  0  0  0  0
  -22.4460   -4.2620   21.4170 F   0  0  0  0  0  0  0  0  0  0  0  0
  -21.3120   -3.7320   26.0260 F   0  0  0  0  0  0  0  0  0  0  0  0
  -22.7390  -13.5430   21.2110 C   0  0  0  0  0  0  0  0  0  0  0  0
  -22.0170  -12.8360   22.0740 N   0  0  0  0  0  0  0  0  0  0  0  0
  -22.2940  -14.5740   20.7070 O   0  0  0  0  0  0  0  0  0  0  0  0
  -22.3890  -12.0040   22.5070 H   0  0  0  0  0  0  0  0  0  0  0  0
  -21.0810  -13.1320   22.3060 H   0  0  0  0  0  0  0  0  0  0  0  0
  -25.3390  -15.2270   20.3820 N   0  0  0  0  0  0  0  0  0  0  0  0
  -24.5540  -15.8560   20.4950 H   0  0  0  0  0  0  0  0  0  0  0  0
  -26.1660  -15.6930   20.0330 H   0  0  0  0  0  0  0  0  0  0  0  0
  -28.9500  -22.9510   20.9080 C   0  0  0  0  0  2  0  0  0  0  0  0
  -28.0640  -24.2470   20.7400 C   0  0  0  0  0  2  0  0  0  0  0  0
  -28.5660  -25.3640   19.7660 C   0  0  0  0  0  2  0  0  0  0  0  0
  -28.4240  -26.7300   20.2320 O   0  0  0  0  0  0  0  0  0  0  0  0
  -24.5330  -31.8970   23.2500 C   0  0  0  0  0  0  0  0  0  0  0  0
  -27.2260  -27.4310   20.1870 C   0  0  0  0  0  0  0  0  0  0  0  0
  -23.3490  -30.4910   21.5880 C   0  0  0  0  0  3  0  0  0  0  0  0
  -24.8250  -28.9480   20.1810 C   0  0  0  0  0  0  0  0  0  0  0  0
  -25.8750  -30.8480   21.4260 C   0  0  0  0  0  2  0  0  0  0  0  0
  -25.9740  -29.4740   20.7810 C   0  0  0  0  0  0  0  0  0  0  0  0
  -27.1750  -28.7220   20.7750 C   0  0  0  0  0  3  0  0  0  0  0  0
  -26.0520  -26.9230   19.5910 C   0  0  0  0  0  3  0  0  0  0  0  0
  -24.8600  -27.6760   19.5830 C   0  0  0  0  0  3  0  0  0  0  0  0
  -23.5780  -29.8040   20.2140 C   0  0  0  0  0  2  0  0  0  0  0  0
  -24.6010  -31.0980   22.1450 N   0  0  0  0  0  0  0  0  0  0  0  0
  -23.4470  -32.1640   23.7810 O   0  0  0  0  0  0  0  0  0  0  0  0
  -22.6860  -29.4740   22.5460 C   0  0  0  0  0  0  0  0  0  0  0  0
  -21.3610  -29.2980   22.4130 N   0  0  0  0  0  0  0  0  0  0  0  0
  -23.3610  -28.8450   23.3660 O   0  0  0  0  0  0  0  0  0  0  0  0
  -20.8740  -29.8610   21.7280 H   0  0  0  0  0  0  0  0  0  0  0  0
  -17.9760  -28.1340   22.9200 C   0  0  0  0  0  0  0  0  0  0  0  0
  -20.5380  -28.3590   23.1760 C   0  0  0  0  0  3  0  0  0  0  0  0
  -20.6170  -26.9360   22.5780 C   0  0  0  0  0  2  0  0  0  0  0  0
  -19.5060  -26.6420   21.5660 C   0  0  0  0  0  2  0  0  0  0  0  0
  -18.1300  -26.7920   22.2220 C   0  0  0  0  0  2  0  0  0  0  0  0
  -19.1050  -28.8760   23.3540 C   0  0  0  0  0  0  0  0  0  0  0  0
  -18.9050  -30.1320   23.9680 C   0  0  0  0  0  3  0  0  0  0  0  0
  -17.6070  -30.6470   24.1470 C   0  0  0  0  0  3  0  0  0  0  0  0
  -16.4920  -29.9000   23.7300 C   0  0  0  0  0  3  0  0  0  0  0  0
  -16.6770  -28.6440   23.1250 C   0  0  0  0  0  3  0  0  0  0  0  0
  -25.8110  -32.5290   23.8840 C   0  0  0  0  0  3  0  0  0  0  0  0
  -25.5060  -33.9330   24.1960 N   0  0  0  0  0  0  0  0  0  0  0  0
  -25.8600  -34.9760   23.4320 C   0  0  0  0  0  0  0  0  0  0  0  0
  -26.5460  -34.8580   22.4130 O   0  0  0  0  0  0  0  0  0  0  0  0
  -24.9080  -34.1010   24.9900 H   0  0  0  0  0  0  0  0  0  0  0  0
  -24.1660  -36.7860   23.0140 C   0  0  0  0  0  1  0  0  0  0  0  0
  -25.3740  -36.3710   23.8680 C   0  0  0  0  0  3  0  0  0  0  0  0
  -27.4830  -37.2430   24.7740 C   0  0  0  0  0  1  0  0  0  0  0  0
  -26.4190  -37.4130   23.7870 N   0  0  0  0  0  0  0  0  0  0  0  0
  -26.0170  -38.3370   23.9110 H   0  0  0  0  0  0  0  0  0  0  0  0
  -26.3130  -31.7700   25.1740 C   0  0  1  0  0  0  0  0  0  0  0  0
  -25.2070  -31.5450   26.2310 C   0  0  0  0  0  1  0  0  0  0  0  0
  -26.8930  -30.3850   24.8010 C   0  0  0  0  0  1  0  0  0  0  0  0
  -27.4550  -32.5690   25.8450 C   0  0  0  0  0  1  0  0  0  0  0  0
  1  4  1  0
  1 50  1  0
  2  1  1  0
  3  1  1  0
  4  8  1  0
  6  5  2  0
  7  5  1  0
  8  6  1  0
  9  7  2  0
 10  8  2  0
 10  9  1  0
 11 10  1  0
 12 20  1  0
 13 18  1  0
 14 15  1  0
 14 13  1  0
 16 15  1  0
 16 25  1  0
 16 17  1  0
 18 12  1  0
 18 17  1  0
 19 12  2  0
 20  9  1  0
 20 21  1  0
 22 23  2  0
 23 42  1  0
 24 23  1  0
 24 27  1  0
 25 22  1  0
 25 26  1  0
 26 24  2  0
 27 28  1  0
 28 29  2  0
 30 33  1  0
 30 29  1  0
 31 30  2  0
 32 31  1  0
 32 27  2  0
 33 34  1  0
 34 35  1  0
 35 36  2  0
 37 36  1  0
 37 41  1  0
 38 37  2  0
 39 34  2  0
 39 38  1  0
 40 39  1  0
 42 43  1  0
 43 46  1  0
 43 45  1  0
 44 42  2  0
 47 48  1  0
 47 22  1  0
 49 47  1  0
 51 50  1  0
 52 53  1  0
 52 51  1  0
 54 65  2  0
 55 53  1  0
 55 60  1  0
 56 64  1  0
 56 66  1  0
 57 63  1  0
 57 59  1  0
 58 64  1  0
 59 58  1  0
 60 59  2  0
 61 55  2  0
 62 61  1  0
 62 57  2  0
 63 56  1  0
 64 54  1  0
 66 68  2  0
 67 66  1  0
 69 67  1  0
 70 79  2  0
 70 75  1  0
 71 67  1  0
 71 75  1  0
 72 71  1  0
 73 74  1  0
 73 72  1  0
 74 70  1  0
 75 76  2  0
 76 77  1  0
 78 77  2  0
 79 78  1  0
 80 54  1  0
 80 81  1  0
 80 90  1  0
 81 84  1  0
 82 86  1  0
 82 81  1  0
 83 82  2  0
 86 85  1  0
 88 86  1  0
 88 89  1  0
 88 87  1  0
 90 93  1  1
 90 91  1  0
 92 90  1  0
M  ISO  4  12 100  20 100  52 101  53 101
M  END
>  <TORSDO>  (96) 
F 21

>  <SCORE>  (96) 
-13.908

>  <name>  (96) 
95

>  <ligand_id>  (96) 
95

>  <original_smiles>  (96) 
[H]c1c([H])c([H])c2c(c1[H])C([H])([H])C([H])([H])C([H])([H])C2([H])N([H])C(=O)C1([H])N(C(=O)C([H])(N([H])C(=O)C([H])(N([H])C([H])([H])[H])C([H])([H])[H])C(C([H])([H])[H])(C([H])([H])[H])C([H])([H])[H])C([H])([H])c2c([H])c(OC([H])([H])C([H])([H])C([H])([H])[N+]([H])([H])C([H])([H])c3c([H])c([H])c([H])c(N([H])C(=O)N4C([H])([H])C([H])([H])C([H])([H])C([H])(n5nc(-c6c([H])c([H])c(Oc7c([H])c([H])c(F)c([H])c7F)c([H])c6[H])c(C(=O)N([H])[H])c5N([H])[H])C4([H])[H])c3Cl)c([H])c([H])c2C1([H])[H]

>  <smiles>  (96) 
[H]c1c([H])c([H])c2c(c1[H])C([H])([H])C([H])([H])C([H])([H])C2([H])N([H])C(=O)C1([H])N(C(=O)C([H])(N([H])C(=O)C([H])(N([H])C([H])([H])[H])C([H])([H])[H])C(C([H])([H])[H])(C([H])([H])[H])C([H])([H])[H])C([H])([H])c2c([H])c(OC([H])([H])C([H])([H])C([H])([H])[N+]([H])([H])C([H])([H])c3c([H])c([H])c([H])c(N([H])C(=O)N4C([H])([H])C([H])([H])C([H])([H])C([H])(n5nc(-c6c([H])c([H])c(Oc7c([H])c([H])c(F)c([H])c7F)c([H])c6[H])c(C(=O)N([H])[H])c5N([H])[H])C4([H])[H])c3Cl)c([H])c([H])c2C1([H])[H]

$$$$
96:0:0
     RDKit          3D

 95103  0  0  1  0  0  0  0  0999 V2000
  -29.5330  -18.2870   19.2260 C   0  0  0  0  0  3  0  0  0  0  0  0
  -30.0350  -18.0910   20.5340 C   0  0  0  0  0  0  0  0  0  0  0  0
  -29.9830  -19.1850   21.4440 C   0  0  0  0  0  0  0  0  0  0  0  0
  -29.4090  -20.4330   21.0460 C   0  0  0  0  0  0  0  0  0  0  0  0
  -28.9090  -20.6060   19.7220 C   0  0  0  0  0  0  0  0  0  0  0  0
  -28.9850  -19.5160   18.8210 C   0  0  0  0  0  0  0  0  0  0  0  0
  -30.5480  -19.0340   22.8570 C   0  0  0  0  0  1  0  0  0  0  0  0
  -29.2900  -21.5890   22.0450 C   0  0  0  0  0  1  0  0  0  0  0  0
  -28.3950  -19.6370   17.2000 Cl  0  0  0  0  0  0  0  0  0  0  0  0
  -30.6190  -16.7210   20.9480 C   0  0  0  0  0  2  0  0  0  0  0  0
  -31.5670  -14.6690   19.8950 C   0  0  0  0  0  0  0  0  0  0  0  0
  -31.0610  -12.5260   18.8110 C   0  0  0  0  0  2  0  0  0  0  0  0
  -30.0710  -12.8020   17.6600 C   0  0  0  0  0  2  0  0  0  0  0  0
  -28.6150  -12.7850   18.1710 C   0  0  0  0  0  2  0  0  0  0  0  0
  -28.4110  -13.6410   19.4530 C   0  0  0  0  0  3  0  0  0  0  0  0
  -29.5140  -13.3500   20.4990 C   0  0  0  0  0  2  0  0  0  0  0  0
  -30.8120  -13.5420   19.8420 N   0  0  0  0  0  0  0  0  0  0  0  0
  -32.7300  -14.7240   19.4960 O   0  0  0  0  0  0  0  0  0  0  0  0
  -30.8520  -15.8010   19.8360 N   0  0  0  0  0  0  0  0  0  0  0  0
  -31.1430  -16.3330   19.0320 H   0  0  0  0  0  0  0  0  0  0  0  0
  -26.1380  -14.4250   20.3630 C   0  0  0  0  0  0  0  0  0  0  0  0
  -25.0210  -13.7330   20.7490 C   0  0  0  0  0  0  0  0  0  0  0  0
  -25.3430  -12.3490   20.6060 C   0  0  0  0  0  0  0  0  0  0  0  0
  -27.0720  -13.4650   20.0100 N   0  0  0  0  0  0  0  0  0  0  0  0
  -26.6030  -12.2080   20.2150 N   0  0  0  0  0  0  0  0  0  0  0  0
  -24.5100  -11.1500   20.7660 C   0  0  0  0  0  0  0  0  0  0  0  0
  -24.8940  -10.0940   21.6190 C   0  0  0  0  0  3  0  0  0  0  0  0
  -24.0670   -8.9590   21.7720 C   0  0  0  0  0  3  0  0  0  0  0  0
  -22.8420   -8.8740   21.0700 C   0  0  0  0  0  0  0  0  0  0  0  0
  -22.4740   -9.9200   20.2050 C   0  0  0  0  0  3  0  0  0  0  0  0
  -23.3010  -11.0450   20.0500 C   0  0  0  0  0  3  0  0  0  0  0  0
  -21.9880   -7.8000   21.1350 O   0  0  0  0  0  0  0  0  0  0  0  0
  -21.8910   -7.0250   22.2630 C   0  0  0  0  0  0  0  0  0  0  0  0
  -21.5520   -7.5750   23.5180 C   0  0  0  0  0  3  0  0  0  0  0  0
  -21.3920   -6.7310   24.6360 C   0  0  0  0  0  3  0  0  0  0  0  0
  -21.5660   -5.3400   24.5000 C   0  0  0  0  0  0  0  0  0  0  0  0
  -21.9000   -4.7910   23.2500 C   0  0  0  0  0  3  0  0  0  0  0  0
  -22.0590   -5.6320   22.1340 C   0  0  0  0  0  0  0  0  0  0  0  0
  -22.3600   -5.0940   20.9270 F   0  0  0  0  0  0  0  0  0  0  0  0
  -21.4060   -4.5300   25.5720 F   0  0  0  0  0  0  0  0  0  0  0  0
  -23.6940  -14.3190   21.1380 C   0  0  0  0  0  0  0  0  0  0  0  0
  -22.9650  -13.6480   22.0220 N   0  0  0  0  0  0  0  0  0  0  0  0
  -23.3200  -15.4030   20.6960 O   0  0  0  0  0  0  0  0  0  0  0  0
  -23.2790  -12.7660   22.3990 H   0  0  0  0  0  0  0  0  0  0  0  0
  -22.0770  -14.0230   22.3220 H   0  0  0  0  0  0  0  0  0  0  0  0
  -26.4270  -15.7790   20.2610 N   0  0  0  0  0  0  0  0  0  0  0  0
  -25.7400  -16.4970   20.4630 H   0  0  0  0  0  0  0  0  0  0  0  0
  -27.3010  -16.1560   19.9120 H   0  0  0  0  0  0  0  0  0  0  0  0
  -28.2290  -21.9220   19.2920 C   0  0  0  0  0  2  0  0  0  0  0  0
  -29.1180  -23.1080   19.3580 N   0  0  0  0  0  4  0  0  0  0  0  0
  -29.8750  -22.9870   18.7010 H   0  0  0  0  0  0  0  0  0  0  0  0
  -29.5240  -23.1200   20.2790 H   0  0  0  0  0  0  0  0  0  0  0  0
  -28.4440  -24.4140   19.1070 C   0  0  0  0  0  2  0  0  0  0  0  0
  -28.8330  -25.4940   20.1510 C   0  0  0  0  0  2  0  0  0  0  0  0
  -28.7250  -26.8580   19.7180 O   0  0  0  0  0  0  0  0  0  0  0  0
  -24.5500  -31.5890   23.0950 C   0  0  0  0  0  0  0  0  0  0  0  0
  -27.4940  -27.4710   19.8170 C   0  0  0  0  0  0  0  0  0  0  0  0
  -23.4450  -30.1840   21.3860 C   0  0  0  0  0  3  0  0  0  0  0  0
  -24.9990  -28.8140   19.9020 C   0  0  0  0  0  0  0  0  0  0  0  0
  -25.9390  -30.7150   21.2190 C   0  0  0  0  0  2  0  0  0  0  0  0
  -26.1190  -29.3790   20.5260 C   0  0  0  0  0  0  0  0  0  0  0  0
  -27.3680  -28.7140   20.4870 C   0  0  0  0  0  3  0  0  0  0  0  0
  -26.3560  -26.9300   19.1830 C   0  0  0  0  0  3  0  0  0  0  0  0
  -25.1140  -27.5870   19.2270 C   0  0  0  0  0  3  0  0  0  0  0  0
  -23.7000  -29.5880   19.9750 C   0  0  0  0  0  2  0  0  0  0  0  0
  -24.6620  -30.8430   21.9580 N   0  0  0  0  0  0  0  0  0  0  0  0
  -23.4510  -31.7720   23.6370 O   0  0  0  0  0  0  0  0  0  0  0  0
  -22.8630  -29.0750   22.2910 C   0  0  0  0  0  0  0  0  0  0  0  0
  -21.5650  -28.7810   22.1080 N   0  0  0  0  0  0  0  0  0  0  0  0
  -23.5700  -28.4880   23.1130 O   0  0  0  0  0  0  0  0  0  0  0  0
  -21.0520  -29.3120   21.4150 H   0  0  0  0  0  0  0  0  0  0  0  0
  -18.3070  -27.2600   22.4160 C   0  0  0  0  0  0  0  0  0  0  0  0
  -20.8080  -27.7560   22.8230 C   0  0  0  0  0  3  0  0  0  0  0  0
  -21.0820  -26.3510   22.2440 C   0  0  0  0  0  2  0  0  0  0  0  0
  -20.0710  -25.9290   21.1760 C   0  0  0  0  0  2  0  0  0  0  0  0
  -18.6490  -25.9420   21.7460 C   0  0  0  0  0  2  0  0  0  0  0  0
  -19.3230  -28.1190   22.9090 C   0  0  0  0  0  0  0  0  0  0  0  0
  -18.9560  -29.3490   23.4940 C   0  0  0  0  0  3  0  0  0  0  0  0
  -17.6020  -29.7190   23.5990 C   0  0  0  0  0  3  0  0  0  0  0  0
  -16.5980  -28.8560   23.1280 C   0  0  0  0  0  3  0  0  0  0  0  0
  -16.9520  -27.6290   22.5410 C   0  0  0  0  0  3  0  0  0  0  0  0
  -25.7930  -32.2690   23.7500 C   0  0  0  0  0  3  0  0  0  0  0  0
  -25.4190  -33.6500   24.0750 N   0  0  0  0  0  0  0  0  0  0  0  0
  -25.7330  -34.7210   23.3320 C   0  0  0  0  0  0  0  0  0  0  0  0
  -26.4450  -34.6510   22.3250 O   0  0  0  0  0  0  0  0  0  0  0  0
  -24.7860  -33.7740   24.8510 H   0  0  0  0  0  0  0  0  0  0  0  0
  -23.9380  -36.4330   22.9250 C   0  0  0  0  0  1  0  0  0  0  0  0
  -25.1710  -36.0850   23.7780 C   0  0  0  0  0  3  0  0  0  0  0  0
  -27.2390  -37.0580   24.6740 C   0  0  0  0  0  1  0  0  0  0  0  0
  -26.1590  -37.1830   23.6960 N   0  0  0  0  0  0  0  0  0  0  0  0
  -25.7100  -38.0850   23.8320 H   0  0  0  0  0  0  0  0  0  0  0  0
  -26.3150  -31.5120   25.0300 C   0  0  1  0  0  0  0  0  0  0  0  0
  -25.2090  -31.2280   26.0730 C   0  0  0  0  0  1  0  0  0  0  0  0
  -26.9590  -30.1610   24.6400 C   0  0  0  0  0  1  0  0  0  0  0  0
  -27.4200  -32.3460   25.7180 C   0  0  0  0  0  1  0  0  0  0  0  0
  1  2  1  0
  2 10  1  0
  2  3  2  0
  3  7  1  0
  4  3  1  0
  4  8  1  0
  5  4  2  0
  6  1  2  0
  6  5  1  0
  9  6  1  0
 12 17  1  0
 13 14  1  0
 13 12  1  0
 15 14  1  0
 15 24  1  0
 15 16  1  0
 17 11  1  0
 17 16  1  0
 18 11  2  0
 19 11  1  0
 19 10  1  0
 20 19  1  0
 21 22  2  0
 22 41  1  0
 23 22  1  0
 23 26  1  0
 24 25  1  0
 24 21  1  0
 25 23  2  0
 26 27  1  0
 27 28  2  0
 29 32  1  0
 29 28  1  0
 30 29  2  0
 31 30  1  0
 31 26  2  0
 32 33  1  0
 33 34  1  0
 34 35  2  0
 36 35  1  0
 36 40  1  0
 37 36  2  0
 38 33  2  0
 38 37  1  0
 39 38  1  0
 41 42  1  0
 42 45  1  0
 42 44  1  0
 43 41  2  0
 46 21  1  0
 46 47  1  0
 48 46  1  0
 49 50  1  0
 49  5  1  0
 50 52  1  0
 51 50  1  0
 53 50  1  0
 53 54  1  0
 55 57  1  0
 55 54  1  0
 56 67  2  0
 57 62  1  0
 58 66  1  0
 58 68  1  0
 59 65  1  0
 59 61  1  0
 60 66  1  0
 61 60  1  0
 62 61  2  0
 63 64  1  0
 63 57  2  0
 64 59  2  0
 65 58  1  0
 66 56  1  0
 68 70  2  0
 69 68  1  0
 71 69  1  0
 72 81  2  0
 72 77  1  0
 73 69  1  0
 73 77  1  0
 74 73  1  0
 75 76  1  0
 75 74  1  0
 76 72  1  0
 77 78  2  0
 78 79  1  0
 80 79  2  0
 81 80  1  0
 82 56  1  0
 82 83  1  0
 82 92  1  0
 83 86  1  0
 84 88  1  0
 84 83  1  0
 85 84  2  0
 88 87  1  0
 90 88  1  0
 90 91  1  0
 90 89  1  0
 92 95  1  1
 92 93  1  0
 94 92  1  0
M  ISO  4  11 100  19 100  54 101  55 101
M  END
>  <TORSDO>  (97) 
F 21

>  <SCORE>  (97) 
-11.350

>  <name>  (97) 
96

>  <ligand_id>  (97) 
96

>  <original_smiles>  (97) 
[H]c1c([H])c([H])c2c(c1[H])C([H])([H])C([H])([H])C([H])([H])C2([H])N([H])C(=O)C1([H])N(C(=O)C([H])(N([H])C(=O)C([H])(N([H])C([H])([H])[H])C([H])([H])[H])C(C([H])([H])[H])(C([H])([H])[H])C([H])([H])[H])C([H])([H])c2c([H])c(OC([H])([H])C([H])([H])[N+]([H])([H])C([H])([H])c3c(Cl)c([H])c(C([H])([H])N([H])C(=O)N4C([H])([H])C([H])([H])C([H])([H])C([H])(n5nc(-c6c([H])c([H])c(Oc7c([H])c([H])c(F)c([H])c7F)c([H])c6[H])c(C(=O)N([H])[H])c5N([H])[H])C4([H])[H])c(C([H])([H])[H])c3C([H])([H])[H])c([H])c([H])c2C1([H])[H]

>  <smiles>  (97) 
[H]c1c([H])c([H])c2c(c1[H])C([H])([H])C([H])([H])C([H])([H])C2([H])N([H])C(=O)C1([H])N(C(=O)C([H])(N([H])C(=O)C([H])(N([H])C([H])([H])[H])C([H])([H])[H])C(C([H])([H])[H])(C([H])([H])[H])C([H])([H])[H])C([H])([H])c2c([H])c(OC([H])([H])C([H])([H])[N+]([H])([H])C([H])([H])c3c(Cl)c([H])c(C([H])([H])N([H])C(=O)N4C([H])([H])C([H])([H])C([H])([H])C([H])(n5nc(-c6c([H])c([H])c(Oc7c([H])c([H])c(F)c([H])c7F)c([H])c6[H])c(C(=O)N([H])[H])c5N([H])[H])C4([H])[H])c(C([H])([H])[H])c3C([H])([H])[H])c([H])c([H])c2C1([H])[H]

$$$$
