0:0:0
     RDKit          3D

 95104  0  0  1  0  0  0  0  0999 V2000
  -29.6370  -22.9490   19.3600 C   0  0  0  0  0  0  0  0  0  0  0  0
  -30.4650  -22.3750   18.4680 C   0  0  0  0  0  2  0  0  0  0  0  0
  -29.6480  -24.4640   19.7120 C   0  0  0  0  0  2  0  0  0  0  0  0
  -27.5130  -24.2970   21.0430 C   0  0  0  0  0  2  0  0  0  0  0  0
  -28.0520  -22.8450   21.3090 C   0  0  0  0  0  2  0  0  0  0  0  0
  -28.2530  -25.1090   19.9390 C   0  0  0  0  0  3  0  0  0  0  0  0
  -28.5460  -22.1700   20.0720 N   0  0  2  0  0  4  0  0  0  0  0  0
  -27.7400  -22.3190   19.4820 H   0  0  0  0  0  0  0  0  0  0  0  0
  -28.3260  -26.5610   20.1990 O   0  0  0  0  0  0  0  0  0  0  0  0
  -24.6130  -31.9050   23.2680 C   0  0  0  0  0  0  0  0  0  0  0  0
  -27.1790  -27.3650   20.1690 C   0  0  0  0  0  0  0  0  0  0  0  0
  -23.3890  -30.5250   21.6280 C   0  0  0  0  0  3  0  0  0  0  0  0
  -24.8180  -28.9720   20.1890 C   0  0  0  0  0  0  0  0  0  0  0  0
  -25.9270  -30.8330   21.4280 C   0  0  0  0  0  2  0  0  0  0  0  0
  -25.9930  -29.4590   20.7760 C   0  0  0  0  0  0  0  0  0  0  0  0
  -27.1760  -28.6660   20.7550 C   0  0  0  0  0  3  0  0  0  0  0  0
  -25.9780  -26.9220   19.5700 C   0  0  0  0  0  3  0  0  0  0  0  0
  -24.8110  -27.7090   19.5810 C   0  0  0  0  0  3  0  0  0  0  0  0
  -23.5890  -29.8530   20.2440 C   0  0  0  0  0  2  0  0  0  0  0  0
  -24.6620  -31.1050   22.1650 N   0  0  0  0  0  0  0  0  0  0  0  0
  -23.5350  -32.1880   23.8120 O   0  0  0  0  0  0  0  0  0  0  0  0
  -22.7260  -29.5070   22.5870 C   0  0  0  0  0  0  0  0  0  0  0  0
  -21.4000  -29.3310   22.4580 N   0  0  0  0  0  0  0  0  0  0  0  0
  -23.4040  -28.8780   23.4040 O   0  0  0  0  0  0  0  0  0  0  0  0
  -20.9150  -29.8880   21.7670 H   0  0  0  0  0  0  0  0  0  0  0  0
  -18.0180  -28.1490   22.9500 C   0  0  0  0  0  0  0  0  0  0  0  0
  -20.5770  -28.3970   23.2260 C   0  0  0  0  0  3  0  0  0  0  0  0
  -20.6760  -26.9660   22.6490 C   0  0  0  0  0  2  0  0  0  0  0  0
  -19.5730  -26.6490   21.6330 C   0  0  0  0  0  2  0  0  0  0  0  0
  -18.1900  -26.8000   22.2730 C   0  0  0  0  0  2  0  0  0  0  0  0
  -19.1390  -28.9050   23.3830 C   0  0  0  0  0  0  0  0  0  0  0  0
  -18.9240  -30.1690   23.9740 C   0  0  0  0  0  3  0  0  0  0  0  0
  -17.6210  -30.6760   24.1370 C   0  0  0  0  0  3  0  0  0  0  0  0
  -16.5140  -29.9150   23.7220 C   0  0  0  0  0  3  0  0  0  0  0  0
  -16.7130  -28.6540   23.1340 C   0  0  0  0  0  3  0  0  0  0  0  0
  -25.9050  -32.5250   23.8860 C   0  0  0  0  0  3  0  0  0  0  0  0
  -25.6100  -33.9250   24.2180 N   0  0  0  0  0  0  0  0  0  0  0  0
  -25.9310  -34.9740   23.4490 C   0  0  0  0  0  0  0  0  0  0  0  0
  -26.5760  -34.8640   22.4040 O   0  0  0  0  0  0  0  0  0  0  0  0
  -25.0380  -34.0840   25.0340 H   0  0  0  0  0  0  0  0  0  0  0  0
  -24.1990  -36.7720   23.1390 C   0  0  0  0  0  1  0  0  0  0  0  0
  -25.4610  -36.3660   23.9150 C   0  0  0  0  0  3  0  0  0  0  0  0
  -27.6170  -37.2520   24.6850 C   0  0  0  0  0  1  0  0  0  0  0  0
  -26.4920  -37.4160   23.7690 N   0  0  0  0  0  0  0  0  0  0  0  0
  -26.0910  -38.3380   23.9200 H   0  0  0  0  0  0  0  0  0  0  0  0
  -26.4180  -31.7470   25.1600 C   0  0  1  0  0  0  0  0  0  0  0  0
  -25.3260  -31.5160   26.2290 C   0  0  0  0  0  1  0  0  0  0  0  0
  -26.9890  -30.3650   24.7640 C   0  0  0  0  0  1  0  0  0  0  0  0
  -27.5750  -32.5310   25.8220 C   0  0  0  0  0  1  0  0  0  0  0  0
  -28.4790  -20.6410   20.0380 C   0  0  0  0  0  2  0  0  0  0  0  0
  -31.2730  -17.5170   21.5410 C   0  0  0  0  0  3  0  0  0  0  0  0
  -31.5480  -18.8770   21.7920 C   0  0  0  0  0  3  0  0  0  0  0  0
  -29.2450  -18.1980   20.4030 C   0  0  0  0  0  3  0  0  0  0  0  0
  -29.5140  -19.5990   20.6180 C   0  0  0  0  0  0  0  0  0  0  0  0
  -30.1070  -17.1380   20.8460 C   0  0  0  0  0  0  0  0  0  0  0  0
  -30.6930  -19.9100   21.3520 C   0  0  0  0  0  0  0  0  0  0  0  0
  -31.1540  -21.5190   21.7730 Cl  0  0  0  0  0  0  0  0  0  0  0  0
  -30.5650  -14.6440   20.4290 C   0  0  0  0  0  0  0  0  0  0  0  0
  -30.3410  -12.4170   19.3500 C   0  0  0  0  0  2  0  0  0  0  0  0
  -29.3990  -12.5460   18.1340 C   0  0  0  0  0  2  0  0  0  0  0  0
  -27.9260  -12.3850   18.5610 C   0  0  0  0  0  2  0  0  0  0  0  0
  -27.5630  -13.2510   19.7970 C   0  0  0  0  0  3  0  0  0  0  0  0
  -28.6200  -13.1060   20.9150 C   0  0  0  0  0  2  0  0  0  0  0  0
  -29.9270  -13.4380   20.3320 N   0  0  0  0  0  0  0  0  0  0  0  0
  -31.7430  -14.7750   20.0840 O   0  0  0  0  0  0  0  0  0  0  0  0
  -29.7660  -15.7300   20.6780 N   0  0  0  0  0  0  0  0  0  0  0  0
  -28.7840  -15.5090   20.7370 H   0  0  0  0  0  0  0  0  0  0  0  0
  -25.1690  -13.8470   20.5130 C   0  0  0  0  0  0  0  0  0  0  0  0
  -24.1020  -13.0730   20.8820 C   0  0  0  0  0  0  0  0  0  0  0  0
  -24.5660  -11.7220   20.8510 C   0  0  0  0  0  0  0  0  0  0  0  0
  -26.2140  -12.9680   20.2810 N   0  0  0  0  0  0  0  0  0  0  0  0
  -25.8580  -11.6840   20.5460 N   0  0  0  0  0  0  0  0  0  0  0  0
  -23.8400  -10.4580   21.0370 C   0  0  0  0  0  0  0  0  0  0  0  0
  -24.2640   -9.4960   21.9800 C   0  0  0  0  0  3  0  0  0  0  0  0
  -23.5400   -8.2970   22.1540 C   0  0  0  0  0  3  0  0  0  0  0  0
  -22.3780   -8.0520   21.3840 C   0  0  0  0  0  0  0  0  0  0  0  0
  -21.9740   -9.0020   20.4300 C   0  0  0  0  0  3  0  0  0  0  0  0
  -22.6980  -10.1930   20.2550 C   0  0  0  0  0  3  0  0  0  0  0  0
  -21.6270   -6.9050   21.4680 O   0  0  0  0  0  0  0  0  0  0  0  0
  -21.5580   -6.1720   22.6250 C   0  0  0  0  0  0  0  0  0  0  0  0
  -21.0750   -6.7260   23.8300 C   0  0  0  0  0  3  0  0  0  0  0  0
  -20.9560   -5.9170   24.9790 C   0  0  0  0  0  3  0  0  0  0  0  0
  -21.3100   -4.5560   24.9210 C   0  0  0  0  0  0  0  0  0  0  0  0
  -21.7860   -4.0010   23.7200 C   0  0  0  0  0  3  0  0  0  0  0  0
  -21.9060   -4.8070   22.5740 C   0  0  0  0  0  0  0  0  0  0  0  0
  -22.3460   -4.2620   21.4140 F   0  0  0  0  0  0  0  0  0  0  0  0
  -21.1890   -3.7770   26.0210 F   0  0  0  0  0  0  0  0  0  0  0  0
  -22.7040  -13.5480   21.1480 C   0  0  0  0  0  0  0  0  0  0  0  0
  -21.9730  -12.8500   22.0120 N   0  0  0  0  0  0  0  0  0  0  0  0
  -22.2670  -14.5730   20.6270 O   0  0  0  0  0  0  0  0  0  0  0  0
  -22.3380  -12.0190   22.4540 H   0  0  0  0  0  0  0  0  0  0  0  0
  -21.0350  -13.1510   22.2330 H   0  0  0  0  0  0  0  0  0  0  0  0
  -25.3300  -15.2190   20.3340 N   0  0  0  0  0  0  0  0  0  0  0  0
  -24.5540  -15.8650   20.4300 H   0  0  0  0  0  0  0  0  0  0  0  0
  -26.1640  -15.6570   19.9670 H   0  0  0  0  0  0  0  0  0  0  0  0
  1  3  1  0
  1  7  1  0
  2  1  2  0
  3  6  1  0
  4  5  1  0
  6  9  1  0
  6  4  1  0
  7  5  1  0
  7  8  1  6
 10 21  2  0
 11  9  1  0
 11 16  1  0
 12 20  1  0
 12 22  1  0
 13 19  1  0
 13 15  1  0
 14 20  1  0
 15 14  1  0
 16 15  2  0
 17 18  1  0
 17 11  2  0
 18 13  2  0
 19 12  1  0
 20 10  1  0
 22 24  2  0
 23 22  1  0
 25 23  1  0
 26 35  2  0
 26 31  1  0
 27 23  1  0
 27 31  1  0
 28 27  1  0
 29 30  1  0
 29 28  1  0
 30 26  1  0
 31 32  2  0
 32 33  1  0
 34 33  2  0
 35 34  1  0
 36 10  1  0
 36 37  1  0
 36 46  1  0
 37 40  1  0
 38 42  1  0
 38 37  1  0
 39 38  2  0
 42 41  1  0
 44 42  1  0
 44 45  1  0
 44 43  1  0
 46 49  1  1
 46 47  1  0
 48 46  1  0
 50  7  1  0
 50 54  1  0
 51 52  1  0
 53 54  2  0
 53 55  1  0
 54 56  1  0
 55 51  2  0
 56 57  1  0
 56 52  2  0
 58 66  1  0
 59 64  1  0
 60 61  1  0
 60 59  1  0
 62 61  1  0
 62 71  1  0
 62 63  1  0
 64 58  1  0
 64 63  1  0
 65 58  2  0
 66 67  1  0
 66 55  1  0
 68 69  2  0
 69 88  1  0
 70 69  1  0
 70 73  1  0
 71 68  1  0
 71 72  1  0
 72 70  2  0
 73 74  1  0
 74 75  2  0
 76 79  1  0
 76 75  1  0
 77 76  2  0
 78 77  1  0
 78 73  2  0
 79 80  1  0
 80 81  1  0
 81 82  2  0
 83 82  1  0
 83 87  1  0
 84 83  2  0
 85 80  2  0
 85 84  1  0
 86 85  1  0
 88 89  1  0
 89 92  1  0
 89 91  1  0
 90 88  2  0
 93 94  1  0
 93 68  1  0
 95 93  1  0
M  ISO  4   6 101   9 101  58 100  66 100
M  END
>  <TORSDO>  (1) 
F 18

>  <SCORE>  (1) 
-15.124

>  <name>  (1) 
0

>  <ligand_id>  (1) 
0

>  <original_smiles>  (1) 
[H]C([H])=C1C([H])([H])C([H])(Oc2c([H])c([H])c3c(c2[H])C([H])([H])N(C(=O)C([H])(N([H])C(=O)C([H])(N([H])C([H])([H])[H])C([H])([H])[H])C(C([H])([H])[H])(C([H])([H])[H])C([H])([H])[H])C([H])(C(=O)N([H])C2([H])c4c([H])c([H])c([H])c([H])c4C([H])([H])C([H])([H])C2([H])[H])C3([H])[H])C([H])([H])C([H])([H])[N+]1([H])C([H])([H])c1c([H])c(N([H])C(=O)N2C([H])([H])C([H])([H])C([H])([H])C([H])(n3nc(-c4c([H])c([H])c(Oc5c([H])c([H])c(F)c([H])c5F)c([H])c4[H])c(C(=O)N([H])[H])c3N([H])[H])C2([H])[H])c([H])c([H])c1Cl

>  <smiles>  (1) 
[H]C([H])=C1C([H])([H])C([H])(Oc2c([H])c([H])c3c(c2[H])C([H])([H])N(C(=O)C([H])(N([H])C(=O)C([H])(N([H])C([H])([H])[H])C([H])([H])[H])C(C([H])([H])[H])(C([H])([H])[H])C([H])([H])[H])C([H])(C(=O)N([H])C2([H])c4c([H])c([H])c([H])c([H])c4C([H])([H])C([H])([H])C2([H])[H])C3([H])[H])C([H])([H])C([H])([H])[N+]1([H])C([H])([H])c1c([H])c(N([H])C(=O)N2C([H])([H])C([H])([H])C([H])([H])C([H])(n3nc(-c4c([H])c([H])c(Oc5c([H])c([H])c(F)c([H])c5F)c([H])c4[H])c(C(=O)N([H])[H])c3N([H])[H])C2([H])[H])c([H])c([H])c1Cl

$$$$
1:0:0
     RDKit          3D

 96105  0  0  1  0  0  0  0  0999 V2000
  -29.5100  -22.6940   21.1290 C   0  0  0  0  0  0  0  0  0  0  0  0
  -29.8820  -22.3240   22.3790 C   0  0  0  0  0  3  0  0  0  0  0  0
  -29.5220  -24.2250   20.6920 C   0  0  0  0  0  2  0  0  0  0  0  0
  -27.8200  -23.8360   19.0290 C   0  0  0  0  0  2  0  0  0  0  0  0
  -27.8330  -22.2630   19.4150 C   0  0  0  0  0  2  0  0  0  0  0  0
  -28.1940  -24.8960   20.1390 C   0  0  0  0  0  3  0  0  0  0  0  0
  -29.1090  -21.6960   20.0060 N   0  0  2  0  0  4  0  0  0  0  0  0
  -29.7660  -21.8380   19.2540 H   0  0  0  0  0  0  0  0  0  0  0  0
  -30.8630  -20.4150   23.5740 C   0  0  0  0  0  2  0  0  0  0  0  0
  -29.8160  -21.0040   22.9780 C   0  0  0  0  0  3  0  0  0  0  0  0
  -28.2870  -26.4020   19.7740 O   0  0  0  0  0  0  0  0  0  0  0  0
  -24.6490  -31.8370   23.1170 C   0  0  0  0  0  0  0  0  0  0  0  0
  -27.1740  -27.3090   19.8150 C   0  0  0  0  0  0  0  0  0  0  0  0
  -23.3870  -30.4390   21.5220 C   0  0  0  0  0  3  0  0  0  0  0  0
  -24.7890  -28.9460   19.9710 C   0  0  0  0  0  0  0  0  0  0  0  0
  -25.9100  -30.8080   21.1920 C   0  0  0  0  0  2  0  0  0  0  0  0
  -25.9870  -29.4330   20.5090 C   0  0  0  0  0  0  0  0  0  0  0  0
  -27.1820  -28.6320   20.4070 C   0  0  0  0  0  3  0  0  0  0  0  0
  -25.9470  -26.9100   19.2490 C   0  0  0  0  0  3  0  0  0  0  0  0
  -24.7780  -27.6990   19.3240 C   0  0  0  0  0  3  0  0  0  0  0  0
  -23.5390  -29.7990   20.1150 C   0  0  0  0  0  2  0  0  0  0  0  0
  -24.6720  -31.0490   21.9990 N   0  0  0  0  0  0  0  0  0  0  0  0
  -23.5910  -32.0720   23.7210 O   0  0  0  0  0  0  0  0  0  0  0  0
  -22.8060  -29.3890   22.5020 C   0  0  0  0  0  0  0  0  0  0  0  0
  -21.4950  -29.1070   22.3910 N   0  0  0  0  0  0  0  0  0  0  0  0
  -23.5370  -28.8300   23.3240 O   0  0  0  0  0  0  0  0  0  0  0  0
  -20.9570  -29.6200   21.7070 H   0  0  0  0  0  0  0  0  0  0  0  0
  -18.2640  -27.5310   22.8340 C   0  0  0  0  0  0  0  0  0  0  0  0
  -20.7610  -28.1130   23.1780 C   0  0  0  0  0  3  0  0  0  0  0  0
  -21.0550  -26.6800   22.6800 C   0  0  0  0  0  2  0  0  0  0  0  0
  -20.0430  -26.1800   21.6450 C   0  0  0  0  0  2  0  0  0  0  0  0
  -18.6280  -26.1840   22.2320 C   0  0  0  0  0  2  0  0  0  0  0  0
  -19.2650  -28.4430   23.2640 C   0  0  0  0  0  0  0  0  0  0  0  0
  -18.8720  -29.6940   23.7870 C   0  0  0  0  0  3  0  0  0  0  0  0
  -17.5110  -30.0380   23.8850 C   0  0  0  0  0  3  0  0  0  0  0  0
  -16.5240  -29.1270   23.4690 C   0  0  0  0  0  3  0  0  0  0  0  0
  -16.9010  -27.8750   22.9510 C   0  0  0  0  0  3  0  0  0  0  0  0
  -25.9460  -32.4990   23.6750 C   0  0  0  0  0  3  0  0  0  0  0  0
  -26.5630  -31.7140   24.8980 C   0  0  1  0  0  0  0  0  0  0  0  0
  -25.5390  -31.3830   26.0080 C   0  0  0  0  0  1  0  0  0  0  0  0
  -27.1980  -30.3840   24.4330 C   0  0  0  0  0  1  0  0  0  0  0  0
  -27.7010  -32.5460   25.5340 C   0  0  0  0  0  1  0  0  0  0  0  0
  -25.6130  -33.8790   24.0660 N   0  0  0  0  0  0  0  0  0  0  0  0
  -25.9260  -34.9690   23.3540 C   0  0  0  0  0  0  0  0  0  0  0  0
  -26.5900  -34.9200   22.3150 O   0  0  0  0  0  0  0  0  0  0  0  0
  -25.0230  -33.9900   24.8770 H   0  0  0  0  0  0  0  0  0  0  0  0
  -24.1820  -36.7630   23.0770 C   0  0  0  0  0  1  0  0  0  0  0  0
  -25.4230  -36.3310   23.8750 C   0  0  0  0  0  3  0  0  0  0  0  0
  -27.5460  -37.1940   24.7560 C   0  0  0  0  0  1  0  0  0  0  0  0
  -26.4450  -37.3980   23.8180 N   0  0  0  0  0  0  0  0  0  0  0  0
  -26.0300  -38.3070   24.0080 H   0  0  0  0  0  0  0  0  0  0  0  0
  -29.1780  -20.1020   20.1610 C   0  0  0  0  0  2  0  0  0  0  0  0
  -32.9830  -19.8810   20.6560 C   0  0  0  0  0  3  0  0  0  0  0  0
  -33.3300  -18.5470   20.8230 C   0  0  0  0  0  3  0  0  0  0  0  0
  -31.6440  -20.2200   20.4430 C   0  0  0  0  0  3  0  0  0  0  0  0
  -32.3490  -17.5580   20.6880 C   0  0  0  0  0  3  0  0  0  0  0  0
  -30.5840  -19.2780   20.3080 C   0  0  0  0  0  0  0  0  0  0  0  0
  -30.9910  -17.8050   20.3170 C   0  0  0  0  0  0  0  0  0  0  0  0
  -30.8880  -15.1760   19.9180 C   0  0  0  0  0  0  0  0  0  0  0  0
  -30.6790  -12.7810   19.1230 C   0  0  0  0  0  2  0  0  0  0  0  0
  -29.7090  -12.6500   17.9310 C   0  0  0  0  0  2  0  0  0  0  0  0
  -28.2610  -12.4520   18.4250 C   0  0  0  0  0  2  0  0  0  0  0  0
  -27.8890  -13.4410   19.5560 C   0  0  0  0  0  3  0  0  0  0  0  0
  -28.9940  -13.5340   20.6410 C   0  0  0  0  0  2  0  0  0  0  0  0
  -30.2290  -13.9400   19.9550 N   0  0  0  0  0  0  0  0  0  0  0  0
  -32.0740  -15.1070   19.5730 O   0  0  0  0  0  0  0  0  0  0  0  0
  -28.8440  -16.6520   19.8020 C   0  0  0  0  0  1  0  0  0  0  0  0
  -30.2680  -16.4800   20.0610 N   0  0  0  0  0  0  0  0  0  0  0  0
  -25.5670  -14.1020   20.4090 C   0  0  0  0  0  0  0  0  0  0  0  0
  -24.4930  -13.3630   20.8120 C   0  0  0  0  0  0  0  0  0  0  0  0
  -24.9050  -11.9970   20.7370 C   0  0  0  0  0  0  0  0  0  0  0  0
  -26.5670  -13.1910   20.1130 N   0  0  0  0  0  0  0  0  0  0  0  0
  -26.1800  -11.9160   20.3740 N   0  0  0  0  0  0  0  0  0  0  0  0
  -24.1390  -10.7610   20.9290 C   0  0  0  0  0  0  0  0  0  0  0  0
  -24.5360   -9.7870   21.8720 C   0  0  0  0  0  3  0  0  0  0  0  0
  -23.7750   -8.6130   22.0500 C   0  0  0  0  0  3  0  0  0  0  0  0
  -22.6010   -8.4060   21.2870 C   0  0  0  0  0  0  0  0  0  0  0  0
  -22.2210   -9.3680   20.3340 C   0  0  0  0  0  3  0  0  0  0  0  0
  -22.9830  -10.5340   20.1550 C   0  0  0  0  0  3  0  0  0  0  0  0
  -21.8130   -7.2840   21.3780 O   0  0  0  0  0  0  0  0  0  0  0  0
  -21.6930   -6.5830   22.5510 C   0  0  0  0  0  0  0  0  0  0  0  0
  -21.2190   -7.1890   23.7330 C   0  0  0  0  0  3  0  0  0  0  0  0
  -21.0410   -6.4150   24.8990 C   0  0  0  0  0  3  0  0  0  0  0  0
  -21.3320   -5.0380   24.8820 C   0  0  0  0  0  0  0  0  0  0  0  0
  -21.8030   -4.4320   23.7040 C   0  0  0  0  0  3  0  0  0  0  0  0
  -21.9810   -5.2020   22.5410 C   0  0  0  0  0  0  0  0  0  0  0  0
  -22.4130   -4.6090   21.4020 F   0  0  0  0  0  0  0  0  0  0  0  0
  -21.1570   -4.2940   25.9980 F   0  0  0  0  0  0  0  0  0  0  0  0
  -23.1270  -13.8870   21.1510 C   0  0  0  0  0  0  0  0  0  0  0  0
  -22.4220  -13.2220   22.0590 N   0  0  0  0  0  0  0  0  0  0  0  0
  -22.6980  -14.9240   20.6480 O   0  0  0  0  0  0  0  0  0  0  0  0
  -22.7850  -12.3810   22.4860 H   0  0  0  0  0  0  0  0  0  0  0  0
  -21.5070  -13.5550   22.3310 H   0  0  0  0  0  0  0  0  0  0  0  0
  -25.7600  -15.4710   20.2400 N   0  0  0  0  0  0  0  0  0  0  0  0
  -25.0030  -16.1340   20.3620 H   0  0  0  0  0  0  0  0  0  0  0  0
  -26.5870  -15.8880   19.8380 H   0  0  0  0  0  0  0  0  0  0  0  0
  1  2  2  0
  2 10  1  0
  3  1  1  0
  4  5  1  0
  4  6  1  0
  5  7  1  0
  6 11  1  0
  6  3  1  0
  7 52  1  0
  7  1  1  0
  7  8  1  6
 10  9  2  0
 11 13  1  0
 12 23  2  0
 13 18  1  0
 14 22  1  0
 14 24  1  0
 15 21  1  0
 15 17  1  0
 16 22  1  0
 17 16  1  0
 18 17  2  0
 19 20  1  0
 19 13  2  0
 20 15  2  0
 21 14  1  0
 22 12  1  0
 24 26  2  0
 25 24  1  0
 27 25  1  0
 28 37  2  0
 28 33  1  0
 29 25  1  0
 29 33  1  0
 30 29  1  0
 31 32  1  0
 31 30  1  0
 32 28  1  0
 33 34  2  0
 34 35  1  0
 36 35  2  0
 37 36  1  0
 38 12  1  0
 38 43  1  0
 38 39  1  0
 39 42  1  1
 39 40  1  0
 41 39  1  0
 43 46  1  0
 44 48  1  0
 44 43  1  0
 45 44  2  0
 48 47  1  0
 50 48  1  0
 50 51  1  0
 50 49  1  0
 52 57  1  0
 53 54  1  0
 55 53  2  0
 56 54  2  0
 57 58  2  0
 57 55  1  0
 58 56  1  0
 59 65  1  0
 59 68  1  0
 60 65  1  0
 61 62  1  0
 61 60  1  0
 63 62  1  0
 63 72  1  0
 63 64  1  0
 65 64  1  0
 66 59  2  0
 67 68  1  0
 68 58  1  0
 69 70  2  0
 70 89  1  0
 71 70  1  0
 71 74  1  0
 72 73  1  0
 72 69  1  0
 73 71  2  0
 74 75  1  0
 75 76  2  0
 77 80  1  0
 77 76  1  0
 78 77  2  0
 79 78  1  0
 79 74  2  0
 80 81  1  0
 81 82  1  0
 82 83  2  0
 84 83  1  0
 84 88  1  0
 85 84  2  0
 86 81  2  0
 86 85  1  0
 87 86  1  0
 89 90  1  0
 90 93  1  0
 90 92  1  0
 91 89  2  0
 94 95  1  0
 94 69  1  0
 96 94  1  0
M  ISO  4   6 101  11 101  59 100  68 100
M  END
>  <TORSDO>  (2) 
F 19

>  <SCORE>  (2) 
-13.797

>  <name>  (2) 
1

>  <ligand_id>  (2) 
1

>  <original_smiles>  (2) 
[H]C([H])=C([H])C([H])=C1C([H])([H])C([H])(Oc2c([H])c([H])c3c(c2[H])C([H])([H])N(C(=O)C([H])(N([H])C(=O)C([H])(N([H])C([H])([H])[H])C([H])([H])[H])C(C([H])([H])[H])(C([H])([H])[H])C([H])([H])[H])C([H])(C(=O)N([H])C2([H])c4c([H])c([H])c([H])c([H])c4C([H])([H])C([H])([H])C2([H])[H])C3([H])[H])C([H])([H])C([H])([H])[N+]1([H])C([H])([H])c1c([H])c([H])c([H])c([H])c1N(C(=O)N1C([H])([H])C([H])([H])C([H])([H])C([H])(n2nc(-c3c([H])c([H])c(Oc4c([H])c([H])c(F)c([H])c4F)c([H])c3[H])c(C(=O)N([H])[H])c2N([H])[H])C1([H])[H])C([H])([H])[H]

>  <smiles>  (2) 
[H]C([H])=C([H])C([H])=C1C([H])([H])C([H])(Oc2c([H])c([H])c3c(c2[H])C([H])([H])N(C(=O)C([H])(N([H])C(=O)C([H])(N([H])C([H])([H])[H])C([H])([H])[H])C(C([H])([H])[H])(C([H])([H])[H])C([H])([H])[H])C([H])(C(=O)N([H])C2([H])c4c([H])c([H])c([H])c([H])c4C([H])([H])C([H])([H])C2([H])[H])C3([H])[H])C([H])([H])C([H])([H])[N+]1([H])C([H])([H])c1c([H])c([H])c([H])c([H])c1N(C(=O)N1C([H])([H])C([H])([H])C([H])([H])C([H])(n2nc(-c3c([H])c([H])c(Oc4c([H])c([H])c(F)c([H])c4F)c([H])c3[H])c(C(=O)N([H])[H])c2N([H])[H])C1([H])[H])C([H])([H])[H]

$$$$
2:0:0
     RDKit          3D

 96105  0  0  1  0  0  0  0  0999 V2000
  -28.4890  -23.8710   20.6050 C   0  0  0  0  0  0  0  0  0  0  0  0
  -28.0460  -23.9730   21.8700 C   0  0  0  0  0  2  0  0  0  0  0  0
  -30.2640  -23.7800   18.1980 C   0  0  0  0  0  2  0  0  0  0  0  0
  -29.9230  -25.1070   18.9190 C   0  0  0  0  0  2  0  0  0  0  0  0
  -29.3990  -22.5760   18.6280 C   0  0  0  0  0  2  0  0  0  0  0  0
  -28.5490  -25.1150   19.6170 C   0  0  0  0  0  3  0  0  0  0  0  0
  -29.1820  -22.5430   20.0950 N   0  0  2  0  0  4  0  0  0  0  0  0
  -30.1150  -22.5650   20.4750 H   0  0  0  0  0  0  0  0  0  0  0  0
  -28.4140  -26.4950   20.1930 O   0  0  0  0  0  0  0  0  0  0  0  0
  -24.6460  -31.8710   23.2210 C   0  0  0  0  0  0  0  0  0  0  0  0
  -27.2630  -27.3130   20.1220 C   0  0  0  0  0  0  0  0  0  0  0  0
  -23.4370  -30.4790   21.5800 C   0  0  0  0  0  3  0  0  0  0  0  0
  -24.8860  -28.9330   20.1360 C   0  0  0  0  0  0  0  0  0  0  0  0
  -25.9760  -30.7950   21.3870 C   0  0  0  0  0  2  0  0  0  0  0  0
  -26.0550  -29.4170   20.7330 C   0  0  0  0  0  0  0  0  0  0  0  0
  -27.2390  -28.6180   20.7170 C   0  0  0  0  0  3  0  0  0  0  0  0
  -26.0630  -26.8830   19.5070 C   0  0  0  0  0  3  0  0  0  0  0  0
  -24.8940  -27.6740   19.5140 C   0  0  0  0  0  3  0  0  0  0  0  0
  -23.6470  -29.8050   20.1960 C   0  0  0  0  0  2  0  0  0  0  0  0
  -24.7060  -31.0670   22.1190 N   0  0  0  0  0  0  0  0  0  0  0  0
  -23.5650  -32.1460   23.7620 O   0  0  0  0  0  0  0  0  0  0  0  0
  -22.7800  -29.4580   22.5400 C   0  0  0  0  0  0  0  0  0  0  0  0
  -21.4530  -29.2830   22.4200 N   0  0  0  0  0  0  0  0  0  0  0  0
  -23.4630  -28.8280   23.3520 O   0  0  0  0  0  0  0  0  0  0  0  0
  -20.9640  -29.8410   21.7350 H   0  0  0  0  0  0  0  0  0  0  0  0
  -18.0770  -28.0860   22.9360 C   0  0  0  0  0  0  0  0  0  0  0  0
  -20.6390  -28.3410   23.1900 C   0  0  0  0  0  3  0  0  0  0  0  0
  -20.7340  -26.9140   22.6030 C   0  0  0  0  0  2  0  0  0  0  0  0
  -19.6240  -26.6010   21.5950 C   0  0  0  0  0  2  0  0  0  0  0  0
  -18.2470  -26.7410   22.2490 C   0  0  0  0  0  2  0  0  0  0  0  0
  -19.2000  -28.8440   23.3640 C   0  0  0  0  0  0  0  0  0  0  0  0
  -18.9850  -30.1010   23.9690 C   0  0  0  0  0  3  0  0  0  0  0  0
  -17.6820  -30.6030   24.1470 C   0  0  0  0  0  3  0  0  0  0  0  0
  -16.5750  -29.8420   23.7350 C   0  0  0  0  0  3  0  0  0  0  0  0
  -16.7730  -28.5850   23.1360 C   0  0  0  0  0  3  0  0  0  0  0  0
  -25.9300  -32.5010   23.8430 C   0  0  0  0  0  3  0  0  0  0  0  0
  -25.6160  -33.8940   24.1910 N   0  0  0  0  0  0  0  0  0  0  0  0
  -25.9280  -34.9590   23.4400 C   0  0  0  0  0  0  0  0  0  0  0  0
  -26.5810  -34.8700   22.3960 O   0  0  0  0  0  0  0  0  0  0  0  0
  -25.0350  -34.0350   25.0040 H   0  0  0  0  0  0  0  0  0  0  0  0
  -24.1790  -36.7430   23.1390 C   0  0  0  0  0  1  0  0  0  0  0  0
  -25.4400  -36.3390   23.9200 C   0  0  0  0  0  3  0  0  0  0  0  0
  -27.5860  -37.2340   24.7120 C   0  0  0  0  0  1  0  0  0  0  0  0
  -26.4620  -37.4010   23.7940 N   0  0  0  0  0  0  0  0  0  0  0  0
  -26.0520  -38.3160   23.9560 H   0  0  0  0  0  0  0  0  0  0  0  0
  -26.4580  -31.7180   25.1080 C   0  0  1  0  0  0  0  0  0  0  0  0
  -25.3720  -31.4650   26.1810 C   0  0  0  0  0  1  0  0  0  0  0  0
  -27.0420  -30.3450   24.6990 C   0  0  0  0  0  1  0  0  0  0  0  0
  -27.6110  -32.5080   25.7670 C   0  0  0  0  0  1  0  0  0  0  0  0
  -28.6840  -21.1490   20.5400 C   0  0  0  0  0  2  0  0  0  0  0  0
  -31.0460  -20.1390   20.7190 C   0  0  0  0  0  3  0  0  0  0  0  0
  -31.5670  -17.7420   20.7990 C   0  0  0  0  0  3  0  0  0  0  0  0
  -31.9770  -19.0890   20.8440 C   0  0  0  0  0  0  0  0  0  0  0  0
  -29.6690  -19.8850   20.5530 C   0  0  0  0  0  0  0  0  0  0  0  0
  -29.2650  -18.4780   20.5180 C   0  0  0  0  0  0  0  0  0  0  0  0
  -30.2130  -17.3660   20.6260 C   0  0  0  0  0  0  0  0  0  0  0  0
  -33.4460  -19.4080   21.0540 C   0  0  0  0  0  1  0  0  0  0  0  0
  -27.7810  -18.1730   20.3880 C   0  0  0  0  0  1  0  0  0  0  0  0
  -30.6060  -14.7700   20.3760 C   0  0  0  0  0  0  0  0  0  0  0  0
  -30.3870  -12.5020   19.3470 C   0  0  0  0  0  2  0  0  0  0  0  0
  -29.4560  -12.5880   18.1180 C   0  0  0  0  0  2  0  0  0  0  0  0
  -27.9870  -12.4100   18.5440 C   0  0  0  0  0  2  0  0  0  0  0  0
  -27.6100  -13.2880   19.7670 C   0  0  0  0  0  3  0  0  0  0  0  0
  -28.6660  -13.2030   20.8910 C   0  0  0  0  0  2  0  0  0  0  0  0
  -29.9620  -13.5550   20.3000 N   0  0  0  0  0  0  0  0  0  0  0  0
  -31.7900  -14.8340   20.0350 O   0  0  0  0  0  0  0  0  0  0  0  0
  -29.8520  -15.9160   20.6170 N   0  0  0  0  0  0  0  0  0  0  0  0
  -28.8750  -15.7210   20.7720 H   0  0  0  0  0  0  0  0  0  0  0  0
  -25.2150  -13.8630   20.4830 C   0  0  0  0  0  0  0  0  0  0  0  0
  -24.1550  -13.0850   20.8530 C   0  0  0  0  0  0  0  0  0  0  0  0
  -24.6250  -11.7360   20.8240 C   0  0  0  0  0  0  0  0  0  0  0  0
  -26.2670  -12.9920   20.2530 N   0  0  0  0  0  0  0  0  0  0  0  0
  -25.9170  -11.7060   20.5210 N   0  0  0  0  0  0  0  0  0  0  0  0
  -23.9040  -10.4700   21.0100 C   0  0  0  0  0  0  0  0  0  0  0  0
  -24.3240   -9.5130   21.9600 C   0  0  0  0  0  3  0  0  0  0  0  0
  -23.6020   -8.3120   22.1330 C   0  0  0  0  0  3  0  0  0  0  0  0
  -22.4460   -8.0610   21.3560 C   0  0  0  0  0  0  0  0  0  0  0  0
  -22.0470   -9.0070   20.3950 C   0  0  0  0  0  3  0  0  0  0  0  0
  -22.7690  -10.1980   20.2210 C   0  0  0  0  0  3  0  0  0  0  0  0
  -21.6970   -6.9130   21.4380 O   0  0  0  0  0  0  0  0  0  0  0  0
  -21.6100   -6.1910   22.6030 C   0  0  0  0  0  0  0  0  0  0  0  0
  -21.1280   -6.7640   23.7990 C   0  0  0  0  0  3  0  0  0  0  0  0
  -20.9920   -5.9700   24.9560 C   0  0  0  0  0  3  0  0  0  0  0  0
  -21.3250   -4.6020   24.9140 C   0  0  0  0  0  0  0  0  0  0  0  0
  -21.7990   -4.0290   23.7210 C   0  0  0  0  0  3  0  0  0  0  0  0
  -21.9380   -4.8210   22.5680 C   0  0  0  0  0  0  0  0  0  0  0  0
  -22.3750   -4.2580   21.4150 F   0  0  0  0  0  0  0  0  0  0  0  0
  -21.1850   -3.8360   26.0210 F   0  0  0  0  0  0  0  0  0  0  0  0
  -22.7530  -13.5540   21.1150 C   0  0  0  0  0  0  0  0  0  0  0  0
  -22.0230  -12.8560   21.9780 N   0  0  0  0  0  0  0  0  0  0  0  0
  -22.3140  -14.5780   20.5900 O   0  0  0  0  0  0  0  0  0  0  0  0
  -22.3910  -12.0290   22.4220 H   0  0  0  0  0  0  0  0  0  0  0  0
  -21.0830  -13.1560   22.1970 H   0  0  0  0  0  0  0  0  0  0  0  0
  -25.3670  -15.2340   20.2960 N   0  0  0  0  0  0  0  0  0  0  0  0
  -24.5790  -15.8680   20.3720 H   0  0  0  0  0  0  0  0  0  0  0  0
  -26.1760  -15.6590   19.8670 H   0  0  0  0  0  0  0  0  0  0  0  0
  1  2  2  0
  3  5  1  0
  3  4  1  0
  4  6  1  0
  5  7  1  0
  6  9  1  0
  6  1  1  0
  7  8  1  1
  7 50  1  0
  7  1  1  0
 10 21  2  0
 11  9  1  0
 11 16  1  0
 12 20  1  0
 12 22  1  0
 13 19  1  0
 13 15  1  0
 14 20  1  0
 15 14  1  0
 16 15  2  0
 17 18  1  0
 17 11  2  0
 18 13  2  0
 19 12  1  0
 20 10  1  0
 22 24  2  0
 23 22  1  0
 25 23  1  0
 26 35  2  0
 26 31  1  0
 27 23  1  0
 27 31  1  0
 28 27  1  0
 29 30  1  0
 29 28  1  0
 30 26  1  0
 31 32  2  0
 32 33  1  0
 34 33  2  0
 35 34  1  0
 36 10  1  0
 36 37  1  0
 36 46  1  0
 37 40  1  0
 38 42  1  0
 38 37  1  0
 39 38  2  0
 42 41  1  0
 44 42  1  0
 44 45  1  0
 44 43  1  0
 46 49  1  1
 46 47  1  0
 48 46  1  0
 50 54  1  0
 51 53  1  0
 52 53  2  0
 53 57  1  0
 54 51  2  0
 55 54  1  0
 55 56  2  0
 56 52  1  0
 58 55  1  0
 59 67  1  0
 60 65  1  0
 61 62  1  0
 61 60  1  0
 63 62  1  0
 63 72  1  0
 63 64  1  0
 65 59  1  0
 65 64  1  0
 66 59  2  0
 67 56  1  0
 67 68  1  0
 69 70  2  0
 70 89  1  0
 71 70  1  0
 71 74  1  0
 72 69  1  0
 72 73  1  0
 73 71  2  0
 74 75  1  0
 75 76  2  0
 77 80  1  0
 77 76  1  0
 78 77  2  0
 79 78  1  0
 79 74  2  0
 80 81  1  0
 81 82  1  0
 82 83  2  0
 84 83  1  0
 84 88  1  0
 85 84  2  0
 86 81  2  0
 86 85  1  0
 87 86  1  0
 89 90  1  0
 90 93  1  0
 90 92  1  0
 91 89  2  0
 94 95  1  0
 94 69  1  0
 96 94  1  0
M  ISO  4   6 101   9 101  59 100  67 100
M  END
>  <TORSDO>  (3) 
F 18

>  <SCORE>  (3) 
-15.086

>  <name>  (3) 
2

>  <ligand_id>  (3) 
2

>  <original_smiles>  (3) 
[H]C([H])=C1C([H])(Oc2c([H])c([H])c3c(c2[H])C([H])([H])N(C(=O)C([H])(N([H])C(=O)C([H])(N([H])C([H])([H])[H])C([H])([H])[H])C(C([H])([H])[H])(C([H])([H])[H])C([H])([H])[H])C([H])(C(=O)N([H])C2([H])c4c([H])c([H])c([H])c([H])c4C([H])([H])C([H])([H])C2([H])[H])C3([H])[H])C([H])([H])C([H])([H])C([H])([H])[N+]1([H])C([H])([H])c1c([H])c(C([H])([H])[H])c([H])c(N([H])C(=O)N2C([H])([H])C([H])([H])C([H])([H])C([H])(n3nc(-c4c([H])c([H])c(Oc5c([H])c([H])c(F)c([H])c5F)c([H])c4[H])c(C(=O)N([H])[H])c3N([H])[H])C2([H])[H])c1C([H])([H])[H]

>  <smiles>  (3) 
[H]C([H])=C1C([H])(Oc2c([H])c([H])c3c(c2[H])C([H])([H])N(C(=O)C([H])(N([H])C(=O)C([H])(N([H])C([H])([H])[H])C([H])([H])[H])C(C([H])([H])[H])(C([H])([H])[H])C([H])([H])[H])C([H])(C(=O)N([H])C2([H])c4c([H])c([H])c([H])c([H])c4C([H])([H])C([H])([H])C2([H])[H])C3([H])[H])C([H])([H])C([H])([H])C([H])([H])[N+]1([H])C([H])([H])c1c([H])c(C([H])([H])[H])c([H])c(N([H])C(=O)N2C([H])([H])C([H])([H])C([H])([H])C([H])(n3nc(-c4c([H])c([H])c(Oc5c([H])c([H])c(F)c([H])c5F)c([H])c4[H])c(C(=O)N([H])[H])c3N([H])[H])C2([H])[H])c1C([H])([H])[H]

$$$$
3:0:0
     RDKit          3D

101109  0  0  1  0  0  0  0  0999 V2000
  -29.6010  -22.6600   18.3610 C   0  0  0  0  0  2  0  0  0  0  0  0
  -29.3270  -20.3240   19.2490 C   0  0  0  0  0  0  0  0  0  0  0  0
  -28.0470  -20.4590   19.5840 N   0  0  0  0  0  4  0  0  0  0  0  0
  -30.0690  -21.3910   18.9310 N   0  0  0  0  0  0  0  0  0  0  0  0
  -27.4910  -19.6330   19.7430 H   0  0  0  0  0  0  0  0  0  0  0  0
  -27.6200  -21.3590   19.7300 H   0  0  0  0  0  0  0  0  0  0  0  0
  -31.0580  -21.2100   18.8160 H   0  0  0  0  0  0  0  0  0  0  0  0
  -31.3140  -17.5030   17.7780 C   0  0  0  0  0  3  0  0  0  0  0  0
  -30.7530  -18.7690   17.9910 C   0  0  0  0  0  3  0  0  0  0  0  0
  -31.0630  -16.4730   18.6960 C   0  0  0  0  0  3  0  0  0  0  0  0
  -29.6770  -17.9680   20.0430 C   0  0  0  0  0  3  0  0  0  0  0  0
  -29.9280  -19.0040   19.1140 C   0  0  0  0  0  0  0  0  0  0  0  0
  -30.2670  -16.6990   19.8520 C   0  0  0  0  0  0  0  0  0  0  0  0
  -30.7960  -14.5680   20.9040 C   0  0  0  0  0  0  0  0  0  0  0  0
  -30.5740  -12.3700   19.8880 C   0  0  0  0  0  2  0  0  0  0  0  0
  -29.7400  -12.5440   18.6000 C   0  0  0  0  0  2  0  0  0  0  0  0
  -28.2340  -12.4280   18.9130 C   0  0  0  0  0  2  0  0  0  0  0  0
  -27.7910  -13.3100   20.1120 C   0  0  0  0  0  3  0  0  0  0  0  0
  -28.7550  -13.1580   21.3110 C   0  0  0  0  0  2  0  0  0  0  0  0
  -30.1250  -13.3960   20.8370 N   0  0  0  0  0  0  0  0  0  0  0  0
  -32.0150  -14.6700   20.7420 O   0  0  0  0  0  0  0  0  0  0  0  0
  -30.0170  -15.6550   20.7940 N   0  0  0  0  0  0  0  0  0  0  0  0
  -29.0690  -15.5650   21.1260 H   0  0  0  0  0  0  0  0  0  0  0  0
  -25.3410  -13.9190   20.6210 C   0  0  0  0  0  0  0  0  0  0  0  0
  -24.2510  -13.1480   20.9270 C   0  0  0  0  0  0  0  0  0  0  0  0
  -24.7210  -11.8010   20.9670 C   0  0  0  0  0  0  0  0  0  0  0  0
  -26.4050  -13.0400   20.4930 N   0  0  0  0  0  0  0  0  0  0  0  0
  -26.0310  -11.7620   20.7600 N   0  0  0  0  0  0  0  0  0  0  0  0
  -23.9920  -10.5370   21.1310 C   0  0  0  0  0  0  0  0  0  0  0  0
  -24.3710   -9.5860   22.1040 C   0  0  0  0  0  3  0  0  0  0  0  0
  -23.6420   -8.3870   22.2550 C   0  0  0  0  0  3  0  0  0  0  0  0
  -22.5200   -8.1300   21.4310 C   0  0  0  0  0  0  0  0  0  0  0  0
  -22.1620   -9.0690   20.4470 C   0  0  0  0  0  3  0  0  0  0  0  0
  -22.8920  -10.2600   20.2950 C   0  0  0  0  0  3  0  0  0  0  0  0
  -21.7690   -6.9810   21.4890 O   0  0  0  0  0  0  0  0  0  0  0  0
  -21.6640   -6.2460   22.6430 C   0  0  0  0  0  0  0  0  0  0  0  0
  -21.1810   -6.8100   23.8450 C   0  0  0  0  0  3  0  0  0  0  0  0
  -21.0230   -6.0010   24.9880 C   0  0  0  0  0  3  0  0  0  0  0  0
  -21.3400   -4.6300   24.9310 C   0  0  0  0  0  0  0  0  0  0  0  0
  -21.8160   -4.0670   23.7330 C   0  0  0  0  0  3  0  0  0  0  0  0
  -21.9750   -4.8720   22.5930 C   0  0  0  0  0  0  0  0  0  0  0  0
  -22.4150   -4.3190   21.4360 F   0  0  0  0  0  0  0  0  0  0  0  0
  -21.1820   -3.8510   26.0270 F   0  0  0  0  0  0  0  0  0  0  0  0
  -22.8340  -13.6220   21.0760 C   0  0  0  0  0  0  0  0  0  0  0  0
  -22.0440  -12.9450   21.9010 N   0  0  0  0  0  0  0  0  0  0  0  0
  -22.4300  -14.6280   20.4940 O   0  0  0  0  0  0  0  0  0  0  0  0
  -22.3790  -12.1330   22.3990 H   0  0  0  0  0  0  0  0  0  0  0  0
  -21.0880  -13.2440   22.0390 H   0  0  0  0  0  0  0  0  0  0  0  0
  -25.5120  -15.2860   20.4240 N   0  0  0  0  0  0  0  0  0  0  0  0
  -24.7300  -15.9340   20.4540 H   0  0  0  0  0  0  0  0  0  0  0  0
  -26.3730  -15.7180   20.1190 H   0  0  0  0  0  0  0  0  0  0  0  0
  -30.2250  -24.5980   16.9010 C   0  0  0  0  0  1  0  0  0  0  0  0
  -31.8730  -22.7540   17.2010 C   0  0  0  0  0  1  0  0  0  0  0  0
  -30.7780  -23.5750   17.9200 C   0  0  2  0  0  0  0  0  0  0  0  0
  -31.4000  -24.3170   19.1330 C   0  0  0  0  0  2  0  0  0  0  0  0
  -30.6160  -26.1300   20.6850 C   0  0  0  0  0  0  0  0  0  0  0  0
  -30.4790  -25.3290   19.6290 N   0  0  0  0  0  0  0  0  0  0  0  0
  -31.5770  -26.0790   21.4560 O   0  0  0  0  0  0  0  0  0  0  0  0
  -29.6490  -25.5080   19.0790 H   0  0  0  0  0  0  0  0  0  0  0  0
  -29.4880  -27.1540   20.8670 C   0  0  0  0  0  2  0  0  0  0  0  0
  -28.3670  -26.7520   20.0700 O   0  0  0  0  0  0  0  0  0  0  0  0
  -24.5440  -31.8910   23.2080 C   0  0  0  0  0  0  0  0  0  0  0  0
  -27.2190  -27.5050   20.1300 C   0  0  0  0  0  0  0  0  0  0  0  0
  -23.3320  -30.4770   21.5730 C   0  0  0  0  0  3  0  0  0  0  0  0
  -24.7910  -28.9480   20.1450 C   0  0  0  0  0  0  0  0  0  0  0  0
  -25.8440  -30.8710   21.3500 C   0  0  0  0  0  2  0  0  0  0  0  0
  -25.9390  -29.4980   20.7270 C   0  0  0  0  0  0  0  0  0  0  0  0
  -27.1510  -28.7830   20.7290 C   0  0  0  0  0  3  0  0  0  0  0  0
  -26.0570  -26.9610   19.5440 C   0  0  0  0  0  3  0  0  0  0  0  0
  -24.8420  -27.6720   19.5540 C   0  0  0  0  0  3  0  0  0  0  0  0
  -23.5360  -29.7890   20.1950 C   0  0  0  0  0  2  0  0  0  0  0  0
  -24.5910  -31.0930   22.1040 N   0  0  0  0  0  0  0  0  0  0  0  0
  -23.4660  -32.1580   23.7580 O   0  0  0  0  0  0  0  0  0  0  0  0
  -22.6970  -29.4550   22.5430 C   0  0  0  0  0  0  0  0  0  0  0  0
  -21.3720  -29.2700   22.4290 N   0  0  0  0  0  0  0  0  0  0  0  0
  -23.3920  -28.8300   23.3480 O   0  0  0  0  0  0  0  0  0  0  0  0
  -20.8740  -29.8270   21.7480 H   0  0  0  0  0  0  0  0  0  0  0  0
  -18.0040  -28.0780   22.9550 C   0  0  0  0  0  0  0  0  0  0  0  0
  -20.5640  -28.3320   23.2060 C   0  0  0  0  0  3  0  0  0  0  0  0
  -20.6620  -26.9030   22.6250 C   0  0  0  0  0  2  0  0  0  0  0  0
  -19.5500  -26.5840   21.6210 C   0  0  0  0  0  2  0  0  0  0  0  0
  -18.1740  -26.7290   22.2770 C   0  0  0  0  0  2  0  0  0  0  0  0
  -19.1280  -28.8380   23.3770 C   0  0  0  0  0  0  0  0  0  0  0  0
  -18.9160  -30.1020   23.9700 C   0  0  0  0  0  3  0  0  0  0  0  0
  -17.6140  -30.6050   24.1460 C   0  0  0  0  0  3  0  0  0  0  0  0
  -16.5050  -29.8420   23.7410 C   0  0  0  0  0  3  0  0  0  0  0  0
  -16.7020  -28.5790   23.1520 C   0  0  0  0  0  3  0  0  0  0  0  0
  -25.8340  -32.5270   23.8170 C   0  0  0  0  0  3  0  0  0  0  0  0
  -25.5210  -33.9210   24.1560 N   0  0  0  0  0  0  0  0  0  0  0  0
  -25.8510  -34.9780   23.4010 C   0  0  0  0  0  0  0  0  0  0  0  0
  -26.5220  -34.8810   22.3700 O   0  0  0  0  0  0  0  0  0  0  0  0
  -24.9270  -34.0710   24.9580 H   0  0  0  0  0  0  0  0  0  0  0  0
  -24.1230  -36.7680   23.0420 C   0  0  0  0  0  1  0  0  0  0  0  0
  -25.3570  -36.3610   23.8630 C   0  0  0  0  0  3  0  0  0  0  0  0
  -27.4840  -37.2390   24.7190 C   0  0  0  0  0  1  0  0  0  0  0  0
  -26.3890  -37.4160   23.7690 N   0  0  0  0  0  0  0  0  0  0  0  0
  -25.9810  -38.3340   23.9230 H   0  0  0  0  0  0  0  0  0  0  0  0
  -26.3740  -31.7510   25.0790 C   0  0  1  0  0  0  0  0  0  0  0  0
  -25.3000  -31.4970   26.1620 C   0  0  0  0  0  1  0  0  0  0  0  0
  -26.9600  -30.3800   24.6650 C   0  0  0  0  0  1  0  0  0  0  0  0
  -27.5290  -32.5460   25.7310 C   0  0  0  0  0  1  0  0  0  0  0  0
  1  4  1  0
  2  3  2  0
  3  6  1  0
  3  5  1  0
  4  2  1  0
  7  4  1  0
  8  9  2  0
  8 10  1  0
  9 12  1  0
 10 13  2  0
 12  2  1  0
 12 11  2  0
 13 11  1  0
 13 22  1  0
 15 20  1  0
 16 17  1  0
 16 15  1  0
 18 17  1  0
 18 27  1  0
 18 19  1  0
 20 14  1  0
 20 19  1  0
 21 14  2  0
 22 14  1  0
 22 23  1  0
 24 25  2  0
 25 26  1  0
 25 44  1  0
 26 29  1  0
 27 24  1  0
 27 28  1  0
 28 26  2  0
 29 30  1  0
 30 31  2  0
 32 35  1  0
 32 31  1  0
 33 32  2  0
 34 33  1  0
 34 29  2  0
 35 36  1  0
 36 37  1  0
 37 38  2  0
 39 38  1  0
 39 43  1  0
 40 39  2  0
 41 36  2  0
 41 40  1  0
 42 41  1  0
 44 45  1  0
 45 48  1  0
 45 47  1  0
 46 44  2  0
 49 50  1  0
 49 24  1  0
 51 49  1  0
 54 52  1  6
 53 54  1  0
 54  1  1  0
 54 55  1  0
 55 57  1  0
 56 60  1  0
 56 58  2  0
 57 56  1  0
 59 57  1  0
 61 63  1  0
 61 60  1  0
 62 73  2  0
 63 68  1  0
 64 72  1  0
 64 74  1  0
 65 71  1  0
 65 67  1  0
 66 72  1  0
 67 68  2  0
 67 66  1  0
 69 70  1  0
 69 63  2  0
 70 65  2  0
 71 64  1  0
 72 62  1  0
 74 76  2  0
 75 74  1  0
 77 75  1  0
 78 87  2  0
 78 83  1  0
 79 75  1  0
 79 83  1  0
 80 79  1  0
 81 82  1  0
 81 80  1  0
 82 78  1  0
 83 84  2  0
 84 85  1  0
 86 85  2  0
 87 86  1  0
 88 62  1  0
 88 89  1  0
 88 98  1  0
 89 92  1  0
 90 94  1  0
 90 89  1  0
 91 90  2  0
 94 93  1  0
 96 94  1  0
 96 97  1  0
 96 95  1  0
 98101  1  1
 98 99  1  0
100 98  1  0
M  ISO  4  14 100  22 100  60 101  61 101
M  END
>  <TORSDO>  (4) 
F 22

>  <SCORE>  (4) 
-13.174

>  <name>  (4) 
3

>  <ligand_id>  (4) 
3

>  <original_smiles>  (4) 
[H]c1c([H])c(C(N([H])[H])=[N+]([H])C([H])([H])C(C([H])([H])[H])(C([H])([H])[H])C([H])([H])N([H])C(=O)C([H])([H])Oc2c([H])c([H])c3c(c2[H])C([H])([H])N(C(=O)C([H])(N([H])C(=O)C([H])(N([H])C([H])([H])[H])C([H])([H])[H])C(C([H])([H])[H])(C([H])([H])[H])C([H])([H])[H])C([H])(C(=O)N([H])C2([H])c4c([H])c([H])c([H])c([H])c4C([H])([H])C([H])([H])C2([H])[H])C3([H])[H])c([H])c(N([H])C(=O)N2C([H])([H])C([H])([H])C([H])([H])C([H])(n3nc(-c4c([H])c([H])c(Oc5c([H])c([H])c(F)c([H])c5F)c([H])c4[H])c(C(=O)N([H])[H])c3N([H])[H])C2([H])[H])c1[H]

>  <smiles>  (4) 
[H]c1c([H])c(C(N([H])[H])=[N+]([H])C([H])([H])C(C([H])([H])[H])(C([H])([H])[H])C([H])([H])N([H])C(=O)C([H])([H])Oc2c([H])c([H])c3c(c2[H])C([H])([H])N(C(=O)C([H])(N([H])C(=O)C([H])(N([H])C([H])([H])[H])C([H])([H])[H])C(C([H])([H])[H])(C([H])([H])[H])C([H])([H])[H])C([H])(C(=O)N([H])C2([H])c4c([H])c([H])c([H])c([H])c4C([H])([H])C([H])([H])C2([H])[H])C3([H])[H])c([H])c(N([H])C(=O)N2C([H])([H])C([H])([H])C([H])([H])C([H])(n3nc(-c4c([H])c([H])c(Oc5c([H])c([H])c(F)c([H])c5F)c([H])c4[H])c(C(=O)N([H])[H])c3N([H])[H])C2([H])[H])c1[H]

$$$$
4:0:0
     RDKit          3D

 97106  0  0  1  0  0  0  0  0999 V2000
  -29.4990  -24.1450   20.3080 C   0  0  0  0  0  0  0  0  0  0  0  0
  -30.2770  -24.5890   21.3150 C   0  0  0  0  0  2  0  0  0  0  0  0
  -28.4730  -24.1040   17.1030 C   0  0  0  0  0  2  0  0  0  0  0  0
  -29.1240  -22.7590   17.4210 C   0  0  0  0  0  2  0  0  0  0  0  0
  -28.9660  -25.2370   18.0070 C   0  0  0  0  0  2  0  0  0  0  0  0
  -28.6880  -22.1890   18.7810 C   0  0  0  0  0  2  0  0  0  0  0  0
  -28.5620  -25.1160   19.4960 C   0  0  0  0  0  3  0  0  0  0  0  0
  -29.5620  -22.6270   19.9000 N   0  0  2  0  0  4  0  0  0  0  0  0
  -30.4860  -22.4920   19.5190 H   0  0  0  0  0  0  0  0  0  0  0  0
  -28.5470  -26.5190   19.9800 O   0  0  0  0  0  0  0  0  0  0  0  0
  -24.5590  -31.6980   23.0050 C   0  0  0  0  0  0  0  0  0  0  0  0
  -27.3780  -27.2980   19.9130 C   0  0  0  0  0  0  0  0  0  0  0  0
  -23.4250  -30.2740   21.3400 C   0  0  0  0  0  3  0  0  0  0  0  0
  -24.9450  -28.8050   19.9060 C   0  0  0  0  0  0  0  0  0  0  0  0
  -25.9490  -30.7000   21.1770 C   0  0  0  0  0  2  0  0  0  0  0  0
  -26.0880  -29.3340   20.5180 C   0  0  0  0  0  0  0  0  0  0  0  0
  -27.3030  -28.5890   20.5190 C   0  0  0  0  0  3  0  0  0  0  0  0
  -26.2070  -26.8240   19.2720 C   0  0  0  0  0  3  0  0  0  0  0  0
  -25.0060  -27.5540   19.2740 C   0  0  0  0  0  3  0  0  0  0  0  0
  -23.6750  -29.6270   19.9530 C   0  0  0  0  0  2  0  0  0  0  0  0
  -24.6620  -30.9060   21.8980 N   0  0  0  0  0  0  0  0  0  0  0  0
  -23.4610  -31.9260   23.5350 O   0  0  0  0  0  0  0  0  0  0  0  0
  -22.8000  -29.2170   22.2830 C   0  0  0  0  0  0  0  0  0  0  0  0
  -21.4770  -29.0060   22.1620 N   0  0  0  0  0  0  0  0  0  0  0  0
  -23.4990  -28.5900   23.0830 O   0  0  0  0  0  0  0  0  0  0  0  0
  -20.9680  -29.5660   21.4910 H   0  0  0  0  0  0  0  0  0  0  0  0
  -18.1320  -27.7350   22.6880 C   0  0  0  0  0  0  0  0  0  0  0  0
  -20.6900  -28.0330   22.9200 C   0  0  0  0  0  3  0  0  0  0  0  0
  -20.8070  -26.6200   22.3030 C   0  0  0  0  0  2  0  0  0  0  0  0
  -19.6930  -26.3040   21.3000 C   0  0  0  0  0  2  0  0  0  0  0  0
  -18.3210  -26.4070   21.9710 C   0  0  0  0  0  2  0  0  0  0  0  0
  -19.2450  -28.5030   23.1200 C   0  0  0  0  0  0  0  0  0  0  0  0
  -19.0150  -29.7440   23.7560 C   0  0  0  0  0  3  0  0  0  0  0  0
  -17.7050  -30.2160   23.9570 C   0  0  0  0  0  3  0  0  0  0  0  0
  -16.6070  -29.4450   23.5390 C   0  0  0  0  0  3  0  0  0  0  0  0
  -16.8210  -28.2030   22.9140 C   0  0  0  0  0  3  0  0  0  0  0  0
  -25.8100  -32.3780   23.6420 C   0  0  0  0  0  3  0  0  0  0  0  0
  -25.4290  -33.7470   24.0160 N   0  0  0  0  0  0  0  0  0  0  0  0
  -25.7220  -34.8410   23.3000 C   0  0  0  0  0  0  0  0  0  0  0  0
  -26.4090  -34.8050   22.2740 O   0  0  0  0  0  0  0  0  0  0  0  0
  -24.8170  -33.8460   24.8120 H   0  0  0  0  0  0  0  0  0  0  0  0
  -23.9210  -36.5680   22.9760 C   0  0  0  0  0  1  0  0  0  0  0  0
  -25.1620  -36.1880   23.7970 C   0  0  0  0  0  3  0  0  0  0  0  0
  -27.2370  -37.1340   24.7090 C   0  0  0  0  0  1  0  0  0  0  0  0
  -26.1480  -37.2890   23.7470 N   0  0  0  0  0  0  0  0  0  0  0  0
  -25.6960  -38.1830   23.9230 H   0  0  0  0  0  0  0  0  0  0  0  0
  -26.3700  -31.5950   24.8930 C   0  0  1  0  0  0  0  0  0  0  0  0
  -25.2940  -31.2680   25.9550 C   0  0  0  0  0  1  0  0  0  0  0  0
  -27.0200  -30.2620   24.4560 C   0  0  0  0  0  1  0  0  0  0  0  0
  -27.4820  -32.4250   25.5750 C   0  0  0  0  0  1  0  0  0  0  0  0
  -29.5490  -21.6090   21.0350 C   0  0  0  0  0  2  0  0  0  0  0  0
  -31.1240  -17.9560   20.8770 C   0  0  0  0  0  3  0  0  0  0  0  0
  -28.7710  -17.7880   20.4300 C   0  0  0  0  0  3  0  0  0  0  0  0
  -31.0010  -19.3840   20.9530 C   0  0  0  0  0  0  0  0  0  0  0  0
  -28.6320  -19.2020   20.4880 C   0  0  0  0  0  0  0  0  0  0  0  0
  -29.7450  -20.0510   20.7700 C   0  0  0  0  0  0  0  0  0  0  0  0
  -30.0010  -17.1210   20.6390 C   0  0  0  0  0  0  0  0  0  0  0  0
  -32.2490  -20.1830   21.3000 C   0  0  0  0  0  1  0  0  0  0  0  0
  -27.2280  -19.7660   20.2970 C   0  0  0  0  0  1  0  0  0  0  0  0
  -30.7490  -14.6640   20.1220 C   0  0  0  0  0  0  0  0  0  0  0  0
  -30.4460  -12.4920   18.9450 C   0  0  0  0  0  2  0  0  0  0  0  0
  -29.4500  -12.7110   17.7850 C   0  0  0  0  0  2  0  0  0  0  0  0
  -27.9860  -12.5890   18.2650 C   0  0  0  0  0  2  0  0  0  0  0  0
  -27.7150  -13.3820   19.5720 C   0  0  0  0  0  3  0  0  0  0  0  0
  -28.8160  -13.1150   20.6230 C   0  0  0  0  0  2  0  0  0  0  0  0
  -30.1120  -13.4560   20.0100 N   0  0  0  0  0  0  0  0  0  0  0  0
  -31.8800  -14.8510   19.6650 O   0  0  0  0  0  0  0  0  0  0  0  0
  -29.9660  -15.6610   20.6340 N   0  0  0  0  0  0  0  0  0  0  0  0
  -29.0920  -15.2830   20.9600 H   0  0  0  0  0  0  0  0  0  0  0  0
  -25.3790  -14.0290   20.4290 C   0  0  0  0  0  0  0  0  0  0  0  0
  -24.3000  -13.2770   20.8080 C   0  0  0  0  0  0  0  0  0  0  0  0
  -24.7060  -11.9140   20.6810 C   0  0  0  0  0  0  0  0  0  0  0  0
  -26.3750  -13.1240   20.0970 N   0  0  0  0  0  0  0  0  0  0  0  0
  -25.9770  -11.8430   20.3070 N   0  0  0  0  0  0  0  0  0  0  0  0
  -23.9390  -10.6700   20.8350 C   0  0  0  0  0  0  0  0  0  0  0  0
  -24.3500   -9.6570   21.7290 C   0  0  0  0  0  3  0  0  0  0  0  0
  -23.5880   -8.4790   21.8760 C   0  0  0  0  0  3  0  0  0  0  0  0
  -22.4020   -8.3030   21.1270 C   0  0  0  0  0  0  0  0  0  0  0  0
  -22.0070   -9.3040   20.2220 C   0  0  0  0  0  3  0  0  0  0  0  0
  -22.7700  -10.4750   20.0740 C   0  0  0  0  0  3  0  0  0  0  0  0
  -21.6160   -7.1770   21.1810 O   0  0  0  0  0  0  0  0  0  0  0  0
  -21.5230   -6.4180   22.3200 C   0  0  0  0  0  0  0  0  0  0  0  0
  -21.0830   -6.9640   23.5450 C   0  0  0  0  0  3  0  0  0  0  0  0
  -20.9320   -6.1330   24.6740 C   0  0  0  0  0  3  0  0  0  0  0  0
  -21.2140   -4.7570   24.5790 C   0  0  0  0  0  0  0  0  0  0  0  0
  -21.6520   -4.2110   23.3590 C   0  0  0  0  0  3  0  0  0  0  0  0
  -21.8020   -5.0390   22.2310 C   0  0  0  0  0  0  0  0  0  0  0  0
  -22.2000   -4.5040   21.0530 F   0  0  0  0  0  0  0  0  0  0  0  0
  -21.0650   -3.9580   25.6600 F   0  0  0  0  0  0  0  0  0  0  0  0
  -22.9350  -13.7900   21.1700 C   0  0  0  0  0  0  0  0  0  0  0  0
  -22.2250  -13.0870   22.0440 N   0  0  0  0  0  0  0  0  0  0  0  0
  -22.5090  -14.8500   20.7140 O   0  0  0  0  0  0  0  0  0  0  0  0
  -22.5800  -12.2300   22.4400 H   0  0  0  0  0  0  0  0  0  0  0  0
  -21.3110  -13.4150   22.3230 H   0  0  0  0  0  0  0  0  0  0  0  0
  -25.5900  -15.4000   20.3130 N   0  0  0  0  0  0  0  0  0  0  0  0
  -24.8570  -16.0780   20.4850 H   0  0  0  0  0  0  0  0  0  0  0  0
  -26.4070  -15.8060   19.8770 H   0  0  0  0  0  0  0  0  0  0  0  0
  1  2  2  0
  3  4  1  0
  3  5  1  0
  4  6  1  0
  5  7  1  0
  6  8  1  0
  7 10  1  0
  7  1  1  0
  8  1  1  0
  8 51  1  0
  8  9  1  6
 11 22  2  0
 12 10  1  0
 12 17  1  0
 13 21  1  0
 13 23  1  0
 14 20  1  0
 14 16  1  0
 15 21  1  0
 16 17  2  0
 16 15  1  0
 18 19  1  0
 18 12  2  0
 19 14  2  0
 20 13  1  0
 21 11  1  0
 23 25  2  0
 24 23  1  0
 26 24  1  0
 27 36  2  0
 27 32  1  0
 28 24  1  0
 28 32  1  0
 29 28  1  0
 30 31  1  0
 30 29  1  0
 31 27  1  0
 32 33  2  0
 33 34  1  0
 35 34  2  0
 36 35  1  0
 37 11  1  0
 37 38  1  0
 37 47  1  0
 38 41  1  0
 39 43  1  0
 39 38  1  0
 40 39  2  0
 43 42  1  0
 45 43  1  0
 45 46  1  0
 45 44  1  0
 47 50  1  1
 47 48  1  0
 49 47  1  0
 52 54  1  0
 53 55  2  0
 53 57  1  0
 54 58  1  0
 55 56  1  0
 56 54  2  0
 56 51  1  0
 57 52  2  0
 59 55  1  0
 60 68  1  0
 61 66  1  0
 62 63  1  0
 62 61  1  0
 64 63  1  0
 64 73  1  0
 64 65  1  0
 66 60  1  0
 66 65  1  0
 67 60  2  0
 68 57  1  0
 68 69  1  0
 70 71  2  0
 71 90  1  0
 72 71  1  0
 72 75  1  0
 73 74  1  0
 73 70  1  0
 74 72  2  0
 75 76  1  0
 76 77  2  0
 78 81  1  0
 78 77  1  0
 79 78  2  0
 80 79  1  0
 80 75  2  0
 81 82  1  0
 82 83  1  0
 83 84  2  0
 85 84  1  0
 85 89  1  0
 86 85  2  0
 87 82  2  0
 87 86  1  0
 88 87  1  0
 90 91  1  0
 91 94  1  0
 91 93  1  0
 92 90  2  0
 95 70  1  0
 95 96  1  0
 97 95  1  0
M  ISO  4   7 101  10 101  60 100  68 100
M  END
>  <TORSDO>  (5) 
F 18

>  <SCORE>  (5) 
-14.058

>  <name>  (5) 
4

>  <ligand_id>  (5) 
4

>  <original_smiles>  (5) 
[H]C([H])=C1C([H])(Oc2c([H])c([H])c3c(c2[H])C([H])([H])N(C(=O)C([H])(N([H])C(=O)C([H])(N([H])C([H])([H])[H])C([H])([H])[H])C(C([H])([H])[H])(C([H])([H])[H])C([H])([H])[H])C([H])(C(=O)N([H])C2([H])c4c([H])c([H])c([H])c([H])c4C([H])([H])C([H])([H])C2([H])[H])C3([H])[H])C([H])([H])C([H])([H])C([H])([H])C([H])([H])[N+]1([H])C([H])([H])c1c(C([H])([H])[H])c([H])c(N([H])C(=O)N2C([H])([H])C([H])([H])C([H])([H])C([H])(n3nc(-c4c([H])c([H])c(Oc5c([H])c([H])c(F)c([H])c5F)c([H])c4[H])c(C(=O)N([H])[H])c3N([H])[H])C2([H])[H])c([H])c1C([H])([H])[H]

>  <smiles>  (5) 
[H]C([H])=C1C([H])(Oc2c([H])c([H])c3c(c2[H])C([H])([H])N(C(=O)C([H])(N([H])C(=O)C([H])(N([H])C([H])([H])[H])C([H])([H])[H])C(C([H])([H])[H])(C([H])([H])[H])C([H])([H])[H])C([H])(C(=O)N([H])C2([H])c4c([H])c([H])c([H])c([H])c4C([H])([H])C([H])([H])C2([H])[H])C3([H])[H])C([H])([H])C([H])([H])C([H])([H])C([H])([H])[N+]1([H])C([H])([H])c1c(C([H])([H])[H])c([H])c(N([H])C(=O)N2C([H])([H])C([H])([H])C([H])([H])C([H])(n3nc(-c4c([H])c([H])c(Oc5c([H])c([H])c(F)c([H])c5F)c([H])c4[H])c(C(=O)N([H])[H])c3N([H])[H])C2([H])[H])c([H])c1C([H])([H])[H]

$$$$
5:0:0
     RDKit          3D

 98106  0  0  1  0  0  0  0  0999 V2000
  -29.7200  -20.3920   21.3830 C   0  0  0  0  0  0  0  0  0  0  0  0
  -29.9550  -21.4750   20.6350 N   0  0  0  0  0  0  0  0  0  0  0  0
  -28.7900  -20.3240   22.1880 O   0  0  0  0  0  0  0  0  0  0  0  0
  -30.7830  -21.4630   20.0570 H   0  0  0  0  0  0  0  0  0  0  0  0
  -32.4060  -17.1080   20.4940 C   0  0  0  0  0  3  0  0  0  0  0  0
  -32.9110  -18.3950   20.7340 C   0  0  0  0  0  3  0  0  0  0  0  0
  -30.6380  -19.2340   21.1100 C   0  0  0  0  0  0  0  0  0  0  0  0
  -31.0160  -16.8750   20.5620 C   0  0  0  0  0  0  0  0  0  0  0  0
  -32.0370  -19.4520   21.0350 C   0  0  0  0  0  0  0  0  0  0  0  0
  -30.1300  -17.9240   20.8930 C   0  0  0  0  0  0  0  0  0  0  0  0
  -32.5640  -20.6830   21.2400 F   0  0  0  0  0  0  0  0  0  0  0  0
  -28.4290  -17.5720   20.9520 Cl  0  0  0  0  0  0  0  0  0  0  0  0
  -30.9160  -14.6910   19.4340 C   0  0  0  0  0  0  0  0  0  0  0  0
  -30.5290  -12.4490   18.4780 C   0  0  0  0  0  2  0  0  0  0  0  0
  -29.4520  -12.4800   17.3790 C   0  0  0  0  0  2  0  0  0  0  0  0
  -28.0440  -12.3410   17.9910 C   0  0  0  0  0  2  0  0  0  0  0  0
  -27.8090  -13.3210   19.1690 C   0  0  0  0  0  3  0  0  0  0  0  0
  -28.9800  -13.2500   20.1730 C   0  0  0  0  0  2  0  0  0  0  0  0
  -30.2320  -13.5190   19.4400 N   0  0  0  0  0  0  0  0  0  0  0  0
  -31.8560  -14.9240   18.6670 O   0  0  0  0  0  0  0  0  0  0  0  0
  -30.4930  -15.5800   20.3380 N   0  0  0  0  0  0  0  0  0  0  0  0
  -29.6180  -15.3620   20.7920 H   0  0  0  0  0  0  0  0  0  0  0  0
  -25.5620  -13.9730   20.2460 C   0  0  0  0  0  0  0  0  0  0  0  0
  -24.5280  -13.2170   20.7280 C   0  0  0  0  0  0  0  0  0  0  0  0
  -24.9240  -11.8540   20.5640 C   0  0  0  0  0  0  0  0  0  0  0  0
  -26.5270  -13.0720   19.8240 N   0  0  0  0  0  0  0  0  0  0  0  0
  -26.1530  -11.7890   20.0680 N   0  0  0  0  0  0  0  0  0  0  0  0
  -24.1850  -10.6070   20.7960 C   0  0  0  0  0  0  0  0  0  0  0  0
  -24.5510   -9.7090   21.8220 C   0  0  0  0  0  3  0  0  0  0  0  0
  -23.8120   -8.5250   22.0350 C   0  0  0  0  0  3  0  0  0  0  0  0
  -22.6930   -8.2320   21.2220 C   0  0  0  0  0  0  0  0  0  0  0  0
  -22.3450   -9.1190   20.1870 C   0  0  0  0  0  3  0  0  0  0  0  0
  -23.0850  -10.2940   19.9730 C   0  0  0  0  0  3  0  0  0  0  0  0
  -21.9310   -7.0950   21.3400 O   0  0  0  0  0  0  0  0  0  0  0  0
  -21.6010   -6.5730   22.5650 C   0  0  0  0  0  0  0  0  0  0  0  0
  -20.8600   -7.3100   23.5140 C   0  0  0  0  0  3  0  0  0  0  0  0
  -20.4820   -6.7110   24.7320 C   0  0  0  0  0  3  0  0  0  0  0  0
  -20.8370   -5.3750   25.0000 C   0  0  0  0  0  0  0  0  0  0  0  0
  -21.5710   -4.6390   24.0540 C   0  0  0  0  0  3  0  0  0  0  0  0
  -21.9490   -5.2340   22.8380 C   0  0  0  0  0  0  0  0  0  0  0  0
  -22.6380   -4.5130   21.9210 F   0  0  0  0  0  0  0  0  0  0  0  0
  -20.4690   -4.7970   26.1670 F   0  0  0  0  0  0  0  0  0  0  0  0
  -23.2040  -13.7230   21.2270 C   0  0  0  0  0  0  0  0  0  0  0  0
  -22.6030  -13.0260   22.1850 N   0  0  0  0  0  0  0  0  0  0  0  0
  -22.7190  -14.7700   20.8020 O   0  0  0  0  0  0  0  0  0  0  0  0
  -23.0120  -12.1770   22.5470 H   0  0  0  0  0  0  0  0  0  0  0  0
  -21.7230  -13.3480   22.5620 H   0  0  0  0  0  0  0  0  0  0  0  0
  -25.7550  -15.3440   20.1160 N   0  0  0  0  0  0  0  0  0  0  0  0
  -25.0500  -16.0200   20.3900 H   0  0  0  0  0  0  0  0  0  0  0  0
  -26.5930  -15.7760   19.7460 H   0  0  0  0  0  0  0  0  0  0  0  0
  -29.1490  -22.6920   20.6060 C   0  0  0  0  0  2  0  0  0  0  0  0
  -29.4570  -23.6790   21.7520 C   0  0  0  0  0  0  0  0  0  0  0  0
  -29.3920  -25.9430   22.6950 C   0  0  0  0  0  1  0  0  0  0  0  0
  -29.0280  -24.9670   21.6550 N   0  0  0  0  0  0  0  0  0  0  0  0
  -30.1020  -23.2660   22.7260 O   0  0  0  0  0  0  0  0  0  0  0  0
  -28.3320  -25.4400   20.5260 C   0  0  0  0  0  3  0  0  0  0  0  0
  -28.2480  -26.7220   20.1330 C   0  0  0  0  0  3  0  0  0  0  0  0
  -27.5280  -27.0660   19.0260 O   0  0  0  0  0  0  0  0  0  0  0  0
  -24.2550  -31.8710   23.1120 C   0  0  0  0  0  0  0  0  0  0  0  0
  -26.4110  -27.8210   19.2600 C   0  0  0  0  0  0  0  0  0  0  0  0
  -22.8310  -30.7090   21.4530 C   0  0  0  0  0  3  0  0  0  0  0  0
  -24.0730  -29.3250   19.7070 C   0  0  0  0  0  0  0  0  0  0  0  0
  -25.3250  -31.0470   21.0240 C   0  0  0  0  0  2  0  0  0  0  0  0
  -25.2970  -29.7620   20.2260 C   0  0  0  0  0  0  0  0  0  0  0  0
  -26.4700  -29.0160   20.0080 C   0  0  0  0  0  3  0  0  0  0  0  0
  -25.1780  -27.3900   18.7350 C   0  0  0  0  0  3  0  0  0  0  0  0
  -24.0040  -28.1360   18.9590 C   0  0  0  0  0  3  0  0  0  0  0  0
  -22.8670  -30.1920   19.9880 C   0  0  0  0  0  2  0  0  0  0  0  0
  -24.1620  -31.2150   21.9210 N   0  0  0  0  0  0  0  0  0  0  0  0
  -23.2490  -32.0970   23.7980 O   0  0  0  0  0  0  0  0  0  0  0  0
  -22.2500  -29.5930   22.3510 C   0  0  0  0  0  0  0  0  0  0  0  0
  -20.9240  -29.4040   22.2820 N   0  0  0  0  0  0  0  0  0  0  0  0
  -22.9880  -28.9050   23.0610 O   0  0  0  0  0  0  0  0  0  0  0  0
  -20.3910  -30.0130   21.6790 H   0  0  0  0  0  0  0  0  0  0  0  0
  -17.6100  -28.0480   22.7600 C   0  0  0  0  0  0  0  0  0  0  0  0
  -20.1610  -28.3870   23.0050 C   0  0  0  0  0  3  0  0  0  0  0  0
  -20.3060  -27.0000   22.3340 C   0  0  0  0  0  2  0  0  0  0  0  0
  -19.1960  -26.6990   21.3210 C   0  0  0  0  0  2  0  0  0  0  0  0
  -17.8250  -26.7510   21.9980 C   0  0  0  0  0  2  0  0  0  0  0  0
  -18.7070  -28.8240   23.2190 C   0  0  0  0  0  0  0  0  0  0  0  0
  -18.4520  -30.0410   23.8890 C   0  0  0  0  0  3  0  0  0  0  0  0
  -17.1330  -30.4780   24.1090 C   0  0  0  0  0  3  0  0  0  0  0  0
  -16.0510  -29.6950   23.6700 C   0  0  0  0  0  3  0  0  0  0  0  0
  -16.2900  -28.4840   22.9990 C   0  0  0  0  0  3  0  0  0  0  0  0
  -25.6250  -32.3880   23.6580 C   0  0  0  0  0  3  0  0  0  0  0  0
  -26.1960  -31.5070   24.8360 C   0  0  1  0  0  0  0  0  0  0  0  0
  -25.1710  -31.2280   25.9590 C   0  0  0  0  0  1  0  0  0  0  0  0
  -26.6930  -30.1410   24.3030 C   0  0  0  0  0  1  0  0  0  0  0  0
  -27.4220  -32.2060   25.4680 C   0  0  0  0  0  1  0  0  0  0  0  0
  -25.4310  -33.7770   24.0930 N   0  0  0  0  0  0  0  0  0  0  0  0
  -25.7990  -34.8520   23.3820 C   0  0  0  0  0  0  0  0  0  0  0  0
  -26.4100  -34.7720   22.3130 O   0  0  0  0  0  0  0  0  0  0  0  0
  -24.8960  -33.9150   24.9360 H   0  0  0  0  0  0  0  0  0  0  0  0
  -24.1890  -36.7750   23.2180 C   0  0  0  0  0  1  0  0  0  0  0  0
  -25.4300  -36.2360   23.9470 C   0  0  0  0  0  3  0  0  0  0  0  0
  -27.6480  -36.9240   24.7440 C   0  0  0  0  0  1  0  0  0  0  0  0
  -26.5280  -37.2210   23.8550 N   0  0  0  0  0  0  0  0  0  0  0  0
  -26.1940  -38.1570   24.0690 H   0  0  0  0  0  0  0  0  0  0  0  0
  1  3  2  0
  2  1  1  0
  4  2  1  0
  5  8  2  0
  5  6  1  0
  6  9  2  0
  7  1  1  0
  8 10  1  0
  9  7  1  0
  9 11  1  0
 10 12  1  0
 10  7  2  0
 13 19  1  0
 13 21  1  0
 14 19  1  0
 15 16  1  0
 15 14  1  0
 17 16  1  0
 17 26  1  0
 17 18  1  0
 19 18  1  0
 20 13  2  0
 21  8  1  0
 21 22  1  0
 23 24  2  0
 24 43  1  0
 25 24  1  0
 25 28  1  0
 26 27  1  0
 26 23  1  0
 27 25  2  0
 28 29  1  0
 29 30  2  0
 31 34  1  0
 31 30  1  0
 32 31  2  0
 33 32  1  0
 33 28  2  0
 34 35  1  0
 35 40  2  0
 35 36  1  0
 36 37  2  0
 37 38  1  0
 38 42  1  0
 39 38  2  0
 40 39  1  0
 41 40  1  0
 43 44  1  0
 44 46  1  0
 44 47  1  0
 45 43  2  0
 48 23  1  0
 48 49  1  0
 50 48  1  0
 51  2  1  0
 51 52  1  0
 52 55  2  0
 54 52  1  0
 54 53  1  0
 56 54  1  0
 57 56  2  0
 58 60  1  0
 58 57  1  0
 59 70  2  0
 60 65  1  0
 61 69  1  0
 61 71  1  0
 62 68  1  0
 62 64  1  0
 63 69  1  0
 64 63  1  0
 65 64  2  0
 66 67  1  0
 66 60  2  0
 67 62  2  0
 68 61  1  0
 69 59  1  0
 71 73  2  0
 72 71  1  0
 74 72  1  0
 75 84  2  0
 75 80  1  0
 76 72  1  0
 76 80  1  0
 77 76  1  0
 78 79  1  0
 78 77  1  0
 79 75  1  0
 80 81  2  0
 81 82  1  0
 83 82  2  0
 84 83  1  0
 85 59  1  0
 85 90  1  0
 85 86  1  0
 86 89  1  1
 86 87  1  0
 88 86  1  0
 90 93  1  0
 91 95  1  0
 91 90  1  0
 92 91  2  0
 95 94  1  0
 97 95  1  0
 97 98  1  0
 97 96  1  0
M  ISO  4  13 100  21 100  57 101  58 101
M  END
>  <TORSDO>  (6) 
F 20

>  <SCORE>  (6) 
-10.723

>  <name>  (6) 
5

>  <ligand_id>  (6) 
5

>  <original_smiles>  (6) 
[H]C(Oc1c([H])c([H])c2c(c1[H])C([H])([H])N(C(=O)C([H])(N([H])C(=O)C([H])(N([H])C([H])([H])[H])C([H])([H])[H])C(C([H])([H])[H])(C([H])([H])[H])C([H])([H])[H])C([H])(C(=O)N([H])C1([H])c3c([H])c([H])c([H])c([H])c3C([H])([H])C([H])([H])C1([H])[H])C2([H])[H])=C([H])N(C(=O)C([H])([H])N([H])C(=O)c1c(F)c([H])c([H])c(N([H])C(=O)N2C([H])([H])C([H])([H])C([H])([H])C([H])(n3nc(-c4c([H])c([H])c(Oc5c([H])c([H])c(F)c([H])c5F)c([H])c4[H])c(C(=O)N([H])[H])c3N([H])[H])C2([H])[H])c1Cl)C([H])([H])[H]

>  <smiles>  (6) 
[H]C(Oc1c([H])c([H])c2c(c1[H])C([H])([H])N(C(=O)C([H])(N([H])C(=O)C([H])(N([H])C([H])([H])[H])C([H])([H])[H])C(C([H])([H])[H])(C([H])([H])[H])C([H])([H])[H])C([H])(C(=O)N([H])C1([H])c3c([H])c([H])c([H])c([H])c3C([H])([H])C([H])([H])C1([H])[H])C2([H])[H])=C([H])N(C(=O)C([H])([H])N([H])C(=O)c1c(F)c([H])c([H])c(N([H])C(=O)N2C([H])([H])C([H])([H])C([H])([H])C([H])(n3nc(-c4c([H])c([H])c(Oc5c([H])c([H])c(F)c([H])c5F)c([H])c4[H])c(C(=O)N([H])[H])c3N([H])[H])C2([H])[H])c1Cl)C([H])([H])[H]

$$$$
6:0:0
     RDKit          3D

 97106  0  0  1  0  0  0  0  0999 V2000
  -30.0720  -22.2430   21.3590 C   0  0  0  0  0  2  0  0  0  0  0  0
  -29.0260  -24.3040   20.5100 C   0  0  0  0  0  0  0  0  0  0  0  0
  -26.3540  -23.1080   20.5730 C   0  0  0  0  0  3  0  0  0  0  0  0
  -26.6410  -24.4640   19.9340 C   0  0  0  0  0  2  0  0  0  0  0  0
  -27.5480  -22.4400   21.2840 C   0  0  0  0  0  3  0  0  0  0  0  0
  -27.8110  -25.2540   20.5970 C   0  0  0  0  0  3  0  0  0  0  0  0
  -28.8750  -23.0250   20.9660 N   0  0  0  0  0  0  0  0  0  0  0  0
  -30.1060  -24.7370   20.0790 O   0  0  0  0  0  0  0  0  0  0  0  0
  -28.1550  -26.6270   20.1350 O   0  0  0  0  0  0  0  0  0  0  0  0
  -24.5770  -32.0550   23.2820 C   0  0  0  0  0  0  0  0  0  0  0  0
  -27.1100  -27.5370   20.1270 C   0  0  0  0  0  0  0  0  0  0  0  0
  -23.3600  -30.6550   21.6700 C   0  0  0  0  0  3  0  0  0  0  0  0
  -24.7820  -29.1400   20.2140 C   0  0  0  0  0  0  0  0  0  0  0  0
  -25.9030  -30.9630   21.4650 C   0  0  0  0  0  2  0  0  0  0  0  0
  -25.9630  -29.5970   20.8120 C   0  0  0  0  0  0  0  0  0  0  0  0
  -27.1330  -28.7860   20.8040 C   0  0  0  0  0  3  0  0  0  0  0  0
  -25.9540  -27.2190   19.3960 C   0  0  0  0  0  3  0  0  0  0  0  0
  -24.7680  -27.9410   19.5130 C   0  0  0  0  0  3  0  0  0  0  0  0
  -23.5590  -30.0170   20.2800 C   0  0  0  0  0  2  0  0  0  0  0  0
  -24.6340  -31.2390   22.1940 N   0  0  0  0  0  0  0  0  0  0  0  0
  -23.4970  -32.3290   23.8290 O   0  0  0  0  0  0  0  0  0  0  0  0
  -22.7280  -29.6120   22.6240 C   0  0  0  0  0  0  0  0  0  0  0  0
  -21.4070  -29.4020   22.4930 N   0  0  0  0  0  0  0  0  0  0  0  0
  -23.4210  -28.9990   23.4400 O   0  0  0  0  0  0  0  0  0  0  0  0
  -20.9020  -29.9630   21.8200 H   0  0  0  0  0  0  0  0  0  0  0  0
  -18.0540  -28.1550   23.0030 C   0  0  0  0  0  0  0  0  0  0  0  0
  -20.6050  -28.4590   23.2750 C   0  0  0  0  0  3  0  0  0  0  0  0
  -20.7330  -27.0240   22.7170 C   0  0  0  0  0  2  0  0  0  0  0  0
  -19.6390  -26.6690   21.7050 C   0  0  0  0  0  2  0  0  0  0  0  0
  -18.2550  -26.7990   22.3470 C   0  0  0  0  0  2  0  0  0  0  0  0
  -19.1580  -28.9390   23.4260 C   0  0  0  0  0  0  0  0  0  0  0  0
  -18.9210  -30.2070   24.0020 C   0  0  0  0  0  3  0  0  0  0  0  0
  -17.6090  -30.6920   24.1570 C   0  0  0  0  0  3  0  0  0  0  0  0
  -16.5170  -29.9060   23.7500 C   0  0  0  0  0  3  0  0  0  0  0  0
  -16.7410  -28.6380   23.1820 C   0  0  0  0  0  3  0  0  0  0  0  0
  -25.8670  -32.6930   23.8770 C   0  0  0  0  0  3  0  0  0  0  0  0
  -25.5610  -34.0990   24.1760 N   0  0  0  0  0  0  0  0  0  0  0  0
  -25.8560  -35.1320   23.3750 C   0  0  0  0  0  0  0  0  0  0  0  0
  -26.4900  -35.0050   22.3240 O   0  0  0  0  0  0  0  0  0  0  0  0
  -24.9990  -34.2760   24.9940 H   0  0  0  0  0  0  0  0  0  0  0  0
  -24.0810  -36.8930   23.0450 C   0  0  0  0  0  1  0  0  0  0  0  0
  -25.3640  -36.5290   23.8060 C   0  0  0  0  0  3  0  0  0  0  0  0
  -27.5210  -37.4760   24.5080 C   0  0  0  0  0  1  0  0  0  0  0  0
  -26.3730  -37.5930   23.6150 N   0  0  0  0  0  0  0  0  0  0  0  0
  -25.9530  -38.5080   23.7520 H   0  0  0  0  0  0  0  0  0  0  0  0
  -26.3910  -31.9530   25.1670 C   0  0  1  0  0  0  0  0  0  0  0  0
  -25.3000  -31.7030   26.2340 C   0  0  0  0  0  1  0  0  0  0  0  0
  -27.0060  -30.5810   24.7980 C   0  0  0  0  0  1  0  0  0  0  0  0
  -27.5070  -32.7860   25.8360 C   0  0  0  0  0  1  0  0  0  0  0  0
  -31.2980  -20.0610   21.3180 C   0  0  0  0  0  3  0  0  0  0  0  0
  -31.5530  -18.7730   20.8360 C   0  0  0  0  0  3  0  0  0  0  0  0
  -29.6350  -20.4140   19.5980 C   0  0  0  0  0  3  0  0  0  0  0  0
  -30.3100  -20.8800   20.7430 C   0  0  0  0  0  0  0  0  0  0  0  0
  -30.8380  -18.2960   19.7060 C   0  0  0  0  0  0  0  0  0  0  0  0
  -29.8400  -19.1220   19.0970 C   0  0  0  0  0  0  0  0  0  0  0  0
  -28.8730  -18.7760   17.9440 C   0  0  0  0  0  2  0  0  0  0  0  0
  -29.9920  -18.8530   15.6570 C   0  0  0  0  0  2  0  0  0  0  0  0
  -29.3870  -18.1640   16.6500 C   0  0  0  0  0  3  0  0  0  0  0  0
  -31.1650  -16.9010   19.2230 C   0  0  0  0  0  2  0  0  0  0  0  0
  -31.0390  -14.7260   20.2800 C   0  0  0  0  0  0  0  0  0  0  0  0
  -30.5800  -12.6370   19.2000 C   0  0  0  0  0  2  0  0  0  0  0  0
  -29.5880  -12.7860   18.0290 C   0  0  0  0  0  2  0  0  0  0  0  0
  -28.1230  -12.7480   18.4980 C   0  0  0  0  0  2  0  0  0  0  0  0
  -27.8220  -13.5880   19.7700 C   0  0  0  0  0  3  0  0  0  0  0  0
  -28.9310  -13.4660   20.8450 C   0  0  0  0  0  2  0  0  0  0  0  0
  -30.2350  -13.6480   20.2010 N   0  0  0  0  0  0  0  0  0  0  0  0
  -32.2610  -14.6620   20.1520 O   0  0  0  0  0  0  0  0  0  0  0  0
  -30.4440  -15.8830   19.9920 N   0  0  0  0  0  0  0  0  0  0  0  0
  -29.4300  -15.9310   19.9310 H   0  0  0  0  0  0  0  0  0  0  0  0
  -25.4120  -14.1680   20.4980 C   0  0  0  0  0  0  0  0  0  0  0  0
  -24.3560  -13.3810   20.8460 C   0  0  0  0  0  0  0  0  0  0  0  0
  -24.8230  -12.0270   20.8110 C   0  0  0  0  0  0  0  0  0  0  0  0
  -26.4690  -13.3020   20.2720 N   0  0  0  0  0  0  0  0  0  0  0  0
  -26.1160  -12.0080   20.5180 N   0  0  0  0  0  0  0  0  0  0  0  0
  -24.1000  -10.7510   20.9890 C   0  0  0  0  0  0  0  0  0  0  0  0
  -24.5040   -9.8050   21.9580 C   0  0  0  0  0  3  0  0  0  0  0  0
  -23.7720   -8.6070   22.1270 C   0  0  0  0  0  3  0  0  0  0  0  0
  -22.6260   -8.3540   21.3380 C   0  0  0  0  0  0  0  0  0  0  0  0
  -22.2550   -9.2860   20.3570 C   0  0  0  0  0  3  0  0  0  0  0  0
  -22.9770  -10.4740   20.1860 C   0  0  0  0  0  3  0  0  0  0  0  0
  -21.8800   -7.2080   21.4050 O   0  0  0  0  0  0  0  0  0  0  0  0
  -21.7430   -6.5130   22.5850 C   0  0  0  0  0  0  0  0  0  0  0  0
  -21.2300   -7.1180   23.7520 C   0  0  0  0  0  3  0  0  0  0  0  0
  -21.0700   -6.3480   24.9250 C   0  0  0  0  0  3  0  0  0  0  0  0
  -21.3910   -4.9750   24.9180 C   0  0  0  0  0  0  0  0  0  0  0  0
  -21.8820   -4.3750   23.7460 C   0  0  0  0  0  3  0  0  0  0  0  0
  -22.0550   -5.1390   22.5870 C   0  0  0  0  0  0  0  0  0  0  0  0
  -22.5190   -4.5580   21.4500 F   0  0  0  0  0  0  0  0  0  0  0  0
  -21.2220   -4.2290   26.0330 F   0  0  0  0  0  0  0  0  0  0  0  0
  -22.9440  -13.8320   21.1020 C   0  0  0  0  0  0  0  0  0  0  0  0
  -22.1930  -13.1570   21.9720 N   0  0  0  0  0  0  0  0  0  0  0  0
  -22.4890  -14.8300   20.5330 O   0  0  0  0  0  0  0  0  0  0  0  0
  -22.5270  -12.3650   22.4970 H   0  0  0  0  0  0  0  0  0  0  0  0
  -21.2500  -13.4760   22.1330 H   0  0  0  0  0  0  0  0  0  0  0  0
  -25.5220  -15.5550   20.3470 N   0  0  0  0  0  0  0  0  0  0  0  0
  -24.6840  -16.1130   20.4020 H   0  0  0  0  0  0  0  0  0  0  0  0
  -26.3040  -16.1000   20.0290 H   0  0  0  0  0  0  0  0  0  0  0  0
  2  6  1  0
  2  7  1  0
  3  5  2  0
  4  3  1  0
  4  6  1  0
  6  9  1  0
  7  5  1  0
  7  1  1  0
  8  2  2  0
 10 21  2  0
 11  9  1  0
 11 16  1  0
 12 20  1  0
 12 22  1  0
 13 19  1  0
 13 15  1  0
 14 20  1  0
 15 14  1  0
 16 15  2  0
 17 18  1  0
 17 11  2  0
 18 13  2  0
 19 12  1  0
 20 10  1  0
 22 24  2  0
 23 22  1  0
 25 23  1  0
 26 35  2  0
 26 31  1  0
 27 23  1  0
 27 31  1  0
 28 27  1  0
 29 30  1  0
 29 28  1  0
 30 26  1  0
 31 32  2  0
 32 33  1  0
 34 33  2  0
 35 34  1  0
 36 10  1  0
 36 37  1  0
 36 46  1  0
 37 40  1  0
 38 42  1  0
 38 37  1  0
 39 38  2  0
 42 41  1  0
 44 45  1  0
 44 42  1  0
 44 43  1  0
 46 49  1  1
 46 47  1  0
 48 46  1  0
 51 50  1  0
 52 53  1  0
 53 50  2  0
 53  1  1  0
 54 51  2  0
 55 52  2  0
 55 54  1  0
 56 55  1  0
 57 58  2  0
 58 56  1  0
 59 54  1  0
 59 68  1  0
 61 66  1  0
 62 63  1  0
 62 61  1  0
 64 63  1  0
 64 73  1  0
 64 65  1  0
 66 60  1  0
 66 65  1  0
 67 60  2  0
 68 60  1  0
 69 68  1  0
 70 71  2  0
 71 90  1  0
 72 71  1  0
 72 75  1  0
 73 70  1  0
 73 74  1  0
 74 72  2  0
 75 76  1  0
 76 77  2  0
 78 81  1  0
 78 77  1  0
 79 78  2  0
 80 79  1  0
 80 75  2  0
 81 82  1  0
 82 87  2  0
 82 83  1  0
 83 84  2  0
 85 84  1  0
 85 89  1  0
 86 85  2  0
 87 86  1  0
 88 87  1  0
 90 91  1  0
 91 94  1  0
 91 93  1  0
 92 90  2  0
 95 96  1  0
 95 70  1  0
 97 95  1  0
M  ISO  4   6 101   9 101  60 100  68 100
M  END
>  <TORSDO>  (7) 
F 21

>  <SCORE>  (7) 
-13.594

>  <name>  (7) 
6

>  <ligand_id>  (7) 
6

>  <original_smiles>  (7) 
[H]C([H])=C([H])C([H])([H])c1c([H])c(C([H])([H])N2C(=O)C([H])(Oc3c([H])c([H])c4c(c3[H])C([H])([H])N(C(=O)C([H])(N([H])C(=O)C([H])(N([H])C([H])([H])[H])C([H])([H])[H])C(C([H])([H])[H])(C([H])([H])[H])C([H])([H])[H])C([H])(C(=O)N([H])C3([H])c5c([H])c([H])c([H])c([H])c5C([H])([H])C([H])([H])C3([H])[H])C4([H])[H])C([H])([H])C([H])([H])C2([H])[H])c([H])c([H])c1C([H])([H])N([H])C(=O)N1C([H])([H])C([H])([H])C([H])([H])C([H])(n2nc(-c3c([H])c([H])c(Oc4c([H])c([H])c(F)c([H])c4F)c([H])c3[H])c(C(=O)N([H])[H])c2N([H])[H])C1([H])[H]

>  <smiles>  (7) 
[H]C([H])=C([H])C([H])([H])c1c([H])c(C([H])([H])N2C(=O)C([H])(Oc3c([H])c([H])c4c(c3[H])C([H])([H])N(C(=O)C([H])(N([H])C(=O)C([H])(N([H])C([H])([H])[H])C([H])([H])[H])C(C([H])([H])[H])(C([H])([H])[H])C([H])([H])[H])C([H])(C(=O)N([H])C3([H])c5c([H])c([H])c([H])c([H])c5C([H])([H])C([H])([H])C3([H])[H])C4([H])[H])C([H])([H])C([H])([H])C2([H])[H])c([H])c([H])c1C([H])([H])N([H])C(=O)N1C([H])([H])C([H])([H])C([H])([H])C([H])(n2nc(-c3c([H])c([H])c(Oc4c([H])c([H])c(F)c([H])c4F)c([H])c3[H])c(C(=O)N([H])[H])c2N([H])[H])C1([H])[H]

$$$$
7:0:0
     RDKit          3D

 92100  0  0  1  0  0  0  0  0999 V2000
  -30.2130  -22.0090   20.5380 C   0  0  0  0  0  2  0  0  0  0  0  0
  -27.4870  -19.3340   20.0190 C   0  0  0  0  0  3  0  0  0  0  0  0
  -28.2250  -18.1390   19.9760 C   0  0  0  0  0  3  0  0  0  0  0  0
  -28.1420  -20.5650   20.2020 C   0  0  0  0  0  3  0  0  0  0  0  0
  -29.6290  -18.1420   20.1200 C   0  0  0  0  0  0  0  0  0  0  0  0
  -29.5440  -20.6210   20.3530 C   0  0  0  0  0  0  0  0  0  0  0  0
  -30.2900  -19.3990   20.3440 C   0  0  0  0  0  0  0  0  0  0  0  0
  -31.7980  -19.4670   20.5970 C   0  0  0  0  0  1  0  0  0  0  0  0
  -30.3550  -16.8350   19.9850 C   0  0  0  0  0  3  0  0  0  0  0  0
  -29.9940  -15.6890   20.4570 N   0  0  0  0  0  0  0  0  0  0  0  0
  -30.8110  -14.5920   20.1520 C   0  0  0  0  0  0  0  0  0  0  0  0
  -30.6300  -12.2530   19.3760 C   0  0  0  0  0  2  0  0  0  0  0  0
  -29.7120  -12.2300   18.1360 C   0  0  0  0  0  2  0  0  0  0  0  0
  -28.2360  -12.0890   18.5560 C   0  0  0  0  0  2  0  0  0  0  0  0
  -27.8300  -13.0910   19.6700 C   0  0  0  0  0  3  0  0  0  0  0  0
  -28.8720  -13.1100   20.8110 C   0  0  0  0  0  2  0  0  0  0  0  0
  -30.1940  -13.3770   20.2220 N   0  0  0  0  0  0  0  0  0  0  0  0
  -31.9570  -14.6800   19.6990 O   0  0  0  0  0  0  0  0  0  0  0  0
  -25.4500  -13.7120   20.4190 C   0  0  0  0  0  0  0  0  0  0  0  0
  -24.3820  -12.9490   20.8040 C   0  0  0  0  0  0  0  0  0  0  0  0
  -24.8300  -11.5930   20.7650 C   0  0  0  0  0  0  0  0  0  0  0  0
  -26.4840  -12.8230   20.1710 N   0  0  0  0  0  0  0  0  0  0  0  0
  -26.1150  -11.5430   20.4350 N   0  0  0  0  0  0  0  0  0  0  0  0
  -24.0950  -10.3370   20.9630 C   0  0  0  0  0  0  0  0  0  0  0  0
  -24.5130   -9.3800   21.9150 C   0  0  0  0  0  3  0  0  0  0  0  0
  -23.7800   -8.1880   22.1010 C   0  0  0  0  0  3  0  0  0  0  0  0
  -22.6150   -7.9440   21.3350 C   0  0  0  0  0  0  0  0  0  0  0  0
  -22.2160   -8.8900   20.3750 C   0  0  0  0  0  3  0  0  0  0  0  0
  -22.9500  -10.0730   20.1860 C   0  0  0  0  0  3  0  0  0  0  0  0
  -21.8560   -6.8030   21.4300 O   0  0  0  0  0  0  0  0  0  0  0  0
  -21.7510   -6.1020   22.6050 C   0  0  0  0  0  0  0  0  0  0  0  0
  -21.2650   -6.6990   23.7880 C   0  0  0  0  0  3  0  0  0  0  0  0
  -21.1100   -5.9240   24.9550 C   0  0  0  0  0  3  0  0  0  0  0  0
  -21.4310   -4.5530   24.9380 C   0  0  0  0  0  0  0  0  0  0  0  0
  -21.9090   -3.9560   23.7590 C   0  0  0  0  0  3  0  0  0  0  0  0
  -22.0670   -4.7280   22.5950 C   0  0  0  0  0  0  0  0  0  0  0  0
  -22.5080   -4.1430   21.4560 F   0  0  0  0  0  0  0  0  0  0  0  0
  -21.2740   -3.8050   26.0560 F   0  0  0  0  0  0  0  0  0  0  0  0
  -22.9930  -13.4380   21.0990 C   0  0  0  0  0  0  0  0  0  0  0  0
  -22.2780  -12.7550   21.9850 N   0  0  0  0  0  0  0  0  0  0  0  0
  -22.5510  -14.4620   20.5790 O   0  0  0  0  0  0  0  0  0  0  0  0
  -22.6480  -11.9280   22.4310 H   0  0  0  0  0  0  0  0  0  0  0  0
  -21.3490  -13.0660   22.2280 H   0  0  0  0  0  0  0  0  0  0  0  0
  -25.6260  -15.0810   20.2370 N   0  0  0  0  0  0  0  0  0  0  0  0
  -24.8700  -15.7480   20.3450 H   0  0  0  0  0  0  0  0  0  0  0  0
  -26.4820  -15.4980   19.8950 H   0  0  0  0  0  0  0  0  0  0  0  0
  -29.5190  -24.4040   20.3310 C   0  0  0  0  0  0  0  0  0  0  0  0
  -29.2850  -22.8850   18.3900 C   0  0  0  0  0  1  0  0  0  0  0  0
  -29.6180  -23.1500   19.7980 N   0  0  0  0  0  0  0  0  0  0  0  0
  -30.0080  -24.6960   21.4300 O   0  0  0  0  0  0  0  0  0  0  0  0
  -28.7080  -25.4760   19.5610 C   0  0  0  0  0  2  0  0  0  0  0  0
  -28.7130  -26.7870   20.1810 O   0  0  0  0  0  0  0  0  0  0  0  0
  -24.6460  -31.7880   23.2530 C   0  0  0  0  0  0  0  0  0  0  0  0
  -27.5360  -27.5210   20.1120 C   0  0  0  0  0  0  0  0  0  0  0  0
  -23.5460  -30.4100   21.5220 C   0  0  0  0  0  3  0  0  0  0  0  0
  -25.0970  -28.9780   20.0930 C   0  0  0  0  0  0  0  0  0  0  0  0
  -26.0690  -30.8460   21.4330 C   0  0  0  0  0  2  0  0  0  0  0  0
  -26.2200  -29.5020   20.7460 C   0  0  0  0  0  0  0  0  0  0  0  0
  -27.4400  -28.7800   20.7570 C   0  0  0  0  0  3  0  0  0  0  0  0
  -26.3930  -27.0390   19.4240 C   0  0  0  0  0  3  0  0  0  0  0  0
  -25.1820  -27.7460   19.4290 C   0  0  0  0  0  3  0  0  0  0  0  0
  -23.8260  -29.7940   20.1270 C   0  0  0  0  0  2  0  0  0  0  0  0
  -24.7700  -31.0290   22.1280 N   0  0  0  0  0  0  0  0  0  0  0  0
  -23.5370  -32.0040   23.7620 O   0  0  0  0  0  0  0  0  0  0  0  0
  -22.8970  -29.3300   22.4180 C   0  0  0  0  0  0  0  0  0  0  0  0
  -21.5780  -29.1260   22.2540 N   0  0  0  0  0  0  0  0  0  0  0  0
  -23.5780  -28.6820   23.2170 O   0  0  0  0  0  0  0  0  0  0  0  0
  -21.0930  -29.7060   21.5850 H   0  0  0  0  0  0  0  0  0  0  0  0
  -18.2100  -27.8900   22.6790 C   0  0  0  0  0  0  0  0  0  0  0  0
  -20.7670  -28.1390   22.9640 C   0  0  0  0  0  3  0  0  0  0  0  0
  -20.8720  -26.7470   22.2980 C   0  0  0  0  0  2  0  0  0  0  0  0
  -19.7720  -26.4850   21.2670 C   0  0  0  0  0  2  0  0  0  0  0  0
  -18.3900  -26.5870   21.9190 C   0  0  0  0  0  2  0  0  0  0  0  0
  -19.3270  -28.6280   23.1540 C   0  0  0  0  0  0  0  0  0  0  0  0
  -19.1050  -29.8510   23.8230 C   0  0  0  0  0  3  0  0  0  0  0  0
  -17.7990  -30.3380   24.0200 C   0  0  0  0  0  3  0  0  0  0  0  0
  -16.6970  -29.5970   23.5620 C   0  0  0  0  0  3  0  0  0  0  0  0
  -16.9030  -28.3740   22.8970 C   0  0  0  0  0  3  0  0  0  0  0  0
  -25.8880  -32.4380   23.9390 C   0  0  0  0  0  3  0  0  0  0  0  0
  -26.3360  -31.6860   25.2520 C   0  0  1  0  0  0  0  0  0  0  0  0
  -25.1840  -31.4440   26.2560 C   0  0  0  0  0  1  0  0  0  0  0  0
  -26.9590  -30.3130   24.9100 C   0  0  0  0  0  1  0  0  0  0  0  0
  -27.4370  -32.5010   25.9720 C   0  0  0  0  0  1  0  0  0  0  0  0
  -25.5510  -33.8370   24.2310 N   0  0  0  0  0  0  0  0  0  0  0  0
  -25.9040  -34.8800   23.4670 C   0  0  0  0  0  0  0  0  0  0  0  0
  -26.6190  -34.7650   22.4690 O   0  0  0  0  0  0  0  0  0  0  0  0
  -24.9240  -33.9990   25.0060 H   0  0  0  0  0  0  0  0  0  0  0  0
  -24.1690  -36.6380   23.0030 C   0  0  0  0  0  1  0  0  0  0  0  0
  -25.3780  -36.2690   23.8760 C   0  0  0  0  0  3  0  0  0  0  0  0
  -27.4620  -37.1980   24.7820 C   0  0  0  0  0  1  0  0  0  0  0  0
  -26.3990  -37.3340   23.7890 N   0  0  0  0  0  0  0  0  0  0  0  0
  -25.9750  -38.2510   23.9030 H   0  0  0  0  0  0  0  0  0  0  0  0
  2  4  1  0
  3  2  2  0
  3  5  1  0
  4  6  2  0
  5  7  2  0
  6  1  1  0
  7  6  1  0
  7  8  1  0
  9  5  1  0
  9 10  2  0
 11 17  1  0
 11 10  1  0
 12 17  1  0
 13 14  1  0
 13 12  1  0
 15 14  1  0
 15 22  1  0
 15 16  1  0
 17 16  1  0
 18 11  2  0
 19 20  2  0
 20 39  1  0
 21 20  1  0
 21 24  1  0
 22 19  1  0
 22 23  1  0
 23 21  2  0
 24 25  1  0
 25 26  2  0
 27 30  1  0
 27 26  1  0
 28 27  2  0
 29 28  1  0
 29 24  2  0
 30 31  1  0
 31 32  1  0
 32 33  2  0
 34 33  1  0
 34 38  1  0
 35 34  2  0
 36 31  2  0
 36 35  1  0
 37 36  1  0
 39 40  1  0
 40 43  1  0
 40 42  1  0
 41 39  2  0
 44 45  1  0
 44 19  1  0
 46 44  1  0
 47 50  2  0
 48 49  1  0
 49 47  1  0
 49  1  1  0
 51 52  1  0
 51 47  1  0
 53 64  2  0
 54 52  1  0
 54 59  1  0
 55 63  1  0
 55 65  1  0
 56 62  1  0
 56 58  1  0
 57 63  1  0
 58 59  2  0
 58 57  1  0
 60 61  1  0
 60 54  2  0
 61 56  2  0
 62 55  1  0
 63 53  1  0
 65 67  2  0
 66 65  1  0
 68 66  1  0
 69 78  2  0
 69 74  1  0
 70 66  1  0
 70 74  1  0
 71 70  1  0
 72 73  1  0
 72 71  1  0
 73 69  1  0
 74 75  2  0
 75 76  1  0
 77 76  2  0
 78 77  1  0
 79 53  1  0
 79 84  1  0
 79 80  1  0
 80 83  1  1
 80 81  1  0
 82 80  1  0
 84 87  1  0
 85 89  1  0
 85 84  1  0
 86 85  2  0
 89 88  1  0
 91 89  1  0
 91 92  1  0
 91 90  1  0
M  ISO  4  10 100  11 100  51 101  52 101
M  END
>  <TORSDO>  (8) 
F 20

>  <SCORE>  (8) 
-13.662

>  <name>  (8) 
7

>  <ligand_id>  (8) 
7

>  <original_smiles>  (8) 
[H]C(=NC(=O)N1C([H])([H])C([H])([H])C([H])([H])C([H])(n2nc(-c3c([H])c([H])c(Oc4c([H])c([H])c(F)c([H])c4F)c([H])c3[H])c(C(=O)N([H])[H])c2N([H])[H])C1([H])[H])c1c([H])c([H])c([H])c(C([H])([H])N(C(=O)C([H])([H])Oc2c([H])c([H])c3c(c2[H])C([H])([H])N(C(=O)C([H])(N([H])C(=O)C([H])(N([H])C([H])([H])[H])C([H])([H])[H])C(C([H])([H])[H])(C([H])([H])[H])C([H])([H])[H])C([H])(C(=O)N([H])C2([H])c4c([H])c([H])c([H])c([H])c4C([H])([H])C([H])([H])C2([H])[H])C3([H])[H])C([H])([H])[H])c1C([H])([H])[H]

>  <smiles>  (8) 
[H]C(=NC(=O)N1C([H])([H])C([H])([H])C([H])([H])C([H])(n2nc(-c3c([H])c([H])c(Oc4c([H])c([H])c(F)c([H])c4F)c([H])c3[H])c(C(=O)N([H])[H])c2N([H])[H])C1([H])[H])c1c([H])c([H])c([H])c(C([H])([H])N(C(=O)C([H])([H])Oc2c([H])c([H])c3c(c2[H])C([H])([H])N(C(=O)C([H])(N([H])C(=O)C([H])(N([H])C([H])([H])[H])C([H])([H])[H])C(C([H])([H])[H])(C([H])([H])[H])C([H])([H])[H])C([H])(C(=O)N([H])C2([H])c4c([H])c([H])c([H])c([H])c4C([H])([H])C([H])([H])C2([H])[H])C3([H])[H])C([H])([H])[H])c1C([H])([H])[H]

$$$$
8:0:0
     RDKit          3D

 95103  0  0  1  0  0  0  0  0999 V2000
  -30.2490  -20.3890   20.1710 C   0  0  0  0  0  0  0  0  0  0  0  0
  -31.5220  -20.5250   20.5310 N   0  0  0  0  0  4  0  0  0  0  0  0
  -29.5180  -21.5160   19.9170 N   0  0  0  0  0  0  0  0  0  0  0  0
  -32.0520  -19.7090   20.7960 H   0  0  0  0  0  0  0  0  0  0  0  0
  -31.9980  -21.4110   20.5060 H   0  0  0  0  0  0  0  0  0  0  0  0
  -28.5920  -21.3380   19.5460 H   0  0  0  0  0  0  0  0  0  0  0  0
  -28.2170  -19.0100   20.2420 C   0  0  0  0  0  3  0  0  0  0  0  0
  -27.5240  -17.8060   20.4040 C   0  0  0  0  0  3  0  0  0  0  0  0
  -30.3420  -17.7820   20.2620 C   0  0  0  0  0  3  0  0  0  0  0  0
  -29.6260  -19.0310   20.1820 C   0  0  0  0  0  0  0  0  0  0  0  0
  -28.2170  -16.5900   20.5330 C   0  0  0  0  0  0  0  0  0  0  0  0
  -29.6380  -16.5420   20.4490 C   0  0  0  0  0  0  0  0  0  0  0  0
  -27.3760  -15.3490   20.7880 C   0  0  0  0  0  1  0  0  0  0  0  0
  -30.8500  -14.3230   19.8660 C   0  0  0  0  0  0  0  0  0  0  0  0
  -30.7420  -11.9830   19.0060 C   0  0  0  0  0  2  0  0  0  0  0  0
  -29.7790  -11.9330   17.7990 C   0  0  0  0  0  2  0  0  0  0  0  0
  -28.3050  -11.8060   18.2420 C   0  0  0  0  0  2  0  0  0  0  0  0
  -27.9360  -12.8030   19.3720 C   0  0  0  0  0  3  0  0  0  0  0  0
  -28.9970  -12.7270   20.4930 C   0  0  0  0  0  2  0  0  0  0  0  0
  -30.3060  -13.0670   19.9030 N   0  0  0  0  0  0  0  0  0  0  0  0
  -31.8850  -14.5830   19.2400 O   0  0  0  0  0  0  0  0  0  0  0  0
  -30.1960  -15.2170   20.6440 N   0  0  0  0  0  0  0  0  0  0  0  0
  -29.6470  -14.7010   21.3120 H   0  0  0  0  0  0  0  0  0  0  0  0
  -25.5430  -13.4720   20.0500 C   0  0  0  0  0  0  0  0  0  0  0  0
  -24.4750  -12.7350   20.4910 C   0  0  0  0  0  0  0  0  0  0  0  0
  -24.9300  -11.3820   20.5500 C   0  0  0  0  0  0  0  0  0  0  0  0
  -26.5830  -12.5720   19.8770 N   0  0  0  0  0  0  0  0  0  0  0  0
  -26.2170  -11.3120   20.2280 N   0  0  0  0  0  0  0  0  0  0  0  0
  -24.1990  -10.1410   20.8360 C   0  0  0  0  0  0  0  0  0  0  0  0
  -24.6010   -9.2700   21.8740 C   0  0  0  0  0  3  0  0  0  0  0  0
  -23.8730   -8.0920   22.1420 C   0  0  0  0  0  3  0  0  0  0  0  0
  -22.7290   -7.7750   21.3720 C   0  0  0  0  0  0  0  0  0  0  0  0
  -22.3450   -8.6320   20.3250 C   0  0  0  0  0  3  0  0  0  0  0  0
  -23.0750   -9.8030   20.0570 C   0  0  0  0  0  3  0  0  0  0  0  0
  -21.9730   -6.6390   21.5440 O   0  0  0  0  0  0  0  0  0  0  0  0
  -21.8420   -6.0410   22.7720 C   0  0  0  0  0  0  0  0  0  0  0  0
  -21.3280   -6.7370   23.8890 C   0  0  0  0  0  3  0  0  0  0  0  0
  -21.1460   -6.0650   25.1130 C   0  0  0  0  0  3  0  0  0  0  0  0
  -21.4660   -4.6980   25.2220 C   0  0  0  0  0  0  0  0  0  0  0  0
  -21.9720   -4.0030   24.1100 C   0  0  0  0  0  3  0  0  0  0  0  0
  -22.1570   -4.6720   22.8880 C   0  0  0  0  0  0  0  0  0  0  0  0
  -22.6240   -3.9930   21.8140 F   0  0  0  0  0  0  0  0  0  0  0  0
  -21.2830   -4.0490   26.3960 F   0  0  0  0  0  0  0  0  0  0  0  0
  -23.0850  -13.2400   20.7460 C   0  0  0  0  0  0  0  0  0  0  0  0
  -22.3650  -12.6170   21.6750 N   0  0  0  0  0  0  0  0  0  0  0  0
  -22.6430  -14.2240   20.1560 O   0  0  0  0  0  0  0  0  0  0  0  0
  -22.7320  -11.8230   22.1780 H   0  0  0  0  0  0  0  0  0  0  0  0
  -21.4310  -12.9400   21.8850 H   0  0  0  0  0  0  0  0  0  0  0  0
  -25.7060  -14.8240   19.7670 N   0  0  0  0  0  0  0  0  0  0  0  0
  -24.9370  -15.4810   19.8390 H   0  0  0  0  0  0  0  0  0  0  0  0
  -26.5470  -15.2400   19.3910 H   0  0  0  0  0  0  0  0  0  0  0  0
  -29.7750  -22.9240   20.3820 C   0  0  0  0  0  2  0  0  0  0  0  0
  -28.8850  -24.0700   19.7610 C   0  0  0  0  0  2  0  0  0  0  0  0
  -28.6900  -25.3380   20.6750 C   0  0  0  0  0  2  0  0  0  0  0  0
  -28.6230  -26.6400   20.0380 O   0  0  0  0  0  0  0  0  0  0  0  0
  -24.6280  -31.7490   23.1350 C   0  0  0  0  0  0  0  0  0  0  0  0
  -27.4340  -27.3490   20.0930 C   0  0  0  0  0  0  0  0  0  0  0  0
  -23.4890  -30.3320   21.4580 C   0  0  0  0  0  3  0  0  0  0  0  0
  -25.0070  -28.8230   20.0620 C   0  0  0  0  0  0  0  0  0  0  0  0
  -26.0140  -30.7350   21.3200 C   0  0  0  0  0  2  0  0  0  0  0  0
  -26.1440  -29.3660   20.6760 C   0  0  0  0  0  0  0  0  0  0  0  0
  -27.3620  -28.6400   20.6790 C   0  0  0  0  0  3  0  0  0  0  0  0
  -26.2750  -26.8210   19.4840 C   0  0  0  0  0  3  0  0  0  0  0  0
  -25.0700  -27.5520   19.4620 C   0  0  0  0  0  3  0  0  0  0  0  0
  -23.7470  -29.6620   20.0820 C   0  0  0  0  0  2  0  0  0  0  0  0
  -24.7270  -30.9560   22.0290 N   0  0  0  0  0  0  0  0  0  0  0  0
  -23.5280  -31.9940   23.6520 O   0  0  0  0  0  0  0  0  0  0  0  0
  -22.8350  -29.2950   22.3990 C   0  0  0  0  0  0  0  0  0  0  0  0
  -21.5130  -29.1040   22.2540 N   0  0  0  0  0  0  0  0  0  0  0  0
  -23.5140  -28.6650   23.2130 O   0  0  0  0  0  0  0  0  0  0  0  0
  -21.0240  -29.6630   21.5690 H   0  0  0  0  0  0  0  0  0  0  0  0
  -18.1390  -27.8960   22.7310 C   0  0  0  0  0  0  0  0  0  0  0  0
  -20.6980  -28.1460   23.0020 C   0  0  0  0  0  3  0  0  0  0  0  0
  -20.7980  -26.7320   22.3870 C   0  0  0  0  0  2  0  0  0  0  0  0
  -19.6940  -26.4360   21.3670 C   0  0  0  0  0  2  0  0  0  0  0  0
  -18.3140  -26.5650   22.0190 C   0  0  0  0  0  2  0  0  0  0  0  0
  -19.2590  -28.6450   23.1790 C   0  0  0  0  0  0  0  0  0  0  0  0
  -19.0440  -29.8920   23.8050 C   0  0  0  0  0  3  0  0  0  0  0  0
  -17.7400  -30.3910   23.9870 C   0  0  0  0  0  3  0  0  0  0  0  0
  -16.6340  -29.6380   23.5560 C   0  0  0  0  0  3  0  0  0  0  0  0
  -16.8340  -28.3920   22.9350 C   0  0  0  0  0  3  0  0  0  0  0  0
  -25.8840  -32.4030   23.7880 C   0  0  0  0  0  3  0  0  0  0  0  0
  -26.4150  -31.6110   25.0460 C   0  0  1  0  0  0  0  0  0  0  0  0
  -25.3160  -31.2950   26.0890 C   0  0  0  0  0  1  0  0  0  0  0  0
  -27.0600  -30.2730   24.6180 C   0  0  0  0  0  1  0  0  0  0  0  0
  -27.5230  -32.4280   25.7510 C   0  0  0  0  0  1  0  0  0  0  0  0
  -25.5280  -33.7800   24.1560 N   0  0  0  0  0  0  0  0  0  0  0  0
  -25.8360  -34.8650   23.4320 C   0  0  0  0  0  0  0  0  0  0  0  0
  -26.5210  -34.8110   22.4060 O   0  0  0  0  0  0  0  0  0  0  0  0
  -24.9190  -33.8940   24.9530 H   0  0  0  0  0  0  0  0  0  0  0  0
  -24.0530  -36.6080   23.1130 C   0  0  0  0  0  1  0  0  0  0  0  0
  -25.3020  -36.2230   23.9230 C   0  0  0  0  0  3  0  0  0  0  0  0
  -27.4020  -37.1520   24.7890 C   0  0  0  0  0  1  0  0  0  0  0  0
  -26.3000  -37.3120   23.8460 N   0  0  0  0  0  0  0  0  0  0  0  0
  -25.8630  -38.2140   24.0170 H   0  0  0  0  0  0  0  0  0  0  0  0
  1 10  1  0
  1  2  2  0
  2  4  1  0
  3  1  1  0
  3 52  1  0
  5  2  1  0
  6  3  1  0
  7  8  1  0
  8 11  2  0
  9 12  2  0
 10  7  2  0
 10  9  1  0
 11 13  1  0
 12 11  1  0
 12 22  1  0
 14 20  1  0
 14 22  1  0
 15 20  1  0
 16 17  1  0
 16 15  1  0
 18 17  1  0
 18 27  1  0
 18 19  1  0
 20 19  1  0
 21 14  2  0
 22 23  1  0
 24 25  2  0
 25 26  1  0
 25 44  1  0
 26 29  1  0
 27 24  1  0
 27 28  1  0
 28 26  2  0
 29 30  1  0
 30 31  2  0
 32 35  1  0
 32 31  1  0
 33 32  2  0
 34 33  1  0
 34 29  2  0
 35 36  1  0
 36 41  2  0
 36 37  1  0
 37 38  2  0
 38 39  1  0
 39 43  1  0
 40 39  2  0
 41 40  1  0
 42 41  1  0
 44 45  1  0
 45 48  1  0
 45 47  1  0
 46 44  2  0
 49 50  1  0
 49 24  1  0
 51 49  1  0
 53 52  1  0
 53 54  1  0
 55 57  1  0
 55 54  1  0
 56 67  2  0
 57 62  1  0
 58 66  1  0
 58 68  1  0
 59 65  1  0
 59 61  1  0
 60 66  1  0
 61 62  2  0
 61 60  1  0
 63 57  2  0
 64 63  1  0
 64 59  2  0
 65 58  1  0
 66 56  1  0
 68 70  2  0
 69 68  1  0
 71 69  1  0
 72 81  2  0
 72 77  1  0
 73 69  1  0
 73 77  1  0
 74 73  1  0
 75 76  1  0
 75 74  1  0
 76 72  1  0
 77 78  2  0
 78 79  1  0
 80 79  2  0
 81 80  1  0
 82 56  1  0
 82 87  1  0
 82 83  1  0
 83 86  1  1
 83 84  1  0
 85 83  1  0
 87 90  1  0
 88 92  1  0
 88 87  1  0
 89 88  2  0
 92 91  1  0
 94 92  1  0
 94 95  1  0
 94 93  1  0
M  ISO  4  14 100  22 100  54 101  55 101
M  END
>  <TORSDO>  (9) 
F 20

>  <SCORE>  (9) 
-12.630

>  <name>  (9) 
8

>  <ligand_id>  (9) 
8

>  <original_smiles>  (9) 
[H]c1c([H])c([H])c2c(c1[H])C([H])([H])C([H])([H])C([H])([H])C2([H])N([H])C(=O)C1([H])N(C(=O)C([H])(N([H])C(=O)C([H])(N([H])C([H])([H])[H])C([H])([H])[H])C(C([H])([H])[H])(C([H])([H])[H])C([H])([H])[H])C([H])([H])c2c([H])c(OC([H])([H])C([H])([H])C([H])([H])[N+]([H])=C(c3c([H])c([H])c(C([H])([H])[H])c(N([H])C(=O)N4C([H])([H])C([H])([H])C([H])([H])C([H])(n5nc(-c6c([H])c([H])c(Oc7c([H])c([H])c(F)c([H])c7F)c([H])c6[H])c(C(=O)N([H])[H])c5N([H])[H])C4([H])[H])c3[H])N([H])[H])c([H])c([H])c2C1([H])[H]

>  <smiles>  (9) 
[H]c1c([H])c([H])c2c(c1[H])C([H])([H])C([H])([H])C([H])([H])C2([H])N([H])C(=O)C1([H])N(C(=O)C([H])(N([H])C(=O)C([H])(N([H])C([H])([H])[H])C([H])([H])[H])C(C([H])([H])[H])(C([H])([H])[H])C([H])([H])[H])C([H])([H])c2c([H])c(OC([H])([H])C([H])([H])C([H])([H])[N+]([H])=C(c3c([H])c([H])c(C([H])([H])[H])c(N([H])C(=O)N4C([H])([H])C([H])([H])C([H])([H])C([H])(n5nc(-c6c([H])c([H])c(Oc7c([H])c([H])c(F)c([H])c7F)c([H])c6[H])c(C(=O)N([H])[H])c5N([H])[H])C4([H])[H])c3[H])N([H])[H])c([H])c([H])c2C1([H])[H]

$$$$
9:0:0
     RDKit          3D

 95104  0  0  1  0  0  0  0  0999 V2000
  -29.1710  -23.9960   19.6840 C   0  0  0  0  0  0  0  0  0  0  0  0
  -27.7840  -23.3210   22.1650 C   0  0  0  0  0  2  0  0  0  0  0  0
  -28.1870  -24.7730   21.8760 C   0  0  0  0  0  2  0  0  0  0  0  0
  -28.6360  -22.2650   21.4110 C   0  0  0  0  0  2  0  0  0  0  0  0
  -28.1690  -25.0170   20.3650 C   0  0  0  0  0  3  0  0  0  0  0  0
  -29.2130  -22.6740   20.1130 N   0  0  0  0  0  0  0  0  0  0  0  0
  -29.8760  -24.3840   18.7460 O   0  0  0  0  0  0  0  0  0  0  0  0
  -28.3530  -26.4710   20.0810 O   0  0  0  0  0  0  0  0  0  0  0  0
  -24.6130  -31.8760   23.1790 C   0  0  0  0  0  0  0  0  0  0  0  0
  -27.2200  -27.3140   20.0930 C   0  0  0  0  0  0  0  0  0  0  0  0
  -23.3980  -30.4740   21.5460 C   0  0  0  0  0  3  0  0  0  0  0  0
  -24.8420  -28.9170   20.1190 C   0  0  0  0  0  0  0  0  0  0  0  0
  -25.9400  -30.7830   21.3560 C   0  0  0  0  0  2  0  0  0  0  0  0
  -26.0120  -29.4040   20.7110 C   0  0  0  0  0  0  0  0  0  0  0  0
  -27.2040  -28.6130   20.6910 C   0  0  0  0  0  3  0  0  0  0  0  0
  -26.0200  -26.8890   19.4730 C   0  0  0  0  0  3  0  0  0  0  0  0
  -24.8440  -27.6620   19.4970 C   0  0  0  0  0  3  0  0  0  0  0  0
  -23.6040  -29.7900   20.1700 C   0  0  0  0  0  2  0  0  0  0  0  0
  -24.6680  -31.0670   22.0820 N   0  0  0  0  0  0  0  0  0  0  0  0
  -23.5340  -32.1550   23.7200 O   0  0  0  0  0  0  0  0  0  0  0  0
  -22.7370  -29.4610   22.5110 C   0  0  0  0  0  0  0  0  0  0  0  0
  -21.4090  -29.2950   22.4020 N   0  0  0  0  0  0  0  0  0  0  0  0
  -23.4190  -28.8240   23.3190 O   0  0  0  0  0  0  0  0  0  0  0  0
  -20.9130  -29.8560   21.7240 H   0  0  0  0  0  0  0  0  0  0  0  0
  -18.0310  -28.1220   22.9470 C   0  0  0  0  0  0  0  0  0  0  0  0
  -20.5960  -28.3600   23.1810 C   0  0  0  0  0  3  0  0  0  0  0  0
  -20.6770  -26.9290   22.6010 C   0  0  0  0  0  2  0  0  0  0  0  0
  -19.5590  -26.6190   21.6010 C   0  0  0  0  0  2  0  0  0  0  0  0
  -18.1860  -26.7760   22.2640 C   0  0  0  0  0  2  0  0  0  0  0  0
  -19.1620  -28.8750   23.3630 C   0  0  0  0  0  0  0  0  0  0  0  0
  -18.9620  -30.1410   23.9570 C   0  0  0  0  0  3  0  0  0  0  0  0
  -17.6610  -30.6500   24.1430 C   0  0  0  0  0  3  0  0  0  0  0  0
  -16.5460  -29.8930   23.7450 C   0  0  0  0  0  3  0  0  0  0  0  0
  -16.7310  -28.6330   23.1490 C   0  0  0  0  0  3  0  0  0  0  0  0
  -25.8990  -32.5060   23.7930 C   0  0  0  0  0  3  0  0  0  0  0  0
  -25.5900  -33.9000   24.1420 N   0  0  0  0  0  0  0  0  0  0  0  0
  -25.9010  -34.9630   23.3880 C   0  0  0  0  0  0  0  0  0  0  0  0
  -26.5470  -34.8730   22.3390 O   0  0  0  0  0  0  0  0  0  0  0  0
  -25.0280  -34.0450   24.9660 H   0  0  0  0  0  0  0  0  0  0  0  0
  -24.1510  -36.7440   23.0870 C   0  0  0  0  0  1  0  0  0  0  0  0
  -25.4100  -36.3390   23.8700 C   0  0  0  0  0  3  0  0  0  0  0  0
  -27.5590  -37.2300   24.6590 C   0  0  0  0  0  1  0  0  0  0  0  0
  -26.4290  -37.4040   23.7500 N   0  0  0  0  0  0  0  0  0  0  0  0
  -26.0170  -38.3160   23.9300 H   0  0  0  0  0  0  0  0  0  0  0  0
  -26.4360  -31.7260   25.0560 C   0  0  1  0  0  0  0  0  0  0  0  0
  -25.3600  -31.4770   26.1360 C   0  0  0  0  0  1  0  0  0  0  0  0
  -27.0190  -30.3530   24.6440 C   0  0  0  0  0  1  0  0  0  0  0  0
  -27.5950  -32.5160   25.7100 C   0  0  0  0  0  1  0  0  0  0  0  0
  -30.0660  -21.6260   19.4220 C   0  0  0  0  0  2  0  0  0  0  0  0
  -28.7910  -19.3230   19.7110 C   0  0  0  0  0  3  0  0  0  0  0  0
  -31.1620  -17.8810   20.1300 C   0  0  0  0  0  3  0  0  0  0  0  0
  -29.9990  -20.0710   19.7310 C   0  0  0  0  0  0  0  0  0  0  0  0
  -29.9410  -17.1530   20.1680 C   0  0  0  0  0  0  0  0  0  0  0  0
  -28.7670  -17.9130   19.9270 C   0  0  0  0  0  0  0  0  0  0  0  0
  -31.1860  -19.2960   19.9120 C   0  0  0  0  0  0  0  0  0  0  0  0
  -27.5800  -17.2630   19.8900 F   0  0  0  0  0  0  0  0  0  0  0  0
  -32.3920  -19.9130   19.8660 F   0  0  0  0  0  0  0  0  0  0  0  0
  -30.6070  -14.6450   20.3500 C   0  0  0  0  0  0  0  0  0  0  0  0
  -30.3700  -12.3860   19.3580 C   0  0  0  0  0  2  0  0  0  0  0  0
  -29.4270  -12.5150   18.1410 C   0  0  0  0  0  2  0  0  0  0  0  0
  -27.9520  -12.3910   18.5750 C   0  0  0  0  0  2  0  0  0  0  0  0
  -27.6070  -13.2510   19.8180 C   0  0  0  0  0  3  0  0  0  0  0  0
  -28.6730  -13.1130   20.9290 C   0  0  0  0  0  2  0  0  0  0  0  0
  -29.9810  -13.4270   20.3290 N   0  0  0  0  0  0  0  0  0  0  0  0
  -31.7980  -14.7600   20.0530 O   0  0  0  0  0  0  0  0  0  0  0  0
  -29.7800  -15.7260   20.4600 N   0  0  0  0  0  0  0  0  0  0  0  0
  -28.8210  -15.4620   20.6260 H   0  0  0  0  0  0  0  0  0  0  0  0
  -25.2140  -13.8580   20.5200 C   0  0  0  0  0  0  0  0  0  0  0  0
  -24.1410  -13.0920   20.8840 C   0  0  0  0  0  0  0  0  0  0  0  0
  -24.5990  -11.7390   20.8640 C   0  0  0  0  0  0  0  0  0  0  0  0
  -26.2570  -12.9740   20.3030 N   0  0  0  0  0  0  0  0  0  0  0  0
  -25.8930  -11.6940   20.5720 N   0  0  0  0  0  0  0  0  0  0  0  0
  -23.8660  -10.4800   21.0570 C   0  0  0  0  0  0  0  0  0  0  0  0
  -24.3060   -9.5050   21.9830 C   0  0  0  0  0  3  0  0  0  0  0  0
  -23.5790   -8.3090   22.1640 C   0  0  0  0  0  3  0  0  0  0  0  0
  -22.3980   -8.0760   21.4190 C   0  0  0  0  0  0  0  0  0  0  0  0
  -21.9780   -9.0380   20.4820 C   0  0  0  0  0  3  0  0  0  0  0  0
  -22.7050  -10.2270   20.3000 C   0  0  0  0  0  3  0  0  0  0  0  0
  -21.6400   -6.9330   21.5120 O   0  0  0  0  0  0  0  0  0  0  0  0
  -21.6130   -6.1780   22.6570 C   0  0  0  0  0  0  0  0  0  0  0  0
  -21.2350   -6.7240   23.9020 C   0  0  0  0  0  3  0  0  0  0  0  0
  -21.1550   -5.8950   25.0400 C   0  0  0  0  0  3  0  0  0  0  0  0
  -21.4420   -4.5220   24.9320 C   0  0  0  0  0  0  0  0  0  0  0  0
  -21.8120   -3.9750   23.6910 C   0  0  0  0  0  3  0  0  0  0  0  0
  -21.8970   -4.8020   22.5570 C   0  0  0  0  0  0  0  0  0  0  0  0
  -22.2340   -4.2650   21.3580 F   0  0  0  0  0  0  0  0  0  0  0  0
  -21.3590   -3.7220   26.0210 F   0  0  0  0  0  0  0  0  0  0  0  0
  -22.7420  -13.5740   21.1430 C   0  0  0  0  0  0  0  0  0  0  0  0
  -22.0080  -12.8830   22.0090 N   0  0  0  0  0  0  0  0  0  0  0  0
  -22.3070  -14.5960   20.6140 O   0  0  0  0  0  0  0  0  0  0  0  0
  -22.3780  -12.0610   22.4620 H   0  0  0  0  0  0  0  0  0  0  0  0
  -21.0650  -13.1790   22.2200 H   0  0  0  0  0  0  0  0  0  0  0  0
  -25.3890  -15.2250   20.3340 N   0  0  0  0  0  0  0  0  0  0  0  0
  -24.6290  -15.8890   20.4210 H   0  0  0  0  0  0  0  0  0  0  0  0
  -26.2630  -15.6670   20.0720 H   0  0  0  0  0  0  0  0  0  0  0  0
  1  6  1  0
  1  5  1  0
  3  2  1  0
  4  2  1  0
  5  8  1  0
  5  3  1  0
  6  4  1  0
  7  1  2  0
  8 10  1  0
  9 20  2  0
 10 15  1  0
 11 19  1  0
 11 21  1  0
 12 18  1  0
 12 14  1  0
 13 19  1  0
 14 13  1  0
 15 14  2  0
 16 17  1  0
 16 10  2  0
 17 12  2  0
 18 11  1  0
 19  9  1  0
 21 23  2  0
 22 21  1  0
 24 22  1  0
 25 34  2  0
 25 30  1  0
 26 22  1  0
 26 30  1  0
 27 26  1  0
 28 29  1  0
 28 27  1  0
 29 25  1  0
 30 31  2  0
 31 32  1  0
 33 32  2  0
 34 33  1  0
 35  9  1  0
 35 36  1  0
 35 45  1  0
 36 39  1  0
 37 41  1  0
 37 36  1  0
 38 37  2  0
 41 40  1  0
 43 41  1  0
 43 44  1  0
 43 42  1  0
 45 48  1  1
 45 46  1  0
 47 45  1  0
 49 52  1  0
 49  6  1  0
 50 52  2  0
 50 54  1  0
 51 53  1  0
 52 55  1  0
 53 66  1  0
 54 53  2  0
 55 51  2  0
 56 54  1  0
 57 55  1  0
 58 66  1  0
 59 64  1  0
 60 61  1  0
 60 59  1  0
 62 61  1  0
 62 71  1  0
 62 63  1  0
 64 58  1  0
 64 63  1  0
 65 58  2  0
 66 67  1  0
 68 69  2  0
 69 88  1  0
 70 69  1  0
 70 73  1  0
 71 68  1  0
 71 72  1  0
 72 70  2  0
 73 74  1  0
 74 75  2  0
 76 79  1  0
 76 75  1  0
 77 76  2  0
 78 77  1  0
 78 73  2  0
 79 80  1  0
 80 81  1  0
 81 82  2  0
 83 82  1  0
 83 87  1  0
 84 83  2  0
 85 80  2  0
 85 84  1  0
 86 85  1  0
 88 89  1  0
 89 92  1  0
 89 91  1  0
 90 88  2  0
 93 94  1  0
 93 68  1  0
 95 93  1  0
M  ISO  4   5 101   8 101  58 100  66 100
M  END
>  <TORSDO>  (10) 
F 18

>  <SCORE>  (10) 
-14.823

>  <name>  (10) 
9

>  <ligand_id>  (10) 
9

>  <original_smiles>  (10) 
[H]c1c([H])c([H])c2c(c1[H])C([H])([H])C([H])([H])C([H])([H])C2([H])N([H])C(=O)C1([H])N(C(=O)C([H])(N([H])C(=O)C([H])(N([H])C([H])([H])[H])C([H])([H])[H])C(C([H])([H])[H])(C([H])([H])[H])C([H])([H])[H])C([H])([H])c2c([H])c(OC3([H])C(=O)N(C([H])([H])c4c([H])c(F)c(N([H])C(=O)N5C([H])([H])C([H])([H])C([H])([H])C([H])(n6nc(-c7c([H])c([H])c(Oc8c([H])c([H])c(F)c([H])c8F)c([H])c7[H])c(C(=O)N([H])[H])c6N([H])[H])C5([H])[H])c([H])c4F)C([H])([H])C([H])([H])C3([H])[H])c([H])c([H])c2C1([H])[H]

>  <smiles>  (10) 
[H]c1c([H])c([H])c2c(c1[H])C([H])([H])C([H])([H])C([H])([H])C2([H])N([H])C(=O)C1([H])N(C(=O)C([H])(N([H])C(=O)C([H])(N([H])C([H])([H])[H])C([H])([H])[H])C(C([H])([H])[H])(C([H])([H])[H])C([H])([H])[H])C([H])([H])c2c([H])c(OC3([H])C(=O)N(C([H])([H])c4c([H])c(F)c(N([H])C(=O)N5C([H])([H])C([H])([H])C([H])([H])C([H])(n6nc(-c7c([H])c([H])c(Oc8c([H])c([H])c(F)c([H])c8F)c([H])c7[H])c(C(=O)N([H])[H])c6N([H])[H])C5([H])[H])c([H])c4F)C([H])([H])C([H])([H])C3([H])[H])c([H])c([H])c2C1([H])[H]

$$$$
10:0:0
     RDKit          3D

 96104  0  0  1  0  0  0  0  0999 V2000
  -28.2580  -21.7970   20.4290 C   0  0  0  0  0  0  0  0  0  0  0  0
  -28.9700  -24.3050   20.0190 C   0  0  0  0  0  0  0  0  0  0  0  0
  -27.5140  -23.5970   21.9330 C   0  0  0  0  0  1  0  0  0  0  0  0
  -28.2920  -23.1700   20.7200 N   0  0  0  0  0  0  0  0  0  0  0  0
  -27.2020  -21.1460   20.9460 N   0  0  0  0  0  4  0  0  0  0  0  0
  -29.7060  -24.1100   19.0530 O   0  0  0  0  0  0  0  0  0  0  0  0
  -26.4510  -21.6200   21.4140 H   0  0  0  0  0  0  0  0  0  0  0  0
  -27.1790  -20.1370   20.9100 H   0  0  0  0  0  0  0  0  0  0  0  0
  -30.1100  -20.2240   17.4430 C   0  0  0  0  0  3  0  0  0  0  0  0
  -29.4610  -21.1640   18.2690 C   0  0  0  0  0  3  0  0  0  0  0  0
  -30.3490  -18.9080   17.8890 C   0  0  0  0  0  3  0  0  0  0  0  0
  -29.1320  -20.8600   19.6100 C   0  0  0  0  0  0  0  0  0  0  0  0
  -29.9920  -18.5130   19.1940 C   0  0  0  0  0  0  0  0  0  0  0  0
  -29.4720  -19.5230   20.0750 C   0  0  0  0  0  0  0  0  0  0  0  0
  -29.2210  -19.0620   21.7320 Cl  0  0  0  0  0  0  0  0  0  0  0  0
  -29.9740  -16.9780   19.5300 C   0  0  0  0  0  2  0  0  0  0  0  0
  -31.7460  -15.0980   19.5170 C   0  0  0  0  0  0  0  0  0  0  0  0
  -31.4830  -12.7020   18.9350 C   0  0  0  0  0  2  0  0  0  0  0  0
  -30.5090  -12.5250   17.7550 C   0  0  0  0  0  2  0  0  0  0  0  0
  -29.0640  -12.3950   18.2690 C   0  0  0  0  0  2  0  0  0  0  0  0
  -28.7010  -13.4970   19.2980 C   0  0  0  0  0  3  0  0  0  0  0  0
  -29.8010  -13.6860   20.3690 C   0  0  0  0  0  2  0  0  0  0  0  0
  -31.0750  -13.9130   19.6790 N   0  0  0  0  0  0  0  0  0  0  0  0
  -32.8660  -15.1310   19.0120 O   0  0  0  0  0  0  0  0  0  0  0  0
  -31.2200  -16.2790   19.9440 N   0  0  0  0  0  0  0  0  0  0  0  0
  -31.9580  -16.9470   20.1080 H   0  0  0  0  0  0  0  0  0  0  0  0
  -26.4350  -14.2110   20.2670 C   0  0  0  0  0  0  0  0  0  0  0  0
  -25.3570  -13.4900   20.7030 C   0  0  0  0  0  0  0  0  0  0  0  0
  -25.7230  -12.1160   20.5710 C   0  0  0  0  0  0  0  0  0  0  0  0
  -27.3900  -13.2770   19.8970 N   0  0  0  0  0  0  0  0  0  0  0  0
  -26.9760  -12.0080   20.1430 N   0  0  0  0  0  0  0  0  0  0  0  0
  -24.9330  -10.8940   20.7710 C   0  0  0  0  0  0  0  0  0  0  0  0
  -25.2560   -9.9660   21.7850 C   0  0  0  0  0  3  0  0  0  0  0  0
  -24.4710   -8.8070   21.9700 C   0  0  0  0  0  3  0  0  0  0  0  0
  -23.3490   -8.5710   21.1400 C   0  0  0  0  0  0  0  0  0  0  0  0
  -23.0470   -9.4880   20.1160 C   0  0  0  0  0  3  0  0  0  0  0  0
  -23.8320  -10.6370   19.9310 C   0  0  0  0  0  3  0  0  0  0  0  0
  -22.5430   -7.4620   21.2300 O   0  0  0  0  0  0  0  0  0  0  0  0
  -22.1880   -6.9260   22.4420 C   0  0  0  0  0  0  0  0  0  0  0  0
  -21.4740   -7.6710   23.4070 C   0  0  0  0  0  3  0  0  0  0  0  0
  -21.0690   -7.0600   24.6100 C   0  0  0  0  0  3  0  0  0  0  0  0
  -21.3690   -5.7060   24.8490 C   0  0  0  0  0  0  0  0  0  0  0  0
  -22.0740   -4.9610   23.8870 C   0  0  0  0  0  3  0  0  0  0  0  0
  -22.4810   -5.5700   22.6880 C   0  0  0  0  0  0  0  0  0  0  0  0
  -23.1420   -4.8420   21.7560 F   0  0  0  0  0  0  0  0  0  0  0  0
  -20.9740   -5.1160   26.0010 F   0  0  0  0  0  0  0  0  0  0  0  0
  -24.0240  -14.0410   21.1210 C   0  0  0  0  0  0  0  0  0  0  0  0
  -23.3390  -13.3620   22.0320 N   0  0  0  0  0  0  0  0  0  0  0  0
  -23.6030  -15.1070   20.6720 O   0  0  0  0  0  0  0  0  0  0  0  0
  -23.6900  -12.4990   22.4180 H   0  0  0  0  0  0  0  0  0  0  0  0
  -22.4470  -13.7120   22.3510 H   0  0  0  0  0  0  0  0  0  0  0  0
  -26.6700  -15.5760   20.1280 N   0  0  0  0  0  0  0  0  0  0  0  0
  -25.9500  -16.2650   20.3270 H   0  0  0  0  0  0  0  0  0  0  0  0
  -27.4870  -15.9720   19.6830 H   0  0  0  0  0  0  0  0  0  0  0  0
  -28.7220  -25.7900   20.5440 C   0  0  0  0  0  2  0  0  0  0  0  0
  -28.7540  -26.8940   19.5700 O   0  0  0  0  0  0  0  0  0  0  0  0
  -24.5830  -31.6120   23.0330 C   0  0  0  0  0  0  0  0  0  0  0  0
  -27.5940  -27.6660   19.5730 C   0  0  0  0  0  0  0  0  0  0  0  0
  -23.5040  -30.2510   21.2760 C   0  0  0  0  0  3  0  0  0  0  0  0
  -25.0850  -28.9990   19.7100 C   0  0  0  0  0  0  0  0  0  0  0  0
  -25.9910  -30.8560   21.1080 C   0  0  0  0  0  2  0  0  0  0  0  0
  -26.2050  -29.5590   20.3410 C   0  0  0  0  0  0  0  0  0  0  0  0
  -27.4670  -28.9050   20.2660 C   0  0  0  0  0  3  0  0  0  0  0  0
  -26.4590  -27.1480   18.9180 C   0  0  0  0  0  3  0  0  0  0  0  0
  -25.2130  -27.7990   18.9890 C   0  0  0  0  0  3  0  0  0  0  0  0
  -23.7670  -29.7280   19.8400 C   0  0  0  0  0  2  0  0  0  0  0  0
  -24.7110  -30.9180   21.8640 N   0  0  0  0  0  0  0  0  0  0  0  0
  -23.4860  -31.7290   23.5970 O   0  0  0  0  0  0  0  0  0  0  0  0
  -22.9590  -29.0920   22.1420 C   0  0  0  0  0  0  0  0  0  0  0  0
  -21.6590  -28.7800   21.9940 N   0  0  0  0  0  0  0  0  0  0  0  0
  -23.7040  -28.4800   22.9110 O   0  0  0  0  0  0  0  0  0  0  0  0
  -21.1150  -29.3230   21.3370 H   0  0  0  0  0  0  0  0  0  0  0  0
  -18.4380  -27.1810   22.3450 C   0  0  0  0  0  0  0  0  0  0  0  0
  -20.9480  -27.7000   22.6810 C   0  0  0  0  0  3  0  0  0  0  0  0
  -21.2150  -26.3360   22.0010 C   0  0  0  0  0  2  0  0  0  0  0  0
  -20.1640  -25.9770   20.9470 C   0  0  0  0  0  2  0  0  0  0  0  0
  -18.7710  -25.9120   21.5810 C   0  0  0  0  0  2  0  0  0  0  0  0
  -19.4590  -28.0270   22.8550 C   0  0  0  0  0  0  0  0  0  0  0  0
  -19.0920  -29.2070   23.5370 C   0  0  0  0  0  3  0  0  0  0  0  0
  -17.7370  -29.5400   23.7220 C   0  0  0  0  0  3  0  0  0  0  0  0
  -16.7310  -28.6920   23.2280 C   0  0  0  0  0  3  0  0  0  0  0  0
  -17.0810  -27.5150   22.5410 C   0  0  0  0  0  3  0  0  0  0  0  0
  -25.8060  -32.3120   23.7030 C   0  0  0  0  0  3  0  0  0  0  0  0
  -26.3500  -31.5350   24.9640 C   0  0  1  0  0  0  0  0  0  0  0  0
  -25.2540  -31.1820   25.9960 C   0  0  0  0  0  1  0  0  0  0  0  0
  -27.0380  -30.2180   24.5360 C   0  0  0  0  0  1  0  0  0  0  0  0
  -27.4260  -32.3840   25.6810 C   0  0  0  0  0  1  0  0  0  0  0  0
  -25.3940  -33.6730   24.0730 N   0  0  0  0  0  0  0  0  0  0  0  0
  -25.6720  -34.7750   23.3630 C   0  0  0  0  0  0  0  0  0  0  0  0
  -26.3750  -34.7560   22.3480 O   0  0  0  0  0  0  0  0  0  0  0  0
  -24.7710  -33.7550   24.8650 H   0  0  0  0  0  0  0  0  0  0  0  0
  -23.8350  -36.4570   23.0240 C   0  0  0  0  0  1  0  0  0  0  0  0
  -25.0800  -36.1080   23.8550 C   0  0  0  0  0  3  0  0  0  0  0  0
  -27.1200  -37.1120   24.7840 C   0  0  0  0  0  1  0  0  0  0  0  0
  -26.0400  -37.2330   23.8080 N   0  0  0  0  0  0  0  0  0  0  0  0
  -25.5660  -38.1170   23.9700 H   0  0  0  0  0  0  0  0  0  0  0  0
  1  4  1  0
  1  5  2  0
  2 55  1  0
  2  4  1  0
  4  3  1  0
  5  7  1  0
  6  2  2  0
  8  5  1  0
  9 11  2  0
  9 10  1  0
 10 12  2  0
 11 13  1  0
 12 14  1  0
 12  1  1  0
 13 16  1  0
 13 14  2  0
 14 15  1  0
 16 25  1  0
 17 23  1  0
 17 25  1  0
 18 23  1  0
 19 20  1  0
 19 18  1  0
 21 20  1  0
 21 30  1  0
 21 22  1  0
 23 22  1  0
 24 17  2  0
 25 26  1  0
 27 28  2  0
 28 47  1  0
 29 28  1  0
 29 32  1  0
 30 31  1  0
 30 27  1  0
 31 29  2  0
 32 33  1  0
 33 34  2  0
 35 38  1  0
 35 34  1  0
 36 35  2  0
 37 36  1  0
 37 32  2  0
 38 39  1  0
 39 44  2  0
 39 40  1  0
 40 41  2  0
 41 42  1  0
 42 46  1  0
 43 42  2  0
 44 43  1  0
 45 44  1  0
 47 48  1  0
 48 51  1  0
 48 50  1  0
 49 47  2  0
 52 27  1  0
 52 53  1  0
 54 52  1  0
 56 58  1  0
 56 55  1  0
 57 68  2  0
 58 63  1  0
 59 67  1  0
 59 69  1  0
 60 66  1  0
 60 62  1  0
 61 67  1  0
 62 61  1  0
 63 62  2  0
 64 65  1  0
 64 58  2  0
 65 60  2  0
 66 59  1  0
 67 57  1  0
 69 71  2  0
 70 69  1  0
 72 70  1  0
 73 82  2  0
 73 78  1  0
 74 70  1  0
 74 78  1  0
 75 74  1  0
 76 77  1  0
 76 75  1  0
 77 73  1  0
 78 79  2  0
 79 80  1  0
 81 80  2  0
 82 81  1  0
 83 57  1  0
 83 88  1  0
 83 84  1  0
 84 87  1  1
 84 85  1  0
 86 84  1  0
 88 91  1  0
 89 93  1  0
 89 88  1  0
 90 89  2  0
 93 92  1  0
 95 93  1  0
 95 96  1  0
 95 94  1  0
M  ISO  4  17 100  25 100  55 101  56 101
M  END
>  <TORSDO>  (11) 
F 19

>  <SCORE>  (11) 
-10.393

>  <name>  (11) 
10

>  <ligand_id>  (11) 
10

>  <original_smiles>  (11) 
[H]c1c([H])c(C(N(C(=O)C([H])([H])Oc2c([H])c([H])c3c(c2[H])C([H])([H])N(C(=O)C([H])(N([H])C(=O)C([H])(N([H])C([H])([H])[H])C([H])([H])[H])C(C([H])([H])[H])(C([H])([H])[H])C([H])([H])[H])C([H])(C(=O)N([H])C2([H])c4c([H])c([H])c([H])c([H])c4C([H])([H])C([H])([H])C2([H])[H])C3([H])[H])C([H])([H])[H])=[N+]([H])[H])c(Cl)c(C([H])([H])N([H])C(=O)N2C([H])([H])C([H])([H])C([H])([H])C([H])(n3nc(-c4c([H])c([H])c(Oc5c([H])c([H])c(F)c([H])c5F)c([H])c4[H])c(C(=O)N([H])[H])c3N([H])[H])C2([H])[H])c1[H]

>  <smiles>  (11) 
[H]c1c([H])c(C(N(C(=O)C([H])([H])Oc2c([H])c([H])c3c(c2[H])C([H])([H])N(C(=O)C([H])(N([H])C(=O)C([H])(N([H])C([H])([H])[H])C([H])([H])[H])C(C([H])([H])[H])(C([H])([H])[H])C([H])([H])[H])C([H])(C(=O)N([H])C2([H])c4c([H])c([H])c([H])c([H])c4C([H])([H])C([H])([H])C2([H])[H])C3([H])[H])C([H])([H])[H])=[N+]([H])[H])c(Cl)c(C([H])([H])N([H])C(=O)N2C([H])([H])C([H])([H])C([H])([H])C([H])(n3nc(-c4c([H])c([H])c(Oc5c([H])c([H])c(F)c([H])c5F)c([H])c4[H])c(C(=O)N([H])[H])c3N([H])[H])C2([H])[H])c1[H]

$$$$
11:0:0
     RDKit          3D

 98107  0  0  1  0  0  0  0  0999 V2000
  -29.2750  -23.9170   20.0180 C   0  0  0  0  0  0  0  0  0  0  0  0
  -30.4250  -24.3960   19.5020 C   0  0  0  0  0  3  0  0  0  0  0  0
  -27.4190  -23.2020   22.1570 C   0  0  0  0  0  2  0  0  0  0  0  0
  -27.5460  -24.6830   21.7650 C   0  0  0  0  0  2  0  0  0  0  0  0
  -28.7660  -22.4650   22.0230 C   0  0  0  0  0  2  0  0  0  0  0  0
  -28.0580  -24.8960   20.3260 C   0  0  0  0  0  3  0  0  0  0  0  0
  -29.2360  -22.4450   20.6180 N   0  0  1  0  0  4  0  0  0  0  0  0
  -30.2040  -22.1890   20.7270 H   0  0  0  0  0  0  0  0  0  0  0  0
  -32.7730  -24.2150   18.8310 C   0  0  0  0  0  2  0  0  0  0  0  0
  -31.6860  -23.6830   19.4100 C   0  0  0  0  0  3  0  0  0  0  0  0
  -28.2930  -26.3870   20.1670 O   0  0  0  0  0  0  0  0  0  0  0  0
  -24.5950  -31.8550   23.2320 C   0  0  0  0  0  0  0  0  0  0  0  0
  -27.1960  -27.2830   20.1320 C   0  0  0  0  0  0  0  0  0  0  0  0
  -23.3960  -30.4800   21.5730 C   0  0  0  0  0  3  0  0  0  0  0  0
  -24.8460  -28.9430   20.1290 C   0  0  0  0  0  0  0  0  0  0  0  0
  -25.9410  -30.7830   21.4050 C   0  0  0  0  0  2  0  0  0  0  0  0
  -26.0190  -29.4080   20.7390 C   0  0  0  0  0  0  0  0  0  0  0  0
  -27.1980  -28.5930   20.7260 C   0  0  0  0  0  3  0  0  0  0  0  0
  -26.0010  -26.8930   19.4880 C   0  0  0  0  0  3  0  0  0  0  0  0
  -24.8440  -27.6930   19.4920 C   0  0  0  0  0  3  0  0  0  0  0  0
  -23.6140  -29.8230   20.1850 C   0  0  0  0  0  2  0  0  0  0  0  0
  -24.6640  -31.0560   22.1260 N   0  0  0  0  0  0  0  0  0  0  0  0
  -23.5100  -32.1280   23.7660 O   0  0  0  0  0  0  0  0  0  0  0  0
  -22.7260  -29.4530   22.5170 C   0  0  0  0  0  0  0  0  0  0  0  0
  -21.3980  -29.2840   22.3890 N   0  0  0  0  0  0  0  0  0  0  0  0
  -23.4000  -28.8120   23.3270 O   0  0  0  0  0  0  0  0  0  0  0  0
  -20.9120  -29.8540   21.7100 H   0  0  0  0  0  0  0  0  0  0  0  0
  -18.0120  -28.1070   22.8850 C   0  0  0  0  0  0  0  0  0  0  0  0
  -20.5750  -28.3400   23.1460 C   0  0  0  0  0  3  0  0  0  0  0  0
  -20.6610  -26.9190   22.5440 C   0  0  0  0  0  2  0  0  0  0  0  0
  -19.5510  -26.6240   21.5290 C   0  0  0  0  0  2  0  0  0  0  0  0
  -18.1740  -26.7690   22.1830 C   0  0  0  0  0  2  0  0  0  0  0  0
  -19.1400  -28.8510   23.3240 C   0  0  0  0  0  0  0  0  0  0  0  0
  -18.9350  -30.1040   23.9420 C   0  0  0  0  0  3  0  0  0  0  0  0
  -17.6340  -30.6130   24.1250 C   0  0  0  0  0  3  0  0  0  0  0  0
  -16.5220  -29.8640   23.7020 C   0  0  0  0  0  3  0  0  0  0  0  0
  -16.7120  -28.6130   23.0890 C   0  0  0  0  0  3  0  0  0  0  0  0
  -25.8760  -32.4790   23.8670 C   0  0  0  0  0  3  0  0  0  0  0  0
  -26.3740  -31.7040   25.1500 C   0  0  1  0  0  0  0  0  0  0  0  0
  -25.2680  -31.4760   26.2060 C   0  0  0  0  0  1  0  0  0  0  0  0
  -26.9490  -30.3210   24.7660 C   0  0  0  0  0  1  0  0  0  0  0  0
  -27.5240  -32.4890   25.8220 C   0  0  0  0  0  1  0  0  0  0  0  0
  -25.5730  -33.8790   24.1960 N   0  0  0  0  0  0  0  0  0  0  0  0
  -25.9050  -34.9310   23.4360 C   0  0  0  0  0  0  0  0  0  0  0  0
  -26.5690  -34.8240   22.4010 O   0  0  0  0  0  0  0  0  0  0  0  0
  -24.9830  -34.0360   25.0010 H   0  0  0  0  0  0  0  0  0  0  0  0
  -24.1770  -36.7280   23.0990 C   0  0  0  0  0  1  0  0  0  0  0  0
  -25.4270  -36.3220   23.8960 C   0  0  0  0  0  3  0  0  0  0  0  0
  -27.5720  -37.2060   24.7000 C   0  0  0  0  0  1  0  0  0  0  0  0
  -26.4600  -37.3730   23.7670 N   0  0  0  0  0  0  0  0  0  0  0  0
  -26.0580  -38.2940   23.9140 H   0  0  0  0  0  0  0  0  0  0  0  0
  -28.7060  -21.2000   19.8630 C   0  0  0  0  0  2  0  0  0  0  0  0
  -29.4160  -18.5830   20.2510 C   0  0  0  0  0  3  0  0  0  0  0  0
  -31.0690  -17.5090   18.8440 C   0  0  0  0  0  3  0  0  0  0  0  0
  -29.6000  -19.8830   19.5940 C   0  0  0  0  0  0  0  0  0  0  0  0
  -30.5220  -19.8890   18.5040 C   0  0  0  0  0  0  0  0  0  0  0  0
  -30.1290  -17.3560   19.8860 C   0  0  0  0  0  0  0  0  0  0  0  0
  -31.2620  -18.7280   18.1750 C   0  0  0  0  0  0  0  0  0  0  0  0
  -30.6960  -21.0900   17.5770 C   0  0  0  0  0  1  0  0  0  0  0  0
  -32.4010  -18.7470   16.8710 Cl  0  0  0  0  0  0  0  0  0  0  0  0
  -30.6170  -14.7980   20.2550 C   0  0  0  0  0  0  0  0  0  0  0  0
  -30.3690  -12.5010   19.3130 C   0  0  0  0  0  2  0  0  0  0  0  0
  -29.4290  -12.5670   18.0900 C   0  0  0  0  0  2  0  0  0  0  0  0
  -27.9620  -12.4150   18.5330 C   0  0  0  0  0  2  0  0  0  0  0  0
  -27.6040  -13.3260   19.7390 C   0  0  0  0  0  3  0  0  0  0  0  0
  -28.6710  -13.2600   20.8540 C   0  0  0  0  0  2  0  0  0  0  0  0
  -29.9640  -13.5830   20.2430 N   0  0  0  0  0  0  0  0  0  0  0  0
  -31.8120  -14.8280   19.9500 O   0  0  0  0  0  0  0  0  0  0  0  0
  -29.8880  -15.9780   20.4310 N   0  0  0  0  0  0  0  0  0  0  0  0
  -28.9800  -15.8390   20.8490 H   0  0  0  0  0  0  0  0  0  0  0  0
  -25.2360  -13.9440   20.4980 C   0  0  0  0  0  0  0  0  0  0  0  0
  -24.1640  -13.1830   20.8790 C   0  0  0  0  0  0  0  0  0  0  0  0
  -24.6070  -11.8250   20.8380 C   0  0  0  0  0  0  0  0  0  0  0  0
  -26.2630  -13.0520   20.2460 N   0  0  0  0  0  0  0  0  0  0  0  0
  -25.8950  -11.7720   20.5150 N   0  0  0  0  0  0  0  0  0  0  0  0
  -23.8660  -10.5730   21.0310 C   0  0  0  0  0  0  0  0  0  0  0  0
  -24.2940   -9.5940   21.9550 C   0  0  0  0  0  3  0  0  0  0  0  0
  -23.5510   -8.4080   22.1370 C   0  0  0  0  0  3  0  0  0  0  0  0
  -22.3650   -8.1910   21.3940 C   0  0  0  0  0  0  0  0  0  0  0  0
  -21.9560   -9.1590   20.4590 C   0  0  0  0  0  3  0  0  0  0  0  0
  -22.6990  -10.3370   20.2760 C   0  0  0  0  0  3  0  0  0  0  0  0
  -21.5940   -7.0580   21.4850 O   0  0  0  0  0  0  0  0  0  0  0  0
  -21.5490   -6.3090   22.6340 C   0  0  0  0  0  0  0  0  0  0  0  0
  -21.1410   -6.8610   23.8680 C   0  0  0  0  0  3  0  0  0  0  0  0
  -21.0420   -6.0390   25.0090 C   0  0  0  0  0  3  0  0  0  0  0  0
  -21.3400   -4.6670   24.9170 C   0  0  0  0  0  0  0  0  0  0  0  0
  -21.7410   -4.1150   23.6880 C   0  0  0  0  0  3  0  0  0  0  0  0
  -21.8420   -4.9330   22.5490 C   0  0  0  0  0  0  0  0  0  0  0  0
  -22.2080   -4.3910   21.3620 F   0  0  0  0  0  0  0  0  0  0  0  0
  -21.2380   -3.8760   26.0100 F   0  0  0  0  0  0  0  0  0  0  0  0
  -22.7760  -13.6790   21.1650 C   0  0  0  0  0  0  0  0  0  0  0  0
  -22.0500  -12.9940   22.0410 N   0  0  0  0  0  0  0  0  0  0  0  0
  -22.3470  -14.7100   20.6480 O   0  0  0  0  0  0  0  0  0  0  0  0
  -22.4100  -12.1600   22.4790 H   0  0  0  0  0  0  0  0  0  0  0  0
  -21.1190  -13.3080   22.2760 H   0  0  0  0  0  0  0  0  0  0  0  0
  -25.4160  -15.3130   20.3240 N   0  0  0  0  0  0  0  0  0  0  0  0
  -24.6540  -15.9740   20.4370 H   0  0  0  0  0  0  0  0  0  0  0  0
  -26.2570  -15.7390   19.9570 H   0  0  0  0  0  0  0  0  0  0  0  0
  1  6  1  0
  1  7  1  0
  2  1  2  0
  4  3  1  0
  5  3  1  0
  6 11  1  0
  6  4  1  0
  7  8  1  1
  7  5  1  0
  9 10  2  0
 10  2  1  0
 12 23  2  0
 13 11  1  0
 13 18  1  0
 14 22  1  0
 14 24  1  0
 15 21  1  0
 15 17  1  0
 16 22  1  0
 17 16  1  0
 18 17  2  0
 19 20  1  0
 19 13  2  0
 20 15  2  0
 21 14  1  0
 22 12  1  0
 24 26  2  0
 25 24  1  0
 27 25  1  0
 28 37  2  0
 28 33  1  0
 29 25  1  0
 29 33  1  0
 30 29  1  0
 31 32  1  0
 31 30  1  0
 32 28  1  0
 33 34  2  0
 34 35  1  0
 36 35  2  0
 37 36  1  0
 38 12  1  0
 38 43  1  0
 38 39  1  0
 39 42  1  1
 39 40  1  0
 41 39  1  0
 43 46  1  0
 44 48  1  0
 44 43  1  0
 45 44  2  0
 48 47  1  0
 50 48  1  0
 50 51  1  0
 50 49  1  0
 52  7  1  0
 54 57  2  0
 55 52  1  0
 55 53  2  0
 56 55  1  0
 57 53  1  0
 57 69  1  0
 58 56  2  0
 58 54  1  0
 59 56  1  0
 60 58  1  0
 61 69  1  0
 62 67  1  0
 63 64  1  0
 63 62  1  0
 65 64  1  0
 65 74  1  0
 65 66  1  0
 67 61  1  0
 67 66  1  0
 68 61  2  0
 69 70  1  0
 71 72  2  0
 72 91  1  0
 73 72  1  0
 73 76  1  0
 74 71  1  0
 74 75  1  0
 75 73  2  0
 76 77  1  0
 77 78  2  0
 79 82  1  0
 79 78  1  0
 80 79  2  0
 81 80  1  0
 81 76  2  0
 82 83  1  0
 83 84  1  0
 84 85  2  0
 86 85  1  0
 86 90  1  0
 87 86  2  0
 88 83  2  0
 88 87  1  0
 89 88  1  0
 91 92  1  0
 92 95  1  0
 92 94  1  0
 93 91  2  0
 96 97  1  0
 96 71  1  0
 98 96  1  0
M  ISO  4   6 101  11 101  61 100  69 100
M  END
>  <TORSDO>  (12) 
F 19

>  <SCORE>  (12) 
-14.240

>  <name>  (12) 
11

>  <ligand_id>  (12) 
11

>  <original_smiles>  (12) 
[H]C([H])=C([H])C([H])=C1C([H])(Oc2c([H])c([H])c3c(c2[H])C([H])([H])N(C(=O)C([H])(N([H])C(=O)C([H])(N([H])C([H])([H])[H])C([H])([H])[H])C(C([H])([H])[H])(C([H])([H])[H])C([H])([H])[H])C([H])(C(=O)N([H])C2([H])c4c([H])c([H])c([H])c([H])c4C([H])([H])C([H])([H])C2([H])[H])C3([H])[H])C([H])([H])C([H])([H])C([H])([H])[N+]1([H])C([H])([H])c1c([H])c(N([H])C(=O)N2C([H])([H])C([H])([H])C([H])([H])C([H])(n3nc(-c4c([H])c([H])c(Oc5c([H])c([H])c(F)c([H])c5F)c([H])c4[H])c(C(=O)N([H])[H])c3N([H])[H])C2([H])[H])c([H])c(Cl)c1C([H])([H])[H]

>  <smiles>  (12) 
[H]C([H])=C([H])C([H])=C1C([H])(Oc2c([H])c([H])c3c(c2[H])C([H])([H])N(C(=O)C([H])(N([H])C(=O)C([H])(N([H])C([H])([H])[H])C([H])([H])[H])C(C([H])([H])[H])(C([H])([H])[H])C([H])([H])[H])C([H])(C(=O)N([H])C2([H])c4c([H])c([H])c([H])c([H])c4C([H])([H])C([H])([H])C2([H])[H])C3([H])[H])C([H])([H])C([H])([H])C([H])([H])[N+]1([H])C([H])([H])c1c([H])c(N([H])C(=O)N2C([H])([H])C([H])([H])C([H])([H])C([H])(n3nc(-c4c([H])c([H])c(Oc5c([H])c([H])c(F)c([H])c5F)c([H])c4[H])c(C(=O)N([H])[H])c3N([H])[H])C2([H])[H])c([H])c(Cl)c1C([H])([H])[H]

$$$$
12:0:0
     RDKit          3D

 96105  0  0  1  0  0  0  0  0999 V2000
  -29.9880  -22.7530   21.5900 C   0  0  0  0  0  0  0  0  0  0  0  0
  -31.1890  -22.3630   22.0540 C   0  0  0  0  0  2  0  0  0  0  0  0
  -28.7050  -22.7880   22.4010 C   0  0  0  0  0  2  0  0  0  0  0  0
  -28.4430  -24.1760   23.0120 C   0  0  0  0  0  2  0  0  0  0  0  0
  -28.9070  -25.3590   22.1410 C   0  0  0  0  0  2  0  0  0  0  0  0
  -28.6540  -24.1110   19.8050 C   0  0  0  0  0  2  0  0  0  0  0  0
  -28.3070  -25.3440   20.7290 C   0  0  0  0  0  3  0  0  0  0  0  0
  -29.8030  -23.1930   20.1650 N   0  0  2  0  0  4  0  0  0  0  0  0
  -30.5940  -23.7930   19.9760 H   0  0  0  0  0  0  0  0  0  0  0  0
  -28.5260  -26.6590   20.1440 O   0  0  0  0  0  0  0  0  0  0  0  0
  -24.5980  -31.7890   23.2120 C   0  0  0  0  0  0  0  0  0  0  0  0
  -27.3920  -27.4510   20.0940 C   0  0  0  0  0  0  0  0  0  0  0  0
  -23.4640  -30.4100   21.5030 C   0  0  0  0  0  3  0  0  0  0  0  0
  -24.9840  -28.9390   20.0730 C   0  0  0  0  0  0  0  0  0  0  0  0
  -25.9900  -30.8140   21.3830 C   0  0  0  0  0  2  0  0  0  0  0  0
  -26.1190  -29.4610   20.7080 C   0  0  0  0  0  0  0  0  0  0  0  0
  -27.3310  -28.7250   20.7130 C   0  0  0  0  0  3  0  0  0  0  0  0
  -26.2460  -26.9570   19.4420 C   0  0  0  0  0  3  0  0  0  0  0  0
  -25.0430  -27.6900   19.4330 C   0  0  0  0  0  3  0  0  0  0  0  0
  -23.7240  -29.7760   20.1120 C   0  0  0  0  0  2  0  0  0  0  0  0
  -24.7010  -31.0170   22.0930 N   0  0  0  0  0  0  0  0  0  0  0  0
  -23.4970  -32.0270   23.7290 O   0  0  0  0  0  0  0  0  0  0  0  0
  -22.8040  -29.3520   22.4170 C   0  0  0  0  0  0  0  0  0  0  0  0
  -21.4790  -29.1790   22.2780 N   0  0  0  0  0  0  0  0  0  0  0  0
  -23.4830  -28.6900   23.2080 O   0  0  0  0  0  0  0  0  0  0  0  0
  -20.9920  -29.7640   21.6130 H   0  0  0  0  0  0  0  0  0  0  0  0
  -18.0880  -28.0290   22.7710 C   0  0  0  0  0  0  0  0  0  0  0  0
  -20.6560  -28.2130   23.0050 C   0  0  0  0  0  3  0  0  0  0  0  0
  -20.7150  -26.8190   22.3390 C   0  0  0  0  0  2  0  0  0  0  0  0
  -19.5870  -26.5860   21.3290 C   0  0  0  0  0  2  0  0  0  0  0  0
  -18.2210  -26.7210   22.0080 C   0  0  0  0  0  2  0  0  0  0  0  0
  -19.2320  -28.7380   23.2240 C   0  0  0  0  0  0  0  0  0  0  0  0
  -19.0550  -29.9660   23.8960 C   0  0  0  0  0  3  0  0  0  0  0  0
  -17.7650  -30.4860   24.1190 C   0  0  0  0  0  3  0  0  0  0  0  0
  -16.6360  -29.7730   23.6810 C   0  0  0  0  0  3  0  0  0  0  0  0
  -16.7980  -28.5450   23.0140 C   0  0  0  0  0  3  0  0  0  0  0  0
  -25.8530  -32.4270   23.8830 C   0  0  0  0  0  3  0  0  0  0  0  0
  -26.3190  -31.6650   25.1840 C   0  0  1  0  0  0  0  0  0  0  0  0
  -25.1820  -31.4250   26.2040 C   0  0  0  0  0  1  0  0  0  0  0  0
  -26.9270  -30.2900   24.8190 C   0  0  0  0  0  1  0  0  0  0  0  0
  -27.4370  -32.4680   25.8890 C   0  0  0  0  0  1  0  0  0  0  0  0
  -25.5310  -33.8280   24.1890 N   0  0  0  0  0  0  0  0  0  0  0  0
  -25.8860  -34.8730   23.4300 C   0  0  0  0  0  0  0  0  0  0  0  0
  -26.5910  -34.7600   22.4220 O   0  0  0  0  0  0  0  0  0  0  0  0
  -24.9130  -33.9900   24.9710 H   0  0  0  0  0  0  0  0  0  0  0  0
  -24.1620  -36.6500   22.9990 C   0  0  0  0  0  1  0  0  0  0  0  0
  -25.3790  -36.2650   23.8540 C   0  0  0  0  0  3  0  0  0  0  0  0
  -27.4840  -37.1670   24.7380 C   0  0  0  0  0  1  0  0  0  0  0  0
  -26.4100  -37.3210   23.7590 N   0  0  0  0  0  0  0  0  0  0  0  0
  -25.9970  -38.2420   23.8840 H   0  0  0  0  0  0  0  0  0  0  0  0
  -30.0210  -22.0950   19.1600 C   0  0  0  0  0  2  0  0  0  0  0  0
  -27.6210  -19.0920   19.6460 C   0  0  0  0  0  3  0  0  0  0  0  0
  -28.5150  -18.0250   19.8810 C   0  0  0  0  0  3  0  0  0  0  0  0
  -28.0980  -20.4040   19.4390 C   0  0  0  0  0  3  0  0  0  0  0  0
  -30.3720  -19.5910   19.7160 C   0  0  0  0  0  3  0  0  0  0  0  0
  -29.9060  -18.2600   19.9090 C   0  0  0  0  0  0  0  0  0  0  0  0
  -29.4820  -20.6760   19.4760 C   0  0  0  0  0  0  0  0  0  0  0  0
  -30.9150  -17.1270   20.1790 C   0  0  0  0  0  2  0  0  0  0  0  0
  -31.0910  -14.6390   19.9450 C   0  0  0  0  0  0  0  0  0  0  0  0
  -30.7480  -12.3820   19.0140 C   0  0  0  0  0  2  0  0  0  0  0  0
  -29.7880  -12.4830   17.8100 C   0  0  0  0  0  2  0  0  0  0  0  0
  -28.3200  -12.4100   18.2740 C   0  0  0  0  0  2  0  0  0  0  0  0
  -28.0140  -13.3620   19.4640 C   0  0  0  0  0  3  0  0  0  0  0  0
  -29.0870  -13.2380   20.5670 C   0  0  0  0  0  2  0  0  0  0  0  0
  -30.4000  -13.4680   19.9450 N   0  0  0  0  0  0  0  0  0  0  0  0
  -32.2360  -14.7320   19.4950 O   0  0  0  0  0  0  0  0  0  0  0  0
  -30.3940  -15.7460   20.2920 N   0  0  0  0  0  0  0  0  0  0  0  0
  -29.4440  -15.6230   20.6010 H   0  0  0  0  0  0  0  0  0  0  0  0
  -25.6800  -14.0810   20.2670 C   0  0  0  0  0  0  0  0  0  0  0  0
  -24.5900  -13.3590   20.6710 C   0  0  0  0  0  0  0  0  0  0  0  0
  -24.9830  -11.9860   20.6200 C   0  0  0  0  0  0  0  0  0  0  0  0
  -26.6710  -13.1500   19.9920 N   0  0  0  0  0  0  0  0  0  0  0  0
  -26.2580  -11.8860   20.2640 N   0  0  0  0  0  0  0  0  0  0  0  0
  -24.2060  -10.7590   20.8340 C   0  0  0  0  0  0  0  0  0  0  0  0
  -24.6010   -9.7900   21.7820 C   0  0  0  0  0  3  0  0  0  0  0  0
  -23.8260   -8.6260   21.9810 C   0  0  0  0  0  3  0  0  0  0  0  0
  -22.6430   -8.4230   21.2320 C   0  0  0  0  0  0  0  0  0  0  0  0
  -22.2670   -9.3810   20.2730 C   0  0  0  0  0  3  0  0  0  0  0  0
  -23.0420  -10.5360   20.0720 C   0  0  0  0  0  3  0  0  0  0  0  0
  -21.8440   -7.3110   21.3390 O   0  0  0  0  0  0  0  0  0  0  0  0
  -21.7270   -6.6200   22.5180 C   0  0  0  0  0  0  0  0  0  0  0  0
  -21.2830   -7.2410   23.7070 C   0  0  0  0  0  3  0  0  0  0  0  0
  -21.1110   -6.4760   24.8780 C   0  0  0  0  0  3  0  0  0  0  0  0
  -21.3730   -5.0930   24.8620 C   0  0  0  0  0  0  0  0  0  0  0  0
  -21.8080   -4.4730   23.6770 C   0  0  0  0  0  3  0  0  0  0  0  0
  -21.9820   -5.2340   22.5090 C   0  0  0  0  0  0  0  0  0  0  0  0
  -22.3830   -4.6270   21.3660 F   0  0  0  0  0  0  0  0  0  0  0  0
  -21.2000   -4.3560   25.9850 F   0  0  0  0  0  0  0  0  0  0  0  0
  -23.2270  -13.9000   20.9920 C   0  0  0  0  0  0  0  0  0  0  0  0
  -22.5060  -13.2480   21.8980 N   0  0  0  0  0  0  0  0  0  0  0  0
  -22.8100  -14.9340   20.4720 O   0  0  0  0  0  0  0  0  0  0  0  0
  -22.8530  -12.4100   22.3410 H   0  0  0  0  0  0  0  0  0  0  0  0
  -21.5930  -13.5940   22.1540 H   0  0  0  0  0  0  0  0  0  0  0  0
  -25.9090  -15.4430   20.0910 N   0  0  0  0  0  0  0  0  0  0  0  0
  -25.1890  -16.1390   20.2580 H   0  0  0  0  0  0  0  0  0  0  0  0
  -26.7630  -15.8420   19.7230 H   0  0  0  0  0  0  0  0  0  0  0  0
  1  2  2  0
  1  3  1  0
  3  4  1  0
  5  4  1  0
  6  8  1  0
  6  7  1  0
  7 10  1  0
  7  5  1  0
  8  1  1  0
  8  9  1  6
 11 22  2  0
 12 10  1  0
 12 17  1  0
 13 21  1  0
 13 23  1  0
 14 20  1  0
 14 16  1  0
 15 21  1  0
 16 17  2  0
 16 15  1  0
 18 12  2  0
 19 18  1  0
 19 14  2  0
 20 13  1  0
 21 11  1  0
 23 25  2  0
 24 23  1  0
 26 24  1  0
 27 36  2  0
 27 32  1  0
 28 24  1  0
 28 32  1  0
 29 28  1  0
 30 31  1  0
 30 29  1  0
 31 27  1  0
 32 33  2  0
 33 34  1  0
 35 34  2  0
 36 35  1  0
 37 11  1  0
 37 42  1  0
 37 38  1  0
 38 41  1  1
 38 39  1  0
 40 38  1  0
 42 45  1  0
 43 47  1  0
 43 42  1  0
 44 43  2  0
 47 46  1  0
 49 47  1  0
 49 50  1  0
 49 48  1  0
 51 57  1  0
 51  8  1  0
 52 53  1  0
 53 56  2  0
 54 57  1  0
 54 52  2  0
 55 56  1  0
 56 58  1  0
 57 55  2  0
 58 67  1  0
 59 65  1  0
 59 67  1  0
 60 65  1  0
 61 62  1  0
 61 60  1  0
 63 62  1  0
 63 72  1  0
 63 64  1  0
 65 64  1  0
 66 59  2  0
 67 68  1  0
 69 70  2  0
 70 89  1  0
 71 70  1  0
 71 74  1  0
 72 73  1  0
 72 69  1  0
 73 71  2  0
 74 75  1  0
 75 76  2  0
 77 80  1  0
 77 76  1  0
 78 77  2  0
 79 78  1  0
 79 74  2  0
 80 81  1  0
 81 82  1  0
 82 83  2  0
 84 83  1  0
 84 88  1  0
 85 84  2  0
 86 81  2  0
 86 85  1  0
 87 86  1  0
 89 90  1  0
 90 93  1  0
 90 92  1  0
 91 89  2  0
 94 95  1  0
 94 69  1  0
 96 94  1  0
M  ISO  4   7 101  10 101  59 100  67 100
M  END
>  <TORSDO>  (13) 
F 19

>  <SCORE>  (13) 
-13.653

>  <name>  (13) 
12

>  <ligand_id>  (13) 
12

>  <original_smiles>  (13) 
[H]C([H])=C1C([H])([H])C([H])([H])C([H])([H])C([H])(Oc2c([H])c([H])c3c(c2[H])C([H])([H])N(C(=O)C([H])(N([H])C(=O)C([H])(N([H])C([H])([H])[H])C([H])([H])[H])C(C([H])([H])[H])(C([H])([H])[H])C([H])([H])[H])C([H])(C(=O)N([H])C2([H])c4c([H])c([H])c([H])c([H])c4C([H])([H])C([H])([H])C2([H])[H])C3([H])[H])C([H])([H])[N+]1([H])C([H])([H])c1c([H])c([H])c([H])c(C([H])([H])N([H])C(=O)N2C([H])([H])C([H])([H])C([H])([H])C([H])(n3nc(-c4c([H])c([H])c(Oc5c([H])c([H])c(F)c([H])c5F)c([H])c4[H])c(C(=O)N([H])[H])c3N([H])[H])C2([H])[H])c1[H]

>  <smiles>  (13) 
[H]C([H])=C1C([H])([H])C([H])([H])C([H])([H])C([H])(Oc2c([H])c([H])c3c(c2[H])C([H])([H])N(C(=O)C([H])(N([H])C(=O)C([H])(N([H])C([H])([H])[H])C([H])([H])[H])C(C([H])([H])[H])(C([H])([H])[H])C([H])([H])[H])C([H])(C(=O)N([H])C2([H])c4c([H])c([H])c([H])c([H])c4C([H])([H])C([H])([H])C2([H])[H])C3([H])[H])C([H])([H])[N+]1([H])C([H])([H])c1c([H])c([H])c([H])c(C([H])([H])N([H])C(=O)N2C([H])([H])C([H])([H])C([H])([H])C([H])(n3nc(-c4c([H])c([H])c(Oc5c([H])c([H])c(F)c([H])c5F)c([H])c4[H])c(C(=O)N([H])[H])c3N([H])[H])C2([H])[H])c1[H]

$$$$
13:0:0
     RDKit          3D

 94103  0  0  1  0  0  0  0  0999 V2000
  -28.9300  -24.0220   20.6830 C   0  0  0  0  0  0  0  0  0  0  0  0
  -28.1530  -23.4450   17.9480 C   0  0  0  0  0  2  0  0  0  0  0  0
  -28.3730  -24.9090   18.3510 C   0  0  0  0  0  2  0  0  0  0  0  0
  -29.0770  -22.4900   18.7290 C   0  0  0  0  0  2  0  0  0  0  0  0
  -28.1090  -25.0890   19.8540 C   0  0  0  0  0  3  0  0  0  0  0  0
  -29.1390  -22.7460   20.1790 N   0  0  0  0  0  0  0  0  0  0  0  0
  -29.3030  -24.3310   21.8200 O   0  0  0  0  0  0  0  0  0  0  0  0
  -28.2670  -26.5150   20.2500 O   0  0  0  0  0  0  0  0  0  0  0  0
  -24.6210  -31.9480   23.2920 C   0  0  0  0  0  0  0  0  0  0  0  0
  -27.1550  -27.3780   20.1880 C   0  0  0  0  0  0  0  0  0  0  0  0
  -23.3880  -30.5720   21.6550 C   0  0  0  0  0  3  0  0  0  0  0  0
  -24.8080  -29.0210   20.2070 C   0  0  0  0  0  0  0  0  0  0  0  0
  -25.9290  -30.8630   21.4550 C   0  0  0  0  0  2  0  0  0  0  0  0
  -25.9870  -29.4880   20.8000 C   0  0  0  0  0  0  0  0  0  0  0  0
  -27.1610  -28.6770   20.7840 C   0  0  0  0  0  3  0  0  0  0  0  0
  -25.9520  -26.9760   19.5570 C   0  0  0  0  0  3  0  0  0  0  0  0
  -24.7930  -27.7700   19.5770 C   0  0  0  0  0  3  0  0  0  0  0  0
  -23.5830  -29.9070   20.2700 C   0  0  0  0  0  2  0  0  0  0  0  0
  -24.6650  -31.1440   22.1910 N   0  0  0  0  0  0  0  0  0  0  0  0
  -23.5450  -32.2350   23.8370 O   0  0  0  0  0  0  0  0  0  0  0  0
  -22.7230  -29.5550   22.6140 C   0  0  0  0  0  0  0  0  0  0  0  0
  -21.3980  -29.3780   22.4820 N   0  0  0  0  0  0  0  0  0  0  0  0
  -23.3980  -28.9320   23.4370 O   0  0  0  0  0  0  0  0  0  0  0  0
  -20.9120  -29.9330   21.7910 H   0  0  0  0  0  0  0  0  0  0  0  0
  -18.0230  -28.1630   22.9450 C   0  0  0  0  0  0  0  0  0  0  0  0
  -20.5740  -28.4440   23.2520 C   0  0  0  0  0  3  0  0  0  0  0  0
  -20.6960  -27.0070   22.6960 C   0  0  0  0  0  2  0  0  0  0  0  0
  -19.6110  -26.6630   21.6700 C   0  0  0  0  0  2  0  0  0  0  0  0
  -18.2190  -26.8060   22.2910 C   0  0  0  0  0  2  0  0  0  0  0  0
  -19.1290  -28.9390   23.3830 C   0  0  0  0  0  0  0  0  0  0  0  0
  -18.8910  -30.2080   23.9550 C   0  0  0  0  0  3  0  0  0  0  0  0
  -17.5810  -30.7010   24.0940 C   0  0  0  0  0  3  0  0  0  0  0  0
  -16.4880  -29.9230   23.6740 C   0  0  0  0  0  3  0  0  0  0  0  0
  -16.7100  -28.6560   23.1050 C   0  0  0  0  0  3  0  0  0  0  0  0
  -25.9170  -32.5630   23.9070 C   0  0  0  0  0  3  0  0  0  0  0  0
  -25.6300  -33.9670   24.2320 N   0  0  0  0  0  0  0  0  0  0  0  0
  -25.9620  -35.0100   23.4600 C   0  0  0  0  0  0  0  0  0  0  0  0
  -26.6120  -34.8910   22.4180 O   0  0  0  0  0  0  0  0  0  0  0  0
  -25.0520  -34.1340   25.0420 H   0  0  0  0  0  0  0  0  0  0  0  0
  -24.2400  -36.8150   23.1360 C   0  0  0  0  0  1  0  0  0  0  0  0
  -25.5000  -36.4080   23.9160 C   0  0  0  0  0  3  0  0  0  0  0  0
  -27.6660  -37.2810   24.6770 C   0  0  0  0  0  1  0  0  0  0  0  0
  -26.5390  -37.4490   23.7620 N   0  0  0  0  0  0  0  0  0  0  0  0
  -26.1460  -38.3740   23.9110 H   0  0  0  0  0  0  0  0  0  0  0  0
  -26.4240  -31.7880   25.1850 C   0  0  1  0  0  0  0  0  0  0  0  0
  -25.3310  -31.5730   26.2570 C   0  0  0  0  0  1  0  0  0  0  0  0
  -26.9840  -30.3990   24.7980 C   0  0  0  0  0  1  0  0  0  0  0  0
  -27.5890  -32.5660   25.8400 C   0  0  0  0  0  1  0  0  0  0  0  0
  -29.7700  -21.6610   21.0210 C   0  0  0  0  0  2  0  0  0  0  0  0
  -28.6430  -19.3630   20.2960 C   0  0  0  0  0  3  0  0  0  0  0  0
  -28.6840  -17.9380   20.2010 C   0  0  0  0  0  3  0  0  0  0  0  0
  -30.9470  -19.3490   20.9570 C   0  0  0  0  0  3  0  0  0  0  0  0
  -29.7790  -20.1150   20.6860 C   0  0  0  0  0  0  0  0  0  0  0  0
  -29.8470  -17.1710   20.4940 C   0  0  0  0  0  0  0  0  0  0  0  0
  -30.9920  -17.9240   20.8850 C   0  0  0  0  0  0  0  0  0  0  0  0
  -32.4470  -17.1510   21.4100 Cl  0  0  0  0  0  0  0  0  0  0  0  0
  -30.5080  -14.6880   20.0490 C   0  0  0  0  0  0  0  0  0  0  0  0
  -30.2350  -12.4790   18.9300 C   0  0  0  0  0  2  0  0  0  0  0  0
  -29.2170  -12.6350   17.7790 C   0  0  0  0  0  2  0  0  0  0  0  0
  -27.7730  -12.4630   18.2940 C   0  0  0  0  0  2  0  0  0  0  0  0
  -27.4920  -13.2920   19.5750 C   0  0  0  0  0  3  0  0  0  0  0  0
  -28.6170  -13.1020   20.6190 C   0  0  0  0  0  2  0  0  0  0  0  0
  -29.8890  -13.4650   19.9740 N   0  0  0  0  0  0  0  0  0  0  0  0
  -31.6250  -14.8650   19.5560 O   0  0  0  0  0  0  0  0  0  0  0  0
  -29.7300  -15.7090   20.5280 N   0  0  0  0  0  0  0  0  0  0  0  0
  -28.8210  -15.3800   20.8090 H   0  0  0  0  0  0  0  0  0  0  0  0
  -25.1440  -13.8710   20.4450 C   0  0  0  0  0  0  0  0  0  0  0  0
  -24.1020  -13.0890   20.8650 C   0  0  0  0  0  0  0  0  0  0  0  0
  -24.5640  -11.7390   20.7780 C   0  0  0  0  0  0  0  0  0  0  0  0
  -26.1750  -12.9980   20.1330 N   0  0  0  0  0  0  0  0  0  0  0  0
  -25.8340  -11.7100   20.3920 N   0  0  0  0  0  0  0  0  0  0  0  0
  -23.8510  -10.4720   20.9870 C   0  0  0  0  0  0  0  0  0  0  0  0
  -24.3260   -9.4980   21.8930 C   0  0  0  0  0  3  0  0  0  0  0  0
  -23.6140   -8.2960   22.0900 C   0  0  0  0  0  3  0  0  0  0  0  0
  -22.4130   -8.0580   21.3800 C   0  0  0  0  0  0  0  0  0  0  0  0
  -21.9580   -9.0200   20.4610 C   0  0  0  0  0  3  0  0  0  0  0  0
  -22.6700  -10.2140   20.2630 C   0  0  0  0  0  3  0  0  0  0  0  0
  -21.6700   -6.9080   21.4870 O   0  0  0  0  0  0  0  0  0  0  0  0
  -21.6560   -6.1640   22.6400 C   0  0  0  0  0  0  0  0  0  0  0  0
  -21.2700   -6.7180   23.8790 C   0  0  0  0  0  3  0  0  0  0  0  0
  -21.2030   -5.9010   25.0260 C   0  0  0  0  0  3  0  0  0  0  0  0
  -21.5150   -4.5300   24.9330 C   0  0  0  0  0  0  0  0  0  0  0  0
  -21.8950   -3.9770   23.6980 C   0  0  0  0  0  3  0  0  0  0  0  0
  -21.9620   -4.7910   22.5540 C   0  0  0  0  0  0  0  0  0  0  0  0
  -22.3090   -4.2480   21.3630 F   0  0  0  0  0  0  0  0  0  0  0  0
  -21.4430   -3.7440   26.0310 F   0  0  0  0  0  0  0  0  0  0  0  0
  -22.7230  -13.5570   21.2290 C   0  0  0  0  0  0  0  0  0  0  0  0
  -22.0490  -12.8420   22.1230 N   0  0  0  0  0  0  0  0  0  0  0  0
  -22.2530  -14.5920   20.7560 O   0  0  0  0  0  0  0  0  0  0  0  0
  -22.4430  -12.0060   22.5270 H   0  0  0  0  0  0  0  0  0  0  0  0
  -21.1270  -13.1370   22.4090 H   0  0  0  0  0  0  0  0  0  0  0  0
  -25.2930  -15.2460   20.2810 N   0  0  0  0  0  0  0  0  0  0  0  0
  -24.5230  -15.8880   20.4380 H   0  0  0  0  0  0  0  0  0  0  0  0
  -26.0980  -15.6880   19.8590 H   0  0  0  0  0  0  0  0  0  0  0  0
  1  7  2  0
  2  3  1  0
  2  4  1  0
  3  5  1  0
  4  6  1  0
  5  8  1  0
  5  1  1  0
  6  1  1  0
  6 49  1  0
  9 20  2  0
 10  8  1  0
 10 15  1  0
 11 19  1  0
 11 21  1  0
 12 18  1  0
 12 14  1  0
 13 19  1  0
 14 13  1  0
 15 14  2  0
 16 17  1  0
 16 10  2  0
 17 12  2  0
 18 11  1  0
 19  9  1  0
 21 23  2  0
 22 21  1  0
 24 22  1  0
 25 34  2  0
 25 30  1  0
 26 22  1  0
 26 30  1  0
 27 26  1  0
 28 29  1  0
 28 27  1  0
 29 25  1  0
 30 31  2  0
 31 32  1  0
 33 32  2  0
 34 33  1  0
 35  9  1  0
 35 36  1  0
 35 45  1  0
 36 39  1  0
 37 41  1  0
 37 36  1  0
 38 37  2  0
 41 40  1  0
 43 44  1  0
 43 41  1  0
 43 42  1  0
 45 48  1  1
 45 46  1  0
 47 45  1  0
 50 53  1  0
 51 50  2  0
 51 54  1  0
 53 52  2  0
 53 49  1  0
 54 65  1  0
 54 55  2  0
 55 52  1  0
 55 56  1  0
 57 65  1  0
 58 63  1  0
 59 60  1  0
 59 58  1  0
 61 60  1  0
 61 70  1  0
 61 62  1  0
 63 57  1  0
 63 62  1  0
 64 57  2  0
 65 66  1  0
 67 68  2  0
 68 87  1  0
 69 68  1  0
 69 72  1  0
 70 71  1  0
 70 67  1  0
 71 69  2  0
 72 73  1  0
 73 74  2  0
 75 78  1  0
 75 74  1  0
 76 75  2  0
 77 76  1  0
 77 72  2  0
 78 79  1  0
 79 80  1  0
 80 81  2  0
 82 81  1  0
 82 86  1  0
 83 82  2  0
 84 79  2  0
 84 83  1  0
 85 84  1  0
 87 88  1  0
 88 91  1  0
 88 90  1  0
 89 87  2  0
 92 93  1  0
 92 67  1  0
 94 92  1  0
M  ISO  4   5 101   8 101  57 100  65 100
M  END
>  <TORSDO>  (14) 
F 18

>  <SCORE>  (14) 
-14.188

>  <name>  (14) 
13

>  <ligand_id>  (14) 
13

>  <original_smiles>  (14) 
[H]c1c([H])c([H])c2c(c1[H])C([H])([H])C([H])([H])C([H])([H])C2([H])N([H])C(=O)C1([H])N(C(=O)C([H])(N([H])C(=O)C([H])(N([H])C([H])([H])[H])C([H])([H])[H])C(C([H])([H])[H])(C([H])([H])[H])C([H])([H])[H])C([H])([H])c2c([H])c(OC3([H])C(=O)N(C([H])([H])c4c([H])c([H])c(N([H])C(=O)N5C([H])([H])C([H])([H])C([H])([H])C([H])(n6nc(-c7c([H])c([H])c(Oc8c([H])c([H])c(F)c([H])c8F)c([H])c7[H])c(C(=O)N([H])[H])c6N([H])[H])C5([H])[H])c(Cl)c4[H])C([H])([H])C([H])([H])C3([H])[H])c([H])c([H])c2C1([H])[H]

>  <smiles>  (14) 
[H]c1c([H])c([H])c2c(c1[H])C([H])([H])C([H])([H])C([H])([H])C2([H])N([H])C(=O)C1([H])N(C(=O)C([H])(N([H])C(=O)C([H])(N([H])C([H])([H])[H])C([H])([H])[H])C(C([H])([H])[H])(C([H])([H])[H])C([H])([H])[H])C([H])([H])c2c([H])c(OC3([H])C(=O)N(C([H])([H])c4c([H])c([H])c(N([H])C(=O)N5C([H])([H])C([H])([H])C([H])([H])C([H])(n6nc(-c7c([H])c([H])c(Oc8c([H])c([H])c(F)c([H])c8F)c([H])c7[H])c(C(=O)N([H])[H])c6N([H])[H])C5([H])[H])c(Cl)c4[H])C([H])([H])C([H])([H])C3([H])[H])c([H])c([H])c2C1([H])[H]

$$$$
14:0:0
     RDKit          3D

 97106  0  0  1  0  0  0  0  0999 V2000
  -30.5580  -23.7010   19.5190 C   0  0  0  0  0  0  0  0  0  0  0  0
  -31.7820  -23.8740   20.0670 C   0  0  0  0  0  3  0  0  0  0  0  0
  -29.7100  -24.8420   18.9480 C   0  0  0  0  0  2  0  0  0  0  0  0
  -28.2150  -24.0020   20.8470 C   0  0  0  0  0  2  0  0  0  0  0  0
  -28.5960  -22.5090   20.4740 C   0  0  0  0  0  2  0  0  0  0  0  0
  -28.3610  -25.0540   19.6910 C   0  0  0  0  0  3  0  0  0  0  0  0
  -29.7330  -22.4440   19.5170 N   0  0  2  0  0  4  0  0  0  0  0  0
  -29.1910  -22.5500   18.6730 H   0  0  0  0  0  0  0  0  0  0  0  0
  -33.9030  -22.9250   20.8140 C   0  0  0  0  0  2  0  0  0  0  0  0
  -32.5610  -22.9030   20.8060 C   0  0  0  0  0  3  0  0  0  0  0  0
  -28.3490  -26.4460   20.1370 O   0  0  0  0  0  0  0  0  0  0  0  0
  -24.8860  -31.7520   23.4610 C   0  0  0  0  0  0  0  0  0  0  0  0
  -27.2000  -27.2310   20.1660 C   0  0  0  0  0  0  0  0  0  0  0  0
  -23.5630  -30.4660   21.8150 C   0  0  0  0  0  3  0  0  0  0  0  0
  -24.8900  -28.8950   20.3020 C   0  0  0  0  0  0  0  0  0  0  0  0
  -26.1030  -30.6850   21.5560 C   0  0  0  0  0  2  0  0  0  0  0  0
  -26.0950  -29.3290   20.8680 C   0  0  0  0  0  0  0  0  0  0  0  0
  -27.2480  -28.5080   20.7910 C   0  0  0  0  0  3  0  0  0  0  0  0
  -25.9710  -26.8210   19.6010 C   0  0  0  0  0  3  0  0  0  0  0  0
  -24.8270  -27.6430   19.6660 C   0  0  0  0  0  3  0  0  0  0  0  0
  -23.6970  -29.8180   20.4110 C   0  0  0  0  0  2  0  0  0  0  0  0
  -24.8720  -30.9820   22.3340 N   0  0  0  0  0  0  0  0  0  0  0  0
  -23.8350  -32.0630   24.0390 O   0  0  0  0  0  0  0  0  0  0  0  0
  -22.8840  -29.4520   22.7630 C   0  0  0  0  0  0  0  0  0  0  0  0
  -21.5730  -29.2300   22.5660 N   0  0  0  0  0  0  0  0  0  0  0  0
  -23.5350  -28.8650   23.6310 O   0  0  0  0  0  0  0  0  0  0  0  0
  -21.1090  -29.7580   21.8400 H   0  0  0  0  0  0  0  0  0  0  0  0
  -18.2420  -27.8530   22.8150 C   0  0  0  0  0  0  0  0  0  0  0  0
  -20.7400  -28.2890   23.3120 C   0  0  0  0  0  3  0  0  0  0  0  0
  -20.9820  -26.8370   22.8410 C   0  0  0  0  0  2  0  0  0  0  0  0
  -20.0080  -26.3860   21.7470 C   0  0  0  0  0  2  0  0  0  0  0  0
  -18.5610  -26.4820   22.2430 C   0  0  0  0  0  2  0  0  0  0  0  0
  -19.2660  -28.7080   23.3010 C   0  0  0  0  0  0  0  0  0  0  0  0
  -18.9180  -29.9870   23.7860 C   0  0  0  0  0  3  0  0  0  0  0  0
  -17.5760  -30.4120   23.7950 C   0  0  0  0  0  3  0  0  0  0  0  0
  -16.5640  -29.5560   23.3270 C   0  0  0  0  0  3  0  0  0  0  0  0
  -16.8970  -28.2780   22.8440 C   0  0  0  0  0  3  0  0  0  0  0  0
  -26.2180  -32.2990   24.0620 C   0  0  0  0  0  3  0  0  0  0  0  0
  -26.7200  -31.4780   25.3140 C   0  0  1  0  0  0  0  0  0  0  0  0
  -25.6350  -31.2740   26.3970 C   0  0  0  0  0  1  0  0  0  0  0  0
  -27.2280  -30.0810   24.8860 C   0  0  0  0  0  1  0  0  0  0  0  0
  -27.9180  -32.2040   25.9700 C   0  0  0  0  0  1  0  0  0  0  0  0
  -25.9970  -33.7070   24.4200 N   0  0  0  0  0  0  0  0  0  0  0  0
  -26.3280  -34.7510   23.6470 C   0  0  0  0  0  0  0  0  0  0  0  0
  -26.9230  -34.6270   22.5740 O   0  0  0  0  0  0  0  0  0  0  0  0
  -25.4630  -33.8810   25.2590 H   0  0  0  0  0  0  0  0  0  0  0  0
  -24.6500  -36.6160   23.4390 C   0  0  0  0  0  1  0  0  0  0  0  0
  -25.9360  -36.1550   24.1460 C   0  0  0  0  0  3  0  0  0  0  0  0
  -28.1600  -36.9570   24.8100 C   0  0  0  0  0  1  0  0  0  0  0  0
  -26.9980  -37.1670   23.9510 N   0  0  0  0  0  0  0  0  0  0  0  0
  -26.6390  -38.1030   24.1260 H   0  0  0  0  0  0  0  0  0  0  0  0
  -30.3880  -21.1450   19.0860 C   0  0  0  0  0  2  0  0  0  0  0  0
  -31.0720  -19.0920   20.5240 C   0  0  0  0  0  3  0  0  0  0  0  0
  -31.0120  -17.6970   20.8080 C   0  0  0  0  0  3  0  0  0  0  0  0
  -29.0790  -18.9130   19.1780 C   0  0  0  0  0  3  0  0  0  0  0  0
  -30.1170  -19.7280   19.6860 C   0  0  0  0  0  0  0  0  0  0  0  0
  -29.0090  -17.5200   19.4630 C   0  0  0  0  0  0  0  0  0  0  0  0
  -29.9890  -16.8770   20.2710 C   0  0  0  0  0  0  0  0  0  0  0  0
  -27.8800  -16.7230   18.8410 C   0  0  0  0  0  1  0  0  0  0  0  0
  -30.6810  -14.4260   20.3040 C   0  0  0  0  0  0  0  0  0  0  0  0
  -30.4660  -12.1680   19.3080 C   0  0  0  0  0  2  0  0  0  0  0  0
  -29.4680  -12.2570   18.1310 C   0  0  0  0  0  2  0  0  0  0  0  0
  -28.0220  -12.0660   18.6270 C   0  0  0  0  0  2  0  0  0  0  0  0
  -27.6890  -12.9490   19.8590 C   0  0  0  0  0  3  0  0  0  0  0  0
  -28.7980  -12.8600   20.9330 C   0  0  0  0  0  2  0  0  0  0  0  0
  -30.0790  -13.1990   20.2900 N   0  0  0  0  0  0  0  0  0  0  0  0
  -31.8300  -14.5970   19.8890 O   0  0  0  0  0  0  0  0  0  0  0  0
  -29.8650  -15.4710   20.6140 N   0  0  0  0  0  0  0  0  0  0  0  0
  -28.9350  -15.1760   20.8650 H   0  0  0  0  0  0  0  0  0  0  0  0
  -25.3270  -13.5120   20.7060 C   0  0  0  0  0  0  0  0  0  0  0  0
  -24.2820  -12.7200   21.0970 C   0  0  0  0  0  0  0  0  0  0  0  0
  -24.7550  -11.3750   21.0130 C   0  0  0  0  0  0  0  0  0  0  0  0
  -26.3670  -12.6480   20.4010 N   0  0  0  0  0  0  0  0  0  0  0  0
  -26.0310  -11.3550   20.6470 N   0  0  0  0  0  0  0  0  0  0  0  0
  -24.0490  -10.1030   21.2070 C   0  0  0  0  0  0  0  0  0  0  0  0
  -24.4660   -9.1700   22.1810 C   0  0  0  0  0  3  0  0  0  0  0  0
  -23.7610   -7.9610   22.3640 C   0  0  0  0  0  3  0  0  0  0  0  0
  -22.6240   -7.6770   21.5700 C   0  0  0  0  0  0  0  0  0  0  0  0
  -22.2260   -8.6000   20.5860 C   0  0  0  0  0  3  0  0  0  0  0  0
  -22.9330   -9.8000   20.4030 C   0  0  0  0  0  3  0  0  0  0  0  0
  -21.8940   -6.5180   21.6570 O   0  0  0  0  0  0  0  0  0  0  0  0
  -21.7400   -5.8530   22.8460 C   0  0  0  0  0  0  0  0  0  0  0  0
  -21.1380   -6.4640   23.9680 C   0  0  0  0  0  3  0  0  0  0  0  0
  -20.9360   -5.7230   25.1500 C   0  0  0  0  0  3  0  0  0  0  0  0
  -21.3260   -4.3710   25.2090 C   0  0  0  0  0  0  0  0  0  0  0  0
  -21.9200   -3.7590   24.0910 C   0  0  0  0  0  3  0  0  0  0  0  0
  -22.1240   -4.4970   22.9120 C   0  0  0  0  0  0  0  0  0  0  0  0
  -22.6770   -3.8980   21.8310 F   0  0  0  0  0  0  0  0  0  0  0  0
  -21.1240   -3.6570   26.3400 F   0  0  0  0  0  0  0  0  0  0  0  0
  -22.8960  -13.1790   21.4450 C   0  0  0  0  0  0  0  0  0  0  0  0
  -22.2100  -12.4510   22.3200 N   0  0  0  0  0  0  0  0  0  0  0  0
  -22.4290  -14.2160   20.9750 O   0  0  0  0  0  0  0  0  0  0  0  0
  -22.6000  -11.6090   22.7180 H   0  0  0  0  0  0  0  0  0  0  0  0
  -21.2850  -12.7450   22.5980 H   0  0  0  0  0  0  0  0  0  0  0  0
  -25.4700  -14.8880   20.5710 N   0  0  0  0  0  0  0  0  0  0  0  0
  -24.7120  -15.5340   20.7600 H   0  0  0  0  0  0  0  0  0  0  0  0
  -26.3230  -15.3470   20.2860 H   0  0  0  0  0  0  0  0  0  0  0  0
  1  2  2  0
  2 10  1  0
  3  1  1  0
  3  6  1  0
  5  4  1  0
  6 11  1  0
  6  4  1  0
  7  1  1  0
  7  5  1  0
  7  8  1  6
 10  9  2  0
 11 13  1  0
 12 23  2  0
 13 18  1  0
 14 22  1  0
 14 24  1  0
 15 21  1  0
 15 17  1  0
 16 22  1  0
 17 16  1  0
 18 17  2  0
 19 20  1  0
 19 13  2  0
 20 15  2  0
 21 14  1  0
 22 12  1  0
 24 26  2  0
 25 24  1  0
 27 25  1  0
 28 37  2  0
 28 33  1  0
 29 25  1  0
 30 29  1  0
 31 32  1  0
 31 30  1  0
 32 28  1  0
 33 29  1  0
 33 34  2  0
 34 35  1  0
 36 35  2  0
 37 36  1  0
 38 12  1  0
 38 43  1  0
 38 39  1  0
 39 42  1  1
 39 40  1  0
 41 39  1  0
 43 46  1  0
 44 48  1  0
 44 43  1  0
 45 44  2  0
 48 47  1  0
 50 51  1  0
 50 48  1  0
 50 49  1  0
 52  7  1  0
 52 56  1  0
 53 54  1  0
 55 57  2  0
 55 56  1  0
 56 53  2  0
 57 58  1  0
 58 68  1  0
 58 54  2  0
 59 57  1  0
 60 68  1  0
 61 66  1  0
 62 63  1  0
 62 61  1  0
 64 63  1  0
 64 73  1  0
 64 65  1  0
 66 60  1  0
 66 65  1  0
 67 60  2  0
 68 69  1  0
 70 71  2  0
 71 90  1  0
 72 71  1  0
 72 75  1  0
 73 74  1  0
 73 70  1  0
 74 72  2  0
 75 76  1  0
 76 77  2  0
 78 81  1  0
 78 77  1  0
 79 78  2  0
 80 79  1  0
 80 75  2  0
 81 82  1  0
 82 87  2  0
 82 83  1  0
 83 84  2  0
 84 85  1  0
 85 89  1  0
 86 85  2  0
 87 86  1  0
 88 87  1  0
 90 91  1  0
 91 94  1  0
 91 93  1  0
 92 90  2  0
 95 70  1  0
 95 96  1  0
 97 95  1  0
M  ISO  4   6 101  11 101  60 100  68 100
M  END
>  <TORSDO>  (15) 
F 19

>  <SCORE>  (15) 
-12.344

>  <name>  (15) 
14

>  <ligand_id>  (15) 
14

>  <original_smiles>  (15) 
[H]C([H])=C([H])C([H])=C1C([H])([H])C([H])(Oc2c([H])c([H])c3c(c2[H])C([H])([H])N(C(=O)C([H])(N([H])C(=O)C([H])(N([H])C([H])([H])[H])C([H])([H])[H])C(C([H])([H])[H])(C([H])([H])[H])C([H])([H])[H])C([H])(C(=O)N([H])C2([H])c4c([H])c([H])c([H])c([H])c4C([H])([H])C([H])([H])C2([H])[H])C3([H])[H])C([H])([H])C([H])([H])[N+]1([H])C([H])([H])c1c([H])c([H])c(N([H])C(=O)N2C([H])([H])C([H])([H])C([H])([H])C([H])(n3nc(-c4c([H])c([H])c(Oc5c([H])c([H])c(F)c([H])c5F)c([H])c4[H])c(C(=O)N([H])[H])c3N([H])[H])C2([H])[H])c(C([H])([H])[H])c1[H]

>  <smiles>  (15) 
[H]C([H])=C([H])C([H])=C1C([H])([H])C([H])(Oc2c([H])c([H])c3c(c2[H])C([H])([H])N(C(=O)C([H])(N([H])C(=O)C([H])(N([H])C([H])([H])[H])C([H])([H])[H])C(C([H])([H])[H])(C([H])([H])[H])C([H])([H])[H])C([H])(C(=O)N([H])C2([H])c4c([H])c([H])c([H])c([H])c4C([H])([H])C([H])([H])C2([H])[H])C3([H])[H])C([H])([H])C([H])([H])[N+]1([H])C([H])([H])c1c([H])c([H])c(N([H])C(=O)N2C([H])([H])C([H])([H])C([H])([H])C([H])(n3nc(-c4c([H])c([H])c(Oc5c([H])c([H])c(F)c([H])c5F)c([H])c4[H])c(C(=O)N([H])[H])c3N([H])[H])C2([H])[H])c(C([H])([H])[H])c1[H]

$$$$
15:0:0
     RDKit          3D

 97106  0  0  1  0  0  0  0  0999 V2000
  -29.7680  -23.2470   21.0630 C   0  0  0  0  0  0  0  0  0  0  0  0
  -30.1590  -23.4140   22.3490 C   0  0  0  0  0  3  0  0  0  0  0  0
  -29.8050  -24.4310   20.0740 C   0  0  0  0  0  2  0  0  0  0  0  0
  -27.3270  -24.1510   20.5000 C   0  0  0  0  0  2  0  0  0  0  0  0
  -27.5270  -22.5880   20.3090 C   0  0  0  0  0  2  0  0  0  0  0  0
  -28.3960  -25.0560   19.7890 C   0  0  0  0  0  3  0  0  0  0  0  0
  -28.9450  -22.1100   20.4710 N   0  0  2  0  0  4  0  0  0  0  0  0
  -29.2800  -22.0130   19.5270 H   0  0  0  0  0  0  0  0  0  0  0  0
  -30.2920  -22.9930   24.7370 C   0  0  0  0  0  2  0  0  0  0  0  0
  -29.9250  -22.5800   23.5130 C   0  0  0  0  0  3  0  0  0  0  0  0
  -28.4110  -26.4900   20.1610 O   0  0  0  0  0  0  0  0  0  0  0  0
  -24.6030  -31.8010   23.1480 C   0  0  0  0  0  0  0  0  0  0  0  0
  -27.2700  -27.2940   20.0860 C   0  0  0  0  0  0  0  0  0  0  0  0
  -23.4260  -30.4140   21.4780 C   0  0  0  0  0  3  0  0  0  0  0  0
  -24.8990  -28.8790   20.0620 C   0  0  0  0  0  0  0  0  0  0  0  0
  -25.9640  -30.7490   21.3300 C   0  0  0  0  0  2  0  0  0  0  0  0
  -26.0550  -29.3760   20.6740 C   0  0  0  0  0  0  0  0  0  0  0  0
  -27.2430  -28.5920   20.6810 C   0  0  0  0  0  3  0  0  0  0  0  0
  -26.0930  -26.8450   19.4480 C   0  0  0  0  0  3  0  0  0  0  0  0
  -24.9150  -27.6150   19.4500 C   0  0  0  0  0  3  0  0  0  0  0  0
  -23.6610  -29.7470   20.0960 C   0  0  0  0  0  2  0  0  0  0  0  0
  -24.6820  -31.0060   22.0430 N   0  0  0  0  0  0  0  0  0  0  0  0
  -23.5120  -32.0690   23.6720 O   0  0  0  0  0  0  0  0  0  0  0  0
  -22.7550  -29.3870   22.4200 C   0  0  0  0  0  0  0  0  0  0  0  0
  -21.4260  -29.2340   22.2980 N   0  0  0  0  0  0  0  0  0  0  0  0
  -23.4300  -28.7290   23.2170 O   0  0  0  0  0  0  0  0  0  0  0  0
  -20.9440  -29.8150   21.6260 H   0  0  0  0  0  0  0  0  0  0  0  0
  -18.0230  -28.1360   22.8390 C   0  0  0  0  0  0  0  0  0  0  0  0
  -20.5960  -28.2930   23.0510 C   0  0  0  0  0  3  0  0  0  0  0  0
  -20.6320  -26.8860   22.4130 C   0  0  0  0  0  2  0  0  0  0  0  0
  -19.4940  -26.6450   21.4170 C   0  0  0  0  0  2  0  0  0  0  0  0
  -18.1350  -26.8110   22.1040 C   0  0  0  0  0  2  0  0  0  0  0  0
  -19.1800  -28.8390   23.2700 C   0  0  0  0  0  0  0  0  0  0  0  0
  -19.0220  -30.0830   23.9190 C   0  0  0  0  0  3  0  0  0  0  0  0
  -17.7410  -30.6220   24.1400 C   0  0  0  0  0  3  0  0  0  0  0  0
  -16.6000  -29.9130   23.7270 C   0  0  0  0  0  3  0  0  0  0  0  0
  -16.7420  -28.6720   23.0810 C   0  0  0  0  0  3  0  0  0  0  0  0
  -25.8750  -32.4300   23.7960 C   0  0  0  0  0  3  0  0  0  0  0  0
  -26.3790  -31.6430   25.0660 C   0  0  1  0  0  0  0  0  0  0  0  0
  -25.2740  -31.3820   26.1160 C   0  0  0  0  0  1  0  0  0  0  0  0
  -26.9730  -30.2760   24.6600 C   0  0  0  0  0  1  0  0  0  0  0  0
  -27.5190  -32.4330   25.7510 C   0  0  0  0  0  1  0  0  0  0  0  0
  -25.5570  -33.8240   24.1400 N   0  0  0  0  0  0  0  0  0  0  0  0
  -25.8940  -34.8880   23.3990 C   0  0  0  0  0  0  0  0  0  0  0  0
  -26.5740  -34.8000   22.3730 O   0  0  0  0  0  0  0  0  0  0  0  0
  -24.9510  -33.9660   24.9360 H   0  0  0  0  0  0  0  0  0  0  0  0
  -24.1620  -36.6770   23.0480 C   0  0  0  0  0  1  0  0  0  0  0  0
  -25.3960  -36.2680   23.8700 C   0  0  0  0  0  3  0  0  0  0  0  0
  -27.5210  -37.1450   24.7320 C   0  0  0  0  0  1  0  0  0  0  0  0
  -26.4220  -37.3290   23.7870 N   0  0  0  0  0  0  0  0  0  0  0  0
  -26.0100  -38.2420   23.9590 H   0  0  0  0  0  0  0  0  0  0  0  0
  -29.1280  -20.6950   21.0350 C   0  0  0  0  0  2  0  0  0  0  0  0
  -29.4530  -18.1130   20.7360 C   0  0  0  0  0  3  0  0  0  0  0  0
  -29.1420  -19.4640   18.7300 C   0  0  0  0  0  3  0  0  0  0  0  0
  -29.5400  -17.0430   18.5590 C   0  0  0  0  0  3  0  0  0  0  0  0
  -29.2150  -19.4060   20.1400 C   0  0  0  0  0  0  0  0  0  0  0  0
  -29.6410  -16.9160   19.9620 C   0  0  0  0  0  0  0  0  0  0  0  0
  -29.2910  -18.2930   17.9550 C   0  0  0  0  0  0  0  0  0  0  0  0
  -29.1630  -18.3850   16.2370 Cl  0  0  0  0  0  0  0  0  0  0  0  0
  -30.5330  -14.5470   20.0300 C   0  0  0  0  0  0  0  0  0  0  0  0
  -30.2370  -12.3500   18.9210 C   0  0  0  0  0  2  0  0  0  0  0  0
  -29.2330  -12.5490   17.7620 C   0  0  0  0  0  2  0  0  0  0  0  0
  -27.7810  -12.4060   18.2640 C   0  0  0  0  0  2  0  0  0  0  0  0
  -27.5140  -13.2210   19.5580 C   0  0  0  0  0  3  0  0  0  0  0  0
  -28.6260  -12.9950   20.6060 C   0  0  0  0  0  2  0  0  0  0  0  0
  -29.9080  -13.3320   19.9750 N   0  0  0  0  0  0  0  0  0  0  0  0
  -31.6450  -14.7250   19.5220 O   0  0  0  0  0  0  0  0  0  0  0  0
  -29.8150  -15.5920   20.5470 N   0  0  0  0  0  0  0  0  0  0  0  0
  -29.0680  -15.3050   21.1620 H   0  0  0  0  0  0  0  0  0  0  0  0
  -25.1740  -13.8290   20.4210 C   0  0  0  0  0  0  0  0  0  0  0  0
  -24.1190  -13.0600   20.8370 C   0  0  0  0  0  0  0  0  0  0  0  0
  -24.5660  -11.7040   20.7570 C   0  0  0  0  0  0  0  0  0  0  0  0
  -26.1910  -12.9420   20.1110 N   0  0  0  0  0  0  0  0  0  0  0  0
  -25.8350  -11.6590   20.3710 N   0  0  0  0  0  0  0  0  0  0  0  0
  -23.8390  -10.4450   20.9680 C   0  0  0  0  0  0  0  0  0  0  0  0
  -24.2900   -9.4850   21.9000 C   0  0  0  0  0  3  0  0  0  0  0  0
  -23.5690   -8.2880   22.1010 C   0  0  0  0  0  3  0  0  0  0  0  0
  -22.3830   -8.0440   21.3690 C   0  0  0  0  0  0  0  0  0  0  0  0
  -21.9510   -8.9930   20.4260 C   0  0  0  0  0  3  0  0  0  0  0  0
  -22.6730  -10.1810   20.2230 C   0  0  0  0  0  3  0  0  0  0  0  0
  -21.6300   -6.8990   21.4790 O   0  0  0  0  0  0  0  0  0  0  0  0
  -21.5740   -6.1820   22.6460 C   0  0  0  0  0  0  0  0  0  0  0  0
  -21.1260   -6.7600   23.8550 C   0  0  0  0  0  3  0  0  0  0  0  0
  -21.0180   -5.9690   25.0160 C   0  0  0  0  0  3  0  0  0  0  0  0
  -21.3470   -4.6010   24.9700 C   0  0  0  0  0  0  0  0  0  0  0  0
  -21.7870   -4.0220   23.7660 C   0  0  0  0  0  3  0  0  0  0  0  0
  -21.8970   -4.8110   22.6080 C   0  0  0  0  0  0  0  0  0  0  0  0
  -22.3010   -4.2430   21.4460 F   0  0  0  0  0  0  0  0  0  0  0  0
  -21.2350   -3.8390   26.0830 F   0  0  0  0  0  0  0  0  0  0  0  0
  -22.7470  -13.5440   21.1970 C   0  0  0  0  0  0  0  0  0  0  0  0
  -22.0620  -12.8350   22.0910 N   0  0  0  0  0  0  0  0  0  0  0  0
  -22.2890  -14.5830   20.7240 O   0  0  0  0  0  0  0  0  0  0  0  0
  -22.4430  -11.9930   22.4940 H   0  0  0  0  0  0  0  0  0  0  0  0
  -21.1410  -13.1410   22.3710 H   0  0  0  0  0  0  0  0  0  0  0  0
  -25.3480  -15.2010   20.2610 N   0  0  0  0  0  0  0  0  0  0  0  0
  -24.6060  -15.8730   20.4220 H   0  0  0  0  0  0  0  0  0  0  0  0
  -26.1980  -15.6270   19.9140 H   0  0  0  0  0  0  0  0  0  0  0  0
  1  2  2  0
  2 10  1  0
  3  1  1  0
  5  7  1  0
  5  4  1  0
  6  3  1  0
  6 11  1  0
  6  4  1  0
  7 52  1  0
  7  1  1  0
  7  8  1  6
 10  9  2  0
 12 23  2  0
 13 11  1  0
 13 18  1  0
 14 22  1  0
 14 24  1  0
 15 21  1  0
 15 17  1  0
 16 22  1  0
 17 18  2  0
 17 16  1  0
 19 20  1  0
 19 13  2  0
 20 15  2  0
 21 14  1  0
 22 12  1  0
 24 26  2  0
 25 24  1  0
 27 25  1  0
 28 37  2  0
 28 33  1  0
 29 25  1  0
 29 33  1  0
 30 29  1  0
 31 32  1  0
 31 30  1  0
 32 28  1  0
 33 34  2  0
 34 35  1  0
 36 35  2  0
 37 36  1  0
 38 12  1  0
 38 43  1  0
 38 39  1  0
 39 42  1  1
 39 40  1  0
 41 39  1  0
 43 46  1  0
 44 48  1  0
 44 43  1  0
 45 44  2  0
 48 47  1  0
 50 48  1  0
 50 51  1  0
 50 49  1  0
 54 56  2  0
 55 57  1  0
 56 53  1  0
 56 52  1  0
 57 68  1  0
 57 53  2  0
 58 55  2  0
 58 54  1  0
 59 58  1  0
 60 68  1  0
 61 66  1  0
 62 63  1  0
 62 61  1  0
 64 63  1  0
 64 73  1  0
 64 65  1  0
 66 60  1  0
 66 65  1  0
 67 60  2  0
 68 69  1  0
 70 71  2  0
 71 90  1  0
 72 71  1  0
 72 75  1  0
 73 74  1  0
 73 70  1  0
 74 72  2  0
 75 76  1  0
 76 77  2  0
 78 81  1  0
 78 77  1  0
 79 78  2  0
 80 79  1  0
 80 75  2  0
 81 82  1  0
 82 83  1  0
 83 84  2  0
 85 84  1  0
 85 89  1  0
 86 85  2  0
 87 82  2  0
 87 86  1  0
 88 87  1  0
 90 91  1  0
 91 94  1  0
 91 93  1  0
 92 90  2  0
 95 70  1  0
 95 96  1  0
 97 95  1  0
M  ISO  4   6 101  11 101  60 100  68 100
M  END
>  <TORSDO>  (16) 
F 19

>  <SCORE>  (16) 
-13.852

>  <name>  (16) 
15

>  <ligand_id>  (16) 
15

>  <original_smiles>  (16) 
[H]C([H])=C([H])C([H])=C1C([H])([H])C([H])(Oc2c([H])c([H])c3c(c2[H])C([H])([H])N(C(=O)C([H])(N([H])C(=O)C([H])(N([H])C([H])([H])[H])C([H])([H])[H])C(C([H])([H])[H])(C([H])([H])[H])C([H])([H])[H])C([H])(C(=O)N([H])C2([H])c4c([H])c([H])c([H])c([H])c4C([H])([H])C([H])([H])C2([H])[H])C3([H])[H])C([H])([H])C([H])([H])[N+]1([H])C([H])([H])c1c([H])c(Cl)c([H])c(N([H])C(=O)N2C([H])([H])C([H])([H])C([H])([H])C([H])(n3nc(-c4c([H])c([H])c(Oc5c([H])c([H])c(F)c([H])c5F)c([H])c4[H])c(C(=O)N([H])[H])c3N([H])[H])C2([H])[H])c1[H]

>  <smiles>  (16) 
[H]C([H])=C([H])C([H])=C1C([H])([H])C([H])(Oc2c([H])c([H])c3c(c2[H])C([H])([H])N(C(=O)C([H])(N([H])C(=O)C([H])(N([H])C([H])([H])[H])C([H])([H])[H])C(C([H])([H])[H])(C([H])([H])[H])C([H])([H])[H])C([H])(C(=O)N([H])C2([H])c4c([H])c([H])c([H])c([H])c4C([H])([H])C([H])([H])C2([H])[H])C3([H])[H])C([H])([H])C([H])([H])[N+]1([H])C([H])([H])c1c([H])c(Cl)c([H])c(N([H])C(=O)N2C([H])([H])C([H])([H])C([H])([H])C([H])(n3nc(-c4c([H])c([H])c(Oc5c([H])c([H])c(F)c([H])c5F)c([H])c4[H])c(C(=O)N([H])[H])c3N([H])[H])C2([H])[H])c1[H]

$$$$
16:0:0
     RDKit          3D

 94103  0  0  1  0  0  0  0  0999 V2000
  -30.3630  -21.8520   20.4790 C   0  0  0  0  0  2  0  0  0  0  0  0
  -31.3110  -18.0010   20.3540 C   0  0  0  0  0  3  0  0  0  0  0  0
  -28.9230  -18.1320   20.3950 C   0  0  0  0  0  3  0  0  0  0  0  0
  -31.3810  -19.4320   20.3280 C   0  0  0  0  0  0  0  0  0  0  0  0
  -28.9720  -19.5650   20.3780 C   0  0  0  0  0  0  0  0  0  0  0  0
  -30.2130  -20.2700   20.3360 C   0  0  0  0  0  0  0  0  0  0  0  0
  -30.0800  -17.3020   20.3990 C   0  0  0  0  0  0  0  0  0  0  0  0
  -32.7720  -20.0490   20.3390 C   0  0  0  0  0  1  0  0  0  0  0  0
  -27.6580  -20.3230   20.4650 C   0  0  0  0  0  1  0  0  0  0  0  0
  -30.6920  -14.7690   20.0790 C   0  0  0  0  0  0  0  0  0  0  0  0
  -30.3990  -12.5440   18.9920 C   0  0  0  0  0  2  0  0  0  0  0  0
  -29.4020  -12.6990   17.8230 C   0  0  0  0  0  2  0  0  0  0  0  0
  -27.9490  -12.5490   18.3160 C   0  0  0  0  0  2  0  0  0  0  0  0
  -27.6580  -13.3930   19.5860 C   0  0  0  0  0  3  0  0  0  0  0  0
  -28.7670  -13.2180   20.6470 C   0  0  0  0  0  2  0  0  0  0  0  0
  -30.0510  -13.5550   20.0120 N   0  0  0  0  0  0  0  0  0  0  0  0
  -31.8440  -14.8980   19.6550 O   0  0  0  0  0  0  0  0  0  0  0  0
  -29.9190  -15.8380   20.4650 N   0  0  0  0  0  0  0  0  0  0  0  0
  -29.0110  -15.5430   20.7880 H   0  0  0  0  0  0  0  0  0  0  0  0
  -25.3110  -14.0110   20.4250 C   0  0  0  0  0  0  0  0  0  0  0  0
  -24.2520  -13.2440   20.8330 C   0  0  0  0  0  0  0  0  0  0  0  0
  -24.6950  -11.8870   20.7590 C   0  0  0  0  0  0  0  0  0  0  0  0
  -26.3300  -13.1200   20.1290 N   0  0  0  0  0  0  0  0  0  0  0  0
  -25.9680  -11.8380   20.3910 N   0  0  0  0  0  0  0  0  0  0  0  0
  -23.9610  -10.6320   20.9620 C   0  0  0  0  0  0  0  0  0  0  0  0
  -24.4060   -9.6560   21.8820 C   0  0  0  0  0  3  0  0  0  0  0  0
  -23.6720   -8.4650   22.0730 C   0  0  0  0  0  3  0  0  0  0  0  0
  -22.4800   -8.2420   21.3450 C   0  0  0  0  0  0  0  0  0  0  0  0
  -22.0530   -9.2050   20.4150 C   0  0  0  0  0  3  0  0  0  0  0  0
  -22.7860  -10.3880   20.2220 C   0  0  0  0  0  3  0  0  0  0  0  0
  -21.7170   -7.1020   21.4460 O   0  0  0  0  0  0  0  0  0  0  0  0
  -21.6700   -6.3680   22.6040 C   0  0  0  0  0  0  0  0  0  0  0  0
  -21.2320   -6.9300   23.8240 C   0  0  0  0  0  3  0  0  0  0  0  0
  -21.1320   -6.1220   24.9750 C   0  0  0  0  0  3  0  0  0  0  0  0
  -21.4590   -4.7550   24.9060 C   0  0  0  0  0  0  0  0  0  0  0  0
  -21.8900   -4.1920   23.6910 C   0  0  0  0  0  3  0  0  0  0  0  0
  -21.9910   -4.9980   22.5430 C   0  0  0  0  0  0  0  0  0  0  0  0
  -22.3860   -4.4470   21.3700 F   0  0  0  0  0  0  0  0  0  0  0  0
  -21.3550   -3.9760   26.0080 F   0  0  0  0  0  0  0  0  0  0  0  0
  -22.8750  -13.7350   21.1750 C   0  0  0  0  0  0  0  0  0  0  0  0
  -22.1810  -13.0390   22.0690 N   0  0  0  0  0  0  0  0  0  0  0  0
  -22.4240  -14.7690   20.6840 O   0  0  0  0  0  0  0  0  0  0  0  0
  -22.5590  -12.2010   22.4870 H   0  0  0  0  0  0  0  0  0  0  0  0
  -21.2590  -13.3490   22.3400 H   0  0  0  0  0  0  0  0  0  0  0  0
  -25.4870  -15.3820   20.2600 N   0  0  0  0  0  0  0  0  0  0  0  0
  -24.7340  -16.0440   20.4110 H   0  0  0  0  0  0  0  0  0  0  0  0
  -26.3080  -15.8060   19.8470 H   0  0  0  0  0  0  0  0  0  0  0  0
  -29.1050  -24.0870   20.6960 C   0  0  0  0  0  0  0  0  0  0  0  0
  -28.5120  -24.4910   18.4610 C   0  0  0  0  0  2  0  0  0  0  0  0
  -28.8840  -23.0000   18.6820 C   0  0  0  0  0  2  0  0  0  0  0  0
  -28.2050  -25.0490   19.8580 C   0  0  0  0  0  3  0  0  0  0  0  0
  -29.3550  -22.8990   20.0610 N   0  0  0  0  0  0  0  0  0  0  0  0
  -29.5370  -24.3940   21.8120 O   0  0  0  0  0  0  0  0  0  0  0  0
  -28.3950  -26.5170   20.0410 O   0  0  0  0  0  0  0  0  0  0  0  0
  -24.4920  -31.7440   23.1340 C   0  0  0  0  0  0  0  0  0  0  0  0
  -27.2580  -27.3470   19.9820 C   0  0  0  0  0  0  0  0  0  0  0  0
  -23.3440  -30.3670   21.4380 C   0  0  0  0  0  3  0  0  0  0  0  0
  -24.8520  -28.9030   19.9830 C   0  0  0  0  0  0  0  0  0  0  0  0
  -25.8780  -30.7570   21.2970 C   0  0  0  0  0  2  0  0  0  0  0  0
  -26.0010  -29.4010   20.6100 C   0  0  0  0  0  0  0  0  0  0  0  0
  -27.2070  -28.6360   20.5980 C   0  0  0  0  0  3  0  0  0  0  0  0
  -26.0830  -26.9080   19.3270 C   0  0  0  0  0  3  0  0  0  0  0  0
  -24.8960  -27.6620   19.3310 C   0  0  0  0  0  3  0  0  0  0  0  0
  -23.5930  -29.7420   20.0400 C   0  0  0  0  0  2  0  0  0  0  0  0
  -24.5890  -30.9710   22.0140 N   0  0  0  0  0  0  0  0  0  0  0  0
  -23.3950  -31.9780   23.6620 O   0  0  0  0  0  0  0  0  0  0  0  0
  -22.6970  -29.3030   22.3580 C   0  0  0  0  0  0  0  0  0  0  0  0
  -21.3730  -29.1110   22.2210 N   0  0  0  0  0  0  0  0  0  0  0  0
  -23.3830  -28.6580   23.1530 O   0  0  0  0  0  0  0  0  0  0  0  0
  -20.8780  -29.6860   21.5540 H   0  0  0  0  0  0  0  0  0  0  0  0
  -18.0110  -27.8580   22.6800 C   0  0  0  0  0  0  0  0  0  0  0  0
  -20.5670  -28.1360   22.9570 C   0  0  0  0  0  3  0  0  0  0  0  0
  -20.6840  -26.7290   22.3250 C   0  0  0  0  0  2  0  0  0  0  0  0
  -19.5830  -26.4340   21.3010 C   0  0  0  0  0  2  0  0  0  0  0  0
  -18.2010  -26.5380   21.9530 C   0  0  0  0  0  2  0  0  0  0  0  0
  -19.1220  -28.6150   23.1380 C   0  0  0  0  0  0  0  0  0  0  0  0
  -18.8890  -29.8510   23.7800 C   0  0  0  0  0  3  0  0  0  0  0  0
  -17.5790  -30.3300   23.9670 C   0  0  0  0  0  3  0  0  0  0  0  0
  -16.4830  -29.5700   23.5230 C   0  0  0  0  0  3  0  0  0  0  0  0
  -16.7000  -28.3360   22.8860 C   0  0  0  0  0  3  0  0  0  0  0  0
  -25.7500  -32.3880   23.7930 C   0  0  0  0  0  3  0  0  0  0  0  0
  -25.4120  -33.7770   24.1330 N   0  0  0  0  0  0  0  0  0  0  0  0
  -25.7250  -34.8430   23.3850 C   0  0  0  0  0  0  0  0  0  0  0  0
  -26.3990  -34.7610   22.3540 O   0  0  0  0  0  0  0  0  0  0  0  0
  -24.8120  -33.9140   24.9340 H   0  0  0  0  0  0  0  0  0  0  0  0
  -23.9540  -36.5970   23.0490 C   0  0  0  0  0  1  0  0  0  0  0  0
  -25.2090  -36.2180   23.8520 C   0  0  0  0  0  3  0  0  0  0  0  0
  -27.3230  -37.1510   24.6800 C   0  0  0  0  0  1  0  0  0  0  0  0
  -26.2160  -37.2940   23.7400 N   0  0  0  0  0  0  0  0  0  0  0  0
  -25.7880  -38.2040   23.8910 H   0  0  0  0  0  0  0  0  0  0  0  0
  -26.2520  -31.6080   25.0700 C   0  0  1  0  0  0  0  0  0  0  0  0
  -25.1400  -31.3400   26.1100 C   0  0  0  0  0  1  0  0  0  0  0  0
  -26.8650  -30.2450   24.6740 C   0  0  0  0  0  1  0  0  0  0  0  0
  -27.3750  -32.4120   25.7660 C   0  0  0  0  0  1  0  0  0  0  0  0
  2  7  1  0
  3  7  2  0
  4  6  1  0
  4  8  1  0
  4  2  2  0
  5  3  1  0
  5  9  1  0
  6  5  2  0
  6  1  1  0
  7 18  1  0
 10 18  1  0
 11 16  1  0
 12 13  1  0
 12 11  1  0
 14 13  1  0
 14 23  1  0
 14 15  1  0
 16 10  1  0
 16 15  1  0
 17 10  2  0
 18 19  1  0
 20 21  2  0
 21 40  1  0
 22 21  1  0
 22 25  1  0
 23 24  1  0
 23 20  1  0
 24 22  2  0
 25 26  1  0
 26 27  2  0
 28 31  1  0
 28 27  1  0
 29 28  2  0
 30 29  1  0
 30 25  2  0
 31 32  1  0
 32 33  1  0
 33 34  2  0
 35 34  1  0
 35 39  1  0
 36 35  2  0
 37 32  2  0
 37 36  1  0
 38 37  1  0
 40 41  1  0
 41 44  1  0
 41 43  1  0
 42 40  2  0
 45 46  1  0
 45 20  1  0
 47 45  1  0
 48 53  2  0
 49 50  1  0
 49 51  1  0
 50 52  1  0
 51 54  1  0
 51 48  1  0
 52  1  1  0
 52 48  1  0
 55 66  2  0
 56 54  1  0
 56 61  1  0
 57 65  1  0
 57 67  1  0
 58 64  1  0
 58 60  1  0
 59 65  1  0
 60 59  1  0
 61 60  2  0
 62 63  1  0
 62 56  2  0
 63 58  2  0
 64 57  1  0
 65 55  1  0
 67 69  2  0
 68 67  1  0
 70 68  1  0
 71 80  2  0
 71 76  1  0
 72 68  1  0
 72 76  1  0
 73 72  1  0
 74 75  1  0
 74 73  1  0
 75 71  1  0
 76 77  2  0
 77 78  1  0
 79 78  2  0
 80 79  1  0
 81 55  1  0
 81 82  1  0
 81 91  1  0
 82 85  1  0
 83 87  1  0
 83 82  1  0
 84 83  2  0
 87 86  1  0
 89 87  1  0
 89 90  1  0
 89 88  1  0
 91 94  1  1
 91 92  1  0
 93 91  1  0
M  ISO  4  10 100  18 100  51 101  54 101
M  END
>  <TORSDO>  (17) 
F 18

>  <SCORE>  (17) 
-14.552

>  <name>  (17) 
16

>  <ligand_id>  (17) 
16

>  <original_smiles>  (17) 
[H]c1c([H])c([H])c2c(c1[H])C([H])([H])C([H])([H])C([H])([H])C2([H])N([H])C(=O)C1([H])N(C(=O)C([H])(N([H])C(=O)C([H])(N([H])C([H])([H])[H])C([H])([H])[H])C(C([H])([H])[H])(C([H])([H])[H])C([H])([H])[H])C([H])([H])c2c([H])c(OC3([H])C(=O)N(C([H])([H])c4c(C([H])([H])[H])c([H])c(N([H])C(=O)N5C([H])([H])C([H])([H])C([H])([H])C([H])(n6nc(-c7c([H])c([H])c(Oc8c([H])c([H])c(F)c([H])c8F)c([H])c7[H])c(C(=O)N([H])[H])c6N([H])[H])C5([H])[H])c([H])c4C([H])([H])[H])C([H])([H])C3([H])[H])c([H])c([H])c2C1([H])[H]

>  <smiles>  (17) 
[H]c1c([H])c([H])c2c(c1[H])C([H])([H])C([H])([H])C([H])([H])C2([H])N([H])C(=O)C1([H])N(C(=O)C([H])(N([H])C(=O)C([H])(N([H])C([H])([H])[H])C([H])([H])[H])C(C([H])([H])[H])(C([H])([H])[H])C([H])([H])[H])C([H])([H])c2c([H])c(OC3([H])C(=O)N(C([H])([H])c4c(C([H])([H])[H])c([H])c(N([H])C(=O)N5C([H])([H])C([H])([H])C([H])([H])C([H])(n6nc(-c7c([H])c([H])c(Oc8c([H])c([H])c(F)c([H])c8F)c([H])c7[H])c(C(=O)N([H])[H])c6N([H])[H])C5([H])[H])c([H])c4C([H])([H])[H])C([H])([H])C3([H])[H])c([H])c([H])c2C1([H])[H]

$$$$
17:0:0
     RDKit          3D

 93102  0  0  1  0  0  0  0  0999 V2000
  -29.1460  -23.7980   20.2220 C   0  0  0  0  0  0  0  0  0  0  0  0
  -28.4830  -23.9420   17.3750 C   0  0  0  0  0  3  0  0  0  0  0  0
  -28.7590  -25.2170   18.1910 C   0  0  0  0  0  2  0  0  0  0  0  0
  -28.7570  -22.5890   18.0670 C   0  0  0  0  0  3  0  0  0  0  0  0
  -28.3350  -25.0760   19.6570 C   0  0  0  0  0  3  0  0  0  0  0  0
  -29.2710  -22.6370   19.4380 N   0  0  0  0  0  0  0  0  0  0  0  0
  -29.6340  -23.8670   21.3560 O   0  0  0  0  0  0  0  0  0  0  0  0
  -28.4410  -26.4330   20.3510 O   0  0  0  0  0  0  0  0  0  0  0  0
  -24.8220  -31.8620   23.5230 C   0  0  0  0  0  0  0  0  0  0  0  0
  -27.3810  -27.3840   20.2640 C   0  0  0  0  0  0  0  0  0  0  0  0
  -23.6210  -30.5940   21.7720 C   0  0  0  0  0  3  0  0  0  0  0  0
  -25.0610  -29.1040   20.2790 C   0  0  0  0  0  0  0  0  0  0  0  0
  -26.1680  -30.8640   21.6550 C   0  0  0  0  0  2  0  0  0  0  0  0
  -26.2300  -29.5160   20.9340 C   0  0  0  0  0  0  0  0  0  0  0  0
  -27.3880  -28.6680   20.9240 C   0  0  0  0  0  3  0  0  0  0  0  0
  -26.1950  -27.0670   19.5550 C   0  0  0  0  0  3  0  0  0  0  0  0
  -25.0540  -27.8910   19.5780 C   0  0  0  0  0  3  0  0  0  0  0  0
  -23.8400  -29.9990   20.3570 C   0  0  0  0  0  2  0  0  0  0  0  0
  -24.8880  -31.1270   22.3730 N   0  0  0  0  0  0  0  0  0  0  0  0
  -23.7360  -32.1260   24.0580 O   0  0  0  0  0  0  0  0  0  0  0  0
  -22.9210  -29.5480   22.6680 C   0  0  0  0  0  0  0  0  0  0  0  0
  -21.6010  -29.3700   22.4840 N   0  0  0  0  0  0  0  0  0  0  0  0
  -23.5710  -28.9070   23.4960 O   0  0  0  0  0  0  0  0  0  0  0  0
  -21.1530  -29.8950   21.7420 H   0  0  0  0  0  0  0  0  0  0  0  0
  -18.2430  -28.0460   22.7670 C   0  0  0  0  0  0  0  0  0  0  0  0
  -20.7710  -28.3880   23.1810 C   0  0  0  0  0  3  0  0  0  0  0  0
  -20.9540  -27.0020   22.5190 C   0  0  0  0  0  2  0  0  0  0  0  0
  -19.9140  -26.7570   21.4180 C   0  0  0  0  0  2  0  0  0  0  0  0
  -18.5160  -26.7460   22.0340 C   0  0  0  0  0  2  0  0  0  0  0  0
  -19.3040  -28.8390   23.2880 C   0  0  0  0  0  0  0  0  0  0  0  0
  -18.9870  -30.0660   23.9250 C   0  0  0  0  0  3  0  0  0  0  0  0
  -17.6470  -30.5000   24.0160 C   0  0  0  0  0  3  0  0  0  0  0  0
  -16.6130  -29.7180   23.4770 C   0  0  0  0  0  3  0  0  0  0  0  0
  -16.9130  -28.4940   22.8620 C   0  0  0  0  0  3  0  0  0  0  0  0
  -26.1050  -32.4320   24.2000 C   0  0  0  0  0  3  0  0  0  0  0  0
  -25.8740  -33.8610   24.4610 N   0  0  0  0  0  0  0  0  0  0  0  0
  -26.2450  -34.8570   23.6450 C   0  0  0  0  0  0  0  0  0  0  0  0
  -26.8880  -34.6700   22.6100 O   0  0  0  0  0  0  0  0  0  0  0  0
  -25.2950  -34.0850   25.2570 H   0  0  0  0  0  0  0  0  0  0  0  0
  -24.5950  -36.7160   23.2440 C   0  0  0  0  0  1  0  0  0  0  0  0
  -25.8380  -36.2900   24.0400 C   0  0  0  0  0  3  0  0  0  0  0  0
  -28.0340  -37.1210   24.7710 C   0  0  0  0  0  1  0  0  0  0  0  0
  -26.9190  -37.2820   23.8420 N   0  0  0  0  0  0  0  0  0  0  0  0
  -26.5580  -38.2280   23.9410 H   0  0  0  0  0  0  0  0  0  0  0  0
  -26.4910  -31.6830   25.5340 C   0  0  1  0  0  0  0  0  0  0  0  0
  -25.3200  -31.5480   26.5350 C   0  0  0  0  0  1  0  0  0  0  0  0
  -27.0230  -30.2640   25.2350 C   0  0  0  0  0  1  0  0  0  0  0  0
  -27.6400  -32.4380   26.2440 C   0  0  0  0  0  1  0  0  0  0  0  0
  -30.0760  -21.3590   19.7110 C   0  0  0  0  0  2  0  0  0  0  0  0
  -27.5220  -18.4830   20.3960 C   0  0  0  0  0  3  0  0  0  0  0  0
  -28.1010  -19.7500   20.1750 C   0  0  0  0  0  3  0  0  0  0  0  0
  -28.2420  -17.2850   20.1760 C   0  0  0  0  0  3  0  0  0  0  0  0
  -30.1430  -18.6360   19.4970 C   0  0  0  0  0  3  0  0  0  0  0  0
  -29.4360  -19.8880   19.7510 C   0  0  0  0  0  0  0  0  0  0  0  0
  -29.5680  -17.3130   19.6940 C   0  0  0  0  0  0  0  0  0  0  0  0
  -30.9480  -15.0300   19.7410 C   0  0  0  0  0  0  0  0  0  0  0  0
  -30.9040  -12.5720   19.2440 C   0  0  0  0  0  2  0  0  0  0  0  0
  -29.9680  -12.2460   18.0570 C   0  0  0  0  0  2  0  0  0  0  0  0
  -28.5180  -12.0660   18.5520 C   0  0  0  0  0  2  0  0  0  0  0  0
  -28.0590  -13.2120   19.4900 C   0  0  0  0  0  3  0  0  0  0  0  0
  -29.1120  -13.4850   20.5790 C   0  0  0  0  0  2  0  0  0  0  0  0
  -30.3710  -13.7930   19.9010 N   0  0  0  0  0  0  0  0  0  0  0  0
  -32.1550  -15.0910   19.4960 O   0  0  0  0  0  0  0  0  0  0  0  0
  -30.1730  -16.0530   19.2020 N   0  0  0  0  0  0  0  0  0  0  0  0
  -30.6630  -16.2900   18.3550 H   0  0  0  0  0  0  0  0  0  0  0  0
  -25.7550  -13.8700   20.4180 C   0  0  0  0  0  0  0  0  0  0  0  0
  -24.6830  -13.1160   20.8240 C   0  0  0  0  0  0  0  0  0  0  0  0
  -25.0880  -11.7570   20.7130 C   0  0  0  0  0  0  0  0  0  0  0  0
  -26.7410  -12.9570   20.0690 N   0  0  0  0  0  0  0  0  0  0  0  0
  -26.3540  -11.6770   20.3180 N   0  0  0  0  0  0  0  0  0  0  0  0
  -24.3220  -10.5180   20.9010 C   0  0  0  0  0  0  0  0  0  0  0  0
  -24.7210   -9.5450   21.8450 C   0  0  0  0  0  3  0  0  0  0  0  0
  -23.9650   -8.3660   22.0180 C   0  0  0  0  0  3  0  0  0  0  0  0
  -22.7950   -8.1550   21.2500 C   0  0  0  0  0  0  0  0  0  0  0  0
  -22.4220   -9.1110   20.2920 C   0  0  0  0  0  3  0  0  0  0  0  0
  -23.1770  -10.2810   20.1140 C   0  0  0  0  0  3  0  0  0  0  0  0
  -22.0070   -7.0320   21.3350 O   0  0  0  0  0  0  0  0  0  0  0  0
  -21.8120   -6.3790   22.5290 C   0  0  0  0  0  0  0  0  0  0  0  0
  -21.2690   -7.0340   23.6550 C   0  0  0  0  0  3  0  0  0  0  0  0
  -21.0160   -6.3070   24.8360 C   0  0  0  0  0  3  0  0  0  0  0  0
  -21.2970   -4.9280   24.8890 C   0  0  0  0  0  0  0  0  0  0  0  0
  -21.8400   -4.2740   23.7680 C   0  0  0  0  0  3  0  0  0  0  0  0
  -22.0940   -5.0010   22.5900 C   0  0  0  0  0  0  0  0  0  0  0  0
  -22.5900   -4.3600   21.5040 F   0  0  0  0  0  0  0  0  0  0  0  0
  -21.0540   -4.2320   26.0240 F   0  0  0  0  0  0  0  0  0  0  0  0
  -23.3280  -13.6380   21.2040 C   0  0  0  0  0  0  0  0  0  0  0  0
  -22.6410  -12.9550   22.1170 N   0  0  0  0  0  0  0  0  0  0  0  0
  -22.8860  -14.6750   20.7220 O   0  0  0  0  0  0  0  0  0  0  0  0
  -23.0080  -12.1110   22.5370 H   0  0  0  0  0  0  0  0  0  0  0  0
  -21.7330  -13.2960   22.4080 H   0  0  0  0  0  0  0  0  0  0  0  0
  -25.9590  -15.2350   20.2980 N   0  0  0  0  0  0  0  0  0  0  0  0
  -25.2270  -15.9010   20.5260 H   0  0  0  0  0  0  0  0  0  0  0  0
  -26.8070  -15.6830   19.9680 H   0  0  0  0  0  0  0  0  0  0  0  0
  1  7  2  0
  2  4  2  0
  2  3  1  0
  3  5  1  0
  4  6  1  0
  5  1  1  0
  5  8  1  0
  6 49  1  0
  6  1  1  0
  9 20  2  0
 10  8  1  0
 10 15  1  0
 11 19  1  0
 11 21  1  0
 12 18  1  0
 12 14  1  0
 13 19  1  0
 14 13  1  0
 15 14  2  0
 16 17  1  0
 16 10  2  0
 17 12  2  0
 18 11  1  0
 19  9  1  0
 21 23  2  0
 22 21  1  0
 24 22  1  0
 25 34  2  0
 25 30  1  0
 26 22  1  0
 26 30  1  0
 27 26  1  0
 28 29  1  0
 28 27  1  0
 29 25  1  0
 30 31  2  0
 31 32  1  0
 33 32  2  0
 34 33  1  0
 35  9  1  0
 35 36  1  0
 35 45  1  0
 36 39  1  0
 37 41  1  0
 37 36  1  0
 38 37  2  0
 41 40  1  0
 43 44  1  0
 43 41  1  0
 43 42  1  0
 45 48  1  1
 45 46  1  0
 47 45  1  0
 49 54  1  0
 51 50  2  0
 52 50  1  0
 53 55  1  0
 53 54  2  0
 54 51  1  0
 55 52  2  0
 56 62  1  0
 57 62  1  0
 58 59  1  0
 58 57  1  0
 60 59  1  0
 60 69  1  0
 60 61  1  0
 62 61  1  0
 63 56  2  0
 64 55  1  0
 64 56  1  0
 65 64  1  0
 66 67  2  0
 67 86  1  0
 68 67  1  0
 68 71  1  0
 69 70  1  0
 69 66  1  0
 70 68  2  0
 71 72  1  0
 72 73  2  0
 74 77  1  0
 74 73  1  0
 75 74  2  0
 76 75  1  0
 76 71  2  0
 77 78  1  0
 78 83  2  0
 78 79  1  0
 79 80  2  0
 80 81  1  0
 81 85  1  0
 82 81  2  0
 83 82  1  0
 84 83  1  0
 86 87  1  0
 87 90  1  0
 87 89  1  0
 88 86  2  0
 91 66  1  0
 91 92  1  0
 93 91  1  0
M  ISO  4   5 101   8 101  56 100  64 100
M  END
>  <TORSDO>  (18) 
F 18

>  <SCORE>  (18) 
-14.037

>  <name>  (18) 
17

>  <ligand_id>  (18) 
17

>  <original_smiles>  (18) 
[H]c1c([H])c(N([H])C(=O)N2C([H])([H])C([H])([H])C([H])([H])C([H])(n3nc(-c4c([H])c([H])c(Oc5c([H])c([H])c(F)c([H])c5F)c([H])c4[H])c(C(=O)N([H])[H])c3N([H])[H])C2([H])[H])c([H])c(C([H])([H])N2C(=O)C([H])(Oc3c([H])c([H])c4c(c3[H])C([H])([H])N(C(=O)C([H])(N([H])C(=O)C([H])(N([H])C([H])([H])[H])C([H])([H])[H])C(C([H])([H])[H])(C([H])([H])[H])C([H])([H])[H])C([H])(C(=O)N([H])C3([H])c5c([H])c([H])c([H])c([H])c5C([H])([H])C([H])([H])C3([H])[H])C4([H])[H])C([H])([H])C([H])([H])C2([H])[H])c1[H]

>  <smiles>  (18) 
[H]c1c([H])c(N([H])C(=O)N2C([H])([H])C([H])([H])C([H])([H])C([H])(n3nc(-c4c([H])c([H])c(Oc5c([H])c([H])c(F)c([H])c5F)c([H])c4[H])c(C(=O)N([H])[H])c3N([H])[H])C2([H])[H])c([H])c(C([H])([H])N2C(=O)C([H])(Oc3c([H])c([H])c4c(c3[H])C([H])([H])N(C(=O)C([H])(N([H])C(=O)C([H])(N([H])C([H])([H])[H])C([H])([H])[H])C(C([H])([H])[H])(C([H])([H])[H])C([H])([H])[H])C([H])(C(=O)N([H])C3([H])c5c([H])c([H])c([H])c([H])c5C([H])([H])C([H])([H])C3([H])[H])C4([H])[H])C([H])([H])C([H])([H])C2([H])[H])c1[H]

$$$$
18:0:0
     RDKit          3D

 93101  0  0  1  0  0  0  0  0999 V2000
  -30.0180  -21.8770   20.3300 C   0  0  0  0  0  2  0  0  0  0  0  0
  -28.6190  -17.7250   19.8500 C   0  0  0  0  0  3  0  0  0  0  0  0
  -27.7450  -18.7970   19.5900 C   0  0  0  0  0  3  0  0  0  0  0  0
  -30.3370  -19.3380   20.4550 C   0  0  0  0  0  3  0  0  0  0  0  0
  -29.9210  -17.9850   20.3180 C   0  0  0  0  0  0  0  0  0  0  0  0
  -29.4700  -20.4360   20.1820 C   0  0  0  0  0  0  0  0  0  0  0  0
  -28.1550  -20.1380   19.7540 C   0  0  0  0  0  0  0  0  0  0  0  0
  -27.2730  -21.1230   19.4820 F   0  0  0  0  0  0  0  0  0  0  0  0
  -30.8790  -16.8560   20.7400 C   0  0  0  0  0  2  0  0  0  0  0  0
  -30.9840  -14.4290   20.1490 C   0  0  0  0  0  0  0  0  0  0  0  0
  -30.6520  -12.2130   19.1320 C   0  0  0  0  0  2  0  0  0  0  0  0
  -29.6870  -12.3770   17.9370 C   0  0  0  0  0  2  0  0  0  0  0  0
  -28.2160  -12.3010   18.3880 C   0  0  0  0  0  2  0  0  0  0  0  0
  -27.9300  -13.1830   19.6310 C   0  0  0  0  0  3  0  0  0  0  0  0
  -28.9950  -12.9790   20.7280 C   0  0  0  0  0  2  0  0  0  0  0  0
  -30.3130  -13.2460   20.1280 N   0  0  0  0  0  0  0  0  0  0  0  0
  -32.0490  -14.5910   19.5470 O   0  0  0  0  0  0  0  0  0  0  0  0
  -30.3710  -15.4620   20.7610 N   0  0  0  0  0  0  0  0  0  0  0  0
  -29.5430  -15.2530   21.2960 H   0  0  0  0  0  0  0  0  0  0  0  0
  -25.5800  -13.8730   20.4250 C   0  0  0  0  0  0  0  0  0  0  0  0
  -24.4970  -13.1320   20.8200 C   0  0  0  0  0  0  0  0  0  0  0  0
  -24.9070  -11.7650   20.7480 C   0  0  0  0  0  0  0  0  0  0  0  0
  -26.5840  -12.9570   20.1470 N   0  0  0  0  0  0  0  0  0  0  0  0
  -26.1820  -11.6830   20.3950 N   0  0  0  0  0  0  0  0  0  0  0  0
  -24.1400  -10.5260   20.9370 C   0  0  0  0  0  0  0  0  0  0  0  0
  -24.5620   -9.5290   21.8460 C   0  0  0  0  0  3  0  0  0  0  0  0
  -23.7960   -8.3560   22.0250 C   0  0  0  0  0  3  0  0  0  0  0  0
  -22.5990   -8.1720   21.2920 C   0  0  0  0  0  0  0  0  0  0  0  0
  -22.1970   -9.1580   20.3750 C   0  0  0  0  0  3  0  0  0  0  0  0
  -22.9600  -10.3230   20.1930 C   0  0  0  0  0  3  0  0  0  0  0  0
  -21.8050   -7.0540   21.3810 O   0  0  0  0  0  0  0  0  0  0  0  0
  -21.7510   -6.2960   22.5250 C   0  0  0  0  0  0  0  0  0  0  0  0
  -21.3610   -6.8490   23.7640 C   0  0  0  0  0  3  0  0  0  0  0  0
  -21.2490   -6.0210   24.8970 C   0  0  0  0  0  3  0  0  0  0  0  0
  -21.5200   -4.6430   24.7950 C   0  0  0  0  0  0  0  0  0  0  0  0
  -21.9050   -4.0930   23.5610 C   0  0  0  0  0  3  0  0  0  0  0  0
  -22.0170   -4.9150   22.4270 C   0  0  0  0  0  0  0  0  0  0  0  0
  -22.3660   -4.3760   21.2340 F   0  0  0  0  0  0  0  0  0  0  0  0
  -21.4070   -3.8480   25.8830 F   0  0  0  0  0  0  0  0  0  0  0  0
  -23.1300  -13.6550   21.1540 C   0  0  0  0  0  0  0  0  0  0  0  0
  -22.4120  -12.9720   22.0400 N   0  0  0  0  0  0  0  0  0  0  0  0
  -22.7060  -14.6960   20.6600 O   0  0  0  0  0  0  0  0  0  0  0  0
  -22.7740  -12.1250   22.4550 H   0  0  0  0  0  0  0  0  0  0  0  0
  -21.5020  -13.3060   22.3120 H   0  0  0  0  0  0  0  0  0  0  0  0
  -25.7870  -15.2370   20.2660 N   0  0  0  0  0  0  0  0  0  0  0  0
  -25.0450  -15.9160   20.4030 H   0  0  0  0  0  0  0  0  0  0  0  0
  -26.6210  -15.6470   19.8640 H   0  0  0  0  0  0  0  0  0  0  0  0
  -29.0290  -24.1920   20.0770 C   0  0  0  0  0  0  0  0  0  0  0  0
  -29.1060  -22.9890   20.6910 N   0  0  0  0  0  0  0  0  0  0  0  0
  -29.5900  -24.4200   19.0020 O   0  0  0  0  0  0  0  0  0  0  0  0
  -28.6090  -22.9020   21.5660 H   0  0  0  0  0  0  0  0  0  0  0  0
  -28.2300  -25.3130   20.7900 C   0  0  0  0  0  2  0  0  0  0  0  0
  -28.4300  -26.6290   20.2050 O   0  0  0  0  0  0  0  0  0  0  0  0
  -24.6230  -31.8330   23.2640 C   0  0  0  0  0  0  0  0  0  0  0  0
  -27.2950  -27.4170   20.1740 C   0  0  0  0  0  0  0  0  0  0  0  0
  -23.4380  -30.4740   21.5770 C   0  0  0  0  0  3  0  0  0  0  0  0
  -24.9030  -28.9370   20.1630 C   0  0  0  0  0  0  0  0  0  0  0  0
  -25.9690  -30.8220   21.4200 C   0  0  0  0  0  2  0  0  0  0  0  0
  -26.0580  -29.4570   20.7610 C   0  0  0  0  0  0  0  0  0  0  0  0
  -27.2590  -28.7030   20.7610 C   0  0  0  0  0  3  0  0  0  0  0  0
  -26.1180  -26.9090   19.5820 C   0  0  0  0  0  3  0  0  0  0  0  0
  -24.9270  -27.6570   19.5770 C   0  0  0  0  0  3  0  0  0  0  0  0
  -23.6590  -29.7950   20.1980 C   0  0  0  0  0  2  0  0  0  0  0  0
  -24.6940  -31.0540   22.1450 N   0  0  0  0  0  0  0  0  0  0  0  0
  -23.5330  -32.0950   23.7970 O   0  0  0  0  0  0  0  0  0  0  0  0
  -22.7630  -29.4450   22.5170 C   0  0  0  0  0  0  0  0  0  0  0  0
  -21.4340  -29.3040   22.3980 N   0  0  0  0  0  0  0  0  0  0  0  0
  -23.4300  -28.7710   23.3030 O   0  0  0  0  0  0  0  0  0  0  0  0
  -20.9340  -29.9390   21.7880 H   0  0  0  0  0  0  0  0  0  0  0  0
  -18.0590  -28.0980   22.8380 C   0  0  0  0  0  0  0  0  0  0  0  0
  -20.6140  -28.3180   23.1080 C   0  0  0  0  0  3  0  0  0  0  0  0
  -20.7170  -26.9290   22.4290 C   0  0  0  0  0  2  0  0  0  0  0  0
  -19.5740  -26.6210   21.4490 C   0  0  0  0  0  2  0  0  0  0  0  0
  -18.2160  -26.7520   22.1460 C   0  0  0  0  0  2  0  0  0  0  0  0
  -19.1840  -28.8280   23.3000 C   0  0  0  0  0  0  0  0  0  0  0  0
  -18.9840  -30.0700   23.9480 C   0  0  0  0  0  3  0  0  0  0  0  0
  -17.6860  -30.5860   24.1210 C   0  0  0  0  0  3  0  0  0  0  0  0
  -16.5750  -29.8620   23.6550 C   0  0  0  0  0  3  0  0  0  0  0  0
  -16.7620  -28.6220   23.0190 C   0  0  0  0  0  3  0  0  0  0  0  0
  -25.9040  -32.4440   23.9160 C   0  0  0  0  0  3  0  0  0  0  0  0
  -26.3720  -31.6750   25.2120 C   0  0  1  0  0  0  0  0  0  0  0  0
  -25.2460  -31.4600   26.2490 C   0  0  0  0  0  1  0  0  0  0  0  0
  -26.9500  -30.2870   24.8460 C   0  0  0  0  0  1  0  0  0  0  0  0
  -27.5090  -32.4600   25.9070 C   0  0  0  0  0  1  0  0  0  0  0  0
  -25.6090  -33.8500   24.2240 N   0  0  0  0  0  0  0  0  0  0  0  0
  -25.9770  -34.8870   23.4610 C   0  0  0  0  0  0  0  0  0  0  0  0
  -26.6750  -34.7640   22.4510 O   0  0  0  0  0  0  0  0  0  0  0  0
  -24.9950  -34.0210   25.0050 H   0  0  0  0  0  0  0  0  0  0  0  0
  -24.2830  -36.6970   23.0450 C   0  0  0  0  0  1  0  0  0  0  0  0
  -25.4970  -36.2860   23.8910 C   0  0  0  0  0  3  0  0  0  0  0  0
  -27.6220  -37.1520   24.7660 C   0  0  0  0  0  1  0  0  0  0  0  0
  -26.5490  -37.3230   23.7900 N   0  0  0  0  0  0  0  0  0  0  0  0
  -26.1500  -38.2500   23.9200 H   0  0  0  0  0  0  0  0  0  0  0  0
  1 49  1  0
  2  5  1  0
  3  7  1  0
  3  2  2  0
  5  4  2  0
  5  9  1  0
  6  1  1  0
  6  4  1  0
  7  6  2  0
  8  7  1  0
  9 18  1  0
 10 18  1  0
 11 16  1  0
 12 13  1  0
 12 11  1  0
 14 13  1  0
 14 23  1  0
 14 15  1  0
 16 10  1  0
 16 15  1  0
 17 10  2  0
 18 19  1  0
 20 21  2  0
 21 40  1  0
 22 21  1  0
 22 25  1  0
 23 24  1  0
 23 20  1  0
 24 22  2  0
 25 26  1  0
 26 27  2  0
 28 31  1  0
 28 27  1  0
 29 28  2  0
 30 29  1  0
 30 25  2  0
 31 32  1  0
 32 33  1  0
 33 34  2  0
 35 34  1  0
 35 39  1  0
 36 35  2  0
 37 32  2  0
 37 36  1  0
 38 37  1  0
 40 41  1  0
 41 44  1  0
 41 43  1  0
 42 40  2  0
 45 46  1  0
 45 20  1  0
 47 45  1  0
 48 49  1  0
 48 52  1  0
 49 51  1  0
 50 48  2  0
 53 52  1  0
 54 65  2  0
 55 53  1  0
 55 60  1  0
 56 64  1  0
 56 66  1  0
 57 63  1  0
 57 59  1  0
 58 64  1  0
 59 58  1  0
 60 59  2  0
 61 55  2  0
 62 61  1  0
 62 57  2  0
 63 56  1  0
 64 54  1  0
 66 68  2  0
 67 66  1  0
 69 67  1  0
 70 79  2  0
 70 75  1  0
 71 67  1  0
 71 75  1  0
 72 71  1  0
 73 74  1  0
 73 72  1  0
 74 70  1  0
 75 76  2  0
 76 77  1  0
 78 77  2  0
 79 78  1  0
 80 54  1  0
 80 85  1  0
 80 81  1  0
 81 84  1  1
 81 82  1  0
 83 81  1  0
 85 88  1  0
 86 90  1  0
 86 85  1  0
 87 86  2  0
 90 89  1  0
 92 90  1  0
 92 93  1  0
 92 91  1  0
M  ISO  4  10 100  18 100  52 101  53 101
M  END
>  <TORSDO>  (19) 
F 20

>  <SCORE>  (19) 
-13.882

>  <name>  (19) 
18

>  <ligand_id>  (19) 
18

>  <original_smiles>  (19) 
[H]c1c([H])c([H])c2c(c1[H])C([H])([H])C([H])([H])C([H])([H])C2([H])N([H])C(=O)C1([H])N(C(=O)C([H])(N([H])C(=O)C([H])(N([H])C([H])([H])[H])C([H])([H])[H])C(C([H])([H])[H])(C([H])([H])[H])C([H])([H])[H])C([H])([H])c2c([H])c(OC([H])([H])C(=O)N([H])C([H])([H])c3c([H])c(C([H])([H])N([H])C(=O)N4C([H])([H])C([H])([H])C([H])([H])C([H])(n5nc(-c6c([H])c([H])c(Oc7c([H])c([H])c(F)c([H])c7F)c([H])c6[H])c(C(=O)N([H])[H])c5N([H])[H])C4([H])[H])c([H])c([H])c3F)c([H])c([H])c2C1([H])[H]

>  <smiles>  (19) 
[H]c1c([H])c([H])c2c(c1[H])C([H])([H])C([H])([H])C([H])([H])C2([H])N([H])C(=O)C1([H])N(C(=O)C([H])(N([H])C(=O)C([H])(N([H])C([H])([H])[H])C([H])([H])[H])C(C([H])([H])[H])(C([H])([H])[H])C([H])([H])[H])C([H])([H])c2c([H])c(OC([H])([H])C(=O)N([H])C([H])([H])c3c([H])c(C([H])([H])N([H])C(=O)N4C([H])([H])C([H])([H])C([H])([H])C([H])(n5nc(-c6c([H])c([H])c(Oc7c([H])c([H])c(F)c([H])c7F)c([H])c6[H])c(C(=O)N([H])[H])c5N([H])[H])C4([H])[H])c([H])c([H])c3F)c([H])c([H])c2C1([H])[H]

$$$$
19:0:0
     RDKit          3D

 94103  0  0  1  0  0  0  0  0999 V2000
  -28.5770  -23.7370   19.8760 C   0  0  0  0  0  0  0  0  0  0  0  0
  -29.7910  -23.7990   22.4840 C   0  0  0  0  0  2  0  0  0  0  0  0
  -29.4010  -25.1710   21.9140 C   0  0  0  0  0  2  0  0  0  0  0  0
  -30.3150  -22.9010   21.3510 C   0  0  0  0  0  2  0  0  0  0  0  0
  -28.3950  -25.0880   20.7500 C   0  0  0  0  0  3  0  0  0  0  0  0
  -29.2650  -22.6160   20.3610 N   0  0  0  0  0  0  0  0  0  0  0  0
  -27.9990  -23.6860   18.7860 O   0  0  0  0  0  0  0  0  0  0  0  0
  -28.4470  -26.4250   20.0660 O   0  0  0  0  0  0  0  0  0  0  0  0
  -24.6000  -31.7900   23.1520 C   0  0  0  0  0  0  0  0  0  0  0  0
  -27.3210  -27.2720   20.0980 C   0  0  0  0  0  0  0  0  0  0  0  0
  -23.4340  -30.3730   21.5000 C   0  0  0  0  0  3  0  0  0  0  0  0
  -24.9260  -28.8500   20.0790 C   0  0  0  0  0  0  0  0  0  0  0  0
  -25.9700  -30.7400   21.3310 C   0  0  0  0  0  2  0  0  0  0  0  0
  -26.0840  -29.3610   20.6810 C   0  0  0  0  0  0  0  0  0  0  0  0
  -27.2870  -28.5860   20.6750 C   0  0  0  0  0  3  0  0  0  0  0  0
  -26.1400  -26.8180   19.4800 C   0  0  0  0  0  3  0  0  0  0  0  0
  -24.9580  -27.5850   19.4670 C   0  0  0  0  0  3  0  0  0  0  0  0
  -23.6710  -29.7020   20.1210 C   0  0  0  0  0  2  0  0  0  0  0  0
  -24.6860  -30.9870   22.0510 N   0  0  0  0  0  0  0  0  0  0  0  0
  -23.5080  -32.0430   23.6820 O   0  0  0  0  0  0  0  0  0  0  0  0
  -22.7860  -29.3420   22.4550 C   0  0  0  0  0  0  0  0  0  0  0  0
  -21.4660  -29.1330   22.3160 N   0  0  0  0  0  0  0  0  0  0  0  0
  -23.4710  -28.7330   23.2810 O   0  0  0  0  0  0  0  0  0  0  0  0
  -20.9710  -29.6770   21.6240 H   0  0  0  0  0  0  0  0  0  0  0  0
  -18.1240  -27.8140   22.7490 C   0  0  0  0  0  0  0  0  0  0  0  0
  -20.6630  -28.1720   23.0760 C   0  0  0  0  0  3  0  0  0  0  0  0
  -20.8310  -26.7400   22.5180 C   0  0  0  0  0  2  0  0  0  0  0  0
  -19.7670  -26.3670   21.4810 C   0  0  0  0  0  2  0  0  0  0  0  0
  -18.3660  -26.4670   22.0910 C   0  0  0  0  0  2  0  0  0  0  0  0
  -19.2030  -28.6220   23.1970 C   0  0  0  0  0  0  0  0  0  0  0  0
  -18.9230  -29.8810   23.7730 C   0  0  0  0  0  3  0  0  0  0  0  0
  -17.5960  -30.3340   23.9030 C   0  0  0  0  0  3  0  0  0  0  0  0
  -16.5310  -29.5250   23.4710 C   0  0  0  0  0  3  0  0  0  0  0  0
  -16.7950  -28.2660   22.9010 C   0  0  0  0  0  3  0  0  0  0  0  0
  -25.8640  -32.4480   23.7860 C   0  0  0  0  0  3  0  0  0  0  0  0
  -25.5180  -33.8350   24.1320 N   0  0  0  0  0  0  0  0  0  0  0  0
  -25.8330  -34.9060   23.3910 C   0  0  0  0  0  0  0  0  0  0  0  0
  -26.5120  -34.8320   22.3640 O   0  0  0  0  0  0  0  0  0  0  0  0
  -24.9120  -33.9650   24.9290 H   0  0  0  0  0  0  0  0  0  0  0  0
  -24.0690  -36.6690   23.0520 C   0  0  0  0  0  1  0  0  0  0  0  0
  -25.3130  -36.2780   23.8660 C   0  0  0  0  0  3  0  0  0  0  0  0
  -27.4230  -37.1950   24.7210 C   0  0  0  0  0  1  0  0  0  0  0  0
  -26.3240  -37.3540   23.7750 N   0  0  0  0  0  0  0  0  0  0  0  0
  -25.8960  -38.2640   23.9340 H   0  0  0  0  0  0  0  0  0  0  0  0
  -26.3930  -31.6780   25.0580 C   0  0  1  0  0  0  0  0  0  0  0  0
  -25.3030  -31.4090   26.1220 C   0  0  0  0  0  1  0  0  0  0  0  0
  -27.0070  -30.3160   24.6570 C   0  0  0  0  0  1  0  0  0  0  0  0
  -27.5250  -32.4900   25.7290 C   0  0  0  0  0  1  0  0  0  0  0  0
  -29.2830  -21.2080   19.7150 C   0  0  0  0  0  2  0  0  0  0  0  0
  -30.0980  -19.8620   21.8030 C   0  0  0  0  0  3  0  0  0  0  0  0
  -30.5600  -18.7060   22.4600 C   0  0  0  0  0  3  0  0  0  0  0  0
  -29.8850  -18.5490   19.7760 C   0  0  0  0  0  3  0  0  0  0  0  0
  -29.7850  -19.8550   20.4290 C   0  0  0  0  0  0  0  0  0  0  0  0
  -30.6780  -17.4580   21.8080 C   0  0  0  0  0  0  0  0  0  0  0  0
  -30.3260  -17.3200   20.4400 C   0  0  0  0  0  0  0  0  0  0  0  0
  -31.1010  -16.2620   22.6460 C   0  0  0  0  0  1  0  0  0  0  0  0
  -30.9780  -14.8110   19.8430 C   0  0  0  0  0  0  0  0  0  0  0  0
  -30.6980  -12.5250   18.8440 C   0  0  0  0  0  2  0  0  0  0  0  0
  -29.7020  -12.5960   17.6630 C   0  0  0  0  0  2  0  0  0  0  0  0
  -28.2440  -12.4750   18.1590 C   0  0  0  0  0  2  0  0  0  0  0  0
  -27.9490  -13.3920   19.3740 C   0  0  0  0  0  3  0  0  0  0  0  0
  -29.0520  -13.2810   20.4460 C   0  0  0  0  0  2  0  0  0  0  0  0
  -30.3280  -13.5990   19.7910 N   0  0  0  0  0  0  0  0  0  0  0  0
  -32.1760  -14.8880   19.5480 O   0  0  0  0  0  0  0  0  0  0  0  0
  -30.1690  -15.9430   19.8950 N   0  0  0  0  0  0  0  0  0  0  0  0
  -29.2020  -15.6820   19.7970 H   0  0  0  0  0  0  0  0  0  0  0  0
  -25.6320  -14.0840   20.2340 C   0  0  0  0  0  0  0  0  0  0  0  0
  -24.5500  -13.3540   20.6410 C   0  0  0  0  0  0  0  0  0  0  0  0
  -24.9460  -11.9840   20.5670 C   0  0  0  0  0  0  0  0  0  0  0  0
  -26.6190  -13.1600   19.9290 N   0  0  0  0  0  0  0  0  0  0  0  0
  -26.2170  -11.8910   20.1920 N   0  0  0  0  0  0  0  0  0  0  0  0
  -24.1710  -10.7540   20.7710 C   0  0  0  0  0  0  0  0  0  0  0  0
  -24.5800   -9.7650   21.6920 C   0  0  0  0  0  3  0  0  0  0  0  0
  -23.8060   -8.6000   21.8830 C   0  0  0  0  0  3  0  0  0  0  0  0
  -22.6090   -8.4170   21.1520 C   0  0  0  0  0  0  0  0  0  0  0  0
  -22.2170   -9.3930   20.2180 C   0  0  0  0  0  3  0  0  0  0  0  0
  -22.9910  -10.5490   20.0270 C   0  0  0  0  0  3  0  0  0  0  0  0
  -21.8060   -7.3050   21.2520 O   0  0  0  0  0  0  0  0  0  0  0  0
  -21.7190   -6.5840   22.4160 C   0  0  0  0  0  0  0  0  0  0  0  0
  -21.3260   -7.1800   23.6340 C   0  0  0  0  0  3  0  0  0  0  0  0
  -21.1810   -6.3880   24.7900 C   0  0  0  0  0  3  0  0  0  0  0  0
  -21.4200   -5.0020   24.7300 C   0  0  0  0  0  0  0  0  0  0  0  0
  -21.8070   -4.4050   23.5170 C   0  0  0  0  0  3  0  0  0  0  0  0
  -21.9530   -5.1950   22.3630 C   0  0  0  0  0  0  0  0  0  0  0  0
  -22.3050   -4.6130   21.1920 F   0  0  0  0  0  0  0  0  0  0  0  0
  -21.2740   -4.2400   25.8400 F   0  0  0  0  0  0  0  0  0  0  0  0
  -23.1910  -13.8930   20.9870 C   0  0  0  0  0  0  0  0  0  0  0  0
  -22.4810  -13.2270   21.8920 N   0  0  0  0  0  0  0  0  0  0  0  0
  -22.7710  -14.9360   20.4900 O   0  0  0  0  0  0  0  0  0  0  0  0
  -22.8330  -12.3800   22.3150 H   0  0  0  0  0  0  0  0  0  0  0  0
  -21.5710  -13.5680   22.1680 H   0  0  0  0  0  0  0  0  0  0  0  0
  -25.8510  -15.4490   20.0750 N   0  0  0  0  0  0  0  0  0  0  0  0
  -25.1180  -16.1300   20.2440 H   0  0  0  0  0  0  0  0  0  0  0  0
  -26.6930  -15.8650   19.7010 H   0  0  0  0  0  0  0  0  0  0  0  0
  1  6  1  0
  1  5  1  0
  3  2  1  0
  4  2  1  0
  5  8  1  0
  5  3  1  0
  6  4  1  0
  7  1  2  0
  8 10  1  0
  9 20  2  0
 10 15  1  0
 11 19  1  0
 11 21  1  0
 12 18  1  0
 12 14  1  0
 13 19  1  0
 14 13  1  0
 15 14  2  0
 16 10  2  0
 17 16  1  0
 17 12  2  0
 18 11  1  0
 19  9  1  0
 21 23  2  0
 22 21  1  0
 24 22  1  0
 25 34  2  0
 25 30  1  0
 26 22  1  0
 26 30  1  0
 27 26  1  0
 28 29  1  0
 28 27  1  0
 29 25  1  0
 30 31  2  0
 31 32  1  0
 33 32  2  0
 34 33  1  0
 35  9  1  0
 35 36  1  0
 35 45  1  0
 36 39  1  0
 37 41  1  0
 37 36  1  0
 38 37  2  0
 41 40  1  0
 43 41  1  0
 43 44  1  0
 43 42  1  0
 45 48  1  1
 45 46  1  0
 47 45  1  0
 49  6  1  0
 49 53  1  0
 50 51  1  0
 52 53  1  0
 52 55  2  0
 53 50  2  0
 54 51  2  0
 54 56  1  0
 55 54  1  0
 57 65  1  0
 58 63  1  0
 59 60  1  0
 59 58  1  0
 61 60  1  0
 61 70  1  0
 61 62  1  0
 63 57  1  0
 63 62  1  0
 64 57  2  0
 65 55  1  0
 66 65  1  0
 67 68  2  0
 68 87  1  0
 69 68  1  0
 69 72  1  0
 70 71  1  0
 70 67  1  0
 71 69  2  0
 72 73  1  0
 73 74  2  0
 75 78  1  0
 75 74  1  0
 76 75  2  0
 77 76  1  0
 77 72  2  0
 78 79  1  0
 79 80  1  0
 80 81  2  0
 82 81  1  0
 82 86  1  0
 83 82  2  0
 84 79  2  0
 84 83  1  0
 85 84  1  0
 87 88  1  0
 88 91  1  0
 88 90  1  0
 89 87  2  0
 92 67  1  0
 92 93  1  0
 94 92  1  0
M  ISO  4   5 101   8 101  57 100  65 100
M  END
>  <TORSDO>  (20) 
F 18

>  <SCORE>  (20) 
-13.620

>  <name>  (20) 
19

>  <ligand_id>  (20) 
19

>  <original_smiles>  (20) 
[H]c1c([H])c([H])c2c(c1[H])C([H])([H])C([H])([H])C([H])([H])C2([H])N([H])C(=O)C1([H])N(C(=O)C([H])(N([H])C(=O)C([H])(N([H])C([H])([H])[H])C([H])([H])[H])C(C([H])([H])[H])(C([H])([H])[H])C([H])([H])[H])C([H])([H])c2c([H])c(OC3([H])C(=O)N(C([H])([H])c4c([H])c([H])c(C([H])([H])[H])c(N([H])C(=O)N5C([H])([H])C([H])([H])C([H])([H])C([H])(n6nc(-c7c([H])c([H])c(Oc8c([H])c([H])c(F)c([H])c8F)c([H])c7[H])c(C(=O)N([H])[H])c6N([H])[H])C5([H])[H])c4[H])C([H])([H])C([H])([H])C3([H])[H])c([H])c([H])c2C1([H])[H]

>  <smiles>  (20) 
[H]c1c([H])c([H])c2c(c1[H])C([H])([H])C([H])([H])C([H])([H])C2([H])N([H])C(=O)C1([H])N(C(=O)C([H])(N([H])C(=O)C([H])(N([H])C([H])([H])[H])C([H])([H])[H])C(C([H])([H])[H])(C([H])([H])[H])C([H])([H])[H])C([H])([H])c2c([H])c(OC3([H])C(=O)N(C([H])([H])c4c([H])c([H])c(C([H])([H])[H])c(N([H])C(=O)N5C([H])([H])C([H])([H])C([H])([H])C([H])(n6nc(-c7c([H])c([H])c(Oc8c([H])c([H])c(F)c([H])c8F)c([H])c7[H])c(C(=O)N([H])[H])c6N([H])[H])C5([H])[H])c4[H])C([H])([H])C([H])([H])C3([H])[H])c([H])c([H])c2C1([H])[H]

$$$$
20:0:0
     RDKit          3D

 95104  0  0  1  0  0  0  0  0999 V2000
  -27.3770  -23.3460   21.8200 C   0  0  0  0  0  2  0  0  0  0  0  0
  -27.6060  -24.8670   21.6940 C   0  0  0  0  0  2  0  0  0  0  0  0
  -28.1440  -22.5120   20.7770 C   0  0  0  0  0  2  0  0  0  0  0  0
  -29.7280  -24.4210   20.3940 C   0  0  0  0  0  2  0  0  0  0  0  0
  -28.3950  -25.2510   20.4250 C   0  0  0  0  0  3  0  0  0  0  0  0
  -29.5650  -22.9370   20.6850 N   0  0  2  0  0  4  0  0  0  0  0  0
  -29.9140  -22.8110   21.6250 H   0  0  0  0  0  0  0  0  0  0  0  0
  -28.5480  -26.7060   20.3660 O   0  0  0  0  0  0  0  0  0  0  0  0
  -24.6250  -31.9530   23.2980 C   0  0  0  0  0  0  0  0  0  0  0  0
  -27.3880  -27.4800   20.3000 C   0  0  0  0  0  0  0  0  0  0  0  0
  -23.4790  -30.5340   21.6350 C   0  0  0  0  0  3  0  0  0  0  0  0
  -24.9830  -29.0050   20.2550 C   0  0  0  0  0  0  0  0  0  0  0  0
  -26.0130  -30.9020   21.5060 C   0  0  0  0  0  2  0  0  0  0  0  0
  -26.1280  -29.5280   20.8680 C   0  0  0  0  0  0  0  0  0  0  0  0
  -27.3340  -28.7750   20.8830 C   0  0  0  0  0  3  0  0  0  0  0  0
  -26.2180  -26.9980   19.6630 C   0  0  0  0  0  3  0  0  0  0  0  0
  -25.0250  -27.7410   19.6530 C   0  0  0  0  0  3  0  0  0  0  0  0
  -23.7340  -29.8570   20.2640 C   0  0  0  0  0  2  0  0  0  0  0  0
  -24.7230  -31.1450   22.2030 N   0  0  0  0  0  0  0  0  0  0  0  0
  -23.5250  -32.2170   23.8040 O   0  0  0  0  0  0  0  0  0  0  0  0
  -22.8090  -29.5080   22.5800 C   0  0  0  0  0  0  0  0  0  0  0  0
  -21.4840  -29.3360   22.4410 N   0  0  0  0  0  0  0  0  0  0  0  0
  -23.4810  -28.8710   23.3970 O   0  0  0  0  0  0  0  0  0  0  0  0
  -21.0040  -29.9030   21.7560 H   0  0  0  0  0  0  0  0  0  0  0  0
  -18.0950  -28.1660   22.9150 C   0  0  0  0  0  0  0  0  0  0  0  0
  -20.6560  -28.3920   23.1920 C   0  0  0  0  0  3  0  0  0  0  0  0
  -20.7480  -26.9710   22.5890 C   0  0  0  0  0  2  0  0  0  0  0  0
  -19.6370  -26.6650   21.5800 C   0  0  0  0  0  2  0  0  0  0  0  0
  -18.2530  -26.8270   22.2150 C   0  0  0  0  0  2  0  0  0  0  0  0
  -19.2220  -28.9070   23.3600 C   0  0  0  0  0  0  0  0  0  0  0  0
  -19.0160  -30.1600   23.9750 C   0  0  0  0  0  3  0  0  0  0  0  0
  -17.7170  -30.6780   24.1380 C   0  0  0  0  0  3  0  0  0  0  0  0
  -16.6050  -29.9370   23.7050 C   0  0  0  0  0  3  0  0  0  0  0  0
  -16.7950  -28.6800   23.1040 C   0  0  0  0  0  3  0  0  0  0  0  0
  -25.8850  -32.6010   23.9500 C   0  0  0  0  0  3  0  0  0  0  0  0
  -26.3750  -31.8430   25.2440 C   0  0  1  0  0  0  0  0  0  0  0  0
  -25.2570  -31.5990   26.2840 C   0  0  0  0  0  1  0  0  0  0  0  0
  -26.9850  -30.4700   24.8760 C   0  0  0  0  0  1  0  0  0  0  0  0
  -27.4980  -32.6540   25.9310 C   0  0  0  0  0  1  0  0  0  0  0  0
  -25.5530  -33.9990   24.2610 N   0  0  0  0  0  0  0  0  0  0  0  0
  -25.9030  -35.0490   23.5050 C   0  0  0  0  0  0  0  0  0  0  0  0
  -26.6090  -34.9430   22.4990 O   0  0  0  0  0  0  0  0  0  0  0  0
  -24.9310  -34.1540   25.0400 H   0  0  0  0  0  0  0  0  0  0  0  0
  -24.1760  -36.8250   23.0730 C   0  0  0  0  0  1  0  0  0  0  0  0
  -25.3880  -36.4360   23.9350 C   0  0  0  0  0  3  0  0  0  0  0  0
  -27.4850  -37.3380   24.8390 C   0  0  0  0  0  1  0  0  0  0  0  0
  -26.4180  -37.4950   23.8540 N   0  0  0  0  0  0  0  0  0  0  0  0
  -26.0010  -38.4140   23.9800 H   0  0  0  0  0  0  0  0  0  0  0  0
  -30.4450  -22.0250   19.8720 C   0  0  0  0  0  2  0  0  0  0  0  0
  -30.5520  -19.5440   20.7060 C   0  0  0  0  0  3  0  0  0  0  0  0
  -29.3950  -17.7790   19.4890 C   0  0  0  0  0  3  0  0  0  0  0  0
  -29.2340  -20.0930   18.7290 C   0  0  0  0  0  3  0  0  0  0  0  0
  -30.2230  -18.1620   20.5640 C   0  0  0  0  0  0  0  0  0  0  0  0
  -30.0620  -20.5240   19.7930 C   0  0  0  0  0  0  0  0  0  0  0  0
  -28.9060  -18.7330   18.5770 C   0  0  0  0  0  0  0  0  0  0  0  0
  -27.9120  -18.2300   17.2590 Cl  0  0  0  0  0  0  0  0  0  0  0  0
  -30.7520  -17.1050   21.5580 C   0  0  0  0  0  2  0  0  0  0  0  0
  -30.9920  -14.6710   20.9160 C   0  0  0  0  0  0  0  0  0  0  0  0
  -30.7570  -12.4990   19.7690 C   0  0  0  0  0  2  0  0  0  0  0  0
  -29.9080  -12.6840   18.4940 C   0  0  0  0  0  2  0  0  0  0  0  0
  -28.4070  -12.5490   18.8200 C   0  0  0  0  0  2  0  0  0  0  0  0
  -27.9780  -13.4000   20.0460 C   0  0  0  0  0  3  0  0  0  0  0  0
  -28.9560  -13.2050   21.2300 C   0  0  0  0  0  2  0  0  0  0  0  0
  -30.3120  -13.5020   20.7470 N   0  0  0  0  0  0  0  0  0  0  0  0
  -32.1540  -14.8240   20.5340 O   0  0  0  0  0  0  0  0  0  0  0  0
  -30.2780  -15.7110   21.3890 N   0  0  0  0  0  0  0  0  0  0  0  0
  -29.3360  -15.5090   21.6870 H   0  0  0  0  0  0  0  0  0  0  0  0
  -25.5340  -14.0070   20.5690 C   0  0  0  0  0  0  0  0  0  0  0  0
  -24.4440  -13.2400   20.8690 C   0  0  0  0  0  0  0  0  0  0  0  0
  -24.9070  -11.8880   20.9020 C   0  0  0  0  0  0  0  0  0  0  0  0
  -26.5950  -13.1260   20.4310 N   0  0  0  0  0  0  0  0  0  0  0  0
  -26.2180  -11.8470   20.6910 N   0  0  0  0  0  0  0  0  0  0  0  0
  -24.1700  -10.6280   21.0600 C   0  0  0  0  0  0  0  0  0  0  0  0
  -24.5410   -9.6720   22.0300 C   0  0  0  0  0  3  0  0  0  0  0  0
  -23.8050   -8.4760   22.1770 C   0  0  0  0  0  3  0  0  0  0  0  0
  -22.6830   -8.2280   21.3510 C   0  0  0  0  0  0  0  0  0  0  0  0
  -22.3310   -9.1740   20.3710 C   0  0  0  0  0  3  0  0  0  0  0  0
  -23.0690  -10.3600   20.2230 C   0  0  0  0  0  3  0  0  0  0  0  0
  -21.9250   -7.0830   21.4030 O   0  0  0  0  0  0  0  0  0  0  0  0
  -21.8070   -6.3510   22.5590 C   0  0  0  0  0  0  0  0  0  0  0  0
  -21.3190   -6.9200   23.7550 C   0  0  0  0  0  3  0  0  0  0  0  0
  -21.1480   -6.1160   24.9000 C   0  0  0  0  0  3  0  0  0  0  0  0
  -21.4530   -4.7420   24.8470 C   0  0  0  0  0  0  0  0  0  0  0  0
  -21.9320   -4.1720   23.6540 C   0  0  0  0  0  3  0  0  0  0  0  0
  -22.1060   -4.9750   22.5120 C   0  0  0  0  0  0  0  0  0  0  0  0
  -22.5490   -4.4160   21.3600 F   0  0  0  0  0  0  0  0  0  0  0  0
  -21.2830   -3.9660   25.9430 F   0  0  0  0  0  0  0  0  0  0  0  0
  -23.0290  -13.7180   21.0280 C   0  0  0  0  0  0  0  0  0  0  0  0
  -22.2420  -13.0440   21.8560 N   0  0  0  0  0  0  0  0  0  0  0  0
  -22.6290  -14.7270   20.4490 O   0  0  0  0  0  0  0  0  0  0  0  0
  -22.5790  -12.2280   22.3470 H   0  0  0  0  0  0  0  0  0  0  0  0
  -21.2900  -13.3490   22.0050 H   0  0  0  0  0  0  0  0  0  0  0  0
  -25.7090  -15.3750   20.3840 N   0  0  0  0  0  0  0  0  0  0  0  0
  -24.9350  -16.0280   20.4330 H   0  0  0  0  0  0  0  0  0  0  0  0
  -26.5760  -15.8150   20.1080 H   0  0  0  0  0  0  0  0  0  0  0  0
  2  1  1  0
  3  1  1  0
  4  5  1  0
  4  6  1  0
  5  8  1  0
  5  2  1  0
  6  3  1  0
  6  7  1  1
  9 20  2  0
 10  8  1  0
 10 15  1  0
 11 19  1  0
 11 21  1  0
 12 18  1  0
 12 14  1  0
 13 19  1  0
 14 15  2  0
 14 13  1  0
 16 10  2  0
 17 16  1  0
 17 12  2  0
 18 11  1  0
 19  9  1  0
 21 23  2  0
 22 21  1  0
 24 22  1  0
 25 34  2  0
 25 30  1  0
 26 22  1  0
 26 30  1  0
 27 26  1  0
 28 29  1  0
 28 27  1  0
 29 25  1  0
 30 31  2  0
 31 32  1  0
 33 32  2  0
 34 33  1  0
 35  9  1  0
 35 40  1  0
 35 36  1  0
 36 39  1  1
 36 37  1  0
 38 36  1  0
 40 43  1  0
 41 45  1  0
 41 40  1  0
 42 41  2  0
 45 44  1  0
 47 45  1  0
 47 48  1  0
 47 46  1  0
 49  6  1  0
 51 53  2  0
 52 54  1  0
 53 50  1  0
 53 57  1  0
 54 49  1  0
 54 50  2  0
 55 52  2  0
 55 51  1  0
 56 55  1  0
 58 66  1  0
 59 64  1  0
 60 61  1  0
 60 59  1  0
 62 61  1  0
 62 71  1  0
 62 63  1  0
 64 58  1  0
 64 63  1  0
 65 58  2  0
 66 57  1  0
 66 67  1  0
 68 69  2  0
 69 70  1  0
 69 88  1  0
 70 73  1  0
 71 68  1  0
 71 72  1  0
 72 70  2  0
 73 74  1  0
 74 75  2  0
 76 79  1  0
 76 75  1  0
 77 76  2  0
 78 77  1  0
 78 73  2  0
 79 80  1  0
 80 81  1  0
 81 82  2  0
 83 82  1  0
 83 87  1  0
 84 83  2  0
 85 80  2  0
 85 84  1  0
 86 85  1  0
 88 89  1  0
 89 92  1  0
 89 91  1  0
 90 88  2  0
 93 94  1  0
 93 68  1  0
 95 93  1  0
M  ISO  4   5 101   8 101  58 100  66 100
M  END
>  <TORSDO>  (21) 
F 19

>  <SCORE>  (21) 
-14.363

>  <name>  (21) 
20

>  <ligand_id>  (21) 
20

>  <original_smiles>  (21) 
[H]c1c([H])c([H])c2c(c1[H])C([H])([H])C([H])([H])C([H])([H])C2([H])N([H])C(=O)C1([H])N(C(=O)C([H])(N([H])C(=O)C([H])(N([H])C([H])([H])[H])C([H])([H])[H])C(C([H])([H])[H])(C([H])([H])[H])C([H])([H])[H])C([H])([H])c2c([H])c(OC3([H])C([H])([H])C([H])([H])C([H])([H])[N+]([H])(C([H])([H])c4c([H])c(Cl)c([H])c(C([H])([H])N([H])C(=O)N5C([H])([H])C([H])([H])C([H])([H])C([H])(n6nc(-c7c([H])c([H])c(Oc8c([H])c([H])c(F)c([H])c8F)c([H])c7[H])c(C(=O)N([H])[H])c6N([H])[H])C5([H])[H])c4[H])C3([H])[H])c([H])c([H])c2C1([H])[H]

>  <smiles>  (21) 
[H]c1c([H])c([H])c2c(c1[H])C([H])([H])C([H])([H])C([H])([H])C2([H])N([H])C(=O)C1([H])N(C(=O)C([H])(N([H])C(=O)C([H])(N([H])C([H])([H])[H])C([H])([H])[H])C(C([H])([H])[H])(C([H])([H])[H])C([H])([H])[H])C([H])([H])c2c([H])c(OC3([H])C([H])([H])C([H])([H])C([H])([H])[N+]([H])(C([H])([H])c4c([H])c(Cl)c([H])c(C([H])([H])N([H])C(=O)N5C([H])([H])C([H])([H])C([H])([H])C([H])(n6nc(-c7c([H])c([H])c(Oc8c([H])c([H])c(F)c([H])c8F)c([H])c7[H])c(C(=O)N([H])[H])c6N([H])[H])C5([H])[H])c4[H])C3([H])[H])c([H])c([H])c2C1([H])[H]

$$$$
21:0:0
     RDKit          3D

 97106  0  0  1  0  0  0  0  0999 V2000
  -29.8670  -21.6610   19.5230 C   0  0  0  0  0  2  0  0  0  0  0  0
  -28.9880  -24.0160   19.8140 C   0  0  0  0  0  0  0  0  0  0  0  0
  -29.4350  -23.7480   22.6040 C   0  0  0  0  0  2  0  0  0  0  0  0
  -28.7260  -25.0560   22.1900 C   0  0  0  0  0  2  0  0  0  0  0  0
  -28.9900  -22.5280   21.7700 C   0  0  0  0  0  2  0  0  0  0  0  0
  -28.3110  -25.1390   20.7010 C   0  0  0  0  0  3  0  0  0  0  0  0
  -29.1960  -22.7480   20.3330 N   0  0  0  0  0  0  0  0  0  0  0  0
  -29.2960  -24.3000   18.6520 O   0  0  0  0  0  0  0  0  0  0  0  0
  -28.4930  -26.5370   20.2330 O   0  0  0  0  0  0  0  0  0  0  0  0
  -24.6510  -31.8740   23.2220 C   0  0  0  0  0  0  0  0  0  0  0  0
  -27.3640  -27.3640   20.2050 C   0  0  0  0  0  0  0  0  0  0  0  0
  -23.4890  -30.4630   21.5620 C   0  0  0  0  0  3  0  0  0  0  0  0
  -24.9790  -28.9320   20.1590 C   0  0  0  0  0  0  0  0  0  0  0  0
  -26.0240  -30.8170   21.4150 C   0  0  0  0  0  2  0  0  0  0  0  0
  -26.1310  -29.4410   20.7720 C   0  0  0  0  0  0  0  0  0  0  0  0
  -27.3290  -28.6690   20.7840 C   0  0  0  0  0  3  0  0  0  0  0  0
  -26.1940  -26.9070   19.5620 C   0  0  0  0  0  3  0  0  0  0  0  0
  -25.0120  -27.6690   19.5450 C   0  0  0  0  0  3  0  0  0  0  0  0
  -23.7300  -29.7900   20.1850 C   0  0  0  0  0  2  0  0  0  0  0  0
  -24.7390  -31.0690   22.1240 N   0  0  0  0  0  0  0  0  0  0  0  0
  -23.5580  -32.1380   23.7410 O   0  0  0  0  0  0  0  0  0  0  0  0
  -22.8250  -29.4380   22.5110 C   0  0  0  0  0  0  0  0  0  0  0  0
  -21.4970  -29.2670   22.3830 N   0  0  0  0  0  0  0  0  0  0  0  0
  -23.5010  -28.7990   23.3210 O   0  0  0  0  0  0  0  0  0  0  0  0
  -21.0110  -29.8340   21.7030 H   0  0  0  0  0  0  0  0  0  0  0  0
  -18.1120  -28.1040   22.8940 C   0  0  0  0  0  0  0  0  0  0  0  0
  -20.6750  -28.3260   23.1440 C   0  0  0  0  0  3  0  0  0  0  0  0
  -20.7540  -26.9040   22.5390 C   0  0  0  0  0  2  0  0  0  0  0  0
  -19.6370  -26.6160   21.5300 C   0  0  0  0  0  2  0  0  0  0  0  0
  -18.2640  -26.7660   22.1900 C   0  0  0  0  0  2  0  0  0  0  0  0
  -19.2440  -28.8430   23.3270 C   0  0  0  0  0  0  0  0  0  0  0  0
  -19.0470  -30.0970   23.9450 C   0  0  0  0  0  3  0  0  0  0  0  0
  -17.7500  -30.6120   24.1340 C   0  0  0  0  0  3  0  0  0  0  0  0
  -16.6320  -29.8700   23.7160 C   0  0  0  0  0  3  0  0  0  0  0  0
  -16.8130  -28.6170   23.1020 C   0  0  0  0  0  3  0  0  0  0  0  0
  -25.9180  -32.5190   23.8640 C   0  0  0  0  0  3  0  0  0  0  0  0
  -26.4160  -31.7600   25.1550 C   0  0  1  0  0  0  0  0  0  0  0  0
  -25.3030  -31.5160   26.2010 C   0  0  0  0  0  1  0  0  0  0  0  0
  -27.0210  -30.3860   24.7830 C   0  0  0  0  0  1  0  0  0  0  0  0
  -27.5440  -32.5690   25.8370 C   0  0  0  0  0  1  0  0  0  0  0  0
  -25.5920  -33.9170   24.1800 N   0  0  0  0  0  0  0  0  0  0  0  0
  -25.9270  -34.9680   23.4200 C   0  0  0  0  0  0  0  0  0  0  0  0
  -26.6130  -34.8630   22.3990 O   0  0  0  0  0  0  0  0  0  0  0  0
  -24.9840  -34.0720   24.9710 H   0  0  0  0  0  0  0  0  0  0  0  0
  -24.2020  -36.7540   23.0150 C   0  0  0  0  0  1  0  0  0  0  0  0
  -25.4230  -36.3560   23.8610 C   0  0  0  0  0  3  0  0  0  0  0  0
  -27.5250  -37.2560   24.7540 C   0  0  0  0  0  1  0  0  0  0  0  0
  -26.4530  -37.4130   23.7740 N   0  0  0  0  0  0  0  0  0  0  0  0
  -26.0390  -38.3310   23.9010 H   0  0  0  0  0  0  0  0  0  0  0  0
  -28.9140  -19.4260   20.5800 C   0  0  0  0  0  3  0  0  0  0  0  0
  -28.9370  -18.0150   20.7960 C   0  0  0  0  0  3  0  0  0  0  0  0
  -30.9820  -17.8500   19.5650 C   0  0  0  0  0  3  0  0  0  0  0  0
  -29.9250  -20.1030   19.8440 C   0  0  0  0  0  0  0  0  0  0  0  0
  -30.9680  -19.2610   19.3060 C   0  0  0  0  0  0  0  0  0  0  0  0
  -29.9710  -17.1790   20.2950 C   0  0  0  0  0  0  0  0  0  0  0  0
  -30.6750  -14.6810   20.0490 C   0  0  0  0  0  0  0  0  0  0  0  0
  -30.3960  -12.4740   18.9430 C   0  0  0  0  0  2  0  0  0  0  0  0
  -29.3850  -12.6480   17.7870 C   0  0  0  0  0  2  0  0  0  0  0  0
  -27.9380  -12.4860   18.2950 C   0  0  0  0  0  2  0  0  0  0  0  0
  -27.6580  -13.3080   19.5810 C   0  0  0  0  0  3  0  0  0  0  0  0
  -28.7770  -13.1080   20.6270 C   0  0  0  0  0  2  0  0  0  0  0  0
  -30.0530  -13.4600   19.9870 N   0  0  0  0  0  0  0  0  0  0  0  0
  -31.8120  -14.8370   19.5940 O   0  0  0  0  0  0  0  0  0  0  0  0
  -29.9070  -15.7260   20.5020 N   0  0  0  0  0  0  0  0  0  0  0  0
  -29.0560  -15.4090   20.9400 H   0  0  0  0  0  0  0  0  0  0  0  0
  -25.3120  -13.8990   20.4470 C   0  0  0  0  0  0  0  0  0  0  0  0
  -24.2640  -13.1200   20.8570 C   0  0  0  0  0  0  0  0  0  0  0  0
  -24.7170  -11.7680   20.7640 C   0  0  0  0  0  0  0  0  0  0  0  0
  -26.3370  -13.0200   20.1320 N   0  0  0  0  0  0  0  0  0  0  0  0
  -25.9870  -11.7320   20.3810 N   0  0  0  0  0  0  0  0  0  0  0  0
  -23.9940  -10.5050   20.9610 C   0  0  0  0  0  0  0  0  0  0  0  0
  -24.4420   -9.5340   21.8830 C   0  0  0  0  0  3  0  0  0  0  0  0
  -23.7210   -8.3350   22.0680 C   0  0  0  0  0  3  0  0  0  0  0  0
  -22.5370   -8.0970   21.3310 C   0  0  0  0  0  0  0  0  0  0  0  0
  -22.1080   -9.0560   20.3970 C   0  0  0  0  0  3  0  0  0  0  0  0
  -22.8310  -10.2470   20.2100 C   0  0  0  0  0  3  0  0  0  0  0  0
  -21.7860   -6.9510   21.4250 O   0  0  0  0  0  0  0  0  0  0  0  0
  -21.7260   -6.2240   22.5870 C   0  0  0  0  0  0  0  0  0  0  0  0
  -21.2380   -6.7800   23.7900 C   0  0  0  0  0  3  0  0  0  0  0  0
  -21.1290   -5.9770   24.9430 C   0  0  0  0  0  3  0  0  0  0  0  0
  -21.4970   -4.6190   24.8940 C   0  0  0  0  0  0  0  0  0  0  0  0
  -21.9780   -4.0630   23.6960 C   0  0  0  0  0  3  0  0  0  0  0  0
  -22.0890   -4.8630   22.5440 C   0  0  0  0  0  0  0  0  0  0  0  0
  -22.5330   -4.3160   21.3870 F   0  0  0  0  0  0  0  0  0  0  0  0
  -21.3850   -3.8450   25.9990 F   0  0  0  0  0  0  0  0  0  0  0  0
  -22.8880  -13.5950   21.2210 C   0  0  0  0  0  0  0  0  0  0  0  0
  -22.2000  -12.8710   22.0970 N   0  0  0  0  0  0  0  0  0  0  0  0
  -22.4310  -14.6420   20.7640 O   0  0  0  0  0  0  0  0  0  0  0  0
  -22.5820  -12.0210   22.4870 H   0  0  0  0  0  0  0  0  0  0  0  0
  -21.2780  -13.1700   22.3810 H   0  0  0  0  0  0  0  0  0  0  0  0
  -25.4730  -15.2730   20.2950 N   0  0  0  0  0  0  0  0  0  0  0  0
  -24.7110  -15.9220   20.4570 H   0  0  0  0  0  0  0  0  0  0  0  0
  -26.2890  -15.7170   19.8950 H   0  0  0  0  0  0  0  0  0  0  0  0
  -33.2270  -20.4210   19.3080 C   0  0  0  0  0  1  0  0  0  0  0  0
  -32.7070  -18.8260   17.4270 C   0  0  0  0  0  1  0  0  0  0  0  0
  -32.1100  -19.8320   18.4320 C   0  0  1  0  0  0  0  0  0  0  0  0
  -31.6570  -20.7940   17.6300 F   0  0  0  0  0  0  0  0  0  0  0  0
  1 53  1  0
  1  7  1  0
  2  7  1  0
  2  6  1  0
  4  3  1  0
  5  3  1  0
  6  9  1  0
  6  4  1  0
  7  5  1  0
  8  2  2  0
 10 21  2  0
 11  9  1  0
 11 16  1  0
 12 20  1  0
 12 22  1  0
 13 19  1  0
 13 15  1  0
 14 20  1  0
 15 16  2  0
 15 14  1  0
 17 11  2  0
 18 17  1  0
 18 13  2  0
 19 12  1  0
 20 10  1  0
 22 24  2  0
 23 22  1  0
 25 23  1  0
 26 35  2  0
 26 31  1  0
 27 23  1  0
 27 31  1  0
 28 27  1  0
 29 30  1  0
 29 28  1  0
 30 26  1  0
 31 32  2  0
 32 33  1  0
 34 33  2  0
 35 34  1  0
 36 10  1  0
 36 41  1  0
 36 37  1  0
 37 40  1  1
 37 38  1  0
 39 37  1  0
 41 44  1  0
 42 46  1  0
 42 41  1  0
 43 42  2  0
 46 45  1  0
 48 46  1  0
 48 49  1  0
 48 47  1  0
 50 51  1  0
 52 55  1  0
 53 50  2  0
 54 52  2  0
 54 53  1  0
 55 64  1  0
 55 51  2  0
 56 64  1  0
 57 62  1  0
 58 59  1  0
 58 57  1  0
 60 59  1  0
 60 69  1  0
 60 61  1  0
 62 56  1  0
 62 61  1  0
 63 56  2  0
 64 65  1  0
 66 67  2  0
 67 86  1  0
 68 67  1  0
 68 71  1  0
 69 70  1  0
 69 66  1  0
 70 68  2  0
 71 72  1  0
 72 73  2  0
 74 77  1  0
 74 73  1  0
 75 74  2  0
 76 75  1  0
 76 71  2  0
 77 78  1  0
 78 79  1  0
 79 80  2  0
 81 80  1  0
 81 85  1  0
 82 81  2  0
 83 78  2  0
 83 82  1  0
 84 83  1  0
 86 87  1  0
 87 90  1  0
 87 89  1  0
 88 86  2  0
 91 66  1  0
 91 92  1  0
 93 91  1  0
 96 95  1  6
 96 54  1  0
 96 94  1  0
 97 96  1  0
M  ISO  4   6 101   9 101  56 100  64 100
M  END
>  <TORSDO>  (22) 
F 19

>  <SCORE>  (22) 
-14.468

>  <name>  (22) 
21

>  <ligand_id>  (22) 
21

>  <original_smiles>  (22) 
[H]c1c([H])c([H])c2c(c1[H])C([H])([H])C([H])([H])C([H])([H])C2([H])N([H])C(=O)C1([H])N(C(=O)C([H])(N([H])C(=O)C([H])(N([H])C([H])([H])[H])C([H])([H])[H])C(C([H])([H])[H])(C([H])([H])[H])C([H])([H])[H])C([H])([H])c2c([H])c(OC3([H])C(=O)N(C([H])([H])c4c([H])c([H])c(N([H])C(=O)N5C([H])([H])C([H])([H])C([H])([H])C([H])(n6nc(-c7c([H])c([H])c(Oc8c([H])c([H])c(F)c([H])c8F)c([H])c7[H])c(C(=O)N([H])[H])c6N([H])[H])C5([H])[H])c([H])c4C(F)(C([H])([H])[H])C([H])([H])[H])C([H])([H])C([H])([H])C3([H])[H])c([H])c([H])c2C1([H])[H]

>  <smiles>  (22) 
[H]c1c([H])c([H])c2c(c1[H])C([H])([H])C([H])([H])C([H])([H])C2([H])N([H])C(=O)C1([H])N(C(=O)C([H])(N([H])C(=O)C([H])(N([H])C([H])([H])[H])C([H])([H])[H])C(C([H])([H])[H])(C([H])([H])[H])C([H])([H])[H])C([H])([H])c2c([H])c(OC3([H])C(=O)N(C([H])([H])c4c([H])c([H])c(N([H])C(=O)N5C([H])([H])C([H])([H])C([H])([H])C([H])(n6nc(-c7c([H])c([H])c(Oc8c([H])c([H])c(F)c([H])c8F)c([H])c7[H])c(C(=O)N([H])[H])c6N([H])[H])C5([H])[H])c([H])c4C(F)(C([H])([H])[H])C([H])([H])[H])C([H])([H])C([H])([H])C3([H])[H])c([H])c([H])c2C1([H])[H]

$$$$
22:0:0
     RDKit          3D

 97 98  0  0  1  0  0  0  0  0999 V2000
  -26.3410  -17.1310   21.3530 C   0  0  0  0  0 15  0  0  0  0  0  0
  -27.3690  -20.4220   20.3560 C   0  0  0  0  0  2  0  0  0  0  0  0
  -26.2320  -19.9690   17.9790 C   0  0  0  0  0  2  0  0  0  0  0  0
  -26.3710  -21.5620   18.0950 C   0  0  0  0  0  2  0  0  0  0  0  0
  -25.8140  -19.0210   19.2130 C   0  0  0  0  0  2  0  0  0  0  0  0
  -27.1980  -22.1670   19.2730 C   0  0  0  0  0  1  0  0  0  0  0  0
  -26.7390  -18.8630   20.3740 N   0  0  0  0  0  2  0  0  0  0  0  0
  -28.1520  -20.5970   21.2950 O   0  0  0  0  0  1  0  0  0  0  0  0
  -27.9450  -24.0090   18.9250 O   0  0  0  0  0  1  0  0  0  0  0  0
  -25.8160  -30.9150   22.2350 C   0  0  0  0  0  0  0  0  0  0  0  0
  -27.4830  -25.6070   18.8620 C   0  0  0  0  0  0  0  0  0  0  0  0
  -24.4910  -29.7620   20.5230 C   0  0  0  0  0  3  0  0  0  0  0  0
  -25.7400  -28.1810   18.8510 C   0  0  0  0  0  0  0  0  0  0  0  0
  -27.0590  -29.6490   20.3280 C   0  0  0  0  0  2  0  0  0  0  0  0
  -26.9430  -28.2470   19.5530 C   0  0  0  0  0  0  0  0  0  0  0  0
  -27.8140  -26.9950   19.5180 C   0  0  0  0  0  3  0  0  0  0  0  0
  -26.4270  -25.9330   17.9690 C   0  0  0  0  0  3  0  0  0  0  0  0
  -25.5710  -27.0820   17.9960 C   0  0  0  0  0  3  0  0  0  0  0  0
  -24.6440  -29.2460   19.0560 C   0  0  0  0  0  2  0  0  0  0  0  0
  -25.8250  -30.1570   21.0770 N   0  0  0  0  0  0  0  0  0  0  0  0
  -24.7590  -31.2040   22.8240 O   0  0  0  0  0  0  0  0  0  0  0  0
  -23.7890  -28.6970   21.4120 C   0  0  0  0  0  0  0  0  0  0  0  0
  -22.4420  -28.6460   21.4110 N   0  0  0  0  0  0  0  0  0  0  0  0
  -24.4690  -27.9200   22.0860 O   0  0  0  0  0  0  0  0  0  0  0  0
  -21.9380  -29.3240   20.8550 H   0  0  0  0  0  0  0  0  0  0  0  0
  -19.0470  -27.6350   22.2260 C   0  0  0  0  0  0  0  0  0  0  0  0
  -21.6330  -27.6500   22.1290 C   0  0  0  0  0  3  0  0  0  0  0  0
  -21.5010  -26.3460   21.3080 C   0  0  0  0  0  2  0  0  0  0  0  0
  -20.2440  -26.3080   20.4340 C   0  0  0  0  0  2  0  0  0  0  0  0
  -18.9860  -26.4320   21.2970 C   0  0  0  0  0  2  0  0  0  0  0  0
  -20.2870  -28.2140   22.6050 C   0  0  0  0  0  0  0  0  0  0  0  0
  -20.2830  -29.3450   23.4500 C   0  0  0  0  0  3  0  0  0  0  0  0
  -19.0730  -29.8960   23.9110 C   0  0  0  0  0  3  0  0  0  0  0  0
  -17.8490  -29.3120   23.5430 C   0  0  0  0  0  3  0  0  0  0  0  0
  -17.8370  -28.1800   22.7080 C   0  0  0  0  0  3  0  0  0  0  0  0
  -27.1250  -31.4700   22.8760 C   0  0  0  0  0  3  0  0  0  0  0  0
  -27.8190  -30.4450   23.8590 C   0  0  1  0  0  0  0  0  0  0  0  0
  -26.8720  -29.8820   24.9470 C   0  0  0  0  0  1  0  0  0  0  0  0
  -28.4110  -29.2410   23.0970 C   0  0  0  0  0  1  0  0  0  0  0  0
  -29.0060  -31.1300   24.5760 C   0  0  0  0  0  1  0  0  0  0  0  0
  -26.7910  -32.7070   23.6190 N   0  0  0  0  0  0  0  0  0  0  0  0
  -27.0420  -33.9590   23.2110 C   0  0  0  0  0  0  0  0  0  0  0  0
  -27.6310  -34.2040   22.1560 O   0  0  0  0  0  0  0  0  0  0  0  0
  -26.2620  -32.5840   24.4680 H   0  0  0  0  0  0  0  0  0  0  0  0
  -25.2600  -35.7110   23.5630 C   0  0  0  0  0  1  0  0  0  0  0  0
  -26.5720  -35.1260   24.1120 C   0  0  0  0  0  3  0  0  0  0  0  0
  -28.7470  -35.8150   25.0230 C   0  0  0  0  0  1  0  0  0  0  0  0
  -27.5700  -36.2090   24.2530 N   0  0  0  0  0  0  0  0  0  0  0  0
  -27.1590  -37.0240   24.7000 H   0  0  0  0  0  0  0  0  0  0  0  0
  -24.5870  -11.8710   19.4320 C   0  0  0  0  0  1  0  0  0  0  0  0
  -26.7490  -12.0410   18.5270 C   0  0  0  0  0  1  0  0  0  0  0  0
  -27.9910  -14.8140   20.6740 C   0  0  0  0  0  1  0  0  0  0  0  0
  -24.5880  -13.4700   21.4240 C   0  0  0  0  0  1  0  0  0  0  0  0
  -26.2330  -15.0300   21.5220 C   0  0  0  0  0  1  0  0  0  0  0  0
  -28.3850  -13.5270   19.1600 C   0  0  0  0  0  1  0  0  0  0  0  0
  -30.8550  -13.5930   20.6550 C   0  0  0  0  0  0  0  0  0  0  0  0
  -31.6240  -11.3660   20.7660 C   0  0  0  0  0  2  0  0  0  0  0  0
  -30.9950  -10.9430   19.4210 C   0  0  0  0  0  2  0  0  0  0  0  0
  -29.4190  -10.6440   19.6680 C   0  0  0  0  0  2  0  0  0  0  0  0
  -28.6710  -11.6180   20.7270 C   0  0  0  0  0  3  0  0  0  0  0  0
  -29.5390  -11.9960   21.9070 C   0  0  0  0  0  2  0  0  0  0  0  0
  -30.7740  -12.4280   21.3110 N   0  0  0  0  0  0  0  0  0  0  0  0
  -31.8670  -14.2420   21.0450 O   0  0  0  0  0  0  0  0  0  0  0  0
  -29.9730  -13.7560   19.4330 N   0  0  0  0  0  0  0  0  0  0  0  0
  -30.3690  -14.4390   18.8000 H   0  0  0  0  0  0  0  0  0  0  0  0
  -26.1420  -13.6430   19.3510 C   0  0  0  0  0  3  0  0  0  0  0  0
  -25.4520  -13.3200   19.5550 C   0  0  0  0  0  3  0  0  0  0  0  0
  -26.3290  -11.6010   20.7900 C   0  0  0  0  0  3  0  0  0  0  0  0
  -27.1170  -12.3280   20.6090 N   0  0  0  0  0  0  0  0  0  0  0  0
  -26.9650  -11.7870   21.7490 N   0  0  0  0  0  2  0  0  0  0  0  0
  -25.6370   -9.8620   21.0820 C   0  0  0  0  0  0  0  0  0  0  0  0
  -25.3780   -9.1430   22.3160 C   0  0  0  0  0  3  0  0  0  0  0  0
  -24.5170   -7.9730   22.5250 C   0  0  0  0  0  3  0  0  0  0  0  0
  -23.6470   -7.4230   21.5390 C   0  0  0  0  0  0  0  0  0  0  0  0
  -23.8170   -8.0390   20.2950 C   0  0  0  0  0  3  0  0  0  0  0  0
  -24.8630   -9.0140   20.0950 C   0  0  0  0  0  3  0  0  0  0  0  0
  -22.7620   -6.3330   21.6520 O   0  0  0  0  0  0  0  0  0  0  0  0
  -22.4120   -5.7250   22.8510 C   0  0  0  0  0  0  0  0  0  0  0  0
  -21.7830   -6.4660   23.8750 C   0  0  0  0  0  3  0  0  0  0  0  0
  -21.4130   -5.8510   25.0900 C   0  0  0  0  0  3  0  0  0  0  0  0
  -21.6560   -4.4800   25.2950 C   0  0  0  0  0  0  0  0  0  0  0  0
  -22.2350   -3.7170   24.2660 C   0  0  0  0  0  3  0  0  0  0  0  0
  -22.5980   -4.3280   23.0480 C   0  0  0  0  0  0  0  0  0  0  0  0
  -23.1250   -3.5550   22.0660 F   0  0  0  0  0  0  0  0  0  0  0  0
  -21.3290   -3.9000   26.4760 F   0  0  0  0  0  0  0  0  0  0  0  0
  -23.8230  -13.7740   19.2510 C   0  0  0  0  0  0  0  0  0  0  0  0
  -22.7370  -13.2160   19.9250 N   0  0  0  0  0  0  0  0  0  0  0  0
  -23.5000  -14.3690   18.2810 O   0  0  0  0  0  0  0  0  0  0  0  0
  -22.8280  -12.5350   20.6620 H   0  0  0  0  0  0  0  0  0  0  0  0
  -21.8080  -13.4660   19.6160 H   0  0  0  0  0  0  0  0  0  0  0  0
  -26.2920  -14.7240   18.4440 N   0  0  0  0  0  0  0  0  0  0  0  0
  -25.5140  -15.0940   17.9100 H   0  0  0  0  0  0  0  0  0  0  0  0
  -27.1840  -15.1370   18.2070 H   0  0  0  0  0  0  0  0  0  0  0  0
  -23.4200  -13.5600   22.3890 C   0  0  1  0  0  0  0  0  0  0  0  0
  -23.8610  -13.4380   23.6410 F   0  0  0  0  0  0  0  0  0  0  0  0
  -22.7960  -14.7310   22.2660 F   0  0  0  0  0  0  0  0  0  0  0  0
  -22.5630  -12.5700   22.1390 F   0  0  0  0  0  0  0  0  0  0  0  0
  2  7  1  0
  2  8  1  0
  3  4  1  0
  3  5  1  0
  4  6  1  0
  5  7  1  0
 10 21  2  0
 11  9  1  0
 11 16  1  0
 12 20  1  0
 12 22  1  0
 13 19  1  0
 13 15  1  0
 14 20  1  0
 15 14  1  0
 16 15  2  0
 17 18  1  0
 17 11  2  0
 18 13  2  0
 19 12  1  0
 20 10  1  0
 22 24  2  0
 23 22  1  0
 25 23  1  0
 26 31  2  0
 26 35  1  0
 27 23  1  0
 27 31  1  0
 28 27  1  0
 29 30  1  0
 29 28  1  0
 30 26  1  0
 31 32  1  0
 32 33  2  0
 34 33  1  0
 35 34  2  0
 36 10  1  0
 36 41  1  0
 36 37  1  0
 37 40  1  1
 37 38  1  0
 39 37  1  0
 41 44  1  0
 42 41  1  0
 42 46  1  0
 43 42  2  0
 46 45  1  0
 46 48  1  0
 48 49  1  0
 48 47  1  0
 52 54  1  0
 94 53  1  6
 55 64  1  0
 56 63  2  0
 56 62  1  0
 57 62  1  0
 58 59  1  0
 58 57  1  0
 60 59  1  0
 60 61  1  0
 62 61  1  0
 64 56  1  0
 65 64  1  0
 66 51  1  0
 66 67  1  0
 67 50  1  0
 68 71  1  0
 68 70  1  0
 69 60  1  0
 69 68  1  0
 69 70  1  0
 71 72  1  0
 72 73  2  0
 74 77  1  0
 74 73  1  0
 75 74  2  0
 76 75  1  0
 76 71  2  0
 77 78  1  0
 78 83  2  0
 78 79  1  0
 79 80  2  0
 80 81  1  0
 81 85  1  0
 82 81  2  0
 83 82  1  0
 84 83  1  0
 86 67  1  0
 86 87  1  0
 87 89  1  0
 88 86  2  0
 90 87  1  0
 91 66  1  0
 92 91  1  0
 93 91  1  0
 94 95  1  0
 96 94  1  0
 97 94  1  0
M  ISO  4   6 101   9 101  56 100  64 100
M  END
>  <TORSDO>  (23) 
F 19

>  <SCORE>  (23) 
7.712

>  <name>  (23) 
22

>  <ligand_id>  (23) 
22

>  <original_smiles>  (23) 
[H]c1c([H])c([H])c2c(c1[H])C([H])([H])C([H])([H])C([H])([H])C2([H])N([H])C(=O)C1([H])N(C(=O)C([H])(N([H])C(=O)C([H])(N([H])C([H])([H])[H])C([H])([H])[H])C(C([H])([H])[H])(C([H])([H])[H])C([H])([H])[H])C([H])([H])c2c([H])c(OC3([H])C(=O)N(C([H])([H])c4c([H])c(N([H])C(=O)N5C([H])([H])C([H])([H])C([H])([H])C([H])(n6nc(-c7c([H])c([H])c(Oc8c([H])c([H])c(F)c([H])c8F)c([H])c7[H])c(C(=O)N([H])[H])c6N([H])[H])C5([H])[H])c([H])c([H])c4C(F)(F)F)C([H])([H])C([H])([H])C3([H])[H])c([H])c([H])c2C1([H])[H]

>  <smiles>  (23) 
[H]c1c([H])c([H])c2c(c1[H])C([H])([H])C([H])([H])C([H])([H])C2([H])N([H])C(=O)C1([H])N(C(=O)C([H])(N([H])C(=O)C([H])(N([H])C([H])([H])[H])C([H])([H])[H])C(C([H])([H])[H])(C([H])([H])[H])C([H])([H])[H])C([H])([H])c2c([H])c(OC3([H])C(=O)N(C([H])([H])c4c([H])c(N([H])C(=O)N5C([H])([H])C([H])([H])C([H])([H])C([H])(n6nc(-c7c([H])c([H])c(Oc8c([H])c([H])c(F)c([H])c8F)c([H])c7[H])c(C(=O)N([H])[H])c6N([H])[H])C5([H])[H])c([H])c([H])c4C(F)(F)F)C([H])([H])C([H])([H])C3([H])[H])c([H])c([H])c2C1([H])[H]

$$$$
23:0:0
     RDKit          3D

 92100  0  0  1  0  0  0  0  0999 V2000
  -30.2710  -21.7270   20.4740 C   0  0  0  0  0  2  0  0  0  0  0  0
  -28.9120  -19.4760   20.7200 C   0  0  0  0  0  3  0  0  0  0  0  0
  -28.8450  -18.0480   20.7510 C   0  0  0  0  0  3  0  0  0  0  0  0
  -31.1260  -17.9030   20.0080 C   0  0  0  0  0  3  0  0  0  0  0  0
  -30.0950  -20.1600   20.3450 C   0  0  0  0  0  0  0  0  0  0  0  0
  -29.9510  -17.2160   20.4140 C   0  0  0  0  0  0  0  0  0  0  0  0
  -31.1950  -19.3290   19.9770 C   0  0  0  0  0  0  0  0  0  0  0  0
  -32.3640  -19.9010   19.5980 F   0  0  0  0  0  0  0  0  0  0  0  0
  -30.5930  -14.6970   20.1250 C   0  0  0  0  0  0  0  0  0  0  0  0
  -30.3260  -12.4860   19.0220 C   0  0  0  0  0  2  0  0  0  0  0  0
  -29.3390  -12.6730   17.8510 C   0  0  0  0  0  2  0  0  0  0  0  0
  -27.8760  -12.5320   18.3230 C   0  0  0  0  0  2  0  0  0  0  0  0
  -27.5800  -13.3300   19.6240 C   0  0  0  0  0  3  0  0  0  0  0  0
  -28.6880  -13.1250   20.6840 C   0  0  0  0  0  2  0  0  0  0  0  0
  -29.9710  -13.4770   20.0560 N   0  0  0  0  0  0  0  0  0  0  0  0
  -31.7470  -14.8450   19.7120 O   0  0  0  0  0  0  0  0  0  0  0  0
  -29.7970  -15.7550   20.4900 N   0  0  0  0  0  0  0  0  0  0  0  0
  -28.8840  -15.4530   20.7930 H   0  0  0  0  0  0  0  0  0  0  0  0
  -25.2150  -13.9140   20.4430 C   0  0  0  0  0  0  0  0  0  0  0  0
  -24.1650  -13.1340   20.8460 C   0  0  0  0  0  0  0  0  0  0  0  0
  -24.6240  -11.7840   20.7750 C   0  0  0  0  0  0  0  0  0  0  0  0
  -26.2500  -13.0380   20.1530 N   0  0  0  0  0  0  0  0  0  0  0  0
  -25.9010  -11.7510   20.4130 N   0  0  0  0  0  0  0  0  0  0  0  0
  -23.9040  -10.5200   20.9760 C   0  0  0  0  0  0  0  0  0  0  0  0
  -24.3540   -9.5510   21.9010 C   0  0  0  0  0  3  0  0  0  0  0  0
  -23.6310   -8.3530   22.0930 C   0  0  0  0  0  3  0  0  0  0  0  0
  -22.4450   -8.1150   21.3590 C   0  0  0  0  0  0  0  0  0  0  0  0
  -22.0130   -9.0710   20.4240 C   0  0  0  0  0  3  0  0  0  0  0  0
  -22.7350  -10.2610   20.2310 C   0  0  0  0  0  3  0  0  0  0  0  0
  -21.6940   -6.9680   21.4570 O   0  0  0  0  0  0  0  0  0  0  0  0
  -21.6470   -6.2380   22.6170 C   0  0  0  0  0  0  0  0  0  0  0  0
  -21.1920   -6.7950   23.8320 C   0  0  0  0  0  3  0  0  0  0  0  0
  -21.0940   -5.9890   24.9820 C   0  0  0  0  0  3  0  0  0  0  0  0
  -21.4420   -4.6270   24.9200 C   0  0  0  0  0  0  0  0  0  0  0  0
  -21.8880   -4.0690   23.7080 C   0  0  0  0  0  3  0  0  0  0  0  0
  -21.9880   -4.8730   22.5590 C   0  0  0  0  0  0  0  0  0  0  0  0
  -22.4000   -4.3260   21.3900 F   0  0  0  0  0  0  0  0  0  0  0  0
  -21.3410   -3.8490   26.0240 F   0  0  0  0  0  0  0  0  0  0  0  0
  -22.7780  -13.6100   21.1800 C   0  0  0  0  0  0  0  0  0  0  0  0
  -22.0840  -12.9030   22.0660 N   0  0  0  0  0  0  0  0  0  0  0  0
  -22.3200  -14.6400   20.6880 O   0  0  0  0  0  0  0  0  0  0  0  0
  -22.4610  -12.0650   22.4810 H   0  0  0  0  0  0  0  0  0  0  0  0
  -21.1580  -13.2080   22.3330 H   0  0  0  0  0  0  0  0  0  0  0  0
  -25.3620  -15.2870   20.2760 N   0  0  0  0  0  0  0  0  0  0  0  0
  -24.5820  -15.9150   20.4320 H   0  0  0  0  0  0  0  0  0  0  0  0
  -26.1320  -15.7360   19.7950 H   0  0  0  0  0  0  0  0  0  0  0  0
  -29.2430  -24.0650   20.4190 C   0  0  0  0  0  0  0  0  0  0  0  0
  -28.4800  -22.3570   18.8080 C   0  0  0  0  0  1  0  0  0  0  0  0
  -29.2750  -22.7510   19.9740 N   0  0  0  0  0  0  0  0  0  0  0  0
  -29.9960  -24.4460   21.3200 O   0  0  0  0  0  0  0  0  0  0  0  0
  -28.2290  -25.1180   19.8100 C   0  0  0  0  0  2  0  0  0  0  0  0
  -28.3700  -26.5330   20.2370 O   0  0  0  0  0  0  0  0  0  0  0  0
  -24.5920  -31.8770   23.2430 C   0  0  0  0  0  0  0  0  0  0  0  0
  -27.2370  -27.3660   20.1660 C   0  0  0  0  0  0  0  0  0  0  0  0
  -23.3960  -30.4860   21.5900 C   0  0  0  0  0  3  0  0  0  0  0  0
  -24.8590  -28.9610   20.1570 C   0  0  0  0  0  0  0  0  0  0  0  0
  -25.9310  -30.8270   21.4090 C   0  0  0  0  0  2  0  0  0  0  0  0
  -26.0230  -29.4560   20.7530 C   0  0  0  0  0  0  0  0  0  0  0  0
  -27.2130  -28.6700   20.7490 C   0  0  0  0  0  3  0  0  0  0  0  0
  -26.0460  -26.9300   19.5350 C   0  0  0  0  0  3  0  0  0  0  0  0
  -24.8720  -27.7040   19.5370 C   0  0  0  0  0  3  0  0  0  0  0  0
  -23.6140  -29.8220   20.2060 C   0  0  0  0  0  2  0  0  0  0  0  0
  -24.6580  -31.0790   22.1370 N   0  0  0  0  0  0  0  0  0  0  0  0
  -23.5080  -32.1460   23.7800 O   0  0  0  0  0  0  0  0  0  0  0  0
  -22.7350  -29.4600   22.5420 C   0  0  0  0  0  0  0  0  0  0  0  0
  -21.4090  -29.2830   22.4150 N   0  0  0  0  0  0  0  0  0  0  0  0
  -23.4140  -28.8250   23.3530 O   0  0  0  0  0  0  0  0  0  0  0  0
  -20.9180  -29.8420   21.7290 H   0  0  0  0  0  0  0  0  0  0  0  0
  -18.0280  -28.1050   22.9250 C   0  0  0  0  0  0  0  0  0  0  0  0
  -20.5900  -28.3430   23.1820 C   0  0  0  0  0  3  0  0  0  0  0  0
  -20.6790  -26.9180   22.5900 C   0  0  0  0  0  2  0  0  0  0  0  0
  -19.5670  -26.6160   21.5790 C   0  0  0  0  0  2  0  0  0  0  0  0
  -18.1900  -26.7640   22.2310 C   0  0  0  0  0  2  0  0  0  0  0  0
  -19.1550  -28.8540   23.3570 C   0  0  0  0  0  0  0  0  0  0  0  0
  -18.9490  -30.1120   23.9650 C   0  0  0  0  0  3  0  0  0  0  0  0
  -17.6490  -30.6200   24.1460 C   0  0  0  0  0  3  0  0  0  0  0  0
  -16.5360  -29.8660   23.7320 C   0  0  0  0  0  3  0  0  0  0  0  0
  -16.7280  -28.6120   23.1260 C   0  0  0  0  0  3  0  0  0  0  0  0
  -25.8750  -32.5090   23.8660 C   0  0  0  0  0  3  0  0  0  0  0  0
  -26.3880  -31.7340   25.1420 C   0  0  1  0  0  0  0  0  0  0  0  0
  -25.2900  -31.4870   26.2010 C   0  0  0  0  0  1  0  0  0  0  0  0
  -26.9790  -30.3590   24.7490 C   0  0  0  0  0  1  0  0  0  0  0  0
  -27.5330  -32.5290   25.8110 C   0  0  0  0  0  1  0  0  0  0  0  0
  -25.5650  -33.9080   24.1990 N   0  0  0  0  0  0  0  0  0  0  0  0
  -25.8830  -34.9620   23.4340 C   0  0  0  0  0  0  0  0  0  0  0  0
  -26.5390  -34.8580   22.3940 O   0  0  0  0  0  0  0  0  0  0  0  0
  -24.9880  -34.0610   25.0130 H   0  0  0  0  0  0  0  0  0  0  0  0
  -24.1420  -36.7430   23.0970 C   0  0  0  0  0  1  0  0  0  0  0  0
  -25.3940  -36.3470   23.8950 C   0  0  0  0  0  3  0  0  0  0  0  0
  -27.5280  -37.2480   24.7040 C   0  0  0  0  0  1  0  0  0  0  0  0
  -26.4170  -37.4060   23.7690 N   0  0  0  0  0  0  0  0  0  0  0  0
  -26.0060  -38.3230   23.9220 H   0  0  0  0  0  0  0  0  0  0  0  0
  2  3  1  0
  4  6  1  0
  5  1  1  0
  5  2  2  0
  6 17  1  0
  6  3  2  0
  7  4  2  0
  7  5  1  0
  8  7  1  0
  9 17  1  0
 10 15  1  0
 11 12  1  0
 11 10  1  0
 13 12  1  0
 13 22  1  0
 13 14  1  0
 15  9  1  0
 15 14  1  0
 16  9  2  0
 17 18  1  0
 19 20  2  0
 20 39  1  0
 21 20  1  0
 21 24  1  0
 22 23  1  0
 22 19  1  0
 23 21  2  0
 24 25  1  0
 25 26  2  0
 27 30  1  0
 27 26  1  0
 28 27  2  0
 29 28  1  0
 29 24  2  0
 30 31  1  0
 31 32  1  0
 32 33  2  0
 34 33  1  0
 34 38  1  0
 35 34  2  0
 36 31  2  0
 36 35  1  0
 37 36  1  0
 39 40  1  0
 40 43  1  0
 40 42  1  0
 41 39  2  0
 44 45  1  0
 44 19  1  0
 46 44  1  0
 47 50  2  0
 48 49  1  0
 49 47  1  0
 49  1  1  0
 51 52  1  0
 51 47  1  0
 53 64  2  0
 54 52  1  0
 54 59  1  0
 55 63  1  0
 55 65  1  0
 56 62  1  0
 56 58  1  0
 57 63  1  0
 58 57  1  0
 59 58  2  0
 60 61  1  0
 60 54  2  0
 61 56  2  0
 62 55  1  0
 63 53  1  0
 65 67  2  0
 66 65  1  0
 68 66  1  0
 69 78  2  0
 69 74  1  0
 70 66  1  0
 70 74  1  0
 71 70  1  0
 72 73  1  0
 72 71  1  0
 73 69  1  0
 74 75  2  0
 75 76  1  0
 77 76  2  0
 78 77  1  0
 79 53  1  0
 79 84  1  0
 79 80  1  0
 80 83  1  1
 80 81  1  0
 82 80  1  0
 84 87  1  0
 85 89  1  0
 85 84  1  0
 86 85  2  0
 89 88  1  0
 91 89  1  0
 91 92  1  0
 91 90  1  0
M  ISO  4   9 100  17 100  51 101  52 101
M  END
>  <TORSDO>  (24) 
F 19

>  <SCORE>  (24) 
-14.274

>  <name>  (24) 
23

>  <ligand_id>  (24) 
23

>  <original_smiles>  (24) 
[H]c1c([H])c([H])c2c(c1[H])C([H])([H])C([H])([H])C([H])([H])C2([H])N([H])C(=O)C1([H])N(C(=O)C([H])(N([H])C(=O)C([H])(N([H])C([H])([H])[H])C([H])([H])[H])C(C([H])([H])[H])(C([H])([H])[H])C([H])([H])[H])C([H])([H])c2c([H])c(OC([H])([H])C(=O)N(C([H])([H])[H])C([H])([H])c3c([H])c([H])c(N([H])C(=O)N4C([H])([H])C([H])([H])C([H])([H])C([H])(n5nc(-c6c([H])c([H])c(Oc7c([H])c([H])c(F)c([H])c7F)c([H])c6[H])c(C(=O)N([H])[H])c5N([H])[H])C4([H])[H])c([H])c3F)c([H])c([H])c2C1([H])[H]

>  <smiles>  (24) 
[H]c1c([H])c([H])c2c(c1[H])C([H])([H])C([H])([H])C([H])([H])C2([H])N([H])C(=O)C1([H])N(C(=O)C([H])(N([H])C(=O)C([H])(N([H])C([H])([H])[H])C([H])([H])[H])C(C([H])([H])[H])(C([H])([H])[H])C([H])([H])[H])C([H])([H])c2c([H])c(OC([H])([H])C(=O)N(C([H])([H])[H])C([H])([H])c3c([H])c([H])c(N([H])C(=O)N4C([H])([H])C([H])([H])C([H])([H])C([H])(n5nc(-c6c([H])c([H])c(Oc7c([H])c([H])c(F)c([H])c7F)c([H])c6[H])c(C(=O)N([H])[H])c5N([H])[H])C4([H])[H])c([H])c3F)c([H])c([H])c2C1([H])[H]

$$$$
24:0:0
     RDKit          3D

101110  0  0  1  0  0  0  0  0999 V2000
  -28.1150  -22.7140   20.6120 C   0  0  0  0  0  3  0  0  0  0  0  0
  -28.0390  -21.7880   19.6200 C   0  0  0  0  0  3  0  0  0  0  0  0
  -26.8720  -23.4000   21.1540 C   0  0  0  0  0  2  0  0  0  0  0  0
  -27.0530  -24.9310   21.2150 C   0  0  0  0  0  2  0  0  0  0  0  0
  -29.3870  -24.8420   20.2140 C   0  0  0  0  0  2  0  0  0  0  0  0
  -27.9770  -25.4370   20.0280 C   0  0  0  0  0  3  0  0  0  0  0  0
  -29.1690  -21.3860   18.7010 C   0  0  0  0  0  1  0  0  0  0  0  0
  -26.7120  -21.1260   19.2320 C   0  0  0  0  0  1  0  0  0  0  0  0
  -29.2820  -23.6050   21.0180 N   0  0  2  0  0  4  0  0  0  0  0  0
  -28.8620  -24.0490   21.8230 H   0  0  0  0  0  0  0  0  0  0  0  0
  -28.1720  -26.8530   19.9430 O   0  0  0  0  0  0  0  0  0  0  0  0
  -24.5080  -31.9220   23.1860 C   0  0  0  0  0  0  0  0  0  0  0  0
  -27.0340  -27.6170   19.8840 C   0  0  0  0  0  0  0  0  0  0  0  0
  -23.2420  -30.5320   21.5880 C   0  0  0  0  0  3  0  0  0  0  0  0
  -24.6390  -29.0760   20.0420 C   0  0  0  0  0  0  0  0  0  0  0  0
  -25.7460  -30.9460   21.2620 C   0  0  0  0  0  2  0  0  0  0  0  0
  -25.8160  -29.5930   20.5950 C   0  0  0  0  0  0  0  0  0  0  0  0
  -27.0210  -28.8680   20.5240 C   0  0  0  0  0  3  0  0  0  0  0  0
  -25.8620  -27.1580   19.2360 C   0  0  0  0  0  3  0  0  0  0  0  0
  -24.6540  -27.8520   19.3650 C   0  0  0  0  0  3  0  0  0  0  0  0
  -23.3880  -29.9110   20.1750 C   0  0  0  0  0  2  0  0  0  0  0  0
  -24.5210  -31.1440   22.0710 N   0  0  0  0  0  0  0  0  0  0  0  0
  -23.4480  -32.1700   23.7780 O   0  0  0  0  0  0  0  0  0  0  0  0
  -22.6580  -29.4710   22.5450 C   0  0  0  0  0  0  0  0  0  0  0  0
  -21.3380  -29.2400   22.4430 N   0  0  0  0  0  0  0  0  0  0  0  0
  -23.3830  -28.8600   23.3320 O   0  0  0  0  0  0  0  0  0  0  0  0
  -20.8140  -29.7980   21.7840 H   0  0  0  0  0  0  0  0  0  0  0  0
  -18.0120  -27.9190   22.9400 C   0  0  0  0  0  0  0  0  0  0  0  0
  -20.5590  -28.2740   23.2210 C   0  0  0  0  0  3  0  0  0  0  0  0
  -20.7180  -26.8440   22.6530 C   0  0  0  0  0  2  0  0  0  0  0  0
  -19.6300  -26.4720   21.6420 C   0  0  0  0  0  2  0  0  0  0  0  0
  -18.2420  -26.5700   22.2830 C   0  0  0  0  0  2  0  0  0  0  0  0
  -19.0990  -28.7280   23.3650 C   0  0  0  0  0  0  0  0  0  0  0  0
  -18.8270  -29.9950   23.9290 C   0  0  0  0  0  3  0  0  0  0  0  0
  -17.5040  -30.4480   24.0770 C   0  0  0  0  0  3  0  0  0  0  0  0
  -16.4330  -29.6330   23.6750 C   0  0  0  0  0  3  0  0  0  0  0  0
  -16.6880  -28.3700   23.1130 C   0  0  0  0  0  3  0  0  0  0  0  0
  -25.8130  -32.5590   23.7610 C   0  0  0  0  0  3  0  0  0  0  0  0
  -26.3910  -31.7700   24.9940 C   0  0  1  0  0  0  0  0  0  0  0  0
  -25.3460  -31.4980   26.1010 C   0  0  0  0  0  1  0  0  0  0  0  0
  -26.9600  -30.4120   24.5270 C   0  0  0  0  0  1  0  0  0  0  0  0
  -27.5580  -32.5580   25.6250 C   0  0  0  0  0  1  0  0  0  0  0  0
  -25.5090  -33.9520   24.1170 N   0  0  0  0  0  0  0  0  0  0  0  0
  -25.8030  -35.0140   23.3550 C   0  0  0  0  0  0  0  0  0  0  0  0
  -26.4400  -34.9270   22.3010 O   0  0  0  0  0  0  0  0  0  0  0  0
  -24.9600  -34.0940   24.9520 H   0  0  0  0  0  0  0  0  0  0  0  0
  -24.0570  -36.7880   23.0600 C   0  0  0  0  0  1  0  0  0  0  0  0
  -25.3160  -36.3910   23.8450 C   0  0  0  0  0  3  0  0  0  0  0  0
  -27.4600  -37.2670   24.6520 C   0  0  0  0  0  1  0  0  0  0  0  0
  -26.3410  -37.4520   23.7310 N   0  0  0  0  0  0  0  0  0  0  0  0
  -25.9350  -38.3670   23.9100 H   0  0  0  0  0  0  0  0  0  0  0  0
  -30.5080  -23.1830   21.7670 C   0  0  0  0  0  2  0  0  0  0  0  0
  -30.1830  -20.7590   22.4860 C   0  0  0  0  0  3  0  0  0  0  0  0
  -30.3830  -19.3840   22.2550 C   0  0  0  0  0  3  0  0  0  0  0  0
  -31.6670  -21.2710   20.6220 C   0  0  0  0  0  3  0  0  0  0  0  0
  -30.8110  -21.7070   21.6480 C   0  0  0  0  0  0  0  0  0  0  0  0
  -31.2390  -18.9270   21.2170 C   0  0  0  0  0  0  0  0  0  0  0  0
  -31.8180  -19.8990   20.3490 C   0  0  0  0  0  0  0  0  0  0  0  0
  -32.5610  -19.5870   19.0620 C   0  0  0  0  0  1  0  0  0  0  0  0
  -31.5740  -17.4180   21.1660 C   0  0  1  0  0  0  0  0  0  0  0  0
  -32.6090  -17.1310   20.3810 F   0  0  0  0  0  0  0  0  0  0  0  0
  -31.9660  -17.0840   22.3950 F   0  0  0  0  0  0  0  0  0  0  0  0
  -30.3650  -16.5360   20.7950 C   0  0  0  0  0  2  0  0  0  0  0  0
  -30.9730  -14.3240   19.9240 C   0  0  0  0  0  0  0  0  0  0  0  0
  -30.4550  -12.1610   18.8160 C   0  0  0  0  0  2  0  0  0  0  0  0
  -29.4770  -12.4550   17.6650 C   0  0  0  0  0  2  0  0  0  0  0  0
  -28.0240  -12.4290   18.1630 C   0  0  0  0  0  2  0  0  0  0  0  0
  -27.8160  -13.2990   19.4320 C   0  0  0  0  0  3  0  0  0  0  0  0
  -28.9160  -13.0030   20.4780 C   0  0  0  0  0  2  0  0  0  0  0  0
  -30.2420  -13.1790   19.8530 N   0  0  0  0  0  0  0  0  0  0  0  0
  -31.8780  -14.6250   19.1430 O   0  0  0  0  0  0  0  0  0  0  0  0
  -30.6050  -15.1040   20.9340 N   0  0  0  0  0  0  0  0  0  0  0  0
  -30.0220  -14.6210   21.5970 H   0  0  0  0  0  0  0  0  0  0  0  0
  -25.5240  -14.0540   20.3550 C   0  0  0  0  0  0  0  0  0  0  0  0
  -24.4370  -13.3330   20.7940 C   0  0  0  0  0  0  0  0  0  0  0  0
  -24.8040  -11.9600   20.6780 C   0  0  0  0  0  0  0  0  0  0  0  0
  -26.4860  -13.1120   20.0040 N   0  0  0  0  0  0  0  0  0  0  0  0
  -26.0560  -11.8450   20.2530 N   0  0  0  0  0  0  0  0  0  0  0  0
  -24.0060  -10.7400   20.8890 C   0  0  0  0  0  0  0  0  0  0  0  0
  -24.4120   -9.7230   21.7830 C   0  0  0  0  0  3  0  0  0  0  0  0
  -23.6040   -8.5800   21.9820 C   0  0  0  0  0  3  0  0  0  0  0  0
  -22.3740   -8.4510   21.2950 C   0  0  0  0  0  0  0  0  0  0  0  0
  -21.9880   -9.4560   20.3900 C   0  0  0  0  0  3  0  0  0  0  0  0
  -22.7950  -10.5850   20.1850 C   0  0  0  0  0  3  0  0  0  0  0  0
  -21.5420   -7.3610   21.4120 O   0  0  0  0  0  0  0  0  0  0  0  0
  -21.4970   -6.6130   22.5640 C   0  0  0  0  0  0  0  0  0  0  0  0
  -21.1520   -7.1810   23.8090 C   0  0  0  0  0  3  0  0  0  0  0  0
  -21.0380   -6.3630   24.9530 C   0  0  0  0  0  3  0  0  0  0  0  0
  -21.2630   -4.9770   24.8480 C   0  0  0  0  0  0  0  0  0  0  0  0
  -21.5990   -4.4060   23.6070 C   0  0  0  0  0  3  0  0  0  0  0  0
  -21.7080   -5.2230   22.4680 C   0  0  0  0  0  0  0  0  0  0  0  0
  -22.0100   -4.6650   21.2700 F   0  0  0  0  0  0  0  0  0  0  0  0
  -21.1500   -4.1890   25.9440 F   0  0  0  0  0  0  0  0  0  0  0  0
  -23.1030  -13.8970   21.1860 C   0  0  0  0  0  0  0  0  0  0  0  0
  -22.4060  -13.2370   22.1080 N   0  0  0  0  0  0  0  0  0  0  0  0
  -22.6810  -14.9450   20.7110 O   0  0  0  0  0  0  0  0  0  0  0  0
  -22.7630  -12.3870   22.5180 H   0  0  0  0  0  0  0  0  0  0  0  0
  -21.5030  -13.5870   22.3890 H   0  0  0  0  0  0  0  0  0  0  0  0
  -25.7490  -15.4180   20.2050 N   0  0  0  0  0  0  0  0  0  0  0  0
  -25.0280  -16.1090   20.4030 H   0  0  0  0  0  0  0  0  0  0  0  0
  -26.6140  -15.8350   19.8710 H   0  0  0  0  0  0  0  0  0  0  0  0
  1  2  1  0
  1  9  1  0
  1  3  1  0
  3  4  1  0
  5  9  1  0
  6 11  1  0
  6  5  1  0
  6  4  1  0
  7  2  1  0
  8  2  1  0
  9 52  1  0
  9 10  1  1
 12 23  2  0
 13 11  1  0
 13 18  1  0
 14 22  1  0
 14 24  1  0
 15 21  1  0
 15 17  1  0
 16 22  1  0
 17 16  1  0
 18 17  2  0
 19 20  1  0
 19 13  2  0
 20 15  2  0
 21 14  1  0
 22 12  1  0
 24 26  2  0
 25 24  1  0
 27 25  1  0
 28 37  2  0
 28 33  1  0
 29 25  1  0
 29 33  1  0
 30 29  1  0
 31 32  1  0
 31 30  1  0
 32 28  1  0
 33 34  2  0
 34 35  1  0
 36 35  2  0
 37 36  1  0
 38 12  1  0
 38 43  1  0
 38 39  1  0
 39 42  1  1
 39 40  1  0
 41 39  1  0
 43 46  1  0
 44 48  1  0
 44 43  1  0
 45 44  2  0
 48 47  1  0
 50 48  1  0
 50 51  1  0
 50 49  1  0
 54 53  1  0
 55 56  1  0
 56 52  1  0
 56 53  2  0
 57 54  2  0
 58 55  2  0
 58 57  1  0
 59 58  1  0
 60 57  1  0
 60 62  1  1
 61 60  1  0
 63 72  1  0
 63 60  1  0
 64 72  1  0
 65 70  1  0
 66 67  1  0
 66 65  1  0
 68 67  1  0
 68 77  1  0
 68 69  1  0
 70 64  1  0
 70 69  1  0
 71 64  2  0
 72 73  1  0
 74 75  2  0
 75 94  1  0
 76 75  1  0
 76 79  1  0
 77 78  1  0
 77 74  1  0
 78 76  2  0
 79 80  1  0
 80 81  2  0
 82 85  1  0
 82 81  1  0
 83 82  2  0
 84 83  1  0
 84 79  2  0
 85 86  1  0
 86 87  1  0
 87 88  2  0
 89 88  1  0
 89 93  1  0
 90 89  2  0
 91 86  2  0
 91 90  1  0
 92 91  1  0
 94 95  1  0
 95 98  1  0
 95 97  1  0
 96 94  2  0
 99 74  1  0
 99100  1  0
101 99  1  0
M  ISO  4   6 101  11 101  64 100  72 100
M  END
>  <TORSDO>  (25) 
F 20

>  <SCORE>  (25) 
-12.875

>  <name>  (25) 
24

>  <ligand_id>  (25) 
24

>  <original_smiles>  (25) 
[H]c1c([H])c([H])c2c(c1[H])C([H])([H])C([H])([H])C([H])([H])C2([H])N([H])C(=O)C1([H])N(C(=O)C([H])(N([H])C(=O)C([H])(N([H])C([H])([H])[H])C([H])([H])[H])C(C([H])([H])[H])(C([H])([H])[H])C([H])([H])[H])C([H])([H])c2c([H])c(OC3([H])C([H])([H])C([H])([H])C(=C(C([H])([H])[H])C([H])([H])[H])[N+]([H])(C([H])([H])c4c([H])c([H])c(C(F)(F)C([H])([H])N([H])C(=O)N5C([H])([H])C([H])([H])C([H])([H])C([H])(n6nc(-c7c([H])c([H])c(Oc8c([H])c([H])c(F)c([H])c8F)c([H])c7[H])c(C(=O)N([H])[H])c6N([H])[H])C5([H])[H])c(C([H])([H])[H])c4[H])C3([H])[H])c([H])c([H])c2C1([H])[H]

>  <smiles>  (25) 
[H]c1c([H])c([H])c2c(c1[H])C([H])([H])C([H])([H])C([H])([H])C2([H])N([H])C(=O)C1([H])N(C(=O)C([H])(N([H])C(=O)C([H])(N([H])C([H])([H])[H])C([H])([H])[H])C(C([H])([H])[H])(C([H])([H])[H])C([H])([H])[H])C([H])([H])c2c([H])c(OC3([H])C([H])([H])C([H])([H])C(=C(C([H])([H])[H])C([H])([H])[H])[N+]([H])(C([H])([H])c4c([H])c([H])c(C(F)(F)C([H])([H])N([H])C(=O)N5C([H])([H])C([H])([H])C([H])([H])C([H])(n6nc(-c7c([H])c([H])c(Oc8c([H])c([H])c(F)c([H])c8F)c([H])c7[H])c(C(=O)N([H])[H])c6N([H])[H])C5([H])[H])c(C([H])([H])[H])c4[H])C3([H])[H])c([H])c([H])c2C1([H])[H]

$$$$
25:0:0
     RDKit          3D

 93101  0  0  1  0  0  0  0  0999 V2000
  -29.0040  -22.8360   20.8230 C   0  0  0  0  0  0  0  0  0  0  0  0
  -31.4010  -22.2360   21.0930 C   0  0  0  0  0  1  0  0  0  0  0  0
  -29.9670  -21.9250   21.1490 N   0  0  0  0  0  0  0  0  0  0  0  0
  -27.8140  -22.5090   20.7810 O   0  0  0  0  0  0  0  0  0  0  0  0
  -29.6550  -20.5570   21.6510 C   0  0  0  0  0  2  0  0  0  0  0  0
  -29.8470  -18.0390   21.1490 C   0  0  0  0  0  3  0  0  0  0  0  0
  -29.9640  -19.6080   19.2830 C   0  0  0  0  0  3  0  0  0  0  0  0
  -30.1260  -17.2070   18.8780 C   0  0  0  0  0  3  0  0  0  0  0  0
  -29.8350  -19.3820   20.6720 C   0  0  0  0  0  0  0  0  0  0  0  0
  -30.0080  -16.9380   20.2630 C   0  0  0  0  0  0  0  0  0  0  0  0
  -30.1050  -18.5300   18.3920 C   0  0  0  0  0  0  0  0  0  0  0  0
  -30.2380  -18.8260   16.6970 Cl  0  0  0  0  0  0  0  0  0  0  0  0
  -30.6490  -14.5390   20.1990 C   0  0  0  0  0  0  0  0  0  0  0  0
  -30.3050  -12.3890   19.0470 C   0  0  0  0  0  2  0  0  0  0  0  0
  -29.3260  -12.6320   17.8780 C   0  0  0  0  0  2  0  0  0  0  0  0
  -27.8650  -12.4950   18.3530 C   0  0  0  0  0  2  0  0  0  0  0  0
  -27.5760  -13.3050   19.6460 C   0  0  0  0  0  3  0  0  0  0  0  0
  -28.6690  -13.0580   20.7120 C   0  0  0  0  0  2  0  0  0  0  0  0
  -29.9770  -13.3590   20.1080 N   0  0  0  0  0  0  0  0  0  0  0  0
  -31.7630  -14.7070   19.6960 O   0  0  0  0  0  0  0  0  0  0  0  0
  -29.9750  -15.5800   20.7420 N   0  0  0  0  0  0  0  0  0  0  0  0
  -29.2000  -15.3420   21.3420 H   0  0  0  0  0  0  0  0  0  0  0  0
  -25.2030  -13.9010   20.4420 C   0  0  0  0  0  0  0  0  0  0  0  0
  -24.1470  -13.1280   20.8420 C   0  0  0  0  0  0  0  0  0  0  0  0
  -24.6030  -11.7740   20.7820 C   0  0  0  0  0  0  0  0  0  0  0  0
  -26.2380  -13.0220   20.1660 N   0  0  0  0  0  0  0  0  0  0  0  0
  -25.8820  -11.7370   20.4260 N   0  0  0  0  0  0  0  0  0  0  0  0
  -23.8810  -10.5100   20.9850 C   0  0  0  0  0  0  0  0  0  0  0  0
  -24.3430   -9.5370   21.8970 C   0  0  0  0  0  3  0  0  0  0  0  0
  -23.6240   -8.3360   22.0890 C   0  0  0  0  0  3  0  0  0  0  0  0
  -22.4290   -8.1020   21.3690 C   0  0  0  0  0  0  0  0  0  0  0  0
  -21.9840   -9.0650   20.4460 C   0  0  0  0  0  3  0  0  0  0  0  0
  -22.7040  -10.2560   20.2510 C   0  0  0  0  0  3  0  0  0  0  0  0
  -21.6780   -6.9550   21.4720 O   0  0  0  0  0  0  0  0  0  0  0  0
  -21.6640   -6.2040   22.6190 C   0  0  0  0  0  0  0  0  0  0  0  0
  -21.2750   -6.7510   23.8610 C   0  0  0  0  0  3  0  0  0  0  0  0
  -21.2100   -5.9270   25.0010 C   0  0  0  0  0  3  0  0  0  0  0  0
  -21.5190   -4.5560   24.9020 C   0  0  0  0  0  0  0  0  0  0  0  0
  -21.9030   -4.0100   23.6640 C   0  0  0  0  0  3  0  0  0  0  0  0
  -21.9720   -4.8300   22.5250 C   0  0  0  0  0  0  0  0  0  0  0  0
  -22.3240   -4.2960   21.3310 F   0  0  0  0  0  0  0  0  0  0  0  0
  -21.4430   -3.7640   25.9960 F   0  0  0  0  0  0  0  0  0  0  0  0
  -22.7610  -13.6060   21.1680 C   0  0  0  0  0  0  0  0  0  0  0  0
  -22.0610  -12.9020   22.0520 N   0  0  0  0  0  0  0  0  0  0  0  0
  -22.3070  -14.6360   20.6720 O   0  0  0  0  0  0  0  0  0  0  0  0
  -22.4370  -12.0700   22.4790 H   0  0  0  0  0  0  0  0  0  0  0  0
  -21.1330  -13.2080   22.3140 H   0  0  0  0  0  0  0  0  0  0  0  0
  -25.3690  -15.2740   20.2790 N   0  0  0  0  0  0  0  0  0  0  0  0
  -24.6160  -15.9390   20.4220 H   0  0  0  0  0  0  0  0  0  0  0  0
  -26.2190  -15.7070   19.9400 H   0  0  0  0  0  0  0  0  0  0  0  0
  -29.3790  -24.3270   20.5410 C   0  0  0  0  0  2  0  0  0  0  0  0
  -28.1840  -25.2150   20.0590 C   0  0  0  0  0  2  0  0  0  0  0  0
  -28.3520  -26.6550   20.1620 O   0  0  0  0  0  0  0  0  0  0  0  0
  -24.5650  -31.8950   23.2280 C   0  0  0  0  0  0  0  0  0  0  0  0
  -27.1890  -27.4190   20.1310 C   0  0  0  0  0  0  0  0  0  0  0  0
  -23.3490  -30.4920   21.5950 C   0  0  0  0  0  3  0  0  0  0  0  0
  -24.7940  -28.9550   20.1580 C   0  0  0  0  0  0  0  0  0  0  0  0
  -25.8790  -30.8390   21.3860 C   0  0  0  0  0  2  0  0  0  0  0  0
  -25.9600  -29.4680   20.7400 C   0  0  0  0  0  0  0  0  0  0  0  0
  -27.1580  -28.7090   20.7220 C   0  0  0  0  0  3  0  0  0  0  0  0
  -25.9970  -26.9360   19.5360 C   0  0  0  0  0  3  0  0  0  0  0  0
  -24.8110  -27.6900   19.5500 C   0  0  0  0  0  3  0  0  0  0  0  0
  -23.5490  -29.8140   20.2140 C   0  0  0  0  0  2  0  0  0  0  0  0
  -24.6170  -31.0920   22.1270 N   0  0  0  0  0  0  0  0  0  0  0  0
  -23.4850  -32.1690   23.7710 O   0  0  0  0  0  0  0  0  0  0  0  0
  -22.7020  -29.4720   22.5600 C   0  0  0  0  0  0  0  0  0  0  0  0
  -21.3780  -29.2870   22.4390 N   0  0  0  0  0  0  0  0  0  0  0  0
  -23.3910  -28.8480   23.3730 O   0  0  0  0  0  0  0  0  0  0  0  0
  -20.8870  -29.8390   21.7490 H   0  0  0  0  0  0  0  0  0  0  0  0
  -18.0050  -28.0850   22.9490 C   0  0  0  0  0  0  0  0  0  0  0  0
  -20.5650  -28.3500   23.2140 C   0  0  0  0  0  3  0  0  0  0  0  0
  -20.6670  -26.9180   22.6390 C   0  0  0  0  0  2  0  0  0  0  0  0
  -19.5620  -26.5910   21.6300 C   0  0  0  0  0  2  0  0  0  0  0  0
  -18.1820  -26.7350   22.2760 C   0  0  0  0  0  2  0  0  0  0  0  0
  -19.1240  -28.8500   23.3730 C   0  0  0  0  0  0  0  0  0  0  0  0
  -18.9040  -30.1150   23.9600 C   0  0  0  0  0  3  0  0  0  0  0  0
  -17.5990  -30.6140   24.1290 C   0  0  0  0  0  3  0  0  0  0  0  0
  -16.4950  -29.8450   23.7200 C   0  0  0  0  0  3  0  0  0  0  0  0
  -16.7000  -28.5830   23.1350 C   0  0  0  0  0  3  0  0  0  0  0  0
  -25.8540  -32.5260   23.8390 C   0  0  0  0  0  3  0  0  0  0  0  0
  -26.3780  -31.7580   25.1140 C   0  0  1  0  0  0  0  0  0  0  0  0
  -25.2910  -31.5270   26.1900 C   0  0  0  0  0  1  0  0  0  0  0  0
  -26.9580  -30.3790   24.7230 C   0  0  0  0  0  1  0  0  0  0  0  0
  -27.5320  -32.5540   25.7660 C   0  0  0  0  0  1  0  0  0  0  0  0
  -25.5460  -33.9250   24.1670 N   0  0  0  0  0  0  0  0  0  0  0  0
  -25.8750  -34.9770   23.4060 C   0  0  0  0  0  0  0  0  0  0  0  0
  -26.5410  -34.8730   22.3730 O   0  0  0  0  0  0  0  0  0  0  0  0
  -24.9540  -34.0810   24.9700 H   0  0  0  0  0  0  0  0  0  0  0  0
  -24.1480  -36.7710   23.0470 C   0  0  0  0  0  1  0  0  0  0  0  0
  -25.3860  -36.3650   23.8630 C   0  0  0  0  0  3  0  0  0  0  0  0
  -27.5240  -37.2430   24.6920 C   0  0  0  0  0  1  0  0  0  0  0  0
  -26.4180  -37.4190   23.7550 N   0  0  0  0  0  0  0  0  0  0  0  0
  -26.0120  -38.3370   23.9110 H   0  0  0  0  0  0  0  0  0  0  0  0
  1  3  1  0
  2  3  1  0
  3  5  1  0
  4  1  2  0
  7  9  2  0
  8 10  1  0
  9  6  1  0
  9  5  1  0
 10 21  1  0
 10  6  2  0
 11  8  2  0
 11  7  1  0
 12 11  1  0
 13 21  1  0
 14 19  1  0
 15 16  1  0
 15 14  1  0
 17 16  1  0
 17 26  1  0
 17 18  1  0
 19 13  1  0
 19 18  1  0
 20 13  2  0
 21 22  1  0
 23 24  2  0
 24 43  1  0
 25 24  1  0
 25 28  1  0
 26 27  1  0
 26 23  1  0
 27 25  2  0
 28 29  1  0
 29 30  2  0
 31 34  1  0
 31 30  1  0
 32 31  2  0
 33 32  1  0
 33 28  2  0
 34 35  1  0
 35 36  1  0
 36 37  2  0
 38 37  1  0
 38 42  1  0
 39 38  2  0
 40 35  2  0
 40 39  1  0
 41 40  1  0
 43 44  1  0
 44 47  1  0
 44 46  1  0
 45 43  2  0
 48 49  1  0
 48 23  1  0
 50 48  1  0
 51  1  1  0
 52 53  1  0
 52 51  1  0
 54 65  2  0
 55 53  1  0
 55 60  1  0
 56 64  1  0
 56 66  1  0
 57 63  1  0
 57 59  1  0
 58 64  1  0
 59 58  1  0
 60 59  2  0
 61 62  1  0
 61 55  2  0
 62 57  2  0
 63 56  1  0
 64 54  1  0
 66 68  2  0
 67 66  1  0
 69 67  1  0
 70 79  2  0
 70 75  1  0
 71 67  1  0
 71 75  1  0
 72 71  1  0
 73 74  1  0
 73 72  1  0
 74 70  1  0
 75 76  2  0
 76 77  1  0
 78 77  2  0
 79 78  1  0
 80 54  1  0
 80 85  1  0
 80 81  1  0
 81 84  1  1
 81 82  1  0
 83 81  1  0
 85 88  1  0
 86 90  1  0
 86 85  1  0
 87 86  2  0
 90 89  1  0
 92 90  1  0
 92 93  1  0
 92 91  1  0
M  ISO  4  13 100  21 100  52 101  53 101
M  END
>  <TORSDO>  (26) 
F 20

>  <SCORE>  (26) 
-13.903

>  <name>  (26) 
25

>  <ligand_id>  (26) 
25

>  <original_smiles>  (26) 
[H]c1c([H])c([H])c2c(c1[H])C([H])([H])C([H])([H])C([H])([H])C2([H])N([H])C(=O)C1([H])N(C(=O)C([H])(N([H])C(=O)C([H])(N([H])C([H])([H])[H])C([H])([H])[H])C(C([H])([H])[H])(C([H])([H])[H])C([H])([H])[H])C([H])([H])c2c([H])c(OC([H])([H])C([H])([H])C(=O)N(C([H])([H])[H])C([H])([H])c3c([H])c(Cl)c([H])c(N([H])C(=O)N4C([H])([H])C([H])([H])C([H])([H])C([H])(n5nc(-c6c([H])c([H])c(Oc7c([H])c([H])c(F)c([H])c7F)c([H])c6[H])c(C(=O)N([H])[H])c5N([H])[H])C4([H])[H])c3[H])c([H])c([H])c2C1([H])[H]

>  <smiles>  (26) 
[H]c1c([H])c([H])c2c(c1[H])C([H])([H])C([H])([H])C([H])([H])C2([H])N([H])C(=O)C1([H])N(C(=O)C([H])(N([H])C(=O)C([H])(N([H])C([H])([H])[H])C([H])([H])[H])C(C([H])([H])[H])(C([H])([H])[H])C([H])([H])[H])C([H])([H])c2c([H])c(OC([H])([H])C([H])([H])C(=O)N(C([H])([H])[H])C([H])([H])c3c([H])c(Cl)c([H])c(N([H])C(=O)N4C([H])([H])C([H])([H])C([H])([H])C([H])(n5nc(-c6c([H])c([H])c(Oc7c([H])c([H])c(F)c([H])c7F)c([H])c6[H])c(C(=O)N([H])[H])c5N([H])[H])C4([H])[H])c3[H])c([H])c([H])c2C1([H])[H]

$$$$
26:0:0
     RDKit          3D

 91 99  0  0  1  0  0  0  0  0999 V2000
  -29.0700  -23.3170   20.2440 C   0  0  0  0  0  0  0  0  0  0  0  0
  -27.5740  -21.5900   19.3740 C   0  0  0  0  0  1  0  0  0  0  0  0
  -28.7800  -21.8870   20.1460 N   0  0  0  0  0  0  0  0  0  0  0  0
  -30.2460  -23.6800   20.3640 O   0  0  0  0  0  0  0  0  0  0  0  0
  -31.1600  -19.4060   22.0720 C   0  0  0  0  0  3  0  0  0  0  0  0
  -31.0030  -18.1310   21.4850 C   0  0  0  0  0  3  0  0  0  0  0  0
  -29.3680  -19.1620   20.0290 C   0  0  0  0  0  3  0  0  0  0  0  0
  -30.4510  -20.5710   21.6790 C   0  0  0  0  0  0  0  0  0  0  0  0
  -30.0730  -17.8940   20.4610 C   0  0  0  0  0  0  0  0  0  0  0  0
  -29.5520  -20.5690   20.5650 C   0  0  0  0  0  0  0  0  0  0  0  0
  -30.6300  -21.7580   22.6150 C   0  0  0  0  0  1  0  0  0  0  0  0
  -30.6300  -15.1760   20.1430 C   0  0  0  0  0  0  0  0  0  0  0  0
  -30.5340  -12.7970   19.2140 C   0  0  0  0  0  2  0  0  0  0  0  0
  -29.5630  -12.6520   18.0200 C   0  0  0  0  0  2  0  0  0  0  0  0
  -28.1300  -12.3810   18.5160 C   0  0  0  0  0  2  0  0  0  0  0  0
  -27.7250  -13.3460   19.6600 C   0  0  0  0  0  3  0  0  0  0  0  0
  -28.8140  -13.4480   20.7460 C   0  0  0  0  0  2  0  0  0  0  0  0
  -30.0300  -13.9120   20.0660 N   0  0  0  0  0  0  0  0  0  0  0  0
  -31.8570  -15.1930   19.9860 O   0  0  0  0  0  0  0  0  0  0  0  0
  -29.8530  -16.3960   20.0780 N   0  0  0  0  0  0  0  0  0  0  0  0
  -28.8970  -16.2040   19.8130 H   0  0  0  0  0  0  0  0  0  0  0  0
  -25.3790  -13.9210   20.4970 C   0  0  0  0  0  0  0  0  0  0  0  0
  -24.3220  -13.1470   20.8910 C   0  0  0  0  0  0  0  0  0  0  0  0
  -24.7780  -11.7920   20.8190 C   0  0  0  0  0  0  0  0  0  0  0  0
  -26.4090  -13.0420   20.2090 N   0  0  0  0  0  0  0  0  0  0  0  0
  -26.0570  -11.7560   20.4680 N   0  0  0  0  0  0  0  0  0  0  0  0
  -24.0490  -10.5330   20.9950 C   0  0  0  0  0  0  0  0  0  0  0  0
  -24.4860   -9.5550   21.9140 C   0  0  0  0  0  3  0  0  0  0  0  0
  -23.7600   -8.3550   22.0830 C   0  0  0  0  0  3  0  0  0  0  0  0
  -22.5800   -8.1290   21.3350 C   0  0  0  0  0  0  0  0  0  0  0  0
  -22.1610   -9.0970   20.4030 C   0  0  0  0  0  3  0  0  0  0  0  0
  -22.8890  -10.2860   20.2330 C   0  0  0  0  0  3  0  0  0  0  0  0
  -21.8230   -6.9850   21.4160 O   0  0  0  0  0  0  0  0  0  0  0  0
  -21.7510   -6.2500   22.5740 C   0  0  0  0  0  0  0  0  0  0  0  0
  -21.2720   -6.8030   23.7800 C   0  0  0  0  0  3  0  0  0  0  0  0
  -21.1510   -5.9930   24.9280 C   0  0  0  0  0  3  0  0  0  0  0  0
  -21.4980   -4.6310   24.8670 C   0  0  0  0  0  0  0  0  0  0  0  0
  -21.9680   -4.0770   23.6640 C   0  0  0  0  0  3  0  0  0  0  0  0
  -22.0930   -4.8840   22.5190 C   0  0  0  0  0  0  0  0  0  0  0  0
  -22.5290   -4.3390   21.3590 F   0  0  0  0  0  0  0  0  0  0  0  0
  -21.3710   -3.8520   25.9660 F   0  0  0  0  0  0  0  0  0  0  0  0
  -22.9390  -13.6270   21.2140 C   0  0  0  0  0  0  0  0  0  0  0  0
  -22.2230  -12.9200   22.0790 N   0  0  0  0  0  0  0  0  0  0  0  0
  -22.5000  -14.6720   20.7310 O   0  0  0  0  0  0  0  0  0  0  0  0
  -22.5870  -12.0780   22.5010 H   0  0  0  0  0  0  0  0  0  0  0  0
  -21.2960  -13.2310   22.3280 H   0  0  0  0  0  0  0  0  0  0  0  0
  -25.5470  -15.2920   20.3230 N   0  0  0  0  0  0  0  0  0  0  0  0
  -24.7570  -15.9280   20.3340 H   0  0  0  0  0  0  0  0  0  0  0  0
  -26.3720  -15.7030   19.9070 H   0  0  0  0  0  0  0  0  0  0  0  0
  -27.9550  -24.5870   20.1390 C   0  0  0  0  0  2  0  0  0  0  0  0
  -28.2660  -26.1350   20.2950 O   0  0  0  0  0  0  0  0  0  0  0  0
  -24.6410  -31.9380   23.2220 C   0  0  0  0  0  0  0  0  0  0  0  0
  -27.2150  -27.1440   20.2300 C   0  0  0  0  0  0  0  0  0  0  0  0
  -23.4410  -30.5230   21.6050 C   0  0  0  0  0  3  0  0  0  0  0  0
  -24.8820  -28.9170   20.1980 C   0  0  0  0  0  0  0  0  0  0  0  0
  -25.9980  -30.7690   21.4350 C   0  0  0  0  0  2  0  0  0  0  0  0
  -26.0680  -29.3620   20.7970 C   0  0  0  0  0  0  0  0  0  0  0  0
  -27.2290  -28.4910   20.7990 C   0  0  0  0  0  3  0  0  0  0  0  0
  -26.0020  -26.8200   19.5820 C   0  0  0  0  0  3  0  0  0  0  0  0
  -24.8630  -27.6570   19.5780 C   0  0  0  0  0  3  0  0  0  0  0  0
  -23.6620  -29.8290   20.2350 C   0  0  0  0  0  2  0  0  0  0  0  0
  -24.7140  -31.1000   22.1420 N   0  0  0  0  0  0  0  0  0  0  0  0
  -23.5550  -32.2350   23.7460 O   0  0  0  0  0  0  0  0  0  0  0  0
  -22.7610  -29.5320   22.5850 C   0  0  0  0  0  0  0  0  0  0  0  0
  -21.4340  -29.3510   22.4560 N   0  0  0  0  0  0  0  0  0  0  0  0
  -23.4300  -28.9310   23.4290 O   0  0  0  0  0  0  0  0  0  0  0  0
  -20.9550  -29.8740   21.7350 H   0  0  0  0  0  0  0  0  0  0  0  0
  -18.0630  -28.1290   22.9750 C   0  0  0  0  0  0  0  0  0  0  0  0
  -20.6170  -28.4230   23.2440 C   0  0  0  0  0  3  0  0  0  0  0  0
  -20.7420  -26.9840   22.6960 C   0  0  0  0  0  2  0  0  0  0  0  0
  -19.6480  -26.6290   21.6850 C   0  0  0  0  0  2  0  0  0  0  0  0
  -18.2600  -26.7720   22.3190 C   0  0  0  0  0  2  0  0  0  0  0  0
  -19.1720  -28.9120   23.3950 C   0  0  0  0  0  0  0  0  0  0  0  0
  -18.9400  -30.1780   23.9720 C   0  0  0  0  0  3  0  0  0  0  0  0
  -17.6290  -30.6630   24.1360 C   0  0  0  0  0  3  0  0  0  0  0  0
  -16.5330  -29.8810   23.7310 C   0  0  0  0  0  3  0  0  0  0  0  0
  -16.7510  -28.6170   23.1540 C   0  0  0  0  0  3  0  0  0  0  0  0
  -25.9200  -32.5840   23.8370 C   0  0  0  0  0  3  0  0  0  0  0  0
  -25.6040  -33.9810   24.1750 N   0  0  0  0  0  0  0  0  0  0  0  0
  -25.9150  -35.0430   23.4190 C   0  0  0  0  0  0  0  0  0  0  0  0
  -26.5670  -34.9470   22.3750 O   0  0  0  0  0  0  0  0  0  0  0  0
  -25.0210  -34.1270   24.9860 H   0  0  0  0  0  0  0  0  0  0  0  0
  -24.1800  -36.8340   23.0860 C   0  0  0  0  0  1  0  0  0  0  0  0
  -25.4280  -36.4290   23.8890 C   0  0  0  0  0  3  0  0  0  0  0  0
  -27.5630  -37.3150   24.7180 C   0  0  0  0  0  1  0  0  0  0  0  0
  -26.4580  -37.4860   23.7760 N   0  0  0  0  0  0  0  0  0  0  0  0
  -26.0540  -38.4070   23.9230 H   0  0  0  0  0  0  0  0  0  0  0  0
  -26.4450  -31.8150   25.1120 C   0  0  1  0  0  0  0  0  0  0  0  0
  -25.3520  -31.5630   26.1780 C   0  0  0  0  0  1  0  0  0  0  0  0
  -27.0400  -30.4430   24.7240 C   0  0  0  0  0  1  0  0  0  0  0  0
  -27.6010  -32.6090   25.7630 C   0  0  0  0  0  1  0  0  0  0  0  0
  1  4  2  0
  2  3  1  0
  3  1  1  0
  3 10  1  0
  6  5  2  0
  7  9  2  0
  7 10  1  0
  8  5  1  0
  8 11  1  0
  9  6  1  0
 10  8  2  0
 13 18  1  0
 14 15  1  0
 14 13  1  0
 16 15  1  0
 16 25  1  0
 16 17  1  0
 18 12  1  0
 18 17  1  0
 19 12  2  0
 20 12  1  0
 20  9  1  0
 21 20  1  0
 22 23  2  0
 23 42  1  0
 24 23  1  0
 24 27  1  0
 25 26  1  0
 25 22  1  0
 26 24  2  0
 27 28  1  0
 28 29  2  0
 30 33  1  0
 30 29  1  0
 31 30  2  0
 32 31  1  0
 32 27  2  0
 33 34  1  0
 34 35  1  0
 35 36  2  0
 37 36  1  0
 37 41  1  0
 38 37  2  0
 39 34  2  0
 39 38  1  0
 40 39  1  0
 42 43  1  0
 43 46  1  0
 43 45  1  0
 44 42  2  0
 47 48  1  0
 47 22  1  0
 49 47  1  0
 50  1  1  0
 50 51  1  0
 52 63  2  0
 53 51  1  0
 53 58  1  0
 54 62  1  0
 54 64  1  0
 55 61  1  0
 55 57  1  0
 56 62  1  0
 57 58  2  0
 57 56  1  0
 59 53  2  0
 60 59  1  0
 60 55  2  0
 61 54  1  0
 62 52  1  0
 64 66  2  0
 65 64  1  0
 67 65  1  0
 68 77  2  0
 68 73  1  0
 69 65  1  0
 69 73  1  0
 70 69  1  0
 71 72  1  0
 71 70  1  0
 72 68  1  0
 73 74  2  0
 74 75  1  0
 76 75  2  0
 77 76  1  0
 78 52  1  0
 78 79  1  0
 78 88  1  0
 79 82  1  0
 80 84  1  0
 80 79  1  0
 81 80  2  0
 84 83  1  0
 86 84  1  0
 86 87  1  0
 86 85  1  0
 88 91  1  1
 88 89  1  0
 90 88  1  0
M  ISO  4  12 100  20 100  50 101  51 101
M  END
>  <TORSDO>  (27) 
F 18

>  <SCORE>  (27) 
-14.965

>  <name>  (27) 
26

>  <ligand_id>  (27) 
26

>  <original_smiles>  (27) 
[H]c1c([H])c([H])c2c(c1[H])C([H])([H])C([H])([H])C([H])([H])C2([H])N([H])C(=O)C1([H])N(C(=O)C([H])(N([H])C(=O)C([H])(N([H])C([H])([H])[H])C([H])([H])[H])C(C([H])([H])[H])(C([H])([H])[H])C([H])([H])[H])C([H])([H])c2c([H])c(OC([H])([H])C(=O)N(c3c([H])c(N([H])C(=O)N4C([H])([H])C([H])([H])C([H])([H])C([H])(n5nc(-c6c([H])c([H])c(Oc7c([H])c([H])c(F)c([H])c7F)c([H])c6[H])c(C(=O)N([H])[H])c5N([H])[H])C4([H])[H])c([H])c([H])c3C([H])([H])[H])C([H])([H])[H])c([H])c([H])c2C1([H])[H]

>  <smiles>  (27) 
[H]c1c([H])c([H])c2c(c1[H])C([H])([H])C([H])([H])C([H])([H])C2([H])N([H])C(=O)C1([H])N(C(=O)C([H])(N([H])C(=O)C([H])(N([H])C([H])([H])[H])C([H])([H])[H])C(C([H])([H])[H])(C([H])([H])[H])C([H])([H])[H])C([H])([H])c2c([H])c(OC([H])([H])C(=O)N(c3c([H])c(N([H])C(=O)N4C([H])([H])C([H])([H])C([H])([H])C([H])(n5nc(-c6c([H])c([H])c(Oc7c([H])c([H])c(F)c([H])c7F)c([H])c6[H])c(C(=O)N([H])[H])c5N([H])[H])C4([H])[H])c([H])c([H])c3C([H])([H])[H])C([H])([H])[H])c([H])c([H])c2C1([H])[H]

$$$$
27:0:0
     RDKit          3D

 91 99  0  0  1  0  0  0  0  0999 V2000
  -29.4840  -18.8430   21.4610 C   0  0  0  0  0  3  0  0  0  0  0  0
  -28.9110  -20.0180   21.9840 C   0  0  0  0  0  3  0  0  0  0  0  0
  -30.0780  -20.1120   19.4720 C   0  0  0  0  0  3  0  0  0  0  0  0
  -30.0740  -18.8380   20.1860 C   0  0  0  0  0  0  0  0  0  0  0  0
  -29.5030  -21.3540   19.9840 C   0  0  0  0  0  0  0  0  0  0  0  0
  -28.8950  -21.2360   21.2700 C   0  0  0  0  0  0  0  0  0  0  0  0
  -28.0090  -22.5340   21.9980 Cl  0  0  0  0  0  0  0  0  0  0  0  0
  -29.5580  -23.8430   19.5060 C   0  0  0  0  0  0  0  0  0  0  0  0
  -30.4320  -24.2720   20.6670 C   0  0  0  0  0  1  0  0  0  0  0  0
  -29.3290  -22.5740   19.1910 N   0  0  0  0  0  2  0  0  0  0  0  0
  -28.8640  -25.0700   18.7320 C   0  0  0  0  0  3  0  0  0  0  0  0
  -28.9780  -26.5190   19.1620 O   0  0  0  0  0  0  0  0  0  0  0  0
  -24.8090  -31.2630   22.7770 C   0  0  0  0  0  0  0  0  0  0  0  0
  -27.8100  -27.3310   19.1820 C   0  0  0  0  0  0  0  0  0  0  0  0
  -23.7270  -29.9520   20.9910 C   0  0  0  0  0  3  0  0  0  0  0  0
  -25.3020  -28.7400   19.3760 C   0  0  0  0  0  0  0  0  0  0  0  0
  -26.2260  -30.5300   20.8390 C   0  0  0  0  0  2  0  0  0  0  0  0
  -26.4320  -29.2460   20.0330 C   0  0  0  0  0  0  0  0  0  0  0  0
  -27.6820  -28.5530   19.9340 C   0  0  0  0  0  3  0  0  0  0  0  0
  -26.6530  -26.9250   18.4740 C   0  0  0  0  0  3  0  0  0  0  0  0
  -25.4180  -27.5890   18.5880 C   0  0  0  0  0  3  0  0  0  0  0  0
  -23.9860  -29.4760   19.5380 C   0  0  0  0  0  2  0  0  0  0  0  0
  -24.9390  -30.5960   21.5930 N   0  0  0  0  0  0  0  0  0  0  0  0
  -23.7120  -31.3640   23.3450 O   0  0  0  0  0  0  0  0  0  0  0  0
  -23.1840  -28.7670   21.8260 C   0  0  0  0  0  0  0  0  0  0  0  0
  -21.8760  -28.4840   21.7050 N   0  0  0  0  0  0  0  0  0  0  0  0
  -23.9400  -28.1090   22.5470 O   0  0  0  0  0  0  0  0  0  0  0  0
  -21.3190  -29.0740   21.1030 H   0  0  0  0  0  0  0  0  0  0  0  0
  -18.6330  -26.9370   22.1320 C   0  0  0  0  0  0  0  0  0  0  0  0
  -21.1680  -27.3860   22.3660 C   0  0  0  0  0  3  0  0  0  0  0  0
  -21.3690  -26.0550   21.6050 C   0  0  0  0  0  2  0  0  0  0  0  0
  -20.2600  -25.7690   20.5870 C   0  0  0  0  0  2  0  0  0  0  0  0
  -18.8970  -25.7070   21.2800 C   0  0  0  0  0  2  0  0  0  0  0  0
  -19.6980  -27.7340   22.6300 C   0  0  0  0  0  0  0  0  0  0  0  0
  -19.3950  -28.8850   23.3880 C   0  0  0  0  0  3  0  0  0  0  0  0
  -18.0590  -29.2410   23.6540 C   0  0  0  0  0  3  0  0  0  0  0  0
  -17.0100  -28.4410   23.1710 C   0  0  0  0  0  3  0  0  0  0  0  0
  -17.2960  -27.2900   22.4160 C   0  0  0  0  0  3  0  0  0  0  0  0
  -26.0300  -31.9480   23.4630 C   0  0  0  0  0  3  0  0  0  0  0  0
  -26.6300  -31.0980   24.6490 C   0  0  1  0  0  0  0  0  0  0  0  0
  -25.5790  -30.6510   25.6910 C   0  0  0  0  0  1  0  0  0  0  0  0
  -27.3320  -29.8290   24.1140 C   0  0  0  0  0  1  0  0  0  0  0  0
  -27.7140  -31.9200   25.3880 C   0  0  0  0  0  1  0  0  0  0  0  0
  -25.5880  -33.2650   23.9460 N   0  0  0  0  0  0  0  0  0  0  0  0
  -25.8280  -34.4260   23.3220 C   0  0  0  0  0  0  0  0  0  0  0  0
  -26.5160  -34.5060   22.3000 O   0  0  0  0  0  0  0  0  0  0  0  0
  -24.9750  -33.2710   24.7470 H   0  0  0  0  0  0  0  0  0  0  0  0
  -23.9430  -36.0840   23.1450 C   0  0  0  0  0  1  0  0  0  0  0  0
  -25.2100  -35.7020   23.9270 C   0  0  0  0  0  3  0  0  0  0  0  0
  -27.2460  -36.6760   24.8950 C   0  0  0  0  0  1  0  0  0  0  0  0
  -26.1420  -36.8520   23.9560 N   0  0  0  0  0  0  0  0  0  0  0  0
  -25.6510  -37.7080   24.1990 H   0  0  0  0  0  0  0  0  0  0  0  0
  -30.7190  -17.4790   19.6560 C   0  0  0  0  0  2  0  0  0  0  0  0
  -31.1010  -14.9390   20.1680 C   0  0  0  0  0  0  0  0  0  0  0  0
  -30.9000  -12.5640   19.4280 C   0  0  0  0  0  2  0  0  0  0  0  0
  -30.0060  -12.5140   18.1690 C   0  0  0  0  0  2  0  0  0  0  0  0
  -28.5210  -12.4010   18.5640 C   0  0  0  0  0  2  0  0  0  0  0  0
  -28.1160  -13.4110   19.6720 C   0  0  0  0  0  3  0  0  0  0  0  0
  -29.1400  -13.4480   20.8280 C   0  0  0  0  0  2  0  0  0  0  0  0
  -30.4580  -13.7220   20.2400 N   0  0  0  0  0  0  0  0  0  0  0  0
  -32.2890  -14.9820   19.8360 O   0  0  0  0  0  0  0  0  0  0  0  0
  -30.3510  -16.1060   20.2270 N   0  0  0  0  0  0  0  0  0  0  0  0
  -29.3870  -15.9870   20.4930 H   0  0  0  0  0  0  0  0  0  0  0  0
  -25.7460  -14.0980   20.3670 C   0  0  0  0  0  0  0  0  0  0  0  0
  -24.6470  -13.3700   20.7360 C   0  0  0  0  0  0  0  0  0  0  0  0
  -25.0580  -12.0010   20.7220 C   0  0  0  0  0  0  0  0  0  0  0  0
  -26.7570  -13.1770   20.1500 N   0  0  0  0  0  0  0  0  0  0  0  0
  -26.3490  -11.9120   20.4260 N   0  0  0  0  0  0  0  0  0  0  0  0
  -24.2800  -10.7700   20.9170 C   0  0  0  0  0  0  0  0  0  0  0  0
  -24.6650   -9.7950   21.8640 C   0  0  0  0  0  3  0  0  0  0  0  0
  -23.8900   -8.6300   22.0470 C   0  0  0  0  0  3  0  0  0  0  0  0
  -22.7150   -8.4310   21.2840 C   0  0  0  0  0  0  0  0  0  0  0  0
  -22.3490   -9.3940   20.3270 C   0  0  0  0  0  3  0  0  0  0  0  0
  -23.1240  -10.5510   20.1410 C   0  0  0  0  0  3  0  0  0  0  0  0
  -21.9140   -7.3190   21.3750 O   0  0  0  0  0  0  0  0  0  0  0  0
  -21.8370   -6.5810   22.5290 C   0  0  0  0  0  0  0  0  0  0  0  0
  -21.4290   -7.1520   23.7530 C   0  0  0  0  0  3  0  0  0  0  0  0
  -21.2960   -6.3410   24.8980 C   0  0  0  0  0  3  0  0  0  0  0  0
  -21.5610   -4.9610   24.8200 C   0  0  0  0  0  0  0  0  0  0  0  0
  -21.9640   -4.3890   23.6010 C   0  0  0  0  0  3  0  0  0  0  0  0
  -22.0970   -5.1970   22.4570 C   0  0  0  0  0  0  0  0  0  0  0  0
  -22.4640   -4.6370   21.2790 F   0  0  0  0  0  0  0  0  0  0  0  0
  -21.4270   -4.1810   25.9180 F   0  0  0  0  0  0  0  0  0  0  0  0
  -23.2670  -13.9040   20.9880 C   0  0  0  0  0  0  0  0  0  0  0  0
  -22.5040  -13.2480   21.8550 N   0  0  0  0  0  0  0  0  0  0  0  0
  -22.8740  -14.9380   20.4500 O   0  0  0  0  0  0  0  0  0  0  0  0
  -22.8350  -12.4120   22.3130 H   0  0  0  0  0  0  0  0  0  0  0  0
  -21.5760  -13.5860   22.0630 H   0  0  0  0  0  0  0  0  0  0  0  0
  -25.9630  -15.4600   20.1760 N   0  0  0  0  0  0  0  0  0  0  0  0
  -25.2160  -16.1410   20.2700 H   0  0  0  0  0  0  0  0  0  0  0  0
  -26.8210  -15.8630   19.8240 H   0  0  0  0  0  0  0  0  0  0  0  0
  1  2  1  0
  3  5  2  0
  3  4  1  0
  4  1  2  0
  5  6  1  0
  6  2  2  0
  6  7  1  0
  8  9  1  0
 10  8  1  0
 10  5  1  0
 11 12  1  0
 11  8  2  0
 12 14  1  0
 13 24  2  0
 14 19  1  0
 15 23  1  0
 15 25  1  0
 16 22  1  0
 16 18  1  0
 17 23  1  0
 18 17  1  0
 19 18  2  0
 20 21  1  0
 20 14  2  0
 21 16  2  0
 22 15  1  0
 23 13  1  0
 25 27  2  0
 26 25  1  0
 28 26  1  0
 29 38  2  0
 29 34  1  0
 30 26  1  0
 30 34  1  0
 31 30  1  0
 32 33  1  0
 32 31  1  0
 33 29  1  0
 34 35  2  0
 35 36  1  0
 37 36  2  0
 38 37  1  0
 39 13  1  0
 39 44  1  0
 39 40  1  0
 40 43  1  1
 40 41  1  0
 42 40  1  0
 44 47  1  0
 45 49  1  0
 45 44  1  0
 46 45  2  0
 49 48  1  0
 49 51  1  0
 51 52  1  0
 51 50  1  0
 53  4  1  0
 53 62  1  0
 54 62  1  0
 54 60  1  0
 55 60  1  0
 56 57  1  0
 56 55  1  0
 58 57  1  0
 58 67  1  0
 58 59  1  0
 60 59  1  0
 61 54  2  0
 62 63  1  0
 64 65  2  0
 65 84  1  0
 66 65  1  0
 66 69  1  0
 67 64  1  0
 67 68  1  0
 68 66  2  0
 69 70  1  0
 70 71  2  0
 72 75  1  0
 72 71  1  0
 73 72  2  0
 74 73  1  0
 74 69  2  0
 75 76  1  0
 76 77  1  0
 77 78  2  0
 79 78  1  0
 79 83  1  0
 80 79  2  0
 81 76  2  0
 81 80  1  0
 82 81  1  0
 84 85  1  0
 85 88  1  0
 85 87  1  0
 86 84  2  0
 89 90  1  0
 89 64  1  0
 91 89  1  0
M  ISO  4  11 101  12 101  54 100  62 100
M  END
>  <TORSDO>  (28) 
F 19

>  <SCORE>  (28) 
-9.820

>  <name>  (28) 
27

>  <ligand_id>  (28) 
27

>  <original_smiles>  (28) 
[H]c1c([H])c([H])c2c(c1[H])C([H])([H])C([H])([H])C([H])([H])C2([H])N([H])C(=O)C1([H])N(C(=O)C([H])(N([H])C(=O)C([H])(N([H])C([H])([H])[H])C([H])([H])[H])C(C([H])([H])[H])(C([H])([H])[H])C([H])([H])[H])C([H])([H])c2c([H])c(OC([H])([H])C(=Nc3c([H])c(C([H])([H])N([H])C(=O)N4C([H])([H])C([H])([H])C([H])([H])C([H])(n5nc(-c6c([H])c([H])c(Oc7c([H])c([H])c(F)c([H])c7F)c([H])c6[H])c(C(=O)N([H])[H])c5N([H])[H])C4([H])[H])c([H])c([H])c3Cl)C([H])([H])[H])c([H])c([H])c2C1([H])[H]

>  <smiles>  (28) 
[H]c1c([H])c([H])c2c(c1[H])C([H])([H])C([H])([H])C([H])([H])C2([H])N([H])C(=O)C1([H])N(C(=O)C([H])(N([H])C(=O)C([H])(N([H])C([H])([H])[H])C([H])([H])[H])C(C([H])([H])[H])(C([H])([H])[H])C([H])([H])[H])C([H])([H])c2c([H])c(OC([H])([H])C(=Nc3c([H])c(C([H])([H])N([H])C(=O)N4C([H])([H])C([H])([H])C([H])([H])C([H])(n5nc(-c6c([H])c([H])c(Oc7c([H])c([H])c(F)c([H])c7F)c([H])c6[H])c(C(=O)N([H])[H])c5N([H])[H])C4([H])[H])c([H])c([H])c3Cl)C([H])([H])[H])c([H])c([H])c2C1([H])[H]

$$$$
28:0:0
     RDKit          3D

 94103  0  0  1  0  0  0  0  0999 V2000
  -28.1090  -22.4010   20.8890 C   0  0  0  0  0  0  0  0  0  0  0  0
  -27.2790  -21.6170   21.5950 C   0  0  0  0  0  2  0  0  0  0  0  0
  -27.8870  -23.9910   20.9590 C   0  0  0  0  0  2  0  0  0  0  0  0
  -29.7360  -24.3030   19.4470 C   0  0  0  0  0  2  0  0  0  0  0  0
  -29.7260  -22.7360   19.1100 C   0  0  0  0  0  2  0  0  0  0  0  0
  -28.3640  -24.9800   19.8080 C   0  0  0  0  0  3  0  0  0  0  0  0
  -29.1640  -21.8070   20.1340 N   0  0  0  0  0  0  0  0  0  0  0  0
  -31.5790  -18.2020   21.0370 C   0  0  0  0  0  3  0  0  0  0  0  0
  -31.9790  -19.5260   21.2950 C   0  0  0  0  0  3  0  0  0  0  0  0
  -29.8840  -20.5200   20.4040 C   0  0  0  0  0  0  0  0  0  0  0  0
  -30.3290  -17.8990   20.4620 C   0  0  0  0  0  0  0  0  0  0  0  0
  -31.1730  -20.6450   20.9970 C   0  0  0  0  0  0  0  0  0  0  0  0
  -29.4910  -19.0980   20.1550 C   0  0  0  0  0  0  0  0  0  0  0  0
  -31.8230  -22.1900   21.4370 Cl  0  0  0  0  0  0  0  0  0  0  0  0
  -27.9460  -18.7940   19.4420 Cl  0  0  0  0  0  0  0  0  0  0  0  0
  -30.7710  -15.2310   20.2330 C   0  0  0  0  0  0  0  0  0  0  0  0
  -30.6440  -12.8800   19.3040 C   0  0  0  0  0  2  0  0  0  0  0  0
  -29.7040  -12.8290   18.0810 C   0  0  0  0  0  2  0  0  0  0  0  0
  -28.2440  -12.6180   18.5260 C   0  0  0  0  0  2  0  0  0  0  0  0
  -27.8400  -13.5450   19.7040 C   0  0  0  0  0  3  0  0  0  0  0  0
  -28.9070  -13.5740   20.8180 C   0  0  0  0  0  2  0  0  0  0  0  0
  -30.1680  -13.9800   20.1860 N   0  0  0  0  0  0  0  0  0  0  0  0
  -31.9780  -15.2840   19.9730 O   0  0  0  0  0  0  0  0  0  0  0  0
  -29.9860  -16.4140   20.3070 N   0  0  0  0  0  0  0  0  0  0  0  0
  -28.9960  -16.2300   20.2750 H   0  0  0  0  0  0  0  0  0  0  0  0
  -25.4710  -14.1080   20.4890 C   0  0  0  0  0  0  0  0  0  0  0  0
  -24.4120  -13.3240   20.8570 C   0  0  0  0  0  0  0  0  0  0  0  0
  -24.8780  -11.9740   20.7930 C   0  0  0  0  0  0  0  0  0  0  0  0
  -26.5100  -13.2360   20.2160 N   0  0  0  0  0  0  0  0  0  0  0  0
  -26.1650  -11.9460   20.4660 N   0  0  0  0  0  0  0  0  0  0  0  0
  -24.1540  -10.7080   20.9650 C   0  0  0  0  0  0  0  0  0  0  0  0
  -24.5540   -9.7530   21.9260 C   0  0  0  0  0  3  0  0  0  0  0  0
  -23.8280   -8.5530   22.0870 C   0  0  0  0  0  3  0  0  0  0  0  0
  -22.6880   -8.2990   21.2880 C   0  0  0  0  0  0  0  0  0  0  0  0
  -22.3090   -9.2440   20.3170 C   0  0  0  0  0  3  0  0  0  0  0  0
  -23.0350  -10.4350   20.1540 C   0  0  0  0  0  3  0  0  0  0  0  0
  -21.9370   -7.1500   21.3570 O   0  0  0  0  0  0  0  0  0  0  0  0
  -21.7860   -6.4600   22.5330 C   0  0  0  0  0  0  0  0  0  0  0  0
  -21.1710   -7.0400   23.6650 C   0  0  0  0  0  3  0  0  0  0  0  0
  -20.9720   -6.2710   24.8280 C   0  0  0  0  0  3  0  0  0  0  0  0
  -21.3780   -4.9230   24.8610 C   0  0  0  0  0  0  0  0  0  0  0  0
  -21.9860   -4.3440   23.7350 C   0  0  0  0  0  3  0  0  0  0  0  0
  -22.1860   -5.1090   22.5720 C   0  0  0  0  0  0  0  0  0  0  0  0
  -22.7520   -4.5380   21.4820 F   0  0  0  0  0  0  0  0  0  0  0  0
  -21.1800   -4.1820   25.9770 F   0  0  0  0  0  0  0  0  0  0  0  0
  -23.0180  -13.7940   21.1530 C   0  0  0  0  0  0  0  0  0  0  0  0
  -22.3060  -13.0890   22.0230 N   0  0  0  0  0  0  0  0  0  0  0  0
  -22.5710  -14.8240   20.6480 O   0  0  0  0  0  0  0  0  0  0  0  0
  -22.6830  -12.2550   22.4510 H   0  0  0  0  0  0  0  0  0  0  0  0
  -21.3720  -13.3850   22.2640 H   0  0  0  0  0  0  0  0  0  0  0  0
  -25.6290  -15.4820   20.3340 N   0  0  0  0  0  0  0  0  0  0  0  0
  -24.8570  -16.1260   20.4700 H   0  0  0  0  0  0  0  0  0  0  0  0
  -26.4520  -15.9340   19.9620 H   0  0  0  0  0  0  0  0  0  0  0  0
  -28.4220  -26.5160   20.0660 O   0  0  0  0  0  0  0  0  0  0  0  0
  -24.7470  -32.0040   23.2980 C   0  0  0  0  0  0  0  0  0  0  0  0
  -27.3130  -27.4330   20.0590 C   0  0  0  0  0  0  0  0  0  0  0  0
  -23.5210  -30.6410   21.6470 C   0  0  0  0  0  3  0  0  0  0  0  0
  -24.9510  -29.1280   20.1410 C   0  0  0  0  0  0  0  0  0  0  0  0
  -26.0630  -30.9510   21.4220 C   0  0  0  0  0  2  0  0  0  0  0  0
  -26.1380  -29.5800   20.7280 C   0  0  0  0  0  0  0  0  0  0  0  0
  -27.3170  -28.7510   20.6670 C   0  0  0  0  0  3  0  0  0  0  0  0
  -26.0940  -27.0690   19.4470 C   0  0  0  0  0  3  0  0  0  0  0  0
  -24.9410  -27.8860   19.4850 C   0  0  0  0  0  3  0  0  0  0  0  0
  -23.7130  -30.0050   20.2440 C   0  0  0  0  0  2  0  0  0  0  0  0
  -24.7990  -31.2190   22.1770 N   0  0  0  0  0  0  0  0  0  0  0  0
  -23.6730  -32.2540   23.8640 O   0  0  0  0  0  0  0  0  0  0  0  0
  -22.8840  -29.5970   22.5970 C   0  0  0  0  0  0  0  0  0  0  0  0
  -21.5640  -29.3710   22.4630 N   0  0  0  0  0  0  0  0  0  0  0  0
  -23.5790  -28.9920   23.4170 O   0  0  0  0  0  0  0  0  0  0  0  0
  -21.0580  -29.9160   21.7790 H   0  0  0  0  0  0  0  0  0  0  0  0
  -18.2420  -28.0020   22.9080 C   0  0  0  0  0  0  0  0  0  0  0  0
  -20.7790  -28.3920   23.2190 C   0  0  0  0  0  3  0  0  0  0  0  0
  -20.9620  -26.9670   22.6470 C   0  0  0  0  0  2  0  0  0  0  0  0
  -19.8960  -26.5910   21.6120 C   0  0  0  0  0  2  0  0  0  0  0  0
  -18.4980  -26.6650   22.2320 C   0  0  0  0  0  2  0  0  0  0  0  0
  -19.3130  -28.8200   23.3560 C   0  0  0  0  0  0  0  0  0  0  0  0
  -19.0190  -30.0690   23.9450 C   0  0  0  0  0  3  0  0  0  0  0  0
  -17.6870  -30.5020   24.0890 C   0  0  0  0  0  3  0  0  0  0  0  0
  -16.6300  -29.6820   23.6550 C   0  0  0  0  0  3  0  0  0  0  0  0
  -16.9090  -28.4340   23.0710 C   0  0  0  0  0  3  0  0  0  0  0  0
  -26.0350  -32.6350   23.9120 C   0  0  0  0  0  3  0  0  0  0  0  0
  -25.7250  -34.0290   24.2640 N   0  0  0  0  0  0  0  0  0  0  0  0
  -25.9880  -35.0910   23.4920 C   0  0  0  0  0  0  0  0  0  0  0  0
  -26.5860  -35.0010   22.4150 O   0  0  0  0  0  0  0  0  0  0  0  0
  -25.1840  -34.1700   25.1050 H   0  0  0  0  0  0  0  0  0  0  0  0
  -24.1960  -36.8470   23.2930 C   0  0  0  0  0  1  0  0  0  0  0  0
  -25.5150  -36.4710   23.9890 C   0  0  0  0  0  3  0  0  0  0  0  0
  -27.6860  -37.4200   24.6370 C   0  0  0  0  0  1  0  0  0  0  0  0
  -26.5100  -37.5460   23.7800 N   0  0  0  0  0  0  0  0  0  0  0  0
  -26.0950  -38.4590   23.9430 H   0  0  0  0  0  0  0  0  0  0  0  0
  -26.5670  -31.8540   25.1760 C   0  0  1  0  0  0  0  0  0  0  0  0
  -25.4820  -31.5910   26.2470 C   0  0  0  0  0  1  0  0  0  0  0  0
  -27.1640  -30.4880   24.7660 C   0  0  0  0  0  1  0  0  0  0  0  0
  -27.7110  -32.6510   25.8420 C   0  0  0  0  0  1  0  0  0  0  0  0
  1  3  1  0
  1  2  2  0
  4  6  1  0
  5  4  1  0
  5  7  1  0
  6 54  1  0
  6  3  1  0
  7 10  1  0
  7  1  1  0
  8  9  1  0
 10 12  1  0
 11  8  2  0
 12  9  2  0
 12 14  1  0
 13 10  2  0
 13 11  1  0
 15 13  1  0
 16 24  1  0
 17 22  1  0
 18 19  1  0
 18 17  1  0
 20 19  1  0
 20 29  1  0
 20 21  1  0
 22 16  1  0
 22 21  1  0
 23 16  2  0
 24 11  1  0
 25 24  1  0
 26 27  2  0
 27 46  1  0
 28 27  1  0
 28 31  1  0
 29 30  1  0
 29 26  1  0
 30 28  2  0
 31 32  1  0
 32 33  2  0
 34 37  1  0
 34 33  1  0
 35 34  2  0
 36 35  1  0
 36 31  2  0
 37 38  1  0
 38 43  2  0
 38 39  1  0
 39 40  2  0
 40 41  1  0
 41 45  1  0
 42 41  2  0
 43 42  1  0
 44 43  1  0
 46 47  1  0
 47 50  1  0
 47 49  1  0
 48 46  2  0
 51 52  1  0
 51 26  1  0
 53 51  1  0
 55 66  2  0
 56 54  1  0
 56 61  1  0
 57 65  1  0
 57 67  1  0
 58 64  1  0
 58 60  1  0
 59 65  1  0
 60 59  1  0
 61 60  2  0
 62 63  1  0
 62 56  2  0
 63 58  2  0
 64 57  1  0
 65 55  1  0
 67 69  2  0
 68 67  1  0
 70 68  1  0
 71 80  2  0
 71 76  1  0
 72 68  1  0
 72 76  1  0
 73 72  1  0
 74 75  1  0
 74 73  1  0
 75 71  1  0
 76 77  2  0
 77 78  1  0
 79 78  2  0
 80 79  1  0
 81 55  1  0
 81 82  1  0
 81 91  1  0
 82 85  1  0
 83 87  1  0
 83 82  1  0
 84 83  2  0
 87 86  1  0
 89 90  1  0
 89 87  1  0
 89 88  1  0
 91 94  1  1
 91 92  1  0
 93 91  1  0
M  ISO  4   6 101  16 100  24 100  54 101
M  END
>  <TORSDO>  (29) 
F 17

>  <SCORE>  (29) 
-14.321

>  <name>  (29) 
28

>  <ligand_id>  (29) 
28

>  <original_smiles>  (29) 
[H]C([H])=C1N(c2c(Cl)c([H])c([H])c(N([H])C(=O)N3C([H])([H])C([H])([H])C([H])([H])C([H])(n4nc(-c5c([H])c([H])c(Oc6c([H])c([H])c(F)c([H])c6F)c([H])c5[H])c(C(=O)N([H])[H])c4N([H])[H])C3([H])[H])c2Cl)C([H])([H])C([H])([H])C([H])(Oc2c([H])c([H])c3c(c2[H])C([H])([H])N(C(=O)C([H])(N([H])C(=O)C([H])(N([H])C([H])([H])[H])C([H])([H])[H])C(C([H])([H])[H])(C([H])([H])[H])C([H])([H])[H])C([H])(C(=O)N([H])C2([H])c4c([H])c([H])c([H])c([H])c4C([H])([H])C([H])([H])C2([H])[H])C3([H])[H])C1([H])[H]

>  <smiles>  (29) 
[H]C([H])=C1N(c2c(Cl)c([H])c([H])c(N([H])C(=O)N3C([H])([H])C([H])([H])C([H])([H])C([H])(n4nc(-c5c([H])c([H])c(Oc6c([H])c([H])c(F)c([H])c6F)c([H])c5[H])c(C(=O)N([H])[H])c4N([H])[H])C3([H])[H])c2Cl)C([H])([H])C([H])([H])C([H])(Oc2c([H])c([H])c3c(c2[H])C([H])([H])N(C(=O)C([H])(N([H])C(=O)C([H])(N([H])C([H])([H])[H])C([H])([H])[H])C(C([H])([H])[H])(C([H])([H])[H])C([H])([H])[H])C([H])(C(=O)N([H])C2([H])c4c([H])c([H])c([H])c([H])c4C([H])([H])C([H])([H])C2([H])[H])C3([H])[H])C1([H])[H]

$$$$
29:0:0
     RDKit          3D

 95104  0  0  1  0  0  0  0  0999 V2000
  -27.7830  -22.9730   20.9070 C   0  0  0  0  0  0  0  0  0  0  0  0
  -27.6240  -24.5110   20.9730 C   0  0  0  0  0  2  0  0  0  0  0  0
  -29.7120  -24.7620   19.6740 C   0  0  0  0  0  2  0  0  0  0  0  0
  -29.7310  -23.2410   19.3870 C   0  0  0  0  0  2  0  0  0  0  0  0
  -28.2800  -25.2910   19.8090 C   0  0  0  0  0  3  0  0  0  0  0  0
  -28.8080  -22.4180   20.2010 N   0  0  0  0  0  0  0  0  0  0  0  0
  -26.9710  -22.2880   21.5400 O   0  0  0  0  0  0  0  0  0  0  0  0
  -29.7330  -20.3410   21.1580 C   0  0  0  0  0  3  0  0  0  0  0  0
  -29.6060  -18.1630   20.0080 C   0  0  0  0  0  0  0  0  0  0  0  0
  -28.8000  -18.7940   19.0060 C   0  0  0  0  0  0  0  0  0  0  0  0
  -28.4760  -20.1870   19.0830 C   0  0  0  0  0  0  0  0  0  0  0  0
  -28.9860  -20.9830   20.1450 C   0  0  0  0  0  0  0  0  0  0  0  0
  -30.0340  -18.9610   21.1050 C   0  0  0  0  0  0  0  0  0  0  0  0
  -28.3040  -17.9630   17.8150 C   0  0  0  0  0  1  0  0  0  0  0  0
  -27.5740  -20.8190   18.0230 C   0  0  0  0  0  1  0  0  0  0  0  0
  -31.0120  -18.3200   22.3830 Cl  0  0  0  0  0  0  0  0  0  0  0  0
  -30.0770  -16.7380   19.8070 C   0  0  0  0  0  2  0  0  0  0  0  0
  -30.1390  -15.7370   20.6230 N   0  0  0  0  0  2  0  0  0  0  0  0
  -30.8260  -14.6220   20.1180 C   0  0  0  0  0  0  0  0  0  0  0  0
  -30.4040  -12.4970   18.9320 C   0  0  0  0  0  2  0  0  0  0  0  0
  -29.4100  -12.7690   17.7850 C   0  0  0  0  0  2  0  0  0  0  0  0
  -27.9600  -12.6330   18.2880 C   0  0  0  0  0  2  0  0  0  0  0  0
  -27.7050  -13.4260   19.5980 C   0  0  0  0  0  3  0  0  0  0  0  0
  -28.8180  -13.1770   20.6380 C   0  0  0  0  0  2  0  0  0  0  0  0
  -30.1120  -13.4650   20.0040 N   0  0  0  0  0  0  0  0  0  0  0  0
  -31.9530  -14.7070   19.6220 O   0  0  0  0  0  0  0  0  0  0  0  0
  -25.3600  -14.0270   20.4630 C   0  0  0  0  0  0  0  0  0  0  0  0
  -24.3060  -13.2550   20.8660 C   0  0  0  0  0  0  0  0  0  0  0  0
  -24.7500  -11.9000   20.7700 C   0  0  0  0  0  0  0  0  0  0  0  0
  -26.3810  -13.1440   20.1460 N   0  0  0  0  0  0  0  0  0  0  0  0
  -26.0200  -11.8570   20.3890 N   0  0  0  0  0  0  0  0  0  0  0  0
  -24.0190  -10.6400   20.9620 C   0  0  0  0  0  0  0  0  0  0  0  0
  -24.4510   -9.6700   21.8930 C   0  0  0  0  0  3  0  0  0  0  0  0
  -23.7220   -8.4750   22.0730 C   0  0  0  0  0  3  0  0  0  0  0  0
  -22.5460   -8.2400   21.3210 C   0  0  0  0  0  0  0  0  0  0  0  0
  -22.1330   -9.1990   20.3790 C   0  0  0  0  0  3  0  0  0  0  0  0
  -22.8630  -10.3850   20.1970 C   0  0  0  0  0  3  0  0  0  0  0  0
  -21.7880   -7.0980   21.4090 O   0  0  0  0  0  0  0  0  0  0  0  0
  -21.6810   -6.3950   22.5820 C   0  0  0  0  0  0  0  0  0  0  0  0
  -21.1840   -6.9870   23.7630 C   0  0  0  0  0  3  0  0  0  0  0  0
  -21.0240   -6.2100   24.9270 C   0  0  0  0  0  3  0  0  0  0  0  0
  -21.3530   -4.8410   24.9120 C   0  0  0  0  0  0  0  0  0  0  0  0
  -21.8440   -4.2480   23.7350 C   0  0  0  0  0  3  0  0  0  0  0  0
  -22.0050   -5.0230   22.5730 C   0  0  0  0  0  0  0  0  0  0  0  0
  -22.4580   -4.4420   21.4360 F   0  0  0  0  0  0  0  0  0  0  0  0
  -21.1940   -4.0910   26.0280 F   0  0  0  0  0  0  0  0  0  0  0  0
  -22.9310  -13.7370   21.2300 C   0  0  0  0  0  0  0  0  0  0  0  0
  -22.2480  -13.0250   22.1180 N   0  0  0  0  0  0  0  0  0  0  0  0
  -22.4750  -14.7790   20.7620 O   0  0  0  0  0  0  0  0  0  0  0  0
  -22.6310  -12.1810   22.5170 H   0  0  0  0  0  0  0  0  0  0  0  0
  -21.3280  -13.3300   22.4060 H   0  0  0  0  0  0  0  0  0  0  0  0
  -25.5340  -15.4010   20.3200 N   0  0  0  0  0  0  0  0  0  0  0  0
  -24.7920  -16.0670   20.5050 H   0  0  0  0  0  0  0  0  0  0  0  0
  -26.3920  -15.8360   20.0080 H   0  0  0  0  0  0  0  0  0  0  0  0
  -28.3200  -26.7260   20.0240 O   0  0  0  0  0  0  0  0  0  0  0  0
  -24.5770  -31.8990   23.2040 C   0  0  0  0  0  0  0  0  0  0  0  0
  -27.1480  -27.4700   20.0120 C   0  0  0  0  0  0  0  0  0  0  0  0
  -23.3400  -30.5280   21.5620 C   0  0  0  0  0  3  0  0  0  0  0  0
  -24.7630  -29.0110   20.0840 C   0  0  0  0  0  0  0  0  0  0  0  0
  -25.8670  -30.8750   21.3280 C   0  0  0  0  0  2  0  0  0  0  0  0
  -25.9350  -29.5130   20.6620 C   0  0  0  0  0  0  0  0  0  0  0  0
  -27.1290  -28.7510   20.6180 C   0  0  0  0  0  3  0  0  0  0  0  0
  -25.9540  -26.9950   19.4200 C   0  0  0  0  0  3  0  0  0  0  0  0
  -24.7700  -27.7530   19.4600 C   0  0  0  0  0  3  0  0  0  0  0  0
  -23.5230  -29.8730   20.1680 C   0  0  0  0  0  2  0  0  0  0  0  0
  -24.6140  -31.1150   22.0900 N   0  0  0  0  0  0  0  0  0  0  0  0
  -23.5060  -32.1680   23.7650 O   0  0  0  0  0  0  0  0  0  0  0  0
  -22.7010  -29.4920   22.5150 C   0  0  0  0  0  0  0  0  0  0  0  0
  -21.3770  -29.3010   22.3920 N   0  0  0  0  0  0  0  0  0  0  0  0
  -23.3930  -28.8660   23.3220 O   0  0  0  0  0  0  0  0  0  0  0  0
  -20.8790  -29.8600   21.7130 H   0  0  0  0  0  0  0  0  0  0  0  0
  -18.0180  -28.0610   22.8810 C   0  0  0  0  0  0  0  0  0  0  0  0
  -20.5710  -28.3490   23.1580 C   0  0  0  0  0  3  0  0  0  0  0  0
  -20.6930  -26.9230   22.5750 C   0  0  0  0  0  2  0  0  0  0  0  0
  -19.5960  -26.5910   21.5580 C   0  0  0  0  0  2  0  0  0  0  0  0
  -18.2120  -26.7160   22.2010 C   0  0  0  0  0  2  0  0  0  0  0  0
  -19.1260  -28.8350   23.3160 C   0  0  0  0  0  0  0  0  0  0  0  0
  -18.8920  -30.0940   23.9120 C   0  0  0  0  0  3  0  0  0  0  0  0
  -17.5810  -30.5790   24.0760 C   0  0  0  0  0  3  0  0  0  0  0  0
  -16.4860  -29.8020   23.6590 C   0  0  0  0  0  3  0  0  0  0  0  0
  -16.7060  -28.5450   23.0680 C   0  0  0  0  0  3  0  0  0  0  0  0
  -25.8740  -32.5170   23.8130 C   0  0  0  0  0  3  0  0  0  0  0  0
  -25.5760  -33.9110   24.1670 N   0  0  0  0  0  0  0  0  0  0  0  0
  -25.8890  -34.9720   23.4100 C   0  0  0  0  0  0  0  0  0  0  0  0
  -26.5310  -34.8790   22.3600 O   0  0  0  0  0  0  0  0  0  0  0  0
  -25.0060  -34.0590   24.9860 H   0  0  0  0  0  0  0  0  0  0  0  0
  -24.1490  -36.7650   23.1260 C   0  0  0  0  0  1  0  0  0  0  0  0
  -25.4160  -36.3560   23.8950 C   0  0  0  0  0  3  0  0  0  0  0  0
  -27.5720  -37.2370   24.6690 C   0  0  0  0  0  1  0  0  0  0  0  0
  -26.4440  -37.4100   23.7590 N   0  0  0  0  0  0  0  0  0  0  0  0
  -26.0410  -38.3290   23.9250 H   0  0  0  0  0  0  0  0  0  0  0  0
  -26.4120  -31.7260   25.0670 C   0  0  1  0  0  0  0  0  0  0  0  0
  -25.3370  -31.4730   26.1500 C   0  0  0  0  0  1  0  0  0  0  0  0
  -26.9860  -30.3540   24.6440 C   0  0  0  0  0  1  0  0  0  0  0  0
  -27.5750  -32.5090   25.7210 C   0  0  0  0  0  1  0  0  0  0  0  0
  1  2  1  0
  1  7  2  0
  3  5  1  0
  4  3  1  0
  4  6  1  0
  5 55  1  0
  5  2  1  0
  6  1  1  0
  9 13  2  0
 10 11  2  0
 10  9  1  0
 11 12  1  0
 12  6  1  0
 12  8  2  0
 13  8  1  0
 13 16  1  0
 14 10  1  0
 15 11  1  0
 17  9  1  0
 17 18  1  0
 19 18  1  0
 20 25  1  0
 21 22  1  0
 21 20  1  0
 23 22  1  0
 23 30  1  0
 23 24  1  0
 25 19  1  0
 25 24  1  0
 26 19  2  0
 27 28  2  0
 28 47  1  0
 29 28  1  0
 29 32  1  0
 30 31  1  0
 30 27  1  0
 31 29  2  0
 32 33  1  0
 33 34  2  0
 35 38  1  0
 35 34  1  0
 36 35  2  0
 37 36  1  0
 37 32  2  0
 38 39  1  0
 39 40  1  0
 40 41  2  0
 42 41  1  0
 42 46  1  0
 43 42  2  0
 44 39  2  0
 44 43  1  0
 45 44  1  0
 47 48  1  0
 48 51  1  0
 48 50  1  0
 49 47  2  0
 52 27  1  0
 52 53  1  0
 54 52  1  0
 56 67  2  0
 57 55  1  0
 57 62  1  0
 58 66  1  0
 58 68  1  0
 59 65  1  0
 59 61  1  0
 60 66  1  0
 61 60  1  0
 62 61  2  0
 63 64  1  0
 63 57  2  0
 64 59  2  0
 65 58  1  0
 66 56  1  0
 68 70  2  0
 69 68  1  0
 71 69  1  0
 72 81  2  0
 72 77  1  0
 73 69  1  0
 73 77  1  0
 74 73  1  0
 75 76  1  0
 75 74  1  0
 76 72  1  0
 77 78  2  0
 78 79  1  0
 80 79  2  0
 81 80  1  0
 82 56  1  0
 82 83  1  0
 82 92  1  0
 83 86  1  0
 84 88  1  0
 84 83  1  0
 85 84  2  0
 88 87  1  0
 90 88  1  0
 90 91  1  0
 90 89  1  0
 92 95  1  1
 92 93  1  0
 94 92  1  0
M  ISO  4   5 101  18 100  19 100  55 101
M  END
>  <TORSDO>  (30) 
F 18

>  <SCORE>  (30) 
-14.692

>  <name>  (30) 
29

>  <ligand_id>  (30) 
29

>  <original_smiles>  (30) 
[H]C(=NC(=O)N1C([H])([H])C([H])([H])C([H])([H])C([H])(n2nc(-c3c([H])c([H])c(Oc4c([H])c([H])c(F)c([H])c4F)c([H])c3[H])c(C(=O)N([H])[H])c2N([H])[H])C1([H])[H])c1c(Cl)c([H])c(N2C(=O)C([H])([H])C([H])(Oc3c([H])c([H])c4c(c3[H])C([H])([H])N(C(=O)C([H])(N([H])C(=O)C([H])(N([H])C([H])([H])[H])C([H])([H])[H])C(C([H])([H])[H])(C([H])([H])[H])C([H])([H])[H])C([H])(C(=O)N([H])C3([H])c5c([H])c([H])c([H])c([H])c5C([H])([H])C([H])([H])C3([H])[H])C4([H])[H])C([H])([H])C2([H])[H])c(C([H])([H])[H])c1C([H])([H])[H]

>  <smiles>  (30) 
[H]C(=NC(=O)N1C([H])([H])C([H])([H])C([H])([H])C([H])(n2nc(-c3c([H])c([H])c(Oc4c([H])c([H])c(F)c([H])c4F)c([H])c3[H])c(C(=O)N([H])[H])c2N([H])[H])C1([H])[H])c1c(Cl)c([H])c(N2C(=O)C([H])([H])C([H])(Oc3c([H])c([H])c4c(c3[H])C([H])([H])N(C(=O)C([H])(N([H])C(=O)C([H])(N([H])C([H])([H])[H])C([H])([H])[H])C(C([H])([H])[H])(C([H])([H])[H])C([H])([H])[H])C([H])(C(=O)N([H])C3([H])c5c([H])c([H])c([H])c([H])c5C([H])([H])C([H])([H])C3([H])[H])C4([H])[H])C([H])([H])C2([H])[H])c(C([H])([H])[H])c1C([H])([H])[H]

$$$$
30:0:0
     RDKit          3D

 93101  0  0  1  0  0  0  0  0999 V2000
  -30.3420  -22.0570   20.9730 C   0  0  0  0  0  2  0  0  0  0  0  0
  -30.5700  -19.4580   20.9860 C   0  0  0  0  0  3  0  0  0  0  0  0
  -28.5770  -20.4620   20.0180 C   0  0  0  0  0  3  0  0  0  0  0  0
  -28.8670  -18.0270   19.9920 C   0  0  0  0  0  3  0  0  0  0  0  0
  -29.8310  -20.6330   20.6450 C   0  0  0  0  0  0  0  0  0  0  0  0
  -30.0980  -18.1440   20.6700 C   0  0  0  0  0  0  0  0  0  0  0  0
  -28.1100  -19.1750   19.6890 C   0  0  0  0  0  0  0  0  0  0  0  0
  -26.5840  -19.0100   18.9050 Cl  0  0  0  0  0  0  0  0  0  0  0  0
  -30.8980  -16.8960   21.1110 C   0  0  0  0  0  2  0  0  0  0  0  0
  -30.9190  -14.4590   20.4220 C   0  0  0  0  0  0  0  0  0  0  0  0
  -30.5990  -12.2090   19.4070 C   0  0  0  0  0  2  0  0  0  0  0  0
  -29.6900  -12.3010   18.1650 C   0  0  0  0  0  2  0  0  0  0  0  0
  -28.2070  -12.2040   18.5730 C   0  0  0  0  0  2  0  0  0  0  0  0
  -27.8470  -13.1480   19.7490 C   0  0  0  0  0  3  0  0  0  0  0  0
  -28.8740  -13.0300   20.8970 C   0  0  0  0  0  2  0  0  0  0  0  0
  -30.2120  -13.2890   20.3400 N   0  0  0  0  0  0  0  0  0  0  0  0
  -32.0490  -14.5640   19.9380 O   0  0  0  0  0  0  0  0  0  0  0  0
  -30.2990  -15.5380   20.9670 N   0  0  0  0  0  0  0  0  0  0  0  0
  -29.3800  -15.3860   21.3580 H   0  0  0  0  0  0  0  0  0  0  0  0
  -25.4530  -13.8360   20.4000 C   0  0  0  0  0  0  0  0  0  0  0  0
  -24.3590  -13.1060   20.7740 C   0  0  0  0  0  0  0  0  0  0  0  0
  -24.7780  -11.7400   20.7800 C   0  0  0  0  0  0  0  0  0  0  0  0
  -26.4780  -12.9220   20.2120 N   0  0  0  0  0  0  0  0  0  0  0  0
  -26.0730  -11.6570   20.4970 N   0  0  0  0  0  0  0  0  0  0  0  0
  -24.0110  -10.5040   20.9820 C   0  0  0  0  0  0  0  0  0  0  0  0
  -24.4120   -9.5310   21.9230 C   0  0  0  0  0  3  0  0  0  0  0  0
  -23.6450   -8.3610   22.1130 C   0  0  0  0  0  3  0  0  0  0  0  0
  -22.4660   -8.1550   21.3600 C   0  0  0  0  0  0  0  0  0  0  0  0
  -22.0850   -9.1160   20.4060 C   0  0  0  0  0  3  0  0  0  0  0  0
  -22.8530  -10.2760   20.2140 C   0  0  0  0  0  3  0  0  0  0  0  0
  -21.6740   -7.0370   21.4600 O   0  0  0  0  0  0  0  0  0  0  0  0
  -21.6040   -6.3030   22.6170 C   0  0  0  0  0  0  0  0  0  0  0  0
  -21.2160   -6.8850   23.8420 C   0  0  0  0  0  3  0  0  0  0  0  0
  -21.0910   -6.0830   24.9940 C   0  0  0  0  0  3  0  0  0  0  0  0
  -21.3420   -4.6990   24.9190 C   0  0  0  0  0  0  0  0  0  0  0  0
  -21.7240   -4.1170   23.6980 C   0  0  0  0  0  3  0  0  0  0  0  0
  -21.8500   -4.9170   22.5490 C   0  0  0  0  0  0  0  0  0  0  0  0
  -22.1980   -4.3500   21.3680 F   0  0  0  0  0  0  0  0  0  0  0  0
  -21.2160   -3.9250   26.0220 F   0  0  0  0  0  0  0  0  0  0  0  0
  -22.9730  -13.6320   21.0090 C   0  0  0  0  0  0  0  0  0  0  0  0
  -22.2130  -12.9850   21.8850 N   0  0  0  0  0  0  0  0  0  0  0  0
  -22.5720  -14.6510   20.4480 O   0  0  0  0  0  0  0  0  0  0  0  0
  -22.5540  -12.1670   22.3670 H   0  0  0  0  0  0  0  0  0  0  0  0
  -21.2810  -13.3140   22.0870 H   0  0  0  0  0  0  0  0  0  0  0  0
  -25.6570  -15.1970   20.1840 N   0  0  0  0  0  0  0  0  0  0  0  0
  -24.8920  -15.8580   20.2370 H   0  0  0  0  0  0  0  0  0  0  0  0
  -26.4910  -15.5930   19.7670 H   0  0  0  0  0  0  0  0  0  0  0  0
  -29.6620  -24.4860   20.5110 C   0  0  0  0  0  0  0  0  0  0  0  0
  -29.5380  -23.1450   20.3730 N   0  0  0  0  0  0  0  0  0  0  0  0
  -30.5610  -25.0030   21.1830 O   0  0  0  0  0  0  0  0  0  0  0  0
  -28.7590  -22.8360   19.8130 H   0  0  0  0  0  0  0  0  0  0  0  0
  -28.6070  -25.3610   19.7760 C   0  0  0  0  0  2  0  0  0  0  0  0
  -28.5940  -26.7380   20.2290 O   0  0  0  0  0  0  0  0  0  0  0  0
  -24.6360  -31.8500   23.2230 C   0  0  0  0  0  0  0  0  0  0  0  0
  -27.4030  -27.4530   20.1620 C   0  0  0  0  0  0  0  0  0  0  0  0
  -23.4740  -30.4480   21.5490 C   0  0  0  0  0  3  0  0  0  0  0  0
  -24.9760  -28.9400   20.1360 C   0  0  0  0  0  0  0  0  0  0  0  0
  -25.9970  -30.8390   21.3970 C   0  0  0  0  0  2  0  0  0  0  0  0
  -26.1170  -29.4740   20.7450 C   0  0  0  0  0  0  0  0  0  0  0  0
  -27.3300  -28.7390   20.7520 C   0  0  0  0  0  3  0  0  0  0  0  0
  -26.2410  -26.9520   19.5260 C   0  0  0  0  0  3  0  0  0  0  0  0
  -25.0380  -27.6800   19.5150 C   0  0  0  0  0  3  0  0  0  0  0  0
  -23.7150  -29.7770   20.1700 C   0  0  0  0  0  2  0  0  0  0  0  0
  -24.7200  -31.0620   22.1140 N   0  0  0  0  0  0  0  0  0  0  0  0
  -23.5460  -32.1050   23.7490 O   0  0  0  0  0  0  0  0  0  0  0  0
  -22.8210  -29.4160   22.4900 C   0  0  0  0  0  0  0  0  0  0  0  0
  -21.4950  -29.2400   22.3560 N   0  0  0  0  0  0  0  0  0  0  0  0
  -23.4990  -28.7750   23.2980 O   0  0  0  0  0  0  0  0  0  0  0  0
  -21.0110  -29.7870   21.6580 H   0  0  0  0  0  0  0  0  0  0  0  0
  -18.1120  -28.0890   22.8600 C   0  0  0  0  0  0  0  0  0  0  0  0
  -20.6730  -28.3000   23.1170 C   0  0  0  0  0  3  0  0  0  0  0  0
  -20.7490  -26.8810   22.5090 C   0  0  0  0  0  2  0  0  0  0  0  0
  -19.6390  -26.6060   21.4890 C   0  0  0  0  0  2  0  0  0  0  0  0
  -18.2650  -26.7540   22.1470 C   0  0  0  0  0  2  0  0  0  0  0  0
  -19.2450  -28.8190   23.3020 C   0  0  0  0  0  0  0  0  0  0  0  0
  -19.0540  -30.0670   23.9320 C   0  0  0  0  0  3  0  0  0  0  0  0
  -17.7620  -30.5820   24.1290 C   0  0  0  0  0  3  0  0  0  0  0  0
  -16.6420  -29.8440   23.7090 C   0  0  0  0  0  3  0  0  0  0  0  0
  -16.8170  -28.5990   23.0810 C   0  0  0  0  0  3  0  0  0  0  0  0
  -25.9060  -32.4940   23.8670 C   0  0  0  0  0  3  0  0  0  0  0  0
  -26.4040  -31.7280   25.1520 C   0  0  1  0  0  0  0  0  0  0  0  0
  -25.2880  -31.4830   26.1930 C   0  0  0  0  0  1  0  0  0  0  0  0
  -27.0040  -30.3540   24.7700 C   0  0  0  0  0  1  0  0  0  0  0  0
  -27.5380  -32.5280   25.8340 C   0  0  0  0  0  1  0  0  0  0  0  0
  -25.5790  -33.8890   24.1850 N   0  0  0  0  0  0  0  0  0  0  0  0
  -25.9170  -34.9430   23.4300 C   0  0  0  0  0  0  0  0  0  0  0  0
  -26.6060  -34.8410   22.4110 O   0  0  0  0  0  0  0  0  0  0  0  0
  -24.9670  -34.0410   24.9740 H   0  0  0  0  0  0  0  0  0  0  0  0
  -24.1750  -36.7150   23.0490 C   0  0  0  0  0  1  0  0  0  0  0  0
  -25.4110  -36.3260   23.8750 C   0  0  0  0  0  3  0  0  0  0  0  0
  -27.5270  -37.2370   24.7260 C   0  0  0  0  0  1  0  0  0  0  0  0
  -26.4340  -37.3890   23.7690 N   0  0  0  0  0  0  0  0  0  0  0  0
  -26.0170  -38.3060   23.9040 H   0  0  0  0  0  0  0  0  0  0  0  0
  3  5  1  0
  4  6  2  0
  5  1  1  0
  5  2  2  0
  6  2  1  0
  6  9  1  0
  7  4  1  0
  7  3  2  0
  8  7  1  0
 10 18  1  0
 11 16  1  0
 12 13  1  0
 12 11  1  0
 14 13  1  0
 14 23  1  0
 14 15  1  0
 16 10  1  0
 16 15  1  0
 17 10  2  0
 18  9  1  0
 18 19  1  0
 20 21  2  0
 21 22  1  0
 21 40  1  0
 22 25  1  0
 23 20  1  0
 23 24  1  0
 24 22  2  0
 25 26  1  0
 26 27  2  0
 28 31  1  0
 28 27  1  0
 29 28  2  0
 30 29  1  0
 30 25  2  0
 31 32  1  0
 32 33  1  0
 33 34  2  0
 35 34  1  0
 35 39  1  0
 36 35  2  0
 37 32  2  0
 37 36  1  0
 38 37  1  0
 40 41  1  0
 41 44  1  0
 41 43  1  0
 42 40  2  0
 45 46  1  0
 45 20  1  0
 47 45  1  0
 48 50  2  0
 49 48  1  0
 49  1  1  0
 51 49  1  0
 52 53  1  0
 52 48  1  0
 54 65  2  0
 55 53  1  0
 55 60  1  0
 56 64  1  0
 56 66  1  0
 57 63  1  0
 57 59  1  0
 58 64  1  0
 59 60  2  0
 59 58  1  0
 61 55  2  0
 62 61  1  0
 62 57  2  0
 63 56  1  0
 64 54  1  0
 66 68  2  0
 67 66  1  0
 69 67  1  0
 70 79  2  0
 70 75  1  0
 71 67  1  0
 71 75  1  0
 72 71  1  0
 73 74  1  0
 73 72  1  0
 74 70  1  0
 75 76  2  0
 76 77  1  0
 78 77  2  0
 79 78  1  0
 80 54  1  0
 80 85  1  0
 80 81  1  0
 81 84  1  1
 81 82  1  0
 83 81  1  0
 85 88  1  0
 86 90  1  0
 86 85  1  0
 87 86  2  0
 90 89  1  0
 92 90  1  0
 92 93  1  0
 92 91  1  0
M  ISO  4  10 100  18 100  52 101  53 101
M  END
>  <TORSDO>  (31) 
F 20

>  <SCORE>  (31) 
-13.961

>  <name>  (31) 
30

>  <ligand_id>  (31) 
30

>  <original_smiles>  (31) 
[H]c1c([H])c([H])c2c(c1[H])C([H])([H])C([H])([H])C([H])([H])C2([H])N([H])C(=O)C1([H])N(C(=O)C([H])(N([H])C(=O)C([H])(N([H])C([H])([H])[H])C([H])([H])[H])C(C([H])([H])[H])(C([H])([H])[H])C([H])([H])[H])C([H])([H])c2c([H])c(OC([H])([H])C(=O)N([H])C([H])([H])c3c([H])c(Cl)c([H])c(C([H])([H])N([H])C(=O)N4C([H])([H])C([H])([H])C([H])([H])C([H])(n5nc(-c6c([H])c([H])c(Oc7c([H])c([H])c(F)c([H])c7F)c([H])c6[H])c(C(=O)N([H])[H])c5N([H])[H])C4([H])[H])c3[H])c([H])c([H])c2C1([H])[H]

>  <smiles>  (31) 
[H]c1c([H])c([H])c2c(c1[H])C([H])([H])C([H])([H])C([H])([H])C2([H])N([H])C(=O)C1([H])N(C(=O)C([H])(N([H])C(=O)C([H])(N([H])C([H])([H])[H])C([H])([H])[H])C(C([H])([H])[H])(C([H])([H])[H])C([H])([H])[H])C([H])([H])c2c([H])c(OC([H])([H])C(=O)N([H])C([H])([H])c3c([H])c(Cl)c([H])c(C([H])([H])N([H])C(=O)N4C([H])([H])C([H])([H])C([H])([H])C([H])(n5nc(-c6c([H])c([H])c(Oc7c([H])c([H])c(F)c([H])c7F)c([H])c6[H])c(C(=O)N([H])[H])c5N([H])[H])C4([H])[H])c3[H])c([H])c([H])c2C1([H])[H]

$$$$
31:0:0
     RDKit          3D

 96105  0  0  1  0  0  0  0  0999 V2000
  -28.5160  -23.8970   20.0870 C   0  0  0  0  0  0  0  0  0  0  0  0
  -27.3070  -23.7800   20.6790 C   0  0  0  0  0  3  0  0  0  0  0  0
  -31.1780  -24.6110   19.5610 C   0  0  0  0  0  2  0  0  0  0  0  0
  -30.1630  -25.3430   18.6830 C   0  0  0  0  0  2  0  0  0  0  0  0
  -30.8800  -23.1030   19.6140 C   0  0  0  0  0  2  0  0  0  0  0  0
  -28.7660  -25.3480   19.3260 C   0  0  0  0  0  3  0  0  0  0  0  0
  -29.5120  -22.7810   20.0430 N   0  0  0  0  0  0  0  0  0  0  0  0
  -28.9680  -20.3350   19.3000 C   0  0  0  0  0  3  0  0  0  0  0  0
  -30.4040  -19.1320   21.3370 C   0  0  0  0  0  3  0  0  0  0  0  0
  -29.1340  -18.8830   19.3700 C   0  0  0  0  0  0  0  0  0  0  0  0
  -29.4980  -21.2870   20.2390 C   0  0  0  0  0  0  0  0  0  0  0  0
  -29.8900  -18.1870   20.3840 C   0  0  0  0  0  0  0  0  0  0  0  0
  -30.2290  -20.5790   21.2720 C   0  0  0  0  0  0  0  0  0  0  0  0
  -28.4590  -18.0420   18.3040 C   0  0  0  0  0  1  0  0  0  0  0  0
  -30.9420  -21.4950   22.5550 Cl  0  0  0  0  0  0  0  0  0  0  0  0
  -30.7420  -15.5420   20.4460 C   0  0  0  0  0  0  0  0  0  0  0  0
  -30.7150  -13.1640   19.5670 C   0  0  0  0  0  2  0  0  0  0  0  0
  -29.8340  -13.0930   18.2960 C   0  0  0  0  0  2  0  0  0  0  0  0
  -28.3480  -12.8970   18.6550 C   0  0  0  0  0  2  0  0  0  0  0  0
  -27.8870  -13.8430   19.7930 C   0  0  0  0  0  3  0  0  0  0  0  0
  -28.8880  -13.8610   20.9670 C   0  0  0  0  0  2  0  0  0  0  0  0
  -30.1890  -14.2630   20.4200 N   0  0  0  0  0  0  0  0  0  0  0  0
  -31.9510  -15.6470   20.2050 O   0  0  0  0  0  0  0  0  0  0  0  0
  -29.8670  -16.6560   20.5560 N   0  0  0  0  0  0  0  0  0  0  0  0
  -28.9290  -16.3100   20.6810 H   0  0  0  0  0  0  0  0  0  0  0  0
  -25.4820  -14.4510   20.4320 C   0  0  0  0  0  0  0  0  0  0  0  0
  -24.3940  -13.6900   20.7600 C   0  0  0  0  0  0  0  0  0  0  0  0
  -24.8410  -12.3330   20.7460 C   0  0  0  0  0  0  0  0  0  0  0  0
  -26.5240  -13.5600   20.2320 N   0  0  0  0  0  0  0  0  0  0  0  0
  -26.1440  -12.2820   20.4870 N   0  0  0  0  0  0  0  0  0  0  0  0
  -24.0900  -11.0800   20.9100 C   0  0  0  0  0  0  0  0  0  0  0  0
  -24.4610  -10.1170   21.8740 C   0  0  0  0  0  3  0  0  0  0  0  0
  -23.7170   -8.9270   22.0220 C   0  0  0  0  0  3  0  0  0  0  0  0
  -22.5830   -8.6960   21.2080 C   0  0  0  0  0  0  0  0  0  0  0  0
  -22.2300   -9.6470   20.2350 C   0  0  0  0  0  3  0  0  0  0  0  0
  -22.9770  -10.8270   20.0830 C   0  0  0  0  0  3  0  0  0  0  0  0
  -21.8090   -7.5620   21.2710 O   0  0  0  0  0  0  0  0  0  0  0  0
  -21.6930   -6.8290   22.4250 C   0  0  0  0  0  0  0  0  0  0  0  0
  -21.1760   -7.3910   23.6140 C   0  0  0  0  0  3  0  0  0  0  0  0
  -21.0060   -6.5840   24.7570 C   0  0  0  0  0  3  0  0  0  0  0  0
  -21.3450   -5.2170   24.7110 C   0  0  0  0  0  0  0  0  0  0  0  0
  -21.8540   -4.6550   23.5260 C   0  0  0  0  0  3  0  0  0  0  0  0
  -22.0250   -5.4600   22.3860 C   0  0  0  0  0  0  0  0  0  0  0  0
  -22.4950   -4.9080   21.2400 F   0  0  0  0  0  0  0  0  0  0  0  0
  -21.1750   -4.4400   25.8070 F   0  0  0  0  0  0  0  0  0  0  0  0
  -22.9910  -14.1830   20.9730 C   0  0  0  0  0  0  0  0  0  0  0  0
  -22.2180  -13.5010   21.8110 N   0  0  0  0  0  0  0  0  0  0  0  0
  -22.5880  -15.2110   20.4310 O   0  0  0  0  0  0  0  0  0  0  0  0
  -22.5500  -12.6670   22.2710 H   0  0  0  0  0  0  0  0  0  0  0  0
  -21.2750  -13.8180   21.9930 H   0  0  0  0  0  0  0  0  0  0  0  0
  -25.6630  -15.8200   20.2610 N   0  0  0  0  0  0  0  0  0  0  0  0
  -24.8830  -16.4650   20.3360 H   0  0  0  0  0  0  0  0  0  0  0  0
  -26.5090  -16.2580   19.9240 H   0  0  0  0  0  0  0  0  0  0  0  0
  -25.5590  -22.6700   21.9800 C   0  0  0  0  0  2  0  0  0  0  0  0
  -26.7710  -22.6420   21.3990 C   0  0  0  0  0  3  0  0  0  0  0  0
  -28.6180  -26.7660   19.9570 O   0  0  0  0  0  0  0  0  0  0  0  0
  -24.6770  -32.0100   23.2640 C   0  0  0  0  0  0  0  0  0  0  0  0
  -27.4960  -27.6720   19.8930 C   0  0  0  0  0  0  0  0  0  0  0  0
  -23.5430  -30.6720   21.5300 C   0  0  0  0  0  3  0  0  0  0  0  0
  -25.0680  -29.2800   19.9910 C   0  0  0  0  0  0  0  0  0  0  0  0
  -26.0780  -31.0870   21.3780 C   0  0  0  0  0  2  0  0  0  0  0  0
  -26.2220  -29.7510   20.6290 C   0  0  0  0  0  0  0  0  0  0  0  0
  -27.4290  -28.9580   20.5710 C   0  0  0  0  0  3  0  0  0  0  0  0
  -26.3070  -27.3010   19.2260 C   0  0  0  0  0  3  0  0  0  0  0  0
  -25.1230  -28.0710   19.2790 C   0  0  0  0  0  3  0  0  0  0  0  0
  -23.7920  -30.1010   20.1070 C   0  0  0  0  0  2  0  0  0  0  0  0
  -24.7850  -31.2770   22.1130 N   0  0  0  0  0  0  0  0  0  0  0  0
  -23.5800  -32.1970   23.8130 O   0  0  0  0  0  0  0  0  0  0  0  0
  -22.9270  -29.5650   22.4210 C   0  0  0  0  0  0  0  0  0  0  0  0
  -21.6160  -29.3120   22.2670 N   0  0  0  0  0  0  0  0  0  0  0  0
  -23.6330  -28.9380   23.2150 O   0  0  0  0  0  0  0  0  0  0  0  0
  -21.1000  -29.8750   21.6050 H   0  0  0  0  0  0  0  0  0  0  0  0
  -18.3270  -27.8350   22.6240 C   0  0  0  0  0  0  0  0  0  0  0  0
  -20.8520  -28.2770   22.9700 C   0  0  0  0  0  3  0  0  0  0  0  0
  -21.0770  -26.8880   22.3280 C   0  0  0  0  0  2  0  0  0  0  0  0
  -20.0270  -26.5350   21.2710 C   0  0  0  0  0  2  0  0  0  0  0  0
  -18.6230  -26.5410   21.8840 C   0  0  0  0  0  2  0  0  0  0  0  0
  -19.3730  -28.6580   23.1190 C   0  0  0  0  0  0  0  0  0  0  0  0
  -19.0420  -29.8660   23.7690 C   0  0  0  0  0  3  0  0  0  0  0  0
  -17.6990  -30.2540   23.9270 C   0  0  0  0  0  3  0  0  0  0  0  0
  -16.6670  -29.4300   23.4460 C   0  0  0  0  0  3  0  0  0  0  0  0
  -16.9820  -28.2210   22.8010 C   0  0  0  0  0  3  0  0  0  0  0  0
  -25.9230  -32.6700   23.9300 C   0  0  0  0  0  3  0  0  0  0  0  0
  -25.5600  -34.0480   24.2930 N   0  0  0  0  0  0  0  0  0  0  0  0
  -25.8550  -35.1350   23.5680 C   0  0  0  0  0  0  0  0  0  0  0  0
  -26.5280  -35.0850   22.5350 O   0  0  0  0  0  0  0  0  0  0  0  0
  -24.9610  -34.1570   25.0980 H   0  0  0  0  0  0  0  0  0  0  0  0
  -24.0520  -36.8690   23.2830 C   0  0  0  0  0  1  0  0  0  0  0  0
  -25.3200  -36.4930   24.0650 C   0  0  0  0  0  3  0  0  0  0  0  0
  -27.4250  -37.4500   24.8920 C   0  0  0  0  0  1  0  0  0  0  0  0
  -26.3070  -37.5910   23.9640 N   0  0  0  0  0  0  0  0  0  0  0  0
  -25.8630  -38.4890   24.1340 H   0  0  0  0  0  0  0  0  0  0  0  0
  -26.4350  -31.8850   25.2000 C   0  0  1  0  0  0  0  0  0  0  0  0
  -25.3260  -31.5870   26.2370 C   0  0  0  0  0  1  0  0  0  0  0  0
  -27.0720  -30.5370   24.7930 C   0  0  0  0  0  1  0  0  0  0  0  0
  -27.5400  -32.7020   25.9110 C   0  0  0  0  0  1  0  0  0  0  0  0
  1  2  2  0
  2 55  1  0
  3  5  1  0
  4  6  1  0
  4  3  1  0
  5  7  1  0
  6 56  1  0
  6  1  1  0
  7  1  1  0
  7 11  1  0
  8 10  2  0
  8 11  1  0
 10 12  1  0
 11 13  2  0
 12 24  1  0
 12  9  2  0
 13  9  1  0
 13 15  1  0
 14 10  1  0
 16 24  1  0
 17 22  1  0
 18 19  1  0
 18 17  1  0
 20 19  1  0
 20 29  1  0
 20 21  1  0
 22 16  1  0
 22 21  1  0
 23 16  2  0
 24 25  1  0
 26 27  2  0
 27 46  1  0
 28 27  1  0
 28 31  1  0
 29 26  1  0
 29 30  1  0
 30 28  2  0
 31 32  1  0
 32 33  2  0
 34 37  1  0
 34 33  1  0
 35 34  2  0
 36 35  1  0
 36 31  2  0
 37 38  1  0
 38 39  1  0
 39 40  2  0
 41 40  1  0
 41 45  1  0
 42 41  2  0
 43 38  2  0
 43 42  1  0
 44 43  1  0
 46 47  1  0
 47 50  1  0
 47 49  1  0
 48 46  2  0
 51 52  1  0
 51 26  1  0
 53 51  1  0
 55 54  2  0
 57 68  2  0
 58 56  1  0
 58 63  1  0
 59 67  1  0
 59 69  1  0
 60 66  1  0
 60 62  1  0
 61 67  1  0
 62 61  1  0
 63 62  2  0
 64 65  1  0
 64 58  2  0
 65 60  2  0
 66 59  1  0
 67 57  1  0
 69 71  2  0
 70 69  1  0
 72 70  1  0
 73 82  2  0
 73 78  1  0
 74 70  1  0
 74 78  1  0
 75 74  1  0
 76 77  1  0
 76 75  1  0
 77 73  1  0
 78 79  2  0
 79 80  1  0
 81 80  2  0
 82 81  1  0
 83 57  1  0
 83 84  1  0
 83 93  1  0
 84 87  1  0
 85 89  1  0
 85 84  1  0
 86 85  2  0
 89 88  1  0
 91 89  1  0
 91 92  1  0
 91 90  1  0
 93 96  1  1
 93 94  1  0
 95 93  1  0
M  ISO  4   6 101  16 100  24 100  56 101
M  END
>  <TORSDO>  (32) 
F 18

>  <SCORE>  (32) 
-12.742

>  <name>  (32) 
31

>  <ligand_id>  (32) 
31

>  <original_smiles>  (32) 
[H]C([H])=C([H])C([H])=C1N(c2c([H])c(C([H])([H])[H])c(N([H])C(=O)N3C([H])([H])C([H])([H])C([H])([H])C([H])(n4nc(-c5c([H])c([H])c(Oc6c([H])c([H])c(F)c([H])c6F)c([H])c5[H])c(C(=O)N([H])[H])c4N([H])[H])C3([H])[H])c([H])c2Cl)C([H])([H])C([H])([H])C([H])([H])C1([H])Oc1c([H])c([H])c2c(c1[H])C([H])([H])N(C(=O)C([H])(N([H])C(=O)C([H])(N([H])C([H])([H])[H])C([H])([H])[H])C(C([H])([H])[H])(C([H])([H])[H])C([H])([H])[H])C([H])(C(=O)N([H])C1([H])c3c([H])c([H])c([H])c([H])c3C([H])([H])C([H])([H])C1([H])[H])C2([H])[H]

>  <smiles>  (32) 
[H]C([H])=C([H])C([H])=C1N(c2c([H])c(C([H])([H])[H])c(N([H])C(=O)N3C([H])([H])C([H])([H])C([H])([H])C([H])(n4nc(-c5c([H])c([H])c(Oc6c([H])c([H])c(F)c([H])c6F)c([H])c5[H])c(C(=O)N([H])[H])c4N([H])[H])C3([H])[H])c([H])c2Cl)C([H])([H])C([H])([H])C([H])([H])C1([H])Oc1c([H])c([H])c2c(c1[H])C([H])([H])N(C(=O)C([H])(N([H])C(=O)C([H])(N([H])C([H])([H])[H])C([H])([H])[H])C(C([H])([H])[H])(C([H])([H])[H])C([H])([H])[H])C([H])(C(=O)N([H])C1([H])c3c([H])c([H])c([H])c([H])c3C([H])([H])C([H])([H])C1([H])[H])C2([H])[H]

$$$$
32:0:0
     RDKit          3D

 94103  0  0  1  0  0  0  0  0999 V2000
  -28.7040  -23.7280   19.8990 C   0  0  0  0  0  0  0  0  0  0  0  0
  -28.2760  -23.5630   22.7660 C   0  0  0  0  0  2  0  0  0  0  0  0
  -28.4910  -24.9610   22.1650 C   0  0  0  0  0  2  0  0  0  0  0  0
  -29.0950  -22.4940   22.0150 C   0  0  0  0  0  2  0  0  0  0  0  0
  -28.1030  -25.0000   20.6790 C   0  0  0  0  0  3  0  0  0  0  0  0
  -28.9060  -22.5070   20.5530 N   0  0  0  0  0  0  0  0  0  0  0  0
  -28.8570  -23.8250   18.6780 O   0  0  0  0  0  0  0  0  0  0  0  0
  -28.3470  -26.3930   20.1470 O   0  0  0  0  0  0  0  0  0  0  0  0
  -24.6610  -31.8750   23.2110 C   0  0  0  0  0  0  0  0  0  0  0  0
  -27.2570  -27.2950   20.1380 C   0  0  0  0  0  0  0  0  0  0  0  0
  -23.4520  -30.4730   21.5790 C   0  0  0  0  0  3  0  0  0  0  0  0
  -24.8990  -28.9310   20.1350 C   0  0  0  0  0  0  0  0  0  0  0  0
  -25.9900  -30.7920   21.3790 C   0  0  0  0  0  2  0  0  0  0  0  0
  -26.0720  -29.4100   20.7320 C   0  0  0  0  0  0  0  0  0  0  0  0
  -27.2560  -28.6030   20.7250 C   0  0  0  0  0  3  0  0  0  0  0  0
  -26.0670  -26.8860   19.5020 C   0  0  0  0  0  3  0  0  0  0  0  0
  -24.9000  -27.6730   19.5100 C   0  0  0  0  0  3  0  0  0  0  0  0
  -23.6610  -29.8050   20.1950 C   0  0  0  0  0  2  0  0  0  0  0  0
  -24.7210  -31.0650   22.1130 N   0  0  0  0  0  0  0  0  0  0  0  0
  -23.5800  -32.1480   23.7550 O   0  0  0  0  0  0  0  0  0  0  0  0
  -22.7980  -29.4530   22.5410 C   0  0  0  0  0  0  0  0  0  0  0  0
  -21.4700  -29.2750   22.4260 N   0  0  0  0  0  0  0  0  0  0  0  0
  -23.4820  -28.8270   23.3550 O   0  0  0  0  0  0  0  0  0  0  0  0
  -20.9750  -29.8280   21.7390 H   0  0  0  0  0  0  0  0  0  0  0  0
  -18.1020  -28.0650   22.9460 C   0  0  0  0  0  0  0  0  0  0  0  0
  -20.6600  -28.3330   23.2010 C   0  0  0  0  0  3  0  0  0  0  0  0
  -20.7670  -26.9050   22.6200 C   0  0  0  0  0  2  0  0  0  0  0  0
  -19.6590  -26.5800   21.6120 C   0  0  0  0  0  2  0  0  0  0  0  0
  -18.2810  -26.7190   22.2660 C   0  0  0  0  0  2  0  0  0  0  0  0
  -19.2200  -28.8300   23.3710 C   0  0  0  0  0  0  0  0  0  0  0  0
  -18.9990  -30.0930   23.9650 C   0  0  0  0  0  3  0  0  0  0  0  0
  -17.6930  -30.5860   24.1420 C   0  0  0  0  0  3  0  0  0  0  0  0
  -16.5890  -29.8160   23.7360 C   0  0  0  0  0  3  0  0  0  0  0  0
  -16.7950  -28.5580   23.1410 C   0  0  0  0  0  3  0  0  0  0  0  0
  -25.9460  -32.5100   23.8260 C   0  0  0  0  0  3  0  0  0  0  0  0
  -25.6300  -33.9040   24.1710 N   0  0  0  0  0  0  0  0  0  0  0  0
  -25.9490  -34.9650   23.4180 C   0  0  0  0  0  0  0  0  0  0  0  0
  -26.6050  -34.8740   22.3780 O   0  0  0  0  0  0  0  0  0  0  0  0
  -25.0420  -34.0480   24.9780 H   0  0  0  0  0  0  0  0  0  0  0  0
  -24.2060  -36.7540   23.1020 C   0  0  0  0  0  1  0  0  0  0  0  0
  -25.4590  -36.3450   23.8940 C   0  0  0  0  0  3  0  0  0  0  0  0
  -27.5950  -37.2370   24.7130 C   0  0  0  0  0  1  0  0  0  0  0  0
  -26.4830  -37.4050   23.7810 N   0  0  0  0  0  0  0  0  0  0  0  0
  -26.0720  -38.3200   23.9410 H   0  0  0  0  0  0  0  0  0  0  0  0
  -26.4780  -31.7320   25.0920 C   0  0  1  0  0  0  0  0  0  0  0  0
  -25.3980  -31.4840   26.1700 C   0  0  0  0  0  1  0  0  0  0  0  0
  -27.0620  -30.3590   24.6870 C   0  0  0  0  0  1  0  0  0  0  0  0
  -27.6310  -32.5260   25.7500 C   0  0  0  0  0  1  0  0  0  0  0  0
  -28.8660  -21.1080   19.9100 C   0  0  0  0  0  2  0  0  0  0  0  0
  -31.7110  -17.7140   20.6310 C   0  0  0  0  0  3  0  0  0  0  0  0
  -32.1460  -19.0530   20.5710 C   0  0  0  0  0  3  0  0  0  0  0  0
  -29.4400  -18.4960   20.3090 C   0  0  0  0  0  3  0  0  0  0  0  0
  -29.8600  -19.8960   20.2440 C   0  0  0  0  0  0  0  0  0  0  0  0
  -30.3460  -17.3640   20.4730 C   0  0  0  0  0  0  0  0  0  0  0  0
  -31.2540  -20.1210   20.3480 C   0  0  0  0  0  0  0  0  0  0  0  0
  -31.9360  -21.6950   20.1340 Cl  0  0  0  0  0  0  0  0  0  0  0  0
  -30.6410  -14.7580   20.2850 C   0  0  0  0  0  0  0  0  0  0  0  0
  -30.3750  -12.4820   19.2890 C   0  0  0  0  0  2  0  0  0  0  0  0
  -29.4490  -12.5770   18.0600 C   0  0  0  0  0  2  0  0  0  0  0  0
  -27.9790  -12.4070   18.4850 C   0  0  0  0  0  2  0  0  0  0  0  0
  -27.6090  -13.2960   19.7040 C   0  0  0  0  0  3  0  0  0  0  0  0
  -28.6670  -13.2320   20.8280 C   0  0  0  0  0  2  0  0  0  0  0  0
  -29.9670  -13.5560   20.2260 N   0  0  0  0  0  0  0  0  0  0  0  0
  -31.8250  -14.7940   19.9460 O   0  0  0  0  0  0  0  0  0  0  0  0
  -29.9230  -15.9330   20.4980 N   0  0  0  0  0  0  0  0  0  0  0  0
  -28.9350  -15.7800   20.6330 H   0  0  0  0  0  0  0  0  0  0  0  0
  -25.2180  -13.8950   20.4100 C   0  0  0  0  0  0  0  0  0  0  0  0
  -24.1520  -13.1260   20.7850 C   0  0  0  0  0  0  0  0  0  0  0  0
  -24.6160  -11.7740   20.7730 C   0  0  0  0  0  0  0  0  0  0  0  0
  -26.2650  -13.0140   20.1930 N   0  0  0  0  0  0  0  0  0  0  0  0
  -25.9080  -11.7340   20.4730 N   0  0  0  0  0  0  0  0  0  0  0  0
  -23.8880  -10.5130   20.9720 C   0  0  0  0  0  0  0  0  0  0  0  0
  -24.3140   -9.5560   21.9200 C   0  0  0  0  0  3  0  0  0  0  0  0
  -23.5840   -8.3620   22.1080 C   0  0  0  0  0  3  0  0  0  0  0  0
  -22.4130   -8.1170   21.3490 C   0  0  0  0  0  0  0  0  0  0  0  0
  -22.0100   -9.0620   20.3890 C   0  0  0  0  0  3  0  0  0  0  0  0
  -22.7400  -10.2480   20.2010 C   0  0  0  0  0  3  0  0  0  0  0  0
  -21.6570   -6.9730   21.4460 O   0  0  0  0  0  0  0  0  0  0  0  0
  -21.5980   -6.2460   22.6060 C   0  0  0  0  0  0  0  0  0  0  0  0
  -21.1560   -6.8150   23.8220 C   0  0  0  0  0  3  0  0  0  0  0  0
  -21.0480   -6.0140   24.9760 C   0  0  0  0  0  3  0  0  0  0  0  0
  -21.3630   -4.6430   24.9150 C   0  0  0  0  0  0  0  0  0  0  0  0
  -21.7950   -4.0730   23.7040 C   0  0  0  0  0  3  0  0  0  0  0  0
  -21.9090   -4.8730   22.5530 C   0  0  0  0  0  0  0  0  0  0  0  0
  -22.3060   -4.3140   21.3830 F   0  0  0  0  0  0  0  0  0  0  0  0
  -21.2510   -3.8730   26.0230 F   0  0  0  0  0  0  0  0  0  0  0  0
  -22.7520  -13.6070   21.0420 C   0  0  0  0  0  0  0  0  0  0  0  0
  -22.0200  -12.9200   21.9110 N   0  0  0  0  0  0  0  0  0  0  0  0
  -22.3160  -14.6290   20.5130 O   0  0  0  0  0  0  0  0  0  0  0  0
  -22.3870  -12.0910   22.3570 H   0  0  0  0  0  0  0  0  0  0  0  0
  -21.0800  -13.2210   22.1290 H   0  0  0  0  0  0  0  0  0  0  0  0
  -25.3780  -15.2630   20.2070 N   0  0  0  0  0  0  0  0  0  0  0  0
  -24.5940  -15.9030   20.2620 H   0  0  0  0  0  0  0  0  0  0  0  0
  -26.2120  -15.6970   19.8350 H   0  0  0  0  0  0  0  0  0  0  0  0
  1  6  1  0
  1  5  1  0
  3  2  1  0
  4  2  1  0
  5  8  1  0
  5  3  1  0
  6  4  1  0
  7  1  2  0
  9 20  2  0
 10  8  1  0
 10 15  1  0
 11 19  1  0
 11 21  1  0
 12 18  1  0
 12 14  1  0
 13 19  1  0
 14 13  1  0
 15 14  2  0
 16 17  1  0
 16 10  2  0
 17 12  2  0
 18 11  1  0
 19  9  1  0
 21 23  2  0
 22 21  1  0
 24 22  1  0
 25 34  2  0
 25 30  1  0
 26 22  1  0
 26 30  1  0
 27 26  1  0
 28 29  1  0
 28 27  1  0
 29 25  1  0
 30 31  2  0
 31 32  1  0
 33 32  2  0
 34 33  1  0
 35  9  1  0
 35 36  1  0
 35 45  1  0
 36 39  1  0
 37 41  1  0
 37 36  1  0
 38 37  2  0
 41 40  1  0
 43 41  1  0
 43 44  1  0
 43 42  1  0
 45 48  1  1
 45 46  1  0
 47 45  1  0
 49 53  1  0
 49  6  1  0
 51 50  1  0
 52 54  1  0
 53 52  2  0
 53 55  1  0
 54 65  1  0
 54 50  2  0
 55 51  2  0
 56 55  1  0
 57 65  1  0
 58 63  1  0
 59 60  1  0
 59 58  1  0
 61 60  1  0
 61 70  1  0
 61 62  1  0
 63 57  1  0
 63 62  1  0
 64 57  2  0
 65 66  1  0
 67 68  2  0
 68 87  1  0
 69 68  1  0
 69 72  1  0
 70 67  1  0
 70 71  1  0
 71 69  2  0
 72 73  1  0
 73 74  2  0
 75 78  1  0
 75 74  1  0
 76 75  2  0
 77 76  1  0
 77 72  2  0
 78 79  1  0
 79 80  1  0
 80 81  2  0
 82 81  1  0
 82 86  1  0
 83 82  2  0
 84 79  2  0
 84 83  1  0
 85 84  1  0
 87 88  1  0
 88 91  1  0
 88 90  1  0
 89 87  2  0
 92 93  1  0
 92 67  1  0
 94 92  1  0
M  ISO  4   5 101   8 101  57 100  65 100
M  END
>  <TORSDO>  (33) 
F 18

>  <SCORE>  (33) 
-14.435

>  <name>  (33) 
32

>  <ligand_id>  (33) 
32

>  <original_smiles>  (33) 
[H]c1c([H])c([H])c2c(c1[H])C([H])([H])C([H])([H])C([H])([H])C2([H])N([H])C(=O)C1([H])N(C(=O)C([H])(N([H])C(=O)C([H])(N([H])C([H])([H])[H])C([H])([H])[H])C(C([H])([H])[H])(C([H])([H])[H])C([H])([H])[H])C([H])([H])c2c([H])c(OC3([H])C(=O)N(C([H])([H])c4c([H])c(N([H])C(=O)N5C([H])([H])C([H])([H])C([H])([H])C([H])(n6nc(-c7c([H])c([H])c(Oc8c([H])c([H])c(F)c([H])c8F)c([H])c7[H])c(C(=O)N([H])[H])c6N([H])[H])C5([H])[H])c([H])c([H])c4Cl)C([H])([H])C([H])([H])C3([H])[H])c([H])c([H])c2C1([H])[H]

>  <smiles>  (33) 
[H]c1c([H])c([H])c2c(c1[H])C([H])([H])C([H])([H])C([H])([H])C2([H])N([H])C(=O)C1([H])N(C(=O)C([H])(N([H])C(=O)C([H])(N([H])C([H])([H])[H])C([H])([H])[H])C(C([H])([H])[H])(C([H])([H])[H])C([H])([H])[H])C([H])([H])c2c([H])c(OC3([H])C(=O)N(C([H])([H])c4c([H])c(N([H])C(=O)N5C([H])([H])C([H])([H])C([H])([H])C([H])(n6nc(-c7c([H])c([H])c(Oc8c([H])c([H])c(F)c([H])c8F)c([H])c7[H])c(C(=O)N([H])[H])c6N([H])[H])C5([H])[H])c([H])c([H])c4Cl)C([H])([H])C([H])([H])C3([H])[H])c([H])c([H])c2C1([H])[H]

$$$$
33:0:0
     RDKit          3D

 97106  0  0  1  0  0  0  0  0999 V2000
  -28.5730  -24.1400   20.3700 C   0  0  0  0  0  0  0  0  0  0  0  0
  -28.5830  -24.6710   21.6170 C   0  0  0  0  0  3  0  0  0  0  0  0
  -29.8650  -23.5240   17.9210 C   0  0  0  0  0  2  0  0  0  0  0  0
  -29.0380  -24.8170   17.8810 C   0  0  0  0  0  2  0  0  0  0  0  0
  -29.1180  -22.3500   18.5790 C   0  0  0  0  0  2  0  0  0  0  0  0
  -28.1910  -25.0780   19.1410 C   0  0  0  0  0  3  0  0  0  0  0  0
  -28.8020  -22.5970   20.0110 N   0  0  1  0  0  4  0  0  0  0  0  0
  -27.8670  -22.2180   20.0220 H   0  0  0  0  0  0  0  0  0  0  0  0
  -29.0190  -24.7060   24.0220 C   0  0  0  0  0  2  0  0  0  0  0  0
  -28.6990  -24.0230   22.9110 C   0  0  0  0  0  3  0  0  0  0  0  0
  -28.2050  -26.5710   19.3330 O   0  0  0  0  0  0  0  0  0  0  0  0
  -24.7200  -31.7520   22.9860 C   0  0  0  0  0  0  0  0  0  0  0  0
  -27.0640  -27.4020   19.4110 C   0  0  0  0  0  0  0  0  0  0  0  0
  -23.3840  -30.4620   21.3620 C   0  0  0  0  0  3  0  0  0  0  0  0
  -24.7090  -29.0220   19.7140 C   0  0  0  0  0  0  0  0  0  0  0  0
  -25.9000  -30.8030   20.9880 C   0  0  0  0  0  2  0  0  0  0  0  0
  -25.9250  -29.4690   20.2420 C   0  0  0  0  0  0  0  0  0  0  0  0
  -27.1000  -28.6720   20.0820 C   0  0  0  0  0  3  0  0  0  0  0  0
  -25.8160  -27.0150   18.8720 C   0  0  0  0  0  3  0  0  0  0  0  0
  -24.6580  -27.8030   19.0220 C   0  0  0  0  0  3  0  0  0  0  0  0
  -23.4820  -29.8870   19.9250 C   0  0  0  0  0  2  0  0  0  0  0  0
  -24.6920  -31.0200   21.8350 N   0  0  0  0  0  0  0  0  0  0  0  0
  -23.6860  -31.9830   23.6310 O   0  0  0  0  0  0  0  0  0  0  0  0
  -22.8060  -29.3760   22.3020 C   0  0  0  0  0  0  0  0  0  0  0  0
  -21.4860  -29.1380   22.2160 N   0  0  0  0  0  0  0  0  0  0  0  0
  -23.5450  -28.7500   23.0680 O   0  0  0  0  0  0  0  0  0  0  0  0
  -20.9440  -29.6990   21.5730 H   0  0  0  0  0  0  0  0  0  0  0  0
  -18.2050  -27.7030   22.7270 C   0  0  0  0  0  0  0  0  0  0  0  0
  -20.7430  -28.1320   22.9780 C   0  0  0  0  0  3  0  0  0  0  0  0
  -20.9360  -26.7220   22.3740 C   0  0  0  0  0  2  0  0  0  0  0  0
  -19.8470  -26.3430   21.3640 C   0  0  0  0  0  2  0  0  0  0  0  0
  -18.4660  -26.3820   22.0240 C   0  0  0  0  0  2  0  0  0  0  0  0
  -19.2740  -28.5320   23.1600 C   0  0  0  0  0  0  0  0  0  0  0  0
  -18.9740  -29.7660   23.7780 C   0  0  0  0  0  3  0  0  0  0  0  0
  -17.6400  -30.1720   23.9690 C   0  0  0  0  0  3  0  0  0  0  0  0
  -16.5870  -29.3410   23.5520 C   0  0  0  0  0  3  0  0  0  0  0  0
  -16.8700  -28.1080   22.9360 C   0  0  0  0  0  3  0  0  0  0  0  0
  -26.0490  -32.3520   23.5400 C   0  0  0  0  0  3  0  0  0  0  0  0
  -26.7080  -31.4660   24.6700 C   0  0  1  0  0  0  0  0  0  0  0  0
  -25.7340  -31.0950   25.8130 C   0  0  0  0  0  1  0  0  0  0  0  0
  -27.2650  -30.1500   24.0790 C   0  0  0  0  0  1  0  0  0  0  0  0
  -27.9090  -32.2160   25.2900 C   0  0  0  0  0  1  0  0  0  0  0  0
  -25.7540  -33.6990   24.0490 N   0  0  0  0  0  0  0  0  0  0  0  0
  -25.9770  -34.8350   23.3760 C   0  0  0  0  0  0  0  0  0  0  0  0
  -26.5280  -34.8610   22.2720 O   0  0  0  0  0  0  0  0  0  0  0  0
  -25.2610  -33.7500   24.9290 H   0  0  0  0  0  0  0  0  0  0  0  0
  -24.1830  -36.5980   23.4130 C   0  0  0  0  0  1  0  0  0  0  0  0
  -25.5180  -36.1520   24.0310 C   0  0  0  0  0  3  0  0  0  0  0  0
  -27.7120  -37.0200   24.7100 C   0  0  0  0  0  1  0  0  0  0  0  0
  -26.5080  -37.2450   23.9150 N   0  0  0  0  0  0  0  0  0  0  0  0
  -26.1010  -38.1310   24.2020 H   0  0  0  0  0  0  0  0  0  0  0  0
  -29.4220  -21.5800   21.0100 C   0  0  0  0  0  2  0  0  0  0  0  0
  -32.6240  -19.3910   20.4810 C   0  0  0  0  0  3  0  0  0  0  0  0
  -32.1450  -18.0730   20.4280 C   0  0  0  0  0  3  0  0  0  0  0  0
  -29.8890  -18.9340   20.6070 C   0  0  0  0  0  3  0  0  0  0  0  0
  -31.7690  -20.4970   20.6350 C   0  0  0  0  0  0  0  0  0  0  0  0
  -30.3560  -20.3210   20.6640 C   0  0  0  0  0  0  0  0  0  0  0  0
  -30.7650  -17.7700   20.5070 C   0  0  0  0  0  0  0  0  0  0  0  0
  -32.4550  -21.8410   20.8300 C   0  0  0  0  0  1  0  0  0  0  0  0
  -31.0190  -15.1570   20.3140 C   0  0  0  0  0  0  0  0  0  0  0  0
  -30.7550  -12.8780   19.3290 C   0  0  0  0  0  2  0  0  0  0  0  0
  -29.8460  -12.9590   18.0870 C   0  0  0  0  0  2  0  0  0  0  0  0
  -28.3680  -12.8110   18.4980 C   0  0  0  0  0  2  0  0  0  0  0  0
  -27.9880  -13.7120   19.7040 C   0  0  0  0  0  3  0  0  0  0  0  0
  -29.0340  -13.6420   20.8390 C   0  0  0  0  0  2  0  0  0  0  0  0
  -30.3390  -13.9610   20.2520 N   0  0  0  0  0  0  0  0  0  0  0  0
  -32.2060  -15.1660   19.9850 O   0  0  0  0  0  0  0  0  0  0  0  0
  -30.3170  -16.3430   20.5260 N   0  0  0  0  0  0  0  0  0  0  0  0
  -29.3310  -16.2040   20.6920 H   0  0  0  0  0  0  0  0  0  0  0  0
  -25.6080  -14.3210   20.4380 C   0  0  0  0  0  0  0  0  0  0  0  0
  -24.5280  -13.5550   20.7830 C   0  0  0  0  0  0  0  0  0  0  0  0
  -24.9690  -12.1980   20.7210 C   0  0  0  0  0  0  0  0  0  0  0  0
  -26.6380  -13.4310   20.1840 N   0  0  0  0  0  0  0  0  0  0  0  0
  -26.2610  -12.1470   20.4190 N   0  0  0  0  0  0  0  0  0  0  0  0
  -24.2190  -10.9440   20.8750 C   0  0  0  0  0  0  0  0  0  0  0  0
  -24.6160   -9.9560   21.8020 C   0  0  0  0  0  3  0  0  0  0  0  0
  -23.8680   -8.7670   21.9480 C   0  0  0  0  0  3  0  0  0  0  0  0
  -22.7070   -8.5590   21.1640 C   0  0  0  0  0  0  0  0  0  0  0  0
  -22.3290   -9.5360   20.2260 C   0  0  0  0  0  3  0  0  0  0  0  0
  -23.0780  -10.7160   20.0800 C   0  0  0  0  0  3  0  0  0  0  0  0
  -21.9330   -7.4260   21.2190 O   0  0  0  0  0  0  0  0  0  0  0  0
  -21.8260   -6.6800   22.3650 C   0  0  0  0  0  0  0  0  0  0  0  0
  -21.3340   -7.2310   23.5680 C   0  0  0  0  0  3  0  0  0  0  0  0
  -21.1760   -6.4120   24.7050 C   0  0  0  0  0  3  0  0  0  0  0  0
  -21.5000   -5.0430   24.6370 C   0  0  0  0  0  0  0  0  0  0  0  0
  -21.9850   -4.4930   23.4380 C   0  0  0  0  0  3  0  0  0  0  0  0
  -22.1440   -5.3080   22.3040 C   0  0  0  0  0  0  0  0  0  0  0  0
  -22.5930   -4.7680   21.1460 F   0  0  0  0  0  0  0  0  0  0  0  0
  -21.3400   -4.2550   25.7260 F   0  0  0  0  0  0  0  0  0  0  0  0
  -23.1380  -14.0500   21.0560 C   0  0  0  0  0  0  0  0  0  0  0  0
  -22.3920  -13.3480   21.9010 N   0  0  0  0  0  0  0  0  0  0  0  0
  -22.7220  -15.0950   20.5570 O   0  0  0  0  0  0  0  0  0  0  0  0
  -22.7410  -12.5020   22.3270 H   0  0  0  0  0  0  0  0  0  0  0  0
  -21.4580  -13.6600   22.1260 H   0  0  0  0  0  0  0  0  0  0  0  0
  -25.7920  -15.6930   20.2960 N   0  0  0  0  0  0  0  0  0  0  0  0
  -25.0260  -16.3470   20.4100 H   0  0  0  0  0  0  0  0  0  0  0  0
  -26.6360  -16.1280   19.9480 H   0  0  0  0  0  0  0  0  0  0  0  0
  1  2  2  0
  2 10  1  0
  3  5  1  0
  4  3  1  0
  4  6  1  0
  5  7  1  0
  6 11  1  0
  6  1  1  0
  7  8  1  6
  7  1  1  0
  7 52  1  0
 10  9  2  0
 11 13  1  0
 12 23  2  0
 13 18  1  0
 14 22  1  0
 14 24  1  0
 15 21  1  0
 15 17  1  0
 16 22  1  0
 17 16  1  0
 18 17  2  0
 19 20  1  0
 19 13  2  0
 20 15  2  0
 21 14  1  0
 22 12  1  0
 24 26  2  0
 25 24  1  0
 27 25  1  0
 28 37  2  0
 28 33  1  0
 29 25  1  0
 29 33  1  0
 30 29  1  0
 31 32  1  0
 31 30  1  0
 32 28  1  0
 33 34  2  0
 34 35  1  0
 36 35  2  0
 37 36  1  0
 38 12  1  0
 38 43  1  0
 38 39  1  0
 39 42  1  1
 39 40  1  0
 41 39  1  0
 43 46  1  0
 44 48  1  0
 44 43  1  0
 45 44  2  0
 48 47  1  0
 50 48  1  0
 50 51  1  0
 50 49  1  0
 53 56  1  0
 54 53  2  0
 54 58  1  0
 55 57  1  0
 56 57  2  0
 56 59  1  0
 57 52  1  0
 58 68  1  0
 58 55  2  0
 60 68  1  0
 61 66  1  0
 62 63  1  0
 62 61  1  0
 64 63  1  0
 64 73  1  0
 64 65  1  0
 66 60  1  0
 66 65  1  0
 67 60  2  0
 68 69  1  0
 70 71  2  0
 71 90  1  0
 72 71  1  0
 72 75  1  0
 73 74  1  0
 73 70  1  0
 74 72  2  0
 75 76  1  0
 76 77  2  0
 78 81  1  0
 78 77  1  0
 79 78  2  0
 80 79  1  0
 80 75  2  0
 81 82  1  0
 82 83  1  0
 83 84  2  0
 85 84  1  0
 85 89  1  0
 86 85  2  0
 87 82  2  0
 87 86  1  0
 88 87  1  0
 90 91  1  0
 91 94  1  0
 91 93  1  0
 92 90  2  0
 95 96  1  0
 95 70  1  0
 97 95  1  0
M  ISO  4   6 101  11 101  60 100  68 100
M  END
>  <TORSDO>  (34) 
F 19

>  <SCORE>  (34) 
-12.811

>  <name>  (34) 
33

>  <ligand_id>  (34) 
33

>  <original_smiles>  (34) 
[H]C([H])=C([H])C([H])=C1C([H])(Oc2c([H])c([H])c3c(c2[H])C([H])([H])N(C(=O)C([H])(N([H])C(=O)C([H])(N([H])C([H])([H])[H])C([H])([H])[H])C(C([H])([H])[H])(C([H])([H])[H])C([H])([H])[H])C([H])(C(=O)N([H])C2([H])c4c([H])c([H])c([H])c([H])c4C([H])([H])C([H])([H])C2([H])[H])C3([H])[H])C([H])([H])C([H])([H])C([H])([H])[N+]1([H])C([H])([H])c1c([H])c(N([H])C(=O)N2C([H])([H])C([H])([H])C([H])([H])C([H])(n3nc(-c4c([H])c([H])c(Oc5c([H])c([H])c(F)c([H])c5F)c([H])c4[H])c(C(=O)N([H])[H])c3N([H])[H])C2([H])[H])c([H])c([H])c1C([H])([H])[H]

>  <smiles>  (34) 
[H]C([H])=C([H])C([H])=C1C([H])(Oc2c([H])c([H])c3c(c2[H])C([H])([H])N(C(=O)C([H])(N([H])C(=O)C([H])(N([H])C([H])([H])[H])C([H])([H])[H])C(C([H])([H])[H])(C([H])([H])[H])C([H])([H])[H])C([H])(C(=O)N([H])C2([H])c4c([H])c([H])c([H])c([H])c4C([H])([H])C([H])([H])C2([H])[H])C3([H])[H])C([H])([H])C([H])([H])C([H])([H])[N+]1([H])C([H])([H])c1c([H])c(N([H])C(=O)N2C([H])([H])C([H])([H])C([H])([H])C([H])(n3nc(-c4c([H])c([H])c(Oc5c([H])c([H])c(F)c([H])c5F)c([H])c4[H])c(C(=O)N([H])[H])c3N([H])[H])C2([H])[H])c([H])c([H])c1C([H])([H])[H]

$$$$
34:0:0
     RDKit          3D

 96104  0  0  1  0  0  0  0  0999 V2000
  -28.0170  -20.9500   20.6520 C   0  0  0  0  0  2  0  0  0  0  0  0
  -30.2760  -20.4240   21.7920 C   0  0  0  0  0  3  0  0  0  0  0  0
  -31.2210  -19.4910   22.2620 C   0  0  0  0  0  3  0  0  0  0  0  0
  -28.8400  -18.6000   21.0860 C   0  0  0  0  0  3  0  0  0  0  0  0
  -29.0750  -19.9850   21.1940 C   0  0  0  0  0  0  0  0  0  0  0  0
  -31.0110  -18.1070   22.0910 C   0  0  0  0  0  0  0  0  0  0  0  0
  -29.8260  -17.6570   21.4570 C   0  0  0  0  0  0  0  0  0  0  0  0
  -32.0780  -17.1480   22.6000 C   0  0  0  0  0  1  0  0  0  0  0  0
  -29.5950  -16.1850   21.1050 C   0  0  0  0  0  2  0  0  0  0  0  0
  -31.1290  -14.5610   20.0330 C   0  0  0  0  0  0  0  0  0  0  0  0
  -30.8010  -12.3200   19.0730 C   0  0  0  0  0  2  0  0  0  0  0  0
  -29.8780  -12.4690   17.8430 C   0  0  0  0  0  2  0  0  0  0  0  0
  -28.3900  -12.4110   18.2630 C   0  0  0  0  0  2  0  0  0  0  0  0
  -28.0650  -13.3230   19.4800 C   0  0  0  0  0  3  0  0  0  0  0  0
  -29.1140  -13.1210   20.5960 C   0  0  0  0  0  2  0  0  0  0  0  0
  -30.4370  -13.3860   20.0130 N   0  0  0  0  0  0  0  0  0  0  0  0
  -32.3160  -14.6160   19.6940 O   0  0  0  0  0  0  0  0  0  0  0  0
  -30.3570  -15.6820   19.9380 N   0  0  0  0  0  0  0  0  0  0  0  0
  -25.7040  -14.0420   20.2170 C   0  0  0  0  0  0  0  0  0  0  0  0
  -24.6130  -13.3220   20.6220 C   0  0  0  0  0  0  0  0  0  0  0  0
  -25.0190  -11.9520   20.6060 C   0  0  0  0  0  0  0  0  0  0  0  0
  -26.7080  -13.1150   19.9790 N   0  0  0  0  0  0  0  0  0  0  0  0
  -26.3000  -11.8530   20.2730 N   0  0  0  0  0  0  0  0  0  0  0  0
  -24.2460  -10.7240   20.8280 C   0  0  0  0  0  0  0  0  0  0  0  0
  -24.6310   -9.7750   21.8000 C   0  0  0  0  0  3  0  0  0  0  0  0
  -23.8630   -8.6070   22.0020 C   0  0  0  0  0  3  0  0  0  0  0  0
  -22.6970   -8.3830   21.2350 C   0  0  0  0  0  0  0  0  0  0  0  0
  -22.3290   -9.3190   20.2540 C   0  0  0  0  0  3  0  0  0  0  0  0
  -23.0970  -10.4780   20.0470 C   0  0  0  0  0  3  0  0  0  0  0  0
  -21.9020   -7.2690   21.3480 O   0  0  0  0  0  0  0  0  0  0  0  0
  -21.7760   -6.5910   22.5310 C   0  0  0  0  0  0  0  0  0  0  0  0
  -21.3310   -7.2250   23.7130 C   0  0  0  0  0  3  0  0  0  0  0  0
  -21.1500   -6.4750   24.8900 C   0  0  0  0  0  3  0  0  0  0  0  0
  -21.4060   -5.0890   24.8910 C   0  0  0  0  0  0  0  0  0  0  0  0
  -21.8440   -4.4560   23.7150 C   0  0  0  0  0  3  0  0  0  0  0  0
  -22.0260   -5.2030   22.5400 C   0  0  0  0  0  0  0  0  0  0  0  0
  -22.4280   -4.5840   21.4050 F   0  0  0  0  0  0  0  0  0  0  0  0
  -21.2250   -4.3660   26.0180 F   0  0  0  0  0  0  0  0  0  0  0  0
  -23.2410  -13.8590   20.9080 C   0  0  0  0  0  0  0  0  0  0  0  0
  -22.5010  -13.2140   21.8020 N   0  0  0  0  0  0  0  0  0  0  0  0
  -22.8360  -14.8900   20.3730 O   0  0  0  0  0  0  0  0  0  0  0  0
  -22.8330  -12.3730   22.2540 H   0  0  0  0  0  0  0  0  0  0  0  0
  -21.5820  -13.5630   22.0320 H   0  0  0  0  0  0  0  0  0  0  0  0
  -25.9180  -15.4010   20.0100 N   0  0  0  0  0  0  0  0  0  0  0  0
  -25.1700  -16.0780   20.1160 H   0  0  0  0  0  0  0  0  0  0  0  0
  -26.7430  -15.7930   19.5770 H   0  0  0  0  0  0  0  0  0  0  0  0
  -31.0160  -16.2560   17.6060 C   0  0  0  0  0  2  0  0  0  0  0  0
  -30.4260  -16.5160   18.7930 C   0  0  0  0  0  3  0  0  0  0  0  0
  -28.4450  -23.4050   20.7290 C   0  0  0  0  0  0  0  0  0  0  0  0
  -28.5040  -22.2180   20.1030 N   0  0  0  0  0  0  0  0  0  0  0  0
  -28.2490  -23.5130   21.9450 O   0  0  0  0  0  0  0  0  0  0  0  0
  -28.6900  -22.2400   19.1090 H   0  0  0  0  0  0  0  0  0  0  0  0
  -28.5300  -24.6200   19.8070 C   0  0  0  0  0  0  0  0  0  0  0  0
  -28.8640  -24.3950   18.3200 C   0  0  0  0  0  1  0  0  0  0  0  0
  -28.2560  -25.7780   20.2790 N   0  0  0  0  0  0  0  0  0  0  0  0
  -28.1960  -26.8000   19.3140 O   0  0  0  0  0  0  0  0  0  0  0  0
  -24.5790  -31.7070   23.0060 C   0  0  0  0  0  0  0  0  0  0  0  0
  -27.0350  -27.5170   19.4760 C   0  0  0  0  0  0  0  0  0  0  0  0
  -23.2680  -30.3920   21.3690 C   0  0  0  0  0  3  0  0  0  0  0  0
  -24.6310  -28.9590   19.7550 C   0  0  0  0  0  0  0  0  0  0  0  0
  -25.7650  -30.8010   21.0090 C   0  0  0  0  0  2  0  0  0  0  0  0
  -25.8200  -29.4680   20.2940 C   0  0  0  0  0  0  0  0  0  0  0  0
  -27.0260  -28.7490   20.1640 C   0  0  0  0  0  3  0  0  0  0  0  0
  -25.8350  -27.0190   18.9260 C   0  0  0  0  0  3  0  0  0  0  0  0
  -24.6300  -27.7330   19.0690 C   0  0  0  0  0  3  0  0  0  0  0  0
  -23.3880  -29.7990   19.9370 C   0  0  0  0  0  2  0  0  0  0  0  0
  -24.5590  -30.9800   21.8530 N   0  0  0  0  0  0  0  0  0  0  0  0
  -23.5400  -31.9320   23.6420 O   0  0  0  0  0  0  0  0  0  0  0  0
  -22.7020  -29.3050   22.3120 C   0  0  0  0  0  0  0  0  0  0  0  0
  -21.3810  -29.0730   22.2370 N   0  0  0  0  0  0  0  0  0  0  0  0
  -23.4430  -28.6750   23.0700 O   0  0  0  0  0  0  0  0  0  0  0  0
  -20.8350  -29.6410   21.6020 H   0  0  0  0  0  0  0  0  0  0  0  0
  -18.1010  -27.6410   22.7330 C   0  0  0  0  0  0  0  0  0  0  0  0
  -20.6380  -28.0690   22.9980 C   0  0  0  0  0  3  0  0  0  0  0  0
  -20.8350  -26.6560   22.4020 C   0  0  0  0  0  2  0  0  0  0  0  0
  -19.7500  -26.2740   21.3890 C   0  0  0  0  0  2  0  0  0  0  0  0
  -18.3660  -26.3170   22.0380 C   0  0  0  0  0  2  0  0  0  0  0  0
  -19.1670  -28.4700   23.1710 C   0  0  0  0  0  0  0  0  0  0  0  0
  -18.8650  -29.7100   23.7720 C   0  0  0  0  0  3  0  0  0  0  0  0
  -17.5310  -30.1210   23.9460 C   0  0  0  0  0  3  0  0  0  0  0  0
  -16.4800  -29.2850   23.5310 C   0  0  0  0  0  3  0  0  0  0  0  0
  -16.7660  -28.0500   22.9250 C   0  0  0  0  0  3  0  0  0  0  0  0
  -25.9030  -32.3210   23.5610 C   0  0  0  0  0  3  0  0  0  0  0  0
  -25.6080  -33.6890   24.0010 N   0  0  0  0  0  0  0  0  0  0  0  0
  -25.8890  -34.7940   23.2990 C   0  0  0  0  0  0  0  0  0  0  0  0
  -26.5050  -34.7680   22.2290 O   0  0  0  0  0  0  0  0  0  0  0  0
  -25.0730  -33.7820   24.8520 H   0  0  0  0  0  0  0  0  0  0  0  0
  -24.1310  -36.5810   23.1550 C   0  0  0  0  0  1  0  0  0  0  0  0
  -25.4130  -36.1390   23.8770 C   0  0  0  0  0  3  0  0  0  0  0  0
  -27.5800  -36.9830   24.6650 C   0  0  0  0  0  1  0  0  0  0  0  0
  -26.4290  -37.2110   23.7950 N   0  0  0  0  0  0  0  0  0  0  0  0
  -26.0190  -38.1100   24.0350 H   0  0  0  0  0  0  0  0  0  0  0  0
  -26.5320  -31.4810   24.7410 C   0  0  1  0  0  0  0  0  0  0  0  0
  -25.5340  -31.1590   25.8740 C   0  0  0  0  0  1  0  0  0  0  0  0
  -27.1040  -30.1460   24.2090 C   0  0  0  0  0  1  0  0  0  0  0  0
  -27.7150  -32.2570   25.3680 C   0  0  0  0  0  1  0  0  0  0  0  0
  1  5  1  0
  2  3  1  0
  4  5  1  0
  4  7  2  0
  5  2  2  0
  6  3  2  0
  6  8  1  0
  7  6  1  0
  9  7  1  0
 11 16  1  0
 12 13  1  0
 12 11  1  0
 14 13  1  0
 14 22  1  0
 14 15  1  0
 16 10  1  0
 16 15  1  0
 17 10  2  0
 18 10  1  0
 18  9  1  0
 19 20  2  0
 20 39  1  0
 21 20  1  0
 21 24  1  0
 22 19  1  0
 22 23  1  0
 23 21  2  0
 24 25  1  0
 25 26  2  0
 27 30  1  0
 27 26  1  0
 28 27  2  0
 29 28  1  0
 29 24  2  0
 30 31  1  0
 31 36  2  0
 31 32  1  0
 32 33  2  0
 33 34  1  0
 34 38  1  0
 35 34  2  0
 36 35  1  0
 37 36  1  0
 39 40  1  0
 40 43  1  0
 40 42  1  0
 41 39  2  0
 44 45  1  0
 44 19  1  0
 46 44  1  0
 47 48  2  0
 48 18  1  0
 49 51  2  0
 50  1  1  0
 50 49  1  0
 52 50  1  0
 53 55  2  0
 53 49  1  0
 54 53  1  0
 56 58  1  0
 56 55  1  0
 57 68  2  0
 58 63  1  0
 59 67  1  0
 59 69  1  0
 60 66  1  0
 60 62  1  0
 61 67  1  0
 62 61  1  0
 63 62  2  0
 64 65  1  0
 64 58  2  0
 65 60  2  0
 66 59  1  0
 67 57  1  0
 69 71  2  0
 70 69  1  0
 72 70  1  0
 73 82  2  0
 73 78  1  0
 74 70  1  0
 74 78  1  0
 75 74  1  0
 76 77  1  0
 76 75  1  0
 77 73  1  0
 78 79  2  0
 79 80  1  0
 81 80  2  0
 82 81  1  0
 83 57  1  0
 83 84  1  0
 83 93  1  0
 84 87  1  0
 85 89  1  0
 85 84  1  0
 86 85  2  0
 89 88  1  0
 91 89  1  0
 91 92  1  0
 91 90  1  0
 93 96  1  1
 93 94  1  0
 95 93  1  0
M  ISO  4  10 100  18 100  55 101  56 101
M  END
>  <TORSDO>  (35) 
F 21

>  <SCORE>  (35) 
-9.998

>  <name>  (35) 
34

>  <ligand_id>  (35) 
34

>  <original_smiles>  (35) 
[H]C([H])=C([H])N(C(=O)N1C([H])([H])C([H])([H])C([H])([H])C([H])(n2nc(-c3c([H])c([H])c(Oc4c([H])c([H])c(F)c([H])c4F)c([H])c3[H])c(C(=O)N([H])[H])c2N([H])[H])C1([H])[H])C([H])([H])c1c([H])c(C([H])([H])N([H])C(=O)C(=NOc2c([H])c([H])c3c(c2[H])C([H])([H])N(C(=O)C([H])(N([H])C(=O)C([H])(N([H])C([H])([H])[H])C([H])([H])[H])C(C([H])([H])[H])(C([H])([H])[H])C([H])([H])[H])C([H])(C(=O)N([H])C2([H])c4c([H])c([H])c([H])c([H])c4C([H])([H])C([H])([H])C2([H])[H])C3([H])[H])C([H])([H])[H])c([H])c([H])c1C([H])([H])[H]

>  <smiles>  (35) 
[H]C([H])=C([H])N(C(=O)N1C([H])([H])C([H])([H])C([H])([H])C([H])(n2nc(-c3c([H])c([H])c(Oc4c([H])c([H])c(F)c([H])c4F)c([H])c3[H])c(C(=O)N([H])[H])c2N([H])[H])C1([H])[H])C([H])([H])c1c([H])c(C([H])([H])N([H])C(=O)C(=NOc2c([H])c([H])c3c(c2[H])C([H])([H])N(C(=O)C([H])(N([H])C(=O)C([H])(N([H])C([H])([H])[H])C([H])([H])[H])C(C([H])([H])[H])(C([H])([H])[H])C([H])([H])[H])C([H])(C(=O)N([H])C2([H])c4c([H])c([H])c([H])c([H])c4C([H])([H])C([H])([H])C2([H])[H])C3([H])[H])C([H])([H])[H])c([H])c([H])c1C([H])([H])[H]

$$$$
35:0:0
     RDKit          3D

 96105  0  0  1  0  0  0  0  0999 V2000
  -28.3350  -24.7130   18.4470 C   0  0  0  0  0  2  0  0  0  0  0  0
  -29.4310  -23.7660   17.9280 C   0  0  0  0  0  2  0  0  0  0  0  0
  -28.9920  -24.1240   20.9930 C   0  0  0  0  0  2  0  0  0  0  0  0
  -30.2510  -23.2890   20.6220 C   0  0  0  0  0  2  0  0  0  0  0  0
  -28.2790  -25.0660   19.9580 C   0  0  0  0  0  3  0  0  0  0  0  0
  -29.2960  -22.3200   18.4560 C   0  0  0  0  0  3  0  0  0  0  0  0
  -29.7530  -21.3140   17.3780 C   0  0  0  0  0  1  0  0  0  0  0  0
  -30.0090  -22.1400   19.7280 N   0  0  0  0  0  0  0  0  0  0  0  0
  -31.9380  -18.9920   20.4800 C   0  0  0  0  0  3  0  0  0  0  0  0
  -29.5910  -18.5350   20.8310 C   0  0  0  0  0  3  0  0  0  0  0  0
  -30.9230  -18.0650   20.8120 C   0  0  0  0  0  0  0  0  0  0  0  0
  -31.6440  -20.3420   20.1600 C   0  0  0  0  0  0  0  0  0  0  0  0
  -30.3030  -20.8130   20.1620 C   0  0  0  0  0  0  0  0  0  0  0  0
  -29.2810  -19.8840   20.5180 C   0  0  0  0  0  0  0  0  0  0  0  0
  -32.7910  -21.2690   19.7880 C   0  0  0  0  0  1  0  0  0  0  0  0
  -27.6220  -20.3750   20.6000 Cl  0  0  0  0  0  0  0  0  0  0  0  0
  -31.3060  -16.6410   21.2730 C   0  0  0  0  0  2  0  0  0  0  0  0
  -31.0480  -14.4560   20.0560 C   0  0  0  0  0  0  0  0  0  0  0  0
  -30.6000  -12.2870   18.9460 C   0  0  0  0  0  2  0  0  0  0  0  0
  -29.6140  -12.4660   17.7740 C   0  0  0  0  0  2  0  0  0  0  0  0
  -28.1610  -12.3720   18.2740 C   0  0  0  0  0  2  0  0  0  0  0  0
  -27.8960  -13.2610   19.5170 C   0  0  0  0  0  3  0  0  0  0  0  0
  -28.9940  -13.0690   20.5890 C   0  0  0  0  0  2  0  0  0  0  0  0
  -30.2970  -13.3200   19.9530 N   0  0  0  0  0  0  0  0  0  0  0  0
  -32.1360  -14.5750   19.4870 O   0  0  0  0  0  0  0  0  0  0  0  0
  -30.5350  -15.4780   20.7770 N   0  0  0  0  0  0  0  0  0  0  0  0
  -29.6200  -15.3310   21.1760 H   0  0  0  0  0  0  0  0  0  0  0  0
  -25.5650  -13.9580   20.3500 C   0  0  0  0  0  0  0  0  0  0  0  0
  -24.4840  -13.2270   20.7630 C   0  0  0  0  0  0  0  0  0  0  0  0
  -24.8840  -11.8580   20.6970 C   0  0  0  0  0  0  0  0  0  0  0  0
  -26.5580  -13.0350   20.0610 N   0  0  0  0  0  0  0  0  0  0  0  0
  -26.1550  -11.7660   20.3260 N   0  0  0  0  0  0  0  0  0  0  0  0
  -24.1130  -10.6250   20.9080 C   0  0  0  0  0  0  0  0  0  0  0  0
  -24.5280   -9.6430   21.8340 C   0  0  0  0  0  3  0  0  0  0  0  0
  -23.7610   -8.4760   22.0320 C   0  0  0  0  0  3  0  0  0  0  0  0
  -22.5610   -8.2830   21.3050 C   0  0  0  0  0  0  0  0  0  0  0  0
  -22.1640   -9.2530   20.3680 C   0  0  0  0  0  3  0  0  0  0  0  0
  -22.9330  -10.4110   20.1670 C   0  0  0  0  0  3  0  0  0  0  0  0
  -21.7640   -7.1690   21.4140 O   0  0  0  0  0  0  0  0  0  0  0  0
  -21.6880   -6.4490   22.5800 C   0  0  0  0  0  0  0  0  0  0  0  0
  -21.2730   -7.0400   23.7950 C   0  0  0  0  0  3  0  0  0  0  0  0
  -21.1430   -6.2480   24.9530 C   0  0  0  0  0  3  0  0  0  0  0  0
  -21.4150   -4.8680   24.8990 C   0  0  0  0  0  0  0  0  0  0  0  0
  -21.8230   -4.2790   23.6900 C   0  0  0  0  0  3  0  0  0  0  0  0
  -21.9560   -5.0660   22.5340 C   0  0  0  0  0  0  0  0  0  0  0  0
  -22.3280   -4.4890   21.3650 F   0  0  0  0  0  0  0  0  0  0  0  0
  -21.2830   -4.1060   26.0090 F   0  0  0  0  0  0  0  0  0  0  0  0
  -23.1230  -13.7610   21.1080 C   0  0  0  0  0  0  0  0  0  0  0  0
  -22.4100  -13.0890   22.0040 N   0  0  0  0  0  0  0  0  0  0  0  0
  -22.7040  -14.8080   20.6160 O   0  0  0  0  0  0  0  0  0  0  0  0
  -22.7620  -12.2400   22.4210 H   0  0  0  0  0  0  0  0  0  0  0  0
  -21.4990  -13.4290   22.2770 H   0  0  0  0  0  0  0  0  0  0  0  0
  -25.7810  -15.3220   20.1780 N   0  0  0  0  0  0  0  0  0  0  0  0
  -25.0490  -16.0080   20.3210 H   0  0  0  0  0  0  0  0  0  0  0  0
  -26.6340  -15.7250   19.8090 H   0  0  0  0  0  0  0  0  0  0  0  0
  -28.4180  -26.5110   20.1680 O   0  0  0  0  0  0  0  0  0  0  0  0
  -24.5290  -31.7400   23.1580 C   0  0  0  0  0  0  0  0  0  0  0  0
  -27.2670  -27.3040   20.0900 C   0  0  0  0  0  0  0  0  0  0  0  0
  -23.3700  -30.3360   21.4880 C   0  0  0  0  0  3  0  0  0  0  0  0
  -24.8650  -28.8390   20.0660 C   0  0  0  0  0  0  0  0  0  0  0  0
  -25.9030  -30.7120   21.3420 C   0  0  0  0  0  2  0  0  0  0  0  0
  -26.0130  -29.3480   20.6850 C   0  0  0  0  0  0  0  0  0  0  0  0
  -27.2160  -28.5890   20.6950 C   0  0  0  0  0  3  0  0  0  0  0  0
  -26.0970  -26.8500   19.4290 C   0  0  0  0  0  3  0  0  0  0  0  0
  -24.9060  -27.5920   19.4310 C   0  0  0  0  0  3  0  0  0  0  0  0
  -23.6120  -29.6820   20.1050 C   0  0  0  0  0  2  0  0  0  0  0  0
  -24.6180  -30.9440   22.0530 N   0  0  0  0  0  0  0  0  0  0  0  0
  -23.4330  -31.9940   23.6780 O   0  0  0  0  0  0  0  0  0  0  0  0
  -22.7160  -29.2950   22.4260 C   0  0  0  0  0  0  0  0  0  0  0  0
  -21.3960  -29.0980   22.2770 N   0  0  0  0  0  0  0  0  0  0  0  0
  -23.3940  -28.6690   23.2460 O   0  0  0  0  0  0  0  0  0  0  0  0
  -20.9090  -29.6550   21.5890 H   0  0  0  0  0  0  0  0  0  0  0  0
  -18.0300  -27.8540   22.7120 C   0  0  0  0  0  0  0  0  0  0  0  0
  -20.5790  -28.1440   23.0270 C   0  0  0  0  0  3  0  0  0  0  0  0
  -20.7110  -26.7180   22.4420 C   0  0  0  0  0  2  0  0  0  0  0  0
  -19.6300  -26.3880   21.4080 C   0  0  0  0  0  2  0  0  0  0  0  0
  -18.2350  -26.5120   22.0290 C   0  0  0  0  0  2  0  0  0  0  0  0
  -19.1310  -28.6270   23.1650 C   0  0  0  0  0  0  0  0  0  0  0  0
  -18.8850  -29.8830   23.7600 C   0  0  0  0  0  3  0  0  0  0  0  0
  -17.5710  -30.3660   23.9080 C   0  0  0  0  0  3  0  0  0  0  0  0
  -16.4840  -29.5890   23.4720 C   0  0  0  0  0  3  0  0  0  0  0  0
  -16.7140  -28.3350   22.8790 C   0  0  0  0  0  3  0  0  0  0  0  0
  -25.7940  -32.3840   23.8030 C   0  0  0  0  0  3  0  0  0  0  0  0
  -25.4600  -33.7750   24.1360 N   0  0  0  0  0  0  0  0  0  0  0  0
  -25.7840  -34.8370   23.3860 C   0  0  0  0  0  0  0  0  0  0  0  0
  -26.4650  -34.7490   22.3610 O   0  0  0  0  0  0  0  0  0  0  0  0
  -24.8580  -33.9170   24.9340 H   0  0  0  0  0  0  0  0  0  0  0  0
  -24.0290  -36.6010   23.0220 C   0  0  0  0  0  1  0  0  0  0  0  0
  -25.2680  -36.2140   23.8450 C   0  0  0  0  0  3  0  0  0  0  0  0
  -27.3800  -37.1300   24.7020 C   0  0  0  0  0  1  0  0  0  0  0  0
  -26.2840  -37.2860   23.7490 N   0  0  0  0  0  0  0  0  0  0  0  0
  -25.8600  -38.1970   23.9020 H   0  0  0  0  0  0  0  0  0  0  0  0
  -26.3030  -31.6110   25.0800 C   0  0  1  0  0  0  0  0  0  0  0  0
  -25.1960  -31.3480   26.1290 C   0  0  0  0  0  1  0  0  0  0  0  0
  -26.9120  -30.2450   24.6860 C   0  0  0  0  0  1  0  0  0  0  0  0
  -27.4330  -32.4160   25.7640 C   0  0  0  0  0  1  0  0  0  0  0  0
  1  5  1  0
  2  1  1  0
  2  6  1  0
  4  3  1  0
  5 56  1  0
  5  3  1  0
  6  7  1  0
  6  8  1  0
  8 13  1  0
  8  4  1  0
  9 11  1  0
 11 10  2  0
 11 17  1  0
 12 13  1  0
 12  9  2  0
 13 14  2  0
 14 16  1  0
 14 10  1  0
 15 12  1  0
 18 26  1  0
 19 24  1  0
 20 21  1  0
 20 19  1  0
 22 21  1  0
 22 31  1  0
 22 23  1  0
 24 18  1  0
 24 23  1  0
 25 18  2  0
 26 27  1  0
 26 17  1  0
 28 29  2  0
 29 48  1  0
 30 29  1  0
 30 33  1  0
 31 32  1  0
 31 28  1  0
 32 30  2  0
 33 34  1  0
 34 35  2  0
 36 39  1  0
 36 35  1  0
 37 36  2  0
 38 37  1  0
 38 33  2  0
 39 40  1  0
 40 41  1  0
 41 42  2  0
 43 42  1  0
 43 47  1  0
 44 43  2  0
 45 40  2  0
 45 44  1  0
 46 45  1  0
 48 49  1  0
 49 52  1  0
 49 51  1  0
 50 48  2  0
 53 54  1  0
 53 28  1  0
 55 53  1  0
 57 68  2  0
 58 56  1  0
 58 63  1  0
 59 67  1  0
 59 69  1  0
 60 66  1  0
 60 62  1  0
 61 67  1  0
 62 63  2  0
 62 61  1  0
 64 65  1  0
 64 58  2  0
 65 60  2  0
 66 59  1  0
 67 57  1  0
 69 71  2  0
 70 69  1  0
 72 70  1  0
 73 82  2  0
 73 78  1  0
 74 70  1  0
 74 78  1  0
 75 74  1  0
 76 77  1  0
 76 75  1  0
 77 73  1  0
 78 79  2  0
 79 80  1  0
 81 80  2  0
 82 81  1  0
 83 57  1  0
 83 84  1  0
 83 93  1  0
 84 87  1  0
 85 89  1  0
 85 84  1  0
 86 85  2  0
 89 88  1  0
 91 89  1  0
 91 92  1  0
 91 90  1  0
 93 96  1  1
 93 94  1  0
 95 93  1  0
M  ISO  4   5 101  18 100  26 100  56 101
M  END
>  <TORSDO>  (36) 
F 18

>  <SCORE>  (36) 
-14.521

>  <name>  (36) 
35

>  <ligand_id>  (36) 
35

>  <original_smiles>  (36) 
[H]c1c([H])c([H])c2c(c1[H])C([H])([H])C([H])([H])C([H])([H])C2([H])N([H])C(=O)C1([H])N(C(=O)C([H])(N([H])C(=O)C([H])(N([H])C([H])([H])[H])C([H])([H])[H])C(C([H])([H])[H])(C([H])([H])[H])C([H])([H])[H])C([H])([H])c2c([H])c(OC3([H])C([H])([H])C([H])([H])N(c4c(Cl)c([H])c(C([H])([H])N([H])C(=O)N5C([H])([H])C([H])([H])C([H])([H])C([H])(n6nc(-c7c([H])c([H])c(Oc8c([H])c([H])c(F)c([H])c8F)c([H])c7[H])c(C(=O)N([H])[H])c6N([H])[H])C5([H])[H])c([H])c4C([H])([H])[H])C([H])(C([H])([H])[H])C([H])([H])C3([H])[H])c([H])c([H])c2C1([H])[H]

>  <smiles>  (36) 
[H]c1c([H])c([H])c2c(c1[H])C([H])([H])C([H])([H])C([H])([H])C2([H])N([H])C(=O)C1([H])N(C(=O)C([H])(N([H])C(=O)C([H])(N([H])C([H])([H])[H])C([H])([H])[H])C(C([H])([H])[H])(C([H])([H])[H])C([H])([H])[H])C([H])([H])c2c([H])c(OC3([H])C([H])([H])C([H])([H])N(c4c(Cl)c([H])c(C([H])([H])N([H])C(=O)N5C([H])([H])C([H])([H])C([H])([H])C([H])(n6nc(-c7c([H])c([H])c(Oc8c([H])c([H])c(F)c([H])c8F)c([H])c7[H])c(C(=O)N([H])[H])c6N([H])[H])C5([H])[H])c([H])c4C([H])([H])[H])C([H])(C([H])([H])[H])C([H])([H])C3([H])[H])c([H])c([H])c2C1([H])[H]

$$$$
36:0:0
     RDKit          3D

 95104  0  0  1  0  0  0  0  0999 V2000
  -28.2480  -22.2840   19.0730 C   0  0  0  0  0  0  0  0  0  0  0  0
  -27.2130  -21.5470   18.6230 C   0  0  0  0  0  2  0  0  0  0  0  0
  -28.3290  -23.8560   18.8160 C   0  0  0  0  0  2  0  0  0  0  0  0
  -29.5530  -24.1720   20.8320 C   0  0  0  0  0  2  0  0  0  0  0  0
  -29.5520  -22.5760   21.0840 C   0  0  0  0  0  2  0  0  0  0  0  0
  -28.3450  -24.8300   20.0660 C   0  0  0  0  0  3  0  0  0  0  0  0
  -29.3930  -21.6270   19.9050 N   0  0  1  0  0  4  0  0  0  0  0  0
  -30.2430  -21.7390   19.3730 H   0  0  0  0  0  0  0  0  0  0  0  0
  -28.4170  -26.3700   19.8730 O   0  0  0  0  0  0  0  0  0  0  0  0
  -24.5260  -31.7450   23.0280 C   0  0  0  0  0  0  0  0  0  0  0  0
  -27.2740  -27.2390   19.8720 C   0  0  0  0  0  0  0  0  0  0  0  0
  -23.3510  -30.2890   21.4220 C   0  0  0  0  0  3  0  0  0  0  0  0
  -24.8370  -28.8130   19.9340 C   0  0  0  0  0  0  0  0  0  0  0  0
  -25.8710  -30.7210   21.1580 C   0  0  0  0  0  2  0  0  0  0  0  0
  -26.0060  -29.3400   20.4960 C   0  0  0  0  0  0  0  0  0  0  0  0
  -27.2230  -28.5700   20.4430 C   0  0  0  0  0  3  0  0  0  0  0  0
  -26.0720  -26.7990   19.2770 C   0  0  0  0  0  3  0  0  0  0  0  0
  -24.8800  -27.5560   19.3090 C   0  0  0  0  0  3  0  0  0  0  0  0
  -23.5590  -29.6300   20.0320 C   0  0  0  0  0  2  0  0  0  0  0  0
  -24.6040  -30.9400   21.9240 N   0  0  0  0  0  0  0  0  0  0  0  0
  -23.4470  -31.9600   23.5990 O   0  0  0  0  0  0  0  0  0  0  0  0
  -22.7740  -29.2370   22.4010 C   0  0  0  0  0  0  0  0  0  0  0  0
  -21.4580  -28.9740   22.3090 N   0  0  0  0  0  0  0  0  0  0  0  0
  -23.5100  -28.6590   23.2050 O   0  0  0  0  0  0  0  0  0  0  0  0
  -20.9160  -29.4940   21.6310 H   0  0  0  0  0  0  0  0  0  0  0  0
  -18.1940  -27.5020   22.8500 C   0  0  0  0  0  0  0  0  0  0  0  0
  -20.7230  -27.9840   23.1010 C   0  0  0  0  0  3  0  0  0  0  0  0
  -20.9440  -26.5570   22.5490 C   0  0  0  0  0  2  0  0  0  0  0  0
  -19.8690  -26.1260   21.5460 C   0  0  0  0  0  2  0  0  0  0  0  0
  -18.4820  -26.1630   22.1930 C   0  0  0  0  0  2  0  0  0  0  0  0
  -19.2450  -28.3640   23.2610 C   0  0  0  0  0  0  0  0  0  0  0  0
  -18.9210  -29.6110   23.8370 C   0  0  0  0  0  3  0  0  0  0  0  0
  -17.5790  -30.0000   24.0060 C   0  0  0  0  0  3  0  0  0  0  0  0
  -16.5430  -29.1380   23.6110 C   0  0  0  0  0  3  0  0  0  0  0  0
  -16.8500  -27.8910   23.0380 C   0  0  0  0  0  3  0  0  0  0  0  0
  -25.7870  -32.4520   23.6140 C   0  0  0  0  0  3  0  0  0  0  0  0
  -25.3940  -33.8120   24.0180 N   0  0  0  0  0  0  0  0  0  0  0  0
  -25.6440  -34.9220   23.3100 C   0  0  0  0  0  0  0  0  0  0  0  0
  -26.2970  -34.9120   22.2630 O   0  0  0  0  0  0  0  0  0  0  0  0
  -24.8100  -33.8880   24.8380 H   0  0  0  0  0  0  0  0  0  0  0  0
  -23.8010  -36.6200   23.0750 C   0  0  0  0  0  1  0  0  0  0  0  0
  -25.0800  -36.2530   23.8460 C   0  0  0  0  0  3  0  0  0  0  0  0
  -27.1730  -37.2250   24.6850 C   0  0  0  0  0  1  0  0  0  0  0  0
  -26.0430  -37.3730   23.7720 N   0  0  0  0  0  0  0  0  0  0  0  0
  -25.5860  -38.2570   23.9760 H   0  0  0  0  0  0  0  0  0  0  0  0
  -26.4190  -31.6780   24.8360 C   0  0  1  0  0  0  0  0  0  0  0  0
  -25.3970  -31.3250   25.9430 C   0  0  0  0  0  1  0  0  0  0  0  0
  -27.0800  -30.3610   24.3690 C   0  0  0  0  0  1  0  0  0  0  0  0
  -27.5410  -32.5310   25.4720 C   0  0  0  0  0  1  0  0  0  0  0  0
  -29.3350  -20.0270   20.1300 C   0  0  0  0  0  2  0  0  0  0  0  0
  -33.2300  -18.4560   21.3310 C   0  0  0  0  0  3  0  0  0  0  0  0
  -32.5640  -17.6710   20.3850 C   0  0  0  0  0  3  0  0  0  0  0  0
  -32.4750  -19.2720   22.1720 C   0  0  0  0  0  3  0  0  0  0  0  0
  -30.5350  -19.0420   20.6660 C   0  0  0  0  0  0  0  0  0  0  0  0
  -31.1590  -17.7560   20.1570 C   0  0  0  0  0  0  0  0  0  0  0  0
  -31.1260  -19.5080   21.8760 C   0  0  0  0  0  0  0  0  0  0  0  0
  -30.1860  -20.2710   23.1090 Cl  0  0  0  0  0  0  0  0  0  0  0  0
  -31.1850  -15.1140   19.6390 C   0  0  0  0  0  0  0  0  0  0  0  0
  -30.8330  -12.7200   18.8960 C   0  0  0  0  0  2  0  0  0  0  0  0
  -29.8540  -12.6290   17.7070 C   0  0  0  0  0  2  0  0  0  0  0  0
  -28.4050  -12.5340   18.2180 C   0  0  0  0  0  2  0  0  0  0  0  0
  -28.0970  -13.5700   19.3340 C   0  0  0  0  0  3  0  0  0  0  0  0
  -29.2070  -13.6500   20.4030 C   0  0  0  0  0  2  0  0  0  0  0  0
  -30.4640  -13.9240   19.6950 N   0  0  0  0  0  0  0  0  0  0  0  0
  -32.3580  -15.0140   19.2660 O   0  0  0  0  0  0  0  0  0  0  0  0
  -30.5750  -16.4030   19.7310 N   0  0  0  0  0  0  0  0  0  0  0  0
  -29.5670  -16.3680   19.7140 H   0  0  0  0  0  0  0  0  0  0  0  0
  -25.8340  -14.3150   20.2620 C   0  0  0  0  0  0  0  0  0  0  0  0
  -24.7350  -13.6170   20.6820 C   0  0  0  0  0  0  0  0  0  0  0  0
  -25.0780  -12.2350   20.5760 C   0  0  0  0  0  0  0  0  0  0  0  0
  -26.7790  -13.3630   19.9210 N   0  0  0  0  0  0  0  0  0  0  0  0
  -26.3380  -12.1030   20.1760 N   0  0  0  0  0  0  0  0  0  0  0  0
  -24.2590  -11.0320   20.7760 C   0  0  0  0  0  0  0  0  0  0  0  0
  -24.6370  -10.0230   21.6890 C   0  0  0  0  0  3  0  0  0  0  0  0
  -23.8210   -8.8870   21.8800 C   0  0  0  0  0  3  0  0  0  0  0  0
  -22.6120   -8.7530   21.1570 C   0  0  0  0  0  0  0  0  0  0  0  0
  -22.2520   -9.7490   20.2320 C   0  0  0  0  0  3  0  0  0  0  0  0
  -23.0680  -10.8750   20.0410 C   0  0  0  0  0  3  0  0  0  0  0  0
  -21.7690   -7.6730   21.2590 O   0  0  0  0  0  0  0  0  0  0  0  0
  -21.6580   -6.9510   22.4200 C   0  0  0  0  0  0  0  0  0  0  0  0
  -21.2630   -7.5530   23.6360 C   0  0  0  0  0  3  0  0  0  0  0  0
  -21.0950   -6.7620   24.7910 C   0  0  0  0  0  3  0  0  0  0  0  0
  -21.3100   -5.3720   24.7310 C   0  0  0  0  0  0  0  0  0  0  0  0
  -21.6960   -4.7710   23.5200 C   0  0  0  0  0  3  0  0  0  0  0  0
  -21.8660   -5.5580   22.3680 C   0  0  0  0  0  0  0  0  0  0  0  0
  -22.2190   -4.9720   21.1990 F   0  0  0  0  0  0  0  0  0  0  0  0
  -21.1400   -4.6120   25.8370 F   0  0  0  0  0  0  0  0  0  0  0  0
  -23.4050  -14.2000   21.0620 C   0  0  0  0  0  0  0  0  0  0  0  0
  -22.6940  -13.5540   21.9770 N   0  0  0  0  0  0  0  0  0  0  0  0
  -23.0140  -15.2630   20.5810 O   0  0  0  0  0  0  0  0  0  0  0  0
  -23.0260  -12.6940   22.3870 H   0  0  0  0  0  0  0  0  0  0  0  0
  -21.8030  -13.9250   22.2740 H   0  0  0  0  0  0  0  0  0  0  0  0
  -26.0970  -15.6730   20.1160 N   0  0  0  0  0  0  0  0  0  0  0  0
  -25.3820  -16.3730   20.2850 H   0  0  0  0  0  0  0  0  0  0  0  0
  -26.9400  -16.0600   19.7130 H   0  0  0  0  0  0  0  0  0  0  0  0
  1  7  1  0
  2  1  2  0
  3  1  1  0
  3  6  1  0
  4  5  1  0
  6  9  1  0
  6  4  1  0
  7 50  1  0
  7  5  1  0
  7  8  1  6
 10 21  2  0
 11  9  1  0
 11 16  1  0
 12 20  1  0
 12 22  1  0
 13 19  1  0
 13 15  1  0
 14 20  1  0
 15 14  1  0
 16 15  2  0
 17 18  1  0
 17 11  2  0
 18 13  2  0
 19 12  1  0
 20 10  1  0
 22 24  2  0
 23 22  1  0
 25 23  1  0
 26 35  2  0
 26 31  1  0
 27 23  1  0
 27 31  1  0
 28 27  1  0
 29 30  1  0
 29 28  1  0
 30 26  1  0
 31 32  2  0
 32 33  1  0
 34 33  2  0
 35 34  1  0
 36 10  1  0
 36 37  1  0
 36 46  1  0
 37 40  1  0
 38 42  1  0
 38 37  1  0
 39 38  2  0
 42 41  1  0
 44 42  1  0
 44 45  1  0
 44 43  1  0
 46 49  1  1
 46 47  1  0
 48 46  1  0
 50 54  1  0
 51 53  1  0
 52 51  2  0
 54 56  1  0
 55 52  1  0
 55 54  2  0
 56 53  2  0
 56 57  1  0
 58 64  1  0
 58 66  1  0
 59 64  1  0
 60 61  1  0
 60 59  1  0
 62 61  1  0
 62 71  1  0
 62 63  1  0
 64 63  1  0
 65 58  2  0
 66 55  1  0
 67 66  1  0
 68 69  2  0
 69 88  1  0
 70 69  1  0
 70 73  1  0
 71 72  1  0
 71 68  1  0
 72 70  2  0
 73 74  1  0
 74 75  2  0
 76 79  1  0
 76 75  1  0
 77 76  2  0
 78 77  1  0
 78 73  2  0
 79 80  1  0
 80 81  1  0
 81 82  2  0
 83 82  1  0
 83 87  1  0
 84 83  2  0
 85 80  2  0
 85 84  1  0
 86 85  1  0
 88 89  1  0
 89 92  1  0
 89 91  1  0
 90 88  2  0
 93 68  1  0
 93 94  1  0
 95 93  1  0
M  ISO  4   6 101   9 101  58 100  66 100
M  END
>  <TORSDO>  (37) 
F 18

>  <SCORE>  (37) 
-12.713

>  <name>  (37) 
36

>  <ligand_id>  (37) 
36

>  <original_smiles>  (37) 
[H]C([H])=C1C([H])([H])C([H])(Oc2c([H])c([H])c3c(c2[H])C([H])([H])N(C(=O)C([H])(N([H])C(=O)C([H])(N([H])C([H])([H])[H])C([H])([H])[H])C(C([H])([H])[H])(C([H])([H])[H])C([H])([H])[H])C([H])(C(=O)N([H])C2([H])c4c([H])c([H])c([H])c([H])c4C([H])([H])C([H])([H])C2([H])[H])C3([H])[H])C([H])([H])C([H])([H])[N+]1([H])C([H])([H])c1c(Cl)c([H])c([H])c([H])c1N([H])C(=O)N1C([H])([H])C([H])([H])C([H])([H])C([H])(n2nc(-c3c([H])c([H])c(Oc4c([H])c([H])c(F)c([H])c4F)c([H])c3[H])c(C(=O)N([H])[H])c2N([H])[H])C1([H])[H]

>  <smiles>  (37) 
[H]C([H])=C1C([H])([H])C([H])(Oc2c([H])c([H])c3c(c2[H])C([H])([H])N(C(=O)C([H])(N([H])C(=O)C([H])(N([H])C([H])([H])[H])C([H])([H])[H])C(C([H])([H])[H])(C([H])([H])[H])C([H])([H])[H])C([H])(C(=O)N([H])C2([H])c4c([H])c([H])c([H])c([H])c4C([H])([H])C([H])([H])C2([H])[H])C3([H])[H])C([H])([H])C([H])([H])[N+]1([H])C([H])([H])c1c(Cl)c([H])c([H])c([H])c1N([H])C(=O)N1C([H])([H])C([H])([H])C([H])([H])C([H])(n2nc(-c3c([H])c([H])c(Oc4c([H])c([H])c(F)c([H])c4F)c([H])c3[H])c(C(=O)N([H])[H])c2N([H])[H])C1([H])[H]

$$$$
37:0:0
     RDKit          3D

 93101  0  0  1  0  0  0  0  0999 V2000
  -31.2520  -21.3880   21.3840 C   0  0  0  0  0  0  0  0  0  0  0  0
  -30.5090  -22.1940   20.6010 N   0  0  0  0  0  0  0  0  0  0  0  0
  -31.9040  -21.8010   22.3470 O   0  0  0  0  0  0  0  0  0  0  0  0
  -30.0230  -21.7650   19.8250 H   0  0  0  0  0  0  0  0  0  0  0  0
  -32.3740  -19.2110   20.7270 C   0  0  0  0  0  3  0  0  0  0  0  0
  -32.3810  -17.8040   20.5710 C   0  0  0  0  0  3  0  0  0  0  0  0
  -30.0340  -17.7550   21.1930 C   0  0  0  0  0  3  0  0  0  0  0  0
  -31.2020  -19.9040   21.1170 C   0  0  0  0  0  0  0  0  0  0  0  0
  -30.0200  -19.1560   21.3600 C   0  0  0  0  0  0  0  0  0  0  0  0
  -31.1970  -17.0620   20.8080 C   0  0  0  0  0  0  0  0  0  0  0  0
  -28.7310  -19.8100   21.8340 C   0  0  0  0  0  1  0  0  0  0  0  0
  -31.6740  -14.7410   19.9160 C   0  0  0  0  0  0  0  0  0  0  0  0
  -31.3070  -12.5950   18.7510 C   0  0  0  0  0  2  0  0  0  0  0  0
  -30.3080  -12.8040   17.5930 C   0  0  0  0  0  2  0  0  0  0  0  0
  -28.8560  -12.6820   18.0970 C   0  0  0  0  0  2  0  0  0  0  0  0
  -28.5760  -13.5390   19.3630 C   0  0  0  0  0  3  0  0  0  0  0  0
  -29.6740  -13.2880   20.4220 C   0  0  0  0  0  2  0  0  0  0  0  0
  -30.9890  -13.5710   19.8050 N   0  0  0  0  0  0  0  0  0  0  0  0
  -32.7420  -14.9580   19.3350 O   0  0  0  0  0  0  0  0  0  0  0  0
  -31.0510  -15.6530   20.6790 N   0  0  0  0  0  0  0  0  0  0  0  0
  -30.2400  -15.2670   21.1390 H   0  0  0  0  0  0  0  0  0  0  0  0
  -26.2260  -14.1930   20.2170 C   0  0  0  0  0  0  0  0  0  0  0  0
  -25.1540  -13.4390   20.6110 C   0  0  0  0  0  0  0  0  0  0  0  0
  -25.5760  -12.0760   20.5180 C   0  0  0  0  0  0  0  0  0  0  0  0
  -27.2360  -13.2930   19.9030 N   0  0  0  0  0  0  0  0  0  0  0  0
  -26.8500  -12.0140   20.1470 N   0  0  0  0  0  0  0  0  0  0  0  0
  -24.8290  -10.8290   20.7160 C   0  0  0  0  0  0  0  0  0  0  0  0
  -25.1400   -9.9440   21.7720 C   0  0  0  0  0  3  0  0  0  0  0  0
  -24.3980   -8.7560   21.9540 C   0  0  0  0  0  3  0  0  0  0  0  0
  -23.3320   -8.4430   21.0770 C   0  0  0  0  0  0  0  0  0  0  0  0
  -23.0410   -9.3170   20.0140 C   0  0  0  0  0  3  0  0  0  0  0  0
  -23.7810  -10.4980   19.8330 C   0  0  0  0  0  3  0  0  0  0  0  0
  -22.5780   -7.2990   21.1560 O   0  0  0  0  0  0  0  0  0  0  0  0
  -22.1530   -6.7960   22.3610 C   0  0  0  0  0  0  0  0  0  0  0  0
  -21.3310   -7.5450   23.2290 C   0  0  0  0  0  3  0  0  0  0  0  0
  -20.8620   -6.9680   24.4270 C   0  0  0  0  0  3  0  0  0  0  0  0
  -21.2020   -5.6410   24.7500 C   0  0  0  0  0  0  0  0  0  0  0  0
  -22.0120   -4.8900   23.8800 C   0  0  0  0  0  3  0  0  0  0  0  0
  -22.4840   -5.4670   22.6880 C   0  0  0  0  0  0  0  0  0  0  0  0
  -23.2490   -4.7310   21.8450 F   0  0  0  0  0  0  0  0  0  0  0  0
  -20.7440   -5.0840   25.8970 F   0  0  0  0  0  0  0  0  0  0  0  0
  -23.7810  -13.9390   20.9650 C   0  0  0  0  0  0  0  0  0  0  0  0
  -23.0930  -13.2680   21.8820 N   0  0  0  0  0  0  0  0  0  0  0  0
  -23.3270  -14.9640   20.4590 O   0  0  0  0  0  0  0  0  0  0  0  0
  -23.4660  -12.4400   22.3220 H   0  0  0  0  0  0  0  0  0  0  0  0
  -22.1760  -13.5930   22.1540 H   0  0  0  0  0  0  0  0  0  0  0  0
  -26.4240  -15.5650   20.0950 N   0  0  0  0  0  0  0  0  0  0  0  0
  -25.7130  -16.2380   20.3590 H   0  0  0  0  0  0  0  0  0  0  0  0
  -27.3030  -16.0020   19.8430 H   0  0  0  0  0  0  0  0  0  0  0  0
  -30.1720  -23.5850   20.9620 C   0  0  0  0  0  2  0  0  0  0  0  0
  -29.7530  -24.5050   19.7820 C   0  0  0  0  0  2  0  0  0  0  0  0
  -29.2750  -25.9130   20.2550 C   0  0  0  0  0  2  0  0  0  0  0  0
  -28.9500  -26.8130   19.1820 O   0  0  0  0  0  0  0  0  0  0  0  0
  -24.7050  -31.2720   22.8280 C   0  0  0  0  0  0  0  0  0  0  0  0
  -27.7310  -27.4460   19.2990 C   0  0  0  0  0  0  0  0  0  0  0  0
  -23.6190  -29.9480   21.0410 C   0  0  0  0  0  3  0  0  0  0  0  0
  -25.2020  -28.7000   19.4720 C   0  0  0  0  0  0  0  0  0  0  0  0
  -26.0990  -30.5550   20.8900 C   0  0  0  0  0  2  0  0  0  0  0  0
  -26.3100  -29.2700   20.1110 C   0  0  0  0  0  0  0  0  0  0  0  0
  -27.5800  -28.6510   20.0260 C   0  0  0  0  0  3  0  0  0  0  0  0
  -26.6080  -26.8810   18.6660 C   0  0  0  0  0  3  0  0  0  0  0  0
  -25.3450  -27.5030   18.7490 C   0  0  0  0  0  3  0  0  0  0  0  0
  -23.8850  -29.4370   19.6010 C   0  0  0  0  0  2  0  0  0  0  0  0
  -24.8240  -30.6040   21.6460 N   0  0  0  0  0  0  0  0  0  0  0  0
  -23.6090  -31.3850   23.3920 O   0  0  0  0  0  0  0  0  0  0  0  0
  -23.0660  -28.7790   21.8860 C   0  0  0  0  0  0  0  0  0  0  0  0
  -21.7600  -28.4930   21.7370 N   0  0  0  0  0  0  0  0  0  0  0  0
  -23.8080  -28.1320   22.6300 O   0  0  0  0  0  0  0  0  0  0  0  0
  -21.2180  -29.0780   21.1170 H   0  0  0  0  0  0  0  0  0  0  0  0
  -18.5050  -26.9770   22.1190 C   0  0  0  0  0  0  0  0  0  0  0  0
  -21.0370  -27.4080   22.3960 C   0  0  0  0  0  3  0  0  0  0  0  0
  -21.2450  -26.0690   21.6520 C   0  0  0  0  0  2  0  0  0  0  0  0
  -20.1550  -25.7800   20.6150 C   0  0  0  0  0  2  0  0  0  0  0  0
  -18.7780  -25.7350   21.2850 C   0  0  0  0  0  2  0  0  0  0  0  0
  -19.5680  -27.7720   22.6250 C   0  0  0  0  0  0  0  0  0  0  0  0
  -19.2630  -28.9360   23.3630 C   0  0  0  0  0  3  0  0  0  0  0  0
  -17.9270  -29.3080   23.5980 C   0  0  0  0  0  3  0  0  0  0  0  0
  -16.8780  -28.5110   23.1090 C   0  0  0  0  0  3  0  0  0  0  0  0
  -17.1680  -27.3460   22.3760 C   0  0  0  0  0  3  0  0  0  0  0  0
  -25.9320  -31.9460   23.5160 C   0  0  0  0  0  3  0  0  0  0  0  0
  -26.5010  -31.1140   24.7290 C   0  0  1  0  0  0  0  0  0  0  0  0
  -25.4200  -30.6990   25.7550 C   0  0  0  0  0  1  0  0  0  0  0  0
  -27.2040  -29.8310   24.2290 C   0  0  0  0  0  1  0  0  0  0  0  0
  -27.5680  -31.9450   25.4800 C   0  0  0  0  0  1  0  0  0  0  0  0
  -25.5140  -33.2850   23.9550 N   0  0  0  0  0  0  0  0  0  0  0  0
  -25.8130  -34.4220   23.3160 C   0  0  0  0  0  0  0  0  0  0  0  0
  -26.5370  -34.4590   22.3160 O   0  0  0  0  0  0  0  0  0  0  0  0
  -24.8750  -33.3280   24.7360 H   0  0  0  0  0  0  0  0  0  0  0  0
  -23.9920  -36.1300   23.0220 C   0  0  0  0  0  1  0  0  0  0  0  0
  -25.2100  -35.7270   23.8690 C   0  0  0  0  0  3  0  0  0  0  0  0
  -27.2260  -36.6580   24.9150 C   0  0  0  0  0  1  0  0  0  0  0  0
  -26.1750  -36.8490   23.9210 N   0  0  0  0  0  0  0  0  0  0  0  0
  -25.6990  -37.7240   24.1240 H   0  0  0  0  0  0  0  0  0  0  0  0
  1  3  2  0
  2 50  1  0
  2  1  1  0
  4  2  1  0
  5  8  1  0
  6  5  2  0
  6 10  1  0
  7  9  1  0
  8  9  2  0
  8  1  1  0
  9 11  1  0
 10  7  2  0
 12 20  1  0
 13 18  1  0
 14 15  1  0
 14 13  1  0
 16 15  1  0
 16 25  1  0
 16 17  1  0
 18 12  1  0
 18 17  1  0
 19 12  2  0
 20 10  1  0
 20 21  1  0
 22 23  2  0
 23 42  1  0
 24 23  1  0
 24 27  1  0
 25 26  1  0
 25 22  1  0
 26 24  2  0
 27 28  1  0
 28 29  2  0
 30 33  1  0
 30 29  1  0
 31 30  2  0
 32 31  1  0
 32 27  2  0
 33 34  1  0
 34 39  2  0
 34 35  1  0
 35 36  2  0
 36 37  1  0
 37 41  1  0
 38 37  2  0
 39 38  1  0
 40 39  1  0
 42 43  1  0
 43 46  1  0
 43 45  1  0
 44 42  2  0
 47 22  1  0
 47 48  1  0
 49 47  1  0
 51 52  1  0
 51 50  1  0
 53 55  1  0
 53 52  1  0
 54 65  2  0
 55 60  1  0
 56 64  1  0
 56 66  1  0
 57 63  1  0
 57 59  1  0
 58 64  1  0
 59 58  1  0
 60 59  2  0
 61 62  1  0
 61 55  2  0
 62 57  2  0
 63 56  1  0
 64 54  1  0
 66 68  2  0
 67 66  1  0
 69 67  1  0
 70 79  2  0
 70 75  1  0
 71 67  1  0
 71 75  1  0
 72 71  1  0
 73 74  1  0
 73 72  1  0
 74 70  1  0
 75 76  2  0
 76 77  1  0
 78 77  2  0
 79 78  1  0
 80 54  1  0
 80 85  1  0
 80 81  1  0
 81 84  1  1
 81 82  1  0
 83 81  1  0
 85 88  1  0
 86 90  1  0
 86 85  1  0
 87 86  2  0
 90 89  1  0
 90 92  1  0
 92 93  1  0
 92 91  1  0
M  ISO  4  12 100  20 100  52 101  53 101
M  END
>  <TORSDO>  (38) 
F 20

>  <SCORE>  (38) 
-8.775

>  <name>  (38) 
37

>  <ligand_id>  (38) 
37

>  <original_smiles>  (38) 
[H]c1c([H])c([H])c2c(c1[H])C([H])([H])C([H])([H])C([H])([H])C2([H])N([H])C(=O)C1([H])N(C(=O)C([H])(N([H])C(=O)C([H])(N([H])C([H])([H])[H])C([H])([H])[H])C(C([H])([H])[H])(C([H])([H])[H])C([H])([H])[H])C([H])([H])c2c([H])c(OC([H])([H])C([H])([H])C([H])([H])N([H])C(=O)c3c([H])c([H])c(N([H])C(=O)N4C([H])([H])C([H])([H])C([H])([H])C([H])(n5nc(-c6c([H])c([H])c(Oc7c([H])c([H])c(F)c([H])c7F)c([H])c6[H])c(C(=O)N([H])[H])c5N([H])[H])C4([H])[H])c([H])c3C([H])([H])[H])c([H])c([H])c2C1([H])[H]

>  <smiles>  (38) 
[H]c1c([H])c([H])c2c(c1[H])C([H])([H])C([H])([H])C([H])([H])C2([H])N([H])C(=O)C1([H])N(C(=O)C([H])(N([H])C(=O)C([H])(N([H])C([H])([H])[H])C([H])([H])[H])C(C([H])([H])[H])(C([H])([H])[H])C([H])([H])[H])C([H])([H])c2c([H])c(OC([H])([H])C([H])([H])C([H])([H])N([H])C(=O)c3c([H])c([H])c(N([H])C(=O)N4C([H])([H])C([H])([H])C([H])([H])C([H])(n5nc(-c6c([H])c([H])c(Oc7c([H])c([H])c(F)c([H])c7F)c([H])c6[H])c(C(=O)N([H])[H])c5N([H])[H])C4([H])[H])c([H])c3C([H])([H])[H])c([H])c([H])c2C1([H])[H]

$$$$
38:0:0
     RDKit          3D

 94102  0  0  1  0  0  0  0  0999 V2000
  -30.8640  -20.1740   19.7860 C   0  0  0  0  0  3  0  0  0  0  0  0
  -31.5130  -17.8050   19.8390 C   0  0  0  0  0  3  0  0  0  0  0  0
  -29.5260  -19.8620   20.0940 C   0  0  0  0  0  0  0  0  0  0  0  0
  -29.2100  -18.4410   20.2820 C   0  0  0  0  0  0  0  0  0  0  0  0
  -30.2010  -17.3700   20.1530 C   0  0  0  0  0  0  0  0  0  0  0  0
  -31.8360  -19.1660   19.6640 C   0  0  0  0  0  0  0  0  0  0  0  0
  -33.4630  -19.6120   19.2990 Cl  0  0  0  0  0  0  0  0  0  0  0  0
  -30.6460  -14.7600   20.0110 C   0  0  0  0  0  0  0  0  0  0  0  0
  -30.3490  -12.5280   18.9320 C   0  0  0  0  0  2  0  0  0  0  0  0
  -29.3340  -12.6570   17.7760 C   0  0  0  0  0  2  0  0  0  0  0  0
  -27.8980  -12.4700   18.2990 C   0  0  0  0  0  2  0  0  0  0  0  0
  -27.6100  -13.3110   19.5710 C   0  0  0  0  0  3  0  0  0  0  0  0
  -28.7400  -13.1820   20.6150 C   0  0  0  0  0  2  0  0  0  0  0  0
  -29.9950  -13.5470   19.9480 N   0  0  0  0  0  0  0  0  0  0  0  0
  -31.8180  -14.8180   19.6340 O   0  0  0  0  0  0  0  0  0  0  0  0
  -29.9060  -15.9060   20.3060 N   0  0  0  0  0  0  0  0  0  0  0  0
  -28.9640  -15.6970   20.5940 H   0  0  0  0  0  0  0  0  0  0  0  0
  -25.2710  -13.8690   20.4620 C   0  0  0  0  0  0  0  0  0  0  0  0
  -24.2330  -13.0780   20.8760 C   0  0  0  0  0  0  0  0  0  0  0  0
  -24.7000  -11.7320   20.7810 C   0  0  0  0  0  0  0  0  0  0  0  0
  -26.3010  -13.0020   20.1390 N   0  0  0  0  0  0  0  0  0  0  0  0
  -25.9700  -11.7090   20.3950 N   0  0  0  0  0  0  0  0  0  0  0  0
  -23.9890  -10.4610   20.9800 C   0  0  0  0  0  0  0  0  0  0  0  0
  -24.4480   -9.4940   21.9020 C   0  0  0  0  0  3  0  0  0  0  0  0
  -23.7360   -8.2890   22.0890 C   0  0  0  0  0  3  0  0  0  0  0  0
  -22.5520   -8.0430   21.3550 C   0  0  0  0  0  0  0  0  0  0  0  0
  -22.1140   -8.9980   20.4210 C   0  0  0  0  0  3  0  0  0  0  0  0
  -22.8260  -10.1940   20.2310 C   0  0  0  0  0  3  0  0  0  0  0  0
  -21.8110   -6.8900   21.4520 O   0  0  0  0  0  0  0  0  0  0  0  0
  -21.7570   -6.1660   22.6140 C   0  0  0  0  0  0  0  0  0  0  0  0
  -21.2780   -6.7240   23.8190 C   0  0  0  0  0  3  0  0  0  0  0  0
  -21.1740   -5.9240   24.9750 C   0  0  0  0  0  3  0  0  0  0  0  0
  -21.5390   -4.5650   24.9260 C   0  0  0  0  0  0  0  0  0  0  0  0
  -22.0120   -4.0050   23.7250 C   0  0  0  0  0  3  0  0  0  0  0  0
  -22.1180   -4.8030   22.5720 C   0  0  0  0  0  0  0  0  0  0  0  0
  -22.5530   -4.2540   21.4130 F   0  0  0  0  0  0  0  0  0  0  0  0
  -21.4330   -3.7930   26.0330 F   0  0  0  0  0  0  0  0  0  0  0  0
  -22.8530  -13.5410   21.2440 C   0  0  0  0  0  0  0  0  0  0  0  0
  -22.1790  -12.8140   22.1280 N   0  0  0  0  0  0  0  0  0  0  0  0
  -22.3830  -14.5820   20.7850 O   0  0  0  0  0  0  0  0  0  0  0  0
  -22.5720  -11.9700   22.5170 H   0  0  0  0  0  0  0  0  0  0  0  0
  -21.2570  -13.1050   22.4190 H   0  0  0  0  0  0  0  0  0  0  0  0
  -25.4120  -15.2440   20.3100 N   0  0  0  0  0  0  0  0  0  0  0  0
  -24.6400  -15.8770   20.4840 H   0  0  0  0  0  0  0  0  0  0  0  0
  -26.2160  -15.7210   19.9210 H   0  0  0  0  0  0  0  0  0  0  0  0
  -27.7800  -18.0510   20.6280 C   0  0  0  0  0  2  0  0  0  0  0  0
  -27.1170  -17.7210   19.5180 F   0  0  0  0  0  0  0  0  0  0  0  0
  -28.5080  -21.0820   20.2550 C   0  0  0  0  0  2  0  0  0  0  0  0
  -28.3870  -23.7200   20.2540 C   0  0  0  0  0  0  0  0  0  0  0  0
  -28.8250  -22.4970   19.7610 N   0  0  0  0  0  0  0  0  0  0  0  0
  -27.8360  -23.7790   21.3550 O   0  0  0  0  0  0  0  0  0  0  0  0
  -29.2920  -22.5390   18.8650 H   0  0  0  0  0  0  0  0  0  0  0  0
  -28.5380  -25.0710   19.4010 C   0  0  0  0  0  2  0  0  0  0  0  0
  -28.4130  -26.4030   20.0900 O   0  0  0  0  0  0  0  0  0  0  0  0
  -24.6550  -31.7720   23.1660 C   0  0  0  0  0  0  0  0  0  0  0  0
  -27.2820  -27.2510   20.0170 C   0  0  0  0  0  0  0  0  0  0  0  0
  -23.4590  -30.4060   21.4920 C   0  0  0  0  0  3  0  0  0  0  0  0
  -24.9170  -28.8870   20.0330 C   0  0  0  0  0  0  0  0  0  0  0  0
  -26.0020  -30.7260   21.3240 C   0  0  0  0  0  2  0  0  0  0  0  0
  -26.0840  -29.3600   20.6430 C   0  0  0  0  0  0  0  0  0  0  0  0
  -27.2650  -28.5530   20.6240 C   0  0  0  0  0  3  0  0  0  0  0  0
  -26.0860  -26.8370   19.3920 C   0  0  0  0  0  3  0  0  0  0  0  0
  -24.9230  -27.6340   19.3990 C   0  0  0  0  0  3  0  0  0  0  0  0
  -23.6780  -29.7600   20.0980 C   0  0  0  0  0  2  0  0  0  0  0  0
  -24.7240  -30.9860   22.0510 N   0  0  0  0  0  0  0  0  0  0  0  0
  -23.5690  -32.0350   23.7040 O   0  0  0  0  0  0  0  0  0  0  0  0
  -22.7950  -29.3700   22.4310 C   0  0  0  0  0  0  0  0  0  0  0  0
  -21.4660  -29.2100   22.3140 N   0  0  0  0  0  0  0  0  0  0  0  0
  -23.4760  -28.7140   23.2240 O   0  0  0  0  0  0  0  0  0  0  0  0
  -20.9760  -29.7870   21.6450 H   0  0  0  0  0  0  0  0  0  0  0  0
  -18.0800  -28.0490   22.8380 C   0  0  0  0  0  0  0  0  0  0  0  0
  -20.6470  -28.2550   23.0650 C   0  0  0  0  0  3  0  0  0  0  0  0
  -20.7150  -26.8460   22.4300 C   0  0  0  0  0  2  0  0  0  0  0  0
  -19.5870  -26.5830   21.4280 C   0  0  0  0  0  2  0  0  0  0  0  0
  -18.2210  -26.7260   22.1050 C   0  0  0  0  0  2  0  0  0  0  0  0
  -19.2210  -28.7750   23.2750 C   0  0  0  0  0  0  0  0  0  0  0  0
  -19.0350  -30.0160   23.9200 C   0  0  0  0  0  3  0  0  0  0  0  0
  -17.7420  -30.5310   24.1350 C   0  0  0  0  0  3  0  0  0  0  0  0
  -16.6170  -29.8000   23.7160 C   0  0  0  0  0  3  0  0  0  0  0  0
  -16.7870  -28.5620   23.0710 C   0  0  0  0  0  3  0  0  0  0  0  0
  -25.9340  -32.3960   23.8060 C   0  0  0  0  0  3  0  0  0  0  0  0
  -26.4320  -31.6170   25.0850 C   0  0  1  0  0  0  0  0  0  0  0  0
  -25.3260  -31.3790   26.1390 C   0  0  0  0  0  1  0  0  0  0  0  0
  -27.0170  -30.2400   24.6950 C   0  0  0  0  0  1  0  0  0  0  0  0
  -27.5770  -32.4050   25.7650 C   0  0  0  0  0  1  0  0  0  0  0  0
  -25.6270  -33.7940   24.1440 N   0  0  0  0  0  0  0  0  0  0  0  0
  -25.9650  -34.8520   23.3940 C   0  0  0  0  0  0  0  0  0  0  0  0
  -26.6390  -34.7540   22.3660 O   0  0  0  0  0  0  0  0  0  0  0  0
  -25.0340  -33.9470   24.9450 H   0  0  0  0  0  0  0  0  0  0  0  0
  -24.2540  -36.6610   23.0380 C   0  0  0  0  0  1  0  0  0  0  0  0
  -25.4810  -36.2370   23.8620 C   0  0  0  0  0  3  0  0  0  0  0  0
  -27.6040  -37.1040   24.7410 C   0  0  0  0  0  1  0  0  0  0  0  0
  -26.5210  -37.2850   23.7770 N   0  0  0  0  0  0  0  0  0  0  0  0
  -26.1170  -38.2060   23.9260 H   0  0  0  0  0  0  0  0  0  0  0  0
  1  3  1  0
  2  5  2  0
  3 48  1  0
  3  4  2  0
  4 46  1  0
  5  4  1  0
  5 16  1  0
  6  1  2  0
  6  2  1  0
  7  6  1  0
  8 16  1  0
  9 14  1  0
 10 11  1  0
 10  9  1  0
 12 11  1  0
 12 21  1  0
 12 13  1  0
 14  8  1  0
 14 13  1  0
 15  8  2  0
 16 17  1  0
 18 19  2  0
 19 38  1  0
 20 19  1  0
 20 23  1  0
 21 22  1  0
 21 18  1  0
 22 20  2  0
 23 24  1  0
 24 25  2  0
 26 29  1  0
 26 25  1  0
 27 26  2  0
 28 27  1  0
 28 23  2  0
 29 30  1  0
 30 31  1  0
 31 32  2  0
 33 32  1  0
 33 37  1  0
 34 33  2  0
 35 30  2  0
 35 34  1  0
 36 35  1  0
 38 39  1  0
 39 42  1  0
 39 41  1  0
 40 38  2  0
 43 18  1  0
 43 44  1  0
 45 43  1  0
 47 46  1  0
 49 51  2  0
 50 49  1  0
 50 48  1  0
 52 50  1  0
 53 54  1  0
 53 49  1  0
 55 66  2  0
 56 54  1  0
 56 61  1  0
 57 65  1  0
 57 67  1  0
 58 64  1  0
 58 60  1  0
 59 65  1  0
 60 59  1  0
 61 60  2  0
 62 63  1  0
 62 56  2  0
 63 58  2  0
 64 57  1  0
 65 55  1  0
 67 69  2  0
 68 67  1  0
 70 68  1  0
 71 80  2  0
 71 76  1  0
 72 68  1  0
 72 76  1  0
 73 72  1  0
 74 75  1  0
 74 73  1  0
 75 71  1  0
 76 77  2  0
 77 78  1  0
 79 78  2  0
 80 79  1  0
 81 55  1  0
 81 86  1  0
 81 82  1  0
 82 85  1  1
 82 83  1  0
 84 82  1  0
 86 89  1  0
 87 91  1  0
 87 86  1  0
 88 87  2  0
 91 90  1  0
 93 91  1  0
 93 94  1  0
 93 92  1  0
M  ISO  4   8 100  16 100  53 101  54 101
M  END
>  <TORSDO>  (39) 
F 20

>  <SCORE>  (39) 
-13.777

>  <name>  (39) 
38

>  <ligand_id>  (39) 
38

>  <original_smiles>  (39) 
[H]c1c([H])c([H])c2c(c1[H])C([H])([H])C([H])([H])C([H])([H])C2([H])N([H])C(=O)C1([H])N(C(=O)C([H])(N([H])C(=O)C([H])(N([H])C([H])([H])[H])C([H])([H])[H])C(C([H])([H])[H])(C([H])([H])[H])C([H])([H])[H])C([H])([H])c2c([H])c(OC([H])([H])C(=O)N([H])C([H])([H])c3c([H])c(Cl)c([H])c(N([H])C(=O)N4C([H])([H])C([H])([H])C([H])([H])C([H])(n5nc(-c6c([H])c([H])c(Oc7c([H])c([H])c(F)c([H])c7F)c([H])c6[H])c(C(=O)N([H])[H])c5N([H])[H])C4([H])[H])c3C([H])([H])F)c([H])c([H])c2C1([H])[H]

>  <smiles>  (39) 
[H]c1c([H])c([H])c2c(c1[H])C([H])([H])C([H])([H])C([H])([H])C2([H])N([H])C(=O)C1([H])N(C(=O)C([H])(N([H])C(=O)C([H])(N([H])C([H])([H])[H])C([H])([H])[H])C(C([H])([H])[H])(C([H])([H])[H])C([H])([H])[H])C([H])([H])c2c([H])c(OC([H])([H])C(=O)N([H])C([H])([H])c3c([H])c(Cl)c([H])c(N([H])C(=O)N4C([H])([H])C([H])([H])C([H])([H])C([H])(n5nc(-c6c([H])c([H])c(Oc7c([H])c([H])c(F)c([H])c7F)c([H])c6[H])c(C(=O)N([H])[H])c5N([H])[H])C4([H])[H])c3C([H])([H])F)c([H])c([H])c2C1([H])[H]

$$$$
39:0:0
     RDKit          3D

 96105  0  0  1  0  0  0  0  0999 V2000
  -29.8370  -23.4560   21.1360 C   0  0  0  0  0  0  0  0  0  0  0  0
  -30.1630  -23.7380   22.4130 C   0  0  0  0  0  3  0  0  0  0  0  0
  -29.9760  -24.4840   19.9890 C   0  0  0  0  0  2  0  0  0  0  0  0
  -27.4820  -24.1560   19.9930 C   0  0  0  0  0  2  0  0  0  0  0  0
  -27.8860  -22.6270   19.8510 C   0  0  0  0  0  2  0  0  0  0  0  0
  -28.6140  -25.1630   19.5840 C   0  0  0  0  0  3  0  0  0  0  0  0
  -29.0150  -22.2230   20.7500 N   0  0  1  0  0  4  0  0  0  0  0  0
  -28.5120  -21.9720   21.5890 H   0  0  0  0  0  0  0  0  0  0  0  0
  -29.8070  -23.3860   24.8200 C   0  0  0  0  0  2  0  0  0  0  0  0
  -29.7660  -22.9380   23.5560 C   0  0  0  0  0  3  0  0  0  0  0  0
  -28.4960  -26.5420   20.1200 O   0  0  0  0  0  0  0  0  0  0  0  0
  -24.5360  -31.7400   23.1740 C   0  0  0  0  0  0  0  0  0  0  0  0
  -27.3220  -27.3110   20.0490 C   0  0  0  0  0  0  0  0  0  0  0  0
  -23.4010  -30.3570   21.4720 C   0  0  0  0  0  3  0  0  0  0  0  0
  -24.9130  -28.8610   20.0430 C   0  0  0  0  0  0  0  0  0  0  0  0
  -25.9390  -30.7080   21.3810 C   0  0  0  0  0  2  0  0  0  0  0  0
  -26.0530  -29.3540   20.6910 C   0  0  0  0  0  0  0  0  0  0  0  0
  -27.2500  -28.5820   20.6960 C   0  0  0  0  0  3  0  0  0  0  0  0
  -26.1660  -26.8760   19.3590 C   0  0  0  0  0  3  0  0  0  0  0  0
  -24.9710  -27.6260   19.3770 C   0  0  0  0  0  3  0  0  0  0  0  0
  -23.6640  -29.7200   20.0820 C   0  0  0  0  0  2  0  0  0  0  0  0
  -24.6410  -30.9520   22.0650 N   0  0  0  0  0  0  0  0  0  0  0  0
  -23.4350  -31.9920   23.6840 O   0  0  0  0  0  0  0  0  0  0  0  0
  -22.7310  -29.3090   22.3920 C   0  0  0  0  0  0  0  0  0  0  0  0
  -21.4050  -29.1470   22.2610 N   0  0  0  0  0  0  0  0  0  0  0  0
  -23.4060  -28.6500   23.1860 O   0  0  0  0  0  0  0  0  0  0  0  0
  -20.9210  -29.7240   21.5880 H   0  0  0  0  0  0  0  0  0  0  0  0
  -18.0080  -28.0210   22.7890 C   0  0  0  0  0  0  0  0  0  0  0  0
  -20.5800  -28.1930   23.0070 C   0  0  0  0  0  3  0  0  0  0  0  0
  -20.6250  -26.7920   22.3590 C   0  0  0  0  0  2  0  0  0  0  0  0
  -19.4940  -26.5560   21.3530 C   0  0  0  0  0  2  0  0  0  0  0  0
  -18.1290  -26.7110   22.0310 C   0  0  0  0  0  2  0  0  0  0  0  0
  -19.1590  -28.7250   23.2350 C   0  0  0  0  0  0  0  0  0  0  0  0
  -18.9930  -29.9560   23.9040 C   0  0  0  0  0  3  0  0  0  0  0  0
  -17.7080  -30.4800   24.1410 C   0  0  0  0  0  3  0  0  0  0  0  0
  -16.5720  -29.7690   23.7160 C   0  0  0  0  0  3  0  0  0  0  0  0
  -16.7230  -28.5440   23.0420 C   0  0  0  0  0  3  0  0  0  0  0  0
  -25.7930  -32.3830   23.8370 C   0  0  0  0  0  3  0  0  0  0  0  0
  -26.2700  -31.6210   25.1330 C   0  0  1  0  0  0  0  0  0  0  0  0
  -25.1430  -31.3880   26.1650 C   0  0  0  0  0  1  0  0  0  0  0  0
  -26.8740  -30.2430   24.7800 C   0  0  0  0  0  1  0  0  0  0  0  0
  -27.3940  -32.4300   25.8220 C   0  0  0  0  0  1  0  0  0  0  0  0
  -25.4650  -33.7800   24.1530 N   0  0  0  0  0  0  0  0  0  0  0  0
  -25.8160  -34.8360   23.4050 C   0  0  0  0  0  0  0  0  0  0  0  0
  -26.5170  -34.7350   22.3950 O   0  0  0  0  0  0  0  0  0  0  0  0
  -24.8430  -33.9330   24.9340 H   0  0  0  0  0  0  0  0  0  0  0  0
  -24.0840  -36.6140   23.0070 C   0  0  0  0  0  1  0  0  0  0  0  0
  -25.3070  -36.2220   23.8490 C   0  0  0  0  0  3  0  0  0  0  0  0
  -27.4170  -37.1180   24.7300 C   0  0  0  0  0  1  0  0  0  0  0  0
  -26.3350  -37.2820   23.7620 N   0  0  0  0  0  0  0  0  0  0  0  0
  -25.9200  -38.1990   23.9020 H   0  0  0  0  0  0  0  0  0  0  0  0
  -29.8490  -20.9500   20.4830 C   0  0  0  0  0  2  0  0  0  0  0  0
  -28.2470  -18.0800   18.4070 C   0  0  0  0  0  3  0  0  0  0  0  0
  -28.5050  -19.3470   18.9640 C   0  0  0  0  0  3  0  0  0  0  0  0
  -28.8050  -16.9140   18.9510 C   0  0  0  0  0  3  0  0  0  0  0  0
  -29.8150  -18.2640   20.7050 C   0  0  0  0  0  3  0  0  0  0  0  0
  -29.3220  -19.4960   20.1060 C   0  0  0  0  0  0  0  0  0  0  0  0
  -29.5890  -16.9510   20.1230 C   0  0  0  0  0  0  0  0  0  0  0  0
  -30.5940  -14.5850   20.0830 C   0  0  0  0  0  0  0  0  0  0  0  0
  -30.3200  -12.3180   19.0670 C   0  0  0  0  0  2  0  0  0  0  0  0
  -29.3290  -12.4360   17.8870 C   0  0  0  0  0  2  0  0  0  0  0  0
  -27.8770  -12.2710   18.3720 C   0  0  0  0  0  2  0  0  0  0  0  0
  -27.5690  -13.1460   19.6130 C   0  0  0  0  0  3  0  0  0  0  0  0
  -28.6740  -13.0280   20.6900 C   0  0  0  0  0  2  0  0  0  0  0  0
  -29.9620  -13.3590   20.0590 N   0  0  0  0  0  0  0  0  0  0  0  0
  -31.6850  -14.7350   19.5230 O   0  0  0  0  0  0  0  0  0  0  0  0
  -29.9600  -15.6480   20.6970 N   0  0  0  0  0  0  0  0  0  0  0  0
  -29.2750  -15.3200   21.3620 H   0  0  0  0  0  0  0  0  0  0  0  0
  -25.2330  -13.7700   20.4680 C   0  0  0  0  0  0  0  0  0  0  0  0
  -24.1720  -13.0100   20.8790 C   0  0  0  0  0  0  0  0  0  0  0  0
  -24.5980  -11.6520   20.7930 C   0  0  0  0  0  0  0  0  0  0  0  0
  -26.2420  -12.8730   20.1570 N   0  0  0  0  0  0  0  0  0  0  0  0
  -25.8710  -11.5910   20.4120 N   0  0  0  0  0  0  0  0  0  0  0  0
  -23.8560  -10.4010   20.9980 C   0  0  0  0  0  0  0  0  0  0  0  0
  -24.3130   -9.4110   21.8940 C   0  0  0  0  0  3  0  0  0  0  0  0
  -23.5760   -8.2230   22.0880 C   0  0  0  0  0  3  0  0  0  0  0  0
  -22.3650   -8.0200   21.3860 C   0  0  0  0  0  0  0  0  0  0  0  0
  -21.9250   -8.9990   20.4790 C   0  0  0  0  0  3  0  0  0  0  0  0
  -22.6630  -10.1770   20.2830 C   0  0  0  0  0  3  0  0  0  0  0  0
  -21.5920   -6.8890   21.4940 O   0  0  0  0  0  0  0  0  0  0  0  0
  -21.5800   -6.1300   22.6350 C   0  0  0  0  0  0  0  0  0  0  0  0
  -21.2090   -6.6720   23.8850 C   0  0  0  0  0  3  0  0  0  0  0  0
  -21.1410   -5.8410   25.0210 C   0  0  0  0  0  3  0  0  0  0  0  0
  -21.4340   -4.4680   24.9100 C   0  0  0  0  0  0  0  0  0  0  0  0
  -21.7990   -3.9250   23.6650 C   0  0  0  0  0  3  0  0  0  0  0  0
  -21.8680   -4.7520   22.5320 C   0  0  0  0  0  0  0  0  0  0  0  0
  -22.1990   -4.2190   21.3310 F   0  0  0  0  0  0  0  0  0  0  0  0
  -21.3600   -3.6700   26.0010 F   0  0  0  0  0  0  0  0  0  0  0  0
  -22.8020  -13.5120   21.2450 C   0  0  0  0  0  0  0  0  0  0  0  0
  -22.1150  -12.8140   22.1400 N   0  0  0  0  0  0  0  0  0  0  0  0
  -22.3570  -14.5570   20.7730 O   0  0  0  0  0  0  0  0  0  0  0  0
  -22.4930  -11.9710   22.5460 H   0  0  0  0  0  0  0  0  0  0  0  0
  -21.2010  -13.1290   22.4360 H   0  0  0  0  0  0  0  0  0  0  0  0
  -25.4210  -15.1410   20.3090 N   0  0  0  0  0  0  0  0  0  0  0  0
  -24.6820  -15.8190   20.4680 H   0  0  0  0  0  0  0  0  0  0  0  0
  -26.2700  -15.5600   19.9500 H   0  0  0  0  0  0  0  0  0  0  0  0
  1  2  2  0
  2 10  1  0
  3  1  1  0
  5  4  1  0
  5  7  1  0
  6  3  1  0
  6  4  1  0
  6 11  1  0
  7  1  1  0
  7  8  1  1
 10  9  2  0
 12 23  2  0
 13 11  1  0
 13 18  1  0
 14 22  1  0
 14 24  1  0
 15 21  1  0
 15 17  1  0
 16 22  1  0
 17 18  2  0
 17 16  1  0
 19 20  1  0
 19 13  2  0
 20 15  2  0
 21 14  1  0
 22 12  1  0
 24 26  2  0
 25 24  1  0
 27 25  1  0
 28 37  2  0
 28 33  1  0
 29 25  1  0
 29 33  1  0
 30 29  1  0
 31 32  1  0
 31 30  1  0
 32 28  1  0
 33 34  2  0
 34 35  1  0
 36 35  2  0
 37 36  1  0
 38 12  1  0
 38 43  1  0
 38 39  1  0
 39 42  1  1
 39 40  1  0
 41 39  1  0
 43 46  1  0
 44 48  1  0
 44 43  1  0
 45 44  2  0
 48 47  1  0
 50 48  1  0
 50 51  1  0
 50 49  1  0
 52  7  1  0
 53 55  2  0
 53 54  1  0
 54 57  2  0
 55 58  1  0
 57 52  1  0
 57 56  1  0
 58 67  1  0
 58 56  2  0
 59 67  1  0
 60 65  1  0
 61 62  1  0
 61 60  1  0
 63 62  1  0
 63 72  1  0
 63 64  1  0
 65 59  1  0
 65 64  1  0
 66 59  2  0
 67 68  1  0
 69 70  2  0
 70 89  1  0
 71 70  1  0
 71 74  1  0
 72 73  1  0
 72 69  1  0
 73 71  2  0
 74 75  1  0
 75 76  2  0
 77 80  1  0
 77 76  1  0
 78 77  2  0
 79 78  1  0
 79 74  2  0
 80 81  1  0
 81 82  1  0
 82 83  2  0
 84 83  1  0
 84 88  1  0
 85 84  2  0
 86 81  2  0
 86 85  1  0
 87 86  1  0
 89 90  1  0
 90 93  1  0
 90 92  1  0
 91 89  2  0
 94 95  1  0
 94 69  1  0
 96 94  1  0
M  ISO  4   6 101  11 101  59 100  67 100
M  END
>  <TORSDO>  (40) 
F 19

>  <SCORE>  (40) 
-13.640

>  <name>  (40) 
39

>  <ligand_id>  (40) 
39

>  <original_smiles>  (40) 
[H]C([H])=C([H])C([H])=C1C([H])([H])C([H])(Oc2c([H])c([H])c3c(c2[H])C([H])([H])N(C(=O)C([H])(N([H])C(=O)C([H])(N([H])C([H])([H])[H])C([H])([H])[H])C(C([H])([H])[H])(C([H])([H])[H])C([H])([H])[H])C([H])(C(=O)N([H])C2([H])c4c([H])c([H])c([H])c([H])c4C([H])([H])C([H])([H])C2([H])[H])C3([H])[H])C([H])([H])C([H])([H])[N+]1([H])C([H])([H])c1c([H])c([H])c([H])c(N([H])C(=O)N2C([H])([H])C([H])([H])C([H])([H])C([H])(n3nc(-c4c([H])c([H])c(Oc5c([H])c([H])c(F)c([H])c5F)c([H])c4[H])c(C(=O)N([H])[H])c3N([H])[H])C2([H])[H])c1[H]

>  <smiles>  (40) 
[H]C([H])=C([H])C([H])=C1C([H])([H])C([H])(Oc2c([H])c([H])c3c(c2[H])C([H])([H])N(C(=O)C([H])(N([H])C(=O)C([H])(N([H])C([H])([H])[H])C([H])([H])[H])C(C([H])([H])[H])(C([H])([H])[H])C([H])([H])[H])C([H])(C(=O)N([H])C2([H])c4c([H])c([H])c([H])c([H])c4C([H])([H])C([H])([H])C2([H])[H])C3([H])[H])C([H])([H])C([H])([H])[N+]1([H])C([H])([H])c1c([H])c([H])c([H])c(N([H])C(=O)N2C([H])([H])C([H])([H])C([H])([H])C([H])(n3nc(-c4c([H])c([H])c(Oc5c([H])c([H])c(F)c([H])c5F)c([H])c4[H])c(C(=O)N([H])[H])c3N([H])[H])C2([H])[H])c1[H]

$$$$
40:0:0
     RDKit          3D

 95103  0  0  1  0  0  0  0  0999 V2000
  -29.3720  -21.1680   20.5880 C   0  0  0  0  0  0  0  0  0  0  0  0
  -29.2440  -21.1840   21.9160 N   0  0  0  0  0  4  0  0  0  0  0  0
  -29.1480  -22.4040   19.9890 N   0  0  0  0  0  0  0  0  0  0  0  0
  -28.9400  -21.9990   22.4180 H   0  0  0  0  0  0  0  0  0  0  0  0
  -29.3590  -20.3190   22.4260 H   0  0  0  0  0  0  0  0  0  0  0  0
  -29.4030  -22.4090   19.0010 H   0  0  0  0  0  0  0  0  0  0  0  0
  -30.7560  -17.5510   18.4260 C   0  0  0  0  0  3  0  0  0  0  0  0
  -30.8140  -18.8470   17.8810 C   0  0  0  0  0  3  0  0  0  0  0  0
  -29.7880  -19.8530   19.8860 C   0  0  0  0  0  0  0  0  0  0  0  0
  -30.2160  -17.3130   19.7090 C   0  0  0  0  0  0  0  0  0  0  0  0
  -30.3530  -19.9730   18.5890 C   0  0  0  0  0  0  0  0  0  0  0  0
  -29.7130  -18.4830   20.4190 C   0  0  0  0  0  0  0  0  0  0  0  0
  -30.4600  -21.1850   17.9860 F   0  0  0  0  0  0  0  0  0  0  0  0
  -29.0200  -18.1680   21.9800 Cl  0  0  0  0  0  0  0  0  0  0  0  0
  -30.8190  -14.7820   19.8100 C   0  0  0  0  0  0  0  0  0  0  0  0
  -30.5160  -12.5420   18.7620 C   0  0  0  0  0  2  0  0  0  0  0  0
  -29.4830  -12.6570   17.6200 C   0  0  0  0  0  2  0  0  0  0  0  0
  -28.0500  -12.4800   18.1560 C   0  0  0  0  0  2  0  0  0  0  0  0
  -27.7830  -13.3230   19.4300 C   0  0  0  0  0  3  0  0  0  0  0  0
  -28.9290  -13.2030   20.4610 C   0  0  0  0  0  2  0  0  0  0  0  0
  -30.1790  -13.5630   19.7810 N   0  0  0  0  0  0  0  0  0  0  0  0
  -31.9600  -14.8810   19.3510 O   0  0  0  0  0  0  0  0  0  0  0  0
  -30.1130  -15.9100   20.1990 N   0  0  0  0  0  0  0  0  0  0  0  0
  -29.3200  -15.7350   20.7980 H   0  0  0  0  0  0  0  0  0  0  0  0
  -25.4680  -13.8890   20.3810 C   0  0  0  0  0  0  0  0  0  0  0  0
  -24.4360  -13.1020   20.8140 C   0  0  0  0  0  0  0  0  0  0  0  0
  -24.8890  -11.7530   20.6900 C   0  0  0  0  0  0  0  0  0  0  0  0
  -26.4850  -13.0190   20.0230 N   0  0  0  0  0  0  0  0  0  0  0  0
  -26.1480  -11.7260   20.2720 N   0  0  0  0  0  0  0  0  0  0  0  0
  -24.1750  -10.4850   20.8900 C   0  0  0  0  0  0  0  0  0  0  0  0
  -24.6050   -9.5390   21.8450 C   0  0  0  0  0  3  0  0  0  0  0  0
  -23.8890   -8.3370   22.0340 C   0  0  0  0  0  3  0  0  0  0  0  0
  -22.7300   -8.0710   21.2660 C   0  0  0  0  0  0  0  0  0  0  0  0
  -22.3200   -9.0070   20.2980 C   0  0  0  0  0  3  0  0  0  0  0  0
  -23.0360  -10.2010   20.1100 C   0  0  0  0  0  3  0  0  0  0  0  0
  -21.9860   -6.9200   21.3640 O   0  0  0  0  0  0  0  0  0  0  0  0
  -21.8200   -6.2690   22.5600 C   0  0  0  0  0  0  0  0  0  0  0  0
  -21.2230   -6.8980   23.6760 C   0  0  0  0  0  3  0  0  0  0  0  0
  -21.0110   -6.1700   24.8640 C   0  0  0  0  0  3  0  0  0  0  0  0
  -21.3840   -4.8150   24.9360 C   0  0  0  0  0  0  0  0  0  0  0  0
  -21.9720   -4.1850   23.8240 C   0  0  0  0  0  3  0  0  0  0  0  0
  -22.1870   -4.9100   22.6390 C   0  0  0  0  0  0  0  0  0  0  0  0
  -22.7350   -4.2940   21.5640 F   0  0  0  0  0  0  0  0  0  0  0  0
  -21.1730   -4.1130   26.0740 F   0  0  0  0  0  0  0  0  0  0  0  0
  -23.0680  -13.5700   21.2220 C   0  0  0  0  0  0  0  0  0  0  0  0
  -22.4100  -12.8440   22.1190 N   0  0  0  0  0  0  0  0  0  0  0  0
  -22.5920  -14.6150   20.7790 O   0  0  0  0  0  0  0  0  0  0  0  0
  -22.8050  -12.0010   22.5050 H   0  0  0  0  0  0  0  0  0  0  0  0
  -21.4950  -13.1380   22.4280 H   0  0  0  0  0  0  0  0  0  0  0  0
  -25.6220  -15.2650   20.2390 N   0  0  0  0  0  0  0  0  0  0  0  0
  -24.8650  -15.9130   20.4240 H   0  0  0  0  0  0  0  0  0  0  0  0
  -26.4470  -15.7130   19.8570 H   0  0  0  0  0  0  0  0  0  0  0  0
  -28.8330  -23.7930   20.5960 C   0  0  0  0  0  3  0  0  0  0  0  0
  -28.5840  -25.0660   19.6310 C   0  0  0  0  0  3  0  0  0  0  0  0
  -28.4780  -26.4610   20.1910 O   0  0  0  0  0  0  0  0  0  0  0  0
  -24.7080  -31.8760   23.1970 C   0  0  0  0  0  0  0  0  0  0  0  0
  -27.3310  -27.2880   20.1310 C   0  0  0  0  0  0  0  0  0  0  0  0
  -23.5010  -30.4690   21.5670 C   0  0  0  0  0  3  0  0  0  0  0  0
  -24.9500  -28.9130   20.1370 C   0  0  0  0  0  0  0  0  0  0  0  0
  -26.0400  -30.7830   21.3750 C   0  0  0  0  0  2  0  0  0  0  0  0
  -26.1220  -29.4030   20.7260 C   0  0  0  0  0  0  0  0  0  0  0  0
  -27.3100  -28.6050   20.7080 C   0  0  0  0  0  3  0  0  0  0  0  0
  -26.1280  -26.8600   19.5240 C   0  0  0  0  0  3  0  0  0  0  0  0
  -24.9600  -27.6500   19.5250 C   0  0  0  0  0  3  0  0  0  0  0  0
  -23.7080  -29.7820   20.1910 C   0  0  0  0  0  2  0  0  0  0  0  0
  -24.7680  -31.0630   22.1010 N   0  0  0  0  0  0  0  0  0  0  0  0
  -23.6270  -32.1510   23.7400 O   0  0  0  0  0  0  0  0  0  0  0  0
  -22.8430  -29.4580   22.5400 C   0  0  0  0  0  0  0  0  0  0  0  0
  -21.5170  -29.2720   22.4190 N   0  0  0  0  0  0  0  0  0  0  0  0
  -23.5270  -28.8440   23.3620 O   0  0  0  0  0  0  0  0  0  0  0  0
  -21.0270  -29.8080   21.7170 H   0  0  0  0  0  0  0  0  0  0  0  0
  -18.1510  -28.0520   22.9390 C   0  0  0  0  0  0  0  0  0  0  0  0
  -20.7070  -28.3360   23.2030 C   0  0  0  0  0  3  0  0  0  0  0  0
  -20.8230  -26.9000   22.6400 C   0  0  0  0  0  2  0  0  0  0  0  0
  -19.7210  -26.5610   21.6320 C   0  0  0  0  0  2  0  0  0  0  0  0
  -18.3370  -26.7000   22.2730 C   0  0  0  0  0  2  0  0  0  0  0  0
  -19.2630  -28.8280   23.3630 C   0  0  0  0  0  0  0  0  0  0  0  0
  -19.0310  -30.0940   23.9440 C   0  0  0  0  0  3  0  0  0  0  0  0
  -17.7200  -30.5830   24.1070 C   0  0  0  0  0  3  0  0  0  0  0  0
  -16.6240  -29.8030   23.6990 C   0  0  0  0  0  3  0  0  0  0  0  0
  -16.8410  -28.5410   23.1190 C   0  0  0  0  0  3  0  0  0  0  0  0
  -25.9930  -32.5140   23.8050 C   0  0  0  0  0  3  0  0  0  0  0  0
  -26.5320  -31.7340   25.0660 C   0  0  1  0  0  0  0  0  0  0  0  0
  -25.4520  -31.4630   26.1390 C   0  0  0  0  0  1  0  0  0  0  0  0
  -27.1360  -30.3710   24.6570 C   0  0  0  0  0  1  0  0  0  0  0  0
  -27.6740  -32.5400   25.7300 C   0  0  0  0  0  1  0  0  0  0  0  0
  -25.6690  -33.9030   24.1610 N   0  0  0  0  0  0  0  0  0  0  0  0
  -25.9530  -34.9750   23.4090 C   0  0  0  0  0  0  0  0  0  0  0  0
  -26.5860  -34.8990   22.3520 O   0  0  0  0  0  0  0  0  0  0  0  0
  -25.1040  -34.0290   24.9870 H   0  0  0  0  0  0  0  0  0  0  0  0
  -24.1790  -36.7440   23.1500 C   0  0  0  0  0  1  0  0  0  0  0  0
  -25.4580  -36.3490   23.9050 C   0  0  0  0  0  3  0  0  0  0  0  0
  -27.5980  -37.2780   24.6710 C   0  0  0  0  0  1  0  0  0  0  0  0
  -26.4630  -37.4240   23.7630 N   0  0  0  0  0  0  0  0  0  0  0  0
  -26.0430  -38.3350   23.9230 H   0  0  0  0  0  0  0  0  0  0  0  0
  1  2  2  0
  2  4  1  0
  2  5  1  0
  3  1  1  0
  3 53  1  0
  6  3  1  0
  7 10  1  0
  8  7  2  0
  8 11  1  0
  9 12  1  0
  9  1  1  0
 10 23  1  0
 10 12  2  0
 11  9  2  0
 12 14  1  0
 13 11  1  0
 15 23  1  0
 16 21  1  0
 17 18  1  0
 17 16  1  0
 19 18  1  0
 19 28  1  0
 19 20  1  0
 21 15  1  0
 21 20  1  0
 22 15  2  0
 23 24  1  0
 25 26  2  0
 26 45  1  0
 27 26  1  0
 27 30  1  0
 28 29  1  0
 28 25  1  0
 29 27  2  0
 30 31  1  0
 31 32  2  0
 33 36  1  0
 33 32  1  0
 34 33  2  0
 35 34  1  0
 35 30  2  0
 36 37  1  0
 37 42  2  0
 37 38  1  0
 38 39  2  0
 39 40  1  0
 40 44  1  0
 41 40  2  0
 42 41  1  0
 43 42  1  0
 45 46  1  0
 46 49  1  0
 46 48  1  0
 47 45  2  0
 50 25  1  0
 50 51  1  0
 52 50  1  0
 54 55  1  0
 54 53  2  0
 56 67  2  0
 57 55  1  0
 57 62  1  0
 58 66  1  0
 58 68  1  0
 59 65  1  0
 59 61  1  0
 60 66  1  0
 61 60  1  0
 62 61  2  0
 63 64  1  0
 63 57  2  0
 64 59  2  0
 65 58  1  0
 66 56  1  0
 68 70  2  0
 69 68  1  0
 71 69  1  0
 72 81  2  0
 72 77  1  0
 73 69  1  0
 73 77  1  0
 74 73  1  0
 75 76  1  0
 75 74  1  0
 76 72  1  0
 77 78  2  0
 78 79  1  0
 80 79  2  0
 81 80  1  0
 82 56  1  0
 82 87  1  0
 82 83  1  0
 83 86  1  1
 83 84  1  0
 85 83  1  0
 87 90  1  0
 88 92  1  0
 88 87  1  0
 89 88  2  0
 92 91  1  0
 94 92  1  0
 94 95  1  0
 94 93  1  0
M  ISO  4  15 100  23 100  54 101  55 101
M  END
>  <TORSDO>  (41) 
F 19

>  <SCORE>  (41) 
-12.679

>  <name>  (41) 
40

>  <ligand_id>  (41) 
40

>  <original_smiles>  (41) 
[H]c1c([H])c([H])c2c(c1[H])C([H])([H])C([H])([H])C([H])([H])C2([H])N([H])C(=O)C1([H])N(C(=O)C([H])(N([H])C(=O)C([H])(N([H])C([H])([H])[H])C([H])([H])[H])C(C([H])([H])[H])(C([H])([H])[H])C([H])([H])[H])C([H])([H])c2c([H])c(OC([H])([H])C([H])([H])[N+]([H])=C(c3c(F)c([H])c([H])c(N([H])C(=O)N4C([H])([H])C([H])([H])C([H])([H])C([H])(n5nc(-c6c([H])c([H])c(Oc7c([H])c([H])c(F)c([H])c7F)c([H])c6[H])c(C(=O)N([H])[H])c5N([H])[H])C4([H])[H])c3Cl)N([H])[H])c([H])c([H])c2C1([H])[H]

>  <smiles>  (41) 
[H]c1c([H])c([H])c2c(c1[H])C([H])([H])C([H])([H])C([H])([H])C2([H])N([H])C(=O)C1([H])N(C(=O)C([H])(N([H])C(=O)C([H])(N([H])C([H])([H])[H])C([H])([H])[H])C(C([H])([H])[H])(C([H])([H])[H])C([H])([H])[H])C([H])([H])c2c([H])c(OC([H])([H])C([H])([H])[N+]([H])=C(c3c(F)c([H])c([H])c(N([H])C(=O)N4C([H])([H])C([H])([H])C([H])([H])C([H])(n5nc(-c6c([H])c([H])c(Oc7c([H])c([H])c(F)c([H])c7F)c([H])c6[H])c(C(=O)N([H])[H])c5N([H])[H])C4([H])[H])c3Cl)N([H])[H])c([H])c([H])c2C1([H])[H]

$$$$
41:0:0
     RDKit          3D

 97106  0  0  1  0  0  0  0  0999 V2000
  -27.8010  -22.5760   19.4760 C   0  0  0  0  0  0  0  0  0  0  0  0
  -26.6650  -21.9200   19.1330 C   0  0  0  0  0  3  0  0  0  0  0  0
  -27.8980  -24.1220   19.3550 C   0  0  0  0  0  2  0  0  0  0  0  0
  -29.2920  -24.0430   21.3980 C   0  0  0  0  0  2  0  0  0  0  0  0
  -30.0360  -22.9560   20.5200 C   0  0  0  0  0  2  0  0  0  0  0  0
  -28.1570  -24.8730   20.6930 C   0  0  0  0  0  3  0  0  0  0  0  0
  -29.1330  -21.9250   19.8840 N   0  0  1  0  0  4  0  0  0  0  0  0
  -29.6000  -21.6590   19.0290 H   0  0  0  0  0  0  0  0  0  0  0  0
  -25.6500  -20.1710   17.6340 C   0  0  0  0  0  1  0  0  0  0  0  0
  -26.4190  -20.4330   18.9290 C   0  0  0  0  0  2  0  0  0  0  0  0
  -28.3930  -26.3510   20.6440 O   0  0  0  0  0  0  0  0  0  0  0  0
  -24.6590  -31.8790   23.4130 C   0  0  0  0  0  0  0  0  0  0  0  0
  -27.2960  -27.2260   20.5370 C   0  0  0  0  0  0  0  0  0  0  0  0
  -23.4940  -30.4820   21.7490 C   0  0  0  0  0  3  0  0  0  0  0  0
  -24.9700  -28.8960   20.3970 C   0  0  0  0  0  0  0  0  0  0  0  0
  -26.0460  -30.7500   21.6630 C   0  0  0  0  0  2  0  0  0  0  0  0
  -26.1250  -29.3640   21.0370 C   0  0  0  0  0  0  0  0  0  0  0  0
  -27.2890  -28.5390   21.1030 C   0  0  0  0  0  3  0  0  0  0  0  0
  -26.1280  -26.8310   19.8450 C   0  0  0  0  0  3  0  0  0  0  0  0
  -24.9730  -27.6320   19.7940 C   0  0  0  0  0  3  0  0  0  0  0  0
  -23.7460  -29.7870   20.3870 C   0  0  0  0  0  2  0  0  0  0  0  0
  -24.7490  -31.0560   22.3310 N   0  0  0  0  0  0  0  0  0  0  0  0
  -23.5610  -32.1840   23.9040 O   0  0  0  0  0  0  0  0  0  0  0  0
  -22.7830  -29.4860   22.6940 C   0  0  0  0  0  0  0  0  0  0  0  0
  -21.4620  -29.3180   22.5090 N   0  0  0  0  0  0  0  0  0  0  0  0
  -23.4180  -28.8660   23.5490 O   0  0  0  0  0  0  0  0  0  0  0  0
  -21.0110  -29.8590   21.7860 H   0  0  0  0  0  0  0  0  0  0  0  0
  -18.0570  -28.1520   22.8670 C   0  0  0  0  0  0  0  0  0  0  0  0
  -20.6000  -28.4050   23.2610 C   0  0  0  0  0  3  0  0  0  0  0  0
  -20.7270  -26.9620   22.7240 C   0  0  0  0  0  2  0  0  0  0  0  0
  -19.6760  -26.6190   21.6650 C   0  0  0  0  0  2  0  0  0  0  0  0
  -18.2620  -26.7860   22.2320 C   0  0  0  0  0  2  0  0  0  0  0  0
  -19.1580  -28.9180   23.3350 C   0  0  0  0  0  0  0  0  0  0  0  0
  -18.9170  -30.1960   23.8880 C   0  0  0  0  0  3  0  0  0  0  0  0
  -17.6100  -30.7080   23.9790 C   0  0  0  0  0  3  0  0  0  0  0  0
  -16.5220  -29.9400   23.5290 C   0  0  0  0  0  3  0  0  0  0  0  0
  -16.7460  -28.6640   22.9800 C   0  0  0  0  0  3  0  0  0  0  0  0
  -25.9300  -32.4970   24.0740 C   0  0  0  0  0  3  0  0  0  0  0  0
  -26.3970  -31.7260   25.3700 C   0  0  1  0  0  0  0  0  0  0  0  0
  -25.2600  -31.4860   26.3880 C   0  0  0  0  0  1  0  0  0  0  0  0
  -27.0030  -30.3480   25.0090 C   0  0  0  0  0  1  0  0  0  0  0  0
  -27.5190  -32.5250   26.0760 C   0  0  0  0  0  1  0  0  0  0  0  0
  -25.6260  -33.9010   24.3870 N   0  0  0  0  0  0  0  0  0  0  0  0
  -25.9840  -34.9460   23.6290 C   0  0  0  0  0  0  0  0  0  0  0  0
  -26.6750  -34.8300   22.6130 O   0  0  0  0  0  0  0  0  0  0  0  0
  -25.0060  -34.0640   25.1680 H   0  0  0  0  0  0  0  0  0  0  0  0
  -24.2830  -36.7550   23.2260 C   0  0  0  0  0  1  0  0  0  0  0  0
  -25.4970  -36.3400   24.0690 C   0  0  0  0  0  3  0  0  0  0  0  0
  -27.6150  -37.2080   24.9580 C   0  0  0  0  0  1  0  0  0  0  0  0
  -26.5440  -37.3820   23.9810 N   0  0  0  0  0  0  0  0  0  0  0  0
  -26.1410  -38.3070   24.1120 H   0  0  0  0  0  0  0  0  0  0  0  0
  -29.0750  -20.6150   20.6710 C   0  0  0  0  0  2  0  0  0  0  0  0
  -31.3830  -19.5980   20.3970 C   0  0  0  0  0  3  0  0  0  0  0  0
  -32.2790  -18.5150   20.4240 C   0  0  0  0  0  3  0  0  0  0  0  0
  -29.5500  -18.0160   20.1460 C   0  0  0  0  0  3  0  0  0  0  0  0
  -29.9940  -19.3850   20.3190 C   0  0  0  0  0  0  0  0  0  0  0  0
  -30.4570  -16.8870   20.1110 C   0  0  0  0  0  0  0  0  0  0  0  0
  -31.8360  -17.1820   20.3430 C   0  0  0  0  0  0  0  0  0  0  0  0
  -33.0370  -15.9810   20.6740 Cl  0  0  0  0  0  0  0  0  0  0  0  0
  -30.5690  -14.4020   19.4230 C   0  0  0  0  0  0  0  0  0  0  0  0
  -30.1770  -12.1400   18.4490 C   0  0  0  0  0  2  0  0  0  0  0  0
  -29.0960  -12.2080   17.3500 C   0  0  0  0  0  2  0  0  0  0  0  0
  -27.6930  -12.0540   17.9660 C   0  0  0  0  0  2  0  0  0  0  0  0
  -27.4810  -12.9640   19.2070 C   0  0  0  0  0  3  0  0  0  0  0  0
  -28.6720  -12.8870   20.1910 C   0  0  0  0  0  2  0  0  0  0  0  0
  -29.8940  -13.2050   19.4380 N   0  0  0  0  0  0  0  0  0  0  0  0
  -31.6160  -14.5050   18.7810 O   0  0  0  0  0  0  0  0  0  0  0  0
  -29.9610  -15.5070   19.9700 N   0  0  0  0  0  0  0  0  0  0  0  0
  -29.0070  -15.3530   20.2520 H   0  0  0  0  0  0  0  0  0  0  0  0
  -25.2150  -13.5530   20.2650 C   0  0  0  0  0  0  0  0  0  0  0  0
  -24.2020  -12.7780   20.7570 C   0  0  0  0  0  0  0  0  0  0  0  0
  -24.6440  -11.4230   20.6310 C   0  0  0  0  0  0  0  0  0  0  0  0
  -26.2100  -12.6750   19.8670 N   0  0  0  0  0  0  0  0  0  0  0  0
  -25.8800  -11.3880   20.1480 N   0  0  0  0  0  0  0  0  0  0  0  0
  -23.9410  -10.1620   20.8910 C   0  0  0  0  0  0  0  0  0  0  0  0
  -24.3770   -9.2670   21.8920 C   0  0  0  0  0  3  0  0  0  0  0  0
  -23.6730   -8.0660   22.1360 C   0  0  0  0  0  3  0  0  0  0  0  0
  -22.5200   -7.7540   21.3780 C   0  0  0  0  0  0  0  0  0  0  0  0
  -22.1030   -8.6390   20.3670 C   0  0  0  0  0  3  0  0  0  0  0  0
  -22.8080   -9.8300   20.1220 C   0  0  0  0  0  3  0  0  0  0  0  0
  -21.7880   -6.6010   21.5260 O   0  0  0  0  0  0  0  0  0  0  0  0
  -21.6200   -6.0060   22.7510 C   0  0  0  0  0  0  0  0  0  0  0  0
  -21.0000   -6.6780   23.8270 C   0  0  0  0  0  3  0  0  0  0  0  0
  -20.7890   -6.0060   25.0480 C   0  0  0  0  0  3  0  0  0  0  0  0
  -21.1880   -4.6640   25.1920 C   0  0  0  0  0  0  0  0  0  0  0  0
  -21.8010   -3.9920   24.1200 C   0  0  0  0  0  3  0  0  0  0  0  0
  -22.0160   -4.6610   22.9020 C   0  0  0  0  0  0  0  0  0  0  0  0
  -22.5870   -4.0030   21.8650 F   0  0  0  0  0  0  0  0  0  0  0  0
  -20.9790   -4.0160   26.3610 F   0  0  0  0  0  0  0  0  0  0  0  0
  -22.8610  -13.2530   21.2320 C   0  0  0  0  0  0  0  0  0  0  0  0
  -22.2760  -12.5620   22.2040 N   0  0  0  0  0  0  0  0  0  0  0  0
  -22.3480  -14.2740   20.7750 O   0  0  0  0  0  0  0  0  0  0  0  0
  -22.7040  -11.7330   22.5860 H   0  0  0  0  0  0  0  0  0  0  0  0
  -21.3810  -12.8630   22.5680 H   0  0  0  0  0  0  0  0  0  0  0  0
  -25.3630  -14.9280   20.0950 N   0  0  0  0  0  0  0  0  0  0  0  0
  -24.6200  -15.5780   20.3250 H   0  0  0  0  0  0  0  0  0  0  0  0
  -26.1460  -15.3710   19.6350 H   0  0  0  0  0  0  0  0  0  0  0  0
  1  7  1  0
  2  1  2  0
  3  1  1  0
  3  6  1  0
  5  4  1  0
  6 11  1  0
  6  4  1  0
  7  5  1  0
  7 52  1  0
  7  8  1  6
  9 10  1  0
 10  2  1  0
 12 23  2  0
 13 11  1  0
 13 18  1  0
 14 22  1  0
 14 24  1  0
 15 17  1  0
 16 22  1  0
 17 18  2  0
 17 16  1  0
 19 13  2  0
 20 19  1  0
 20 15  2  0
 21 15  1  0
 21 14  1  0
 22 12  1  0
 24 26  2  0
 25 24  1  0
 27 25  1  0
 28 37  2  0
 28 33  1  0
 29 25  1  0
 29 33  1  0
 30 29  1  0
 31 32  1  0
 31 30  1  0
 32 28  1  0
 33 34  2  0
 34 35  1  0
 36 35  2  0
 37 36  1  0
 38 12  1  0
 38 43  1  0
 38 39  1  0
 39 42  1  1
 39 40  1  0
 41 39  1  0
 43 46  1  0
 44 48  1  0
 44 43  1  0
 45 44  2  0
 48 47  1  0
 50 48  1  0
 50 51  1  0
 50 49  1  0
 53 54  1  0
 55 56  1  0
 56 53  2  0
 56 52  1  0
 57 55  2  0
 57 58  1  0
 58 54  2  0
 58 59  1  0
 60 66  1  0
 60 68  1  0
 61 66  1  0
 62 63  1  0
 62 61  1  0
 64 63  1  0
 64 73  1  0
 64 65  1  0
 66 65  1  0
 67 60  2  0
 68 57  1  0
 68 69  1  0
 70 71  2  0
 71 90  1  0
 72 71  1  0
 72 75  1  0
 73 74  1  0
 73 70  1  0
 74 72  2  0
 75 76  1  0
 76 77  2  0
 78 81  1  0
 78 77  1  0
 79 78  2  0
 80 79  1  0
 80 75  2  0
 81 82  1  0
 82 87  2  0
 82 83  1  0
 83 84  2  0
 84 85  1  0
 85 89  1  0
 86 85  2  0
 87 86  1  0
 88 87  1  0
 90 91  1  0
 91 94  1  0
 91 93  1  0
 92 90  2  0
 95 70  1  0
 95 96  1  0
 97 95  1  0
M  ISO  4   6 101  11 101  60 100  68 100
M  END
>  <TORSDO>  (42) 
F 19

>  <SCORE>  (42) 
-12.046

>  <name>  (42) 
41

>  <ligand_id>  (42) 
41

>  <original_smiles>  (42) 
[H]C(=C1C([H])([H])C([H])(Oc2c([H])c([H])c3c(c2[H])C([H])([H])N(C(=O)C([H])(N([H])C(=O)C([H])(N([H])C([H])([H])[H])C([H])([H])[H])C(C([H])([H])[H])(C([H])([H])[H])C([H])([H])[H])C([H])(C(=O)N([H])C2([H])c4c([H])c([H])c([H])c([H])c4C([H])([H])C([H])([H])C2([H])[H])C3([H])[H])C([H])([H])C([H])([H])[N+]1([H])C([H])([H])c1c([H])c([H])c(Cl)c(N([H])C(=O)N2C([H])([H])C([H])([H])C([H])([H])C([H])(n3nc(-c4c([H])c([H])c(Oc5c([H])c([H])c(F)c([H])c5F)c([H])c4[H])c(C(=O)N([H])[H])c3N([H])[H])C2([H])[H])c1[H])C([H])([H])C([H])([H])[H]

>  <smiles>  (42) 
[H]C(=C1C([H])([H])C([H])(Oc2c([H])c([H])c3c(c2[H])C([H])([H])N(C(=O)C([H])(N([H])C(=O)C([H])(N([H])C([H])([H])[H])C([H])([H])[H])C(C([H])([H])[H])(C([H])([H])[H])C([H])([H])[H])C([H])(C(=O)N([H])C2([H])c4c([H])c([H])c([H])c([H])c4C([H])([H])C([H])([H])C2([H])[H])C3([H])[H])C([H])([H])C([H])([H])[N+]1([H])C([H])([H])c1c([H])c([H])c(Cl)c(N([H])C(=O)N2C([H])([H])C([H])([H])C([H])([H])C([H])(n3nc(-c4c([H])c([H])c(Oc5c([H])c([H])c(F)c([H])c5F)c([H])c4[H])c(C(=O)N([H])[H])c3N([H])[H])C2([H])[H])c1[H])C([H])([H])C([H])([H])[H]

$$$$
42:0:0
     RDKit          3D

 91 99  0  0  1  0  0  0  0  0999 V2000
  -28.8370  -21.1560   19.7320 C   0  0  0  0  0  3  0  0  0  0  0  0
  -28.4460  -22.6400   19.6940 C   0  0  0  0  0  3  0  0  0  0  0  0
  -28.5250  -20.3430   18.4730 C   0  0  0  0  0  1  0  0  0  0  0  0
  -28.0000  -23.1700   18.3290 C   0  0  0  0  0  1  0  0  0  0  0  0
  -30.9310  -18.0870   21.8060 C   0  0  0  0  0  3  0  0  0  0  0  0
  -31.4430  -19.0140   22.7160 C   0  0  0  0  0  3  0  0  0  0  0  0
  -30.1680  -20.7640   21.6640 C   0  0  0  0  0  3  0  0  0  0  0  0
  -29.6120  -19.9380   20.6520 C   0  0  0  0  0  0  0  0  0  0  0  0
  -30.0220  -18.3560   20.7420 C   0  0  0  0  0  0  0  0  0  0  0  0
  -31.0570  -20.3430   22.6540 C   0  0  0  0  0  0  0  0  0  0  0  0
  -31.6890  -21.4800   23.7880 Cl  0  0  0  0  0  0  0  0  0  0  0  0
  -30.4600  -15.4780   20.1880 C   0  0  0  0  0  0  0  0  0  0  0  0
  -30.4420  -12.9980   19.3110 C   0  0  0  0  0  2  0  0  0  0  0  0
  -29.5120  -12.6890   18.1100 C   0  0  0  0  0  2  0  0  0  0  0  0
  -28.0850  -12.3790   18.5900 C   0  0  0  0  0  2  0  0  0  0  0  0
  -27.6220  -13.3780   19.6770 C   0  0  0  0  0  3  0  0  0  0  0  0
  -28.6840  -13.6210   20.7710 C   0  0  0  0  0  2  0  0  0  0  0  0
  -29.8690  -14.1710   20.0840 N   0  0  0  0  0  0  0  0  0  0  0  0
  -31.6930  -15.3990   20.0630 O   0  0  0  0  0  0  0  0  0  0  0  0
  -29.7610  -16.8340   20.1520 N   0  0  0  0  0  0  0  0  0  0  0  0
  -28.8130  -16.7240   19.8220 H   0  0  0  0  0  0  0  0  0  0  0  0
  -25.2760  -13.9350   20.4840 C   0  0  0  0  0  0  0  0  0  0  0  0
  -24.2160  -13.1600   20.8610 C   0  0  0  0  0  0  0  0  0  0  0  0
  -24.6790  -11.8080   20.8170 C   0  0  0  0  0  0  0  0  0  0  0  0
  -26.3100  -13.0580   20.2190 N   0  0  0  0  0  0  0  0  0  0  0  0
  -25.9670  -11.7720   20.4880 N   0  0  0  0  0  0  0  0  0  0  0  0
  -23.9500  -10.5470   21.0050 C   0  0  0  0  0  0  0  0  0  0  0  0
  -24.3880   -9.5690   21.9250 C   0  0  0  0  0  3  0  0  0  0  0  0
  -23.6550   -8.3760   22.1070 C   0  0  0  0  0  3  0  0  0  0  0  0
  -22.4690   -8.1520   21.3670 C   0  0  0  0  0  0  0  0  0  0  0  0
  -22.0500   -9.1170   20.4350 C   0  0  0  0  0  3  0  0  0  0  0  0
  -22.7850  -10.3010   20.2520 C   0  0  0  0  0  3  0  0  0  0  0  0
  -21.7070   -7.0130   21.4590 O   0  0  0  0  0  0  0  0  0  0  0  0
  -21.6650   -6.2640   22.6080 C   0  0  0  0  0  0  0  0  0  0  0  0
  -21.2520   -6.8140   23.8420 C   0  0  0  0  0  3  0  0  0  0  0  0
  -21.1600   -5.9920   24.9830 C   0  0  0  0  0  3  0  0  0  0  0  0
  -21.4710   -4.6220   24.8910 C   0  0  0  0  0  0  0  0  0  0  0  0
  -21.8770   -4.0720   23.6630 C   0  0  0  0  0  3  0  0  0  0  0  0
  -21.9710   -4.8910   22.5240 C   0  0  0  0  0  0  0  0  0  0  0  0
  -22.3430   -4.3520   21.3380 F   0  0  0  0  0  0  0  0  0  0  0  0
  -21.3740   -3.8300   25.9840 F   0  0  0  0  0  0  0  0  0  0  0  0
  -22.8260  -13.6410   21.1450 C   0  0  0  0  0  0  0  0  0  0  0  0
  -22.1050  -12.9460   22.0170 N   0  0  0  0  0  0  0  0  0  0  0  0
  -22.3880  -14.6700   20.6300 O   0  0  0  0  0  0  0  0  0  0  0  0
  -22.4740  -12.1140   22.4540 H   0  0  0  0  0  0  0  0  0  0  0  0
  -21.1700  -13.2480   22.2530 H   0  0  0  0  0  0  0  0  0  0  0  0
  -25.4440  -15.3070   20.3120 N   0  0  0  0  0  0  0  0  0  0  0  0
  -24.6860  -15.9700   20.4280 H   0  0  0  0  0  0  0  0  0  0  0  0
  -26.2990  -15.7370   19.9860 H   0  0  0  0  0  0  0  0  0  0  0  0
  -28.2480  -24.1430   20.6210 C   0  0  0  0  0  2  0  0  0  0  0  0
  -28.2750  -25.7890   20.2060 O   0  0  0  0  0  0  0  0  0  0  0  0
  -24.6440  -31.8610   23.1620 C   0  0  0  0  0  0  0  0  0  0  0  0
  -27.2370  -26.8910   20.2410 C   0  0  0  0  0  0  0  0  0  0  0  0
  -23.4690  -30.4430   21.5310 C   0  0  0  0  0  3  0  0  0  0  0  0
  -24.9340  -28.8090   20.1490 C   0  0  0  0  0  0  0  0  0  0  0  0
  -26.0400  -30.6430   21.4030 C   0  0  0  0  0  2  0  0  0  0  0  0
  -26.1190  -29.2140   20.7720 C   0  0  0  0  0  0  0  0  0  0  0  0
  -27.2650  -28.2840   20.7810 C   0  0  0  0  0  3  0  0  0  0  0  0
  -26.0120  -26.6500   19.5780 C   0  0  0  0  0  3  0  0  0  0  0  0
  -24.9090  -27.5470   19.5300 C   0  0  0  0  0  3  0  0  0  0  0  0
  -23.7140  -29.7360   20.1680 C   0  0  0  0  0  2  0  0  0  0  0  0
  -24.7410  -31.0130   22.0850 N   0  0  0  0  0  0  0  0  0  0  0  0
  -23.5490  -32.1520   23.6690 O   0  0  0  0  0  0  0  0  0  0  0  0
  -22.7680  -29.4600   22.5070 C   0  0  0  0  0  0  0  0  0  0  0  0
  -21.4360  -29.3070   22.3910 N   0  0  0  0  0  0  0  0  0  0  0  0
  -23.4310  -28.8360   23.3390 O   0  0  0  0  0  0  0  0  0  0  0  0
  -20.9530  -29.8640   21.6980 H   0  0  0  0  0  0  0  0  0  0  0  0
  -18.0440  -28.1280   22.9390 C   0  0  0  0  0  0  0  0  0  0  0  0
  -20.6110  -28.3750   23.1700 C   0  0  0  0  0  3  0  0  0  0  0  0
  -20.6920  -26.9430   22.5920 C   0  0  0  0  0  2  0  0  0  0  0  0
  -19.5740  -26.6290   21.5910 C   0  0  0  0  0  2  0  0  0  0  0  0
  -18.2010  -26.7830   22.2520 C   0  0  0  0  0  2  0  0  0  0  0  0
  -19.1740  -28.8820   23.3550 C   0  0  0  0  0  0  0  0  0  0  0  0
  -18.9690  -30.1410   23.9610 C   0  0  0  0  0  3  0  0  0  0  0  0
  -17.6680  -30.6460   24.1520 C   0  0  0  0  0  3  0  0  0  0  0  0
  -16.5540  -29.8900   23.7460 C   0  0  0  0  0  3  0  0  0  0  0  0
  -16.7430  -28.6330   23.1460 C   0  0  0  0  0  3  0  0  0  0  0  0
  -25.9040  -32.5200   23.8010 C   0  0  0  0  0  3  0  0  0  0  0  0
  -25.5690  -33.9170   24.1350 N   0  0  0  0  0  0  0  0  0  0  0  0
  -25.8890  -34.9860   23.3950 C   0  0  0  0  0  0  0  0  0  0  0  0
  -26.5620  -34.9000   22.3640 O   0  0  0  0  0  0  0  0  0  0  0  0
  -24.9730  -34.0560   24.9380 H   0  0  0  0  0  0  0  0  0  0  0  0
  -24.1470  -36.7740   23.0630 C   0  0  0  0  0  1  0  0  0  0  0  0
  -25.3900  -36.3670   23.8690 C   0  0  0  0  0  3  0  0  0  0  0  0
  -27.5150  -37.2670   24.7130 C   0  0  0  0  0  1  0  0  0  0  0  0
  -26.4120  -37.4320   23.7700 N   0  0  0  0  0  0  0  0  0  0  0  0
  -25.9950  -38.3470   23.9200 H   0  0  0  0  0  0  0  0  0  0  0  0
  -26.4120  -31.7640   25.0910 C   0  0  1  0  0  0  0  0  0  0  0  0
  -25.3090  -31.5300   26.1510 C   0  0  0  0  0  1  0  0  0  0  0  0
  -27.0110  -30.3870   24.7280 C   0  0  0  0  0  1  0  0  0  0  0  0
  -27.5480  -32.5760   25.7580 C   0  0  0  0  0  1  0  0  0  0  0  0
  1  3  1  0
  1  8  1  0
  2  4  1  0
  2  1  1  0
  2 50  1  0
  5  6  1  0
  7 10  1  0
  8  9  1  0
  8  7  2  0
  9  5  2  0
 10  6  2  0
 10 11  1  0
 13 18  1  0
 14 15  1  0
 14 13  1  0
 16 15  1  0
 16 25  1  0
 16 17  1  0
 18 12  1  0
 18 17  1  0
 19 12  2  0
 20 12  1  0
 20  9  1  0
 21 20  1  0
 22 23  2  0
 23 42  1  0
 24 23  1  0
 24 27  1  0
 25 22  1  0
 25 26  1  0
 26 24  2  0
 27 28  1  0
 28 29  2  0
 30 33  1  0
 30 29  1  0
 31 30  2  0
 32 31  1  0
 32 27  2  0
 33 34  1  0
 34 35  1  0
 35 36  2  0
 37 36  1  0
 37 41  1  0
 38 37  2  0
 39 34  2  0
 39 38  1  0
 40 39  1  0
 42 43  1  0
 43 46  1  0
 43 45  1  0
 44 42  2  0
 47 48  1  0
 47 22  1  0
 49 47  1  0
 51 53  1  0
 51 50  1  0
 52 63  2  0
 53 58  1  0
 54 62  1  0
 54 64  1  0
 55 61  1  0
 55 57  1  0
 56 62  1  0
 57 58  2  0
 57 56  1  0
 59 53  2  0
 60 59  1  0
 60 55  2  0
 61 54  1  0
 62 52  1  0
 64 66  2  0
 65 64  1  0
 67 65  1  0
 68 77  2  0
 68 73  1  0
 69 65  1  0
 69 73  1  0
 70 69  1  0
 71 72  1  0
 71 70  1  0
 72 68  1  0
 73 74  2  0
 74 75  1  0
 76 75  2  0
 77 76  1  0
 78 52  1  0
 78 79  1  0
 78 88  1  0
 79 82  1  0
 80 84  1  0
 80 79  1  0
 81 80  2  0
 84 83  1  0
 86 84  1  0
 86 87  1  0
 86 85  1  0
 88 91  1  1
 88 89  1  0
 90 88  1  0
M  ISO  4  12 100  20 100  50 101  51 101
M  END
>  <TORSDO>  (43) 
F 18

>  <SCORE>  (43) 
-16.577

>  <name>  (43) 
42

>  <ligand_id>  (43) 
42

>  <original_smiles>  (43) 
[H]c1c([H])c([H])c2c(c1[H])C([H])([H])C([H])([H])C([H])([H])C2([H])N([H])C(=O)C1([H])N(C(=O)C([H])(N([H])C(=O)C([H])(N([H])C([H])([H])[H])C([H])([H])[H])C(C([H])([H])[H])(C([H])([H])[H])C([H])([H])[H])C([H])([H])c2c([H])c(OC([H])([H])C(=C(c3c([H])c(Cl)c([H])c([H])c3N([H])C(=O)N3C([H])([H])C([H])([H])C([H])([H])C([H])(n4nc(-c5c([H])c([H])c(Oc6c([H])c([H])c(F)c([H])c6F)c([H])c5[H])c(C(=O)N([H])[H])c4N([H])[H])C3([H])[H])C([H])([H])[H])C([H])([H])[H])c([H])c([H])c2C1([H])[H]

>  <smiles>  (43) 
[H]c1c([H])c([H])c2c(c1[H])C([H])([H])C([H])([H])C([H])([H])C2([H])N([H])C(=O)C1([H])N(C(=O)C([H])(N([H])C(=O)C([H])(N([H])C([H])([H])[H])C([H])([H])[H])C(C([H])([H])[H])(C([H])([H])[H])C([H])([H])[H])C([H])([H])c2c([H])c(OC([H])([H])C(=C(c3c([H])c(Cl)c([H])c([H])c3N([H])C(=O)N3C([H])([H])C([H])([H])C([H])([H])C([H])(n4nc(-c5c([H])c([H])c(Oc6c([H])c([H])c(F)c([H])c6F)c([H])c5[H])c(C(=O)N([H])[H])c4N([H])[H])C3([H])[H])C([H])([H])[H])C([H])([H])[H])c([H])c([H])c2C1([H])[H]

$$$$
43:0:0
     RDKit          3D

 95104  0  0  1  0  0  0  0  0999 V2000
  -28.3340  -23.7630   20.4710 C   0  0  0  0  0  0  0  0  0  0  0  0
  -30.4980  -23.7490   18.5610 C   0  0  0  0  0  2  0  0  0  0  0  0
  -29.8770  -25.1250   18.9050 C   0  0  0  0  0  2  0  0  0  0  0  0
  -29.5390  -22.5500   18.7240 C   0  0  0  0  0  2  0  0  0  0  0  0
  -28.4840  -25.0980   19.5780 C   0  0  0  0  0  3  0  0  0  0  0  0
  -28.8500  -22.5450   20.0180 N   0  0  0  0  0  0  0  0  0  0  0  0
  -27.7000  -23.8350   21.5270 O   0  0  0  0  0  0  0  0  0  0  0  0
  -28.3360  -26.4510   20.2320 O   0  0  0  0  0  0  0  0  0  0  0  0
  -24.6080  -31.8890   23.2340 C   0  0  0  0  0  0  0  0  0  0  0  0
  -27.2090  -27.3030   20.1420 C   0  0  0  0  0  0  0  0  0  0  0  0
  -23.3980  -30.4940   21.5960 C   0  0  0  0  0  3  0  0  0  0  0  0
  -24.8420  -28.9460   20.1500 C   0  0  0  0  0  0  0  0  0  0  0  0
  -25.9390  -30.8050   21.4010 C   0  0  0  0  0  2  0  0  0  0  0  0
  -26.0150  -29.4250   20.7450 C   0  0  0  0  0  0  0  0  0  0  0  0
  -27.1940  -28.6130   20.7330 C   0  0  0  0  0  3  0  0  0  0  0  0
  -26.0080  -26.8850   19.5270 C   0  0  0  0  0  3  0  0  0  0  0  0
  -24.8450  -27.6840   19.5330 C   0  0  0  0  0  3  0  0  0  0  0  0
  -23.6030  -29.8200   20.2130 C   0  0  0  0  0  2  0  0  0  0  0  0
  -24.6690  -31.0820   22.1340 N   0  0  0  0  0  0  0  0  0  0  0  0
  -23.5250  -32.1630   23.7750 O   0  0  0  0  0  0  0  0  0  0  0  0
  -22.7410  -29.4750   22.5610 C   0  0  0  0  0  0  0  0  0  0  0  0
  -21.4140  -29.2920   22.4370 N   0  0  0  0  0  0  0  0  0  0  0  0
  -23.4220  -28.8540   23.3780 O   0  0  0  0  0  0  0  0  0  0  0  0
  -20.9210  -29.8500   21.7550 H   0  0  0  0  0  0  0  0  0  0  0  0
  -18.0420  -28.0820   22.9410 C   0  0  0  0  0  0  0  0  0  0  0  0
  -20.6000  -28.3470   23.2050 C   0  0  0  0  0  3  0  0  0  0  0  0
  -20.7060  -26.9190   22.6230 C   0  0  0  0  0  2  0  0  0  0  0  0
  -19.6020  -26.5960   21.6110 C   0  0  0  0  0  2  0  0  0  0  0  0
  -18.2210  -26.7360   22.2580 C   0  0  0  0  0  2  0  0  0  0  0  0
  -19.1600  -28.8460   23.3710 C   0  0  0  0  0  0  0  0  0  0  0  0
  -18.9370  -30.1070   23.9660 C   0  0  0  0  0  3  0  0  0  0  0  0
  -17.6310  -30.6010   24.1410 C   0  0  0  0  0  3  0  0  0  0  0  0
  -16.5280  -29.8330   23.7290 C   0  0  0  0  0  3  0  0  0  0  0  0
  -16.7350  -28.5740   23.1350 C   0  0  0  0  0  3  0  0  0  0  0  0
  -25.8900  -32.5250   23.8540 C   0  0  0  0  0  3  0  0  0  0  0  0
  -25.5830  -33.9230   24.1860 N   0  0  0  0  0  0  0  0  0  0  0  0
  -25.9060  -34.9770   23.4240 C   0  0  0  0  0  0  0  0  0  0  0  0
  -26.5650  -34.8740   22.3860 O   0  0  0  0  0  0  0  0  0  0  0  0
  -25.0040  -34.0800   24.9980 H   0  0  0  0  0  0  0  0  0  0  0  0
  -24.1760  -36.7720   23.0880 C   0  0  0  0  0  1  0  0  0  0  0  0
  -25.4240  -36.3660   23.8880 C   0  0  0  0  0  3  0  0  0  0  0  0
  -27.5630  -37.2530   24.7080 C   0  0  0  0  0  1  0  0  0  0  0  0
  -26.4570  -37.4190   23.7680 N   0  0  0  0  0  0  0  0  0  0  0  0
  -26.0510  -38.3400   23.9130 H   0  0  0  0  0  0  0  0  0  0  0  0
  -26.4080  -31.7570   25.1330 C   0  0  1  0  0  0  0  0  0  0  0  0
  -25.3160  -31.5210   26.2030 C   0  0  0  0  0  1  0  0  0  0  0  0
  -26.9930  -30.3800   24.7420 C   0  0  0  0  0  1  0  0  0  0  0  0
  -27.5600  -32.5530   25.7920 C   0  0  0  0  0  1  0  0  0  0  0  0
  -28.5110  -21.1340   20.5430 C   0  0  0  0  0  2  0  0  0  0  0  0
  -31.7370  -19.0680   21.4690 C   0  0  0  0  0  3  0  0  0  0  0  0
  -31.3870  -17.7290   21.2240 C   0  0  0  0  0  3  0  0  0  0  0  0
  -30.8400  -20.1370   21.2520 C   0  0  0  0  0  0  0  0  0  0  0  0
  -29.5440  -19.9050   20.7150 C   0  0  0  0  0  0  0  0  0  0  0  0
  -29.2020  -18.4940   20.4760 C   0  0  0  0  0  0  0  0  0  0  0  0
  -30.1130  -17.3740   20.7360 C   0  0  0  0  0  0  0  0  0  0  0  0
  -31.3170  -21.5200   21.6620 C   0  0  0  0  0  1  0  0  0  0  0  0
  -27.8170  -18.1760   19.9330 C   0  0  0  0  0  1  0  0  0  0  0  0
  -30.5680  -14.7960   20.4120 C   0  0  0  0  0  0  0  0  0  0  0  0
  -30.3820  -12.5300   19.3710 C   0  0  0  0  0  2  0  0  0  0  0  0
  -29.4490  -12.6120   18.1430 C   0  0  0  0  0  2  0  0  0  0  0  0
  -27.9780  -12.4270   18.5660 C   0  0  0  0  0  2  0  0  0  0  0  0
  -27.5930  -13.3020   19.7900 C   0  0  0  0  0  3  0  0  0  0  0  0
  -28.6470  -13.2080   20.9140 C   0  0  0  0  0  2  0  0  0  0  0  0
  -29.9420  -13.5720   20.3270 N   0  0  0  0  0  0  0  0  0  0  0  0
  -31.7600  -14.8850   20.1040 O   0  0  0  0  0  0  0  0  0  0  0  0
  -29.7770  -15.9260   20.6030 N   0  0  0  0  0  0  0  0  0  0  0  0
  -28.7940  -15.7110   20.6690 H   0  0  0  0  0  0  0  0  0  0  0  0
  -25.1980  -13.8740   20.5090 C   0  0  0  0  0  0  0  0  0  0  0  0
  -24.1350  -13.0900   20.8670 C   0  0  0  0  0  0  0  0  0  0  0  0
  -24.6090  -11.7430   20.8360 C   0  0  0  0  0  0  0  0  0  0  0  0
  -26.2490  -13.0030   20.2730 N   0  0  0  0  0  0  0  0  0  0  0  0
  -25.9010  -11.7150   20.5330 N   0  0  0  0  0  0  0  0  0  0  0  0
  -23.8900  -10.4750   21.0150 C   0  0  0  0  0  0  0  0  0  0  0  0
  -24.3130   -9.5150   21.9600 C   0  0  0  0  0  3  0  0  0  0  0  0
  -23.5940   -8.3120   22.1280 C   0  0  0  0  0  3  0  0  0  0  0  0
  -22.4390   -8.0610   21.3500 C   0  0  0  0  0  0  0  0  0  0  0  0
  -22.0360   -9.0100   20.3950 C   0  0  0  0  0  3  0  0  0  0  0  0
  -22.7550  -10.2050   20.2250 C   0  0  0  0  0  3  0  0  0  0  0  0
  -21.6930   -6.9100   21.4260 O   0  0  0  0  0  0  0  0  0  0  0  0
  -21.6160   -6.1770   22.5830 C   0  0  0  0  0  0  0  0  0  0  0  0
  -21.1170   -6.7290   23.7830 C   0  0  0  0  0  3  0  0  0  0  0  0
  -20.9900   -5.9200   24.9310 C   0  0  0  0  0  3  0  0  0  0  0  0
  -21.3530   -4.5620   24.8780 C   0  0  0  0  0  0  0  0  0  0  0  0
  -21.8460   -4.0080   23.6830 C   0  0  0  0  0  3  0  0  0  0  0  0
  -21.9740   -4.8140   22.5380 C   0  0  0  0  0  0  0  0  0  0  0  0
  -22.4290   -4.2710   21.3830 F   0  0  0  0  0  0  0  0  0  0  0  0
  -21.2240   -3.7830   25.9780 F   0  0  0  0  0  0  0  0  0  0  0  0
  -22.7330  -13.5570   21.1300 C   0  0  0  0  0  0  0  0  0  0  0  0
  -22.0010  -12.8500   21.9840 N   0  0  0  0  0  0  0  0  0  0  0  0
  -22.2950  -14.5840   20.6150 O   0  0  0  0  0  0  0  0  0  0  0  0
  -22.3680  -12.0190   22.4220 H   0  0  0  0  0  0  0  0  0  0  0  0
  -21.0600  -13.1440   22.2010 H   0  0  0  0  0  0  0  0  0  0  0  0
  -25.3520  -15.2460   20.3380 N   0  0  0  0  0  0  0  0  0  0  0  0
  -24.5740  -15.8880   20.4490 H   0  0  0  0  0  0  0  0  0  0  0  0
  -26.1830  -15.6890   19.9760 H   0  0  0  0  0  0  0  0  0  0  0  0
  1  7  2  0
  2  4  1  0
  2  3  1  0
  3  5  1  0
  4  6  1  0
  5  8  1  0
  5  1  1  0
  6  1  1  0
  6 49  1  0
  9 20  2  0
 10  8  1  0
 10 15  1  0
 11 19  1  0
 11 21  1  0
 12 18  1  0
 12 14  1  0
 13 19  1  0
 14 13  1  0
 15 14  2  0
 16 17  1  0
 16 10  2  0
 17 12  2  0
 18 11  1  0
 19  9  1  0
 21 23  2  0
 22 21  1  0
 24 22  1  0
 25 34  2  0
 25 30  1  0
 26 22  1  0
 26 30  1  0
 27 26  1  0
 28 29  1  0
 28 27  1  0
 29 25  1  0
 30 31  2  0
 31 32  1  0
 33 32  2  0
 34 33  1  0
 35  9  1  0
 35 36  1  0
 35 45  1  0
 36 39  1  0
 37 41  1  0
 37 36  1  0
 38 37  2  0
 41 40  1  0
 43 41  1  0
 43 44  1  0
 43 42  1  0
 45 48  1  1
 45 46  1  0
 47 45  1  0
 49 53  1  0
 51 50  2  0
 52 50  1  0
 52 56  1  0
 53 52  2  0
 54 53  1  0
 54 55  2  0
 55 51  1  0
 57 54  1  0
 58 66  1  0
 59 64  1  0
 60 61  1  0
 60 59  1  0
 62 61  1  0
 62 71  1  0
 62 63  1  0
 64 58  1  0
 64 63  1  0
 65 58  2  0
 66 67  1  0
 66 55  1  0
 68 69  2  0
 69 88  1  0
 70 69  1  0
 70 73  1  0
 71 68  1  0
 71 72  1  0
 72 70  2  0
 73 74  1  0
 74 75  2  0
 76 79  1  0
 76 75  1  0
 77 76  2  0
 78 77  1  0
 78 73  2  0
 79 80  1  0
 80 81  1  0
 81 82  2  0
 83 82  1  0
 83 87  1  0
 84 83  2  0
 85 80  2  0
 85 84  1  0
 86 85  1  0
 88 89  1  0
 89 92  1  0
 89 91  1  0
 90 88  2  0
 93 94  1  0
 93 68  1  0
 95 93  1  0
M  ISO  4   5 101   8 101  58 100  66 100
M  END
>  <TORSDO>  (44) 
F 18

>  <SCORE>  (44) 
-15.316

>  <name>  (44) 
43

>  <ligand_id>  (44) 
43

>  <original_smiles>  (44) 
[H]c1c([H])c([H])c2c(c1[H])C([H])([H])C([H])([H])C([H])([H])C2([H])N([H])C(=O)C1([H])N(C(=O)C([H])(N([H])C(=O)C([H])(N([H])C([H])([H])[H])C([H])([H])[H])C(C([H])([H])[H])(C([H])([H])[H])C([H])([H])[H])C([H])([H])c2c([H])c(OC3([H])C(=O)N(C([H])([H])c4c(C([H])([H])[H])c([H])c([H])c(N([H])C(=O)N5C([H])([H])C([H])([H])C([H])([H])C([H])(n6nc(-c7c([H])c([H])c(Oc8c([H])c([H])c(F)c([H])c8F)c([H])c7[H])c(C(=O)N([H])[H])c6N([H])[H])C5([H])[H])c4C([H])([H])[H])C([H])([H])C([H])([H])C3([H])[H])c([H])c([H])c2C1([H])[H]

>  <smiles>  (44) 
[H]c1c([H])c([H])c2c(c1[H])C([H])([H])C([H])([H])C([H])([H])C2([H])N([H])C(=O)C1([H])N(C(=O)C([H])(N([H])C(=O)C([H])(N([H])C([H])([H])[H])C([H])([H])[H])C(C([H])([H])[H])(C([H])([H])[H])C([H])([H])[H])C([H])([H])c2c([H])c(OC3([H])C(=O)N(C([H])([H])c4c(C([H])([H])[H])c([H])c([H])c(N([H])C(=O)N5C([H])([H])C([H])([H])C([H])([H])C([H])(n6nc(-c7c([H])c([H])c(Oc8c([H])c([H])c(F)c([H])c8F)c([H])c7[H])c(C(=O)N([H])[H])c6N([H])[H])C5([H])[H])c4C([H])([H])[H])C([H])([H])C([H])([H])C3([H])[H])c([H])c([H])c2C1([H])[H]

$$$$
44:0:0
     RDKit          3D

 96105  0  0  1  0  0  0  0  0999 V2000
  -29.5130  -21.3410   19.6810 C   0  0  0  0  0  2  0  0  0  0  0  0
  -30.5560  -18.1670   21.9730 C   0  0  0  0  0  3  0  0  0  0  0  0
  -30.7130  -20.2360   23.1960 C   0  0  0  0  0  3  0  0  0  0  0  0
  -30.0710  -18.8090   20.8050 C   0  0  0  0  0  0  0  0  0  0  0  0
  -29.9070  -20.2980   20.8430 C   0  0  0  0  0  0  0  0  0  0  0  0
  -30.2550  -20.9360   22.0710 C   0  0  0  0  0  0  0  0  0  0  0  0
  -30.8790  -18.8530   23.1470 C   0  0  0  0  0  0  0  0  0  0  0  0
  -30.2000  -22.2800   22.1960 F   0  0  0  0  0  0  0  0  0  0  0  0
  -31.5090  -17.9890   24.5000 Cl  0  0  0  0  0  0  0  0  0  0  0  0
  -29.9190  -17.7380   19.6390 C   0  0  0  0  0  2  0  0  0  0  0  0
  -30.5500  -15.1270   19.6360 C   0  0  0  0  0  0  0  0  0  0  0  0
  -30.3430  -12.8250   18.6830 C   0  0  0  0  0  2  0  0  0  0  0  0
  -29.2630  -12.7880   17.5770 C   0  0  0  0  0  2  0  0  0  0  0  0
  -27.8590  -12.5770   18.1710 C   0  0  0  0  0  2  0  0  0  0  0  0
  -27.5780  -13.4870   19.3950 C   0  0  0  0  0  3  0  0  0  0  0  0
  -28.7560  -13.4860   20.3980 C   0  0  0  0  0  2  0  0  0  0  0  0
  -29.9670  -13.8760   19.6600 N   0  0  0  0  0  0  0  0  0  0  0  0
  -31.6760  -15.2640   19.1520 O   0  0  0  0  0  0  0  0  0  0  0  0
  -29.7720  -16.2310   19.9620 N   0  0  0  0  0  0  0  0  0  0  0  0
  -28.8680  -15.9910   20.3370 H   0  0  0  0  0  0  0  0  0  0  0  0
  -25.3080  -14.0060   20.4790 C   0  0  0  0  0  0  0  0  0  0  0  0
  -24.2900  -13.1950   20.9120 C   0  0  0  0  0  0  0  0  0  0  0  0
  -24.7350  -11.8540   20.7010 C   0  0  0  0  0  0  0  0  0  0  0  0
  -26.3040  -13.1520   20.0300 N   0  0  0  0  0  0  0  0  0  0  0  0
  -25.9730  -11.8490   20.2260 N   0  0  0  0  0  0  0  0  0  0  0  0
  -24.0270  -10.5770   20.8660 C   0  0  0  0  0  0  0  0  0  0  0  0
  -24.4970   -9.5790   21.7460 C   0  0  0  0  0  3  0  0  0  0  0  0
  -23.7870   -8.3690   21.9010 C   0  0  0  0  0  3  0  0  0  0  0  0
  -22.5930   -8.1490   21.1760 C   0  0  0  0  0  0  0  0  0  0  0  0
  -22.1430   -9.1350   20.2800 C   0  0  0  0  0  3  0  0  0  0  0  0
  -22.8540  -10.3370   20.1230 C   0  0  0  0  0  3  0  0  0  0  0  0
  -21.8490   -6.9940   21.2500 O   0  0  0  0  0  0  0  0  0  0  0  0
  -21.7840   -6.2510   22.4010 C   0  0  0  0  0  0  0  0  0  0  0  0
  -21.2490   -6.7730   23.5990 C   0  0  0  0  0  3  0  0  0  0  0  0
  -21.1380   -5.9510   24.7370 C   0  0  0  0  0  3  0  0  0  0  0  0
  -21.5520   -4.6070   24.6800 C   0  0  0  0  0  0  0  0  0  0  0  0
  -22.0810   -4.0830   23.4880 C   0  0  0  0  0  3  0  0  0  0  0  0
  -22.1930   -4.9020   22.3500 C   0  0  0  0  0  0  0  0  0  0  0  0
  -22.6840   -4.3860   21.1980 F   0  0  0  0  0  0  0  0  0  0  0  0
  -21.4400   -3.8150   25.7730 F   0  0  0  0  0  0  0  0  0  0  0  0
  -22.9450  -13.6380   21.4070 C   0  0  0  0  0  0  0  0  0  0  0  0
  -22.3300  -12.8490   22.2840 N   0  0  0  0  0  0  0  0  0  0  0  0
  -22.4520  -14.7090   21.0570 O   0  0  0  0  0  0  0  0  0  0  0  0
  -22.7440  -11.9790   22.5840 H   0  0  0  0  0  0  0  0  0  0  0  0
  -21.4310  -13.1140   22.6610 H   0  0  0  0  0  0  0  0  0  0  0  0
  -25.4580  -15.3860   20.4030 N   0  0  0  0  0  0  0  0  0  0  0  0
  -24.7500  -16.0350   20.7330 H   0  0  0  0  0  0  0  0  0  0  0  0
  -26.2380  -15.8550   19.9630 H   0  0  0  0  0  0  0  0  0  0  0  0
  -29.0550  -24.0010   19.7190 C   0  0  0  0  0  0  0  0  0  0  0  0
  -26.8910  -23.4130   21.4740 C   0  0  0  0  0  2  0  0  0  0  0  0
  -27.0360  -24.8970   21.0640 C   0  0  0  0  0  2  0  0  0  0  0  0
  -27.3160  -22.4380   20.3500 C   0  0  0  0  0  2  0  0  0  0  0  0
  -27.9080  -25.1380   19.8100 C   0  0  0  0  0  3  0  0  0  0  0  0
  -28.7090  -22.6540   19.9320 N   0  0  0  0  0  0  0  0  0  0  0  0
  -30.2020  -24.3390   19.4140 O   0  0  0  0  0  0  0  0  0  0  0  0
  -28.2490  -26.6240   19.7340 O   0  0  0  0  0  0  0  0  0  0  0  0
  -24.5960  -31.9150   23.1740 C   0  0  0  0  0  0  0  0  0  0  0  0
  -27.1670  -27.5500   19.7480 C   0  0  0  0  0  0  0  0  0  0  0  0
  -23.3680  -30.6120   21.4800 C   0  0  0  0  0  3  0  0  0  0  0  0
  -24.7970  -29.1850   19.9000 C   0  0  0  0  0  0  0  0  0  0  0  0
  -25.9030  -30.9540   21.2600 C   0  0  0  0  0  2  0  0  0  0  0  0
  -25.9790  -29.6210   20.5140 C   0  0  0  0  0  0  0  0  0  0  0  0
  -27.1650  -28.8180   20.4320 C   0  0  0  0  0  3  0  0  0  0  0  0
  -25.9650  -27.2110   19.0830 C   0  0  0  0  0  3  0  0  0  0  0  0
  -24.7970  -27.9880   19.1700 C   0  0  0  0  0  3  0  0  0  0  0  0
  -23.5520  -30.0390   20.0510 C   0  0  0  0  0  2  0  0  0  0  0  0
  -24.6430  -31.1760   22.0270 N   0  0  0  0  0  0  0  0  0  0  0  0
  -23.5220  -32.1460   23.7510 O   0  0  0  0  0  0  0  0  0  0  0  0
  -22.7380  -29.5270   22.3860 C   0  0  0  0  0  0  0  0  0  0  0  0
  -21.4140  -29.3280   22.2670 N   0  0  0  0  0  0  0  0  0  0  0  0
  -23.4410  -28.8690   23.1570 O   0  0  0  0  0  0  0  0  0  0  0  0
  -20.9020  -29.9130   21.6210 H   0  0  0  0  0  0  0  0  0  0  0  0
  -18.0640  -28.0560   22.7800 C   0  0  0  0  0  0  0  0  0  0  0  0
  -20.6280  -28.3280   22.9910 C   0  0  0  0  0  3  0  0  0  0  0  0
  -20.7270  -26.9450   22.3100 C   0  0  0  0  0  2  0  0  0  0  0  0
  -19.5960  -26.6830   21.3080 C   0  0  0  0  0  2  0  0  0  0  0  0
  -18.2350  -26.7620   22.0020 C   0  0  0  0  0  2  0  0  0  0  0  0
  -19.1880  -28.8010   23.2300 C   0  0  0  0  0  0  0  0  0  0  0  0
  -18.9730  -30.0150   23.9190 C   0  0  0  0  0  3  0  0  0  0  0  0
  -17.6680  -30.4840   24.1610 C   0  0  0  0  0  3  0  0  0  0  0  0
  -16.5600  -29.7360   23.7270 C   0  0  0  0  0  3  0  0  0  0  0  0
  -16.7600  -28.5250   23.0420 C   0  0  0  0  0  3  0  0  0  0  0  0
  -25.8850  -32.5260   23.8040 C   0  0  0  0  0  3  0  0  0  0  0  0
  -26.3940  -31.7250   25.0670 C   0  0  1  0  0  0  0  0  0  0  0  0
  -25.2980  -31.4670   26.1270 C   0  0  0  0  0  1  0  0  0  0  0  0
  -26.9740  -30.3540   24.6490 C   0  0  0  0  0  1  0  0  0  0  0  0
  -27.5460  -32.5030   25.7480 C   0  0  0  0  0  1  0  0  0  0  0  0
  -25.5880  -33.9210   24.1640 N   0  0  0  0  0  0  0  0  0  0  0  0
  -25.9010  -34.9840   23.4120 C   0  0  0  0  0  0  0  0  0  0  0  0
  -26.5410  -34.8950   22.3600 O   0  0  0  0  0  0  0  0  0  0  0  0
  -25.0190  -34.0640   24.9840 H   0  0  0  0  0  0  0  0  0  0  0  0
  -24.1650  -36.7850   23.1420 C   0  0  0  0  0  1  0  0  0  0  0  0
  -25.4330  -36.3680   23.9040 C   0  0  0  0  0  3  0  0  0  0  0  0
  -27.5870  -37.2510   24.6850 C   0  0  0  0  0  1  0  0  0  0  0  0
  -26.4620  -37.4210   23.7700 N   0  0  0  0  0  0  0  0  0  0  0  0
  -26.0590  -38.3410   23.9300 H   0  0  0  0  0  0  0  0  0  0  0  0
  1 54  1  0
  1  5  1  0
  2  7  1  0
  4  5  1  0
  4  2  2  0
  5  6  2  0
  6  8  1  0
  6  3  1  0
  7  3  2  0
  7  9  1  0
 10 19  1  0
 10  4  1  0
 11 17  1  0
 11 19  1  0
 12 17  1  0
 13 14  1  0
 13 12  1  0
 15 14  1  0
 15 24  1  0
 15 16  1  0
 17 16  1  0
 18 11  2  0
 19 20  1  0
 21 22  2  0
 22 41  1  0
 23 26  1  0
 23 22  1  0
 24 25  1  0
 24 21  1  0
 25 23  2  0
 26 27  1  0
 27 28  2  0
 29 32  1  0
 29 28  1  0
 30 29  2  0
 31 30  1  0
 31 26  2  0
 32 33  1  0
 33 34  1  0
 34 35  2  0
 36 35  1  0
 36 40  1  0
 37 36  2  0
 38 33  2  0
 38 37  1  0
 39 38  1  0
 41 42  1  0
 42 44  1  0
 42 45  1  0
 43 41  2  0
 46 21  1  0
 46 47  1  0
 48 46  1  0
 49 53  1  0
 49 54  1  0
 51 50  1  0
 52 50  1  0
 53 56  1  0
 53 51  1  0
 54 52  1  0
 55 49  2  0
 56 58  1  0
 57 68  2  0
 58 63  1  0
 59 67  1  0
 59 69  1  0
 60 66  1  0
 60 62  1  0
 61 67  1  0
 62 61  1  0
 63 62  2  0
 64 65  1  0
 64 58  2  0
 65 60  2  0
 66 59  1  0
 67 57  1  0
 69 71  2  0
 70 69  1  0
 72 70  1  0
 73 82  2  0
 73 78  1  0
 74 70  1  0
 74 78  1  0
 75 74  1  0
 76 77  1  0
 76 75  1  0
 77 73  1  0
 78 79  2  0
 79 80  1  0
 81 80  2  0
 82 81  1  0
 83 57  1  0
 83 88  1  0
 83 84  1  0
 84 87  1  1
 84 85  1  0
 86 84  1  0
 88 91  1  0
 89 93  1  0
 89 88  1  0
 90 89  2  0
 93 92  1  0
 95 93  1  0
 95 96  1  0
 95 94  1  0
M  ISO  4  11 100  19 100  53 101  56 101
M  END
>  <TORSDO>  (45) 
F 19

>  <SCORE>  (45) 
-11.491

>  <name>  (45) 
44

>  <ligand_id>  (45) 
44

>  <original_smiles>  (45) 
[H]c1c([H])c([H])c2c(c1[H])C([H])([H])C([H])([H])C([H])([H])C2([H])N([H])C(=O)C1([H])N(C(=O)C([H])(N([H])C(=O)C([H])(N([H])C([H])([H])[H])C([H])([H])[H])C(C([H])([H])[H])(C([H])([H])[H])C([H])([H])[H])C([H])([H])c2c([H])c(OC3([H])C(=O)N(C([H])([H])c4c(F)c([H])c(Cl)c([H])c4C([H])([H])N([H])C(=O)N4C([H])([H])C([H])([H])C([H])([H])C([H])(n5nc(-c6c([H])c([H])c(Oc7c([H])c([H])c(F)c([H])c7F)c([H])c6[H])c(C(=O)N([H])[H])c5N([H])[H])C4([H])[H])C([H])([H])C([H])([H])C3([H])[H])c([H])c([H])c2C1([H])[H]

>  <smiles>  (45) 
[H]c1c([H])c([H])c2c(c1[H])C([H])([H])C([H])([H])C([H])([H])C2([H])N([H])C(=O)C1([H])N(C(=O)C([H])(N([H])C(=O)C([H])(N([H])C([H])([H])[H])C([H])([H])[H])C(C([H])([H])[H])(C([H])([H])[H])C([H])([H])[H])C([H])([H])c2c([H])c(OC3([H])C(=O)N(C([H])([H])c4c(F)c([H])c(Cl)c([H])c4C([H])([H])N([H])C(=O)N4C([H])([H])C([H])([H])C([H])([H])C([H])(n5nc(-c6c([H])c([H])c(Oc7c([H])c([H])c(F)c([H])c7F)c([H])c6[H])c(C(=O)N([H])[H])c5N([H])[H])C4([H])[H])C([H])([H])C([H])([H])C3([H])[H])c([H])c([H])c2C1([H])[H]

$$$$
45:0:0
     RDKit          3D

 96104  0  0  1  0  0  0  0  0999 V2000
  -28.1940  -21.9040   20.1480 C   0  0  0  0  0  0  0  0  0  0  0  0
  -26.8810  -21.9630   20.3660 N   0  0  0  0  0  4  0  0  0  0  0  0
  -28.9130  -23.0480   20.2670 N   0  0  0  0  0  0  0  0  0  0  0  0
  -26.3390  -21.1180   20.2670 H   0  0  0  0  0  0  0  0  0  0  0  0
  -26.4000  -22.8090   20.6200 H   0  0  0  0  0  0  0  0  0  0  0  0
  -29.9060  -22.9560   20.0900 H   0  0  0  0  0  0  0  0  0  0  0  0
  -28.3130  -20.1560   18.4360 C   0  0  0  0  0  3  0  0  0  0  0  0
  -29.3770  -17.9840   18.7360 C   0  0  0  0  0  3  0  0  0  0  0  0
  -28.7420  -20.5820   19.7110 C   0  0  0  0  0  0  0  0  0  0  0  0
  -28.6360  -18.8790   17.9430 C   0  0  0  0  0  0  0  0  0  0  0  0
  -29.8240  -18.3490   20.0240 C   0  0  0  0  0  0  0  0  0  0  0  0
  -29.5340  -19.6780   20.5050 C   0  0  0  0  0  0  0  0  0  0  0  0
  -28.1740  -18.4640   16.5590 C   0  0  0  0  0  1  0  0  0  0  0  0
  -30.0360  -20.1020   21.8800 C   0  0  0  0  0  1  0  0  0  0  0  0
  -30.6330  -17.2950   20.8350 C   0  0  0  0  0  2  0  0  0  0  0  0
  -30.9700  -14.8250   20.2270 C   0  0  0  0  0  0  0  0  0  0  0  0
  -30.6690  -12.6460   19.0920 C   0  0  0  0  0  2  0  0  0  0  0  0
  -29.6960  -12.8320   17.9080 C   0  0  0  0  0  2  0  0  0  0  0  0
  -28.2300  -12.6970   18.3690 C   0  0  0  0  0  2  0  0  0  0  0  0
  -27.9230  -13.5360   19.6370 C   0  0  0  0  0  3  0  0  0  0  0  0
  -29.0020  -13.3220   20.7210 C   0  0  0  0  0  2  0  0  0  0  0  0
  -30.3080  -13.6360   20.1190 N   0  0  0  0  0  0  0  0  0  0  0  0
  -32.1090  -14.9860   19.7820 O   0  0  0  0  0  0  0  0  0  0  0  0
  -30.2370  -15.8660   20.6910 N   0  0  0  0  0  0  0  0  0  0  0  0
  -29.3080  -15.6330   21.0090 H   0  0  0  0  0  0  0  0  0  0  0  0
  -25.5540  -14.1620   20.4170 C   0  0  0  0  0  0  0  0  0  0  0  0
  -24.4850  -13.3980   20.8000 C   0  0  0  0  0  0  0  0  0  0  0  0
  -24.9270  -12.0410   20.7370 C   0  0  0  0  0  0  0  0  0  0  0  0
  -26.5800  -13.2700   20.1470 N   0  0  0  0  0  0  0  0  0  0  0  0
  -26.2080  -11.9890   20.3980 N   0  0  0  0  0  0  0  0  0  0  0  0
  -24.1880  -10.7840   20.9230 C   0  0  0  0  0  0  0  0  0  0  0  0
  -24.5830   -9.8310   21.8870 C   0  0  0  0  0  3  0  0  0  0  0  0
  -23.8450   -8.6410   22.0610 C   0  0  0  0  0  3  0  0  0  0  0  0
  -22.6980   -8.3950   21.2680 C   0  0  0  0  0  0  0  0  0  0  0  0
  -22.3240   -9.3370   20.2930 C   0  0  0  0  0  3  0  0  0  0  0  0
  -23.0620  -10.5190   20.1190 C   0  0  0  0  0  3  0  0  0  0  0  0
  -21.9360   -7.2540   21.3480 O   0  0  0  0  0  0  0  0  0  0  0  0
  -21.7870   -6.5680   22.5270 C   0  0  0  0  0  0  0  0  0  0  0  0
  -21.2100   -7.1670   23.6680 C   0  0  0  0  0  3  0  0  0  0  0  0
  -21.0140   -6.4060   24.8390 C   0  0  0  0  0  3  0  0  0  0  0  0
  -21.3810   -5.0480   24.8660 C   0  0  0  0  0  0  0  0  0  0  0  0
  -21.9510   -4.4480   23.7280 C   0  0  0  0  0  3  0  0  0  0  0  0
  -22.1490   -5.2070   22.5610 C   0  0  0  0  0  0  0  0  0  0  0  0
  -22.6790   -4.6200   21.4610 F   0  0  0  0  0  0  0  0  0  0  0  0
  -21.1850   -4.3140   25.9860 F   0  0  0  0  0  0  0  0  0  0  0  0
  -23.1020  -13.8890   21.1140 C   0  0  0  0  0  0  0  0  0  0  0  0
  -22.3910  -13.1940   21.9960 N   0  0  0  0  0  0  0  0  0  0  0  0
  -22.6610  -14.9220   20.6100 O   0  0  0  0  0  0  0  0  0  0  0  0
  -22.7610  -12.3580   22.4210 H   0  0  0  0  0  0  0  0  0  0  0  0
  -21.4620  -13.5050   22.2480 H   0  0  0  0  0  0  0  0  0  0  0  0
  -25.7360  -15.5320   20.2580 N   0  0  0  0  0  0  0  0  0  0  0  0
  -24.9820  -16.1980   20.3940 H   0  0  0  0  0  0  0  0  0  0  0  0
  -26.5820  -15.9640   19.9090 H   0  0  0  0  0  0  0  0  0  0  0  0
  -28.4500  -24.4140   20.7000 C   0  0  0  0  0  3  0  0  0  0  0  0
  -28.7590  -25.5720   19.6950 C   0  0  0  0  0  3  0  0  0  0  0  0
  -28.6270  -26.9220   20.2250 O   0  0  0  0  0  0  0  0  0  0  0  0
  -24.6750  -32.0280   23.3020 C   0  0  0  0  0  0  0  0  0  0  0  0
  -27.4240  -27.6190   20.2050 C   0  0  0  0  0  0  0  0  0  0  0  0
  -23.5090  -30.6140   21.6440 C   0  0  0  0  0  3  0  0  0  0  0  0
  -24.9990  -29.1100   20.2180 C   0  0  0  0  0  0  0  0  0  0  0  0
  -26.0320  -31.0140   21.4640 C   0  0  0  0  0  2  0  0  0  0  0  0
  -26.1470  -29.6440   20.8140 C   0  0  0  0  0  0  0  0  0  0  0  0
  -27.3580  -28.9080   20.8000 C   0  0  0  0  0  3  0  0  0  0  0  0
  -26.2470  -27.1060   19.6110 C   0  0  0  0  0  3  0  0  0  0  0  0
  -25.0460  -27.8430   19.6130 C   0  0  0  0  0  3  0  0  0  0  0  0
  -23.7400  -29.9490   20.2620 C   0  0  0  0  0  2  0  0  0  0  0  0
  -24.7570  -31.2350   22.1940 N   0  0  0  0  0  0  0  0  0  0  0  0
  -23.5850  -32.2740   23.8350 O   0  0  0  0  0  0  0  0  0  0  0  0
  -22.8710  -29.5740   22.5940 C   0  0  0  0  0  0  0  0  0  0  0  0
  -21.5550  -29.3500   22.4420 N   0  0  0  0  0  0  0  0  0  0  0  0
  -23.5570  -28.9710   23.4230 O   0  0  0  0  0  0  0  0  0  0  0  0
  -21.0590  -29.8950   21.7490 H   0  0  0  0  0  0  0  0  0  0  0  0
  -18.2110  -28.0480   22.8790 C   0  0  0  0  0  0  0  0  0  0  0  0
  -20.7540  -28.3860   23.1960 C   0  0  0  0  0  3  0  0  0  0  0  0
  -20.9110  -26.9600   22.6200 C   0  0  0  0  0  2  0  0  0  0  0  0
  -19.8370  -26.6040   21.5860 C   0  0  0  0  0  2  0  0  0  0  0  0
  -18.4410  -26.7060   22.2050 C   0  0  0  0  0  2  0  0  0  0  0  0
  -19.2980  -28.8440   23.3300 C   0  0  0  0  0  0  0  0  0  0  0  0
  -19.0280  -30.0990   23.9190 C   0  0  0  0  0  3  0  0  0  0  0  0
  -17.7060  -30.5600   24.0590 C   0  0  0  0  0  3  0  0  0  0  0  0
  -16.6340  -29.7610   23.6250 C   0  0  0  0  0  3  0  0  0  0  0  0
  -16.8870  -28.5070   23.0420 C   0  0  0  0  0  3  0  0  0  0  0  0
  -25.9430  -32.6810   23.9350 C   0  0  0  0  0  3  0  0  0  0  0  0
  -26.4580  -31.9240   25.2210 C   0  0  1  0  0  0  0  0  0  0  0  0
  -25.3480  -31.6330   26.2590 C   0  0  0  0  0  1  0  0  0  0  0  0
  -27.1080  -30.5750   24.8350 C   0  0  0  0  0  1  0  0  0  0  0  0
  -27.5560  -32.7610   25.9190 C   0  0  0  0  0  1  0  0  0  0  0  0
  -25.6110  -34.0760   24.2540 N   0  0  0  0  0  0  0  0  0  0  0  0
  -25.9320  -35.1290   23.4900 C   0  0  0  0  0  0  0  0  0  0  0  0
  -26.6100  -35.0300   22.4640 O   0  0  0  0  0  0  0  0  0  0  0  0
  -25.0080  -34.2270   25.0500 H   0  0  0  0  0  0  0  0  0  0  0  0
  -24.1720  -36.8880   23.1210 C   0  0  0  0  0  1  0  0  0  0  0  0
  -25.4190  -36.5130   23.9360 C   0  0  0  0  0  3  0  0  0  0  0  0
  -27.5340  -37.4480   24.7620 C   0  0  0  0  0  1  0  0  0  0  0  0
  -26.4320  -37.5840   23.8120 N   0  0  0  0  0  0  0  0  0  0  0  0
  -26.0090  -38.4970   23.9440 H   0  0  0  0  0  0  0  0  0  0  0  0
  1  3  1  0
  1  2  2  0
  2  5  1  0
  3 54  1  0
  4  2  1  0
  6  3  1  0
  7  9  1  0
  8 11  2  0
  9  1  1  0
  9 12  2  0
 10  7  2  0
 10  8  1  0
 11 12  1  0
 11 15  1  0
 12 14  1  0
 13 10  1  0
 16 24  1  0
 17 22  1  0
 18 19  1  0
 18 17  1  0
 20 19  1  0
 20 29  1  0
 20 21  1  0
 22 16  1  0
 22 21  1  0
 23 16  2  0
 24 15  1  0
 24 25  1  0
 26 27  2  0
 27 46  1  0
 28 27  1  0
 28 31  1  0
 29 30  1  0
 29 26  1  0
 30 28  2  0
 31 32  1  0
 32 33  2  0
 34 37  1  0
 34 33  1  0
 35 34  2  0
 36 35  1  0
 36 31  2  0
 37 38  1  0
 38 43  2  0
 38 39  1  0
 39 40  2  0
 40 41  1  0
 41 45  1  0
 42 41  2  0
 43 42  1  0
 44 43  1  0
 46 47  1  0
 47 50  1  0
 47 49  1  0
 48 46  2  0
 51 52  1  0
 51 26  1  0
 53 51  1  0
 55 56  1  0
 55 54  2  0
 57 68  2  0
 58 56  1  0
 58 63  1  0
 59 67  1  0
 59 69  1  0
 60 66  1  0
 60 62  1  0
 61 67  1  0
 62 61  1  0
 63 62  2  0
 64 65  1  0
 64 58  2  0
 65 60  2  0
 66 59  1  0
 67 57  1  0
 69 71  2  0
 70 69  1  0
 72 70  1  0
 73 82  2  0
 73 78  1  0
 74 70  1  0
 74 78  1  0
 75 74  1  0
 76 77  1  0
 76 75  1  0
 77 73  1  0
 78 79  2  0
 79 80  1  0
 81 80  2  0
 82 81  1  0
 83 57  1  0
 83 88  1  0
 83 84  1  0
 84 87  1  1
 84 85  1  0
 86 84  1  0
 88 91  1  0
 89 93  1  0
 89 88  1  0
 90 89  2  0
 93 92  1  0
 95 93  1  0
 95 96  1  0
 95 94  1  0
M  ISO  4  16 100  24 100  55 101  56 101
M  END
>  <TORSDO>  (46) 
F 20

>  <SCORE>  (46) 
-13.603

>  <name>  (46) 
45

>  <ligand_id>  (46) 
45

>  <original_smiles>  (46) 
[H]c1c([H])c([H])c2c(c1[H])C([H])([H])C([H])([H])C([H])([H])C2([H])N([H])C(=O)C1([H])N(C(=O)C([H])(N([H])C(=O)C([H])(N([H])C([H])([H])[H])C([H])([H])[H])C(C([H])([H])[H])(C([H])([H])[H])C([H])([H])[H])C([H])([H])c2c([H])c(OC([H])([H])C([H])([H])[N+]([H])=C(c3c([H])c(C([H])([H])[H])c([H])c(C([H])([H])N([H])C(=O)N4C([H])([H])C([H])([H])C([H])([H])C([H])(n5nc(-c6c([H])c([H])c(Oc7c([H])c([H])c(F)c([H])c7F)c([H])c6[H])c(C(=O)N([H])[H])c5N([H])[H])C4([H])[H])c3C([H])([H])[H])N([H])[H])c([H])c([H])c2C1([H])[H]

>  <smiles>  (46) 
[H]c1c([H])c([H])c2c(c1[H])C([H])([H])C([H])([H])C([H])([H])C2([H])N([H])C(=O)C1([H])N(C(=O)C([H])(N([H])C(=O)C([H])(N([H])C([H])([H])[H])C([H])([H])[H])C(C([H])([H])[H])(C([H])([H])[H])C([H])([H])[H])C([H])([H])c2c([H])c(OC([H])([H])C([H])([H])[N+]([H])=C(c3c([H])c(C([H])([H])[H])c([H])c(C([H])([H])N([H])C(=O)N4C([H])([H])C([H])([H])C([H])([H])C([H])(n5nc(-c6c([H])c([H])c(Oc7c([H])c([H])c(F)c([H])c7F)c([H])c6[H])c(C(=O)N([H])[H])c5N([H])[H])C4([H])[H])c3C([H])([H])[H])N([H])[H])c([H])c([H])c2C1([H])[H]

$$$$
46:0:0
     RDKit          3D

 95104  0  0  1  0  0  0  0  0999 V2000
  -29.4190  -23.7620   20.1410 C   0  0  0  0  0  0  0  0  0  0  0  0
  -27.3700  -23.2280   18.1540 C   0  0  0  0  0  2  0  0  0  0  0  0
  -27.8620  -24.6700   18.4540 C   0  0  0  0  0  2  0  0  0  0  0  0
  -27.8690  -22.1620   19.1690 C   0  0  0  0  0  2  0  0  0  0  0  0
  -28.2300  -24.8360   19.9510 C   0  0  0  0  0  3  0  0  0  0  0  0
  -29.2160  -22.4560   19.6730 N   0  0  0  0  0  0  0  0  0  0  0  0
  -30.4980  -24.1320   20.6140 O   0  0  0  0  0  0  0  0  0  0  0  0
  -28.4250  -26.2860   20.3680 O   0  0  0  0  0  0  0  0  0  0  0  0
  -24.6720  -31.8670   23.2370 C   0  0  0  0  0  0  0  0  0  0  0  0
  -27.3220  -27.1890   20.3060 C   0  0  0  0  0  0  0  0  0  0  0  0
  -23.4950  -30.4370   21.6130 C   0  0  0  0  0  3  0  0  0  0  0  0
  -24.9650  -28.8620   20.2370 C   0  0  0  0  0  0  0  0  0  0  0  0
  -26.0450  -30.7360   21.4620 C   0  0  0  0  0  2  0  0  0  0  0  0
  -26.1360  -29.3410   20.8390 C   0  0  0  0  0  0  0  0  0  0  0  0
  -27.3160  -28.5210   20.8580 C   0  0  0  0  0  3  0  0  0  0  0  0
  -26.1050  -26.7800   19.7090 C   0  0  0  0  0  3  0  0  0  0  0  0
  -24.9590  -27.5880   19.6610 C   0  0  0  0  0  3  0  0  0  0  0  0
  -23.7280  -29.7410   20.2490 C   0  0  0  0  0  2  0  0  0  0  0  0
  -24.7570  -31.0320   22.1610 N   0  0  0  0  0  0  0  0  0  0  0  0
  -23.5800  -32.1550   23.7480 O   0  0  0  0  0  0  0  0  0  0  0  0
  -22.8180  -29.4360   22.5810 C   0  0  0  0  0  0  0  0  0  0  0  0
  -21.4940  -29.2540   22.4390 N   0  0  0  0  0  0  0  0  0  0  0  0
  -23.4840  -28.8270   23.4210 O   0  0  0  0  0  0  0  0  0  0  0  0
  -21.0150  -29.7940   21.7320 H   0  0  0  0  0  0  0  0  0  0  0  0
  -18.1160  -28.0390   22.8960 C   0  0  0  0  0  0  0  0  0  0  0  0
  -20.6650  -28.3320   23.2180 C   0  0  0  0  0  3  0  0  0  0  0  0
  -20.7940  -26.8850   22.6880 C   0  0  0  0  0  2  0  0  0  0  0  0
  -19.7180  -26.5220   21.6590 C   0  0  0  0  0  2  0  0  0  0  0  0
  -18.3200  -26.6730   22.2660 C   0  0  0  0  0  2  0  0  0  0  0  0
  -19.2160  -28.8250   23.3300 C   0  0  0  0  0  0  0  0  0  0  0  0
  -18.9710  -30.1020   23.8780 C   0  0  0  0  0  3  0  0  0  0  0  0
  -17.6590  -30.5940   24.0000 C   0  0  0  0  0  3  0  0  0  0  0  0
  -16.5710  -29.8070   23.5830 C   0  0  0  0  0  3  0  0  0  0  0  0
  -16.8010  -28.5310   23.0360 C   0  0  0  0  0  3  0  0  0  0  0  0
  -25.9430  -32.5170   23.8650 C   0  0  0  0  0  3  0  0  0  0  0  0
  -25.6150  -33.9160   24.1820 N   0  0  0  0  0  0  0  0  0  0  0  0
  -25.9680  -34.9690   23.4330 C   0  0  0  0  0  0  0  0  0  0  0  0
  -26.6720  -34.8670   22.4250 O   0  0  0  0  0  0  0  0  0  0  0  0
  -24.9940  -34.0670   24.9630 H   0  0  0  0  0  0  0  0  0  0  0  0
  -24.2430  -36.7550   23.0250 C   0  0  0  0  0  1  0  0  0  0  0  0
  -25.4610  -36.3570   23.8740 C   0  0  0  0  0  3  0  0  0  0  0  0
  -27.5720  -37.2480   24.7580 C   0  0  0  0  0  1  0  0  0  0  0  0
  -26.4920  -37.4140   23.7880 N   0  0  0  0  0  0  0  0  0  0  0  0
  -26.0800  -38.3320   23.9280 H   0  0  0  0  0  0  0  0  0  0  0  0
  -26.4500  -31.7620   25.1540 C   0  0  1  0  0  0  0  0  0  0  0  0
  -25.3420  -31.5060   26.2020 C   0  0  0  0  0  1  0  0  0  0  0  0
  -27.0710  -30.3960   24.7810 C   0  0  0  0  0  1  0  0  0  0  0  0
  -27.5720  -32.5830   25.8330 C   0  0  0  0  0  1  0  0  0  0  0  0
  -30.2450  -21.3590   19.3450 C   0  0  0  0  0  2  0  0  0  0  0  0
  -30.5280  -18.6500   19.5320 C   0  0  0  0  0  3  0  0  0  0  0  0
  -30.6540  -18.8680   22.2990 C   0  0  0  0  0  3  0  0  0  0  0  0
  -30.3720  -19.9750   20.1350 C   0  0  0  0  0  0  0  0  0  0  0  0
  -30.7950  -17.5900   21.7100 C   0  0  0  0  0  0  0  0  0  0  0  0
  -30.7460  -17.4240   20.3000 C   0  0  0  0  0  0  0  0  0  0  0  0
  -30.4430  -20.0320   21.5390 C   0  0  0  0  0  0  0  0  0  0  0  0
  -30.9330  -16.4030   22.6480 C   0  0  0  0  0  1  0  0  0  0  0  0
  -30.3220  -21.2190   22.1770 F   0  0  0  0  0  0  0  0  0  0  0  0
  -31.4400  -14.8940   19.7970 C   0  0  0  0  0  0  0  0  0  0  0  0
  -31.1260  -12.5810   18.8680 C   0  0  0  0  0  2  0  0  0  0  0  0
  -30.1320  -12.6390   17.6840 C   0  0  0  0  0  2  0  0  0  0  0  0
  -28.6720  -12.5640   18.1770 C   0  0  0  0  0  2  0  0  0  0  0  0
  -28.3950  -13.5240   19.3650 C   0  0  0  0  0  3  0  0  0  0  0  0
  -29.4920  -13.4040   20.4410 C   0  0  0  0  0  2  0  0  0  0  0  0
  -30.7760  -13.6870   19.7840 N   0  0  0  0  0  0  0  0  0  0  0  0
  -32.6390  -14.9470   19.5020 O   0  0  0  0  0  0  0  0  0  0  0  0
  -30.6320  -16.0280   19.7970 N   0  0  0  0  0  0  0  0  0  0  0  0
  -29.6690  -15.7310   19.7680 H   0  0  0  0  0  0  0  0  0  0  0  0
  -26.1090  -14.3060   20.2280 C   0  0  0  0  0  0  0  0  0  0  0  0
  -25.0010  -13.6200   20.6360 C   0  0  0  0  0  0  0  0  0  0  0  0
  -25.3410  -12.2350   20.5570 C   0  0  0  0  0  0  0  0  0  0  0  0
  -27.0580  -13.3440   19.9190 N   0  0  0  0  0  0  0  0  0  0  0  0
  -26.6060  -12.0920   20.1820 N   0  0  0  0  0  0  0  0  0  0  0  0
  -24.5160  -11.0360   20.7560 C   0  0  0  0  0  0  0  0  0  0  0  0
  -24.8800  -10.0370   21.6850 C   0  0  0  0  0  3  0  0  0  0  0  0
  -24.0610   -8.9030   21.8720 C   0  0  0  0  0  3  0  0  0  0  0  0
  -22.8640   -8.7610   21.1300 C   0  0  0  0  0  0  0  0  0  0  0  0
  -22.5180   -9.7480   20.1910 C   0  0  0  0  0  3  0  0  0  0  0  0
  -23.3360  -10.8740   20.0020 C   0  0  0  0  0  3  0  0  0  0  0  0
  -22.0190   -7.6830   21.2290 O   0  0  0  0  0  0  0  0  0  0  0  0
  -21.8820   -6.9800   22.3990 C   0  0  0  0  0  0  0  0  0  0  0  0
  -21.4880   -7.6060   23.6020 C   0  0  0  0  0  3  0  0  0  0  0  0
  -21.2920   -6.8340   24.7650 C   0  0  0  0  0  3  0  0  0  0  0  0
  -21.4780   -5.4400   24.7250 C   0  0  0  0  0  0  0  0  0  0  0  0
  -21.8650   -4.8150   23.5270 C   0  0  0  0  0  3  0  0  0  0  0  0
  -22.0620   -5.5830   22.3670 C   0  0  0  0  0  0  0  0  0  0  0  0
  -22.4160   -4.9730   21.2100 F   0  0  0  0  0  0  0  0  0  0  0  0
  -21.2810   -4.6980   25.8400 F   0  0  0  0  0  0  0  0  0  0  0  0
  -23.6660  -14.2110   20.9840 C   0  0  0  0  0  0  0  0  0  0  0  0
  -22.9360  -13.5840   21.9010 N   0  0  0  0  0  0  0  0  0  0  0  0
  -23.2830  -15.2650   20.4780 O   0  0  0  0  0  0  0  0  0  0  0  0
  -23.2600  -12.7340   22.3360 H   0  0  0  0  0  0  0  0  0  0  0  0
  -22.0410  -13.9650   22.1710 H   0  0  0  0  0  0  0  0  0  0  0  0
  -26.3820  -15.6620   20.0710 N   0  0  0  0  0  0  0  0  0  0  0  0
  -25.6690  -16.3640   20.2350 H   0  0  0  0  0  0  0  0  0  0  0  0
  -27.2270  -16.0470   19.6720 H   0  0  0  0  0  0  0  0  0  0  0  0
  1  7  2  0
  2  3  1  0
  2  4  1  0
  3  5  1  0
  4  6  1  0
  5  1  1  0
  5  8  1  0
  6  1  1  0
  9 20  2  0
 10  8  1  0
 10 15  1  0
 11 19  1  0
 11 21  1  0
 12 18  1  0
 12 14  1  0
 13 19  1  0
 14 15  2  0
 14 13  1  0
 16 10  2  0
 17 16  1  0
 17 12  2  0
 18 11  1  0
 19  9  1  0
 21 23  2  0
 22 21  1  0
 24 22  1  0
 25 34  2  0
 25 30  1  0
 26 22  1  0
 26 30  1  0
 27 26  1  0
 28 29  1  0
 28 27  1  0
 29 25  1  0
 30 31  2  0
 31 32  1  0
 33 32  2  0
 34 33  1  0
 35  9  1  0
 35 36  1  0
 35 45  1  0
 36 39  1  0
 37 41  1  0
 37 36  1  0
 38 37  2  0
 41 40  1  0
 43 41  1  0
 43 44  1  0
 43 42  1  0
 45 48  1  1
 45 46  1  0
 47 45  1  0
 49  6  1  0
 49 52  1  0
 50 52  2  0
 50 54  1  0
 52 55  1  0
 53 51  1  0
 53 56  1  0
 54 53  2  0
 55 57  1  0
 55 51  2  0
 58 66  1  0
 59 64  1  0
 60 61  1  0
 60 59  1  0
 62 61  1  0
 62 71  1  0
 62 63  1  0
 64 58  1  0
 64 63  1  0
 65 58  2  0
 66 54  1  0
 67 66  1  0
 68 69  2  0
 69 88  1  0
 70 69  1  0
 70 73  1  0
 71 72  1  0
 71 68  1  0
 72 70  2  0
 73 74  1  0
 74 75  2  0
 76 79  1  0
 76 75  1  0
 77 76  2  0
 78 77  1  0
 78 73  2  0
 79 80  1  0
 80 81  1  0
 81 82  2  0
 83 82  1  0
 83 87  1  0
 84 83  2  0
 85 80  2  0
 85 84  1  0
 86 85  1  0
 88 89  1  0
 89 92  1  0
 89 91  1  0
 90 88  2  0
 93 68  1  0
 93 94  1  0
 95 93  1  0
M  ISO  4   5 101   8 101  58 100  66 100
M  END
>  <TORSDO>  (47) 
F 18

>  <SCORE>  (47) 
-13.540

>  <name>  (47) 
46

>  <ligand_id>  (47) 
46

>  <original_smiles>  (47) 
[H]c1c([H])c([H])c2c(c1[H])C([H])([H])C([H])([H])C([H])([H])C2([H])N([H])C(=O)C1([H])N(C(=O)C([H])(N([H])C(=O)C([H])(N([H])C([H])([H])[H])C([H])([H])[H])C(C([H])([H])[H])(C([H])([H])[H])C([H])([H])[H])C([H])([H])c2c([H])c(OC3([H])C(=O)N(C([H])([H])c4c([H])c(N([H])C(=O)N5C([H])([H])C([H])([H])C([H])([H])C([H])(n6nc(-c7c([H])c([H])c(Oc8c([H])c([H])c(F)c([H])c8F)c([H])c7[H])c(C(=O)N([H])[H])c6N([H])[H])C5([H])[H])c(C([H])([H])[H])c([H])c4F)C([H])([H])C([H])([H])C3([H])[H])c([H])c([H])c2C1([H])[H]

>  <smiles>  (47) 
[H]c1c([H])c([H])c2c(c1[H])C([H])([H])C([H])([H])C([H])([H])C2([H])N([H])C(=O)C1([H])N(C(=O)C([H])(N([H])C(=O)C([H])(N([H])C([H])([H])[H])C([H])([H])[H])C(C([H])([H])[H])(C([H])([H])[H])C([H])([H])[H])C([H])([H])c2c([H])c(OC3([H])C(=O)N(C([H])([H])c4c([H])c(N([H])C(=O)N5C([H])([H])C([H])([H])C([H])([H])C([H])(n6nc(-c7c([H])c([H])c(Oc8c([H])c([H])c(F)c([H])c8F)c([H])c7[H])c(C(=O)N([H])[H])c6N([H])[H])C5([H])[H])c(C([H])([H])[H])c([H])c4F)C([H])([H])C([H])([H])C3([H])[H])c([H])c([H])c2C1([H])[H]

$$$$
47:0:0
     RDKit          3D

 95104  0  0  1  0  0  0  0  0999 V2000
  -29.9000  -23.0990   21.0700 C   0  0  0  0  0  0  0  0  0  0  0  0
  -30.9700  -22.6980   21.7780 C   0  0  0  0  0  2  0  0  0  0  0  0
  -29.5670  -24.6130   21.0220 C   0  0  0  0  0  2  0  0  0  0  0  0
  -28.2060  -24.1690   19.0260 C   0  0  0  0  0  2  0  0  0  0  0  0
  -28.0660  -22.6650   19.4310 C   0  0  0  0  0  2  0  0  0  0  0  0
  -28.2880  -25.0790   20.2770 C   0  0  0  0  0  3  0  0  0  0  0  0
  -29.1120  -22.1810   20.3520 N   0  0  0  0  0  0  0  0  0  0  0  0
  -28.5380  -18.1740   21.7960 C   0  0  0  0  0  3  0  0  0  0  0  0
  -27.9850  -20.5560   21.7620 C   0  0  0  0  0  3  0  0  0  0  0  0
  -29.5050  -18.3520   20.7860 C   0  0  0  0  0  0  0  0  0  0  0  0
  -29.7010  -19.6880   20.2630 C   0  0  0  0  0  0  0  0  0  0  0  0
  -28.9440  -20.8120   20.7600 C   0  0  0  0  0  0  0  0  0  0  0  0
  -27.7860  -19.2620   22.2760 C   0  0  0  0  0  0  0  0  0  0  0  0
  -30.7470  -19.9130   19.1800 C   0  0  0  0  0  1  0  0  0  0  0  0
  -26.6270  -19.0130   23.5290 Cl  0  0  0  0  0  0  0  0  0  0  0  0
  -30.3630  -17.1230   20.3420 C   0  0  0  0  0  2  0  0  0  0  0  0
  -30.6660  -14.6070   20.4730 C   0  0  0  0  0  0  0  0  0  0  0  0
  -30.4240  -12.3650   19.4540 C   0  0  0  0  0  2  0  0  0  0  0  0
  -29.5010  -12.4840   18.2230 C   0  0  0  0  0  2  0  0  0  0  0  0
  -28.0230  -12.3390   18.6360 C   0  0  0  0  0  2  0  0  0  0  0  0
  -27.6490  -13.2220   19.8570 C   0  0  0  0  0  3  0  0  0  0  0  0
  -28.6950  -13.1030   20.9890 C   0  0  0  0  0  2  0  0  0  0  0  0
  -30.0110  -13.4090   20.4120 N   0  0  0  0  0  0  0  0  0  0  0  0
  -31.8460  -14.7100   20.1310 O   0  0  0  0  0  0  0  0  0  0  0  0
  -29.9160  -15.7290   20.6750 N   0  0  0  0  0  0  0  0  0  0  0  0
  -28.9400  -15.5940   20.8870 H   0  0  0  0  0  0  0  0  0  0  0  0
  -25.2540  -13.8190   20.5690 C   0  0  0  0  0  0  0  0  0  0  0  0
  -24.1810  -13.0440   20.9210 C   0  0  0  0  0  0  0  0  0  0  0  0
  -24.6400  -11.6920   20.8750 C   0  0  0  0  0  0  0  0  0  0  0  0
  -26.2970  -12.9380   20.3310 N   0  0  0  0  0  0  0  0  0  0  0  0
  -25.9320  -11.6520   20.5750 N   0  0  0  0  0  0  0  0  0  0  0  0
  -23.9070  -10.4290   21.0400 C   0  0  0  0  0  0  0  0  0  0  0  0
  -24.3620   -9.4210   21.9180 C   0  0  0  0  0  3  0  0  0  0  0  0
  -23.6290   -8.2250   22.0750 C   0  0  0  0  0  3  0  0  0  0  0  0
  -22.4280   -8.0280   21.3540 C   0  0  0  0  0  0  0  0  0  0  0  0
  -21.9910   -9.0250   20.4640 C   0  0  0  0  0  3  0  0  0  0  0  0
  -22.7230  -10.2140   20.3060 C   0  0  0  0  0  3  0  0  0  0  0  0
  -21.6640   -6.8880   21.4230 O   0  0  0  0  0  0  0  0  0  0  0  0
  -21.6860   -6.0740   22.5280 C   0  0  0  0  0  0  0  0  0  0  0  0
  -21.4020   -6.5640   23.8210 C   0  0  0  0  0  3  0  0  0  0  0  0
  -21.3650   -5.6790   24.9170 C   0  0  0  0  0  3  0  0  0  0  0  0
  -21.6040   -4.3060   24.7220 C   0  0  0  0  0  0  0  0  0  0  0  0
  -21.8820   -3.8150   23.4350 C   0  0  0  0  0  3  0  0  0  0  0  0
  -21.9200   -4.6970   22.3400 C   0  0  0  0  0  0  0  0  0  0  0  0
  -22.1660   -4.2160   21.0980 F   0  0  0  0  0  0  0  0  0  0  0  0
  -21.5630   -3.4540   25.7740 F   0  0  0  0  0  0  0  0  0  0  0  0
  -22.7840  -13.5240   21.1860 C   0  0  0  0  0  0  0  0  0  0  0  0
  -22.0490  -12.8230   22.0430 N   0  0  0  0  0  0  0  0  0  0  0  0
  -22.3520  -14.5530   20.6690 O   0  0  0  0  0  0  0  0  0  0  0  0
  -22.4110  -11.9900   22.4820 H   0  0  0  0  0  0  0  0  0  0  0  0
  -21.1100  -13.1230   22.2620 H   0  0  0  0  0  0  0  0  0  0  0  0
  -25.4220  -15.1900   20.4090 N   0  0  0  0  0  0  0  0  0  0  0  0
  -24.6540  -15.8400   20.5330 H   0  0  0  0  0  0  0  0  0  0  0  0
  -26.2600  -15.6310   20.0520 H   0  0  0  0  0  0  0  0  0  0  0  0
  -28.3740  -26.5410   20.0770 O   0  0  0  0  0  0  0  0  0  0  0  0
  -24.6250  -31.8580   23.2020 C   0  0  0  0  0  0  0  0  0  0  0  0
  -27.2230  -27.3330   20.0980 C   0  0  0  0  0  0  0  0  0  0  0  0
  -23.4170  -30.4810   21.5440 C   0  0  0  0  0  3  0  0  0  0  0  0
  -24.8600  -28.9330   20.1140 C   0  0  0  0  0  0  0  0  0  0  0  0
  -25.9570  -30.7910   21.3700 C   0  0  0  0  0  2  0  0  0  0  0  0
  -26.0290  -29.4200   20.7110 C   0  0  0  0  0  0  0  0  0  0  0  0
  -27.2160  -28.6330   20.6860 C   0  0  0  0  0  3  0  0  0  0  0  0
  -26.0230  -26.8780   19.5090 C   0  0  0  0  0  3  0  0  0  0  0  0
  -24.8580  -27.6660   19.5080 C   0  0  0  0  0  3  0  0  0  0  0  0
  -23.6300  -29.8150   20.1600 C   0  0  0  0  0  2  0  0  0  0  0  0
  -24.6850  -31.0600   22.0960 N   0  0  0  0  0  0  0  0  0  0  0  0
  -23.5420  -32.1370   23.7370 O   0  0  0  0  0  0  0  0  0  0  0  0
  -22.7460  -29.4610   22.4940 C   0  0  0  0  0  0  0  0  0  0  0  0
  -21.4170  -29.3040   22.3690 N   0  0  0  0  0  0  0  0  0  0  0  0
  -23.4190  -28.8140   23.3000 O   0  0  0  0  0  0  0  0  0  0  0  0
  -20.9350  -29.8770   21.6920 H   0  0  0  0  0  0  0  0  0  0  0  0
  -18.0270  -28.1390   22.8480 C   0  0  0  0  0  0  0  0  0  0  0  0
  -20.5870  -28.3680   23.1290 C   0  0  0  0  0  3  0  0  0  0  0  0
  -20.6770  -26.9410   22.5400 C   0  0  0  0  0  2  0  0  0  0  0  0
  -19.5750  -26.6390   21.5200 C   0  0  0  0  0  2  0  0  0  0  0  0
  -18.1930  -26.7930   22.1620 C   0  0  0  0  0  2  0  0  0  0  0  0
  -19.1530  -28.8850   23.2880 C   0  0  0  0  0  0  0  0  0  0  0  0
  -18.9460  -30.1450   23.8900 C   0  0  0  0  0  3  0  0  0  0  0  0
  -17.6470  -30.6590   24.0560 C   0  0  0  0  0  3  0  0  0  0  0  0
  -16.5350  -29.9100   23.6330 C   0  0  0  0  0  3  0  0  0  0  0  0
  -16.7260  -28.6510   23.0350 C   0  0  0  0  0  3  0  0  0  0  0  0
  -25.9100  -32.4760   23.8330 C   0  0  0  0  0  3  0  0  0  0  0  0
  -25.5930  -33.8560   24.2260 N   0  0  0  0  0  0  0  0  0  0  0  0
  -25.9050  -34.9440   23.5090 C   0  0  0  0  0  0  0  0  0  0  0  0
  -26.5620  -34.8910   22.4660 O   0  0  0  0  0  0  0  0  0  0  0  0
  -25.0060  -33.9700   25.0400 H   0  0  0  0  0  0  0  0  0  0  0  0
  -24.1490  -36.7300   23.2630 C   0  0  0  0  0  1  0  0  0  0  0  0
  -25.4110  -36.3080   24.0320 C   0  0  0  0  0  3  0  0  0  0  0  0
  -27.5580  -37.1800   24.8460 C   0  0  0  0  0  1  0  0  0  0  0  0
  -26.4290  -37.3780   23.9420 N   0  0  0  0  0  0  0  0  0  0  0  0
  -26.0170  -38.2850   24.1440 H   0  0  0  0  0  0  0  0  0  0  0  0
  -26.4500  -31.6580   25.0710 C   0  0  1  0  0  0  0  0  0  0  0  0
  -25.3740  -31.3740   26.1450 C   0  0  0  0  0  1  0  0  0  0  0  0
  -27.0310  -30.2990   24.6160 C   0  0  0  0  0  1  0  0  0  0  0  0
  -27.6050  -32.4320   25.7490 C   0  0  0  0  0  1  0  0  0  0  0  0
  1  2  2  0
  3  1  1  0
  4  5  1  0
  4  6  1  0
  5  7  1  0
  6 55  1  0
  6  3  1  0
  7 12  1  0
  7  1  1  0
  8 13  1  0
  9 13  2  0
 10  8  2  0
 11 12  2  0
 11 10  1  0
 12  9  1  0
 13 15  1  0
 14 11  1  0
 16 25  1  0
 16 10  1  0
 17 25  1  0
 18 23  1  0
 19 20  1  0
 19 18  1  0
 21 20  1  0
 21 30  1  0
 21 22  1  0
 23 17  1  0
 23 22  1  0
 24 17  2  0
 25 26  1  0
 27 28  2  0
 28 47  1  0
 29 28  1  0
 29 32  1  0
 30 27  1  0
 30 31  1  0
 31 29  2  0
 32 33  1  0
 33 34  2  0
 35 38  1  0
 35 34  1  0
 36 35  2  0
 37 36  1  0
 37 32  2  0
 38 39  1  0
 39 40  1  0
 40 41  2  0
 42 41  1  0
 42 46  1  0
 43 42  2  0
 44 39  2  0
 44 43  1  0
 45 44  1  0
 47 48  1  0
 48 51  1  0
 48 50  1  0
 49 47  2  0
 52 53  1  0
 52 27  1  0
 54 52  1  0
 55 57  1  0
 56 67  2  0
 57 62  1  0
 58 66  1  0
 58 68  1  0
 59 65  1  0
 59 61  1  0
 60 66  1  0
 61 60  1  0
 62 61  2  0
 63 57  2  0
 64 63  1  0
 64 59  2  0
 65 58  1  0
 66 56  1  0
 68 70  2  0
 69 68  1  0
 71 69  1  0
 72 81  2  0
 72 77  1  0
 73 69  1  0
 73 77  1  0
 74 73  1  0
 75 76  1  0
 75 74  1  0
 76 72  1  0
 77 78  2  0
 78 79  1  0
 80 79  2  0
 81 80  1  0
 82 56  1  0
 82 83  1  0
 82 92  1  0
 83 86  1  0
 84 88  1  0
 84 83  1  0
 85 84  2  0
 88 87  1  0
 90 88  1  0
 90 91  1  0
 90 89  1  0
 92 95  1  1
 92 93  1  0
 94 92  1  0
M  ISO  4   6 101  17 100  25 100  55 101
M  END
>  <TORSDO>  (48) 
F 18

>  <SCORE>  (48) 
6.234

>  <name>  (48) 
47

>  <ligand_id>  (48) 
47

>  <original_smiles>  (48) 
[H]C([H])=C1N(c2c([H])c(Cl)c([H])c(C([H])([H])N([H])C(=O)N3C([H])([H])C([H])([H])C([H])([H])C([H])(n4nc(-c5c([H])c([H])c(Oc6c([H])c([H])c(F)c([H])c6F)c([H])c5[H])c(C(=O)N([H])[H])c4N([H])[H])C3([H])[H])c2C([H])([H])[H])C([H])([H])C([H])([H])C([H])(Oc2c([H])c([H])c3c(c2[H])C([H])([H])N(C(=O)C([H])(N([H])C(=O)C([H])(N([H])C([H])([H])[H])C([H])([H])[H])C(C([H])([H])[H])(C([H])([H])[H])C([H])([H])[H])C([H])(C(=O)N([H])C2([H])c4c([H])c([H])c([H])c([H])c4C([H])([H])C([H])([H])C2([H])[H])C3([H])[H])C1([H])[H]

>  <smiles>  (48) 
[H]C([H])=C1N(c2c([H])c(Cl)c([H])c(C([H])([H])N([H])C(=O)N3C([H])([H])C([H])([H])C([H])([H])C([H])(n4nc(-c5c([H])c([H])c(Oc6c([H])c([H])c(F)c([H])c6F)c([H])c5[H])c(C(=O)N([H])[H])c4N([H])[H])C3([H])[H])c2C([H])([H])[H])C([H])([H])C([H])([H])C([H])(Oc2c([H])c([H])c3c(c2[H])C([H])([H])N(C(=O)C([H])(N([H])C(=O)C([H])(N([H])C([H])([H])[H])C([H])([H])[H])C(C([H])([H])[H])(C([H])([H])[H])C([H])([H])[H])C([H])(C(=O)N([H])C2([H])c4c([H])c([H])c([H])c([H])c4C([H])([H])C([H])([H])C2([H])[H])C3([H])[H])C1([H])[H]

$$$$
48:0:0
     RDKit          3D

 94 94  0  0  1  0  0  0  0  0999 V2000
  -26.3200  -10.7430   21.0000 C   0  0  0  0  0  1  0  0  0  0  0  0
  -24.6590  -11.5950   20.3610 C   0  0  0  0  0 15  0  0  0  0  0  0
  -27.9140  -11.2610   19.9600 C   0  0  0  0  0  2  0  0  0  0  0  0
  -26.4910  -13.8340   18.4230 C   0  0  0  0  0  2  0  0  0  0  0  0
  -24.9260  -12.9030   18.8450 C   0  0  0  0  0  2  0  0  0  0  0  0
  -27.6610  -12.5090   18.6200 C   0  0  0  0  0  3  0  0  0  0  0  0
  -23.5240  -13.3520   17.8920 Cl  0  0  0  0  0  0  0  0  0  0  0  0
  -28.2580  -11.9680   17.0720 Cl  0  0  0  0  0  0  0  0  0  0  0  0
  -29.6120  -11.2620   20.6090 C   0  0  0  0  0  1  0  0  0  0  0  0
  -32.0550  -12.8930   22.1000 C   0  0  0  0  0  3  0  0  0  0  0  0
  -32.0300  -10.9590   20.2650 C   0  0  0  0  0  1  0  0  0  0  0  0
  -31.2350  -12.0240   18.8560 C   0  0  0  0  0  2  0  0  0  0  0  0
  -29.9010  -13.3350   19.3090 C   0  0  0  0  0  1  0  0  0  0  0  0
  -29.1880  -13.6250   21.1660 C   0  0  0  0  0  2  0  0  0  0  0  0
  -29.8780  -12.5280   22.6230 C   0  0  0  0  0  2  0  0  0  0  0  0
  -31.4490  -11.7740   21.9150 N   0  0  0  0  0  0  0  0  0  0  0  0
  -33.1550  -13.4380   21.9090 O   0  0  0  0  0  1  0  0  0  0  0  0
  -31.2970  -12.7630   21.0680 N   0  0  0  0  0  0  0  0  0  0  0  0
  -31.5360  -13.3610   20.2950 H   0  0  0  0  0  0  0  0  0  0  0  0
  -26.8130  -14.5070   21.5340 C   0  0  0  0  0  3  0  0  0  0  0  0
  -25.7270  -13.7880   21.9090 C   0  0  0  0  0  3  0  0  0  0  0  0
  -26.5010  -12.6340   21.6130 C   0  0  0  0  0  3  0  0  0  0  0  0
  -27.8520  -13.6610   21.4860 N   0  0  1  0  0  4  0  0  0  0  0  0
  -27.4460  -12.9640   22.4380 N   0  0  0  0  0  2  0  0  0  0  0  0
  -25.9910  -10.0560   20.4490 C   0  0  0  0  0  3  0  0  0  0  0  0
  -25.9730   -8.7230   21.2850 C   0  0  0  0  0  2  0  0  0  0  0  0
  -24.9030   -8.0700   22.0660 C   0  0  0  0  0  2  0  0  0  0  0  0
  -23.6530   -7.9510   21.4560 C   0  0  0  0  0  0  0  0  0  0  0  0
  -23.6300   -8.7200   20.2650 C   0  0  0  0  0  3  0  0  0  0  0  0
  -24.7250   -9.5750   19.7920 C   0  0  0  0  0  2  0  0  0  0  0  0
  -22.6950   -6.9310   21.6590 O   0  0  0  0  0  0  0  0  0  0  0  0
  -22.4280   -6.1820   22.8100 C   0  0  0  0  0  0  0  0  0  0  0  0
  -21.7720   -6.7600   23.9210 C   0  0  0  0  0  3  0  0  0  0  0  0
  -21.3420   -5.9670   25.0120 C   0  0  0  0  0  3  0  0  0  0  0  0
  -21.5510   -4.5750   25.0120 C   0  0  0  0  0  0  0  0  0  0  0  0
  -22.1830   -3.9780   23.9090 C   0  0  0  0  0  3  0  0  0  0  0  0
  -22.6050   -4.7670   22.8160 C   0  0  0  0  0  0  0  0  0  0  0  0
  -23.1600   -4.1390   21.7500 F   0  0  0  0  0  0  0  0  0  0  0  0
  -21.1450   -3.8170   26.0620 F   0  0  0  0  0  0  0  0  0  0  0  0
  -24.2350  -14.1050   21.7000 C   0  0  0  0  0  0  0  0  0  0  0  0
  -23.3260  -13.2260   22.1550 N   0  0  0  0  0  0  0  0  0  0  0  0
  -23.9070  -14.8640   20.7880 O   0  0  0  0  0  0  0  0  0  0  0  0
  -23.6000  -12.5040   22.8040 H   0  0  0  0  0  0  0  0  0  0  0  0
  -22.3570  -13.3170   21.8900 H   0  0  0  0  0  0  0  0  0  0  0  0
  -27.0760  -15.7810   21.2650 N   0  0  0  0  0  0  0  0  0  0  0  0
  -26.3740  -16.5090   21.2510 H   0  0  0  0  0  0  0  0  0  0  0  0
  -27.9900  -16.1290   21.0110 H   0  0  0  0  0  0  0  0  0  0  0  0
  -27.1190  -16.0710   18.4970 C   0  0  0  0  0 15  0  0  0  0  0  0
  -27.8280  -19.8800   19.4150 C   0  0  0  0  0  2  0  0  0  0  0  0
  -27.1560  -18.1890   19.1430 N   0  0  0  0  0  2  0  0  0  0  0  0
  -29.0410  -19.7590   19.2250 O   0  0  0  0  0  1  0  0  0  0  0  0
  -26.1810  -18.3480   19.3620 H   0  0  0  0  0  0  0  0  0  0  0  0
  -27.5790  -22.1270   19.8780 C   0  0  0  0  0 15  0  0  0  0  0  0
  -28.3320  -24.1630   20.2060 O   0  0  0  0  0  1  0  0  0  0  0  0
  -25.3980  -31.6370   23.0010 C   0  0  0  0  0  0  0  0  0  0  0  0
  -27.9050  -25.8710   20.2580 C   0  0  0  0  0  0  0  0  0  0  0  0
  -24.5180  -30.1790   21.2730 C   0  0  0  0  0  3  0  0  0  0  0  0
  -26.1150  -28.5110   20.0010 C   0  0  0  0  0  0  0  0  0  0  0  0
  -27.0890  -30.1220   21.5820 C   0  0  0  0  0  2  0  0  0  0  0  0
  -27.1860  -28.6270   20.8790 C   0  0  0  0  0  0  0  0  0  0  0  0
  -28.0840  -27.3360   20.9720 C   0  0  0  0  0  3  0  0  0  0  0  0
  -26.9800  -26.2490   19.2710 C   0  0  0  0  0  3  0  0  0  0  0  0
  -26.1240  -27.3870   19.1730 C   0  0  0  0  0  3  0  0  0  0  0  0
  -24.9680  -29.5400   19.9290 C   0  0  0  0  0  2  0  0  0  0  0  0
  -25.7070  -30.7130   22.0000 N   0  0  0  0  0  0  0  0  0  0  0  0
  -24.2200  -31.8990   23.3230 O   0  0  0  0  0  0  0  0  0  0  0  0
  -23.7280  -29.1650   22.1450 C   0  0  0  0  0  0  0  0  0  0  0  0
  -22.3890  -29.0990   22.0090 N   0  0  0  0  0  0  0  0  0  0  0  0
  -24.3360  -28.4430   22.9380 O   0  0  0  0  0  0  0  0  0  0  0  0
  -21.9400  -29.7320   21.3630 H   0  0  0  0  0  0  0  0  0  0  0  0
  -18.9320  -28.2030   22.7000 C   0  0  0  0  0  0  0  0  0  0  0  0
  -21.5190  -28.1370   22.7010 C   0  0  0  0  0  3  0  0  0  0  0  0
  -21.3770  -26.8330   21.8810 C   0  0  0  0  0  2  0  0  0  0  0  0
  -20.1550  -26.8350   20.9560 C   0  0  0  0  0  2  0  0  0  0  0  0
  -18.8690  -27.0030   21.7700 C   0  0  0  0  0  2  0  0  0  0  0  0
  -20.1750  -28.7470   23.1230 C   0  0  0  0  0  0  0  0  0  0  0  0
  -20.1740  -29.8790   23.9660 C   0  0  0  0  0  3  0  0  0  0  0  0
  -18.9640  -30.4690   24.3810 C   0  0  0  0  0  3  0  0  0  0  0  0
  -17.7370  -29.9210   23.9650 C   0  0  0  0  0  3  0  0  0  0  0  0
  -17.7230  -28.7880   23.1320 C   0  0  0  0  0  3  0  0  0  0  0  0
  -26.4770  -32.4290   23.8040 C   0  0  0  0  0  3  0  0  0  0  0  0
  -26.8930  -31.7070   25.1470 C   0  0  1  0  0  0  0  0  0  0  0  0
  -25.6980  -31.3040   26.0430 C   0  0  0  0  0  1  0  0  0  0  0  0
  -27.7000  -30.4250   24.8650 C   0  0  0  0  0  1  0  0  0  0  0  0
  -27.8240  -32.6270   25.9710 C   0  0  0  0  0  1  0  0  0  0  0  0
  -25.9400  -33.7740   24.1390 N   0  0  0  0  0  0  0  0  0  0  0  0
  -26.1780  -34.9130   23.4720 C   0  0  0  0  0  0  0  0  0  0  0  0
  -26.9170  -34.9530   22.4860 O   0  0  0  0  0  0  0  0  0  0  0  0
  -25.2760  -33.8060   24.8980 H   0  0  0  0  0  0  0  0  0  0  0  0
  -24.2440  -36.5060   23.1290 C   0  0  0  0  0  1  0  0  0  0  0  0
  -25.5000  -36.2140   23.9680 C   0  0  0  0  0  3  0  0  0  0  0  0
  -27.4470  -37.3600   24.9420 C   0  0  0  0  0  1  0  0  0  0  0  0
  -26.3870  -37.4000   23.9370 N   0  0  0  0  0  0  0  0  0  0  0  0
  -25.8540  -38.2530   24.0740 H   0  0  0  0  0  0  0  0  0  0  0  0
  3  9  1  0
  4  6  1  0
  4  5  1  0
  6  8  1  0
  6  3  1  0
  7  5  1  0
 10 17  1  0
 12 13  1  0
 12 11  1  0
 14 15  1  0
 16 10  1  0
 16 15  1  0
 18 16  1  0
 18 10  1  0
 19 18  1  0
 20 45  1  0
 20 21  1  0
 21 40  1  0
 22 21  1  0
 22 24  1  0
 23 14  1  6
 23 20  1  0
 23 22  1  0
 23 24  1  0
 25  1  1  0
 25 26  1  0
 26 27  1  0
 28 31  1  0
 28 27  1  0
 29 28  2  0
 30 29  1  0
 30 25  1  0
 31 32  1  0
 32 37  2  0
 32 33  1  0
 33 34  2  0
 35 34  1  0
 35 39  1  0
 36 35  2  0
 37 36  1  0
 38 37  1  0
 40 41  1  0
 41 43  1  0
 42 40  2  0
 44 41  1  0
 46 45  1  0
 47 45  1  0
 50 52  1  0
 50 49  1  0
 51 49  1  0
 54 56  1  0
 55 66  2  0
 56 61  1  0
 57 65  1  0
 57 67  1  0
 58 60  1  0
 59 65  1  0
 60 61  2  0
 60 59  1  0
 62 56  2  0
 63 62  1  0
 63 58  2  0
 64 58  1  0
 64 57  1  0
 65 55  1  0
 67 69  2  0
 68 67  1  0
 70 68  1  0
 71 76  2  0
 71 80  1  0
 72 68  1  0
 72 76  1  0
 73 72  1  0
 74 75  1  0
 74 73  1  0
 75 71  1  0
 76 77  1  0
 77 78  2  0
 79 78  1  0
 80 79  2  0
 81 55  1  0
 81 86  1  0
 81 82  1  0
 82 85  1  1
 82 83  1  0
 84 82  1  0
 86 89  1  0
 87 91  1  0
 87 86  1  0
 88 87  2  0
 91 90  1  0
 93 91  1  0
 93 94  1  0
 93 92  1  0
M  ISO  4  10 100  18 100  53 101  54 101
M  END
>  <TORSDO>  (49) 
F 20

>  <SCORE>  (49) 
-1.656

>  <name>  (49) 
48

>  <ligand_id>  (49) 
48

>  <original_smiles>  (49) 
[H]c1c([H])c([H])c2c(c1[H])C([H])([H])C([H])([H])C([H])([H])C2([H])N([H])C(=O)C1([H])N(C(=O)C([H])(N([H])C(=O)C([H])(N([H])C([H])([H])[H])C([H])([H])[H])C(C([H])([H])[H])(C([H])([H])[H])C([H])([H])[H])C([H])([H])c2c([H])c(OC([H])([H])C(=O)N([H])C([H])([H])c3c(Cl)c([H])c([H])c(C([H])([H])N([H])C(=O)N4C([H])([H])C([H])([H])C([H])([H])C([H])(n5nc(-c6c([H])c([H])c(Oc7c([H])c([H])c(F)c([H])c7F)c([H])c6[H])c(C(=O)N([H])[H])c5N([H])[H])C4([H])[H])c3Cl)c([H])c([H])c2C1([H])[H]

>  <smiles>  (49) 
[H]c1c([H])c([H])c2c(c1[H])C([H])([H])C([H])([H])C([H])([H])C2([H])N([H])C(=O)C1([H])N(C(=O)C([H])(N([H])C(=O)C([H])(N([H])C([H])([H])[H])C([H])([H])[H])C(C([H])([H])[H])(C([H])([H])[H])C([H])([H])[H])C([H])([H])c2c([H])c(OC([H])([H])C(=O)N([H])C([H])([H])c3c(Cl)c([H])c([H])c(C([H])([H])N([H])C(=O)N4C([H])([H])C([H])([H])C([H])([H])C([H])(n5nc(-c6c([H])c([H])c(Oc7c([H])c([H])c(F)c([H])c7F)c([H])c6[H])c(C(=O)N([H])[H])c5N([H])[H])C4([H])[H])c3Cl)c([H])c([H])c2C1([H])[H]

$$$$
49:0:0
     RDKit          3D

 95103  0  0  1  0  0  0  0  0999 V2000
  -29.3150  -20.4240   20.3500 C   0  0  0  0  0  0  0  0  0  0  0  0
  -28.1930  -20.1400   19.6890 N   0  0  0  0  0  4  0  0  0  0  0  0
  -29.7570  -21.7070   20.3260 N   0  0  0  0  0  0  0  0  0  0  0  0
  -27.8220  -19.2030   19.7430 H   0  0  0  0  0  0  0  0  0  0  0  0
  -27.6640  -20.8290   19.1820 H   0  0  0  0  0  0  0  0  0  0  0  0
  -30.6620  -21.8560   20.7500 H   0  0  0  0  0  0  0  0  0  0  0  0
  -31.1960  -18.4110   23.0300 C   0  0  0  0  0  3  0  0  0  0  0  0
  -31.0460  -17.0980   22.5380 C   0  0  0  0  0  3  0  0  0  0  0  0
  -29.8830  -17.9910   20.5980 C   0  0  0  0  0  3  0  0  0  0  0  0
  -29.9930  -19.3280   21.0990 C   0  0  0  0  0  0  0  0  0  0  0  0
  -30.6600  -19.5270   22.3450 C   0  0  0  0  0  0  0  0  0  0  0  0
  -30.3750  -16.8710   21.3190 C   0  0  0  0  0  0  0  0  0  0  0  0
  -30.7760  -20.8890   23.0310 C   0  0  0  0  0  1  0  0  0  0  0  0
  -30.7240  -14.5380   20.4030 C   0  0  0  0  0  0  0  0  0  0  0  0
  -30.4210  -12.3720   19.2260 C   0  0  0  0  0  2  0  0  0  0  0  0
  -29.4710  -12.5520   18.0230 C   0  0  0  0  0  2  0  0  0  0  0  0
  -27.9960  -12.4190   18.4570 C   0  0  0  0  0  2  0  0  0  0  0  0
  -27.6630  -13.2790   19.7070 C   0  0  0  0  0  3  0  0  0  0  0  0
  -28.7190  -13.0650   20.8150 C   0  0  0  0  0  2  0  0  0  0  0  0
  -30.0450  -13.3640   20.2470 N   0  0  0  0  0  0  0  0  0  0  0  0
  -31.8570  -14.7210   19.9460 O   0  0  0  0  0  0  0  0  0  0  0  0
  -29.9940  -15.5400   20.9460 N   0  0  0  0  0  0  0  0  0  0  0  0
  -29.0390  -15.2910   21.1550 H   0  0  0  0  0  0  0  0  0  0  0  0
  -25.2810  -13.9350   20.4340 C   0  0  0  0  0  0  0  0  0  0  0  0
  -24.2000  -13.1840   20.8100 C   0  0  0  0  0  0  0  0  0  0  0  0
  -24.6350  -11.8240   20.7780 C   0  0  0  0  0  0  0  0  0  0  0  0
  -26.3070  -13.0320   20.1960 N   0  0  0  0  0  0  0  0  0  0  0  0
  -25.9210  -11.7570   20.4620 N   0  0  0  0  0  0  0  0  0  0  0  0
  -23.8860  -10.5760   20.9790 C   0  0  0  0  0  0  0  0  0  0  0  0
  -24.3060   -9.6070   21.9150 C   0  0  0  0  0  3  0  0  0  0  0  0
  -23.5590   -8.4240   22.1050 C   0  0  0  0  0  3  0  0  0  0  0  0
  -22.3780   -8.2050   21.3620 C   0  0  0  0  0  0  0  0  0  0  0  0
  -21.9740   -9.1650   20.4180 C   0  0  0  0  0  3  0  0  0  0  0  0
  -22.7200  -10.3380   20.2240 C   0  0  0  0  0  3  0  0  0  0  0  0
  -21.6020   -7.0750   21.4590 O   0  0  0  0  0  0  0  0  0  0  0  0
  -21.5480   -6.3370   22.6130 C   0  0  0  0  0  0  0  0  0  0  0  0
  -21.1400   -6.9020   23.8410 C   0  0  0  0  0  3  0  0  0  0  0  0
  -21.0320   -6.0900   24.9890 C   0  0  0  0  0  3  0  0  0  0  0  0
  -21.3210   -4.7150   24.9090 C   0  0  0  0  0  0  0  0  0  0  0  0
  -21.7230   -4.1490   23.6840 C   0  0  0  0  0  3  0  0  0  0  0  0
  -21.8320   -4.9580   22.5400 C   0  0  0  0  0  0  0  0  0  0  0  0
  -22.1970   -4.4040   21.3590 F   0  0  0  0  0  0  0  0  0  0  0  0
  -21.2080   -3.9350   26.0090 F   0  0  0  0  0  0  0  0  0  0  0  0
  -22.8140  -13.6910   21.0920 C   0  0  0  0  0  0  0  0  0  0  0  0
  -22.0800  -13.0090   21.9640 N   0  0  0  0  0  0  0  0  0  0  0  0
  -22.3920  -14.7240   20.5740 O   0  0  0  0  0  0  0  0  0  0  0  0
  -22.4360  -12.1730   22.4000 H   0  0  0  0  0  0  0  0  0  0  0  0
  -21.1470  -13.3270   22.1900 H   0  0  0  0  0  0  0  0  0  0  0  0
  -25.4710  -15.3020   20.2550 N   0  0  0  0  0  0  0  0  0  0  0  0
  -24.7120  -15.9650   20.3730 H   0  0  0  0  0  0  0  0  0  0  0  0
  -26.3240  -15.7370   19.9240 H   0  0  0  0  0  0  0  0  0  0  0  0
  -29.1340  -22.8670   19.6220 C   0  0  0  0  0  2  0  0  0  0  0  0
  -29.2900  -24.2570   20.3130 C   0  0  0  0  0  2  0  0  0  0  0  0
  -28.2350  -25.2700   19.7820 C   0  0  0  0  0  2  0  0  0  0  0  0
  -28.3200  -26.6430   20.2400 O   0  0  0  0  0  0  0  0  0  0  0  0
  -24.5850  -31.9240   23.2780 C   0  0  0  0  0  0  0  0  0  0  0  0
  -27.1650  -27.4210   20.1930 C   0  0  0  0  0  0  0  0  0  0  0  0
  -23.3510  -30.5340   21.6460 C   0  0  0  0  0  3  0  0  0  0  0  0
  -24.7860  -28.9830   20.2090 C   0  0  0  0  0  0  0  0  0  0  0  0
  -25.8830  -30.8580   21.4340 C   0  0  0  0  0  2  0  0  0  0  0  0
  -25.9520  -29.4820   20.8020 C   0  0  0  0  0  0  0  0  0  0  0  0
  -27.1390  -28.7050   20.7990 C   0  0  0  0  0  3  0  0  0  0  0  0
  -25.9780  -26.9690   19.5660 C   0  0  0  0  0  3  0  0  0  0  0  0
  -24.7970  -27.7280   19.5860 C   0  0  0  0  0  3  0  0  0  0  0  0
  -23.5440  -29.8470   20.2680 C   0  0  0  0  0  2  0  0  0  0  0  0
  -24.6260  -31.1190   22.1780 N   0  0  0  0  0  0  0  0  0  0  0  0
  -23.5120  -32.2040   23.8290 O   0  0  0  0  0  0  0  0  0  0  0  0
  -22.6950  -29.5250   22.6150 C   0  0  0  0  0  0  0  0  0  0  0  0
  -21.3720  -29.3380   22.4890 N   0  0  0  0  0  0  0  0  0  0  0  0
  -23.3750  -28.9080   23.4380 O   0  0  0  0  0  0  0  0  0  0  0  0
  -20.8780  -29.8870   21.7980 H   0  0  0  0  0  0  0  0  0  0  0  0
  -18.0060  -28.1240   22.9780 C   0  0  0  0  0  0  0  0  0  0  0  0
  -20.5580  -28.4050   23.2670 C   0  0  0  0  0  3  0  0  0  0  0  0
  -20.6760  -26.9660   22.7120 C   0  0  0  0  0  2  0  0  0  0  0  0
  -19.5890  -26.6190   21.6920 C   0  0  0  0  0  2  0  0  0  0  0  0
  -18.2000  -26.7660   22.3210 C   0  0  0  0  0  2  0  0  0  0  0  0
  -19.1140  -28.9010   23.4070 C   0  0  0  0  0  0  0  0  0  0  0  0
  -18.8820  -30.1710   23.9790 C   0  0  0  0  0  3  0  0  0  0  0  0
  -17.5720  -30.6670   24.1240 C   0  0  0  0  0  3  0  0  0  0  0  0
  -16.4770  -29.8860   23.7150 C   0  0  0  0  0  3  0  0  0  0  0  0
  -16.6940  -28.6160   23.1500 C   0  0  0  0  0  3  0  0  0  0  0  0
  -25.8820  -32.5520   23.8800 C   0  0  0  0  0  3  0  0  0  0  0  0
  -26.4070  -31.7810   25.1520 C   0  0  1  0  0  0  0  0  0  0  0  0
  -25.3260  -31.5430   26.2330 C   0  0  0  0  0  1  0  0  0  0  0  0
  -26.9860  -30.4030   24.7600 C   0  0  0  0  0  1  0  0  0  0  0  0
  -27.5710  -32.5700   25.8020 C   0  0  0  0  0  1  0  0  0  0  0  0
  -25.5850  -33.9520   24.2120 N   0  0  0  0  0  0  0  0  0  0  0  0
  -25.9000  -35.0010   23.4380 C   0  0  0  0  0  0  0  0  0  0  0  0
  -26.5490  -34.8900   22.3930 O   0  0  0  0  0  0  0  0  0  0  0  0
  -25.0100  -34.1080   25.0260 H   0  0  0  0  0  0  0  0  0  0  0  0
  -24.1770  -36.8060   23.1030 C   0  0  0  0  0  1  0  0  0  0  0  0
  -25.4280  -36.3940   23.8960 C   0  0  0  0  0  3  0  0  0  0  0  0
  -27.5790  -37.2780   24.6880 C   0  0  0  0  0  1  0  0  0  0  0  0
  -26.4620  -37.4420   23.7590 N   0  0  0  0  0  0  0  0  0  0  0  0
  -26.0610  -38.3630   23.9090 H   0  0  0  0  0  0  0  0  0  0  0  0
  1 10  1  0
  2  4  1  0
  2  1  2  0
  3  1  1  0
  3  6  1  0
  5  2  1  0
  8  7  1  0
  9 10  2  0
  9 12  1  0
 10 11  1  0
 11  7  2  0
 11 13  1  0
 12  8  2  0
 14 22  1  0
 15 20  1  0
 16 17  1  0
 16 15  1  0
 18 17  1  0
 18 27  1  0
 18 19  1  0
 20 14  1  0
 20 19  1  0
 21 14  2  0
 22 23  1  0
 22 12  1  0
 24 25  2  0
 25 44  1  0
 26 25  1  0
 26 29  1  0
 27 24  1  0
 27 28  1  0
 28 26  2  0
 29 30  1  0
 30 31  2  0
 32 35  1  0
 32 31  1  0
 33 32  2  0
 34 33  1  0
 34 29  2  0
 35 36  1  0
 36 37  1  0
 37 38  2  0
 39 38  1  0
 39 43  1  0
 40 39  2  0
 41 36  2  0
 41 40  1  0
 42 41  1  0
 44 45  1  0
 45 48  1  0
 45 47  1  0
 46 44  2  0
 49 50  1  0
 49 24  1  0
 51 49  1  0
 52 53  1  0
 52  3  1  0
 54 55  1  0
 54 53  1  0
 56 67  2  0
 57 55  1  0
 57 62  1  0
 58 66  1  0
 58 68  1  0
 59 65  1  0
 59 61  1  0
 60 66  1  0
 61 60  1  0
 62 61  2  0
 63 64  1  0
 63 57  2  0
 64 59  2  0
 65 58  1  0
 66 56  1  0
 68 70  2  0
 69 68  1  0
 71 69  1  0
 72 81  2  0
 72 77  1  0
 73 69  1  0
 73 77  1  0
 74 73  1  0
 75 76  1  0
 75 74  1  0
 76 72  1  0
 77 78  2  0
 78 79  1  0
 80 79  2  0
 81 80  1  0
 82 56  1  0
 82 87  1  0
 82 83  1  0
 83 86  1  1
 83 84  1  0
 85 83  1  0
 87 90  1  0
 88 92  1  0
 88 87  1  0
 89 88  2  0
 92 91  1  0
 94 92  1  0
 94 95  1  0
 94 93  1  0
M  ISO  4  14 100  22 100  54 101  55 101
M  END
>  <TORSDO>  (50) 
F 20

>  <SCORE>  (50) 
-13.467

>  <name>  (50) 
49

>  <ligand_id>  (50) 
49

>  <original_smiles>  (50) 
[H]c1c([H])c([H])c2c(c1[H])C([H])([H])C([H])([H])C([H])([H])C2([H])N([H])C(=O)C1([H])N(C(=O)C([H])(N([H])C(=O)C([H])(N([H])C([H])([H])[H])C([H])([H])[H])C(C([H])([H])[H])(C([H])([H])[H])C([H])([H])[H])C([H])([H])c2c([H])c(OC([H])([H])C([H])([H])C([H])([H])[N+]([H])=C(c3c([H])c(N([H])C(=O)N4C([H])([H])C([H])([H])C([H])([H])C([H])(n5nc(-c6c([H])c([H])c(Oc7c([H])c([H])c(F)c([H])c7F)c([H])c6[H])c(C(=O)N([H])[H])c5N([H])[H])C4([H])[H])c([H])c([H])c3C([H])([H])[H])N([H])[H])c([H])c([H])c2C1([H])[H]

>  <smiles>  (50) 
[H]c1c([H])c([H])c2c(c1[H])C([H])([H])C([H])([H])C([H])([H])C2([H])N([H])C(=O)C1([H])N(C(=O)C([H])(N([H])C(=O)C([H])(N([H])C([H])([H])[H])C([H])([H])[H])C(C([H])([H])[H])(C([H])([H])[H])C([H])([H])[H])C([H])([H])c2c([H])c(OC([H])([H])C([H])([H])C([H])([H])[N+]([H])=C(c3c([H])c(N([H])C(=O)N4C([H])([H])C([H])([H])C([H])([H])C([H])(n5nc(-c6c([H])c([H])c(Oc7c([H])c([H])c(F)c([H])c7F)c([H])c6[H])c(C(=O)N([H])[H])c5N([H])[H])C4([H])[H])c([H])c([H])c3C([H])([H])[H])N([H])[H])c([H])c([H])c2C1([H])[H]

$$$$
50:0:0
     RDKit          3D

 94103  0  0  1  0  0  0  0  0999 V2000
  -28.5720  -23.7200   19.8400 C   0  0  0  0  0  0  0  0  0  0  0  0
  -29.8090  -23.7590   22.4440 C   0  0  0  0  0  2  0  0  0  0  0  0
  -29.3920  -25.1320   21.8980 C   0  0  0  0  0  2  0  0  0  0  0  0
  -30.3140  -22.8700   21.2960 C   0  0  0  0  0  2  0  0  0  0  0  0
  -28.3930  -25.0620   20.7250 C   0  0  0  0  0  3  0  0  0  0  0  0
  -29.2490  -22.5930   20.3230 N   0  0  0  0  0  0  0  0  0  0  0  0
  -27.9980  -23.6820   18.7470 O   0  0  0  0  0  0  0  0  0  0  0  0
  -28.4580  -26.4070   20.0580 O   0  0  0  0  0  0  0  0  0  0  0  0
  -24.6550  -31.7820   23.1870 C   0  0  0  0  0  0  0  0  0  0  0  0
  -27.3370  -27.2590   20.1020 C   0  0  0  0  0  0  0  0  0  0  0  0
  -23.4780  -30.3760   21.5360 C   0  0  0  0  0  3  0  0  0  0  0  0
  -24.9540  -28.8510   20.1040 C   0  0  0  0  0  0  0  0  0  0  0  0
  -26.0150  -30.7290   21.3590 C   0  0  0  0  0  2  0  0  0  0  0  0
  -26.1180  -29.3520   20.7030 C   0  0  0  0  0  0  0  0  0  0  0  0
  -27.3180  -28.5710   20.6850 C   0  0  0  0  0  3  0  0  0  0  0  0
  -26.1500  -26.8130   19.4910 C   0  0  0  0  0  3  0  0  0  0  0  0
  -24.9730  -27.5890   19.4890 C   0  0  0  0  0  3  0  0  0  0  0  0
  -23.7050  -29.7100   20.1540 C   0  0  0  0  0  2  0  0  0  0  0  0
  -24.7350  -30.9810   22.0840 N   0  0  0  0  0  0  0  0  0  0  0  0
  -23.5660  -32.0380   23.7210 O   0  0  0  0  0  0  0  0  0  0  0  0
  -22.8280  -29.3440   22.4880 C   0  0  0  0  0  0  0  0  0  0  0  0
  -21.5070  -29.1340   22.3460 N   0  0  0  0  0  0  0  0  0  0  0  0
  -23.5100  -28.7370   23.3180 O   0  0  0  0  0  0  0  0  0  0  0  0
  -21.0160  -29.6770   21.6500 H   0  0  0  0  0  0  0  0  0  0  0  0
  -18.1670  -27.8010   22.7560 C   0  0  0  0  0  0  0  0  0  0  0  0
  -20.7030  -28.1740   23.1030 C   0  0  0  0  0  3  0  0  0  0  0  0
  -20.8840  -26.7390   22.5560 C   0  0  0  0  0  2  0  0  0  0  0  0
  -19.8300  -26.3550   21.5120 C   0  0  0  0  0  2  0  0  0  0  0  0
  -18.4240  -26.4500   22.1080 C   0  0  0  0  0  2  0  0  0  0  0  0
  -19.2380  -28.6170   23.2090 C   0  0  0  0  0  0  0  0  0  0  0  0
  -18.9470  -29.8770   23.7740 C   0  0  0  0  0  3  0  0  0  0  0  0
  -17.6170  -30.3250   23.8880 C   0  0  0  0  0  3  0  0  0  0  0  0
  -16.5610  -29.5060   23.4510 C   0  0  0  0  0  3  0  0  0  0  0  0
  -16.8360  -28.2460   22.8930 C   0  0  0  0  0  3  0  0  0  0  0  0
  -25.9250  -32.4330   23.8180 C   0  0  0  0  0  3  0  0  0  0  0  0
  -25.5890  -33.8230   24.1610 N   0  0  0  0  0  0  0  0  0  0  0  0
  -25.9130  -34.8910   23.4190 C   0  0  0  0  0  0  0  0  0  0  0  0
  -26.5940  -34.8090   22.3920 O   0  0  0  0  0  0  0  0  0  0  0  0
  -24.9790  -33.9580   24.9530 H   0  0  0  0  0  0  0  0  0  0  0  0
  -24.1580  -36.6610   23.0800 C   0  0  0  0  0  1  0  0  0  0  0  0
  -25.4040  -36.2670   23.8900 C   0  0  0  0  0  3  0  0  0  0  0  0
  -27.5250  -37.1710   24.7320 C   0  0  0  0  0  1  0  0  0  0  0  0
  -26.4190  -37.3370   23.7930 N   0  0  0  0  0  0  0  0  0  0  0  0
  -25.9990  -38.2480   23.9560 H   0  0  0  0  0  0  0  0  0  0  0  0
  -26.4510  -31.6600   25.0910 C   0  0  1  0  0  0  0  0  0  0  0  0
  -25.3600  -31.3970   26.1560 C   0  0  0  0  0  1  0  0  0  0  0  0
  -27.0530  -30.2920   24.6910 C   0  0  0  0  0  1  0  0  0  0  0  0
  -27.5890  -32.4670   25.7580 C   0  0  0  0  0  1  0  0  0  0  0  0
  -29.2520  -21.1820   19.6890 C   0  0  0  0  0  2  0  0  0  0  0  0
  -30.1810  -19.8460   21.7440 C   0  0  0  0  0  3  0  0  0  0  0  0
  -30.8350  -17.4690   21.6920 C   0  0  0  0  0  3  0  0  0  0  0  0
  -29.8900  -18.5410   19.7220 C   0  0  0  0  0  3  0  0  0  0  0  0
  -30.7040  -18.6970   22.3800 C   0  0  0  0  0  0  0  0  0  0  0  0
  -29.8030  -19.8400   20.3840 C   0  0  0  0  0  0  0  0  0  0  0  0
  -30.4040  -17.3290   20.3550 C   0  0  0  0  0  0  0  0  0  0  0  0
  -31.0970  -18.7890   23.8430 C   0  0  0  0  0  1  0  0  0  0  0  0
  -31.0780  -14.8100   19.9210 C   0  0  0  0  0  0  0  0  0  0  0  0
  -30.7870  -12.5150   18.9560 C   0  0  0  0  0  2  0  0  0  0  0  0
  -29.7990  -12.5730   17.7720 C   0  0  0  0  0  2  0  0  0  0  0  0
  -28.3420  -12.4670   18.2640 C   0  0  0  0  0  2  0  0  0  0  0  0
  -28.0410  -13.4030   19.4630 C   0  0  0  0  0  3  0  0  0  0  0  0
  -29.1390  -13.3110   20.5420 C   0  0  0  0  0  2  0  0  0  0  0  0
  -30.4160  -13.6050   19.8790 N   0  0  0  0  0  0  0  0  0  0  0  0
  -32.2900  -14.8590   19.6920 O   0  0  0  0  0  0  0  0  0  0  0  0
  -30.2890  -15.9500   19.8190 N   0  0  0  0  0  0  0  0  0  0  0  0
  -29.3500  -15.7200   19.5360 H   0  0  0  0  0  0  0  0  0  0  0  0
  -25.7260  -14.1170   20.3030 C   0  0  0  0  0  0  0  0  0  0  0  0
  -24.6350  -13.3970   20.7080 C   0  0  0  0  0  0  0  0  0  0  0  0
  -25.0220  -12.0230   20.6450 C   0  0  0  0  0  0  0  0  0  0  0  0
  -26.7080  -13.1830   20.0120 N   0  0  0  0  0  0  0  0  0  0  0  0
  -26.2950  -11.9190   20.2830 N   0  0  0  0  0  0  0  0  0  0  0  0
  -24.2360  -10.8000   20.8510 C   0  0  0  0  0  0  0  0  0  0  0  0
  -24.6320   -9.8130   21.7800 C   0  0  0  0  0  3  0  0  0  0  0  0
  -23.8480   -8.6560   21.9730 C   0  0  0  0  0  3  0  0  0  0  0  0
  -22.6560   -8.4760   21.2350 C   0  0  0  0  0  0  0  0  0  0  0  0
  -22.2770   -9.4510   20.2950 C   0  0  0  0  0  3  0  0  0  0  0  0
  -23.0610  -10.6000   20.1000 C   0  0  0  0  0  3  0  0  0  0  0  0
  -21.8450   -7.3710   21.3370 O   0  0  0  0  0  0  0  0  0  0  0  0
  -21.7450   -6.6580   22.5050 C   0  0  0  0  0  0  0  0  0  0  0  0
  -21.3510   -7.2660   23.7170 C   0  0  0  0  0  3  0  0  0  0  0  0
  -21.1910   -6.4820   24.8770 C   0  0  0  0  0  3  0  0  0  0  0  0
  -21.4170   -5.0940   24.8270 C   0  0  0  0  0  0  0  0  0  0  0  0
  -21.8040   -4.4850   23.6200 C   0  0  0  0  0  3  0  0  0  0  0  0
  -21.9640   -5.2660   22.4610 C   0  0  0  0  0  0  0  0  0  0  0  0
  -22.3170   -4.6710   21.2960 F   0  0  0  0  0  0  0  0  0  0  0  0
  -21.2550   -4.3410   25.9410 F   0  0  0  0  0  0  0  0  0  0  0  0
  -23.2770  -13.9460   21.0390 C   0  0  0  0  0  0  0  0  0  0  0  0
  -22.5500  -13.2890   21.9360 N   0  0  0  0  0  0  0  0  0  0  0  0
  -22.8720  -14.9940   20.5350 O   0  0  0  0  0  0  0  0  0  0  0  0
  -22.8940  -12.4440   22.3660 H   0  0  0  0  0  0  0  0  0  0  0  0
  -21.6400  -13.6390   22.1990 H   0  0  0  0  0  0  0  0  0  0  0  0
  -25.9560  -15.4780   20.1340 N   0  0  0  0  0  0  0  0  0  0  0  0
  -25.2300  -16.1680   20.2920 H   0  0  0  0  0  0  0  0  0  0  0  0
  -26.8090  -15.8830   19.7720 H   0  0  0  0  0  0  0  0  0  0  0  0
  1  6  1  0
  1  5  1  0
  3  2  1  0
  4  2  1  0
  5  8  1  0
  5  3  1  0
  6  4  1  0
  7  1  2  0
  8 10  1  0
  9 20  2  0
 10 15  1  0
 11 19  1  0
 11 21  1  0
 12 18  1  0
 12 14  1  0
 13 19  1  0
 14 13  1  0
 15 14  2  0
 16 10  2  0
 17 16  1  0
 17 12  2  0
 18 11  1  0
 19  9  1  0
 21 23  2  0
 22 21  1  0
 24 22  1  0
 25 34  2  0
 25 30  1  0
 26 22  1  0
 26 30  1  0
 27 26  1  0
 28 29  1  0
 28 27  1  0
 29 25  1  0
 30 31  2  0
 31 32  1  0
 33 32  2  0
 34 33  1  0
 35  9  1  0
 35 36  1  0
 35 45  1  0
 36 39  1  0
 37 41  1  0
 37 36  1  0
 38 37  2  0
 41 40  1  0
 43 41  1  0
 43 44  1  0
 43 42  1  0
 45 48  1  1
 45 46  1  0
 47 45  1  0
 49  6  1  0
 49 54  1  0
 50 53  1  0
 51 53  2  0
 52 55  2  0
 52 54  1  0
 53 56  1  0
 54 50  2  0
 55 51  1  0
 58 63  1  0
 59 60  1  0
 59 58  1  0
 61 60  1  0
 61 70  1  0
 61 62  1  0
 63 57  1  0
 63 62  1  0
 64 57  2  0
 65 57  1  0
 65 55  1  0
 66 65  1  0
 67 68  2  0
 68 87  1  0
 69 68  1  0
 69 72  1  0
 70 71  1  0
 70 67  1  0
 71 69  2  0
 72 73  1  0
 73 74  2  0
 75 78  1  0
 75 74  1  0
 76 75  2  0
 77 76  1  0
 77 72  2  0
 78 79  1  0
 79 80  1  0
 80 81  2  0
 82 81  1  0
 82 86  1  0
 83 82  2  0
 84 79  2  0
 84 83  1  0
 85 84  1  0
 87 88  1  0
 88 91  1  0
 88 90  1  0
 89 87  2  0
 92 93  1  0
 92 67  1  0
 94 92  1  0
M  ISO  4   5 101   8 101  57 100  65 100
M  END
>  <TORSDO>  (51) 
F 18

>  <SCORE>  (51) 
-13.827

>  <name>  (51) 
50

>  <ligand_id>  (51) 
50

>  <original_smiles>  (51) 
[H]c1c([H])c([H])c2c(c1[H])C([H])([H])C([H])([H])C([H])([H])C2([H])N([H])C(=O)C1([H])N(C(=O)C([H])(N([H])C(=O)C([H])(N([H])C([H])([H])[H])C([H])([H])[H])C(C([H])([H])[H])(C([H])([H])[H])C([H])([H])[H])C([H])([H])c2c([H])c(OC3([H])C(=O)N(C([H])([H])c4c([H])c(N([H])C(=O)N5C([H])([H])C([H])([H])C([H])([H])C([H])(n6nc(-c7c([H])c([H])c(Oc8c([H])c([H])c(F)c([H])c8F)c([H])c7[H])c(C(=O)N([H])[H])c6N([H])[H])C5([H])[H])c([H])c(C([H])([H])[H])c4[H])C([H])([H])C([H])([H])C3([H])[H])c([H])c([H])c2C1([H])[H]

>  <smiles>  (51) 
[H]c1c([H])c([H])c2c(c1[H])C([H])([H])C([H])([H])C([H])([H])C2([H])N([H])C(=O)C1([H])N(C(=O)C([H])(N([H])C(=O)C([H])(N([H])C([H])([H])[H])C([H])([H])[H])C(C([H])([H])[H])(C([H])([H])[H])C([H])([H])[H])C([H])([H])c2c([H])c(OC3([H])C(=O)N(C([H])([H])c4c([H])c(N([H])C(=O)N5C([H])([H])C([H])([H])C([H])([H])C([H])(n6nc(-c7c([H])c([H])c(Oc8c([H])c([H])c(F)c([H])c8F)c([H])c7[H])c(C(=O)N([H])[H])c6N([H])[H])C5([H])[H])c([H])c(C([H])([H])[H])c4[H])C([H])([H])C([H])([H])C3([H])[H])c([H])c([H])c2C1([H])[H]

$$$$
51:0:0
     RDKit          3D

 95104  0  0  1  0  0  0  0  0999 V2000
  -28.8930  -23.6510   20.4450 C   0  0  0  0  0  0  0  0  0  0  0  0
  -27.8520  -23.1360   17.7510 C   0  0  0  0  0  2  0  0  0  0  0  0
  -27.4400  -24.4010   18.5210 C   0  0  0  0  0  2  0  0  0  0  0  0
  -29.0220  -22.3550   18.3710 C   0  0  0  0  0  2  0  0  0  0  0  0
  -28.4770  -24.9290   19.5370 C   0  0  0  0  0  3  0  0  0  0  0  0
  -29.1010  -22.3960   19.8450 N   0  0  0  0  0  0  0  0  0  0  0  0
  -28.9970  -23.8010   21.6660 O   0  0  0  0  0  0  0  0  0  0  0  0
  -28.2990  -26.3200   20.1810 O   0  0  0  0  0  0  0  0  0  0  0  0
  -24.6340  -31.8740   23.2270 C   0  0  0  0  0  0  0  0  0  0  0  0
  -27.1800  -27.2170   20.1280 C   0  0  0  0  0  0  0  0  0  0  0  0
  -23.4110  -30.4830   21.6060 C   0  0  0  0  0  3  0  0  0  0  0  0
  -24.8370  -28.9330   20.1630 C   0  0  0  0  0  0  0  0  0  0  0  0
  -25.9630  -30.7640   21.4040 C   0  0  0  0  0  2  0  0  0  0  0  0
  -26.0270  -29.3820   20.7460 C   0  0  0  0  0  0  0  0  0  0  0  0
  -27.1950  -28.5390   20.7150 C   0  0  0  0  0  3  0  0  0  0  0  0
  -25.9380  -26.8560   19.5540 C   0  0  0  0  0  3  0  0  0  0  0  0
  -24.8020  -27.6760   19.5590 C   0  0  0  0  0  3  0  0  0  0  0  0
  -23.6120  -29.8210   20.2210 C   0  0  0  0  0  2  0  0  0  0  0  0
  -24.6910  -31.0580   22.1330 N   0  0  0  0  0  0  0  0  0  0  0  0
  -23.5540  -32.1560   23.7690 O   0  0  0  0  0  0  0  0  0  0  0  0
  -22.7520  -29.4640   22.5680 C   0  0  0  0  0  0  0  0  0  0  0  0
  -21.4240  -29.2860   22.4510 N   0  0  0  0  0  0  0  0  0  0  0  0
  -23.4340  -28.8390   23.3840 O   0  0  0  0  0  0  0  0  0  0  0  0
  -20.9310  -29.8420   21.7660 H   0  0  0  0  0  0  0  0  0  0  0  0
  -18.0520  -28.0710   22.9670 C   0  0  0  0  0  0  0  0  0  0  0  0
  -20.6100  -28.3500   23.2300 C   0  0  0  0  0  3  0  0  0  0  0  0
  -20.7190  -26.9130   22.6680 C   0  0  0  0  0  2  0  0  0  0  0  0
  -19.6170  -26.5760   21.6580 C   0  0  0  0  0  2  0  0  0  0  0  0
  -18.2350  -26.7170   22.3030 C   0  0  0  0  0  2  0  0  0  0  0  0
  -19.1660  -28.8450   23.3880 C   0  0  0  0  0  0  0  0  0  0  0  0
  -18.9390  -30.1110   23.9710 C   0  0  0  0  0  3  0  0  0  0  0  0
  -17.6320  -30.6040   24.1360 C   0  0  0  0  0  3  0  0  0  0  0  0
  -16.5320  -29.8280   23.7290 C   0  0  0  0  0  3  0  0  0  0  0  0
  -16.7430  -28.5640   23.1510 C   0  0  0  0  0  3  0  0  0  0  0  0
  -25.9200  -32.5060   23.8370 C   0  0  0  0  0  3  0  0  0  0  0  0
  -26.4500  -31.7320   25.1050 C   0  0  1  0  0  0  0  0  0  0  0  0
  -25.3690  -31.4920   26.1860 C   0  0  0  0  0  1  0  0  0  0  0  0
  -27.0270  -30.3530   24.7060 C   0  0  0  0  0  1  0  0  0  0  0  0
  -27.6090  -32.5230   25.7560 C   0  0  0  0  0  1  0  0  0  0  0  0
  -25.6100  -33.9030   24.1780 N   0  0  0  0  0  0  0  0  0  0  0  0
  -25.9280  -34.9620   23.4230 C   0  0  0  0  0  0  0  0  0  0  0  0
  -26.5820  -34.8670   22.3810 O   0  0  0  0  0  0  0  0  0  0  0  0
  -25.0260  -34.0500   24.9890 H   0  0  0  0  0  0  0  0  0  0  0  0
  -24.1900  -36.7550   23.1080 C   0  0  0  0  0  1  0  0  0  0  0  0
  -25.4440  -36.3470   23.8970 C   0  0  0  0  0  3  0  0  0  0  0  0
  -27.5910  -37.2300   24.6990 C   0  0  0  0  0  1  0  0  0  0  0  0
  -26.4730  -37.4030   23.7760 N   0  0  0  0  0  0  0  0  0  0  0  0
  -26.0670  -38.3200   23.9370 H   0  0  0  0  0  0  0  0  0  0  0  0
  -29.4050  -21.0120   20.5010 C   0  0  0  0  0  2  0  0  0  0  0  0
  -31.4170  -17.9030   18.8940 C   0  0  0  0  0  3  0  0  0  0  0  0
  -32.3130  -18.6410   18.1100 C   0  0  0  0  0  3  0  0  0  0  0  0
  -31.4530  -20.6720   19.0970 C   0  0  0  0  0  3  0  0  0  0  0  0
  -30.5200  -18.4990   19.8150 C   0  0  0  0  0  0  0  0  0  0  0  0
  -30.4380  -19.9890   19.8160 C   0  0  0  0  0  0  0  0  0  0  0  0
  -32.3630  -20.0290   18.2460 C   0  0  0  0  0  0  0  0  0  0  0  0
  -33.5150  -20.9510   17.3530 Cl  0  0  0  0  0  0  0  0  0  0  0  0
  -29.8550  -17.4320   20.7870 C   0  0  0  0  0  2  0  0  0  0  0  0
  -30.5640  -14.7950   20.4000 C   0  0  0  0  0  0  0  0  0  0  0  0
  -30.3870  -12.5140   19.3720 C   0  0  0  0  0  2  0  0  0  0  0  0
  -29.4420  -12.5700   18.1500 C   0  0  0  0  0  2  0  0  0  0  0  0
  -27.9720  -12.3930   18.5820 C   0  0  0  0  0  2  0  0  0  0  0  0
  -27.5930  -13.2830   19.7950 C   0  0  0  0  0  3  0  0  0  0  0  0
  -28.6550  -13.1990   20.9130 C   0  0  0  0  0  2  0  0  0  0  0  0
  -29.9460  -13.5650   20.3140 N   0  0  0  0  0  0  0  0  0  0  0  0
  -31.7750  -14.8860   20.1840 O   0  0  0  0  0  0  0  0  0  0  0  0
  -29.7380  -15.9110   20.5080 N   0  0  0  0  0  0  0  0  0  0  0  0
  -28.7740  -15.6190   20.5340 H   0  0  0  0  0  0  0  0  0  0  0  0
  -25.2060  -13.8810   20.5160 C   0  0  0  0  0  0  0  0  0  0  0  0
  -24.1380  -13.1100   20.8870 C   0  0  0  0  0  0  0  0  0  0  0  0
  -24.6010  -11.7590   20.8670 C   0  0  0  0  0  0  0  0  0  0  0  0
  -26.2500  -13.0000   20.2880 N   0  0  0  0  0  0  0  0  0  0  0  0
  -25.8920  -11.7190   20.5630 N   0  0  0  0  0  0  0  0  0  0  0  0
  -23.8720  -10.4980   21.0600 C   0  0  0  0  0  0  0  0  0  0  0  0
  -24.3110   -9.5250   21.9860 C   0  0  0  0  0  3  0  0  0  0  0  0
  -23.5830   -8.3300   22.1660 C   0  0  0  0  0  3  0  0  0  0  0  0
  -22.4010   -8.0990   21.4230 C   0  0  0  0  0  0  0  0  0  0  0  0
  -21.9810   -9.0600   20.4870 C   0  0  0  0  0  3  0  0  0  0  0  0
  -22.7100  -10.2470   20.3040 C   0  0  0  0  0  3  0  0  0  0  0  0
  -21.6430   -6.9570   21.5140 O   0  0  0  0  0  0  0  0  0  0  0  0
  -21.6190   -6.1980   22.6570 C   0  0  0  0  0  0  0  0  0  0  0  0
  -21.2410   -6.7420   23.9040 C   0  0  0  0  0  3  0  0  0  0  0  0
  -21.1640   -5.9110   25.0410 C   0  0  0  0  0  3  0  0  0  0  0  0
  -21.4550   -4.5370   24.9290 C   0  0  0  0  0  0  0  0  0  0  0  0
  -21.8260   -3.9930   23.6880 C   0  0  0  0  0  3  0  0  0  0  0  0
  -21.9050   -4.8220   22.5540 C   0  0  0  0  0  0  0  0  0  0  0  0
  -22.2420   -4.2890   21.3550 F   0  0  0  0  0  0  0  0  0  0  0  0
  -21.3730   -3.7370   26.0190 F   0  0  0  0  0  0  0  0  0  0  0  0
  -22.7390  -13.5900   21.1480 C   0  0  0  0  0  0  0  0  0  0  0  0
  -22.0060  -12.9010   22.0150 N   0  0  0  0  0  0  0  0  0  0  0  0
  -22.3050  -14.6110   20.6170 O   0  0  0  0  0  0  0  0  0  0  0  0
  -22.3700  -12.0750   22.4670 H   0  0  0  0  0  0  0  0  0  0  0  0
  -21.0670  -13.2050   22.2300 H   0  0  0  0  0  0  0  0  0  0  0  0
  -25.3680  -15.2510   20.3280 N   0  0  0  0  0  0  0  0  0  0  0  0
  -24.5920  -15.8980   20.4230 H   0  0  0  0  0  0  0  0  0  0  0  0
  -26.1990  -15.6880   19.9520 H   0  0  0  0  0  0  0  0  0  0  0  0
  1  7  2  0
  2  4  1  0
  2  3  1  0
  3  5  1  0
  4  6  1  0
  5  8  1  0
  5  1  1  0
  6  1  1  0
  6 49  1  0
  9 20  2  0
 10  8  1  0
 10 15  1  0
 11 19  1  0
 11 21  1  0
 12 18  1  0
 12 14  1  0
 13 19  1  0
 14 13  1  0
 15 14  2  0
 16 17  1  0
 16 10  2  0
 17 12  2  0
 18 11  1  0
 19  9  1  0
 21 23  2  0
 22 21  1  0
 24 22  1  0
 25 34  2  0
 25 30  1  0
 26 22  1  0
 26 30  1  0
 27 26  1  0
 28 29  1  0
 28 27  1  0
 29 25  1  0
 30 31  2  0
 31 32  1  0
 33 32  2  0
 34 33  1  0
 35  9  1  0
 35 40  1  0
 35 36  1  0
 36 39  1  1
 36 37  1  0
 38 36  1  0
 40 43  1  0
 41 45  1  0
 41 40  1  0
 42 41  2  0
 45 44  1  0
 47 45  1  0
 47 48  1  0
 47 46  1  0
 50 53  1  0
 51 55  1  0
 51 50  2  0
 52 54  1  0
 53 54  2  0
 53 57  1  0
 54 49  1  0
 55 52  2  0
 56 55  1  0
 58 66  1  0
 59 64  1  0
 60 61  1  0
 60 59  1  0
 62 61  1  0
 62 71  1  0
 62 63  1  0
 64 58  1  0
 64 63  1  0
 65 58  2  0
 66 67  1  0
 66 57  1  0
 68 69  2  0
 69 88  1  0
 70 69  1  0
 70 73  1  0
 71 68  1  0
 71 72  1  0
 72 70  2  0
 73 74  1  0
 74 75  2  0
 76 79  1  0
 76 75  1  0
 77 76  2  0
 78 77  1  0
 78 73  2  0
 79 80  1  0
 80 81  1  0
 81 82  2  0
 83 82  1  0
 83 87  1  0
 84 83  2  0
 85 80  2  0
 85 84  1  0
 86 85  1  0
 88 89  1  0
 89 92  1  0
 89 91  1  0
 90 88  2  0
 93 94  1  0
 93 68  1  0
 95 93  1  0
M  ISO  4   5 101   8 101  58 100  66 100
M  END
>  <TORSDO>  (52) 
F 19

>  <SCORE>  (52) 
-14.305

>  <name>  (52) 
51

>  <ligand_id>  (52) 
51

>  <original_smiles>  (52) 
[H]c1c([H])c([H])c2c(c1[H])C([H])([H])C([H])([H])C([H])([H])C2([H])N([H])C(=O)C1([H])N(C(=O)C([H])(N([H])C(=O)C([H])(N([H])C([H])([H])[H])C([H])([H])[H])C(C([H])([H])[H])(C([H])([H])[H])C([H])([H])[H])C([H])([H])c2c([H])c(OC3([H])C(=O)N(C([H])([H])c4c([H])c(Cl)c([H])c([H])c4C([H])([H])N([H])C(=O)N4C([H])([H])C([H])([H])C([H])([H])C([H])(n5nc(-c6c([H])c([H])c(Oc7c([H])c([H])c(F)c([H])c7F)c([H])c6[H])c(C(=O)N([H])[H])c5N([H])[H])C4([H])[H])C([H])([H])C([H])([H])C3([H])[H])c([H])c([H])c2C1([H])[H]

>  <smiles>  (52) 
[H]c1c([H])c([H])c2c(c1[H])C([H])([H])C([H])([H])C([H])([H])C2([H])N([H])C(=O)C1([H])N(C(=O)C([H])(N([H])C(=O)C([H])(N([H])C([H])([H])[H])C([H])([H])[H])C(C([H])([H])[H])(C([H])([H])[H])C([H])([H])[H])C([H])([H])c2c([H])c(OC3([H])C(=O)N(C([H])([H])c4c([H])c(Cl)c([H])c([H])c4C([H])([H])N([H])C(=O)N4C([H])([H])C([H])([H])C([H])([H])C([H])(n5nc(-c6c([H])c([H])c(Oc7c([H])c([H])c(F)c([H])c7F)c([H])c6[H])c(C(=O)N([H])[H])c5N([H])[H])C4([H])[H])C([H])([H])C([H])([H])C3([H])[H])c([H])c([H])c2C1([H])[H]

$$$$
52:0:0
     RDKit          3D

 95104  0  0  1  0  0  0  0  0999 V2000
  -28.5510  -23.7390   19.8720 C   0  0  0  0  0  0  0  0  0  0  0  0
  -26.5930  -23.1500   21.8620 C   0  0  0  0  0  2  0  0  0  0  0  0
  -26.6950  -24.6390   21.4210 C   0  0  0  0  0  2  0  0  0  0  0  0
  -27.9380  -22.3870   21.7970 C   0  0  0  0  0  2  0  0  0  0  0  0
  -28.0310  -25.0100   20.7130 C   0  0  0  0  0  3  0  0  0  0  0  0
  -28.5220  -22.4650   20.4520 N   0  0  0  0  0  0  0  0  0  0  0  0
  -28.9380  -23.9140   18.7120 O   0  0  0  0  0  0  0  0  0  0  0  0
  -28.1710  -26.4060   20.1240 O   0  0  0  0  0  0  0  0  0  0  0  0
  -24.5280  -31.9100   23.1910 C   0  0  0  0  0  0  0  0  0  0  0  0
  -27.0940  -27.3180   20.1110 C   0  0  0  0  0  0  0  0  0  0  0  0
  -23.3210  -30.5360   21.5310 C   0  0  0  0  0  3  0  0  0  0  0  0
  -24.7640  -28.9940   20.0850 C   0  0  0  0  0  0  0  0  0  0  0  0
  -25.8670  -30.8270   21.3660 C   0  0  0  0  0  2  0  0  0  0  0  0
  -25.9360  -29.4520   20.7010 C   0  0  0  0  0  0  0  0  0  0  0  0
  -27.1060  -28.6270   20.7060 C   0  0  0  0  0  3  0  0  0  0  0  0
  -25.9180  -26.9440   19.4340 C   0  0  0  0  0  3  0  0  0  0  0  0
  -24.7610  -27.7460   19.4430 C   0  0  0  0  0  3  0  0  0  0  0  0
  -23.5330  -29.8750   20.1430 C   0  0  0  0  0  2  0  0  0  0  0  0
  -24.5910  -31.1090   22.0850 N   0  0  0  0  0  0  0  0  0  0  0  0
  -23.4440  -32.1890   23.7260 O   0  0  0  0  0  0  0  0  0  0  0  0
  -22.6520  -29.5130   22.4800 C   0  0  0  0  0  0  0  0  0  0  0  0
  -21.3230  -29.3500   22.3580 N   0  0  0  0  0  0  0  0  0  0  0  0
  -23.3280  -28.8690   23.2870 O   0  0  0  0  0  0  0  0  0  0  0  0
  -20.8370  -29.9130   21.6740 H   0  0  0  0  0  0  0  0  0  0  0  0
  -17.9380  -28.1960   22.8860 C   0  0  0  0  0  0  0  0  0  0  0  0
  -20.5030  -28.4080   23.1250 C   0  0  0  0  0  3  0  0  0  0  0  0
  -20.5750  -26.9880   22.5180 C   0  0  0  0  0  2  0  0  0  0  0  0
  -19.4530  -26.7040   21.5150 C   0  0  0  0  0  2  0  0  0  0  0  0
  -18.0820  -26.8590   22.1810 C   0  0  0  0  0  2  0  0  0  0  0  0
  -19.0750  -28.9310   23.3170 C   0  0  0  0  0  0  0  0  0  0  0  0
  -18.8820  -30.1850   23.9400 C   0  0  0  0  0  3  0  0  0  0  0  0
  -17.5880  -30.7010   24.1360 C   0  0  0  0  0  3  0  0  0  0  0  0
  -16.4660  -29.9620   23.7230 C   0  0  0  0  0  3  0  0  0  0  0  0
  -16.6430  -28.7110   23.1040 C   0  0  0  0  0  3  0  0  0  0  0  0
  -25.8090  -32.5350   23.8210 C   0  0  0  0  0  3  0  0  0  0  0  0
  -25.5030  -33.9330   24.1570 N   0  0  0  0  0  0  0  0  0  0  0  0
  -25.8300  -34.9900   23.4010 C   0  0  0  0  0  0  0  0  0  0  0  0
  -26.4940  -34.8910   22.3670 O   0  0  0  0  0  0  0  0  0  0  0  0
  -24.9040  -34.0840   24.9550 H   0  0  0  0  0  0  0  0  0  0  0  0
  -24.0970  -36.7890   23.0820 C   0  0  0  0  0  1  0  0  0  0  0  0
  -25.3520  -36.3780   23.8680 C   0  0  0  0  0  3  0  0  0  0  0  0
  -27.5030  -37.2650   24.6610 C   0  0  0  0  0  1  0  0  0  0  0  0
  -26.3810  -37.4330   23.7410 N   0  0  0  0  0  0  0  0  0  0  0  0
  -25.9770  -38.3510   23.8990 H   0  0  0  0  0  0  0  0  0  0  0  0
  -26.3180  -31.7580   25.0980 C   0  0  1  0  0  0  0  0  0  0  0  0
  -25.2170  -31.5240   26.1580 C   0  0  0  0  0  1  0  0  0  0  0  0
  -26.9000  -30.3770   24.7070 C   0  0  0  0  0  1  0  0  0  0  0  0
  -27.4690  -32.5430   25.7680 C   0  0  0  0  0  1  0  0  0  0  0  0
  -28.7390  -21.1060   19.7620 C   0  0  0  0  0  2  0  0  0  0  0  0
  -30.4290  -20.0580   21.4330 C   0  0  0  0  0  3  0  0  0  0  0  0
  -29.1910  -18.4520   20.1070 C   0  0  0  0  0  3  0  0  0  0  0  0
  -29.4440  -19.8450   20.4520 C   0  0  0  0  0  0  0  0  0  0  0  0
  -31.1050  -18.9860   22.0580 C   0  0  0  0  0  0  0  0  0  0  0  0
  -29.8940  -17.3160   20.6920 C   0  0  0  0  0  0  0  0  0  0  0  0
  -30.8410  -17.6330   21.7070 C   0  0  0  0  0  0  0  0  0  0  0  0
  -32.1200  -19.3390   23.1400 C   0  0  0  0  0  1  0  0  0  0  0  0
  -31.6330  -16.3760   22.6030 Cl  0  0  0  0  0  0  0  0  0  0  0  0
  -30.3570  -14.8000   20.0390 C   0  0  0  0  0  0  0  0  0  0  0  0
  -30.1150  -12.5680   18.9260 C   0  0  0  0  0  2  0  0  0  0  0  0
  -29.1060  -12.7070   17.7660 C   0  0  0  0  0  2  0  0  0  0  0  0
  -27.6630  -12.5050   18.2720 C   0  0  0  0  0  2  0  0  0  0  0  0
  -27.3620  -13.3340   19.5510 C   0  0  0  0  0  3  0  0  0  0  0  0
  -28.4830  -13.1840   20.6020 C   0  0  0  0  0  2  0  0  0  0  0  0
  -29.7400  -13.5720   19.9500 N   0  0  0  0  0  0  0  0  0  0  0  0
  -31.5100  -14.9330   19.6200 O   0  0  0  0  0  0  0  0  0  0  0  0
  -29.5700  -15.8950   20.3810 N   0  0  0  0  0  0  0  0  0  0  0  0
  -28.5980  -15.6650   20.4910 H   0  0  0  0  0  0  0  0  0  0  0  0
  -25.0160  -13.8920   20.4280 C   0  0  0  0  0  0  0  0  0  0  0  0
  -23.9820  -13.1040   20.8500 C   0  0  0  0  0  0  0  0  0  0  0  0
  -24.4510  -11.7570   20.7660 C   0  0  0  0  0  0  0  0  0  0  0  0
  -26.0510  -13.0240   20.1110 N   0  0  0  0  0  0  0  0  0  0  0  0
  -25.7210  -11.7340   20.3800 N   0  0  0  0  0  0  0  0  0  0  0  0
  -23.7450  -10.4880   20.9770 C   0  0  0  0  0  0  0  0  0  0  0  0
  -24.2180   -9.5220   21.8930 C   0  0  0  0  0  3  0  0  0  0  0  0
  -23.5120   -8.3180   22.0930 C   0  0  0  0  0  3  0  0  0  0  0  0
  -22.3170   -8.0680   21.3760 C   0  0  0  0  0  0  0  0  0  0  0  0
  -21.8620   -9.0230   20.4480 C   0  0  0  0  0  3  0  0  0  0  0  0
  -22.5690  -10.2200   20.2480 C   0  0  0  0  0  3  0  0  0  0  0  0
  -21.5740   -6.9170   21.4870 O   0  0  0  0  0  0  0  0  0  0  0  0
  -21.5580   -6.1800   22.6430 C   0  0  0  0  0  0  0  0  0  0  0  0
  -21.1540   -6.7380   23.8750 C   0  0  0  0  0  3  0  0  0  0  0  0
  -21.0820   -5.9260   25.0240 C   0  0  0  0  0  3  0  0  0  0  0  0
  -21.4080   -4.5590   24.9430 C   0  0  0  0  0  0  0  0  0  0  0  0
  -21.8060   -4.0010   23.7170 C   0  0  0  0  0  3  0  0  0  0  0  0
  -21.8770   -4.8100   22.5680 C   0  0  0  0  0  0  0  0  0  0  0  0
  -22.2410   -4.2630   21.3840 F   0  0  0  0  0  0  0  0  0  0  0  0
  -21.3320   -3.7780   26.0460 F   0  0  0  0  0  0  0  0  0  0  0  0
  -22.5990  -13.5650   21.2110 C   0  0  0  0  0  0  0  0  0  0  0  0
  -21.9280  -12.8580   22.1110 N   0  0  0  0  0  0  0  0  0  0  0  0
  -22.1220  -14.5920   20.7260 O   0  0  0  0  0  0  0  0  0  0  0  0
  -22.3290  -12.0330   22.5360 H   0  0  0  0  0  0  0  0  0  0  0  0
  -20.9990  -13.1460   22.3820 H   0  0  0  0  0  0  0  0  0  0  0  0
  -25.1500  -15.2670   20.2590 N   0  0  0  0  0  0  0  0  0  0  0  0
  -24.3610  -15.8910   20.3860 H   0  0  0  0  0  0  0  0  0  0  0  0
  -25.9470  -15.7270   19.8420 H   0  0  0  0  0  0  0  0  0  0  0  0
  1  6  1  0
  1  5  1  0
  3  2  1  0
  4  2  1  0
  5  8  1  0
  5  3  1  0
  6  4  1  0
  7  1  2  0
  9 20  2  0
 10  8  1  0
 10 15  1  0
 11 19  1  0
 11 21  1  0
 12 18  1  0
 12 14  1  0
 13 19  1  0
 14 15  2  0
 14 13  1  0
 16 17  1  0
 16 10  2  0
 17 12  2  0
 18 11  1  0
 19  9  1  0
 21 23  2  0
 22 21  1  0
 24 22  1  0
 25 34  2  0
 25 30  1  0
 26 22  1  0
 26 30  1  0
 27 26  1  0
 28 29  1  0
 28 27  1  0
 29 25  1  0
 30 31  2  0
 31 32  1  0
 33 32  2  0
 34 33  1  0
 35  9  1  0
 35 36  1  0
 35 45  1  0
 36 39  1  0
 37 41  1  0
 37 36  1  0
 38 37  2  0
 41 40  1  0
 43 41  1  0
 43 44  1  0
 43 42  1  0
 45 48  1  1
 45 46  1  0
 47 45  1  0
 49  6  1  0
 49 52  1  0
 50 53  1  0
 51 52  1  0
 51 54  2  0
 52 50  2  0
 53 56  1  0
 54 55  1  0
 55 53  2  0
 55 57  1  0
 58 66  1  0
 59 64  1  0
 60 61  1  0
 60 59  1  0
 62 61  1  0
 62 71  1  0
 62 63  1  0
 64 58  1  0
 64 63  1  0
 65 58  2  0
 66 67  1  0
 66 54  1  0
 68 69  2  0
 69 88  1  0
 70 69  1  0
 70 73  1  0
 71 72  1  0
 71 68  1  0
 72 70  2  0
 73 74  1  0
 74 75  2  0
 76 79  1  0
 76 75  1  0
 77 76  2  0
 78 77  1  0
 78 73  2  0
 79 80  1  0
 80 81  1  0
 81 82  2  0
 83 82  1  0
 83 87  1  0
 84 83  2  0
 85 80  2  0
 85 84  1  0
 86 85  1  0
 88 89  1  0
 89 92  1  0
 89 91  1  0
 90 88  2  0
 93 94  1  0
 93 68  1  0
 95 93  1  0
M  ISO  4   5 101   8 101  58 100  66 100
M  END
>  <TORSDO>  (53) 
F 18

>  <SCORE>  (53) 
-13.589

>  <name>  (53) 
52

>  <ligand_id>  (53) 
52

>  <original_smiles>  (53) 
[H]c1c([H])c([H])c2c(c1[H])C([H])([H])C([H])([H])C([H])([H])C2([H])N([H])C(=O)C1([H])N(C(=O)C([H])(N([H])C(=O)C([H])(N([H])C([H])([H])[H])C([H])([H])[H])C(C([H])([H])[H])(C([H])([H])[H])C([H])([H])[H])C([H])([H])c2c([H])c(OC3([H])C(=O)N(C([H])([H])c4c([H])c(N([H])C(=O)N5C([H])([H])C([H])([H])C([H])([H])C([H])(n6nc(-c7c([H])c([H])c(Oc8c([H])c([H])c(F)c([H])c8F)c([H])c7[H])c(C(=O)N([H])[H])c6N([H])[H])C5([H])[H])c(Cl)c(C([H])([H])[H])c4[H])C([H])([H])C([H])([H])C3([H])[H])c([H])c([H])c2C1([H])[H]

>  <smiles>  (53) 
[H]c1c([H])c([H])c2c(c1[H])C([H])([H])C([H])([H])C([H])([H])C2([H])N([H])C(=O)C1([H])N(C(=O)C([H])(N([H])C(=O)C([H])(N([H])C([H])([H])[H])C([H])([H])[H])C(C([H])([H])[H])(C([H])([H])[H])C([H])([H])[H])C([H])([H])c2c([H])c(OC3([H])C(=O)N(C([H])([H])c4c([H])c(N([H])C(=O)N5C([H])([H])C([H])([H])C([H])([H])C([H])(n6nc(-c7c([H])c([H])c(Oc8c([H])c([H])c(F)c([H])c8F)c([H])c7[H])c(C(=O)N([H])[H])c6N([H])[H])C5([H])[H])c(Cl)c(C([H])([H])[H])c4[H])C([H])([H])C([H])([H])C3([H])[H])c([H])c([H])c2C1([H])[H]

$$$$
53:0:0
     RDKit          3D

 97106  0  0  1  0  0  0  0  0999 V2000
  -29.2360  -23.2740   20.8570 C   0  0  0  0  0  0  0  0  0  0  0  0
  -29.8920  -23.3100   22.0310 C   0  0  0  0  0  2  0  0  0  0  0  0
  -26.6950  -22.6780   19.5590 C   0  0  0  0  0  2  0  0  0  0  0  0
  -26.9710  -24.0760   20.1650 C   0  0  0  0  0  2  0  0  0  0  0  0
  -27.5640  -21.5600   20.1820 C   0  0  0  0  0  2  0  0  0  0  0  0
  -28.4740  -24.4600   20.1940 C   0  0  0  0  0  3  0  0  0  0  0  0
  -28.9780  -21.9700   20.1040 N   0  0  2  0  0  4  0  0  0  0  0  0
  -29.0130  -22.2610   19.1390 H   0  0  0  0  0  0  0  0  0  0  0  0
  -30.0140  -20.8720   19.9840 C   0  0  0  0  0  2  0  0  0  0  0  0
  -29.5720  -18.3510   20.4650 C   0  0  0  0  0  3  0  0  0  0  0  0
  -30.4130  -17.2120   22.4450 C   0  0  0  0  0  3  0  0  0  0  0  0
  -30.0690  -19.6170   20.9260 C   0  0  0  0  0  0  0  0  0  0  0  0
  -30.7960  -19.6180   22.1610 C   0  0  0  0  0  0  0  0  0  0  0  0
  -29.7940  -17.1370   21.1860 C   0  0  0  0  0  0  0  0  0  0  0  0
  -30.8950  -18.4350   22.9340 C   0  0  0  0  0  0  0  0  0  0  0  0
  -31.5760  -20.8230   22.6740 C   0  0  0  0  0  1  0  0  0  0  0  0
  -31.6600  -18.4330   24.4870 Cl  0  0  0  0  0  0  0  0  0  0  0  0
  -30.1720  -14.8460   20.2520 C   0  0  0  0  0  0  0  0  0  0  0  0
  -29.9950  -12.6740   19.0700 C   0  0  0  0  0  2  0  0  0  0  0  0
  -28.9640  -12.7950   17.9290 C   0  0  0  0  0  2  0  0  0  0  0  0
  -27.5390  -12.5210   18.4480 C   0  0  0  0  0  2  0  0  0  0  0  0
  -27.2100  -13.3130   19.7420 C   0  0  0  0  0  3  0  0  0  0  0  0
  -28.3480  -13.1870   20.7780 C   0  0  0  0  0  2  0  0  0  0  0  0
  -29.5910  -13.6190   20.1270 N   0  0  0  0  0  0  0  0  0  0  0  0
  -31.2870  -15.0940   19.7840 O   0  0  0  0  0  0  0  0  0  0  0  0
  -29.3710  -15.8430   20.7150 N   0  0  0  0  0  0  0  0  0  0  0  0
  -28.4040  -15.6020   20.8670 H   0  0  0  0  0  0  0  0  0  0  0  0
  -24.8470  -13.7210   20.6630 C   0  0  0  0  0  0  0  0  0  0  0  0
  -23.8570  -12.8600   21.0550 C   0  0  0  0  0  0  0  0  0  0  0  0
  -24.3950  -11.5460   20.9060 C   0  0  0  0  0  0  0  0  0  0  0  0
  -25.9200  -12.9220   20.3000 N   0  0  0  0  0  0  0  0  0  0  0  0
  -25.6570  -11.6060   20.5050 N   0  0  0  0  0  0  0  0  0  0  0  0
  -23.7600  -10.2310   21.0650 C   0  0  0  0  0  0  0  0  0  0  0  0
  -24.2500   -9.2810   21.9890 C   0  0  0  0  0  3  0  0  0  0  0  0
  -23.6120   -8.0300   22.1360 C   0  0  0  0  0  3  0  0  0  0  0  0
  -22.4710   -7.7210   21.3580 C   0  0  0  0  0  0  0  0  0  0  0  0
  -22.0030   -8.6600   20.4230 C   0  0  0  0  0  3  0  0  0  0  0  0
  -22.6420   -9.9020   20.2740 C   0  0  0  0  0  3  0  0  0  0  0  0
  -21.8010   -6.5230   21.4150 O   0  0  0  0  0  0  0  0  0  0  0  0
  -21.7230   -5.7960   22.5760 C   0  0  0  0  0  0  0  0  0  0  0  0
  -21.1340   -6.3220   23.7470 C   0  0  0  0  0  3  0  0  0  0  0  0
  -21.0120   -5.5170   24.8970 C   0  0  0  0  0  3  0  0  0  0  0  0
  -21.4700   -4.1860   24.8770 C   0  0  0  0  0  0  0  0  0  0  0  0
  -22.0520   -3.6590   23.7110 C   0  0  0  0  0  3  0  0  0  0  0  0
  -22.1750   -4.4610   22.5630 C   0  0  0  0  0  0  0  0  0  0  0  0
  -22.7180   -3.9410   21.4360 F   0  0  0  0  0  0  0  0  0  0  0  0
  -21.3460   -3.4090   25.9790 F   0  0  0  0  0  0  0  0  0  0  0  0
  -22.4580  -13.2320   21.4550 C   0  0  0  0  0  0  0  0  0  0  0  0
  -21.8350  -12.4350   22.3150 N   0  0  0  0  0  0  0  0  0  0  0  0
  -21.9270  -14.2610   21.0400 O   0  0  0  0  0  0  0  0  0  0  0  0
  -22.2800  -11.6010   22.6690 H   0  0  0  0  0  0  0  0  0  0  0  0
  -20.8990  -12.6600   22.6230 H   0  0  0  0  0  0  0  0  0  0  0  0
  -24.9200  -15.1070   20.5610 N   0  0  0  0  0  0  0  0  0  0  0  0
  -24.1260  -15.7050   20.7620 H   0  0  0  0  0  0  0  0  0  0  0  0
  -25.7100  -15.6130   20.1820 H   0  0  0  0  0  0  0  0  0  0  0  0
  -28.6870  -25.8860   20.8570 C   0  0  0  0  0  2  0  0  0  0  0  0
  -28.5230  -27.0590   20.0180 O   0  0  0  0  0  0  0  0  0  0  0  0
  -24.5610  -32.0100   23.4090 C   0  0  0  0  0  0  0  0  0  0  0  0
  -27.3460  -27.7800   20.1240 C   0  0  0  0  0  0  0  0  0  0  0  0
  -23.4070  -30.6560   21.6940 C   0  0  0  0  0  3  0  0  0  0  0  0
  -24.9130  -29.2350   20.2010 C   0  0  0  0  0  0  0  0  0  0  0  0
  -25.9250  -31.0970   21.5260 C   0  0  0  0  0  2  0  0  0  0  0  0
  -26.0560  -29.7570   20.8210 C   0  0  0  0  0  0  0  0  0  0  0  0
  -27.2800  -29.0380   20.7790 C   0  0  0  0  0  3  0  0  0  0  0  0
  -26.1900  -27.2880   19.4890 C   0  0  0  0  0  3  0  0  0  0  0  0
  -24.9750  -27.9980   19.5370 C   0  0  0  0  0  3  0  0  0  0  0  0
  -23.6430  -30.0530   20.2840 C   0  0  0  0  0  2  0  0  0  0  0  0
  -24.6490  -31.2680   22.2680 N   0  0  0  0  0  0  0  0  0  0  0  0
  -23.4690  -32.2170   23.9580 O   0  0  0  0  0  0  0  0  0  0  0  0
  -22.7860  -29.5660   22.5970 C   0  0  0  0  0  0  0  0  0  0  0  0
  -21.4720  -29.3360   22.4420 N   0  0  0  0  0  0  0  0  0  0  0  0
  -23.4840  -28.9320   23.3910 O   0  0  0  0  0  0  0  0  0  0  0  0
  -20.9670  -29.9000   21.7740 H   0  0  0  0  0  0  0  0  0  0  0  0
  -18.1420  -27.9860   22.8460 C   0  0  0  0  0  0  0  0  0  0  0  0
  -20.6860  -28.3290   23.1560 C   0  0  0  0  0  3  0  0  0  0  0  0
  -20.8480  -26.9340   22.5090 C   0  0  0  0  0  2  0  0  0  0  0  0
  -19.7680  -26.6210   21.4700 C   0  0  0  0  0  2  0  0  0  0  0  0
  -18.3770  -26.6810   22.1040 C   0  0  0  0  0  2  0  0  0  0  0  0
  -19.2260  -28.7690   23.3240 C   0  0  0  0  0  0  0  0  0  0  0  0
  -18.9540  -29.9920   23.9740 C   0  0  0  0  0  3  0  0  0  0  0  0
  -17.6290  -30.4340   24.1510 C   0  0  0  0  0  3  0  0  0  0  0  0
  -16.5590  -29.6470   23.6910 C   0  0  0  0  0  3  0  0  0  0  0  0
  -16.8160  -28.4260   23.0430 C   0  0  0  0  0  3  0  0  0  0  0  0
  -25.8220  -32.6520   24.0650 C   0  0  0  0  0  3  0  0  0  0  0  0
  -26.2810  -31.9150   25.3830 C   0  0  1  0  0  0  0  0  0  0  0  0
  -25.1400  -31.6900   26.4010 C   0  0  0  0  0  1  0  0  0  0  0  0
  -26.8930  -30.5340   25.0510 C   0  0  0  0  0  1  0  0  0  0  0  0
  -27.3930  -32.7330   26.0810 C   0  0  0  0  0  1  0  0  0  0  0  0
  -25.5090  -34.0610   24.3430 N   0  0  0  0  0  0  0  0  0  0  0  0
  -25.8570  -35.0870   23.5550 C   0  0  0  0  0  0  0  0  0  0  0  0
  -26.5450  -34.9480   22.5390 O   0  0  0  0  0  0  0  0  0  0  0  0
  -24.8990  -34.2430   25.1280 H   0  0  0  0  0  0  0  0  0  0  0  0
  -24.1180  -36.8550   23.1300 C   0  0  0  0  0  1  0  0  0  0  0  0
  -25.3630  -36.4900   23.9570 C   0  0  0  0  0  3  0  0  0  0  0  0
  -27.4880  -37.4230   24.7560 C   0  0  0  0  0  1  0  0  0  0  0  0
  -26.3890  -37.5430   23.8010 N   0  0  0  0  0  0  0  0  0  0  0  0
  -25.9780  -38.4670   23.9060 H   0  0  0  0  0  0  0  0  0  0  0  0
  1  2  2  0
  3  4  1  0
  3  5  1  0
  4  6  1  0
  6  1  1  0
  6 56  1  0
  7  5  1  0
  7  1  1  0
  7  8  1  6
  9  7  1  0
  9 12  1  0
 10 12  2  0
 10 14  1  0
 11 15  1  0
 12 13  1  0
 13 16  1  0
 13 15  2  0
 14 11  2  0
 15 17  1  0
 18 26  1  0
 19 24  1  0
 20 21  1  0
 20 19  1  0
 22 21  1  0
 22 31  1  0
 22 23  1  0
 24 18  1  0
 24 23  1  0
 25 18  2  0
 26 27  1  0
 26 14  1  0
 28 29  2  0
 29 48  1  0
 30 29  1  0
 30 33  1  0
 31 32  1  0
 31 28  1  0
 32 30  2  0
 33 34  1  0
 34 35  2  0
 36 39  1  0
 36 35  1  0
 37 36  2  0
 38 37  1  0
 38 33  2  0
 39 40  1  0
 40 41  1  0
 41 42  2  0
 43 42  1  0
 43 47  1  0
 44 43  2  0
 45 40  2  0
 45 44  1  0
 46 45  1  0
 48 49  1  0
 49 52  1  0
 49 51  1  0
 50 48  2  0
 53 28  1  0
 53 54  1  0
 55 53  1  0
 57 59  1  0
 57 56  1  0
 58 69  2  0
 59 64  1  0
 60 68  1  0
 60 70  1  0
 61 67  1  0
 61 63  1  0
 62 68  1  0
 63 62  1  0
 64 63  2  0
 65 66  1  0
 65 59  2  0
 66 61  2  0
 67 60  1  0
 68 58  1  0
 70 72  2  0
 71 70  1  0
 73 71  1  0
 74 83  2  0
 74 79  1  0
 75 71  1  0
 75 79  1  0
 76 75  1  0
 77 78  1  0
 77 76  1  0
 78 74  1  0
 79 80  2  0
 80 81  1  0
 82 81  2  0
 83 82  1  0
 84 58  1  0
 84 89  1  0
 84 85  1  0
 85 88  1  1
 85 86  1  0
 87 85  1  0
 89 92  1  0
 90 94  1  0
 90 89  1  0
 91 90  2  0
 94 93  1  0
 96 97  1  0
 96 94  1  0
 96 95  1  0
M  ISO  4  18 100  26 100  56 101  57 101
M  END
>  <TORSDO>  (54) 
F 19

>  <SCORE>  (54) 
-11.825

>  <name>  (54) 
53

>  <ligand_id>  (54) 
53

>  <original_smiles>  (54) 
[H]C([H])=C1C([H])(C([H])([H])Oc2c([H])c([H])c3c(c2[H])C([H])([H])N(C(=O)C([H])(N([H])C(=O)C([H])(N([H])C([H])([H])[H])C([H])([H])[H])C(C([H])([H])[H])(C([H])([H])[H])C([H])([H])[H])C([H])(C(=O)N([H])C2([H])c4c([H])c([H])c([H])c([H])c4C([H])([H])C([H])([H])C2([H])[H])C3([H])[H])C([H])([H])C([H])([H])C([H])([H])[N+]1([H])C([H])([H])c1c([H])c(N([H])C(=O)N2C([H])([H])C([H])([H])C([H])([H])C([H])(n3nc(-c4c([H])c([H])c(Oc5c([H])c([H])c(F)c([H])c5F)c([H])c4[H])c(C(=O)N([H])[H])c3N([H])[H])C2([H])[H])c([H])c(Cl)c1C([H])([H])[H]

>  <smiles>  (54) 
[H]C([H])=C1C([H])(C([H])([H])Oc2c([H])c([H])c3c(c2[H])C([H])([H])N(C(=O)C([H])(N([H])C(=O)C([H])(N([H])C([H])([H])[H])C([H])([H])[H])C(C([H])([H])[H])(C([H])([H])[H])C([H])([H])[H])C([H])(C(=O)N([H])C2([H])c4c([H])c([H])c([H])c([H])c4C([H])([H])C([H])([H])C2([H])[H])C3([H])[H])C([H])([H])C([H])([H])C([H])([H])[N+]1([H])C([H])([H])c1c([H])c(N([H])C(=O)N2C([H])([H])C([H])([H])C([H])([H])C([H])(n3nc(-c4c([H])c([H])c(Oc5c([H])c([H])c(F)c([H])c5F)c([H])c4[H])c(C(=O)N([H])[H])c3N([H])[H])C2([H])[H])c([H])c(Cl)c1C([H])([H])[H]

$$$$
54:0:0
     RDKit          3D

 94102  0  0  1  0  0  0  0  0999 V2000
  -29.1160  -22.1880   19.2720 C   0  0  0  0  0  0  0  0  0  0  0  0
  -28.5060  -20.9700   19.2320 N   0  0  0  0  0  0  0  0  0  0  0  0
  -30.2430  -22.3660   18.7970 O   0  0  0  0  0  0  0  0  0  0  0  0
  -28.3660  -23.2580   19.9210 C   0  0  0  0  0  3  0  0  0  0  0  0
  -28.9710  -24.4130   20.2620 C   0  0  0  0  0  3  0  0  0  0  0  0
  -28.2760  -25.5640   20.9530 C   0  0  0  0  0  2  0  0  0  0  0  0
  -28.3150  -26.7370   20.1500 O   0  0  0  0  0  0  0  0  0  0  0  0
  -24.5230  -31.8890   23.2350 C   0  0  0  0  0  0  0  0  0  0  0  0
  -27.1500  -27.4580   20.1640 C   0  0  0  0  0  0  0  0  0  0  0  0
  -23.3100  -30.4900   21.5910 C   0  0  0  0  0  3  0  0  0  0  0  0
  -24.7570  -28.9420   20.1750 C   0  0  0  0  0  0  0  0  0  0  0  0
  -25.8330  -30.8450   21.3920 C   0  0  0  0  0  2  0  0  0  0  0  0
  -25.9140  -29.4740   20.7590 C   0  0  0  0  0  0  0  0  0  0  0  0
  -27.1170  -28.7380   20.7490 C   0  0  0  0  0  3  0  0  0  0  0  0
  -25.9810  -26.9250   19.5810 C   0  0  0  0  0  3  0  0  0  0  0  0
  -24.7820  -27.6640   19.5850 C   0  0  0  0  0  3  0  0  0  0  0  0
  -23.5160  -29.8030   20.2150 C   0  0  0  0  0  2  0  0  0  0  0  0
  -24.5740  -31.0880   22.1320 N   0  0  0  0  0  0  0  0  0  0  0  0
  -23.4440  -32.1690   23.7750 O   0  0  0  0  0  0  0  0  0  0  0  0
  -22.6510  -29.4760   22.5540 C   0  0  0  0  0  0  0  0  0  0  0  0
  -21.3270  -29.3040   22.4230 N   0  0  0  0  0  0  0  0  0  0  0  0
  -23.3300  -28.8470   23.3710 O   0  0  0  0  0  0  0  0  0  0  0  0
  -20.8430  -29.8630   21.7350 H   0  0  0  0  0  0  0  0  0  0  0  0
  -17.9380  -28.1630   22.9330 C   0  0  0  0  0  0  0  0  0  0  0  0
  -20.5010  -28.3730   23.1910 C   0  0  0  0  0  3  0  0  0  0  0  0
  -20.5750  -26.9450   22.6030 C   0  0  0  0  0  2  0  0  0  0  0  0
  -19.4620  -26.6500   21.5940 C   0  0  0  0  0  2  0  0  0  0  0  0
  -18.0870  -26.8160   22.2470 C   0  0  0  0  0  2  0  0  0  0  0  0
  -19.0720  -28.9010   23.3630 C   0  0  0  0  0  0  0  0  0  0  0  0
  -18.8810  -30.1650   23.9630 C   0  0  0  0  0  3  0  0  0  0  0  0
  -17.5860  -30.6880   24.1400 C   0  0  0  0  0  3  0  0  0  0  0  0
  -16.4660  -29.9460   23.7280 C   0  0  0  0  0  3  0  0  0  0  0  0
  -16.6430  -28.6850   23.1310 C   0  0  0  0  0  3  0  0  0  0  0  0
  -25.8140  -32.5100   23.8560 C   0  0  0  0  0  3  0  0  0  0  0  0
  -25.5200  -33.9130   24.1750 N   0  0  0  0  0  0  0  0  0  0  0  0
  -25.8760  -34.9550   23.4120 C   0  0  0  0  0  0  0  0  0  0  0  0
  -26.5580  -34.8370   22.3900 O   0  0  0  0  0  0  0  0  0  0  0  0
  -24.9190  -34.0810   24.9680 H   0  0  0  0  0  0  0  0  0  0  0  0
  -24.1800  -36.7690   23.0130 C   0  0  0  0  0  1  0  0  0  0  0  0
  -25.3980  -36.3520   23.8520 C   0  0  0  0  0  3  0  0  0  0  0  0
  -27.5250  -37.2120   24.7270 C   0  0  0  0  0  1  0  0  0  0  0  0
  -26.4470  -37.3900   23.7570 N   0  0  0  0  0  0  0  0  0  0  0  0
  -26.0500  -38.3170   23.8920 H   0  0  0  0  0  0  0  0  0  0  0  0
  -26.3220  -31.7400   25.1360 C   0  0  1  0  0  0  0  0  0  0  0  0
  -25.2240  -31.5130   26.2020 C   0  0  0  0  0  1  0  0  0  0  0  0
  -26.8970  -30.3580   24.7490 C   0  0  0  0  0  1  0  0  0  0  0  0
  -27.4760  -32.5280   25.7990 C   0  0  0  0  0  1  0  0  0  0  0  0
  -26.0510  -20.9620   18.7530 C   0  0  0  0  0  1  0  0  0  0  0  0
  -27.1690  -20.6460   19.7640 C   0  0  0  0  0  2  0  0  0  0  0  0
  -29.1950  -19.7930   18.6730 C   0  0  0  0  0  2  0  0  0  0  0  0
  -31.6360  -18.7910   21.4760 C   0  0  0  0  0  3  0  0  0  0  0  0
  -30.9340  -19.5650   20.5310 C   0  0  0  0  0  3  0  0  0  0  0  0
  -31.3670  -17.4150   21.6040 C   0  0  0  0  0  3  0  0  0  0  0  0
  -29.6700  -17.5930   19.8560 C   0  0  0  0  0  3  0  0  0  0  0  0
  -29.9470  -18.9700   19.7150 C   0  0  0  0  0  0  0  0  0  0  0  0
  -30.3910  -16.8130   20.7840 C   0  0  0  0  0  0  0  0  0  0  0  0
  -30.7190  -14.4980   20.1470 C   0  0  0  0  0  0  0  0  0  0  0  0
  -30.3030  -12.4240   18.8900 C   0  0  0  0  0  2  0  0  0  0  0  0
  -29.2880  -12.7120   17.7650 C   0  0  0  0  0  2  0  0  0  0  0  0
  -27.8440  -12.5690   18.2820 C   0  0  0  0  0  2  0  0  0  0  0  0
  -27.6030  -13.3450   19.6040 C   0  0  0  0  0  3  0  0  0  0  0  0
  -28.7190  -13.0410   20.6280 C   0  0  0  0  0  2  0  0  0  0  0  0
  -30.0160  -13.3450   19.9980 N   0  0  0  0  0  0  0  0  0  0  0  0
  -31.7890  -14.7190   19.5710 O   0  0  0  0  0  0  0  0  0  0  0  0
  -30.1170  -15.4320   20.8940 N   0  0  0  0  0  0  0  0  0  0  0  0
  -29.2200  -15.1690   21.2710 H   0  0  0  0  0  0  0  0  0  0  0  0
  -25.2520  -13.9460   20.4650 C   0  0  0  0  0  0  0  0  0  0  0  0
  -24.2010  -13.1690   20.8740 C   0  0  0  0  0  0  0  0  0  0  0  0
  -24.6500  -11.8160   20.7770 C   0  0  0  0  0  0  0  0  0  0  0  0
  -26.2760  -13.0670   20.1510 N   0  0  0  0  0  0  0  0  0  0  0  0
  -25.9200  -11.7790   20.3920 N   0  0  0  0  0  0  0  0  0  0  0  0
  -23.9290  -10.5520   20.9720 C   0  0  0  0  0  0  0  0  0  0  0  0
  -24.3890   -9.5730   21.8800 C   0  0  0  0  0  3  0  0  0  0  0  0
  -23.6690   -8.3740   22.0650 C   0  0  0  0  0  3  0  0  0  0  0  0
  -22.4750   -8.1440   21.3410 C   0  0  0  0  0  0  0  0  0  0  0  0
  -22.0340   -9.1120   20.4210 C   0  0  0  0  0  3  0  0  0  0  0  0
  -22.7540  -10.3030   20.2350 C   0  0  0  0  0  3  0  0  0  0  0  0
  -21.7230   -6.9980   21.4370 O   0  0  0  0  0  0  0  0  0  0  0  0
  -21.6940   -6.2510   22.5870 C   0  0  0  0  0  0  0  0  0  0  0  0
  -21.2610   -6.7920   23.8170 C   0  0  0  0  0  3  0  0  0  0  0  0
  -21.1800   -5.9710   24.9580 C   0  0  0  0  0  3  0  0  0  0  0  0
  -21.5210   -4.6070   24.8700 C   0  0  0  0  0  0  0  0  0  0  0  0
  -21.9450   -4.0640   23.6450 C   0  0  0  0  0  3  0  0  0  0  0  0
  -22.0280   -4.8840   22.5050 C   0  0  0  0  0  0  0  0  0  0  0  0
  -22.4170   -4.3520   21.3210 F   0  0  0  0  0  0  0  0  0  0  0  0
  -21.4350   -3.8140   25.9640 F   0  0  0  0  0  0  0  0  0  0  0  0
  -22.8260  -13.6450   21.2430 C   0  0  0  0  0  0  0  0  0  0  0  0
  -22.1420  -12.9200   22.1230 N   0  0  0  0  0  0  0  0  0  0  0  0
  -22.3670  -14.6920   20.7900 O   0  0  0  0  0  0  0  0  0  0  0  0
  -22.5270  -12.0700   22.5100 H   0  0  0  0  0  0  0  0  0  0  0  0
  -21.2220  -13.2180   22.4120 H   0  0  0  0  0  0  0  0  0  0  0  0
  -25.4160  -15.3200   20.3170 N   0  0  0  0  0  0  0  0  0  0  0  0
  -24.6630  -15.9760   20.4870 H   0  0  0  0  0  0  0  0  0  0  0  0
  -26.2520  -15.7620   19.9600 H   0  0  0  0  0  0  0  0  0  0  0  0
  1  4  1  0
  2  1  1  0
  2 49  1  0
  3  1  2  0
  4  5  2  0
  5  6  1  0
  7  9  1  0
  7  6  1  0
  8 19  2  0
  9 14  1  0
 10 18  1  0
 10 20  1  0
 11 17  1  0
 11 13  1  0
 12 18  1  0
 13 12  1  0
 14 13  2  0
 15 16  1  0
 15  9  2  0
 16 11  2  0
 17 10  1  0
 18  8  1  0
 20 22  2  0
 21 20  1  0
 23 21  1  0
 24 33  2  0
 24 29  1  0
 25 21  1  0
 25 29  1  0
 26 25  1  0
 27 28  1  0
 27 26  1  0
 28 24  1  0
 29 30  2  0
 30 31  1  0
 32 31  2  0
 33 32  1  0
 34  8  1  0
 34 35  1  0
 34 44  1  0
 35 38  1  0
 36 40  1  0
 36 35  1  0
 37 36  2  0
 40 39  1  0
 42 40  1  0
 42 43  1  0
 42 41  1  0
 44 47  1  1
 44 45  1  0
 46 44  1  0
 48 49  1  0
 50  2  1  0
 50 55  1  0
 51 53  1  0
 52 51  2  0
 54 56  1  0
 55 54  2  0
 55 52  1  0
 56 65  1  0
 56 53  2  0
 57 65  1  0
 58 63  1  0
 59 60  1  0
 59 58  1  0
 61 60  1  0
 61 70  1  0
 61 62  1  0
 63 57  1  0
 63 62  1  0
 64 57  2  0
 65 66  1  0
 67 68  2  0
 68 87  1  0
 69 68  1  0
 69 72  1  0
 70 71  1  0
 70 67  1  0
 71 69  2  0
 72 73  1  0
 73 74  2  0
 75 78  1  0
 75 74  1  0
 76 75  2  0
 77 76  1  0
 77 72  2  0
 78 79  1  0
 79 80  1  0
 80 81  2  0
 82 81  1  0
 82 86  1  0
 83 82  2  0
 84 79  2  0
 84 83  1  0
 85 84  1  0
 87 88  1  0
 88 91  1  0
 88 90  1  0
 89 87  2  0
 92 67  1  0
 92 93  1  0
 94 92  1  0
M  ISO  4   6 101   7 101  57 100  65 100
M  END
>  <TORSDO>  (55) 
F 21

>  <SCORE>  (55) 
-13.165

>  <name>  (55) 
54

>  <ligand_id>  (55) 
54

>  <original_smiles>  (55) 
[H]C(C(=O)N(C([H])([H])c1c([H])c([H])c([H])c(N([H])C(=O)N2C([H])([H])C([H])([H])C([H])([H])C([H])(n3nc(-c4c([H])c([H])c(Oc5c([H])c([H])c(F)c([H])c5F)c([H])c4[H])c(C(=O)N([H])[H])c3N([H])[H])C2([H])[H])c1[H])C([H])([H])C([H])([H])[H])=C([H])C([H])([H])Oc1c([H])c([H])c2c(c1[H])C([H])([H])N(C(=O)C([H])(N([H])C(=O)C([H])(N([H])C([H])([H])[H])C([H])([H])[H])C(C([H])([H])[H])(C([H])([H])[H])C([H])([H])[H])C([H])(C(=O)N([H])C1([H])c3c([H])c([H])c([H])c([H])c3C([H])([H])C([H])([H])C1([H])[H])C2([H])[H]

>  <smiles>  (55) 
[H]C(C(=O)N(C([H])([H])c1c([H])c([H])c([H])c(N([H])C(=O)N2C([H])([H])C([H])([H])C([H])([H])C([H])(n3nc(-c4c([H])c([H])c(Oc5c([H])c([H])c(F)c([H])c5F)c([H])c4[H])c(C(=O)N([H])[H])c3N([H])[H])C2([H])[H])c1[H])C([H])([H])C([H])([H])[H])=C([H])C([H])([H])Oc1c([H])c([H])c2c(c1[H])C([H])([H])N(C(=O)C([H])(N([H])C(=O)C([H])(N([H])C([H])([H])[H])C([H])([H])[H])C(C([H])([H])[H])(C([H])([H])[H])C([H])([H])[H])C([H])(C(=O)N([H])C1([H])c3c([H])c([H])c([H])c([H])c3C([H])([H])C([H])([H])C1([H])[H])C2([H])[H]

$$$$
55:0:0
     RDKit          3D

 97106  0  0  1  0  0  0  0  0999 V2000
  -28.3990  -23.0470   19.5590 C   0  0  0  0  0  0  0  0  0  0  0  0
  -27.4400  -22.8480   18.6310 C   0  0  0  0  0  2  0  0  0  0  0  0
  -30.0390  -23.1460   21.9640 C   0  0  0  0  0  2  0  0  0  0  0  0
  -29.6970  -24.4920   21.3500 C   0  0  0  0  0  2  0  0  0  0  0  0
  -30.4880  -22.2220   20.8380 C   0  0  0  0  0  2  0  0  0  0  0  0
  -28.5630  -24.3980   20.3090 C   0  0  0  0  0  3  0  0  0  0  0  0
  -29.3670  -21.9150   19.9170 N   0  0  1  0  0  4  0  0  0  0  0  0
  -29.8510  -21.7090   19.0540 H   0  0  0  0  0  0  0  0  0  0  0  0
  -28.7650  -20.5700   20.2010 C   0  0  0  0  0  2  0  0  0  0  0  0
  -29.5590  -18.1350   20.4470 C   0  0  0  0  0  3  0  0  0  0  0  0
  -30.9360  -18.1970   18.0260 C   0  0  0  0  0  3  0  0  0  0  0  0
  -29.5900  -19.3530   19.7030 C   0  0  0  0  0  0  0  0  0  0  0  0
  -30.3010  -19.3670   18.4670 C   0  0  0  0  0  0  0  0  0  0  0  0
  -30.1930  -16.9380   19.9970 C   0  0  0  0  0  0  0  0  0  0  0  0
  -30.8830  -16.9950   18.7460 C   0  0  0  0  0  0  0  0  0  0  0  0
  -30.3930  -20.5730   17.5390 C   0  0  0  0  0  1  0  0  0  0  0  0
  -31.6070  -15.6450   17.9410 Cl  0  0  0  0  0  0  0  0  0  0  0  0
  -30.7950  -14.6180   20.7640 C   0  0  0  0  0  0  0  0  0  0  0  0
  -30.5920  -12.3920   19.7590 C   0  0  0  0  0  2  0  0  0  0  0  0
  -29.7200  -12.5000   18.4870 C   0  0  0  0  0  2  0  0  0  0  0  0
  -28.2220  -12.3990   18.8320 C   0  0  0  0  0  2  0  0  0  0  0  0
  -27.8020  -13.2950   20.0240 C   0  0  0  0  0  3  0  0  0  0  0  0
  -28.7890  -13.1540   21.2030 C   0  0  0  0  0  2  0  0  0  0  0  0
  -30.1410  -13.4290   20.6990 N   0  0  0  0  0  0  0  0  0  0  0  0
  -32.0140  -14.7140   20.6010 O   0  0  0  0  0  0  0  0  0  0  0  0
  -30.0070  -15.7200   20.7550 N   0  0  0  0  0  0  0  0  0  0  0  0
  -29.0810  -15.5860   21.1340 H   0  0  0  0  0  0  0  0  0  0  0  0
  -25.3660  -13.9180   20.5700 C   0  0  0  0  0  0  0  0  0  0  0  0
  -24.2730  -13.1550   20.8860 C   0  0  0  0  0  0  0  0  0  0  0  0
  -24.7330  -11.8020   20.9190 C   0  0  0  0  0  0  0  0  0  0  0  0
  -26.4220  -13.0320   20.4290 N   0  0  0  0  0  0  0  0  0  0  0  0
  -26.0410  -11.7560   20.6980 N   0  0  0  0  0  0  0  0  0  0  0  0
  -23.9960  -10.5430   21.0940 C   0  0  0  0  0  0  0  0  0  0  0  0
  -24.3860   -9.5840   22.0550 C   0  0  0  0  0  3  0  0  0  0  0  0
  -23.6510   -8.3910   22.2170 C   0  0  0  0  0  3  0  0  0  0  0  0
  -22.5120   -8.1450   21.4150 C   0  0  0  0  0  0  0  0  0  0  0  0
  -22.1400   -9.0890   20.4430 C   0  0  0  0  0  3  0  0  0  0  0  0
  -22.8770  -10.2740   20.2800 C   0  0  0  0  0  3  0  0  0  0  0  0
  -21.7590   -6.9990   21.4810 O   0  0  0  0  0  0  0  0  0  0  0  0
  -21.6640   -6.2640   22.6340 C   0  0  0  0  0  0  0  0  0  0  0  0
  -21.1950   -6.8280   23.8390 C   0  0  0  0  0  3  0  0  0  0  0  0
  -21.0480   -6.0200   24.9850 C   0  0  0  0  0  3  0  0  0  0  0  0
  -21.3620   -4.6490   24.9270 C   0  0  0  0  0  0  0  0  0  0  0  0
  -21.8230   -4.0850   23.7240 C   0  0  0  0  0  3  0  0  0  0  0  0
  -21.9710   -4.8900   22.5820 C   0  0  0  0  0  0  0  0  0  0  0  0
  -22.3990   -4.3370   21.4220 F   0  0  0  0  0  0  0  0  0  0  0  0
  -21.2130   -3.8700   26.0240 F   0  0  0  0  0  0  0  0  0  0  0  0
  -22.8590  -13.6350   21.0470 C   0  0  0  0  0  0  0  0  0  0  0  0
  -22.0760  -12.9740   21.8930 N   0  0  0  0  0  0  0  0  0  0  0  0
  -22.4530  -14.6360   20.4590 O   0  0  0  0  0  0  0  0  0  0  0  0
  -22.4150  -12.1670   22.3950 H   0  0  0  0  0  0  0  0  0  0  0  0
  -21.1250  -13.2860   22.0440 H   0  0  0  0  0  0  0  0  0  0  0  0
  -25.5460  -15.2840   20.3680 N   0  0  0  0  0  0  0  0  0  0  0  0
  -24.7730  -15.9410   20.3960 H   0  0  0  0  0  0  0  0  0  0  0  0
  -26.4110  -15.7010   20.0520 H   0  0  0  0  0  0  0  0  0  0  0  0
  -28.6350  -25.6250   19.3610 C   0  0  0  0  0  2  0  0  0  0  0  0
  -28.4480  -26.8380   20.1030 O   0  0  0  0  0  0  0  0  0  0  0  0
  -24.5520  -31.8900   23.2630 C   0  0  0  0  0  0  0  0  0  0  0  0
  -27.2210  -27.4770   20.1400 C   0  0  0  0  0  0  0  0  0  0  0  0
  -23.3480  -30.4870   21.6210 C   0  0  0  0  0  3  0  0  0  0  0  0
  -24.8020  -28.9530   20.1920 C   0  0  0  0  0  0  0  0  0  0  0  0
  -25.8710  -30.8510   21.4220 C   0  0  0  0  0  2  0  0  0  0  0  0
  -25.9570  -29.4830   20.7820 C   0  0  0  0  0  0  0  0  0  0  0  0
  -27.1610  -28.7450   20.7620 C   0  0  0  0  0  3  0  0  0  0  0  0
  -26.0370  -26.9470   19.5740 C   0  0  0  0  0  3  0  0  0  0  0  0
  -24.8350  -27.6810   19.5950 C   0  0  0  0  0  3  0  0  0  0  0  0
  -23.5530  -29.8010   20.2420 C   0  0  0  0  0  2  0  0  0  0  0  0
  -24.6090  -31.0930   22.1590 N   0  0  0  0  0  0  0  0  0  0  0  0
  -23.4690  -32.1630   23.7990 O   0  0  0  0  0  0  0  0  0  0  0  0
  -22.7020  -29.4640   22.5830 C   0  0  0  0  0  0  0  0  0  0  0  0
  -21.3790  -29.2780   22.4530 N   0  0  0  0  0  0  0  0  0  0  0  0
  -23.3880  -28.8390   23.3970 O   0  0  0  0  0  0  0  0  0  0  0  0
  -20.8900  -29.8330   21.7640 H   0  0  0  0  0  0  0  0  0  0  0  0
  -18.0070  -28.0800   22.9530 C   0  0  0  0  0  0  0  0  0  0  0  0
  -20.5640  -28.3370   23.2210 C   0  0  0  0  0  3  0  0  0  0  0  0
  -20.6670  -26.9100   22.6360 C   0  0  0  0  0  2  0  0  0  0  0  0
  -19.5620  -26.5920   21.6230 C   0  0  0  0  0  2  0  0  0  0  0  0
  -18.1810  -26.7350   22.2700 C   0  0  0  0  0  2  0  0  0  0  0  0
  -19.1260  -28.8400   23.3830 C   0  0  0  0  0  0  0  0  0  0  0  0
  -18.9070  -30.1010   23.9790 C   0  0  0  0  0  3  0  0  0  0  0  0
  -17.6030  -30.6020   24.1470 C   0  0  0  0  0  3  0  0  0  0  0  0
  -16.4990  -29.8400   23.7310 C   0  0  0  0  0  3  0  0  0  0  0  0
  -16.7010  -28.5790   23.1400 C   0  0  0  0  0  3  0  0  0  0  0  0
  -25.8380  -32.5210   23.8840 C   0  0  0  0  0  3  0  0  0  0  0  0
  -26.3470  -31.7640   25.1720 C   0  0  1  0  0  0  0  0  0  0  0  0
  -25.2470  -31.5500   26.2370 C   0  0  0  0  0  1  0  0  0  0  0  0
  -26.9260  -30.3790   24.8000 C   0  0  0  0  0  1  0  0  0  0  0  0
  -27.5000  -32.5620   25.8250 C   0  0  0  0  0  1  0  0  0  0  0  0
  -25.5350  -33.9260   24.1930 N   0  0  0  0  0  0  0  0  0  0  0  0
  -25.8800  -34.9650   23.4240 C   0  0  0  0  0  0  0  0  0  0  0  0
  -26.5620  -34.8460   22.4020 O   0  0  0  0  0  0  0  0  0  0  0  0
  -24.9390  -34.0960   24.9910 H   0  0  0  0  0  0  0  0  0  0  0  0
  -24.1760  -36.7660   23.0130 C   0  0  0  0  0  1  0  0  0  0  0  0
  -25.3960  -36.3640   23.8560 C   0  0  0  0  0  3  0  0  0  0  0  0
  -27.5240  -37.2340   24.7190 C   0  0  0  0  0  1  0  0  0  0  0  0
  -26.4410  -37.4060   23.7530 N   0  0  0  0  0  0  0  0  0  0  0  0
  -26.0430  -38.3330   23.8820 H   0  0  0  0  0  0  0  0  0  0  0  0
  1  7  1  0
  1  6  1  0
  2  1  2  0
  4  3  1  0
  5  3  1  0
  6 56  1  0
  6  4  1  0
  7  9  1  0
  7  5  1  0
  7  8  1  6
 11 13  2  0
 11 15  1  0
 12  9  1  0
 12 10  2  0
 13 12  1  0
 14 10  1  0
 14 26  1  0
 15 14  2  0
 16 13  1  0
 17 15  1  0
 19 24  1  0
 20 21  1  0
 20 19  1  0
 22 21  1  0
 22 31  1  0
 22 23  1  0
 24 18  1  0
 24 23  1  0
 25 18  2  0
 26 18  1  0
 26 27  1  0
 28 29  2  0
 29 30  1  0
 29 48  1  0
 30 33  1  0
 31 28  1  0
 31 32  1  0
 32 30  2  0
 33 34  1  0
 34 35  2  0
 36 39  1  0
 36 35  1  0
 37 36  2  0
 38 37  1  0
 38 33  2  0
 39 40  1  0
 40 41  1  0
 41 42  2  0
 43 42  1  0
 43 47  1  0
 44 43  2  0
 45 40  2  0
 45 44  1  0
 46 45  1  0
 48 49  1  0
 49 52  1  0
 49 51  1  0
 50 48  2  0
 53 54  1  0
 53 28  1  0
 55 53  1  0
 56 57  1  0
 57 59  1  0
 58 69  2  0
 59 64  1  0
 60 68  1  0
 60 70  1  0
 61 67  1  0
 61 63  1  0
 62 68  1  0
 63 62  1  0
 64 63  2  0
 65 66  1  0
 65 59  2  0
 66 61  2  0
 67 60  1  0
 68 58  1  0
 70 72  2  0
 71 70  1  0
 73 71  1  0
 74 83  2  0
 74 79  1  0
 75 71  1  0
 75 79  1  0
 76 75  1  0
 77 78  1  0
 77 76  1  0
 78 74  1  0
 79 80  2  0
 80 81  1  0
 82 81  2  0
 83 82  1  0
 84 58  1  0
 84 89  1  0
 84 85  1  0
 85 88  1  1
 85 86  1  0
 87 85  1  0
 89 92  1  0
 90 94  1  0
 90 89  1  0
 91 90  2  0
 94 93  1  0
 96 94  1  0
 96 97  1  0
 96 95  1  0
M  ISO  4  18 100  26 100  56 101  57 101
M  END
>  <TORSDO>  (56) 
F 19

>  <SCORE>  (56) 
-14.485

>  <name>  (56) 
55

>  <ligand_id>  (56) 
55

>  <original_smiles>  (56) 
[H]C([H])=C1C([H])(C([H])([H])Oc2c([H])c([H])c3c(c2[H])C([H])([H])N(C(=O)C([H])(N([H])C(=O)C([H])(N([H])C([H])([H])[H])C([H])([H])[H])C(C([H])([H])[H])(C([H])([H])[H])C([H])([H])[H])C([H])(C(=O)N([H])C2([H])c4c([H])c([H])c([H])c([H])c4C([H])([H])C([H])([H])C2([H])[H])C3([H])[H])C([H])([H])C([H])([H])C([H])([H])[N+]1([H])C([H])([H])c1c([H])c(N([H])C(=O)N2C([H])([H])C([H])([H])C([H])([H])C([H])(n3nc(-c4c([H])c([H])c(Oc5c([H])c([H])c(F)c([H])c5F)c([H])c4[H])c(C(=O)N([H])[H])c3N([H])[H])C2([H])[H])c(Cl)c([H])c1C([H])([H])[H]

>  <smiles>  (56) 
[H]C([H])=C1C([H])(C([H])([H])Oc2c([H])c([H])c3c(c2[H])C([H])([H])N(C(=O)C([H])(N([H])C(=O)C([H])(N([H])C([H])([H])[H])C([H])([H])[H])C(C([H])([H])[H])(C([H])([H])[H])C([H])([H])[H])C([H])(C(=O)N([H])C2([H])c4c([H])c([H])c([H])c([H])c4C([H])([H])C([H])([H])C2([H])[H])C3([H])[H])C([H])([H])C([H])([H])C([H])([H])[N+]1([H])C([H])([H])c1c([H])c(N([H])C(=O)N2C([H])([H])C([H])([H])C([H])([H])C([H])(n3nc(-c4c([H])c([H])c(Oc5c([H])c([H])c(F)c([H])c5F)c([H])c4[H])c(C(=O)N([H])[H])c3N([H])[H])C2([H])[H])c(Cl)c([H])c1C([H])([H])[H]

$$$$
56:0:0
     RDKit          3D

 98107  0  0  1  0  0  0  0  0999 V2000
  -29.2790  -22.8600   19.5680 C   0  0  0  0  0  0  0  0  0  0  0  0
  -29.2770  -22.2090   18.3810 C   0  0  0  0  0  3  0  0  0  0  0  0
  -29.6780  -24.3420   19.7100 C   0  0  0  0  0  2  0  0  0  0  0  0
  -27.8950  -24.6710   21.4040 C   0  0  0  0  0  2  0  0  0  0  0  0
  -27.5640  -23.1720   21.3400 C   0  0  0  0  0  2  0  0  0  0  0  0
  -28.4210  -25.1880   20.0400 C   0  0  0  0  0  3  0  0  0  0  0  0
  -28.7260  -22.3600   20.8910 N   0  0  1  0  0  4  0  0  0  0  0  0
  -29.4410  -22.5640   21.5710 H   0  0  0  0  0  0  0  0  0  0  0  0
  -27.3110  -20.8180   17.9320 C   0  0  0  0  0  2  0  0  0  0  0  0
  -28.6460  -20.9450   18.0550 C   0  0  0  0  0  3  0  0  0  0  0  0
  -28.5910  -26.6370   20.0400 O   0  0  0  0  0  0  0  0  0  0  0  0
  -24.6520  -31.7600   23.1140 C   0  0  0  0  0  0  0  0  0  0  0  0
  -27.4270  -27.4030   19.9850 C   0  0  0  0  0  0  0  0  0  0  0  0
  -23.5020  -30.3390   21.4660 C   0  0  0  0  0  3  0  0  0  0  0  0
  -25.0000  -28.8790   20.0220 C   0  0  0  0  0  0  0  0  0  0  0  0
  -26.0240  -30.7750   21.2710 C   0  0  0  0  0  2  0  0  0  0  0  0
  -26.1510  -29.4160   20.6110 C   0  0  0  0  0  0  0  0  0  0  0  0
  -27.3720  -28.6900   20.5820 C   0  0  0  0  0  3  0  0  0  0  0  0
  -26.2460  -26.9090   19.3770 C   0  0  0  0  0  3  0  0  0  0  0  0
  -25.0430  -27.6230   19.4090 C   0  0  0  0  0  3  0  0  0  0  0  0
  -23.7320  -29.6920   20.0760 C   0  0  0  0  0  2  0  0  0  0  0  0
  -24.7450  -30.9730   22.0070 N   0  0  0  0  0  0  0  0  0  0  0  0
  -23.5600  -31.9830   23.6520 O   0  0  0  0  0  0  0  0  0  0  0  0
  -22.8910  -29.2760   22.4110 C   0  0  0  0  0  0  0  0  0  0  0  0
  -21.5720  -29.0490   22.2890 N   0  0  0  0  0  0  0  0  0  0  0  0
  -23.6030  -28.6630   23.2120 O   0  0  0  0  0  0  0  0  0  0  0  0
  -21.0470  -29.6260   21.6470 H   0  0  0  0  0  0  0  0  0  0  0  0
  -18.2660  -27.6380   22.7040 C   0  0  0  0  0  0  0  0  0  0  0  0
  -20.7950  -28.0620   23.0400 C   0  0  0  0  0  3  0  0  0  0  0  0
  -21.0010  -26.6360   22.4720 C   0  0  0  0  0  2  0  0  0  0  0  0
  -19.9380  -26.2460   21.4400 C   0  0  0  0  0  2  0  0  0  0  0  0
  -18.5520  -26.2830   22.0860 C   0  0  0  0  0  2  0  0  0  0  0  0
  -19.3210  -28.4760   23.1550 C   0  0  0  0  0  0  0  0  0  0  0  0
  -19.0030  -29.7300   23.7170 C   0  0  0  0  0  3  0  0  0  0  0  0
  -17.6650  -30.1550   23.8250 C   0  0  0  0  0  3  0  0  0  0  0  0
  -16.6270  -29.3180   23.3830 C   0  0  0  0  0  3  0  0  0  0  0  0
  -16.9260  -28.0620   22.8300 C   0  0  0  0  0  3  0  0  0  0  0  0
  -25.9100  -32.4350   23.7400 C   0  0  0  0  0  3  0  0  0  0  0  0
  -26.4670  -31.6580   24.9970 C   0  0  1  0  0  0  0  0  0  0  0  0
  -25.3910  -31.3460   26.0630 C   0  0  0  0  0  1  0  0  0  0  0  0
  -27.1060  -30.3170   24.5720 C   0  0  0  0  0  1  0  0  0  0  0  0
  -27.5920  -32.4850   25.6650 C   0  0  0  0  0  1  0  0  0  0  0  0
  -25.5430  -33.8110   24.1010 N   0  0  0  0  0  0  0  0  0  0  0  0
  -25.8720  -34.8940   23.3840 C   0  0  0  0  0  0  0  0  0  0  0  0
  -26.5820  -34.8390   22.3760 O   0  0  0  0  0  0  0  0  0  0  0  0
  -24.9170  -33.9230   24.8850 H   0  0  0  0  0  0  0  0  0  0  0  0
  -24.1000  -36.6370   23.0120 C   0  0  0  0  0  1  0  0  0  0  0  0
  -25.3240  -36.2540   23.8600 C   0  0  0  0  0  3  0  0  0  0  0  0
  -27.4010  -37.1730   24.7910 C   0  0  0  0  0  1  0  0  0  0  0  0
  -26.3270  -37.3400   23.8150 N   0  0  0  0  0  0  0  0  0  0  0  0
  -25.8900  -38.2440   23.9740 H   0  0  0  0  0  0  0  0  0  0  0  0
  -28.5230  -20.8980   21.1820 C   0  0  0  0  0  2  0  0  0  0  0  0
  -32.0490  -18.4780   22.0980 C   0  0  0  0  0  3  0  0  0  0  0  0
  -31.8000  -19.6580   22.8140 C   0  0  0  0  0  3  0  0  0  0  0  0
  -30.0500  -18.8770   20.7690 C   0  0  0  0  0  3  0  0  0  0  0  0
  -31.1840  -18.0800   21.0620 C   0  0  0  0  0  0  0  0  0  0  0  0
  -30.6830  -20.4670   22.5180 C   0  0  0  0  0  0  0  0  0  0  0  0
  -29.7940  -20.0840   21.4740 C   0  0  0  0  0  0  0  0  0  0  0  0
  -30.4710  -21.7170   23.3570 C   0  0  0  0  0  1  0  0  0  0  0  0
  -31.5780  -16.8880   20.1890 C   0  0  0  0  0  2  0  0  0  0  0  0
  -31.3630  -14.4780   19.8180 C   0  0  0  0  0  0  0  0  0  0  0  0
  -30.8980  -12.2090   18.9780 C   0  0  0  0  0  2  0  0  0  0  0  0
  -29.9470  -12.2910   17.7690 C   0  0  0  0  0  2  0  0  0  0  0  0
  -28.4860  -12.2400   18.2560 C   0  0  0  0  0  2  0  0  0  0  0  0
  -28.2020  -13.2690   19.3830 C   0  0  0  0  0  3  0  0  0  0  0  0
  -29.2790  -13.2110   20.4920 C   0  0  0  0  0  2  0  0  0  0  0  0
  -30.6000  -13.3530   19.8590 N   0  0  0  0  0  0  0  0  0  0  0  0
  -32.4430  -14.5150   19.2170 O   0  0  0  0  0  0  0  0  0  0  0  0
  -30.8690  -15.6090   20.3600 N   0  0  0  0  0  0  0  0  0  0  0  0
  -29.9830  -15.5870   20.8390 H   0  0  0  0  0  0  0  0  0  0  0  0
  -25.9000  -14.0500   20.2240 C   0  0  0  0  0  0  0  0  0  0  0  0
  -24.7940  -13.3550   20.6400 C   0  0  0  0  0  0  0  0  0  0  0  0
  -25.1470  -11.9730   20.5730 C   0  0  0  0  0  0  0  0  0  0  0  0
  -26.8600  -13.0920   19.9310 N   0  0  0  0  0  0  0  0  0  0  0  0
  -26.4120  -11.8380   20.1990 N   0  0  0  0  0  0  0  0  0  0  0  0
  -24.3330  -10.7680   20.7880 C   0  0  0  0  0  0  0  0  0  0  0  0
  -24.7110   -9.7820   21.7240 C   0  0  0  0  0  3  0  0  0  0  0  0
  -23.9030   -8.6430   21.9280 C   0  0  0  0  0  3  0  0  0  0  0  0
  -22.7030   -8.4840   21.1930 C   0  0  0  0  0  0  0  0  0  0  0  0
  -22.3420   -9.4600   20.2470 C   0  0  0  0  0  3  0  0  0  0  0  0
  -23.1510  -10.5910   20.0440 C   0  0  0  0  0  3  0  0  0  0  0  0
  -21.8670   -7.3980   21.3040 O   0  0  0  0  0  0  0  0  0  0  0  0
  -21.7480   -6.7000   22.4780 C   0  0  0  0  0  0  0  0  0  0  0  0
  -21.3500   -7.3260   23.6820 C   0  0  0  0  0  3  0  0  0  0  0  0
  -21.1770   -6.5580   24.8490 C   0  0  0  0  0  3  0  0  0  0  0  0
  -21.3840   -5.1650   24.8130 C   0  0  0  0  0  0  0  0  0  0  0  0
  -21.7760   -4.5410   23.6170 C   0  0  0  0  0  3  0  0  0  0  0  0
  -21.9520   -5.3080   22.4500 C   0  0  0  0  0  0  0  0  0  0  0  0
  -22.3090   -4.6980   21.2950 F   0  0  0  0  0  0  0  0  0  0  0  0
  -21.2070   -4.4240   25.9330 F   0  0  0  0  0  0  0  0  0  0  0  0
  -23.4560  -13.9370   20.9960 C   0  0  0  0  0  0  0  0  0  0  0  0
  -22.7320  -13.2920   21.9050 N   0  0  0  0  0  0  0  0  0  0  0  0
  -23.0720  -15.0000   20.5140 O   0  0  0  0  0  0  0  0  0  0  0  0
  -23.0620  -12.4340   22.3220 H   0  0  0  0  0  0  0  0  0  0  0  0
  -21.8390  -13.6690   22.1940 H   0  0  0  0  0  0  0  0  0  0  0  0
  -26.1610  -15.4020   20.0520 N   0  0  0  0  0  0  0  0  0  0  0  0
  -25.4610  -16.1130   20.2320 H   0  0  0  0  0  0  0  0  0  0  0  0
  -27.0340  -15.7840   19.7090 H   0  0  0  0  0  0  0  0  0  0  0  0
  1  3  1  0
  1  7  1  0
  2  1  2  0
  3  6  1  0
  5  4  1  0
  6 11  1  0
  6  4  1  0
  7 52  1  0
  7  5  1  0
  7  8  1  1
  9 10  2  0
 10  2  1  0
 12 23  2  0
 13 11  1  0
 13 18  1  0
 14 22  1  0
 14 24  1  0
 15 21  1  0
 15 17  1  0
 16 22  1  0
 17 16  1  0
 18 17  2  0
 19 20  1  0
 19 13  2  0
 20 15  2  0
 21 14  1  0
 22 12  1  0
 24 26  2  0
 25 24  1  0
 27 25  1  0
 28 37  2  0
 28 33  1  0
 29 25  1  0
 29 33  1  0
 30 29  1  0
 31 32  1  0
 31 30  1  0
 32 28  1  0
 33 34  2  0
 34 35  1  0
 36 35  2  0
 37 36  1  0
 38 12  1  0
 38 43  1  0
 38 39  1  0
 39 42  1  1
 39 40  1  0
 41 39  1  0
 43 46  1  0
 44 48  1  0
 44 43  1  0
 45 44  2  0
 48 47  1  0
 50 48  1  0
 50 51  1  0
 50 49  1  0
 52 58  1  0
 53 54  1  0
 55 56  1  0
 55 58  2  0
 56 53  2  0
 57 54  2  0
 57 59  1  0
 58 57  1  0
 60 69  1  0
 60 56  1  0
 61 67  1  0
 61 69  1  0
 62 67  1  0
 63 64  1  0
 63 62  1  0
 65 64  1  0
 65 74  1  0
 65 66  1  0
 67 66  1  0
 68 61  2  0
 69 70  1  0
 71 72  2  0
 72 91  1  0
 73 72  1  0
 73 76  1  0
 74 75  1  0
 74 71  1  0
 75 73  2  0
 76 77  1  0
 77 78  2  0
 79 82  1  0
 79 78  1  0
 80 79  2  0
 81 80  1  0
 81 76  2  0
 82 83  1  0
 83 84  1  0
 84 85  2  0
 86 85  1  0
 86 90  1  0
 87 86  2  0
 88 83  2  0
 88 87  1  0
 89 88  1  0
 91 92  1  0
 92 95  1  0
 92 94  1  0
 93 91  2  0
 96 71  1  0
 96 97  1  0
 98 96  1  0
M  ISO  4   6 101  11 101  61 100  69 100
M  END
>  <TORSDO>  (57) 
F 20

>  <SCORE>  (57) 
-13.434

>  <name>  (57) 
56

>  <ligand_id>  (57) 
56

>  <original_smiles>  (57) 
[H]C([H])=C([H])C([H])=C1C([H])([H])C([H])(Oc2c([H])c([H])c3c(c2[H])C([H])([H])N(C(=O)C([H])(N([H])C(=O)C([H])(N([H])C([H])([H])[H])C([H])([H])[H])C(C([H])([H])[H])(C([H])([H])[H])C([H])([H])[H])C([H])(C(=O)N([H])C2([H])c4c([H])c([H])c([H])c([H])c4C([H])([H])C([H])([H])C2([H])[H])C3([H])[H])C([H])([H])C([H])([H])[N+]1([H])C([H])([H])c1c([H])c(C([H])([H])N([H])C(=O)N2C([H])([H])C([H])([H])C([H])([H])C([H])(n3nc(-c4c([H])c([H])c(Oc5c([H])c([H])c(F)c([H])c5F)c([H])c4[H])c(C(=O)N([H])[H])c3N([H])[H])C2([H])[H])c([H])c([H])c1C([H])([H])[H]

>  <smiles>  (57) 
[H]C([H])=C([H])C([H])=C1C([H])([H])C([H])(Oc2c([H])c([H])c3c(c2[H])C([H])([H])N(C(=O)C([H])(N([H])C(=O)C([H])(N([H])C([H])([H])[H])C([H])([H])[H])C(C([H])([H])[H])(C([H])([H])[H])C([H])([H])[H])C([H])(C(=O)N([H])C2([H])c4c([H])c([H])c([H])c([H])c4C([H])([H])C([H])([H])C2([H])[H])C3([H])[H])C([H])([H])C([H])([H])[N+]1([H])C([H])([H])c1c([H])c(C([H])([H])N([H])C(=O)N2C([H])([H])C([H])([H])C([H])([H])C([H])(n3nc(-c4c([H])c([H])c(Oc5c([H])c([H])c(F)c([H])c5F)c([H])c4[H])c(C(=O)N([H])[H])c3N([H])[H])C2([H])[H])c([H])c([H])c1C([H])([H])[H]

$$$$
57:0:0
     RDKit          3D

 94103  0  0  1  0  0  0  0  0999 V2000
  -29.2840  -23.9230   19.7000 C   0  0  0  0  0  0  0  0  0  0  0  0
  -28.0740  -23.7480   22.3400 C   0  0  0  0  0  2  0  0  0  0  0  0
  -27.6130  -24.8740   21.4150 C   0  0  0  0  0  2  0  0  0  0  0  0
  -28.5730  -22.4880   21.5950 C   0  0  0  0  0  2  0  0  0  0  0  0
  -28.7550  -25.2350   20.4640 C   0  0  0  0  0  3  0  0  0  0  0  0
  -29.2980  -22.6670   20.3210 N   0  0  0  0  0  0  0  0  0  0  0  0
  -29.7470  -24.0710   18.5640 O   0  0  0  0  0  0  0  0  0  0  0  0
  -28.6000  -26.5260   19.7110 O   0  0  0  0  0  0  0  0  0  0  0  0
  -24.6880  -31.6320   23.1140 C   0  0  0  0  0  0  0  0  0  0  0  0
  -27.4390  -27.3200   19.8130 C   0  0  0  0  0  0  0  0  0  0  0  0
  -23.5090  -30.2500   21.4390 C   0  0  0  0  0  3  0  0  0  0  0  0
  -25.0000  -28.8220   19.9210 C   0  0  0  0  0  0  0  0  0  0  0  0
  -26.0280  -30.6950   21.2130 C   0  0  0  0  0  2  0  0  0  0  0  0
  -26.1600  -29.3470   20.5060 C   0  0  0  0  0  0  0  0  0  0  0  0
  -27.3850  -28.6110   20.4340 C   0  0  0  0  0  3  0  0  0  0  0  0
  -26.2550  -26.8480   19.2130 C   0  0  0  0  0  3  0  0  0  0  0  0
  -25.0500  -27.5800   19.2640 C   0  0  0  0  0  3  0  0  0  0  0  0
  -23.7210  -29.6320   20.0320 C   0  0  0  0  0  2  0  0  0  0  0  0
  -24.7610  -30.8760   21.9790 N   0  0  0  0  0  0  0  0  0  0  0  0
  -23.6070  -31.8360   23.6850 O   0  0  0  0  0  0  0  0  0  0  0  0
  -22.9140  -29.1690   22.3720 C   0  0  0  0  0  0  0  0  0  0  0  0
  -21.6080  -28.8910   22.2230 N   0  0  0  0  0  0  0  0  0  0  0  0
  -23.6290  -28.5810   23.1890 O   0  0  0  0  0  0  0  0  0  0  0  0
  -21.0870  -29.4150   21.5340 H   0  0  0  0  0  0  0  0  0  0  0  0
  -18.3660  -27.3240   22.5550 C   0  0  0  0  0  0  0  0  0  0  0  0
  -20.8590  -27.8760   22.9650 C   0  0  0  0  0  3  0  0  0  0  0  0
  -21.1570  -26.4590   22.4200 C   0  0  0  0  0  2  0  0  0  0  0  0
  -20.1590  -26.0040   21.3500 C   0  0  0  0  0  2  0  0  0  0  0  0
  -18.7350  -25.9970   21.9130 C   0  0  0  0  0  2  0  0  0  0  0  0
  -19.3640  -28.2130   23.0330 C   0  0  0  0  0  0  0  0  0  0  0  0
  -18.9690  -29.4490   23.5900 C   0  0  0  0  0  3  0  0  0  0  0  0
  -17.6080  -29.7990   23.6750 C   0  0  0  0  0  3  0  0  0  0  0  0
  -16.6250  -28.9080   23.2130 C   0  0  0  0  0  3  0  0  0  0  0  0
  -17.0040  -27.6720   22.6600 C   0  0  0  0  0  3  0  0  0  0  0  0
  -25.9570  -32.2960   23.7350 C   0  0  0  0  0  3  0  0  0  0  0  0
  -25.6050  -33.6780   24.0950 N   0  0  0  0  0  0  0  0  0  0  0  0
  -25.9220  -34.7580   23.3680 C   0  0  0  0  0  0  0  0  0  0  0  0
  -26.6070  -34.6950   22.3440 O   0  0  0  0  0  0  0  0  0  0  0  0
  -24.9960  -33.7980   24.8910 H   0  0  0  0  0  0  0  0  0  0  0  0
  -24.1540  -36.5140   23.0320 C   0  0  0  0  0  1  0  0  0  0  0  0
  -25.3940  -36.1220   23.8520 C   0  0  0  0  0  3  0  0  0  0  0  0
  -27.4940  -37.0380   24.7350 C   0  0  0  0  0  1  0  0  0  0  0  0
  -26.4020  -37.2020   23.7790 N   0  0  0  0  0  0  0  0  0  0  0  0
  -25.9720  -38.1090   23.9430 H   0  0  0  0  0  0  0  0  0  0  0  0
  -26.5120  -31.5210   24.9940 C   0  0  1  0  0  0  0  0  0  0  0  0
  -25.4360  -31.2270   26.0660 C   0  0  0  0  0  1  0  0  0  0  0  0
  -27.1390  -30.1710   24.5740 C   0  0  0  0  0  1  0  0  0  0  0  0
  -27.6410  -32.3410   25.6600 C   0  0  0  0  0  1  0  0  0  0  0  0
  -30.0310  -21.4290   19.7290 C   0  0  0  0  0  2  0  0  0  0  0  0
  -30.5050  -18.4870   22.3660 C   0  0  0  0  0  3  0  0  0  0  0  0
  -30.1740  -19.7190   21.7790 C   0  0  0  0  0  3  0  0  0  0  0  0
  -30.9540  -17.3980   21.6030 C   0  0  0  0  0  3  0  0  0  0  0  0
  -30.3550  -19.9830   20.3970 C   0  0  0  0  0  0  0  0  0  0  0  0
  -30.8500  -18.8340   19.6280 C   0  0  0  0  0  0  0  0  0  0  0  0
  -31.0880  -17.4980   20.2060 C   0  0  0  0  0  0  0  0  0  0  0  0
  -31.1570  -19.0760   18.1550 C   0  0  0  0  0  1  0  0  0  0  0  0
  -31.9260  -15.0390   19.8840 C   0  0  0  0  0  0  0  0  0  0  0  0
  -31.5720  -12.7070   19.0480 C   0  0  0  0  0  2  0  0  0  0  0  0
  -30.6200  -12.6960   17.8310 C   0  0  0  0  0  2  0  0  0  0  0  0
  -29.1430  -12.7030   18.2830 C   0  0  0  0  0  2  0  0  0  0  0  0
  -28.8390  -13.6780   19.4560 C   0  0  0  0  0  3  0  0  0  0  0  0
  -29.9200  -13.6190   20.5530 C   0  0  0  0  0  2  0  0  0  0  0  0
  -31.2080  -13.8620   19.8960 N   0  0  0  0  0  0  0  0  0  0  0  0
  -33.1510  -14.9950   19.7310 O   0  0  0  0  0  0  0  0  0  0  0  0
  -31.0100  -16.2640   18.0320 C   0  0  0  0  0  1  0  0  0  0  0  0
  -31.2620  -16.2060   19.4810 N   0  0  0  0  0  0  0  0  0  0  0  0
  -26.5320  -14.4480   20.2610 C   0  0  0  0  0  0  0  0  0  0  0  0
  -25.4160  -13.7560   20.6420 C   0  0  0  0  0  0  0  0  0  0  0  0
  -25.7720  -12.3730   20.5920 C   0  0  0  0  0  0  0  0  0  0  0  0
  -27.4970  -13.4900   19.9930 N   0  0  0  0  0  0  0  0  0  0  0  0
  -27.0500  -12.2370   20.2610 N   0  0  0  0  0  0  0  0  0  0  0  0
  -24.9550  -11.1690   20.7880 C   0  0  0  0  0  0  0  0  0  0  0  0
  -25.2700  -10.2160   21.7830 C   0  0  0  0  0  3  0  0  0  0  0  0
  -24.4590   -9.0760   21.9630 C   0  0  0  0  0  3  0  0  0  0  0  0
  -23.3180   -8.8800   21.1470 C   0  0  0  0  0  0  0  0  0  0  0  0
  -23.0230   -9.8200   20.1450 C   0  0  0  0  0  3  0  0  0  0  0  0
  -23.8330  -10.9530   19.9630 C   0  0  0  0  0  3  0  0  0  0  0  0
  -22.4860   -7.7900   21.2350 O   0  0  0  0  0  0  0  0  0  0  0  0
  -22.2210   -7.1790   22.4340 C   0  0  0  0  0  0  0  0  0  0  0  0
  -21.6680   -7.8860   23.5250 C   0  0  0  0  0  3  0  0  0  0  0  0
  -21.3470   -7.2040   24.7150 C   0  0  0  0  0  3  0  0  0  0  0  0
  -21.5700   -5.8160   24.8150 C   0  0  0  0  0  0  0  0  0  0  0  0
  -22.1170   -5.1110   23.7300 C   0  0  0  0  0  3  0  0  0  0  0  0
  -22.4380   -5.7900   22.5410 C   0  0  0  0  0  0  0  0  0  0  0  0
  -22.9420   -5.1000   21.4890 F   0  0  0  0  0  0  0  0  0  0  0  0
  -21.2570   -5.1610   25.9570 F   0  0  0  0  0  0  0  0  0  0  0  0
  -24.0650  -14.3370   20.9500 C   0  0  0  0  0  0  0  0  0  0  0  0
  -23.3190  -13.7070   21.8520 N   0  0  0  0  0  0  0  0  0  0  0  0
  -23.6840  -15.3820   20.4250 O   0  0  0  0  0  0  0  0  0  0  0  0
  -23.6440  -12.8620   22.2960 H   0  0  0  0  0  0  0  0  0  0  0  0
  -22.4120  -14.0750   22.1030 H   0  0  0  0  0  0  0  0  0  0  0  0
  -26.8060  -15.8030   20.0990 N   0  0  0  0  0  0  0  0  0  0  0  0
  -26.1110  -16.5240   20.2520 H   0  0  0  0  0  0  0  0  0  0  0  0
  -27.7140  -16.1760   19.8450 H   0  0  0  0  0  0  0  0  0  0  0  0
  1  6  1  0
  1  5  1  0
  3  2  1  0
  4  2  1  0
  5  8  1  0
  5  3  1  0
  6  4  1  0
  7  1  2  0
  8 10  1  0
  9 20  2  0
 10 15  1  0
 11 19  1  0
 11 21  1  0
 12 18  1  0
 12 14  1  0
 13 19  1  0
 14 13  1  0
 15 14  2  0
 16 17  1  0
 16 10  2  0
 17 12  2  0
 18 11  1  0
 19  9  1  0
 21 23  2  0
 22 21  1  0
 24 22  1  0
 25 34  2  0
 25 30  1  0
 26 22  1  0
 26 30  1  0
 27 26  1  0
 28 29  1  0
 28 27  1  0
 29 25  1  0
 30 31  2  0
 31 32  1  0
 33 32  2  0
 34 33  1  0
 35  9  1  0
 35 36  1  0
 35 45  1  0
 36 39  1  0
 37 41  1  0
 37 36  1  0
 38 37  2  0
 41 40  1  0
 43 41  1  0
 43 44  1  0
 43 42  1  0
 45 48  1  1
 45 46  1  0
 47 45  1  0
 49  6  1  0
 49 53  1  0
 51 50  1  0
 52 50  2  0
 53 51  2  0
 54 55  2  0
 54 53  1  0
 55 52  1  0
 56 54  1  0
 57 63  1  0
 58 63  1  0
 59 60  1  0
 59 58  1  0
 61 60  1  0
 61 70  1  0
 61 62  1  0
 63 62  1  0
 64 57  2  0
 65 66  1  0
 66 57  1  0
 66 55  1  0
 67 68  2  0
 68 87  1  0
 69 68  1  0
 69 72  1  0
 70 67  1  0
 70 71  1  0
 71 69  2  0
 72 73  1  0
 73 74  2  0
 75 78  1  0
 75 74  1  0
 76 75  2  0
 77 76  1  0
 77 72  2  0
 78 79  1  0
 79 84  2  0
 79 80  1  0
 80 81  2  0
 81 82  1  0
 82 86  1  0
 83 82  2  0
 84 83  1  0
 85 84  1  0
 87 88  1  0
 88 91  1  0
 88 90  1  0
 89 87  2  0
 92 93  1  0
 92 67  1  0
 94 92  1  0
M  ISO  4   5 101   8 101  57 100  66 100
M  END
>  <TORSDO>  (58) 
F 18

>  <SCORE>  (58) 
-11.744

>  <name>  (58) 
57

>  <ligand_id>  (58) 
57

>  <original_smiles>  (58) 
[H]c1c([H])c(N(C(=O)N2C([H])([H])C([H])([H])C([H])([H])C([H])(n3nc(-c4c([H])c([H])c(Oc5c([H])c([H])c(F)c([H])c5F)c([H])c4[H])c(C(=O)N([H])[H])c3N([H])[H])C2([H])[H])C([H])([H])[H])c(C([H])([H])[H])c(C([H])([H])N2C(=O)C([H])(Oc3c([H])c([H])c4c(c3[H])C([H])([H])N(C(=O)C([H])(N([H])C(=O)C([H])(N([H])C([H])([H])[H])C([H])([H])[H])C(C([H])([H])[H])(C([H])([H])[H])C([H])([H])[H])C([H])(C(=O)N([H])C3([H])c5c([H])c([H])c([H])c([H])c5C([H])([H])C([H])([H])C3([H])[H])C4([H])[H])C([H])([H])C([H])([H])C2([H])[H])c1[H]

>  <smiles>  (58) 
[H]c1c([H])c(N(C(=O)N2C([H])([H])C([H])([H])C([H])([H])C([H])(n3nc(-c4c([H])c([H])c(Oc5c([H])c([H])c(F)c([H])c5F)c([H])c4[H])c(C(=O)N([H])[H])c3N([H])[H])C2([H])[H])C([H])([H])[H])c(C([H])([H])[H])c(C([H])([H])N2C(=O)C([H])(Oc3c([H])c([H])c4c(c3[H])C([H])([H])N(C(=O)C([H])(N([H])C(=O)C([H])(N([H])C([H])([H])[H])C([H])([H])[H])C(C([H])([H])[H])(C([H])([H])[H])C([H])([H])[H])C([H])(C(=O)N([H])C3([H])c5c([H])c([H])c([H])c([H])c5C([H])([H])C([H])([H])C3([H])[H])C4([H])[H])C([H])([H])C([H])([H])C2([H])[H])c1[H]

$$$$
58:0:0
     RDKit          3D

 98107  0  0  1  0  0  0  0  0999 V2000
  -30.4760  -24.0390   19.3990 C   0  0  0  0  0  0  0  0  0  0  0  0
  -31.7040  -24.5900   19.3780 C   0  0  0  0  0  3  0  0  0  0  0  0
  -29.2490  -24.6650   18.7140 C   0  0  0  0  0  2  0  0  0  0  0  0
  -27.7690  -23.6510   20.4520 C   0  0  0  0  0  2  0  0  0  0  0  0
  -29.0080  -22.8600   21.0060 C   0  0  0  0  0  2  0  0  0  0  0  0
  -28.0240  -24.9500   19.6180 C   0  0  0  0  0  3  0  0  0  0  0  0
  -30.1800  -22.7210   20.0890 N   0  0  1  0  0  4  0  0  0  0  0  0
  -30.9410  -22.5690   20.7340 H   0  0  0  0  0  0  0  0  0  0  0  0
  -34.1900  -24.9450   19.8090 C   0  0  0  0  0  1  0  0  0  0  0  0
  -32.9720  -24.0260   19.9940 C   0  0  0  0  0  2  0  0  0  0  0  0
  -28.0610  -26.2780   20.2650 O   0  0  0  0  0  0  0  0  0  0  0  0
  -24.6510  -31.7970   23.4460 C   0  0  0  0  0  0  0  0  0  0  0  0
  -26.9530  -27.1450   20.2610 C   0  0  0  0  0  0  0  0  0  0  0  0
  -23.3320  -30.4810   21.8250 C   0  0  0  0  0  3  0  0  0  0  0  0
  -24.6610  -28.8650   20.3530 C   0  0  0  0  0  0  0  0  0  0  0  0
  -25.8830  -30.6590   21.5890 C   0  0  0  0  0  2  0  0  0  0  0  0
  -25.8680  -29.2850   20.9270 C   0  0  0  0  0  0  0  0  0  0  0  0
  -27.0080  -28.4310   20.8810 C   0  0  0  0  0  3  0  0  0  0  0  0
  -25.7200  -26.7750   19.6750 C   0  0  0  0  0  3  0  0  0  0  0  0
  -24.5880  -27.6120   19.7260 C   0  0  0  0  0  3  0  0  0  0  0  0
  -23.4740  -29.8010   20.4380 C   0  0  0  0  0  2  0  0  0  0  0  0
  -24.6430  -30.9960   22.3410 N   0  0  0  0  0  0  0  0  0  0  0  0
  -23.5980  -32.1310   24.0070 O   0  0  0  0  0  0  0  0  0  0  0  0
  -22.6360  -29.4940   22.7940 C   0  0  0  0  0  0  0  0  0  0  0  0
  -21.3250  -29.2790   22.5980 N   0  0  0  0  0  0  0  0  0  0  0  0
  -23.2780  -28.9240   23.6790 O   0  0  0  0  0  0  0  0  0  0  0  0
  -20.8670  -29.7910   21.8580 H   0  0  0  0  0  0  0  0  0  0  0  0
  -17.9850  -27.9130   22.8530 C   0  0  0  0  0  0  0  0  0  0  0  0
  -20.4790  -28.3600   23.3620 C   0  0  0  0  0  3  0  0  0  0  0  0
  -20.7220  -26.8930   22.9350 C   0  0  0  0  0  2  0  0  0  0  0  0
  -19.7590  -26.4140   21.8450 C   0  0  0  0  0  2  0  0  0  0  0  0
  -18.3080  -26.5240   22.3250 C   0  0  0  0  0  2  0  0  0  0  0  0
  -19.0050  -28.7800   23.3220 C   0  0  0  0  0  0  0  0  0  0  0  0
  -18.6540  -30.0730   23.7680 C   0  0  0  0  0  3  0  0  0  0  0  0
  -17.3130  -30.5000   23.7510 C   0  0  0  0  0  3  0  0  0  0  0  0
  -16.3040  -29.6310   23.3010 C   0  0  0  0  0  3  0  0  0  0  0  0
  -16.6400  -28.3390   22.8580 C   0  0  0  0  0  3  0  0  0  0  0  0
  -25.9830  -32.3510   24.0420 C   0  0  0  0  0  3  0  0  0  0  0  0
  -26.4770  -31.5490   25.3080 C   0  0  1  0  0  0  0  0  0  0  0  0
  -25.3910  -31.3670   26.3950 C   0  0  0  0  0  1  0  0  0  0  0  0
  -26.9780  -30.1410   24.9090 C   0  0  0  0  0  1  0  0  0  0  0  0
  -27.6810  -32.2750   25.9550 C   0  0  0  0  0  1  0  0  0  0  0  0
  -25.7640  -33.7630   24.3810 N   0  0  0  0  0  0  0  0  0  0  0  0
  -26.1220  -34.7980   23.6070 C   0  0  0  0  0  0  0  0  0  0  0  0
  -26.7420  -34.6580   22.5510 O   0  0  0  0  0  0  0  0  0  0  0  0
  -25.2110  -33.9490   25.2050 H   0  0  0  0  0  0  0  0  0  0  0  0
  -24.4740  -36.6770   23.3310 C   0  0  0  0  0  1  0  0  0  0  0  0
  -25.7300  -36.2100   24.0830 C   0  0  0  0  0  3  0  0  0  0  0  0
  -27.9420  -36.9870   24.8090 C   0  0  0  0  0  1  0  0  0  0  0  0
  -26.8060  -37.2110   23.9200 N   0  0  0  0  0  0  0  0  0  0  0  0
  -26.4510  -38.1500   24.0840 H   0  0  0  0  0  0  0  0  0  0  0  0
  -30.2560  -21.4830   19.2070 C   0  0  0  0  0  2  0  0  0  0  0  0
  -29.0540  -19.2020   19.3660 C   0  0  0  0  0  3  0  0  0  0  0  0
  -31.0900  -17.9610   20.8230 C   0  0  0  0  0  3  0  0  0  0  0  0
  -30.1360  -20.0190   19.7750 C   0  0  0  0  0  0  0  0  0  0  0  0
  -30.0040  -17.1540   20.4080 C   0  0  0  0  0  0  0  0  0  0  0  0
  -28.9860  -17.8130   19.6640 C   0  0  0  0  0  0  0  0  0  0  0  0
  -31.1680  -19.3500   20.5020 C   0  0  0  0  0  0  0  0  0  0  0  0
  -27.6420  -16.9230   19.0540 Cl  0  0  0  0  0  0  0  0  0  0  0  0
  -32.5900  -20.1950   20.9840 Cl  0  0  0  0  0  0  0  0  0  0  0  0
  -30.6860  -14.6960   20.6450 C   0  0  0  0  0  0  0  0  0  0  0  0
  -30.5540  -12.3850   19.7580 C   0  0  0  0  0  2  0  0  0  0  0  0
  -29.6840  -12.4240   18.4800 C   0  0  0  0  0  2  0  0  0  0  0  0
  -28.1850  -12.2860   18.8260 C   0  0  0  0  0  2  0  0  0  0  0  0
  -27.7430  -13.2250   19.9780 C   0  0  0  0  0  3  0  0  0  0  0  0
  -28.7360  -13.1660   21.1630 C   0  0  0  0  0  2  0  0  0  0  0  0
  -30.0800  -13.4660   20.6410 N   0  0  0  0  0  0  0  0  0  0  0  0
  -31.8750  -14.8400   20.3470 O   0  0  0  0  0  0  0  0  0  0  0  0
  -29.8430  -15.7560   20.7910 N   0  0  0  0  0  0  0  0  0  0  0  0
  -28.8880  -15.4650   20.9220 H   0  0  0  0  0  0  0  0  0  0  0  0
  -25.3200  -13.8600   20.5820 C   0  0  0  0  0  0  0  0  0  0  0  0
  -24.2260  -13.1050   20.9030 C   0  0  0  0  0  0  0  0  0  0  0  0
  -24.6710  -11.7480   20.9010 C   0  0  0  0  0  0  0  0  0  0  0  0
  -26.3660  -12.9670   20.4000 N   0  0  0  0  0  0  0  0  0  0  0  0
  -25.9760  -11.6910   20.6490 N   0  0  0  0  0  0  0  0  0  0  0  0
  -23.9210  -10.4980   21.0650 C   0  0  0  0  0  0  0  0  0  0  0  0
  -24.2910   -9.5360   22.0330 C   0  0  0  0  0  3  0  0  0  0  0  0
  -23.5430   -8.3500   22.1830 C   0  0  0  0  0  3  0  0  0  0  0  0
  -22.4120   -8.1170   21.3680 C   0  0  0  0  0  0  0  0  0  0  0  0
  -22.0580   -9.0690   20.3950 C   0  0  0  0  0  3  0  0  0  0  0  0
  -22.8070  -10.2460   20.2410 C   0  0  0  0  0  3  0  0  0  0  0  0
  -21.6420   -6.9790   21.4250 O   0  0  0  0  0  0  0  0  0  0  0  0
  -21.5200   -6.2510   22.5800 C   0  0  0  0  0  0  0  0  0  0  0  0
  -20.9870   -6.8090   23.7620 C   0  0  0  0  0  3  0  0  0  0  0  0
  -20.8160   -6.0050   24.9060 C   0  0  0  0  0  3  0  0  0  0  0  0
  -21.1670   -4.6420   24.8680 C   0  0  0  0  0  0  0  0  0  0  0  0
  -21.6930   -4.0830   23.6880 C   0  0  0  0  0  3  0  0  0  0  0  0
  -21.8650   -4.8850   22.5480 C   0  0  0  0  0  0  0  0  0  0  0  0
  -22.3540   -4.3380   21.4090 F   0  0  0  0  0  0  0  0  0  0  0  0
  -20.9960   -3.8640   25.9610 F   0  0  0  0  0  0  0  0  0  0  0  0
  -22.8230  -13.6060   21.1040 C   0  0  0  0  0  0  0  0  0  0  0  0
  -22.0450  -12.9320   21.9450 N   0  0  0  0  0  0  0  0  0  0  0  0
  -22.4190  -14.6250   20.5470 O   0  0  0  0  0  0  0  0  0  0  0  0
  -22.3790  -12.1100   22.4250 H   0  0  0  0  0  0  0  0  0  0  0  0
  -21.0990  -13.2470   22.1140 H   0  0  0  0  0  0  0  0  0  0  0  0
  -25.4990  -15.2250   20.4070 N   0  0  0  0  0  0  0  0  0  0  0  0
  -24.7090  -15.8590   20.4340 H   0  0  0  0  0  0  0  0  0  0  0  0
  -26.3390  -15.6640   20.0490 H   0  0  0  0  0  0  0  0  0  0  0  0
  1  7  1  0
  2  1  2  0
  2 10  1  0
  3  1  1  0
  3  6  1  0
  4  5  1  0
  6 11  1  0
  6  4  1  0
  7  8  1  1
  7  5  1  0
  9 10  1  0
 12 23  2  0
 13 11  1  0
 13 18  1  0
 14 22  1  0
 14 24  1  0
 15 21  1  0
 15 17  1  0
 16 22  1  0
 17 16  1  0
 18 17  2  0
 19 20  1  0
 19 13  2  0
 20 15  2  0
 21 14  1  0
 22 12  1  0
 24 26  2  0
 25 24  1  0
 27 25  1  0
 28 37  2  0
 28 33  1  0
 29 25  1  0
 30 29  1  0
 31 32  1  0
 31 30  1  0
 32 28  1  0
 33 29  1  0
 33 34  2  0
 35 34  1  0
 36 35  2  0
 37 36  1  0
 38 12  1  0
 38 43  1  0
 38 39  1  0
 39 42  1  1
 39 40  1  0
 41 39  1  0
 43 46  1  0
 44 48  1  0
 44 43  1  0
 45 44  2  0
 48 47  1  0
 50 48  1  0
 50 51  1  0
 50 49  1  0
 52 55  1  0
 52  7  1  0
 53 57  2  0
 53 55  1  0
 55 58  2  0
 56 69  1  0
 56 54  2  0
 57 56  1  0
 58 54  1  0
 58 60  1  0
 59 57  1  0
 61 69  1  0
 62 67  1  0
 63 64  1  0
 63 62  1  0
 65 64  1  0
 65 74  1  0
 65 66  1  0
 67 61  1  0
 67 66  1  0
 68 61  2  0
 69 70  1  0
 71 72  2  0
 72 91  1  0
 73 72  1  0
 73 76  1  0
 74 71  1  0
 74 75  1  0
 75 73  2  0
 76 77  1  0
 77 78  2  0
 79 82  1  0
 79 78  1  0
 80 79  2  0
 81 80  1  0
 81 76  2  0
 82 83  1  0
 83 84  1  0
 84 85  2  0
 86 85  1  0
 86 90  1  0
 87 86  2  0
 88 83  2  0
 88 87  1  0
 89 88  1  0
 91 92  1  0
 92 95  1  0
 92 94  1  0
 93 91  2  0
 96 97  1  0
 96 71  1  0
 98 96  1  0
M  ISO  4   6 101  11 101  61 100  69 100
M  END
>  <TORSDO>  (59) 
F 19

>  <SCORE>  (59) 
-13.965

>  <name>  (59) 
58

>  <ligand_id>  (59) 
58

>  <original_smiles>  (59) 
[H]C(=C1C([H])([H])C([H])(Oc2c([H])c([H])c3c(c2[H])C([H])([H])N(C(=O)C([H])(N([H])C(=O)C([H])(N([H])C([H])([H])[H])C([H])([H])[H])C(C([H])([H])[H])(C([H])([H])[H])C([H])([H])[H])C([H])(C(=O)N([H])C2([H])c4c([H])c([H])c([H])c([H])c4C([H])([H])C([H])([H])C2([H])[H])C3([H])[H])C([H])([H])C([H])([H])[N+]1([H])C([H])([H])c1c([H])c(Cl)c(N([H])C(=O)N2C([H])([H])C([H])([H])C([H])([H])C([H])(n3nc(-c4c([H])c([H])c(Oc5c([H])c([H])c(F)c([H])c5F)c([H])c4[H])c(C(=O)N([H])[H])c3N([H])[H])C2([H])[H])c([H])c1Cl)C([H])([H])C([H])([H])[H]

>  <smiles>  (59) 
[H]C(=C1C([H])([H])C([H])(Oc2c([H])c([H])c3c(c2[H])C([H])([H])N(C(=O)C([H])(N([H])C(=O)C([H])(N([H])C([H])([H])[H])C([H])([H])[H])C(C([H])([H])[H])(C([H])([H])[H])C([H])([H])[H])C([H])(C(=O)N([H])C2([H])c4c([H])c([H])c([H])c([H])c4C([H])([H])C([H])([H])C2([H])[H])C3([H])[H])C([H])([H])C([H])([H])[N+]1([H])C([H])([H])c1c([H])c(Cl)c(N([H])C(=O)N2C([H])([H])C([H])([H])C([H])([H])C([H])(n3nc(-c4c([H])c([H])c(Oc5c([H])c([H])c(F)c([H])c5F)c([H])c4[H])c(C(=O)N([H])[H])c3N([H])[H])C2([H])[H])c([H])c1Cl)C([H])([H])C([H])([H])[H]

$$$$
59:0:0
     RDKit          3D

 95103  0  0  1  0  0  0  0  0999 V2000
  -28.8730  -19.4660   20.7770 C   0  0  0  0  0  3  0  0  0  0  0  0
  -28.7940  -18.0410   20.7480 C   0  0  0  0  0  3  0  0  0  0  0  0
  -31.1760  -17.8980   20.5490 C   0  0  0  0  0  3  0  0  0  0  0  0
  -30.1080  -20.1650   20.6830 C   0  0  0  0  0  0  0  0  0  0  0  0
  -31.2790  -19.3260   20.6320 C   0  0  0  0  0  0  0  0  0  0  0  0
  -29.9420  -17.2120   20.6070 C   0  0  0  0  0  0  0  0  0  0  0  0
  -30.5800  -14.7300   20.1160 C   0  0  0  0  0  0  0  0  0  0  0  0
  -30.3150  -12.5340   18.9650 C   0  0  0  0  0  2  0  0  0  0  0  0
  -29.2970  -12.6910   17.8130 C   0  0  0  0  0  2  0  0  0  0  0  0
  -27.8530  -12.5140   18.3240 C   0  0  0  0  0  2  0  0  0  0  0  0
  -27.5680  -13.3430   19.6040 C   0  0  0  0  0  3  0  0  0  0  0  0
  -28.6860  -13.1430   20.6520 C   0  0  0  0  0  2  0  0  0  0  0  0
  -29.9600  -13.5110   20.0170 N   0  0  0  0  0  0  0  0  0  0  0  0
  -31.7120  -14.9060   19.6540 O   0  0  0  0  0  0  0  0  0  0  0  0
  -29.7990  -15.7540   20.5960 N   0  0  0  0  0  0  0  0  0  0  0  0
  -28.8990  -15.4220   20.9070 H   0  0  0  0  0  0  0  0  0  0  0  0
  -25.2240  -13.9280   20.4720 C   0  0  0  0  0  0  0  0  0  0  0  0
  -24.1790  -13.1470   20.8820 C   0  0  0  0  0  0  0  0  0  0  0  0
  -24.6350  -11.7950   20.7890 C   0  0  0  0  0  0  0  0  0  0  0  0
  -26.2490  -13.0520   20.1530 N   0  0  0  0  0  0  0  0  0  0  0  0
  -25.9040  -11.7640   20.4070 N   0  0  0  0  0  0  0  0  0  0  0  0
  -23.9200  -10.5290   20.9870 C   0  0  0  0  0  0  0  0  0  0  0  0
  -24.3820   -9.5530   21.8990 C   0  0  0  0  0  3  0  0  0  0  0  0
  -23.6650   -8.3520   22.0840 C   0  0  0  0  0  3  0  0  0  0  0  0
  -22.4730   -8.1160   21.3590 C   0  0  0  0  0  0  0  0  0  0  0  0
  -22.0310   -9.0790   20.4360 C   0  0  0  0  0  3  0  0  0  0  0  0
  -22.7470  -10.2740   20.2490 C   0  0  0  0  0  3  0  0  0  0  0  0
  -21.7280   -6.9660   21.4550 O   0  0  0  0  0  0  0  0  0  0  0  0
  -21.6840   -6.2310   22.6130 C   0  0  0  0  0  0  0  0  0  0  0  0
  -21.1950   -6.7730   23.8220 C   0  0  0  0  0  3  0  0  0  0  0  0
  -21.1040   -5.9610   24.9710 C   0  0  0  0  0  3  0  0  0  0  0  0
  -21.4930   -4.6090   24.9100 C   0  0  0  0  0  0  0  0  0  0  0  0
  -21.9760   -4.0670   23.7060 C   0  0  0  0  0  3  0  0  0  0  0  0
  -22.0680   -4.8760   22.5600 C   0  0  0  0  0  0  0  0  0  0  0  0
  -22.5150   -4.3440   21.3970 F   0  0  0  0  0  0  0  0  0  0  0  0
  -21.3970   -3.8270   26.0120 F   0  0  0  0  0  0  0  0  0  0  0  0
  -22.8000  -13.6170   21.2440 C   0  0  0  0  0  0  0  0  0  0  0  0
  -22.1200  -12.9000   22.1320 N   0  0  0  0  0  0  0  0  0  0  0  0
  -22.3350  -14.6540   20.7740 O   0  0  0  0  0  0  0  0  0  0  0  0
  -22.5070  -12.0570   22.5310 H   0  0  0  0  0  0  0  0  0  0  0  0
  -21.1990  -13.2000   22.4210 H   0  0  0  0  0  0  0  0  0  0  0  0
  -25.3830  -15.3040   20.3210 N   0  0  0  0  0  0  0  0  0  0  0  0
  -24.6250  -15.9570   20.4950 H   0  0  0  0  0  0  0  0  0  0  0  0
  -26.1960  -15.7400   19.9100 H   0  0  0  0  0  0  0  0  0  0  0  0
  -33.2120  -20.2750   19.2890 C   0  0  0  0  0  1  0  0  0  0  0  0
  -32.7040  -19.8920   20.6790 C   0  0  2  0  0  0  0  0  0  0  0  0
  -33.5450  -18.9720   21.1590 F   0  0  0  0  0  0  0  0  0  0  0  0
  -32.8020  -20.9360   21.5040 F   0  0  0  0  0  0  0  0  0  0  0  0
  -30.2130  -21.7510   20.7560 C   0  0  0  0  0  2  0  0  0  0  0  0
  -29.2670  -24.1020   20.5060 C   0  0  0  0  0  0  0  0  0  0  0  0
  -28.3270  -22.2680   19.1350 C   0  0  0  0  0  1  0  0  0  0  0  0
  -29.2230  -22.7490   20.1890 N   0  0  0  0  0  0  0  0  0  0  0  0
  -30.1140  -24.5380   21.2970 O   0  0  0  0  0  0  0  0  0  0  0  0
  -28.2370  -25.1370   19.8890 C   0  0  0  0  0  2  0  0  0  0  0  0
  -28.3760  -26.5600   20.2920 O   0  0  0  0  0  0  0  0  0  0  0  0
  -24.5800  -31.9230   23.2470 C   0  0  0  0  0  0  0  0  0  0  0  0
  -27.2460  -27.3920   20.2080 C   0  0  0  0  0  0  0  0  0  0  0  0
  -23.3930  -30.5160   21.6030 C   0  0  0  0  0  3  0  0  0  0  0  0
  -24.8600  -28.9770   20.1850 C   0  0  0  0  0  0  0  0  0  0  0  0
  -25.9290  -30.8560   21.4310 C   0  0  0  0  0  2  0  0  0  0  0  0
  -26.0220  -29.4790   20.7840 C   0  0  0  0  0  0  0  0  0  0  0  0
  -27.2170  -28.7000   20.7840 C   0  0  0  0  0  3  0  0  0  0  0  0
  -26.0580  -26.9460   19.5770 C   0  0  0  0  0  3  0  0  0  0  0  0
  -24.8790  -27.7140   19.5760 C   0  0  0  0  0  3  0  0  0  0  0  0
  -23.6170  -29.8400   20.2250 C   0  0  0  0  0  2  0  0  0  0  0  0
  -24.6520  -31.1150   22.1510 N   0  0  0  0  0  0  0  0  0  0  0  0
  -23.4930  -32.1970   23.7770 O   0  0  0  0  0  0  0  0  0  0  0  0
  -22.7320  -29.4970   22.5600 C   0  0  0  0  0  0  0  0  0  0  0  0
  -21.4050  -29.3140   22.4290 N   0  0  0  0  0  0  0  0  0  0  0  0
  -23.4100  -28.8710   23.3800 O   0  0  0  0  0  0  0  0  0  0  0  0
  -20.9160  -29.8730   21.7430 H   0  0  0  0  0  0  0  0  0  0  0  0
  -18.0290  -28.1250   22.9420 C   0  0  0  0  0  0  0  0  0  0  0  0
  -20.5900  -28.3750   23.1980 C   0  0  0  0  0  3  0  0  0  0  0  0
  -20.6830  -26.9460   22.6140 C   0  0  0  0  0  2  0  0  0  0  0  0
  -19.5760  -26.6340   21.6020 C   0  0  0  0  0  2  0  0  0  0  0  0
  -18.1980  -26.7810   22.2550 C   0  0  0  0  0  2  0  0  0  0  0  0
  -19.1530  -28.8800   23.3710 C   0  0  0  0  0  0  0  0  0  0  0  0
  -18.9440  -30.1390   23.9740 C   0  0  0  0  0  3  0  0  0  0  0  0
  -17.6430  -30.6470   24.1480 C   0  0  0  0  0  3  0  0  0  0  0  0
  -16.5320  -29.8900   23.7360 C   0  0  0  0  0  3  0  0  0  0  0  0
  -16.7260  -28.6290   23.1410 C   0  0  0  0  0  3  0  0  0  0  0  0
  -25.8580  -32.5640   23.8730 C   0  0  0  0  0  3  0  0  0  0  0  0
  -26.3750  -31.7960   25.1520 C   0  0  1  0  0  0  0  0  0  0  0  0
  -25.2760  -31.5470   26.2110 C   0  0  0  0  0  1  0  0  0  0  0  0
  -26.9750  -30.4240   24.7680 C   0  0  0  0  0  1  0  0  0  0  0  0
  -27.5090  -32.6060   25.8240 C   0  0  0  0  0  1  0  0  0  0  0  0
  -25.5380  -33.9600   24.2020 N   0  0  0  0  0  0  0  0  0  0  0  0
  -25.8500  -35.0130   23.4360 C   0  0  0  0  0  0  0  0  0  0  0  0
  -26.5070  -34.9130   22.3960 O   0  0  0  0  0  0  0  0  0  0  0  0
  -24.9440  -34.1060   25.0050 H   0  0  0  0  0  0  0  0  0  0  0  0
  -24.0990  -36.7900   23.1030 C   0  0  0  0  0  1  0  0  0  0  0  0
  -25.3570  -36.3980   23.8960 C   0  0  0  0  0  3  0  0  0  0  0  0
  -27.4900  -37.3130   24.7010 C   0  0  0  0  0  1  0  0  0  0  0  0
  -26.3770  -37.4610   23.7670 N   0  0  0  0  0  0  0  0  0  0  0  0
  -25.9630  -38.3780   23.9190 H   0  0  0  0  0  0  0  0  0  0  0  0
  2  1  1  0
  3  6  1  0
  3  5  2  0
  4 49  1  0
  4  1  2  0
  5 46  1  0
  5  4  1  0
  6  2  2  0
  7 15  1  0
  8 13  1  0
  9 10  1  0
  9  8  1  0
 11 10  1  0
 11 20  1  0
 11 12  1  0
 13  7  1  0
 13 12  1  0
 14  7  2  0
 15  6  1  0
 15 16  1  0
 17 18  2  0
 18 37  1  0
 19 18  1  0
 19 22  1  0
 20 21  1  0
 20 17  1  0
 21 19  2  0
 22 23  1  0
 23 24  2  0
 25 28  1  0
 25 24  1  0
 26 25  2  0
 27 26  1  0
 27 22  2  0
 28 29  1  0
 29 30  1  0
 30 31  2  0
 32 31  1  0
 32 36  1  0
 33 32  2  0
 34 29  2  0
 34 33  1  0
 35 34  1  0
 37 38  1  0
 38 41  1  0
 38 40  1  0
 39 37  2  0
 42 17  1  0
 42 43  1  0
 44 42  1  0
 46 45  1  6
 46 47  1  0
 46 48  1  0
 50 53  2  0
 51 52  1  0
 52 50  1  0
 52 49  1  0
 54 55  1  0
 54 50  1  0
 56 67  2  0
 57 55  1  0
 57 62  1  0
 58 66  1  0
 58 68  1  0
 59 65  1  0
 59 61  1  0
 60 66  1  0
 61 62  2  0
 61 60  1  0
 63 57  2  0
 64 63  1  0
 64 59  2  0
 65 58  1  0
 66 56  1  0
 68 70  2  0
 69 68  1  0
 71 69  1  0
 72 81  2  0
 72 77  1  0
 73 69  1  0
 73 77  1  0
 74 73  1  0
 75 76  1  0
 75 74  1  0
 76 72  1  0
 77 78  2  0
 78 79  1  0
 80 79  2  0
 81 80  1  0
 82 56  1  0
 82 87  1  0
 82 83  1  0
 83 86  1  1
 83 84  1  0
 85 83  1  0
 87 90  1  0
 88 92  1  0
 88 87  1  0
 89 88  2  0
 92 91  1  0
 94 92  1  0
 94 95  1  0
 94 93  1  0
M  ISO  4   7 100  15 100  54 101  55 101
M  END
>  <TORSDO>  (60) 
F 20

>  <SCORE>  (60) 
-14.157

>  <name>  (60) 
59

>  <ligand_id>  (60) 
59

>  <original_smiles>  (60) 
[H]c1c([H])c([H])c2c(c1[H])C([H])([H])C([H])([H])C([H])([H])C2([H])N([H])C(=O)C1([H])N(C(=O)C([H])(N([H])C(=O)C([H])(N([H])C([H])([H])[H])C([H])([H])[H])C(C([H])([H])[H])(C([H])([H])[H])C([H])([H])[H])C([H])([H])c2c([H])c(OC([H])([H])C(=O)N(C([H])([H])[H])C([H])([H])c3c([H])c([H])c(N([H])C(=O)N4C([H])([H])C([H])([H])C([H])([H])C([H])(n5nc(-c6c([H])c([H])c(Oc7c([H])c([H])c(F)c([H])c7F)c([H])c6[H])c(C(=O)N([H])[H])c5N([H])[H])C4([H])[H])c([H])c3C(F)(F)C([H])([H])[H])c([H])c([H])c2C1([H])[H]

>  <smiles>  (60) 
[H]c1c([H])c([H])c2c(c1[H])C([H])([H])C([H])([H])C([H])([H])C2([H])N([H])C(=O)C1([H])N(C(=O)C([H])(N([H])C(=O)C([H])(N([H])C([H])([H])[H])C([H])([H])[H])C(C([H])([H])[H])(C([H])([H])[H])C([H])([H])[H])C([H])([H])c2c([H])c(OC([H])([H])C(=O)N(C([H])([H])[H])C([H])([H])c3c([H])c([H])c(N([H])C(=O)N4C([H])([H])C([H])([H])C([H])([H])C([H])(n5nc(-c6c([H])c([H])c(Oc7c([H])c([H])c(F)c([H])c7F)c([H])c6[H])c(C(=O)N([H])[H])c5N([H])[H])C4([H])[H])c([H])c3C(F)(F)C([H])([H])[H])c([H])c([H])c2C1([H])[H]

$$$$
60:0:0
     RDKit          3D

 94103  0  0  1  0  0  0  0  0999 V2000
  -28.1510  -23.9160   20.1090 C   0  0  0  0  0  0  0  0  0  0  0  0
  -29.8920  -23.8260   22.4000 C   0  0  0  0  0  2  0  0  0  0  0  0
  -29.6250  -25.2260   21.8130 C   0  0  0  0  0  2  0  0  0  0  0  0
  -30.0220  -22.7800   21.2820 C   0  0  0  0  0  2  0  0  0  0  0  0
  -28.3830  -25.2910   20.8990 C   0  0  0  0  0  3  0  0  0  0  0  0
  -28.8320  -22.7410   20.4280 N   0  0  0  0  0  0  0  0  0  0  0  0
  -27.2610  -23.8990   19.2560 O   0  0  0  0  0  0  0  0  0  0  0  0
  -28.4580  -26.5550   20.1010 O   0  0  0  0  0  0  0  0  0  0  0  0
  -24.4860  -31.7440   23.1700 C   0  0  0  0  0  0  0  0  0  0  0  0
  -27.3290  -27.3850   20.0630 C   0  0  0  0  0  0  0  0  0  0  0  0
  -23.3670  -30.3270   21.4820 C   0  0  0  0  0  3  0  0  0  0  0  0
  -24.9090  -28.8910   20.0310 C   0  0  0  0  0  0  0  0  0  0  0  0
  -25.8900  -30.7750   21.3350 C   0  0  0  0  0  2  0  0  0  0  0  0
  -26.0420  -29.4220   20.6560 C   0  0  0  0  0  0  0  0  0  0  0  0
  -27.2620  -28.6780   20.6620 C   0  0  0  0  0  3  0  0  0  0  0  0
  -26.1810  -26.9150   19.3950 C   0  0  0  0  0  3  0  0  0  0  0  0
  -24.9810  -27.6490   19.3850 C   0  0  0  0  0  3  0  0  0  0  0  0
  -23.6280  -29.6990   20.0890 C   0  0  0  0  0  2  0  0  0  0  0  0
  -24.5980  -30.9670   22.0540 N   0  0  0  0  0  0  0  0  0  0  0  0
  -23.3870  -31.9530   23.7040 O   0  0  0  0  0  0  0  0  0  0  0  0
  -22.7520  -29.2520   22.4080 C   0  0  0  0  0  0  0  0  0  0  0  0
  -21.4380  -29.0120   22.2690 N   0  0  0  0  0  0  0  0  0  0  0  0
  -23.4550  -28.6360   23.2150 O   0  0  0  0  0  0  0  0  0  0  0  0
  -20.9230  -29.5670   21.5990 H   0  0  0  0  0  0  0  0  0  0  0  0
  -18.1340  -27.6070   22.6940 C   0  0  0  0  0  0  0  0  0  0  0  0
  -20.6660  -28.0120   23.0080 C   0  0  0  0  0  3  0  0  0  0  0  0
  -20.8590  -26.5980   22.4140 C   0  0  0  0  0  2  0  0  0  0  0  0
  -19.7970  -26.2310   21.3730 C   0  0  0  0  0  2  0  0  0  0  0  0
  -18.3990  -26.2850   21.9950 C   0  0  0  0  0  2  0  0  0  0  0  0
  -19.1980  -28.4250   23.1550 C   0  0  0  0  0  0  0  0  0  0  0  0
  -18.9000  -29.6600   23.7700 C   0  0  0  0  0  3  0  0  0  0  0  0
  -17.5660  -30.0860   23.9230 C   0  0  0  0  0  3  0  0  0  0  0  0
  -16.5140  -29.2660   23.4760 C   0  0  0  0  0  3  0  0  0  0  0  0
  -16.7980  -28.0270   22.8720 C   0  0  0  0  0  3  0  0  0  0  0  0
  -25.7330  -32.4190   23.8220 C   0  0  0  0  0  3  0  0  0  0  0  0
  -25.3590  -33.7980   24.1700 N   0  0  0  0  0  0  0  0  0  0  0  0
  -25.6480  -34.8750   23.4290 C   0  0  0  0  0  0  0  0  0  0  0  0
  -26.3260  -34.8150   22.4000 O   0  0  0  0  0  0  0  0  0  0  0  0
  -24.7640  -33.9240   24.9750 H   0  0  0  0  0  0  0  0  0  0  0  0
  -23.8400  -36.5910   23.0900 C   0  0  0  0  0  1  0  0  0  0  0  0
  -25.0960  -36.2340   23.9010 C   0  0  0  0  0  3  0  0  0  0  0  0
  -27.1830  -37.2050   24.7500 C   0  0  0  0  0  1  0  0  0  0  0  0
  -26.0780  -37.3350   23.8050 N   0  0  0  0  0  0  0  0  0  0  0  0
  -25.6310  -38.2340   23.9690 H   0  0  0  0  0  0  0  0  0  0  0  0
  -26.2730  -31.6520   25.0920 C   0  0  1  0  0  0  0  0  0  0  0  0
  -25.1820  -31.3510   26.1420 C   0  0  0  0  0  1  0  0  0  0  0  0
  -26.9270  -30.3100   24.6890 C   0  0  0  0  0  1  0  0  0  0  0  0
  -27.3810  -32.4880   25.7790 C   0  0  0  0  0  1  0  0  0  0  0  0
  -28.4800  -21.4010   19.8020 C   0  0  0  0  0  2  0  0  0  0  0  0
  -29.2370  -19.0330   19.0150 C   0  0  0  0  0  3  0  0  0  0  0  0
  -29.6680  -17.6830   19.1920 C   0  0  0  0  0  3  0  0  0  0  0  0
  -30.0000  -18.1250   21.5310 C   0  0  0  0  0  3  0  0  0  0  0  0
  -29.1710  -19.9880   20.0720 C   0  0  0  0  0  0  0  0  0  0  0  0
  -30.0490  -17.1730   20.4570 C   0  0  0  0  0  0  0  0  0  0  0  0
  -29.5700  -19.4870   21.3510 C   0  0  0  0  0  0  0  0  0  0  0  0
  -29.5020  -20.3030   22.4350 F   0  0  0  0  0  0  0  0  0  0  0  0
  -30.8740  -14.7720   19.8540 C   0  0  0  0  0  0  0  0  0  0  0  0
  -30.5450  -12.5290   18.7860 C   0  0  0  0  0  2  0  0  0  0  0  0
  -29.5120  -12.6450   17.6430 C   0  0  0  0  0  2  0  0  0  0  0  0
  -28.0800  -12.4950   18.1870 C   0  0  0  0  0  2  0  0  0  0  0  0
  -27.8280  -13.3770   19.4380 C   0  0  0  0  0  3  0  0  0  0  0  0
  -28.9630  -13.2270   20.4780 C   0  0  0  0  0  2  0  0  0  0  0  0
  -30.2400  -13.5500   19.8190 N   0  0  0  0  0  0  0  0  0  0  0  0
  -31.8920  -14.9650   19.1770 O   0  0  0  0  0  0  0  0  0  0  0  0
  -30.3690  -15.7470   20.6840 N   0  0  0  0  0  0  0  0  0  0  0  0
  -29.9920  -15.3660   21.5410 H   0  0  0  0  0  0  0  0  0  0  0  0
  -25.5290  -14.0090   20.3980 C   0  0  0  0  0  0  0  0  0  0  0  0
  -24.4730  -13.2510   20.8320 C   0  0  0  0  0  0  0  0  0  0  0  0
  -24.8790  -11.8890   20.6850 C   0  0  0  0  0  0  0  0  0  0  0  0
  -26.5160  -13.1110   20.0250 N   0  0  0  0  0  0  0  0  0  0  0  0
  -26.1340  -11.8270   20.2520 N   0  0  0  0  0  0  0  0  0  0  0  0
  -24.1250  -10.6430   20.8820 C   0  0  0  0  0  0  0  0  0  0  0  0
  -24.5300   -9.6720   21.8220 C   0  0  0  0  0  3  0  0  0  0  0  0
  -23.7760   -8.4920   22.0020 C   0  0  0  0  0  3  0  0  0  0  0  0
  -22.6040   -8.2750   21.2420 C   0  0  0  0  0  0  0  0  0  0  0  0
  -22.2160   -9.2360   20.2890 C   0  0  0  0  0  3  0  0  0  0  0  0
  -22.9700  -10.4070   20.1080 C   0  0  0  0  0  3  0  0  0  0  0  0
  -21.8220   -7.1480   21.3320 O   0  0  0  0  0  0  0  0  0  0  0  0
  -21.6510   -6.4850   22.5210 C   0  0  0  0  0  0  0  0  0  0  0  0
  -21.1130   -7.1240   23.6590 C   0  0  0  0  0  3  0  0  0  0  0  0
  -20.8880   -6.3870   24.8410 C   0  0  0  0  0  3  0  0  0  0  0  0
  -21.1910   -5.0120   24.8820 C   0  0  0  0  0  0  0  0  0  0  0  0
  -21.7270   -4.3760   23.7500 C   0  0  0  0  0  3  0  0  0  0  0  0
  -21.9530   -5.1090   22.5700 C   0  0  0  0  0  0  0  0  0  0  0  0
  -22.4450   -4.4850   21.4730 F   0  0  0  0  0  0  0  0  0  0  0  0
  -20.9730   -4.3020   26.0140 F   0  0  0  0  0  0  0  0  0  0  0  0
  -23.1310  -13.7600   21.2700 C   0  0  0  0  0  0  0  0  0  0  0  0
  -22.4790  -13.0600   22.1920 N   0  0  0  0  0  0  0  0  0  0  0  0
  -22.6710  -14.8120   20.8310 O   0  0  0  0  0  0  0  0  0  0  0  0
  -22.8650  -12.2080   22.5700 H   0  0  0  0  0  0  0  0  0  0  0  0
  -21.5830  -13.3860   22.5290 H   0  0  0  0  0  0  0  0  0  0  0  0
  -25.7240  -15.3810   20.2740 N   0  0  0  0  0  0  0  0  0  0  0  0
  -24.9840  -16.0500   20.4600 H   0  0  0  0  0  0  0  0  0  0  0  0
  -26.5610  -15.8110   19.8990 H   0  0  0  0  0  0  0  0  0  0  0  0
  1  6  1  0
  1  5  1  0
  3  2  1  0
  4  2  1  0
  5  8  1  0
  5  3  1  0
  6  4  1  0
  7  1  2  0
  9 20  2  0
 10  8  1  0
 10 15  1  0
 11 19  1  0
 11 21  1  0
 12 18  1  0
 12 14  1  0
 13 19  1  0
 14 15  2  0
 14 13  1  0
 16 10  2  0
 17 16  1  0
 17 12  2  0
 18 11  1  0
 19  9  1  0
 21 23  2  0
 22 21  1  0
 24 22  1  0
 25 34  2  0
 25 30  1  0
 26 22  1  0
 26 30  1  0
 27 26  1  0
 28 29  1  0
 28 27  1  0
 29 25  1  0
 30 31  2  0
 31 32  1  0
 33 32  2  0
 34 33  1  0
 35  9  1  0
 35 36  1  0
 35 45  1  0
 36 39  1  0
 37 41  1  0
 37 36  1  0
 38 37  2  0
 41 40  1  0
 43 41  1  0
 43 44  1  0
 43 42  1  0
 45 48  1  1
 45 46  1  0
 47 45  1  0
 49 53  1  0
 49  6  1  0
 50 51  2  0
 50 53  1  0
 51 54  1  0
 53 55  2  0
 54 65  1  0
 54 52  2  0
 55 52  1  0
 55 56  1  0
 57 65  1  0
 58 63  1  0
 59 60  1  0
 59 58  1  0
 61 60  1  0
 61 70  1  0
 61 62  1  0
 63 57  1  0
 63 62  1  0
 64 57  2  0
 65 66  1  0
 67 68  2  0
 68 87  1  0
 69 68  1  0
 69 72  1  0
 70 71  1  0
 70 67  1  0
 71 69  2  0
 72 73  1  0
 73 74  2  0
 75 78  1  0
 75 74  1  0
 76 75  2  0
 77 76  1  0
 77 72  2  0
 78 79  1  0
 79 84  2  0
 79 80  1  0
 80 81  2  0
 81 82  1  0
 82 86  1  0
 83 82  2  0
 84 83  1  0
 85 84  1  0
 87 88  1  0
 88 91  1  0
 88 90  1  0
 89 87  2  0
 92 67  1  0
 92 93  1  0
 94 92  1  0
M  ISO  4   5 101   8 101  57 100  65 100
M  END
>  <TORSDO>  (61) 
F 18

>  <SCORE>  (61) 
-13.450

>  <name>  (61) 
60

>  <ligand_id>  (61) 
60

>  <original_smiles>  (61) 
[H]c1c([H])c([H])c2c(c1[H])C([H])([H])C([H])([H])C([H])([H])C2([H])N([H])C(=O)C1([H])N(C(=O)C([H])(N([H])C(=O)C([H])(N([H])C([H])([H])[H])C([H])([H])[H])C(C([H])([H])[H])(C([H])([H])[H])C([H])([H])[H])C([H])([H])c2c([H])c(OC3([H])C(=O)N(C([H])([H])c4c([H])c([H])c(N([H])C(=O)N5C([H])([H])C([H])([H])C([H])([H])C([H])(n6nc(-c7c([H])c([H])c(Oc8c([H])c([H])c(F)c([H])c8F)c([H])c7[H])c(C(=O)N([H])[H])c6N([H])[H])C5([H])[H])c([H])c4F)C([H])([H])C([H])([H])C3([H])[H])c([H])c([H])c2C1([H])[H]

>  <smiles>  (61) 
[H]c1c([H])c([H])c2c(c1[H])C([H])([H])C([H])([H])C([H])([H])C2([H])N([H])C(=O)C1([H])N(C(=O)C([H])(N([H])C(=O)C([H])(N([H])C([H])([H])[H])C([H])([H])[H])C(C([H])([H])[H])(C([H])([H])[H])C([H])([H])[H])C([H])([H])c2c([H])c(OC3([H])C(=O)N(C([H])([H])c4c([H])c([H])c(N([H])C(=O)N5C([H])([H])C([H])([H])C([H])([H])C([H])(n6nc(-c7c([H])c([H])c(Oc8c([H])c([H])c(F)c([H])c8F)c([H])c7[H])c(C(=O)N([H])[H])c6N([H])[H])C5([H])[H])c([H])c4F)C([H])([H])C([H])([H])C3([H])[H])c([H])c([H])c2C1([H])[H]

$$$$
61:0:0
     RDKit          3D

 96105  0  0  1  0  0  0  0  0999 V2000
  -30.2180  -23.2620   20.3600 C   0  0  0  0  0  0  0  0  0  0  0  0
  -31.3150  -22.7230   20.9210 C   0  0  0  0  0  2  0  0  0  0  0  0
  -30.0980  -24.7490   19.9690 C   0  0  0  0  0  2  0  0  0  0  0  0
  -27.7250  -24.5460   20.7030 C   0  0  0  0  0  2  0  0  0  0  0  0
  -27.6630  -23.0830   20.2330 C   0  0  0  0  0  2  0  0  0  0  0  0
  -28.6780  -25.3210   19.7850 C   0  0  0  0  0  3  0  0  0  0  0  0
  -28.9900  -22.4020   20.1640 N   0  0  1  0  0  4  0  0  0  0  0  0
  -28.9660  -21.8000   20.9740 H   0  0  0  0  0  0  0  0  0  0  0  0
  -28.6690  -26.7370   20.0710 O   0  0  0  0  0  0  0  0  0  0  0  0
  -24.5690  -31.7180   23.0980 C   0  0  0  0  0  0  0  0  0  0  0  0
  -27.4670  -27.4280   20.0160 C   0  0  0  0  0  0  0  0  0  0  0  0
  -23.4720  -30.3260   21.3730 C   0  0  0  0  0  3  0  0  0  0  0  0
  -25.0270  -28.8700   19.9720 C   0  0  0  0  0  0  0  0  0  0  0  0
  -25.9930  -30.7620   21.2860 C   0  0  0  0  0  2  0  0  0  0  0  0
  -26.1450  -29.4110   20.6150 C   0  0  0  0  0  0  0  0  0  0  0  0
  -27.3690  -28.6990   20.6310 C   0  0  0  0  0  3  0  0  0  0  0  0
  -26.3260  -26.9100   19.3600 C   0  0  0  0  0  3  0  0  0  0  0  0
  -25.1120  -27.6200   19.3410 C   0  0  0  0  0  3  0  0  0  0  0  0
  -23.7560  -29.6900   19.9870 C   0  0  0  0  0  2  0  0  0  0  0  0
  -24.6940  -30.9500   21.9780 N   0  0  0  0  0  0  0  0  0  0  0  0
  -23.4590  -31.9450   23.6000 O   0  0  0  0  0  0  0  0  0  0  0  0
  -22.8140  -29.2610   22.2810 C   0  0  0  0  0  0  0  0  0  0  0  0
  -21.4890  -29.0950   22.1460 N   0  0  0  0  0  0  0  0  0  0  0  0
  -23.4950  -28.5880   23.0600 O   0  0  0  0  0  0  0  0  0  0  0  0
  -21.0010  -29.6910   21.4910 H   0  0  0  0  0  0  0  0  0  0  0  0
  -18.0960  -27.9590   22.6450 C   0  0  0  0  0  0  0  0  0  0  0  0
  -20.6660  -28.1250   22.8670 C   0  0  0  0  0  3  0  0  0  0  0  0
  -20.7120  -26.7390   22.1800 C   0  0  0  0  0  2  0  0  0  0  0  0
  -19.5770  -26.5250   21.1760 C   0  0  0  0  0  2  0  0  0  0  0  0
  -18.2160  -26.6600   21.8670 C   0  0  0  0  0  2  0  0  0  0  0  0
  -19.2470  -28.6550   23.1010 C   0  0  0  0  0  0  0  0  0  0  0  0
  -19.0820  -29.8770   23.7890 C   0  0  0  0  0  3  0  0  0  0  0  0
  -17.7980  -30.4020   24.0260 C   0  0  0  0  0  3  0  0  0  0  0  0
  -16.6620  -29.7010   23.5870 C   0  0  0  0  0  3  0  0  0  0  0  0
  -16.8110  -28.4810   22.9030 C   0  0  0  0  0  3  0  0  0  0  0  0
  -25.8110  -32.3700   23.7840 C   0  0  0  0  0  3  0  0  0  0  0  0
  -26.2940  -31.5870   25.0660 C   0  0  1  0  0  0  0  0  0  0  0  0
  -25.1650  -31.3020   26.0830 C   0  0  0  0  0  1  0  0  0  0  0  0
  -26.9240  -30.2310   24.6700 C   0  0  0  0  0  1  0  0  0  0  0  0
  -27.3970  -32.3930   25.7910 C   0  0  0  0  0  1  0  0  0  0  0  0
  -25.4540  -33.7550   24.1230 N   0  0  0  0  0  0  0  0  0  0  0  0
  -25.7960  -34.8270   23.3960 C   0  0  0  0  0  0  0  0  0  0  0  0
  -26.5160  -34.7570   22.3970 O   0  0  0  0  0  0  0  0  0  0  0  0
  -24.8220  -33.8830   24.9000 H   0  0  0  0  0  0  0  0  0  0  0  0
  -24.0350  -36.5750   22.9950 C   0  0  0  0  0  1  0  0  0  0  0  0
  -25.2530  -36.1950   23.8510 C   0  0  0  0  0  3  0  0  0  0  0  0
  -27.3320  -37.1190   24.7740 C   0  0  0  0  0  1  0  0  0  0  0  0
  -26.2600  -37.2770   23.7950 N   0  0  0  0  0  0  0  0  0  0  0  0
  -25.8240  -38.1820   23.9440 H   0  0  0  0  0  0  0  0  0  0  0  0
  -29.1060  -21.4230   19.0370 C   0  0  0  0  0  2  0  0  0  0  0  0
  -28.2190  -17.2300   19.9330 C   0  0  0  0  0  3  0  0  0  0  0  0
  -27.2220  -18.0590   19.3890 C   0  0  0  0  0  3  0  0  0  0  0  0
  -29.7570  -19.1200   19.9480 C   0  0  0  0  0  3  0  0  0  0  0  0
  -29.5050  -17.7460   20.1970 C   0  0  0  0  0  0  0  0  0  0  0  0
  -28.7600  -19.9670   19.3950 C   0  0  0  0  0  0  0  0  0  0  0  0
  -27.4880  -19.4110   19.0980 C   0  0  0  0  0  0  0  0  0  0  0  0
  -26.2410  -20.3410   18.3490 Cl  0  0  0  0  0  0  0  0  0  0  0  0
  -30.6080  -16.8330   20.7450 C   0  0  0  0  0  2  0  0  0  0  0  0
  -30.8930  -14.3930   20.2210 C   0  0  0  0  0  0  0  0  0  0  0  0
  -30.6220  -12.0900   19.3690 C   0  0  0  0  0  2  0  0  0  0  0  0
  -29.6670  -12.0840   18.1580 C   0  0  0  0  0  2  0  0  0  0  0  0
  -28.1980  -11.9930   18.6120 C   0  0  0  0  0  2  0  0  0  0  0  0
  -27.8530  -13.0230   19.7200 C   0  0  0  0  0  3  0  0  0  0  0  0
  -28.9070  -12.9730   20.8500 C   0  0  0  0  0  2  0  0  0  0  0  0
  -30.2330  -13.2060   20.2460 N   0  0  0  0  0  0  0  0  0  0  0  0
  -31.9760  -14.5520   19.6490 O   0  0  0  0  0  0  0  0  0  0  0  0
  -30.2330  -15.4160   20.7840 N   0  0  0  0  0  0  0  0  0  0  0  0
  -29.3510  -15.1850   21.2120 H   0  0  0  0  0  0  0  0  0  0  0  0
  -25.5060  -13.7560   20.4850 C   0  0  0  0  0  0  0  0  0  0  0  0
  -24.4060  -13.0400   20.8760 C   0  0  0  0  0  0  0  0  0  0  0  0
  -24.7930  -11.6650   20.8260 C   0  0  0  0  0  0  0  0  0  0  0  0
  -26.4980  -12.8220   20.2290 N   0  0  0  0  0  0  0  0  0  0  0  0
  -26.0720  -11.5590   20.4870 N   0  0  0  0  0  0  0  0  0  0  0  0
  -24.0070  -10.4420   21.0270 C   0  0  0  0  0  0  0  0  0  0  0  0
  -24.4110   -9.4480   21.9450 C   0  0  0  0  0  3  0  0  0  0  0  0
  -23.6280   -8.2870   22.1330 C   0  0  0  0  0  3  0  0  0  0  0  0
  -22.4280   -8.1150   21.4040 C   0  0  0  0  0  0  0  0  0  0  0  0
  -22.0430   -9.0970   20.4750 C   0  0  0  0  0  3  0  0  0  0  0  0
  -22.8250  -10.2480   20.2830 C   0  0  0  0  0  3  0  0  0  0  0  0
  -21.6180   -7.0100   21.5040 O   0  0  0  0  0  0  0  0  0  0  0  0
  -21.5590   -6.2640   22.6530 C   0  0  0  0  0  0  0  0  0  0  0  0
  -21.1950   -6.8320   23.8940 C   0  0  0  0  0  3  0  0  0  0  0  0
  -21.0760   -6.0140   25.0340 C   0  0  0  0  0  3  0  0  0  0  0  0
  -21.3150   -4.6300   24.9370 C   0  0  0  0  0  0  0  0  0  0  0  0
  -21.6740   -4.0620   23.7020 C   0  0  0  0  0  3  0  0  0  0  0  0
  -21.7910   -4.8760   22.5630 C   0  0  0  0  0  0  0  0  0  0  0  0
  -22.1160   -4.3210   21.3700 F   0  0  0  0  0  0  0  0  0  0  0  0
  -21.1940   -3.8430   26.0320 F   0  0  0  0  0  0  0  0  0  0  0  0
  -23.0430  -13.5880   21.1870 C   0  0  0  0  0  0  0  0  0  0  0  0
  -22.2990  -12.9230   22.0660 N   0  0  0  0  0  0  0  0  0  0  0  0
  -22.6450  -14.6370   20.6830 O   0  0  0  0  0  0  0  0  0  0  0  0
  -22.6280  -12.0690   22.4910 H   0  0  0  0  0  0  0  0  0  0  0  0
  -21.3840  -13.2720   22.3120 H   0  0  0  0  0  0  0  0  0  0  0  0
  -25.7400  -15.1160   20.3080 N   0  0  0  0  0  0  0  0  0  0  0  0
  -25.0140  -15.8100   20.4380 H   0  0  0  0  0  0  0  0  0  0  0  0
  -26.6070  -15.5100   19.9640 H   0  0  0  0  0  0  0  0  0  0  0  0
  1  2  2  0
  3  1  1  0
  5  4  1  0
  6  3  1  0
  6  9  1  0
  6  4  1  0
  7  5  1  0
  7  1  1  0
  7  8  1  1
 10 21  2  0
 11  9  1  0
 11 16  1  0
 12 20  1  0
 12 22  1  0
 13 19  1  0
 13 15  1  0
 14 20  1  0
 15 16  2  0
 15 14  1  0
 17 11  2  0
 18 17  1  0
 18 13  2  0
 19 12  1  0
 20 10  1  0
 22 24  2  0
 23 22  1  0
 25 23  1  0
 26 35  2  0
 26 31  1  0
 27 23  1  0
 27 31  1  0
 28 27  1  0
 29 30  1  0
 29 28  1  0
 30 26  1  0
 31 32  2  0
 32 33  1  0
 34 33  2  0
 35 34  1  0
 36 10  1  0
 36 41  1  0
 36 37  1  0
 37 40  1  1
 37 38  1  0
 39 37  1  0
 41 44  1  0
 42 46  1  0
 42 41  1  0
 43 42  2  0
 46 45  1  0
 48 46  1  0
 48 49  1  0
 48 47  1  0
 50 55  1  0
 50  7  1  0
 51 54  1  0
 52 51  2  0
 53 54  2  0
 54 58  1  0
 55 53  1  0
 56 52  1  0
 56 55  2  0
 57 56  1  0
 58 67  1  0
 59 65  1  0
 59 67  1  0
 60 65  1  0
 61 62  1  0
 61 60  1  0
 63 62  1  0
 63 72  1  0
 63 64  1  0
 65 64  1  0
 66 59  2  0
 67 68  1  0
 69 70  2  0
 70 89  1  0
 71 70  1  0
 71 74  1  0
 72 69  1  0
 72 73  1  0
 73 71  2  0
 74 75  1  0
 75 76  2  0
 77 80  1  0
 77 76  1  0
 78 77  2  0
 79 78  1  0
 79 74  2  0
 80 81  1  0
 81 82  1  0
 82 83  2  0
 84 83  1  0
 84 88  1  0
 85 84  2  0
 86 81  2  0
 86 85  1  0
 87 86  1  0
 89 90  1  0
 90 93  1  0
 90 92  1  0
 91 89  2  0
 94 95  1  0
 94 69  1  0
 96 94  1  0
M  ISO  4   6 101   9 101  59 100  67 100
M  END
>  <TORSDO>  (62) 
F 19

>  <SCORE>  (62) 
-14.350

>  <name>  (62) 
61

>  <ligand_id>  (62) 
61

>  <original_smiles>  (62) 
[H]C([H])=C1C([H])([H])C([H])(Oc2c([H])c([H])c3c(c2[H])C([H])([H])N(C(=O)C([H])(N([H])C(=O)C([H])(N([H])C([H])([H])[H])C([H])([H])[H])C(C([H])([H])[H])(C([H])([H])[H])C([H])([H])[H])C([H])(C(=O)N([H])C2([H])c4c([H])c([H])c([H])c([H])c4C([H])([H])C([H])([H])C2([H])[H])C3([H])[H])C([H])([H])C([H])([H])[N+]1([H])C([H])([H])c1c([H])c(C([H])([H])N([H])C(=O)N2C([H])([H])C([H])([H])C([H])([H])C([H])(n3nc(-c4c([H])c([H])c(Oc5c([H])c([H])c(F)c([H])c5F)c([H])c4[H])c(C(=O)N([H])[H])c3N([H])[H])C2([H])[H])c([H])c([H])c1Cl

>  <smiles>  (62) 
[H]C([H])=C1C([H])([H])C([H])(Oc2c([H])c([H])c3c(c2[H])C([H])([H])N(C(=O)C([H])(N([H])C(=O)C([H])(N([H])C([H])([H])[H])C([H])([H])[H])C(C([H])([H])[H])(C([H])([H])[H])C([H])([H])[H])C([H])(C(=O)N([H])C2([H])c4c([H])c([H])c([H])c([H])c4C([H])([H])C([H])([H])C2([H])[H])C3([H])[H])C([H])([H])C([H])([H])[N+]1([H])C([H])([H])c1c([H])c(C([H])([H])N([H])C(=O)N2C([H])([H])C([H])([H])C([H])([H])C([H])(n3nc(-c4c([H])c([H])c(Oc5c([H])c([H])c(F)c([H])c5F)c([H])c4[H])c(C(=O)N([H])[H])c3N([H])[H])C2([H])[H])c([H])c([H])c1Cl

$$$$
62:0:0
     RDKit          3D

 98107  0  0  1  0  0  0  0  0999 V2000
  -28.6490  -24.1430   19.7530 C   0  0  0  0  0  0  0  0  0  0  0  0
  -28.7630  -24.4140   18.4350 C   0  0  0  0  0  3  0  0  0  0  0  0
  -30.0020  -23.8000   22.3340 C   0  0  0  0  0  2  0  0  0  0  0  0
  -29.6520  -25.2100   21.8060 C   0  0  0  0  0  2  0  0  0  0  0  0
  -30.1600  -22.7590   21.2040 C   0  0  0  0  0  2  0  0  0  0  0  0
  -28.4520  -25.2640   20.8270 C   0  0  0  0  0  3  0  0  0  0  0  0
  -28.9140  -22.7600   20.4190 N   0  0  2  0  0  4  0  0  0  0  0  0
  -28.2580  -22.7520   21.1860 H   0  0  0  0  0  0  0  0  0  0  0  0
  -29.1690  -23.8060   16.0960 C   0  0  0  0  0  2  0  0  0  0  0  0
  -29.2350  -23.5150   17.4040 C   0  0  0  0  0  3  0  0  0  0  0  0
  -28.4810  -26.6590   20.3510 O   0  0  0  0  0  0  0  0  0  0  0  0
  -24.5780  -31.9460   23.3200 C   0  0  0  0  0  0  0  0  0  0  0  0
  -27.3180  -27.4280   20.3640 C   0  0  0  0  0  0  0  0  0  0  0  0
  -23.4280  -30.5210   21.6620 C   0  0  0  0  0  3  0  0  0  0  0  0
  -24.9280  -28.9740   20.2880 C   0  0  0  0  0  0  0  0  0  0  0  0
  -25.9610  -30.8810   21.5270 C   0  0  0  0  0  2  0  0  0  0  0  0
  -26.0740  -29.4980   20.9000 C   0  0  0  0  0  0  0  0  0  0  0  0
  -27.2750  -28.7380   20.9220 C   0  0  0  0  0  3  0  0  0  0  0  0
  -26.1520  -26.9340   19.7470 C   0  0  0  0  0  3  0  0  0  0  0  0
  -24.9660  -27.6940   19.7050 C   0  0  0  0  0  3  0  0  0  0  0  0
  -23.6800  -29.8330   20.2940 C   0  0  0  0  0  2  0  0  0  0  0  0
  -24.6730  -31.1340   22.2280 N   0  0  0  0  0  0  0  0  0  0  0  0
  -23.4810  -32.2130   23.8290 O   0  0  0  0  0  0  0  0  0  0  0  0
  -22.7570  -29.5040   22.6150 C   0  0  0  0  0  0  0  0  0  0  0  0
  -21.4350  -29.3170   22.4640 N   0  0  0  0  0  0  0  0  0  0  0  0
  -23.4250  -28.8860   23.4470 O   0  0  0  0  0  0  0  0  0  0  0  0
  -20.9550  -29.8680   21.7660 H   0  0  0  0  0  0  0  0  0  0  0  0
  -18.0520  -28.1310   22.9290 C   0  0  0  0  0  0  0  0  0  0  0  0
  -20.6080  -28.3770   23.2230 C   0  0  0  0  0  3  0  0  0  0  0  0
  -20.7100  -26.9500   22.6370 C   0  0  0  0  0  2  0  0  0  0  0  0
  -19.6150  -26.6400   21.6120 C   0  0  0  0  0  2  0  0  0  0  0  0
  -18.2280  -26.7860   22.2460 C   0  0  0  0  0  2  0  0  0  0  0  0
  -19.1700  -28.8860   23.3730 C   0  0  0  0  0  0  0  0  0  0  0  0
  -18.9510  -30.1460   23.9710 C   0  0  0  0  0  3  0  0  0  0  0  0
  -17.6470  -30.6510   24.1310 C   0  0  0  0  0  3  0  0  0  0  0  0
  -16.5430  -29.8940   23.7020 C   0  0  0  0  0  3  0  0  0  0  0  0
  -16.7460  -28.6360   23.1070 C   0  0  0  0  0  3  0  0  0  0  0  0
  -25.8400  -32.5960   23.9670 C   0  0  0  0  0  3  0  0  0  0  0  0
  -26.3160  -31.8580   25.2780 C   0  0  1  0  0  0  0  0  0  0  0  0
  -25.1860  -31.6310   26.3090 C   0  0  0  0  0  1  0  0  0  0  0  0
  -26.9280  -30.4790   24.9370 C   0  0  0  0  0  1  0  0  0  0  0  0
  -27.4320  -32.6790   25.9660 C   0  0  0  0  0  1  0  0  0  0  0  0
  -25.5180  -34.0010   24.2540 N   0  0  0  0  0  0  0  0  0  0  0  0
  -25.8620  -35.0360   23.4760 C   0  0  0  0  0  0  0  0  0  0  0  0
  -26.5550  -34.9080   22.4620 O   0  0  0  0  0  0  0  0  0  0  0  0
  -24.9040  -34.1730   25.0370 H   0  0  0  0  0  0  0  0  0  0  0  0
  -24.1300  -36.8080   23.0460 C   0  0  0  0  0  1  0  0  0  0  0  0
  -25.3610  -36.4340   23.8870 C   0  0  0  0  0  3  0  0  0  0  0  0
  -27.4720  -37.3610   24.7330 C   0  0  0  0  0  1  0  0  0  0  0  0
  -26.3880  -37.4890   23.7610 N   0  0  0  0  0  0  0  0  0  0  0  0
  -25.9740  -38.4100   23.8670 H   0  0  0  0  0  0  0  0  0  0  0  0
  -28.4370  -21.4430   19.8090 C   0  0  0  0  0  2  0  0  0  0  0  0
  -29.3370  -19.4270   21.1920 C   0  0  0  0  0  3  0  0  0  0  0  0
  -29.7250  -18.0690   21.3480 C   0  0  0  0  0  3  0  0  0  0  0  0
  -29.1890  -20.0390   19.9200 C   0  0  0  0  0  0  0  0  0  0  0  0
  -29.5240  -19.2030   18.7960 C   0  0  0  0  0  0  0  0  0  0  0  0
  -29.9890  -17.8410   18.9630 C   0  0  0  0  0  0  0  0  0  0  0  0
  -30.0390  -17.2270   20.2540 C   0  0  0  0  0  0  0  0  0  0  0  0
  -29.2940  -19.7170   17.3730 C   0  0  0  0  0  1  0  0  0  0  0  0
  -30.3430  -17.0060   17.7310 C   0  0  0  0  0  1  0  0  0  0  0  0
  -30.9130  -14.7650   20.0440 C   0  0  0  0  0  0  0  0  0  0  0  0
  -30.6610  -12.5360   18.9750 C   0  0  0  0  0  2  0  0  0  0  0  0
  -29.6540  -12.6890   17.8130 C   0  0  0  0  0  2  0  0  0  0  0  0
  -28.2050  -12.5300   18.3120 C   0  0  0  0  0  2  0  0  0  0  0  0
  -27.9160  -13.3730   19.5820 C   0  0  0  0  0  3  0  0  0  0  0  0
  -29.0300  -13.1870   20.6370 C   0  0  0  0  0  2  0  0  0  0  0  0
  -30.3100  -13.5350   20.0030 N   0  0  0  0  0  0  0  0  0  0  0  0
  -32.0460  -14.9400   19.5870 O   0  0  0  0  0  0  0  0  0  0  0  0
  -30.1300  -15.7860   20.5150 N   0  0  0  0  0  0  0  0  0  0  0  0
  -29.3560  -15.4320   21.0550 H   0  0  0  0  0  0  0  0  0  0  0  0
  -25.5750  -13.9800   20.4550 C   0  0  0  0  0  0  0  0  0  0  0  0
  -24.5180  -13.2090   20.8540 C   0  0  0  0  0  0  0  0  0  0  0  0
  -24.9540  -11.8530   20.7450 C   0  0  0  0  0  0  0  0  0  0  0  0
  -26.5910  -13.0930   20.1290 N   0  0  0  0  0  0  0  0  0  0  0  0
  -26.2240  -11.8070   20.3620 N   0  0  0  0  0  0  0  0  0  0  0  0
  -24.2190  -10.5940   20.9330 C   0  0  0  0  0  0  0  0  0  0  0  0
  -24.6250   -9.6360   21.8860 C   0  0  0  0  0  3  0  0  0  0  0  0
  -23.8910   -8.4440   22.0600 C   0  0  0  0  0  3  0  0  0  0  0  0
  -22.7360   -8.2010   21.2790 C   0  0  0  0  0  0  0  0  0  0  0  0
  -22.3460   -9.1490   20.3160 C   0  0  0  0  0  3  0  0  0  0  0  0
  -23.0820  -10.3330   20.1410 C   0  0  0  0  0  3  0  0  0  0  0  0
  -21.9780   -7.0590   21.3590 O   0  0  0  0  0  0  0  0  0  0  0  0
  -21.8010   -6.3920   22.5450 C   0  0  0  0  0  0  0  0  0  0  0  0
  -21.2030   -7.0110   23.6640 C   0  0  0  0  0  3  0  0  0  0  0  0
  -20.9760   -6.2690   24.8400 C   0  0  0  0  0  3  0  0  0  0  0  0
  -21.3390   -4.9090   24.8980 C   0  0  0  0  0  0  0  0  0  0  0  0
  -21.9300   -4.2900   23.7820 C   0  0  0  0  0  3  0  0  0  0  0  0
  -22.1580   -5.0290   22.6070 C   0  0  0  0  0  0  0  0  0  0  0  0
  -22.7080   -4.4230   21.5280 F   0  0  0  0  0  0  0  0  0  0  0  0
  -21.1140   -4.1950   26.0260 F   0  0  0  0  0  0  0  0  0  0  0  0
  -23.1460  -13.6980   21.2260 C   0  0  0  0  0  0  0  0  0  0  0  0
  -22.4580  -12.9840   22.1080 N   0  0  0  0  0  0  0  0  0  0  0  0
  -22.6970  -14.7480   20.7690 O   0  0  0  0  0  0  0  0  0  0  0  0
  -22.8380  -12.1350   22.5010 H   0  0  0  0  0  0  0  0  0  0  0  0
  -21.5430  -13.2960   22.3990 H   0  0  0  0  0  0  0  0  0  0  0  0
  -25.7520  -15.3540   20.3240 N   0  0  0  0  0  0  0  0  0  0  0  0
  -25.0010  -16.0120   20.5050 H   0  0  0  0  0  0  0  0  0  0  0  0
  -26.5960  -15.8010   19.9840 H   0  0  0  0  0  0  0  0  0  0  0  0
  1  7  1  0
  1  6  1  0
  2  1  2  0
  4  3  1  0
  5  3  1  0
  6 11  1  0
  6  4  1  0
  7  8  1  1
  7  5  1  0
  9 10  2  0
 10  2  1  0
 11 13  1  0
 12 23  2  0
 13 18  1  0
 14 22  1  0
 14 24  1  0
 15 21  1  0
 15 17  1  0
 16 22  1  0
 17 18  2  0
 17 16  1  0
 19 13  2  0
 20 19  1  0
 20 15  2  0
 21 14  1  0
 22 12  1  0
 24 26  2  0
 25 24  1  0
 27 25  1  0
 28 37  2  0
 28 33  1  0
 29 25  1  0
 29 33  1  0
 30 29  1  0
 31 32  1  0
 31 30  1  0
 32 28  1  0
 33 34  2  0
 34 35  1  0
 36 35  2  0
 37 36  1  0
 38 12  1  0
 38 43  1  0
 38 39  1  0
 39 42  1  1
 39 40  1  0
 41 39  1  0
 43 46  1  0
 44 48  1  0
 44 43  1  0
 45 44  2  0
 48 47  1  0
 50 51  1  0
 50 48  1  0
 50 49  1  0
 52 55  1  0
 52  7  1  0
 53 54  1  0
 55 53  2  0
 56 57  2  0
 56 55  1  0
 57 58  1  0
 58 69  1  0
 58 54  2  0
 59 56  1  0
 60 57  1  0
 61 69  1  0
 62 67  1  0
 63 64  1  0
 63 62  1  0
 65 64  1  0
 65 74  1  0
 65 66  1  0
 67 61  1  0
 67 66  1  0
 68 61  2  0
 69 70  1  0
 71 72  2  0
 72 91  1  0
 73 72  1  0
 73 76  1  0
 74 75  1  0
 74 71  1  0
 75 73  2  0
 76 77  1  0
 77 78  2  0
 79 82  1  0
 79 78  1  0
 80 79  2  0
 81 80  1  0
 81 76  2  0
 82 83  1  0
 83 88  2  0
 83 84  1  0
 84 85  2  0
 85 86  1  0
 86 90  1  0
 87 86  2  0
 88 87  1  0
 89 88  1  0
 91 92  1  0
 92 95  1  0
 92 94  1  0
 93 91  2  0
 96 71  1  0
 96 97  1  0
 98 96  1  0
M  ISO  4   6 101  11 101  61 100  69 100
M  END
>  <TORSDO>  (63) 
F 19

>  <SCORE>  (63) 
-13.304

>  <name>  (63) 
62

>  <ligand_id>  (63) 
62

>  <original_smiles>  (63) 
[H]C([H])=C([H])C([H])=C1C([H])(Oc2c([H])c([H])c3c(c2[H])C([H])([H])N(C(=O)C([H])(N([H])C(=O)C([H])(N([H])C([H])([H])[H])C([H])([H])[H])C(C([H])([H])[H])(C([H])([H])[H])C([H])([H])[H])C([H])(C(=O)N([H])C2([H])c4c([H])c([H])c([H])c([H])c4C([H])([H])C([H])([H])C2([H])[H])C3([H])[H])C([H])([H])C([H])([H])C([H])([H])[N+]1([H])C([H])([H])c1c([H])c([H])c(N([H])C(=O)N2C([H])([H])C([H])([H])C([H])([H])C([H])(n3nc(-c4c([H])c([H])c(Oc5c([H])c([H])c(F)c([H])c5F)c([H])c4[H])c(C(=O)N([H])[H])c3N([H])[H])C2([H])[H])c(C([H])([H])[H])c1C([H])([H])[H]

>  <smiles>  (63) 
[H]C([H])=C([H])C([H])=C1C([H])(Oc2c([H])c([H])c3c(c2[H])C([H])([H])N(C(=O)C([H])(N([H])C(=O)C([H])(N([H])C([H])([H])[H])C([H])([H])[H])C(C([H])([H])[H])(C([H])([H])[H])C([H])([H])[H])C([H])(C(=O)N([H])C2([H])c4c([H])c([H])c([H])c([H])c4C([H])([H])C([H])([H])C2([H])[H])C3([H])[H])C([H])([H])C([H])([H])C([H])([H])[N+]1([H])C([H])([H])c1c([H])c([H])c(N([H])C(=O)N2C([H])([H])C([H])([H])C([H])([H])C([H])(n3nc(-c4c([H])c([H])c(Oc5c([H])c([H])c(F)c([H])c5F)c([H])c4[H])c(C(=O)N([H])[H])c3N([H])[H])C2([H])[H])c(C([H])([H])[H])c1C([H])([H])[H]

$$$$
63:0:0
     RDKit          3D

 95103  0  0  1  0  0  0  0  0999 V2000
  -29.8420  -22.5620   19.9530 C   0  0  0  0  0  0  0  0  0  0  0  0
  -29.5420  -21.3700   20.4940 N   0  0  0  0  0  0  0  0  0  0  0  0
  -30.7630  -22.6970   19.1420 O   0  0  0  0  0  0  0  0  0  0  0  0
  -28.7760  -21.3250   21.1510 H   0  0  0  0  0  0  0  0  0  0  0  0
  -28.9700  -23.6400   20.4050 C   0  0  0  0  0  3  0  0  0  0  0  0
  -29.2960  -24.9330   20.1830 C   0  0  0  0  0  3  0  0  0  0  0  0
  -28.4640  -26.1390   20.6000 C   0  0  0  0  0  2  0  0  0  0  0  0
  -28.2070  -27.0100   19.4950 O   0  0  0  0  0  0  0  0  0  0  0  0
  -24.4560  -31.9110   23.0740 C   0  0  0  0  0  0  0  0  0  0  0  0
  -27.0460  -27.7360   19.6160 C   0  0  0  0  0  0  0  0  0  0  0  0
  -23.2080  -30.5990   21.3890 C   0  0  0  0  0  3  0  0  0  0  0  0
  -24.6300  -29.1810   19.8130 C   0  0  0  0  0  0  0  0  0  0  0  0
  -25.7150  -31.0160   21.1180 C   0  0  0  0  0  2  0  0  0  0  0  0
  -25.7990  -29.6880   20.3960 C   0  0  0  0  0  0  0  0  0  0  0  0
  -27.0120  -28.9710   20.3000 C   0  0  0  0  0  3  0  0  0  0  0  0
  -25.8670  -27.2390   19.0250 C   0  0  0  0  0  3  0  0  0  0  0  0
  -24.6580  -27.9530   19.1270 C   0  0  0  0  0  3  0  0  0  0  0  0
  -23.3760  -30.0140   19.9600 C   0  0  0  0  0  2  0  0  0  0  0  0
  -24.4800  -31.1870   21.9200 N   0  0  0  0  0  0  0  0  0  0  0  0
  -23.3930  -32.1270   23.6740 O   0  0  0  0  0  0  0  0  0  0  0  0
  -22.6110  -29.5060   22.3050 C   0  0  0  0  0  0  0  0  0  0  0  0
  -21.2890  -29.2920   22.2010 N   0  0  0  0  0  0  0  0  0  0  0  0
  -23.3330  -28.8560   23.0660 O   0  0  0  0  0  0  0  0  0  0  0  0
  -20.7630  -29.8780   21.5680 H   0  0  0  0  0  0  0  0  0  0  0  0
  -17.9670  -27.9590   22.6960 C   0  0  0  0  0  0  0  0  0  0  0  0
  -20.5190  -28.2860   22.9340 C   0  0  0  0  0  3  0  0  0  0  0  0
  -20.6570  -26.8920   22.2800 C   0  0  0  0  0  2  0  0  0  0  0  0
  -19.5450  -26.5840   21.2730 C   0  0  0  0  0  2  0  0  0  0  0  0
  -18.1720  -26.6520   21.9470 C   0  0  0  0  0  2  0  0  0  0  0  0
  -19.0690  -28.7330   23.1450 C   0  0  0  0  0  0  0  0  0  0  0  0
  -18.8210  -29.9570   23.8060 C   0  0  0  0  0  3  0  0  0  0  0  0
  -17.5040  -30.4050   24.0210 C   0  0  0  0  0  3  0  0  0  0  0  0
  -16.4170  -29.6280   23.5850 C   0  0  0  0  0  3  0  0  0  0  0  0
  -16.6490  -28.4050   22.9290 C   0  0  0  0  0  3  0  0  0  0  0  0
  -25.7570  -32.5260   23.6840 C   0  0  0  0  0  3  0  0  0  0  0  0
  -25.4390  -33.8900   24.1230 N   0  0  0  0  0  0  0  0  0  0  0  0
  -25.7310  -35.0010   23.4320 C   0  0  0  0  0  0  0  0  0  0  0  0
  -26.3690  -34.9840   22.3770 O   0  0  0  0  0  0  0  0  0  0  0  0
  -24.8710  -33.9770   24.9540 H   0  0  0  0  0  0  0  0  0  0  0  0
  -23.9740  -36.7900   23.2540 C   0  0  0  0  0  1  0  0  0  0  0  0
  -25.2370  -36.3430   24.0050 C   0  0  0  0  0  3  0  0  0  0  0  0
  -27.3730  -37.1970   24.8620 C   0  0  0  0  0  1  0  0  0  0  0  0
  -26.2540  -37.4150   23.9500 N   0  0  0  0  0  0  0  0  0  0  0  0
  -25.8400  -38.3160   24.1710 H   0  0  0  0  0  0  0  0  0  0  0  0
  -26.3450  -31.6780   24.8770 C   0  0  1  0  0  0  0  0  0  0  0  0
  -25.2980  -31.3070   25.9530 C   0  0  0  0  0  1  0  0  0  0  0  0
  -26.9720  -30.3660   24.3520 C   0  0  0  0  0  1  0  0  0  0  0  0
  -27.4830  -32.4650   25.5690 C   0  0  0  0  0  1  0  0  0  0  0  0
  -30.2170  -20.1080   20.1670 C   0  0  0  0  0  2  0  0  0  0  0  0
  -31.2290  -17.1830   22.5150 C   0  0  0  0  0  3  0  0  0  0  0  0
  -31.5160  -17.8840   23.6990 C   0  0  0  0  0  3  0  0  0  0  0  0
  -30.9570  -19.9730   22.5880 C   0  0  0  0  0  3  0  0  0  0  0  0
  -30.8090  -17.8650   21.3460 C   0  0  0  0  0  0  0  0  0  0  0  0
  -30.6520  -19.2840   21.3900 C   0  0  0  0  0  0  0  0  0  0  0  0
  -31.3910  -19.2830   23.7330 C   0  0  0  0  0  0  0  0  0  0  0  0
  -31.7830  -20.1490   25.1740 Cl  0  0  0  0  0  0  0  0  0  0  0  0
  -30.5480  -17.0720   20.0580 C   0  0  0  0  0  2  0  0  0  0  0  0
  -30.9010  -14.6300   19.6000 C   0  0  0  0  0  0  0  0  0  0  0  0
  -30.4900  -12.4130   18.6000 C   0  0  0  0  0  2  0  0  0  0  0  0
  -29.4270  -12.5670   17.4940 C   0  0  0  0  0  2  0  0  0  0  0  0
  -28.0070  -12.4520   18.0810 C   0  0  0  0  0  2  0  0  0  0  0  0
  -27.8030  -13.3620   19.3210 C   0  0  0  0  0  3  0  0  0  0  0  0
  -28.9650  -13.1890   20.3250 C   0  0  0  0  0  2  0  0  0  0  0  0
  -30.2290  -13.4470   19.6130 N   0  0  0  0  0  0  0  0  0  0  0  0
  -31.9310  -14.8140   18.9460 O   0  0  0  0  0  0  0  0  0  0  0  0
  -30.2800  -15.6390   20.2310 N   0  0  0  0  0  0  0  0  0  0  0  0
  -29.4450  -15.4010   20.7430 H   0  0  0  0  0  0  0  0  0  0  0  0
  -25.5750  -14.0380   20.4210 C   0  0  0  0  0  0  0  0  0  0  0  0
  -24.5070  -13.2980   20.8530 C   0  0  0  0  0  0  0  0  0  0  0  0
  -24.8480  -11.9330   20.6080 C   0  0  0  0  0  0  0  0  0  0  0  0
  -26.5060  -13.1240   19.9510 N   0  0  0  0  0  0  0  0  0  0  0  0
  -26.0790  -11.8460   20.1180 N   0  0  0  0  0  0  0  0  0  0  0  0
  -24.0550  -10.7070   20.7580 C   0  0  0  0  0  0  0  0  0  0  0  0
  -24.4020   -9.7130   21.7000 C   0  0  0  0  0  3  0  0  0  0  0  0
  -23.6130   -8.5510   21.8390 C   0  0  0  0  0  3  0  0  0  0  0  0
  -22.4630   -8.3750   21.0330 C   0  0  0  0  0  0  0  0  0  0  0  0
  -22.1350   -9.3570   20.0810 C   0  0  0  0  0  3  0  0  0  0  0  0
  -22.9250  -10.5090   19.9410 C   0  0  0  0  0  3  0  0  0  0  0  0
  -21.6520   -7.2660   21.0800 O   0  0  0  0  0  0  0  0  0  0  0  0
  -21.3520   -6.6450   22.2660 C   0  0  0  0  0  0  0  0  0  0  0  0
  -20.6870   -7.3190   23.3140 C   0  0  0  0  0  3  0  0  0  0  0  0
  -20.3320   -6.6210   24.4860 C   0  0  0  0  0  3  0  0  0  0  0  0
  -20.6340   -5.2520   24.6100 C   0  0  0  0  0  0  0  0  0  0  0  0
  -21.2940   -4.5780   23.5670 C   0  0  0  0  0  3  0  0  0  0  0  0
  -21.6490   -5.2730   22.3970 C   0  0  0  0  0  0  0  0  0  0  0  0
  -22.2620   -4.6130   21.3860 F   0  0  0  0  0  0  0  0  0  0  0  0
  -20.2900   -4.5800   25.7330 F   0  0  0  0  0  0  0  0  0  0  0  0
  -23.2030  -13.8300   21.3730 C   0  0  0  0  0  0  0  0  0  0  0  0
  -22.5570  -13.1010   22.2770 N   0  0  0  0  0  0  0  0  0  0  0  0
  -22.7710  -14.9250   21.0160 O   0  0  0  0  0  0  0  0  0  0  0  0
  -22.9210  -12.2130   22.5900 H   0  0  0  0  0  0  0  0  0  0  0  0
  -21.6880  -13.4420   22.6630 H   0  0  0  0  0  0  0  0  0  0  0  0
  -25.8230  -15.4070   20.3740 N   0  0  0  0  0  0  0  0  0  0  0  0
  -25.1280  -16.0900   20.6550 H   0  0  0  0  0  0  0  0  0  0  0  0
  -26.6620  -15.8270   19.9940 H   0  0  0  0  0  0  0  0  0  0  0  0
  1  5  1  0
  1  2  1  0
  2  4  1  0
  3  1  2  0
  6  5  2  0
  6  7  1  0
  8 10  1  0
  8  7  1  0
  9 20  2  0
 10 15  1  0
 11 19  1  0
 11 21  1  0
 12 18  1  0
 12 14  1  0
 13 19  1  0
 14 13  1  0
 15 14  2  0
 16 17  1  0
 16 10  2  0
 17 12  2  0
 18 11  1  0
 19  9  1  0
 21 23  2  0
 22 21  1  0
 24 22  1  0
 25 34  2  0
 25 30  1  0
 26 22  1  0
 26 30  1  0
 27 26  1  0
 28 29  1  0
 28 27  1  0
 29 25  1  0
 30 31  2  0
 31 32  1  0
 33 32  2  0
 34 33  1  0
 35  9  1  0
 35 36  1  0
 35 45  1  0
 36 39  1  0
 37 41  1  0
 37 36  1  0
 38 37  2  0
 41 40  1  0
 43 41  1  0
 43 44  1  0
 43 42  1  0
 45 48  1  1
 45 46  1  0
 47 45  1  0
 49  2  1  0
 49 54  1  0
 50 51  1  0
 51 55  2  0
 52 55  1  0
 53 54  1  0
 53 50  2  0
 54 52  2  0
 55 56  1  0
 57 66  1  0
 57 53  1  0
 58 64  1  0
 58 66  1  0
 59 64  1  0
 60 61  1  0
 60 59  1  0
 62 61  1  0
 62 71  1  0
 62 63  1  0
 64 63  1  0
 65 58  2  0
 66 67  1  0
 68 69  2  0
 69 88  1  0
 70 73  1  0
 70 69  1  0
 71 72  1  0
 71 68  1  0
 72 70  2  0
 73 74  1  0
 74 75  2  0
 76 79  1  0
 76 75  1  0
 77 76  2  0
 78 77  1  0
 78 73  2  0
 79 80  1  0
 80 85  2  0
 80 81  1  0
 81 82  2  0
 82 83  1  0
 83 87  1  0
 84 83  2  0
 85 84  1  0
 86 85  1  0
 88 89  1  0
 89 91  1  0
 89 92  1  0
 90 88  2  0
 93 68  1  0
 93 94  1  0
 95 93  1  0
M  ISO  4   7 101   8 101  58 100  66 100
M  END
>  <TORSDO>  (64) 
F 21

>  <SCORE>  (64) 
-8.374

>  <name>  (64) 
63

>  <ligand_id>  (64) 
63

>  <original_smiles>  (64) 
[H]C(C(=O)N([H])C([H])([H])c1c([H])c(Cl)c([H])c([H])c1C([H])([H])N([H])C(=O)N1C([H])([H])C([H])([H])C([H])([H])C([H])(n2nc(-c3c([H])c([H])c(Oc4c([H])c([H])c(F)c([H])c4F)c([H])c3[H])c(C(=O)N([H])[H])c2N([H])[H])C1([H])[H])=C([H])C([H])([H])Oc1c([H])c([H])c2c(c1[H])C([H])([H])N(C(=O)C([H])(N([H])C(=O)C([H])(N([H])C([H])([H])[H])C([H])([H])[H])C(C([H])([H])[H])(C([H])([H])[H])C([H])([H])[H])C([H])(C(=O)N([H])C1([H])c3c([H])c([H])c([H])c([H])c3C([H])([H])C([H])([H])C1([H])[H])C2([H])[H]

>  <smiles>  (64) 
[H]C(C(=O)N([H])C([H])([H])c1c([H])c(Cl)c([H])c([H])c1C([H])([H])N([H])C(=O)N1C([H])([H])C([H])([H])C([H])([H])C([H])(n2nc(-c3c([H])c([H])c(Oc4c([H])c([H])c(F)c([H])c4F)c([H])c3[H])c(C(=O)N([H])[H])c2N([H])[H])C1([H])[H])=C([H])C([H])([H])Oc1c([H])c([H])c2c(c1[H])C([H])([H])N(C(=O)C([H])(N([H])C(=O)C([H])(N([H])C([H])([H])[H])C([H])([H])[H])C(C([H])([H])[H])(C([H])([H])[H])C([H])([H])[H])C([H])(C(=O)N([H])C1([H])c3c([H])c([H])c([H])c([H])c3C([H])([H])C([H])([H])C1([H])[H])C2([H])[H]

$$$$
64:0:0
     RDKit          3D

 93102  0  0  1  0  0  0  0  0999 V2000
  -28.7220  -23.9980   20.6140 C   0  0  0  0  0  0  0  0  0  0  0  0
  -29.8240  -23.8370   17.9000 C   0  0  0  0  0  2  0  0  0  0  0  0
  -29.6480  -25.1870   18.6290 C   0  0  0  0  0  2  0  0  0  0  0  0
  -29.3130  -22.5910   18.6790 C   0  0  0  0  0  2  0  0  0  0  0  0
  -28.4590  -25.1810   19.5970 C   0  0  0  0  0  3  0  0  0  0  0  0
  -29.1880  -22.7860   20.1310 N   0  0  0  0  0  0  0  0  0  0  0  0
  -28.5430  -24.1970   21.8180 O   0  0  0  0  0  0  0  0  0  0  0  0
  -28.3630  -26.5440   20.1880 O   0  0  0  0  0  0  0  0  0  0  0  0
  -24.5800  -31.8850   23.1950 C   0  0  0  0  0  0  0  0  0  0  0  0
  -27.2090  -27.3460   20.1190 C   0  0  0  0  0  0  0  0  0  0  0  0
  -23.3810  -30.4880   21.5520 C   0  0  0  0  0  3  0  0  0  0  0  0
  -24.8340  -28.9520   20.1180 C   0  0  0  0  0  0  0  0  0  0  0  0
  -25.9160  -30.8210   21.3640 C   0  0  0  0  0  2  0  0  0  0  0  0
  -26.0010  -29.4430   20.7130 C   0  0  0  0  0  0  0  0  0  0  0  0
  -27.1860  -28.6520   20.7040 C   0  0  0  0  0  3  0  0  0  0  0  0
  -26.0090  -26.9060   19.5120 C   0  0  0  0  0  3  0  0  0  0  0  0
  -24.8410  -27.6900   19.5110 C   0  0  0  0  0  3  0  0  0  0  0  0
  -23.5940  -29.8190   20.1680 C   0  0  0  0  0  2  0  0  0  0  0  0
  -24.6440  -31.0810   22.0940 N   0  0  0  0  0  0  0  0  0  0  0  0
  -23.4960  -32.1560   23.7310 O   0  0  0  0  0  0  0  0  0  0  0  0
  -22.7250  -29.4620   22.5090 C   0  0  0  0  0  0  0  0  0  0  0  0
  -21.3980  -29.2820   22.3830 N   0  0  0  0  0  0  0  0  0  0  0  0
  -23.4080  -28.8350   23.3220 O   0  0  0  0  0  0  0  0  0  0  0  0
  -20.9080  -29.8400   21.6990 H   0  0  0  0  0  0  0  0  0  0  0  0
  -18.0220  -28.0940   22.9010 C   0  0  0  0  0  0  0  0  0  0  0  0
  -20.5830  -28.3410   23.1530 C   0  0  0  0  0  3  0  0  0  0  0  0
  -20.6730  -26.9140   22.5630 C   0  0  0  0  0  2  0  0  0  0  0  0
  -19.5630  -26.6060   21.5540 C   0  0  0  0  0  2  0  0  0  0  0  0
  -18.1860  -26.7510   22.2100 C   0  0  0  0  0  2  0  0  0  0  0  0
  -19.1460  -28.8490   23.3280 C   0  0  0  0  0  0  0  0  0  0  0  0
  -18.9360  -30.1070   23.9320 C   0  0  0  0  0  3  0  0  0  0  0  0
  -17.6350  -30.6110   24.1130 C   0  0  0  0  0  3  0  0  0  0  0  0
  -16.5250  -29.8540   23.7020 C   0  0  0  0  0  3  0  0  0  0  0  0
  -16.7190  -28.5960   23.1030 C   0  0  0  0  0  3  0  0  0  0  0  0
  -25.8610  -32.5210   23.8170 C   0  0  0  0  0  3  0  0  0  0  0  0
  -25.5480  -33.9180   24.1500 N   0  0  0  0  0  0  0  0  0  0  0  0
  -25.8820  -34.9750   23.3980 C   0  0  0  0  0  0  0  0  0  0  0  0
  -26.5610  -34.8770   22.3720 O   0  0  0  0  0  0  0  0  0  0  0  0
  -24.9510  -34.0690   24.9510 H   0  0  0  0  0  0  0  0  0  0  0  0
  -24.1700  -36.7750   23.0140 C   0  0  0  0  0  1  0  0  0  0  0  0
  -25.3870  -36.3590   23.8550 C   0  0  0  0  0  3  0  0  0  0  0  0
  -27.5000  -37.2270   24.7560 C   0  0  0  0  0  1  0  0  0  0  0  0
  -26.4240  -37.4130   23.7850 N   0  0  0  0  0  0  0  0  0  0  0  0
  -26.0150  -38.3300   23.9400 H   0  0  0  0  0  0  0  0  0  0  0  0
  -26.3800  -31.7510   25.0940 C   0  0  1  0  0  0  0  0  0  0  0  0
  -25.2870  -31.5090   26.1620 C   0  0  0  0  0  1  0  0  0  0  0  0
  -26.9690  -30.3770   24.7000 C   0  0  0  0  0  1  0  0  0  0  0  0
  -27.5270  -32.5480   25.7560 C   0  0  0  0  0  1  0  0  0  0  0  0
  -29.7120  -21.6770   21.0180 C   0  0  0  0  0  2  0  0  0  0  0  0
  -28.5900  -19.3410   20.6230 C   0  0  0  0  0  3  0  0  0  0  0  0
  -30.9870  -19.4420   20.4970 C   0  0  0  0  0  3  0  0  0  0  0  0
  -28.6620  -17.9190   20.5460 C   0  0  0  0  0  3  0  0  0  0  0  0
  -31.0600  -18.0130   20.4100 C   0  0  0  0  0  3  0  0  0  0  0  0
  -29.7560  -20.1470   20.6310 C   0  0  0  0  0  0  0  0  0  0  0  0
  -29.8900  -17.2070   20.4610 C   0  0  0  0  0  0  0  0  0  0  0  0
  -30.6560  -14.7190   20.0820 C   0  0  0  0  0  0  0  0  0  0  0  0
  -30.4030  -12.5050   18.9660 C   0  0  0  0  0  2  0  0  0  0  0  0
  -29.3920  -12.6690   17.8090 C   0  0  0  0  0  2  0  0  0  0  0  0
  -27.9390  -12.5130   18.3080 C   0  0  0  0  0  2  0  0  0  0  0  0
  -27.6550  -13.3310   19.5950 C   0  0  0  0  0  3  0  0  0  0  0  0
  -28.7720  -13.1250   20.6440 C   0  0  0  0  0  2  0  0  0  0  0  0
  -30.0510  -13.4900   20.0070 N   0  0  0  0  0  0  0  0  0  0  0  0
  -31.8000  -14.8990   19.6490 O   0  0  0  0  0  0  0  0  0  0  0  0
  -29.8330  -15.7410   20.4840 N   0  0  0  0  0  0  0  0  0  0  0  0
  -28.9380  -15.3820   20.7790 H   0  0  0  0  0  0  0  0  0  0  0  0
  -25.3110  -13.9340   20.4640 C   0  0  0  0  0  0  0  0  0  0  0  0
  -24.2570  -13.1630   20.8710 C   0  0  0  0  0  0  0  0  0  0  0  0
  -24.6990  -11.8080   20.7750 C   0  0  0  0  0  0  0  0  0  0  0  0
  -26.3300  -13.0500   20.1440 N   0  0  0  0  0  0  0  0  0  0  0  0
  -25.9690  -11.7640   20.3880 N   0  0  0  0  0  0  0  0  0  0  0  0
  -23.9690  -10.5480   20.9690 C   0  0  0  0  0  0  0  0  0  0  0  0
  -24.4060   -9.5790   21.8950 C   0  0  0  0  0  3  0  0  0  0  0  0
  -23.6770   -8.3840   22.0790 C   0  0  0  0  0  3  0  0  0  0  0  0
  -22.4980   -8.1500   21.3340 C   0  0  0  0  0  0  0  0  0  0  0  0
  -22.0800   -9.1100   20.3960 C   0  0  0  0  0  3  0  0  0  0  0  0
  -22.8090  -10.2970   20.2100 C   0  0  0  0  0  3  0  0  0  0  0  0
  -21.7420   -7.0060   21.4240 O   0  0  0  0  0  0  0  0  0  0  0  0
  -21.6550   -6.2910   22.5920 C   0  0  0  0  0  0  0  0  0  0  0  0
  -21.1520   -6.8640   23.7800 C   0  0  0  0  0  3  0  0  0  0  0  0
  -21.0120   -6.0740   24.9390 C   0  0  0  0  0  3  0  0  0  0  0  0
  -21.3680   -4.7120   24.9100 C   0  0  0  0  0  0  0  0  0  0  0  0
  -21.8650   -4.1390   23.7280 C   0  0  0  0  0  3  0  0  0  0  0  0
  -22.0070   -4.9260   22.5720 C   0  0  0  0  0  0  0  0  0  0  0  0
  -22.4660   -4.3620   21.4280 F   0  0  0  0  0  0  0  0  0  0  0  0
  -21.2280   -3.9520   26.0220 F   0  0  0  0  0  0  0  0  0  0  0  0
  -22.8800  -13.6480   21.2320 C   0  0  0  0  0  0  0  0  0  0  0  0
  -22.1870  -12.9340   22.1110 N   0  0  0  0  0  0  0  0  0  0  0  0
  -22.4310  -14.6960   20.7680 O   0  0  0  0  0  0  0  0  0  0  0  0
  -22.5600  -12.0850   22.5100 H   0  0  0  0  0  0  0  0  0  0  0  0
  -21.2650  -13.2420   22.3880 H   0  0  0  0  0  0  0  0  0  0  0  0
  -25.4780  -15.3090   20.3150 N   0  0  0  0  0  0  0  0  0  0  0  0
  -24.7200  -15.9610   20.4870 H   0  0  0  0  0  0  0  0  0  0  0  0
  -26.2760  -15.7420   19.8680 H   0  0  0  0  0  0  0  0  0  0  0  0
  1  7  2  0
  2  3  1  0
  2  4  1  0
  3  5  1  0
  4  6  1  0
  5  8  1  0
  5  1  1  0
  6  1  1  0
  6 49  1  0
  9 20  2  0
 10  8  1  0
 10 15  1  0
 11 19  1  0
 11 21  1  0
 12 18  1  0
 12 14  1  0
 13 19  1  0
 14 13  1  0
 15 14  2  0
 16 10  2  0
 17 16  1  0
 17 12  2  0
 18 11  1  0
 19  9  1  0
 21 23  2  0
 22 21  1  0
 24 22  1  0
 25 34  2  0
 25 30  1  0
 26 22  1  0
 26 30  1  0
 27 26  1  0
 28 29  1  0
 28 27  1  0
 29 25  1  0
 30 31  2  0
 31 32  1  0
 33 32  2  0
 34 33  1  0
 35  9  1  0
 35 36  1  0
 35 45  1  0
 36 39  1  0
 37 41  1  0
 37 36  1  0
 38 37  2  0
 41 40  1  0
 43 41  1  0
 43 44  1  0
 43 42  1  0
 45 48  1  1
 45 46  1  0
 47 45  1  0
 50 54  1  0
 51 54  2  0
 52 50  2  0
 53 55  2  0
 53 51  1  0
 54 49  1  0
 55 64  1  0
 55 52  1  0
 56 64  1  0
 57 62  1  0
 58 59  1  0
 58 57  1  0
 60 59  1  0
 60 69  1  0
 60 61  1  0
 62 56  1  0
 62 61  1  0
 63 56  2  0
 64 65  1  0
 66 67  2  0
 67 86  1  0
 68 67  1  0
 68 71  1  0
 69 70  1  0
 69 66  1  0
 70 68  2  0
 71 72  1  0
 72 73  2  0
 74 77  1  0
 74 73  1  0
 75 74  2  0
 76 75  1  0
 76 71  2  0
 77 78  1  0
 78 79  1  0
 79 80  2  0
 81 80  1  0
 81 85  1  0
 82 81  2  0
 83 78  2  0
 83 82  1  0
 84 83  1  0
 86 87  1  0
 87 90  1  0
 87 89  1  0
 88 86  2  0
 91 66  1  0
 91 92  1  0
 93 91  1  0
M  ISO  4   5 101   8 101  56 100  64 100
M  END
>  <TORSDO>  (65) 
F 18

>  <SCORE>  (65) 
-14.746

>  <name>  (65) 
64

>  <ligand_id>  (65) 
64

>  <original_smiles>  (65) 
[H]c1c([H])c([H])c2c(c1[H])C([H])([H])C([H])([H])C([H])([H])C2([H])N([H])C(=O)C1([H])N(C(=O)C([H])(N([H])C(=O)C([H])(N([H])C([H])([H])[H])C([H])([H])[H])C(C([H])([H])[H])(C([H])([H])[H])C([H])([H])[H])C([H])([H])c2c([H])c(OC3([H])C(=O)N(C([H])([H])c4c([H])c([H])c(N([H])C(=O)N5C([H])([H])C([H])([H])C([H])([H])C([H])(n6nc(-c7c([H])c([H])c(Oc8c([H])c([H])c(F)c([H])c8F)c([H])c7[H])c(C(=O)N([H])[H])c6N([H])[H])C5([H])[H])c([H])c4[H])C([H])([H])C([H])([H])C3([H])[H])c([H])c([H])c2C1([H])[H]

>  <smiles>  (65) 
[H]c1c([H])c([H])c2c(c1[H])C([H])([H])C([H])([H])C([H])([H])C2([H])N([H])C(=O)C1([H])N(C(=O)C([H])(N([H])C(=O)C([H])(N([H])C([H])([H])[H])C([H])([H])[H])C(C([H])([H])[H])(C([H])([H])[H])C([H])([H])[H])C([H])([H])c2c([H])c(OC3([H])C(=O)N(C([H])([H])c4c([H])c([H])c(N([H])C(=O)N5C([H])([H])C([H])([H])C([H])([H])C([H])(n6nc(-c7c([H])c([H])c(Oc8c([H])c([H])c(F)c([H])c8F)c([H])c7[H])c(C(=O)N([H])[H])c6N([H])[H])C5([H])[H])c([H])c4[H])C([H])([H])C([H])([H])C3([H])[H])c([H])c([H])c2C1([H])[H]

$$$$
65:0:0
     RDKit          3D

 95104  0  0  1  0  0  0  0  0999 V2000
  -28.8370  -23.7220   20.2620 C   0  0  0  0  0  0  0  0  0  0  0  0
  -27.0520  -23.6180   22.5530 C   0  0  0  0  0  2  0  0  0  0  0  0
  -26.8610  -24.7850   21.5770 C   0  0  0  0  0  2  0  0  0  0  0  0
  -27.4920  -22.3260   21.8310 C   0  0  0  0  0  2  0  0  0  0  0  0
  -28.1830  -25.0870   20.8470 C   0  0  0  0  0  3  0  0  0  0  0  0
  -28.6060  -22.4710   20.8630 N   0  0  0  0  0  0  0  0  0  0  0  0
  -29.6270  -23.8240   19.3180 O   0  0  0  0  0  0  0  0  0  0  0  0
  -28.2410  -26.3810   20.0450 O   0  0  0  0  0  0  0  0  0  0  0  0
  -24.5890  -31.8910   23.1160 C   0  0  0  0  0  0  0  0  0  0  0  0
  -27.1590  -27.2930   20.0420 C   0  0  0  0  0  0  0  0  0  0  0  0
  -23.3710  -30.5000   21.4780 C   0  0  0  0  0  3  0  0  0  0  0  0
  -24.8120  -28.9500   20.0320 C   0  0  0  0  0  0  0  0  0  0  0  0
  -25.9140  -30.8060   21.2830 C   0  0  0  0  0  2  0  0  0  0  0  0
  -25.9870  -29.4240   20.6310 C   0  0  0  0  0  0  0  0  0  0  0  0
  -27.1650  -28.6070   20.6270 C   0  0  0  0  0  3  0  0  0  0  0  0
  -25.9730  -26.8990   19.3900 C   0  0  0  0  0  3  0  0  0  0  0  0
  -24.8110  -27.6980   19.3960 C   0  0  0  0  0  3  0  0  0  0  0  0
  -23.5760  -29.8270   20.0940 C   0  0  0  0  0  2  0  0  0  0  0  0
  -24.6430  -31.0850   22.0140 N   0  0  0  0  0  0  0  0  0  0  0  0
  -23.5100  -32.1670   23.6610 O   0  0  0  0  0  0  0  0  0  0  0  0
  -22.7140  -29.4820   22.4420 C   0  0  0  0  0  0  0  0  0  0  0  0
  -21.3830  -29.3210   22.3420 N   0  0  0  0  0  0  0  0  0  0  0  0
  -23.4000  -28.8420   23.2430 O   0  0  0  0  0  0  0  0  0  0  0  0
  -20.8860  -29.8880   21.6700 H   0  0  0  0  0  0  0  0  0  0  0  0
  -18.0050  -28.1440   22.9010 C   0  0  0  0  0  0  0  0  0  0  0  0
  -20.5710  -28.3800   23.1180 C   0  0  0  0  0  3  0  0  0  0  0  0
  -20.6480  -26.9540   22.5250 C   0  0  0  0  0  2  0  0  0  0  0  0
  -19.5230  -26.6540   21.5300 C   0  0  0  0  0  2  0  0  0  0  0  0
  -18.1560  -26.8020   22.2050 C   0  0  0  0  0  2  0  0  0  0  0  0
  -19.1390  -28.8930   23.3160 C   0  0  0  0  0  0  0  0  0  0  0  0
  -18.9430  -30.1480   23.9290 C   0  0  0  0  0  3  0  0  0  0  0  0
  -17.6460  -30.6580   24.1310 C   0  0  0  0  0  3  0  0  0  0  0  0
  -16.5260  -29.9070   23.7300 C   0  0  0  0  0  3  0  0  0  0  0  0
  -16.7080  -28.6510   23.1220 C   0  0  0  0  0  3  0  0  0  0  0  0
  -25.8770  -32.5220   23.7290 C   0  0  0  0  0  3  0  0  0  0  0  0
  -26.4260  -31.7250   24.9740 C   0  0  1  0  0  0  0  0  0  0  0  0
  -25.3590  -31.4560   26.0600 C   0  0  0  0  0  1  0  0  0  0  0  0
  -27.0100  -30.3590   24.5420 C   0  0  0  0  0  1  0  0  0  0  0  0
  -27.5880  -32.5100   25.6300 C   0  0  0  0  0  1  0  0  0  0  0  0
  -25.5590  -33.9080   24.1050 N   0  0  0  0  0  0  0  0  0  0  0  0
  -25.8780  -34.9880   23.3780 C   0  0  0  0  0  0  0  0  0  0  0  0
  -26.5400  -34.9220   22.3390 O   0  0  0  0  0  0  0  0  0  0  0  0
  -24.9680  -34.0330   24.9140 H   0  0  0  0  0  0  0  0  0  0  0  0
  -24.1360  -36.7810   23.0960 C   0  0  0  0  0  1  0  0  0  0  0  0
  -25.3860  -36.3580   23.8840 C   0  0  0  0  0  3  0  0  0  0  0  0
  -27.5240  -37.2270   24.7250 C   0  0  0  0  0  1  0  0  0  0  0  0
  -26.4110  -37.4210   23.7980 N   0  0  0  0  0  0  0  0  0  0  0  0
  -26.0010  -38.3320   23.9810 H   0  0  0  0  0  0  0  0  0  0  0  0
  -29.3900  -21.1330   20.6840 C   0  0  0  0  0  2  0  0  0  0  0  0
  -27.0800  -19.4310   18.1530 C   0  0  0  0  0  3  0  0  0  0  0  0
  -27.7270  -20.2880   19.0460 C   0  0  0  0  0  3  0  0  0  0  0  0
  -27.5390  -18.1240   18.0240 C   0  0  0  0  0  3  0  0  0  0  0  0
  -28.7630  -19.8710   19.9230 C   0  0  0  0  0  0  0  0  0  0  0  0
  -29.1410  -18.4180   19.9110 C   0  0  0  0  0  0  0  0  0  0  0  0
  -28.5760  -17.6470   18.8380 C   0  0  0  0  0  0  0  0  0  0  0  0
  -29.1770  -16.1010   18.3460 Cl  0  0  0  0  0  0  0  0  0  0  0  0
  -30.1210  -17.5920   20.8950 C   0  0  0  0  0  2  0  0  0  0  0  0
  -30.7810  -14.9660   21.1790 C   0  0  0  0  0  0  0  0  0  0  0  0
  -30.8160  -12.6020   20.3380 C   0  0  0  0  0  2  0  0  0  0  0  0
  -30.0600  -12.5470   18.9910 C   0  0  0  0  0  2  0  0  0  0  0  0
  -28.5460  -12.3560   19.2160 C   0  0  0  0  0  2  0  0  0  0  0  0
  -27.9790  -13.3080   20.3040 C   0  0  0  0  0  3  0  0  0  0  0  0
  -28.8680  -13.3320   21.5650 C   0  0  0  0  0  2  0  0  0  0  0  0
  -30.2230  -13.7040   21.1350 N   0  0  0  0  0  0  0  0  0  0  0  0
  -32.0010  -15.0930   21.0440 O   0  0  0  0  0  0  0  0  0  0  0  0
  -29.9210  -16.0700   21.1550 N   0  0  0  0  0  0  0  0  0  0  0  0
  -28.9520  -15.8060   21.2250 H   0  0  0  0  0  0  0  0  0  0  0  0
  -25.5120  -13.8980   20.6800 C   0  0  0  0  0  0  0  0  0  0  0  0
  -24.4120  -13.1250   20.9300 C   0  0  0  0  0  0  0  0  0  0  0  0
  -24.8840  -11.7800   21.0110 C   0  0  0  0  0  0  0  0  0  0  0  0
  -26.5830  -13.0220   20.6170 N   0  0  0  0  0  0  0  0  0  0  0  0
  -26.2040  -11.7450   20.8780 N   0  0  0  0  0  0  0  0  0  0  0  0
  -24.1480  -10.5180   21.1450 C   0  0  0  0  0  0  0  0  0  0  0  0
  -24.4880   -9.5650   22.1320 C   0  0  0  0  0  3  0  0  0  0  0  0
  -23.7520   -8.3660   22.2510 C   0  0  0  0  0  3  0  0  0  0  0  0
  -22.6630   -8.1120   21.3840 C   0  0  0  0  0  0  0  0  0  0  0  0
  -22.3450   -9.0520   20.3900 C   0  0  0  0  0  3  0  0  0  0  0  0
  -23.0800  -10.2420   20.2670 C   0  0  0  0  0  3  0  0  0  0  0  0
  -21.9090   -6.9630   21.4110 O   0  0  0  0  0  0  0  0  0  0  0  0
  -21.7730   -6.2200   22.5560 C   0  0  0  0  0  0  0  0  0  0  0  0
  -21.2670   -6.7750   23.7510 C   0  0  0  0  0  3  0  0  0  0  0  0
  -21.0770   -5.9560   24.8820 C   0  0  0  0  0  3  0  0  0  0  0  0
  -21.3850   -4.5850   24.8190 C   0  0  0  0  0  0  0  0  0  0  0  0
  -21.8840   -4.0280   23.6270 C   0  0  0  0  0  3  0  0  0  0  0  0
  -22.0740   -4.8440   22.4980 C   0  0  0  0  0  0  0  0  0  0  0  0
  -22.5370   -4.2980   21.3470 F   0  0  0  0  0  0  0  0  0  0  0  0
  -21.1950   -3.7960   25.9030 F   0  0  0  0  0  0  0  0  0  0  0  0
  -22.9880  -13.5960   20.9900 C   0  0  0  0  0  0  0  0  0  0  0  0
  -22.1530  -12.9300   21.7810 N   0  0  0  0  0  0  0  0  0  0  0  0
  -22.6170  -14.5920   20.3690 O   0  0  0  0  0  0  0  0  0  0  0  0
  -22.4640  -12.1260   22.3070 H   0  0  0  0  0  0  0  0  0  0  0  0
  -21.1920  -13.2280   21.8610 H   0  0  0  0  0  0  0  0  0  0  0  0
  -25.6870  -15.2630   20.4790 N   0  0  0  0  0  0  0  0  0  0  0  0
  -24.9000  -15.9010   20.4560 H   0  0  0  0  0  0  0  0  0  0  0  0
  -26.5530  -15.6970   20.1910 H   0  0  0  0  0  0  0  0  0  0  0  0
  1  5  1  0
  1  6  1  0
  3  2  1  0
  4  2  1  0
  5  8  1  0
  5  3  1  0
  6  4  1  0
  7  1  2  0
  9 20  2  0
 10  8  1  0
 10 15  1  0
 11 19  1  0
 11 21  1  0
 12 18  1  0
 12 14  1  0
 13 19  1  0
 14 13  1  0
 15 14  2  0
 16 17  1  0
 16 10  2  0
 17 12  2  0
 18 11  1  0
 19  9  1  0
 21 23  2  0
 22 21  1  0
 24 22  1  0
 25 34  2  0
 25 30  1  0
 26 22  1  0
 26 30  1  0
 27 26  1  0
 28 29  1  0
 28 27  1  0
 29 25  1  0
 30 31  2  0
 31 32  1  0
 33 32  2  0
 34 33  1  0
 35  9  1  0
 35 40  1  0
 35 36  1  0
 36 39  1  1
 36 37  1  0
 38 36  1  0
 40 43  1  0
 41 45  1  0
 41 40  1  0
 42 41  2  0
 45 44  1  0
 47 45  1  0
 47 48  1  0
 47 46  1  0
 49  6  1  0
 50 51  1  0
 51 53  2  0
 52 50  2  0
 52 55  1  0
 53 49  1  0
 54 53  1  0
 54 57  1  0
 55 54  2  0
 56 55  1  0
 57 66  1  0
 59 64  1  0
 60 61  1  0
 60 59  1  0
 62 61  1  0
 62 71  1  0
 62 63  1  0
 64 58  1  0
 64 63  1  0
 65 58  2  0
 66 58  1  0
 66 67  1  0
 68 69  2  0
 69 88  1  0
 69 70  1  0
 70 73  1  0
 71 68  1  0
 71 72  1  0
 72 70  2  0
 73 74  1  0
 74 75  2  0
 76 79  1  0
 76 75  1  0
 77 76  2  0
 78 77  1  0
 78 73  2  0
 79 80  1  0
 80 81  1  0
 81 82  2  0
 83 82  1  0
 83 87  1  0
 84 83  2  0
 85 80  2  0
 85 84  1  0
 86 85  1  0
 88 89  1  0
 89 92  1  0
 89 91  1  0
 90 88  2  0
 93 68  1  0
 94 93  1  0
 95 93  1  0
M  ISO  4   5 101   8 101  58 100  66 100
M  END
>  <TORSDO>  (66) 
F 19

>  <SCORE>  (66) 
-12.614

>  <name>  (66) 
65

>  <ligand_id>  (66) 
65

>  <original_smiles>  (66) 
[H]c1c([H])c(Cl)c(C([H])([H])N([H])C(=O)N2C([H])([H])C([H])([H])C([H])([H])C([H])(n3nc(-c4c([H])c([H])c(Oc5c([H])c([H])c(F)c([H])c5F)c([H])c4[H])c(C(=O)N([H])[H])c3N([H])[H])C2([H])[H])c(C([H])([H])N2C(=O)C([H])(Oc3c([H])c([H])c4c(c3[H])C([H])([H])N(C(=O)C([H])(N([H])C(=O)C([H])(N([H])C([H])([H])[H])C([H])([H])[H])C(C([H])([H])[H])(C([H])([H])[H])C([H])([H])[H])C([H])(C(=O)N([H])C3([H])c5c([H])c([H])c([H])c([H])c5C([H])([H])C([H])([H])C3([H])[H])C4([H])[H])C([H])([H])C([H])([H])C2([H])[H])c1[H]

>  <smiles>  (66) 
[H]c1c([H])c(Cl)c(C([H])([H])N([H])C(=O)N2C([H])([H])C([H])([H])C([H])([H])C([H])(n3nc(-c4c([H])c([H])c(Oc5c([H])c([H])c(F)c([H])c5F)c([H])c4[H])c(C(=O)N([H])[H])c3N([H])[H])C2([H])[H])c(C([H])([H])N2C(=O)C([H])(Oc3c([H])c([H])c4c(c3[H])C([H])([H])N(C(=O)C([H])(N([H])C(=O)C([H])(N([H])C([H])([H])[H])C([H])([H])[H])C(C([H])([H])[H])(C([H])([H])[H])C([H])([H])[H])C([H])(C(=O)N([H])C3([H])c5c([H])c([H])c([H])c([H])c5C([H])([H])C([H])([H])C3([H])[H])C4([H])[H])C([H])([H])C([H])([H])C2([H])[H])c1[H]

$$$$
66:0:0
     RDKit          3D

 94102  0  0  1  0  0  0  0  0999 V2000
  -30.6200  -20.0600   21.7180 C   0  0  0  0  0  3  0  0  0  0  0  0
  -31.2800  -18.9260   22.2350 C   0  0  0  0  0  3  0  0  0  0  0  0
  -29.6750  -19.9630   20.6750 C   0  0  0  0  0  0  0  0  0  0  0  0
  -29.3850  -18.5930   20.2300 C   0  0  0  0  0  0  0  0  0  0  0  0
  -30.0540  -17.3950   20.7530 C   0  0  0  0  0  0  0  0  0  0  0  0
  -31.0130  -17.6230   21.7690 C   0  0  0  0  0  0  0  0  0  0  0  0
  -31.6370  -16.5830   22.3740 F   0  0  0  0  0  0  0  0  0  0  0  0
  -30.4830  -14.8620   20.1260 C   0  0  0  0  0  0  0  0  0  0  0  0
  -30.2390  -12.6340   18.9920 C   0  0  0  0  0  2  0  0  0  0  0  0
  -29.2380  -12.7560   17.8210 C   0  0  0  0  0  2  0  0  0  0  0  0
  -27.7970  -12.5270   18.3170 C   0  0  0  0  0  2  0  0  0  0  0  0
  -27.4740  -13.3580   19.5870 C   0  0  0  0  0  3  0  0  0  0  0  0
  -28.5890  -13.2410   20.6490 C   0  0  0  0  0  2  0  0  0  0  0  0
  -29.8490  -13.6400   20.0080 N   0  0  0  0  0  0  0  0  0  0  0  0
  -31.6480  -14.9790   19.7340 O   0  0  0  0  0  0  0  0  0  0  0  0
  -29.7030  -15.9810   20.4130 N   0  0  0  0  0  0  0  0  0  0  0  0
  -28.7180  -15.7770   20.4670 H   0  0  0  0  0  0  0  0  0  0  0  0
  -25.1110  -13.8850   20.4350 C   0  0  0  0  0  0  0  0  0  0  0  0
  -24.0780  -13.0880   20.8420 C   0  0  0  0  0  0  0  0  0  0  0  0
  -24.5640  -11.7470   20.7620 C   0  0  0  0  0  0  0  0  0  0  0  0
  -26.1590  -13.0310   20.1340 N   0  0  0  0  0  0  0  0  0  0  0  0
  -25.8390  -11.7380   20.3920 N   0  0  0  0  0  0  0  0  0  0  0  0
  -23.8670  -10.4690   20.9600 C   0  0  0  0  0  0  0  0  0  0  0  0
  -24.3380   -9.5040   21.8770 C   0  0  0  0  0  3  0  0  0  0  0  0
  -23.6380   -8.2930   22.0640 C   0  0  0  0  0  3  0  0  0  0  0  0
  -22.4540   -8.0380   21.3330 C   0  0  0  0  0  0  0  0  0  0  0  0
  -22.0000   -8.9920   20.4050 C   0  0  0  0  0  3  0  0  0  0  0  0
  -22.7030  -10.1940   20.2160 C   0  0  0  0  0  3  0  0  0  0  0  0
  -21.7260   -6.8770   21.4300 O   0  0  0  0  0  0  0  0  0  0  0  0
  -21.7010   -6.1350   22.5830 C   0  0  0  0  0  0  0  0  0  0  0  0
  -21.2700   -6.6830   23.8110 C   0  0  0  0  0  3  0  0  0  0  0  0
  -21.1940   -5.8680   24.9580 C   0  0  0  0  0  3  0  0  0  0  0  0
  -21.5380   -4.5060   24.8780 C   0  0  0  0  0  0  0  0  0  0  0  0
  -21.9640   -3.9570   23.6560 C   0  0  0  0  0  3  0  0  0  0  0  0
  -22.0420   -4.7690   22.5110 C   0  0  0  0  0  0  0  0  0  0  0  0
  -22.4310   -4.2310   21.3300 F   0  0  0  0  0  0  0  0  0  0  0  0
  -21.4570   -3.7210   25.9780 F   0  0  0  0  0  0  0  0  0  0  0  0
  -22.6880  -13.5370   21.1850 C   0  0  0  0  0  0  0  0  0  0  0  0
  -22.0090  -12.8150   22.0680 N   0  0  0  0  0  0  0  0  0  0  0  0
  -22.2120  -14.5680   20.7090 O   0  0  0  0  0  0  0  0  0  0  0  0
  -22.4060  -11.9840   22.4820 H   0  0  0  0  0  0  0  0  0  0  0  0
  -21.0790  -13.1010   22.3380 H   0  0  0  0  0  0  0  0  0  0  0  0
  -25.2360  -15.2590   20.2670 N   0  0  0  0  0  0  0  0  0  0  0  0
  -24.4480  -15.8860   20.3930 H   0  0  0  0  0  0  0  0  0  0  0  0
  -26.0360  -15.7150   19.8520 H   0  0  0  0  0  0  0  0  0  0  0  0
  -26.9120  -18.3000   19.8970 C   0  0  0  0  0  1  0  0  0  0  0  0
  -28.2790  -18.3980   19.2090 C   0  0  0  0  0  2  0  0  0  0  0  0
  -28.9660  -21.2940   20.0840 C   0  0  0  0  0  2  0  0  0  0  0  0
  -28.3850  -23.8350   20.2380 C   0  0  0  0  0  0  0  0  0  0  0  0
  -30.6670  -23.1030   20.7220 C   0  0  0  0  0  1  0  0  0  0  0  0
  -29.2660  -22.7670   20.4580 N   0  0  0  0  0  0  0  0  0  0  0  0
  -27.3790  -23.6570   19.5440 O   0  0  0  0  0  0  0  0  0  0  0  0
  -28.5070  -25.2740   20.9560 C   0  0  0  0  0  2  0  0  0  0  0  0
  -28.4530  -26.5360   20.1500 O   0  0  0  0  0  0  0  0  0  0  0  0
  -24.6260  -31.9060   23.2400 C   0  0  0  0  0  0  0  0  0  0  0  0
  -27.3200  -27.3720   20.1980 C   0  0  0  0  0  0  0  0  0  0  0  0
  -23.4510  -30.5040   21.5810 C   0  0  0  0  0  3  0  0  0  0  0  0
  -24.9330  -28.9690   20.1640 C   0  0  0  0  0  0  0  0  0  0  0  0
  -25.9880  -30.8500   21.4170 C   0  0  0  0  0  2  0  0  0  0  0  0
  -26.0930  -29.4690   20.7720 C   0  0  0  0  0  0  0  0  0  0  0  0
  -27.2890  -28.6860   20.7750 C   0  0  0  0  0  3  0  0  0  0  0  0
  -26.1390  -26.9260   19.5710 C   0  0  0  0  0  3  0  0  0  0  0  0
  -24.9600  -27.7030   19.5530 C   0  0  0  0  0  3  0  0  0  0  0  0
  -23.6870  -29.8340   20.2010 C   0  0  0  0  0  2  0  0  0  0  0  0
  -24.7070  -31.1060   22.1360 N   0  0  0  0  0  0  0  0  0  0  0  0
  -23.5370  -32.1660   23.7700 O   0  0  0  0  0  0  0  0  0  0  0  0
  -22.7920  -29.4750   22.5320 C   0  0  0  0  0  0  0  0  0  0  0  0
  -21.4670  -29.2970   22.4090 N   0  0  0  0  0  0  0  0  0  0  0  0
  -23.4740  -28.8410   23.3430 O   0  0  0  0  0  0  0  0  0  0  0  0
  -20.9750  -29.8600   21.7280 H   0  0  0  0  0  0  0  0  0  0  0  0
  -18.0910  -28.0970   22.9170 C   0  0  0  0  0  0  0  0  0  0  0  0
  -20.6520  -28.3480   23.1700 C   0  0  0  0  0  3  0  0  0  0  0  0
  -20.7470  -26.9250   22.5710 C   0  0  0  0  0  2  0  0  0  0  0  0
  -19.6360  -26.6230   21.5600 C   0  0  0  0  0  2  0  0  0  0  0  0
  -18.2590  -26.7590   22.2160 C   0  0  0  0  0  2  0  0  0  0  0  0
  -19.2140  -28.8500   23.3520 C   0  0  0  0  0  0  0  0  0  0  0  0
  -19.0010  -30.1010   23.9670 C   0  0  0  0  0  3  0  0  0  0  0  0
  -17.6980  -30.6000   24.1540 C   0  0  0  0  0  3  0  0  0  0  0  0
  -16.5900  -29.8440   23.7350 C   0  0  0  0  0  3  0  0  0  0  0  0
  -16.7870  -28.5940   23.1230 C   0  0  0  0  0  3  0  0  0  0  0  0
  -25.8970  -32.5500   23.8750 C   0  0  0  0  0  3  0  0  0  0  0  0
  -26.4010  -31.7870   25.1630 C   0  0  1  0  0  0  0  0  0  0  0  0
  -25.2970  -31.5490   26.2200 C   0  0  0  0  0  1  0  0  0  0  0  0
  -26.9970  -30.4120   24.7850 C   0  0  0  0  0  1  0  0  0  0  0  0
  -27.5390  -32.5910   25.8350 C   0  0  0  0  0  1  0  0  0  0  0  0
  -25.5750  -33.9470   24.1980 N   0  0  0  0  0  0  0  0  0  0  0  0
  -25.8960  -34.9990   23.4340 C   0  0  0  0  0  0  0  0  0  0  0  0
  -26.5660  -34.8960   22.4020 O   0  0  0  0  0  0  0  0  0  0  0  0
  -24.9820  -34.1000   25.0010 H   0  0  0  0  0  0  0  0  0  0  0  0
  -24.1510  -36.7740   23.0740 C   0  0  0  0  0  1  0  0  0  0  0  0
  -25.3970  -36.3860   23.8840 C   0  0  0  0  0  3  0  0  0  0  0  0
  -27.5260  -37.2960   24.7040 C   0  0  0  0  0  1  0  0  0  0  0  0
  -26.4190  -37.4490   23.7630 N   0  0  0  0  0  0  0  0  0  0  0  0
  -26.0030  -38.3650   23.9090 H   0  0  0  0  0  0  0  0  0  0  0  0
  1  2  1  0
  3  1  2  0
  4  3  1  0
  4  5  2  0
  5  6  1  0
  6  2  2  0
  6  7  1  0
  8 16  1  0
  9 14  1  0
 10 11  1  0
 10  9  1  0
 12 11  1  0
 12 21  1  0
 12 13  1  0
 14  8  1  0
 14 13  1  0
 15  8  2  0
 16 17  1  0
 16  5  1  0
 18 19  2  0
 19 38  1  0
 20 19  1  0
 20 23  1  0
 21 22  1  0
 21 18  1  0
 22 20  2  0
 23 24  1  0
 24 25  2  0
 26 29  1  0
 26 25  1  0
 27 26  2  0
 28 27  1  0
 28 23  2  0
 29 30  1  0
 30 31  1  0
 31 32  2  0
 33 32  1  0
 33 37  1  0
 34 33  2  0
 35 30  2  0
 35 34  1  0
 36 35  1  0
 38 39  1  0
 39 42  1  0
 39 41  1  0
 40 38  2  0
 43 44  1  0
 43 18  1  0
 45 43  1  0
 47 46  1  0
 47  4  1  0
 48 51  1  0
 48  3  1  0
 49 51  1  0
 49 53  1  0
 51 50  1  0
 52 49  2  0
 54 56  1  0
 54 53  1  0
 55 66  2  0
 56 61  1  0
 57 65  1  0
 57 67  1  0
 58 64  1  0
 58 60  1  0
 59 65  1  0
 60 61  2  0
 60 59  1  0
 62 56  2  0
 63 62  1  0
 63 58  2  0
 64 57  1  0
 65 55  1  0
 67 69  2  0
 68 67  1  0
 70 68  1  0
 71 80  2  0
 71 76  1  0
 72 68  1  0
 72 76  1  0
 73 72  1  0
 74 75  1  0
 74 73  1  0
 75 71  1  0
 76 77  2  0
 77 78  1  0
 79 78  2  0
 80 79  1  0
 81 55  1  0
 81 86  1  0
 81 82  1  0
 82 85  1  1
 82 83  1  0
 84 82  1  0
 86 89  1  0
 87 91  1  0
 87 86  1  0
 88 87  2  0
 91 90  1  0
 93 91  1  0
 93 94  1  0
 93 92  1  0
M  ISO  4   8 100  16 100  53 101  54 101
M  END
>  <TORSDO>  (67) 
F 20

>  <SCORE>  (67) 
-13.968

>  <name>  (67) 
66

>  <ligand_id>  (67) 
66

>  <original_smiles>  (67) 
[H]c1c([H])c([H])c2c(c1[H])C([H])([H])C([H])([H])C([H])([H])C2([H])N([H])C(=O)C1([H])N(C(=O)C([H])(N([H])C(=O)C([H])(N([H])C([H])([H])[H])C([H])([H])[H])C(C([H])([H])[H])(C([H])([H])[H])C([H])([H])[H])C([H])([H])c2c([H])c(OC([H])([H])C(=O)N(C([H])([H])[H])C([H])([H])c3c([H])c([H])c(F)c(N([H])C(=O)N4C([H])([H])C([H])([H])C([H])([H])C([H])(n5nc(-c6c([H])c([H])c(Oc7c([H])c([H])c(F)c([H])c7F)c([H])c6[H])c(C(=O)N([H])[H])c5N([H])[H])C4([H])[H])c3C([H])([H])C([H])([H])[H])c([H])c([H])c2C1([H])[H]

>  <smiles>  (67) 
[H]c1c([H])c([H])c2c(c1[H])C([H])([H])C([H])([H])C([H])([H])C2([H])N([H])C(=O)C1([H])N(C(=O)C([H])(N([H])C(=O)C([H])(N([H])C([H])([H])[H])C([H])([H])[H])C(C([H])([H])[H])(C([H])([H])[H])C([H])([H])[H])C([H])([H])c2c([H])c(OC([H])([H])C(=O)N(C([H])([H])[H])C([H])([H])c3c([H])c([H])c(F)c(N([H])C(=O)N4C([H])([H])C([H])([H])C([H])([H])C([H])(n5nc(-c6c([H])c([H])c(Oc7c([H])c([H])c(F)c([H])c7F)c([H])c6[H])c(C(=O)N([H])[H])c5N([H])[H])C4([H])[H])c3C([H])([H])C([H])([H])[H])c([H])c([H])c2C1([H])[H]

$$$$
67:0:0
     RDKit          3D

 94103  0  0  1  0  0  0  0  0999 V2000
  -28.2930  -23.7450   20.3850 C   0  0  0  0  0  0  0  0  0  0  0  0
  -30.6230  -23.8030   18.7330 C   0  0  0  0  0  2  0  0  0  0  0  0
  -29.9330  -25.1680   18.9530 C   0  0  0  0  0  2  0  0  0  0  0  0
  -29.6310  -22.6250   18.6770 C   0  0  0  0  0  2  0  0  0  0  0  0
  -28.5090  -25.1160   19.5610 C   0  0  0  0  0  3  0  0  0  0  0  0
  -28.8250  -22.5430   19.9020 N   0  0  0  0  0  0  0  0  0  0  0  0
  -27.6030  -23.7800   21.4080 O   0  0  0  0  0  0  0  0  0  0  0  0
  -28.3390  -26.4400   20.2560 O   0  0  0  0  0  0  0  0  0  0  0  0
  -24.6330  -31.8940   23.2300 C   0  0  0  0  0  0  0  0  0  0  0  0
  -27.2130  -27.2900   20.1610 C   0  0  0  0  0  0  0  0  0  0  0  0
  -23.4190  -30.4950   21.5980 C   0  0  0  0  0  3  0  0  0  0  0  0
  -24.8560  -28.9380   20.1590 C   0  0  0  0  0  0  0  0  0  0  0  0
  -25.9610  -30.7990   21.4010 C   0  0  0  0  0  2  0  0  0  0  0  0
  -26.0290  -29.4180   20.7500 C   0  0  0  0  0  0  0  0  0  0  0  0
  -27.2060  -28.6050   20.7420 C   0  0  0  0  0  3  0  0  0  0  0  0
  -26.0110  -26.8690   19.5500 C   0  0  0  0  0  3  0  0  0  0  0  0
  -24.8500  -27.6720   19.5500 C   0  0  0  0  0  3  0  0  0  0  0  0
  -23.6210  -29.8180   20.2150 C   0  0  0  0  0  2  0  0  0  0  0  0
  -24.6910  -31.0840   22.1310 N   0  0  0  0  0  0  0  0  0  0  0  0
  -23.5530  -32.1730   23.7710 O   0  0  0  0  0  0  0  0  0  0  0  0
  -22.7570  -29.4840   22.5650 C   0  0  0  0  0  0  0  0  0  0  0  0
  -21.4300  -29.3090   22.4480 N   0  0  0  0  0  0  0  0  0  0  0  0
  -23.4390  -28.8600   23.3820 O   0  0  0  0  0  0  0  0  0  0  0  0
  -20.9410  -29.8620   21.7590 H   0  0  0  0  0  0  0  0  0  0  0  0
  -18.0560  -28.1060   22.9580 C   0  0  0  0  0  0  0  0  0  0  0  0
  -20.6140  -28.3720   23.2210 C   0  0  0  0  0  3  0  0  0  0  0  0
  -20.7200  -26.9390   22.6510 C   0  0  0  0  0  2  0  0  0  0  0  0
  -19.6170  -26.6110   21.6390 C   0  0  0  0  0  2  0  0  0  0  0  0
  -18.2350  -26.7560   22.2840 C   0  0  0  0  0  2  0  0  0  0  0  0
  -19.1740  -28.8730   23.3830 C   0  0  0  0  0  0  0  0  0  0  0  0
  -18.9520  -30.1380   23.9690 C   0  0  0  0  0  3  0  0  0  0  0  0
  -17.6460  -30.6350   24.1390 C   0  0  0  0  0  3  0  0  0  0  0  0
  -16.5430  -29.8670   23.7280 C   0  0  0  0  0  3  0  0  0  0  0  0
  -16.7480  -28.6050   23.1420 C   0  0  0  0  0  3  0  0  0  0  0  0
  -25.9200  -32.5250   23.8460 C   0  0  0  0  0  3  0  0  0  0  0  0
  -25.6100  -33.9230   24.1880 N   0  0  0  0  0  0  0  0  0  0  0  0
  -25.9290  -34.9810   23.4320 C   0  0  0  0  0  0  0  0  0  0  0  0
  -26.5850  -34.8840   22.3900 O   0  0  0  0  0  0  0  0  0  0  0  0
  -25.0300  -34.0730   24.9990 H   0  0  0  0  0  0  0  0  0  0  0  0
  -24.1880  -36.7700   23.1210 C   0  0  0  0  0  1  0  0  0  0  0  0
  -25.4470  -36.3660   23.9050 C   0  0  0  0  0  3  0  0  0  0  0  0
  -27.5940  -37.2560   24.7000 C   0  0  0  0  0  1  0  0  0  0  0  0
  -26.4740  -37.4240   23.7770 N   0  0  0  0  0  0  0  0  0  0  0  0
  -26.0660  -38.3410   23.9350 H   0  0  0  0  0  0  0  0  0  0  0  0
  -26.4450  -31.7510   25.1180 C   0  0  1  0  0  0  0  0  0  0  0  0
  -25.3590  -31.5100   26.1920 C   0  0  0  0  0  1  0  0  0  0  0  0
  -27.0260  -30.3750   24.7190 C   0  0  0  0  0  1  0  0  0  0  0  0
  -27.6010  -32.5420   25.7730 C   0  0  0  0  0  1  0  0  0  0  0  0
  -28.4420  -21.1100   20.3200 C   0  0  0  0  0  2  0  0  0  0  0  0
  -31.7780  -19.1750   20.9290 C   0  0  0  0  0  3  0  0  0  0  0  0
  -30.8230  -20.1940   20.7480 C   0  0  0  0  0  3  0  0  0  0  0  0
  -31.4340  -17.8100   20.8520 C   0  0  0  0  0  3  0  0  0  0  0  0
  -29.4790  -19.8920   20.4550 C   0  0  0  0  0  0  0  0  0  0  0  0
  -29.1420  -18.4670   20.3660 C   0  0  0  0  0  0  0  0  0  0  0  0
  -30.1140  -17.3880   20.5730 C   0  0  0  0  0  0  0  0  0  0  0  0
  -27.7080  -18.0990   20.0250 C   0  0  0  0  0  1  0  0  0  0  0  0
  -30.5870  -14.7920   20.3670 C   0  0  0  0  0  0  0  0  0  0  0  0
  -30.3980  -12.5160   19.3490 C   0  0  0  0  0  2  0  0  0  0  0  0
  -29.4580  -12.5840   18.1260 C   0  0  0  0  0  2  0  0  0  0  0  0
  -27.9920  -12.3940   18.5620 C   0  0  0  0  0  2  0  0  0  0  0  0
  -27.6120  -13.2800   19.7780 C   0  0  0  0  0  3  0  0  0  0  0  0
  -28.6720  -13.2020   20.8990 C   0  0  0  0  0  2  0  0  0  0  0  0
  -29.9640  -13.5650   20.3020 N   0  0  0  0  0  0  0  0  0  0  0  0
  -31.7770  -14.8760   20.0450 O   0  0  0  0  0  0  0  0  0  0  0  0
  -29.7970  -15.9260   20.5590 N   0  0  0  0  0  0  0  0  0  0  0  0
  -28.8230  -15.7060   20.6910 H   0  0  0  0  0  0  0  0  0  0  0  0
  -25.2180  -13.8510   20.4990 C   0  0  0  0  0  0  0  0  0  0  0  0
  -24.1610  -13.0700   20.8720 C   0  0  0  0  0  0  0  0  0  0  0  0
  -24.6380  -11.7230   20.8500 C   0  0  0  0  0  0  0  0  0  0  0  0
  -26.2720  -12.9810   20.2690 N   0  0  0  0  0  0  0  0  0  0  0  0
  -25.9300  -11.6950   20.5440 N   0  0  0  0  0  0  0  0  0  0  0  0
  -23.9240  -10.4540   21.0420 C   0  0  0  0  0  0  0  0  0  0  0  0
  -24.3630   -9.4940   21.9790 C   0  0  0  0  0  3  0  0  0  0  0  0
  -23.6470   -8.2900   22.1600 C   0  0  0  0  0  3  0  0  0  0  0  0
  -22.4790   -8.0400   21.4010 C   0  0  0  0  0  0  0  0  0  0  0  0
  -22.0590   -8.9890   20.4530 C   0  0  0  0  0  3  0  0  0  0  0  0
  -22.7750  -10.1840   20.2710 C   0  0  0  0  0  3  0  0  0  0  0  0
  -21.7340   -6.8890   21.4910 O   0  0  0  0  0  0  0  0  0  0  0  0
  -21.6880   -6.1490   22.6450 C   0  0  0  0  0  0  0  0  0  0  0  0
  -21.2520   -6.7040   23.8680 C   0  0  0  0  0  3  0  0  0  0  0  0
  -21.1550   -5.8920   25.0160 C   0  0  0  0  0  3  0  0  0  0  0  0
  -21.4820   -4.5250   24.9400 C   0  0  0  0  0  0  0  0  0  0  0  0
  -21.9120   -3.9680   23.7220 C   0  0  0  0  0  3  0  0  0  0  0  0
  -22.0100   -4.7790   22.5770 C   0  0  0  0  0  0  0  0  0  0  0  0
  -22.4030   -4.2350   21.4000 F   0  0  0  0  0  0  0  0  0  0  0  0
  -21.3800   -3.7410   26.0380 F   0  0  0  0  0  0  0  0  0  0  0  0
  -22.7600  -13.5350   21.1360 C   0  0  0  0  0  0  0  0  0  0  0  0
  -22.0350  -12.8370   22.0030 N   0  0  0  0  0  0  0  0  0  0  0  0
  -22.3140  -14.5530   20.6080 O   0  0  0  0  0  0  0  0  0  0  0  0
  -22.4070  -12.0120   22.4500 H   0  0  0  0  0  0  0  0  0  0  0  0
  -21.0960  -13.1330   22.2270 H   0  0  0  0  0  0  0  0  0  0  0  0
  -25.3660  -15.2210   20.3060 N   0  0  0  0  0  0  0  0  0  0  0  0
  -24.5800  -15.8560   20.3820 H   0  0  0  0  0  0  0  0  0  0  0  0
  -26.1790  -15.6460   19.8840 H   0  0  0  0  0  0  0  0  0  0  0  0
  1  7  2  0
  2  3  1  0
  3  5  1  0
  4  2  1  0
  4  6  1  0
  5  8  1  0
  5  1  1  0
  6 49  1  0
  6  1  1  0
  9 20  2  0
 10  8  1  0
 10 15  1  0
 11 19  1  0
 11 21  1  0
 12 18  1  0
 12 14  1  0
 13 19  1  0
 14 13  1  0
 15 14  2  0
 16 10  2  0
 17 16  1  0
 17 12  2  0
 18 11  1  0
 19  9  1  0
 21 23  2  0
 22 21  1  0
 24 22  1  0
 25 34  2  0
 25 30  1  0
 26 22  1  0
 26 30  1  0
 27 26  1  0
 28 29  1  0
 28 27  1  0
 29 25  1  0
 30 31  2  0
 31 32  1  0
 33 32  2  0
 34 33  1  0
 35  9  1  0
 35 36  1  0
 35 45  1  0
 36 39  1  0
 37 41  1  0
 37 36  1  0
 38 37  2  0
 41 40  1  0
 43 41  1  0
 43 44  1  0
 43 42  1  0
 45 48  1  1
 45 46  1  0
 47 45  1  0
 49 53  1  0
 51 50  2  0
 52 50  1  0
 53 51  1  0
 54 53  2  0
 54 55  1  0
 55 52  2  0
 56 54  1  0
 57 65  1  0
 58 63  1  0
 59 60  1  0
 59 58  1  0
 61 60  1  0
 61 70  1  0
 61 62  1  0
 63 57  1  0
 63 62  1  0
 64 57  2  0
 65 55  1  0
 65 66  1  0
 67 68  2  0
 68 87  1  0
 69 68  1  0
 69 72  1  0
 70 67  1  0
 70 71  1  0
 71 69  2  0
 72 73  1  0
 73 74  2  0
 75 78  1  0
 75 74  1  0
 76 75  2  0
 77 76  1  0
 77 72  2  0
 78 79  1  0
 79 80  1  0
 80 81  2  0
 82 81  1  0
 82 86  1  0
 83 82  2  0
 84 79  2  0
 84 83  1  0
 85 84  1  0
 87 88  1  0
 88 91  1  0
 88 90  1  0
 89 87  2  0
 92 93  1  0
 92 67  1  0
 94 92  1  0
M  ISO  4   5 101   8 101  57 100  65 100
M  END
>  <TORSDO>  (68) 
F 18

>  <SCORE>  (68) 
-15.146

>  <name>  (68) 
67

>  <ligand_id>  (68) 
67

>  <original_smiles>  (68) 
[H]c1c([H])c(N([H])C(=O)N2C([H])([H])C([H])([H])C([H])([H])C([H])(n3nc(-c4c([H])c([H])c(Oc5c([H])c([H])c(F)c([H])c5F)c([H])c4[H])c(C(=O)N([H])[H])c3N([H])[H])C2([H])[H])c(C([H])([H])[H])c(C([H])([H])N2C(=O)C([H])(Oc3c([H])c([H])c4c(c3[H])C([H])([H])N(C(=O)C([H])(N([H])C(=O)C([H])(N([H])C([H])([H])[H])C([H])([H])[H])C(C([H])([H])[H])(C([H])([H])[H])C([H])([H])[H])C([H])(C(=O)N([H])C3([H])c5c([H])c([H])c([H])c([H])c5C([H])([H])C([H])([H])C3([H])[H])C4([H])[H])C([H])([H])C([H])([H])C2([H])[H])c1[H]

>  <smiles>  (68) 
[H]c1c([H])c(N([H])C(=O)N2C([H])([H])C([H])([H])C([H])([H])C([H])(n3nc(-c4c([H])c([H])c(Oc5c([H])c([H])c(F)c([H])c5F)c([H])c4[H])c(C(=O)N([H])[H])c3N([H])[H])C2([H])[H])c(C([H])([H])[H])c(C([H])([H])N2C(=O)C([H])(Oc3c([H])c([H])c4c(c3[H])C([H])([H])N(C(=O)C([H])(N([H])C(=O)C([H])(N([H])C([H])([H])[H])C([H])([H])[H])C(C([H])([H])[H])(C([H])([H])[H])C([H])([H])[H])C([H])(C(=O)N([H])C3([H])c5c([H])c([H])c([H])c([H])c5C([H])([H])C([H])([H])C3([H])[H])C4([H])[H])C([H])([H])C([H])([H])C2([H])[H])c1[H]

$$$$
68:0:0
     RDKit          3D

 94103  0  0  1  0  0  0  0  0999 V2000
  -28.2930  -23.7450   20.3850 C   0  0  0  0  0  0  0  0  0  0  0  0
  -30.6230  -23.8030   18.7330 C   0  0  0  0  0  2  0  0  0  0  0  0
  -29.9330  -25.1680   18.9530 C   0  0  0  0  0  2  0  0  0  0  0  0
  -29.6310  -22.6250   18.6770 C   0  0  0  0  0  2  0  0  0  0  0  0
  -28.5090  -25.1160   19.5610 C   0  0  0  0  0  3  0  0  0  0  0  0
  -28.8250  -22.5430   19.9020 N   0  0  0  0  0  0  0  0  0  0  0  0
  -27.6030  -23.7800   21.4080 O   0  0  0  0  0  0  0  0  0  0  0  0
  -28.3390  -26.4400   20.2560 O   0  0  0  0  0  0  0  0  0  0  0  0
  -24.6330  -31.8940   23.2300 C   0  0  0  0  0  0  0  0  0  0  0  0
  -27.2130  -27.2900   20.1610 C   0  0  0  0  0  0  0  0  0  0  0  0
  -23.4190  -30.4950   21.5980 C   0  0  0  0  0  3  0  0  0  0  0  0
  -24.8560  -28.9380   20.1590 C   0  0  0  0  0  0  0  0  0  0  0  0
  -25.9610  -30.7990   21.4010 C   0  0  0  0  0  2  0  0  0  0  0  0
  -26.0290  -29.4180   20.7500 C   0  0  0  0  0  0  0  0  0  0  0  0
  -27.2060  -28.6050   20.7420 C   0  0  0  0  0  3  0  0  0  0  0  0
  -26.0110  -26.8690   19.5500 C   0  0  0  0  0  3  0  0  0  0  0  0
  -24.8500  -27.6720   19.5500 C   0  0  0  0  0  3  0  0  0  0  0  0
  -23.6210  -29.8180   20.2150 C   0  0  0  0  0  2  0  0  0  0  0  0
  -24.6910  -31.0840   22.1310 N   0  0  0  0  0  0  0  0  0  0  0  0
  -23.5530  -32.1730   23.7710 O   0  0  0  0  0  0  0  0  0  0  0  0
  -22.7570  -29.4840   22.5650 C   0  0  0  0  0  0  0  0  0  0  0  0
  -21.4300  -29.3090   22.4480 N   0  0  0  0  0  0  0  0  0  0  0  0
  -23.4390  -28.8600   23.3820 O   0  0  0  0  0  0  0  0  0  0  0  0
  -20.9410  -29.8620   21.7590 H   0  0  0  0  0  0  0  0  0  0  0  0
  -18.0560  -28.1060   22.9580 C   0  0  0  0  0  0  0  0  0  0  0  0
  -20.6140  -28.3720   23.2210 C   0  0  0  0  0  3  0  0  0  0  0  0
  -20.7200  -26.9390   22.6510 C   0  0  0  0  0  2  0  0  0  0  0  0
  -19.6170  -26.6110   21.6390 C   0  0  0  0  0  2  0  0  0  0  0  0
  -18.2350  -26.7560   22.2840 C   0  0  0  0  0  2  0  0  0  0  0  0
  -19.1740  -28.8730   23.3830 C   0  0  0  0  0  0  0  0  0  0  0  0
  -18.9520  -30.1380   23.9690 C   0  0  0  0  0  3  0  0  0  0  0  0
  -17.6460  -30.6350   24.1390 C   0  0  0  0  0  3  0  0  0  0  0  0
  -16.5430  -29.8670   23.7280 C   0  0  0  0  0  3  0  0  0  0  0  0
  -16.7480  -28.6050   23.1420 C   0  0  0  0  0  3  0  0  0  0  0  0
  -25.9200  -32.5250   23.8460 C   0  0  0  0  0  3  0  0  0  0  0  0
  -25.6100  -33.9230   24.1880 N   0  0  0  0  0  0  0  0  0  0  0  0
  -25.9290  -34.9810   23.4320 C   0  0  0  0  0  0  0  0  0  0  0  0
  -26.5850  -34.8840   22.3900 O   0  0  0  0  0  0  0  0  0  0  0  0
  -25.0300  -34.0730   24.9990 H   0  0  0  0  0  0  0  0  0  0  0  0
  -24.1880  -36.7700   23.1210 C   0  0  0  0  0  1  0  0  0  0  0  0
  -25.4470  -36.3660   23.9050 C   0  0  0  0  0  3  0  0  0  0  0  0
  -27.5940  -37.2560   24.7000 C   0  0  0  0  0  1  0  0  0  0  0  0
  -26.4740  -37.4240   23.7770 N   0  0  0  0  0  0  0  0  0  0  0  0
  -26.0660  -38.3410   23.9350 H   0  0  0  0  0  0  0  0  0  0  0  0
  -26.4450  -31.7510   25.1180 C   0  0  1  0  0  0  0  0  0  0  0  0
  -25.3590  -31.5100   26.1920 C   0  0  0  0  0  1  0  0  0  0  0  0
  -27.0260  -30.3750   24.7190 C   0  0  0  0  0  1  0  0  0  0  0  0
  -27.6010  -32.5420   25.7730 C   0  0  0  0  0  1  0  0  0  0  0  0
  -28.4420  -21.1100   20.3200 C   0  0  0  0  0  2  0  0  0  0  0  0
  -31.7780  -19.1750   20.9290 C   0  0  0  0  0  3  0  0  0  0  0  0
  -30.8230  -20.1940   20.7480 C   0  0  0  0  0  3  0  0  0  0  0  0
  -31.4340  -17.8100   20.8520 C   0  0  0  0  0  3  0  0  0  0  0  0
  -29.4790  -19.8920   20.4550 C   0  0  0  0  0  0  0  0  0  0  0  0
  -29.1420  -18.4670   20.3660 C   0  0  0  0  0  0  0  0  0  0  0  0
  -30.1140  -17.3880   20.5730 C   0  0  0  0  0  0  0  0  0  0  0  0
  -27.7080  -18.0990   20.0250 C   0  0  0  0  0  1  0  0  0  0  0  0
  -30.5870  -14.7920   20.3670 C   0  0  0  0  0  0  0  0  0  0  0  0
  -30.3980  -12.5160   19.3490 C   0  0  0  0  0  2  0  0  0  0  0  0
  -29.4580  -12.5840   18.1260 C   0  0  0  0  0  2  0  0  0  0  0  0
  -27.9920  -12.3940   18.5620 C   0  0  0  0  0  2  0  0  0  0  0  0
  -27.6120  -13.2800   19.7780 C   0  0  0  0  0  3  0  0  0  0  0  0
  -28.6720  -13.2020   20.8990 C   0  0  0  0  0  2  0  0  0  0  0  0
  -29.9640  -13.5650   20.3020 N   0  0  0  0  0  0  0  0  0  0  0  0
  -31.7770  -14.8760   20.0450 O   0  0  0  0  0  0  0  0  0  0  0  0
  -29.7970  -15.9260   20.5590 N   0  0  0  0  0  0  0  0  0  0  0  0
  -28.8230  -15.7060   20.6910 H   0  0  0  0  0  0  0  0  0  0  0  0
  -25.2180  -13.8510   20.4990 C   0  0  0  0  0  0  0  0  0  0  0  0
  -24.1610  -13.0700   20.8720 C   0  0  0  0  0  0  0  0  0  0  0  0
  -24.6380  -11.7230   20.8500 C   0  0  0  0  0  0  0  0  0  0  0  0
  -26.2720  -12.9810   20.2690 N   0  0  0  0  0  0  0  0  0  0  0  0
  -25.9300  -11.6950   20.5440 N   0  0  0  0  0  0  0  0  0  0  0  0
  -23.9240  -10.4540   21.0420 C   0  0  0  0  0  0  0  0  0  0  0  0
  -24.3630   -9.4940   21.9790 C   0  0  0  0  0  3  0  0  0  0  0  0
  -23.6470   -8.2900   22.1600 C   0  0  0  0  0  3  0  0  0  0  0  0
  -22.4790   -8.0400   21.4010 C   0  0  0  0  0  0  0  0  0  0  0  0
  -22.0590   -8.9890   20.4530 C   0  0  0  0  0  3  0  0  0  0  0  0
  -22.7750  -10.1840   20.2710 C   0  0  0  0  0  3  0  0  0  0  0  0
  -21.7340   -6.8890   21.4910 O   0  0  0  0  0  0  0  0  0  0  0  0
  -21.6880   -6.1490   22.6450 C   0  0  0  0  0  0  0  0  0  0  0  0
  -21.2520   -6.7040   23.8680 C   0  0  0  0  0  3  0  0  0  0  0  0
  -21.1550   -5.8920   25.0160 C   0  0  0  0  0  3  0  0  0  0  0  0
  -21.4820   -4.5250   24.9400 C   0  0  0  0  0  0  0  0  0  0  0  0
  -21.9120   -3.9680   23.7220 C   0  0  0  0  0  3  0  0  0  0  0  0
  -22.0100   -4.7790   22.5770 C   0  0  0  0  0  0  0  0  0  0  0  0
  -22.4030   -4.2350   21.4000 F   0  0  0  0  0  0  0  0  0  0  0  0
  -21.3800   -3.7410   26.0380 F   0  0  0  0  0  0  0  0  0  0  0  0
  -22.7600  -13.5350   21.1360 C   0  0  0  0  0  0  0  0  0  0  0  0
  -22.0350  -12.8370   22.0030 N   0  0  0  0  0  0  0  0  0  0  0  0
  -22.3140  -14.5530   20.6080 O   0  0  0  0  0  0  0  0  0  0  0  0
  -22.4070  -12.0120   22.4500 H   0  0  0  0  0  0  0  0  0  0  0  0
  -21.0960  -13.1330   22.2270 H   0  0  0  0  0  0  0  0  0  0  0  0
  -25.3660  -15.2210   20.3060 N   0  0  0  0  0  0  0  0  0  0  0  0
  -24.5800  -15.8560   20.3820 H   0  0  0  0  0  0  0  0  0  0  0  0
  -26.1790  -15.6460   19.8840 H   0  0  0  0  0  0  0  0  0  0  0  0
  1  7  2  0
  2  3  1  0
  3  5  1  0
  4  2  1  0
  4  6  1  0
  5  8  1  0
  5  1  1  0
  6 49  1  0
  6  1  1  0
  9 20  2  0
 10  8  1  0
 10 15  1  0
 11 19  1  0
 11 21  1  0
 12 18  1  0
 12 14  1  0
 13 19  1  0
 14 13  1  0
 15 14  2  0
 16 10  2  0
 17 16  1  0
 17 12  2  0
 18 11  1  0
 19  9  1  0
 21 23  2  0
 22 21  1  0
 24 22  1  0
 25 34  2  0
 25 30  1  0
 26 22  1  0
 26 30  1  0
 27 26  1  0
 28 29  1  0
 28 27  1  0
 29 25  1  0
 30 31  2  0
 31 32  1  0
 33 32  2  0
 34 33  1  0
 35  9  1  0
 35 36  1  0
 35 45  1  0
 36 39  1  0
 37 41  1  0
 37 36  1  0
 38 37  2  0
 41 40  1  0
 43 41  1  0
 43 44  1  0
 43 42  1  0
 45 48  1  1
 45 46  1  0
 47 45  1  0
 49 53  1  0
 51 50  2  0
 52 50  1  0
 53 51  1  0
 54 53  2  0
 54 55  1  0
 55 52  2  0
 56 54  1  0
 57 65  1  0
 58 63  1  0
 59 60  1  0
 59 58  1  0
 61 60  1  0
 61 70  1  0
 61 62  1  0
 63 57  1  0
 63 62  1  0
 64 57  2  0
 65 55  1  0
 65 66  1  0
 67 68  2  0
 68 87  1  0
 69 68  1  0
 69 72  1  0
 70 67  1  0
 70 71  1  0
 71 69  2  0
 72 73  1  0
 73 74  2  0
 75 78  1  0
 75 74  1  0
 76 75  2  0
 77 76  1  0
 77 72  2  0
 78 79  1  0
 79 80  1  0
 80 81  2  0
 82 81  1  0
 82 86  1  0
 83 82  2  0
 84 79  2  0
 84 83  1  0
 85 84  1  0
 87 88  1  0
 88 91  1  0
 88 90  1  0
 89 87  2  0
 92 93  1  0
 92 67  1  0
 94 92  1  0
M  ISO  4   5 101   8 101  57 100  65 100
M  END
>  <TORSDO>  (69) 
F 18

>  <SCORE>  (69) 
-15.146

>  <name>  (69) 
68

>  <ligand_id>  (69) 
68

>  <original_smiles>  (69) 
[H]c1c([H])c(N([H])C(=O)N2C([H])([H])C([H])([H])C([H])([H])C([H])(n3nc(-c4c([H])c([H])c(Oc5c([H])c([H])c(F)c([H])c5F)c([H])c4[H])c(C(=O)N([H])[H])c3N([H])[H])C2([H])[H])c(C([H])([H])[H])c(C([H])([H])N2C(=O)C([H])(Oc3c([H])c([H])c4c(c3[H])C([H])([H])N(C(=O)C([H])(N([H])C(=O)C([H])(N([H])C([H])([H])[H])C([H])([H])[H])C(C([H])([H])[H])(C([H])([H])[H])C([H])([H])[H])C([H])(C(=O)N([H])C3([H])c5c([H])c([H])c([H])c([H])c5C([H])([H])C([H])([H])C3([H])[H])C4([H])[H])C([H])([H])C([H])([H])C2([H])[H])c1[H]

>  <smiles>  (69) 
[H]c1c([H])c(N([H])C(=O)N2C([H])([H])C([H])([H])C([H])([H])C([H])(n3nc(-c4c([H])c([H])c(Oc5c([H])c([H])c(F)c([H])c5F)c([H])c4[H])c(C(=O)N([H])[H])c3N([H])[H])C2([H])[H])c(C([H])([H])[H])c(C([H])([H])N2C(=O)C([H])(Oc3c([H])c([H])c4c(c3[H])C([H])([H])N(C(=O)C([H])(N([H])C(=O)C([H])(N([H])C([H])([H])[H])C([H])([H])[H])C(C([H])([H])[H])(C([H])([H])[H])C([H])([H])[H])C([H])(C(=O)N([H])C3([H])c5c([H])c([H])c([H])c([H])c5C([H])([H])C([H])([H])C3([H])[H])C4([H])[H])C([H])([H])C([H])([H])C2([H])[H])c1[H]

$$$$
69:0:0
     RDKit          3D

 94103  0  0  1  0  0  0  0  0999 V2000
  -28.8760  -23.3720   20.2600 C   0  0  0  0  0  0  0  0  0  0  0  0
  -26.1120  -22.7120   19.9050 C   0  0  0  0  0  2  0  0  0  0  0  0
  -26.5180  -24.0970   20.4870 C   0  0  0  0  0  2  0  0  0  0  0  0
  -27.2650  -21.8620   19.2880 C   0  0  0  0  0  2  0  0  0  0  0  0
  -27.8400  -24.6420   19.8900 C   0  0  0  0  0  3  0  0  0  0  0  0
  -28.5390  -21.9930   20.0060 N   0  0  0  0  0  0  0  0  0  0  0  0
  -29.9320  -23.6480   20.8360 O   0  0  0  0  0  0  0  0  0  0  0  0
  -28.1160  -26.1690   20.2440 O   0  0  0  0  0  0  0  0  0  0  0  0
  -24.5720  -31.9360   23.2640 C   0  0  0  0  0  0  0  0  0  0  0  0
  -27.1110  -27.2230   20.1420 C   0  0  0  0  0  0  0  0  0  0  0  0
  -23.3650  -30.5770   21.6010 C   0  0  0  0  0  3  0  0  0  0  0  0
  -24.8070  -29.0260   20.1350 C   0  0  0  0  0  0  0  0  0  0  0  0
  -25.9260  -30.8130   21.4530 C   0  0  0  0  0  2  0  0  0  0  0  0
  -25.9880  -29.4320   20.7690 C   0  0  0  0  0  0  0  0  0  0  0  0
  -27.1380  -28.5450   20.7620 C   0  0  0  0  0  3  0  0  0  0  0  0
  -25.9260  -26.9680   19.4180 C   0  0  0  0  0  3  0  0  0  0  0  0
  -24.7920  -27.8110   19.4390 C   0  0  0  0  0  3  0  0  0  0  0  0
  -23.5830  -29.9290   20.2080 C   0  0  0  0  0  2  0  0  0  0  0  0
  -24.6400  -31.1310   22.1600 N   0  0  0  0  0  0  0  0  0  0  0  0
  -23.4880  -32.2220   23.7940 O   0  0  0  0  0  0  0  0  0  0  0  0
  -22.6800  -29.5560   22.5450 C   0  0  0  0  0  0  0  0  0  0  0  0
  -21.3500  -29.3950   22.4140 N   0  0  0  0  0  0  0  0  0  0  0  0
  -23.3470  -28.9150   23.3600 O   0  0  0  0  0  0  0  0  0  0  0  0
  -20.8680  -29.9630   21.7300 H   0  0  0  0  0  0  0  0  0  0  0  0
  -17.9620  -28.2090   22.9050 C   0  0  0  0  0  0  0  0  0  0  0  0
  -20.5240  -28.4510   23.1710 C   0  0  0  0  0  3  0  0  0  0  0  0
  -20.6150  -27.0280   22.5710 C   0  0  0  0  0  2  0  0  0  0  0  0
  -19.5100  -26.7300   21.5540 C   0  0  0  0  0  2  0  0  0  0  0  0
  -18.1300  -26.8710   22.2040 C   0  0  0  0  0  2  0  0  0  0  0  0
  -19.0860  -28.9580   23.3460 C   0  0  0  0  0  0  0  0  0  0  0  0
  -18.8760  -30.2080   23.9650 C   0  0  0  0  0  3  0  0  0  0  0  0
  -17.5730  -30.7120   24.1470 C   0  0  0  0  0  3  0  0  0  0  0  0
  -16.4640  -29.9610   23.7210 C   0  0  0  0  0  3  0  0  0  0  0  0
  -16.6590  -28.7110   23.1060 C   0  0  0  0  0  3  0  0  0  0  0  0
  -25.8530  -32.5550   23.9000 C   0  0  0  0  0  3  0  0  0  0  0  0
  -25.5610  -33.9620   24.2200 N   0  0  0  0  0  0  0  0  0  0  0  0
  -25.8910  -35.0070   23.4520 C   0  0  0  0  0  0  0  0  0  0  0  0
  -26.5440  -34.8900   22.4120 O   0  0  0  0  0  0  0  0  0  0  0  0
  -24.9790  -34.1290   25.0290 H   0  0  0  0  0  0  0  0  0  0  0  0
  -24.1670  -36.8130   23.1350 C   0  0  0  0  0  1  0  0  0  0  0  0
  -25.4290  -36.4050   23.9110 C   0  0  0  0  0  3  0  0  0  0  0  0
  -27.5900  -37.2910   24.6710 C   0  0  0  0  0  1  0  0  0  0  0  0
  -26.4640  -37.4500   23.7530 N   0  0  0  0  0  0  0  0  0  0  0  0
  -26.0680  -38.3740   23.8970 H   0  0  0  0  0  0  0  0  0  0  0  0
  -26.3350  -31.7880   25.1940 C   0  0  1  0  0  0  0  0  0  0  0  0
  -25.2210  -31.5840   26.2470 C   0  0  0  0  0  1  0  0  0  0  0  0
  -26.9000  -30.3940   24.8350 C   0  0  0  0  0  1  0  0  0  0  0  0
  -27.4870  -32.5700   25.8690 C   0  0  0  0  0  1  0  0  0  0  0  0
  -29.1060  -20.5930   20.5720 C   0  0  0  0  0  2  0  0  0  0  0  0
  -31.6510  -19.3530   18.8520 C   0  0  0  0  0  3  0  0  0  0  0  0
  -30.2520  -19.5070   18.6980 C   0  0  0  0  0  3  0  0  0  0  0  0
  -32.1640  -18.7330   20.0160 C   0  0  0  0  0  3  0  0  0  0  0  0
  -29.4380  -19.1430   19.7940 C   0  0  0  0  0  3  0  0  0  0  0  0
  -29.9640  -17.8600   20.4200 C   0  0  0  0  0  3  0  0  0  0  0  0
  -31.2960  -18.0110   20.8550 C   0  0  0  0  0  0  0  0  0  0  0  0
  -31.9140  -17.1760   22.2410 Cl  0  0  0  0  0  0  0  0  0  0  0  0
  -30.3260  -15.1490   19.9870 C   0  0  0  0  0  0  0  0  0  0  0  0
  -30.1580  -12.8330   18.9250 C   0  0  0  0  0  2  0  0  0  0  0  0
  -29.1310  -12.7860   17.7710 C   0  0  0  0  0  2  0  0  0  0  0  0
  -27.7150  -12.5220   18.3140 C   0  0  0  0  0  2  0  0  0  0  0  0
  -27.3840  -13.4040   19.5470 C   0  0  0  0  0  3  0  0  0  0  0  0
  -28.5240  -13.4040   20.5860 C   0  0  0  0  0  2  0  0  0  0  0  0
  -29.7220  -13.8900   19.8890 N   0  0  0  0  0  0  0  0  0  0  0  0
  -31.5130  -15.1850   19.6410 O   0  0  0  0  0  0  0  0  0  0  0  0
  -29.5730  -16.3620   20.2100 N   0  0  0  0  0  0  0  0  0  0  0  0
  -28.5770  -16.2020   20.2150 H   0  0  0  0  0  0  0  0  0  0  0  0
  -25.0530  -13.9120   20.4630 C   0  0  0  0  0  0  0  0  0  0  0  0
  -24.0340  -13.1060   20.8870 C   0  0  0  0  0  0  0  0  0  0  0  0
  -24.5260  -11.7670   20.7970 C   0  0  0  0  0  0  0  0  0  0  0  0
  -26.0950  -13.0640   20.1340 N   0  0  0  0  0  0  0  0  0  0  0  0
  -25.7930  -11.7680   20.4010 N   0  0  0  0  0  0  0  0  0  0  0  0
  -23.8380  -10.4850   21.0070 C   0  0  0  0  0  0  0  0  0  0  0  0
  -24.3190   -9.5300   21.9300 C   0  0  0  0  0  3  0  0  0  0  0  0
  -23.6290   -8.3150   22.1290 C   0  0  0  0  0  3  0  0  0  0  0  0
  -22.4450   -8.0450   21.4030 C   0  0  0  0  0  0  0  0  0  0  0  0
  -21.9810   -8.9880   20.4690 C   0  0  0  0  0  3  0  0  0  0  0  0
  -22.6730  -10.1950   20.2690 C   0  0  0  0  0  3  0  0  0  0  0  0
  -21.7240   -6.8800   21.5120 O   0  0  0  0  0  0  0  0  0  0  0  0
  -21.7020   -6.1530   22.6750 C   0  0  0  0  0  0  0  0  0  0  0  0
  -21.2550   -6.7090   23.8930 C   0  0  0  0  0  3  0  0  0  0  0  0
  -21.1830   -5.9060   25.0490 C   0  0  0  0  0  3  0  0  0  0  0  0
  -21.5490   -4.5480   24.9870 C   0  0  0  0  0  0  0  0  0  0  0  0
  -21.9900   -3.9910   23.7730 C   0  0  0  0  0  3  0  0  0  0  0  0
  -22.0630   -4.7920   22.6200 C   0  0  0  0  0  0  0  0  0  0  0  0
  -22.4690   -4.2460   21.4470 F   0  0  0  0  0  0  0  0  0  0  0  0
  -21.4720   -3.7730   26.0940 F   0  0  0  0  0  0  0  0  0  0  0  0
  -22.6480  -13.5470   21.2560 C   0  0  0  0  0  0  0  0  0  0  0  0
  -21.9910  -12.8160   22.1510 N   0  0  0  0  0  0  0  0  0  0  0  0
  -22.1590  -14.5740   20.7900 O   0  0  0  0  0  0  0  0  0  0  0  0
  -22.4020  -11.9850   22.5510 H   0  0  0  0  0  0  0  0  0  0  0  0
  -21.0640  -13.0940   22.4410 H   0  0  0  0  0  0  0  0  0  0  0  0
  -25.1700  -15.2890   20.3040 N   0  0  0  0  0  0  0  0  0  0  0  0
  -24.3860  -15.9090   20.4770 H   0  0  0  0  0  0  0  0  0  0  0  0
  -25.9630  -15.7630   19.8930 H   0  0  0  0  0  0  0  0  0  0  0  0
  1  7  2  0
  2  3  1  0
  4  2  1  0
  4  6  1  0
  5  8  1  0
  5  1  1  0
  5  3  1  0
  6  1  1  0
  6 49  1  0
  9 20  2  0
 10  8  1  0
 10 15  1  0
 11 19  1  0
 11 21  1  0
 12 18  1  0
 12 14  1  0
 13 19  1  0
 14 13  1  0
 15 14  2  0
 16 17  1  0
 16 10  2  0
 17 12  2  0
 18 11  1  0
 19  9  1  0
 21 23  2  0
 22 21  1  0
 24 22  1  0
 25 34  2  0
 25 30  1  0
 26 22  1  0
 26 30  1  0
 27 26  1  0
 28 29  1  0
 28 27  1  0
 29 25  1  0
 30 31  2  0
 31 32  1  0
 33 32  2  0
 34 33  1  0
 35  9  1  0
 35 36  1  0
 35 45  1  0
 36 39  1  0
 37 41  1  0
 37 36  1  0
 38 37  2  0
 41 40  1  0
 43 44  1  0
 43 41  1  0
 43 42  1  0
 45 48  1  1
 45 46  1  0
 47 45  1  0
 50 52  1  0
 51 50  2  0
 51 53  1  0
 52 55  2  0
 53 54  1  0
 53 49  1  0
 54 65  1  0
 54 55  1  0
 55 56  1  0
 57 65  1  0
 58 63  1  0
 59 60  1  0
 59 58  1  0
 61 60  1  0
 61 70  1  0
 61 62  1  0
 63 57  1  0
 63 62  1  0
 64 57  2  0
 65 66  1  0
 67 68  2  0
 68 87  1  0
 69 68  1  0
 69 72  1  0
 70 71  1  0
 70 67  1  0
 71 69  2  0
 72 73  1  0
 73 74  2  0
 75 78  1  0
 75 74  1  0
 76 75  2  0
 77 76  1  0
 77 72  2  0
 78 79  1  0
 79 80  1  0
 80 81  2  0
 82 81  1  0
 82 86  1  0
 83 82  2  0
 84 79  2  0
 84 83  1  0
 85 84  1  0
 87 88  1  0
 88 91  1  0
 88 90  1  0
 89 87  2  0
 92 67  1  0
 92 93  1  0
 94 92  1  0
M  ISO  4   5 101   8 101  57 100  65 100
M  END
>  <TORSDO>  (70) 
F 18

>  <SCORE>  (70) 
-13.764

>  <name>  (70) 
69

>  <ligand_id>  (70) 
69

>  <original_smiles>  (70) 
[H]c1c([H])c(Cl)c(N([H])C(=O)N2C([H])([H])C([H])([H])C([H])([H])C([H])(n3nc(-c4c([H])c([H])c(Oc5c([H])c([H])c(F)c([H])c5F)c([H])c4[H])c(C(=O)N([H])[H])c3N([H])[H])C2([H])[H])c(C([H])([H])N2C(=O)C([H])(Oc3c([H])c([H])c4c(c3[H])C([H])([H])N(C(=O)C([H])(N([H])C(=O)C([H])(N([H])C([H])([H])[H])C([H])([H])[H])C(C([H])([H])[H])(C([H])([H])[H])C([H])([H])[H])C([H])(C(=O)N([H])C3([H])c5c([H])c([H])c([H])c([H])c5C([H])([H])C([H])([H])C3([H])[H])C4([H])[H])C([H])([H])C([H])([H])C2([H])[H])c1[H]

>  <smiles>  (70) 
[H]c1c([H])c(Cl)c(N([H])C(=O)N2C([H])([H])C([H])([H])C([H])([H])C([H])(n3nc(-c4c([H])c([H])c(Oc5c([H])c([H])c(F)c([H])c5F)c([H])c4[H])c(C(=O)N([H])[H])c3N([H])[H])C2([H])[H])c(C([H])([H])N2C(=O)C([H])(Oc3c([H])c([H])c4c(c3[H])C([H])([H])N(C(=O)C([H])(N([H])C(=O)C([H])(N([H])C([H])([H])[H])C([H])([H])[H])C(C([H])([H])[H])(C([H])([H])[H])C([H])([H])[H])C([H])(C(=O)N([H])C3([H])c5c([H])c([H])c([H])c([H])c5C([H])([H])C([H])([H])C3([H])[H])C4([H])[H])C([H])([H])C([H])([H])C2([H])[H])c1[H]

$$$$
70:0:0
     RDKit          3D

 96105  0  0  1  0  0  0  0  0999 V2000
  -30.0540  -22.3090   21.5960 C   0  0  0  0  0  2  0  0  0  0  0  0
  -32.1760  -19.0840   21.3970 C   0  0  0  0  0  3  0  0  0  0  0  0
  -29.8590  -18.4730   21.0340 C   0  0  0  0  0  3  0  0  0  0  0  0
  -31.1960  -18.0770   21.2600 C   0  0  0  0  0  0  0  0  0  0  0  0
  -30.4680  -20.8470   21.3080 C   0  0  0  0  0  0  0  0  0  0  0  0
  -31.8250  -20.4510   21.4180 C   0  0  0  0  0  0  0  0  0  0  0  0
  -29.4960  -19.8410   21.0580 C   0  0  0  0  0  0  0  0  0  0  0  0
  -33.0810  -21.6160   21.6500 Cl  0  0  0  0  0  0  0  0  0  0  0  0
  -27.8310  -20.2540   20.8430 Cl  0  0  0  0  0  0  0  0  0  0  0  0
  -31.5790  -16.6160   21.5260 C   0  0  0  0  0  2  0  0  0  0  0  0
  -31.1870  -14.6320   20.0740 C   0  0  0  0  0  0  0  0  0  0  0  0
  -30.7120  -12.5300   18.8620 C   0  0  0  0  0  2  0  0  0  0  0  0
  -29.7220  -12.7720   17.7080 C   0  0  0  0  0  2  0  0  0  0  0  0
  -28.2690  -12.6710   18.2090 C   0  0  0  0  0  2  0  0  0  0  0  0
  -28.0200  -13.5090   19.4920 C   0  0  0  0  0  3  0  0  0  0  0  0
  -29.1190  -13.2520   20.5480 C   0  0  0  0  0  2  0  0  0  0  0  0
  -30.4250  -13.5140   19.9200 N   0  0  0  0  0  0  0  0  0  0  0  0
  -32.2390  -14.8060   19.4530 O   0  0  0  0  0  0  0  0  0  0  0  0
  -30.7420  -15.5530   20.9490 N   0  0  0  0  0  0  0  0  0  0  0  0
  -29.8590  -15.3640   21.3990 H   0  0  0  0  0  0  0  0  0  0  0  0
  -25.6940  -14.1880   20.3560 C   0  0  0  0  0  0  0  0  0  0  0  0
  -24.6120  -13.4480   20.7520 C   0  0  0  0  0  0  0  0  0  0  0  0
  -25.0080  -12.0800   20.6390 C   0  0  0  0  0  0  0  0  0  0  0  0
  -26.6840  -13.2730   20.0330 N   0  0  0  0  0  0  0  0  0  0  0  0
  -26.2760  -11.9970   20.2590 N   0  0  0  0  0  0  0  0  0  0  0  0
  -24.2350  -10.8440   20.8160 C   0  0  0  0  0  0  0  0  0  0  0  0
  -24.6450   -9.8390   21.7200 C   0  0  0  0  0  3  0  0  0  0  0  0
  -23.8740   -8.6680   21.8860 C   0  0  0  0  0  3  0  0  0  0  0  0
  -22.6790   -8.4930   21.1490 C   0  0  0  0  0  0  0  0  0  0  0  0
  -22.2880   -9.4870   20.2340 C   0  0  0  0  0  3  0  0  0  0  0  0
  -23.0590  -10.6490   20.0650 C   0  0  0  0  0  3  0  0  0  0  0  0
  -21.8810   -7.3780   21.2250 O   0  0  0  0  0  0  0  0  0  0  0  0
  -21.7800   -6.6430   22.3800 C   0  0  0  0  0  0  0  0  0  0  0  0
  -21.3540   -7.2200   23.5960 C   0  0  0  0  0  3  0  0  0  0  0  0
  -21.1980   -6.4140   24.7410 C   0  0  0  0  0  3  0  0  0  0  0  0
  -21.4580   -5.0330   24.6710 C   0  0  0  0  0  0  0  0  0  0  0  0
  -21.8760   -4.4550   23.4590 C   0  0  0  0  0  3  0  0  0  0  0  0
  -22.0340   -5.2580   22.3160 C   0  0  0  0  0  0  0  0  0  0  0  0
  -22.4170   -4.6930   21.1460 F   0  0  0  0  0  0  0  0  0  0  0  0
  -21.3000   -4.2560   25.7690 F   0  0  0  0  0  0  0  0  0  0  0  0
  -23.2560  -13.9740   21.1210 C   0  0  0  0  0  0  0  0  0  0  0  0
  -22.5500  -13.2820   22.0100 N   0  0  0  0  0  0  0  0  0  0  0  0
  -22.8320  -15.0330   20.6580 O   0  0  0  0  0  0  0  0  0  0  0  0
  -22.9070  -12.4250   22.4050 H   0  0  0  0  0  0  0  0  0  0  0  0
  -21.6410  -13.6140   22.2980 H   0  0  0  0  0  0  0  0  0  0  0  0
  -25.9130  -15.5560   20.2240 N   0  0  0  0  0  0  0  0  0  0  0  0
  -25.1850  -16.2410   20.3970 H   0  0  0  0  0  0  0  0  0  0  0  0
  -26.7670  -15.9660   19.8650 H   0  0  0  0  0  0  0  0  0  0  0  0
  -29.3210  -24.4990   20.7650 C   0  0  0  0  0  0  0  0  0  0  0  0
  -29.0900  -23.5090   18.0240 C   0  0  0  0  0  2  0  0  0  0  0  0
  -29.1990  -25.0150   18.2740 C   0  0  0  0  0  2  0  0  0  0  0  0
  -29.8270  -22.6980   19.1060 C   0  0  0  0  0  2  0  0  0  0  0  0
  -28.6370  -25.3430   19.6630 C   0  0  0  0  0  3  0  0  0  0  0  0
  -29.6670  -23.2070   20.4830 N   0  0  0  0  0  0  0  0  0  0  0  0
  -29.4490  -24.9850   21.8960 O   0  0  0  0  0  0  0  0  0  0  0  0
  -28.6930  -26.7710   19.9320 O   0  0  0  0  0  0  0  0  0  0  0  0
  -24.6470  -31.7210   23.1020 C   0  0  0  0  0  0  0  0  0  0  0  0
  -27.5010  -27.4830   19.8950 C   0  0  0  0  0  0  0  0  0  0  0  0
  -23.5170  -30.3190   21.4120 C   0  0  0  0  0  3  0  0  0  0  0  0
  -25.0450  -28.9070   19.9400 C   0  0  0  0  0  0  0  0  0  0  0  0
  -26.0290  -30.7930   21.2430 C   0  0  0  0  0  2  0  0  0  0  0  0
  -26.1790  -29.4500   20.5560 C   0  0  0  0  0  0  0  0  0  0  0  0
  -27.4080  -28.7460   20.5320 C   0  0  0  0  0  3  0  0  0  0  0  0
  -26.3460  -26.9800   19.2480 C   0  0  0  0  0  3  0  0  0  0  0  0
  -25.1240  -27.6710   19.2820 C   0  0  0  0  0  3  0  0  0  0  0  0
  -23.7630  -29.7050   20.0100 C   0  0  0  0  0  2  0  0  0  0  0  0
  -24.7480  -30.9590   21.9770 N   0  0  0  0  0  0  0  0  0  0  0  0
  -23.5510  -31.9240   23.6430 O   0  0  0  0  0  0  0  0  0  0  0  0
  -22.9130  -29.2330   22.3320 C   0  0  0  0  0  0  0  0  0  0  0  0
  -21.5980  -28.9950   22.1970 N   0  0  0  0  0  0  0  0  0  0  0  0
  -23.6240  -28.6100   23.1250 O   0  0  0  0  0  0  0  0  0  0  0  0
  -21.0830  -29.5510   21.5290 H   0  0  0  0  0  0  0  0  0  0  0  0
  -18.2770  -27.6500   22.6640 C   0  0  0  0  0  0  0  0  0  0  0  0
  -20.8240  -27.9970   22.9340 C   0  0  0  0  0  3  0  0  0  0  0  0
  -20.9800  -26.5940   22.3000 C   0  0  0  0  0  2  0  0  0  0  0  0
  -19.8850  -26.2690   21.2790 C   0  0  0  0  0  2  0  0  0  0  0  0
  -18.5030  -26.3360   21.9340 C   0  0  0  0  0  2  0  0  0  0  0  0
  -19.3680  -28.4370   23.1190 C   0  0  0  0  0  0  0  0  0  0  0  0
  -19.1040  -29.6670   23.7600 C   0  0  0  0  0  3  0  0  0  0  0  0
  -17.7820  -30.1110   23.9500 C   0  0  0  0  0  3  0  0  0  0  0  0
  -16.7060  -29.3200   23.5110 C   0  0  0  0  0  3  0  0  0  0  0  0
  -16.9540  -28.0900   22.8740 C   0  0  0  0  0  3  0  0  0  0  0  0
  -25.8980  -32.3940   23.7470 C   0  0  0  0  0  3  0  0  0  0  0  0
  -26.4370  -31.6190   25.0120 C   0  0  1  0  0  0  0  0  0  0  0  0
  -25.3450  -31.3060   26.0620 C   0  0  0  0  0  1  0  0  0  0  0  0
  -27.0880  -30.2800   24.5940 C   0  0  0  0  0  1  0  0  0  0  0  0
  -27.5430  -32.4510   25.7050 C   0  0  0  0  0  1  0  0  0  0  0  0
  -25.5260  -33.7700   24.1020 N   0  0  0  0  0  0  0  0  0  0  0  0
  -25.8220  -34.8500   23.3660 C   0  0  0  0  0  0  0  0  0  0  0  0
  -26.5080  -34.7960   22.3430 O   0  0  0  0  0  0  0  0  0  0  0  0
  -24.9180  -33.8840   24.8990 H   0  0  0  0  0  0  0  0  0  0  0  0
  -24.0220  -36.5710   23.0220 C   0  0  0  0  0  1  0  0  0  0  0  0
  -25.2690  -36.2070   23.8430 C   0  0  0  0  0  3  0  0  0  0  0  0
  -27.3500  -37.1670   24.7230 C   0  0  0  0  0  1  0  0  0  0  0  0
  -26.2560  -37.3060   23.7650 N   0  0  0  0  0  0  0  0  0  0  0  0
  -25.8080  -38.2040   23.9240 H   0  0  0  0  0  0  0  0  0  0  0  0
  2  6  1  0
  3  7  2  0
  3  4  1  0
  4  2  2  0
  4 10  1  0
  5  6  2  0
  5  1  1  0
  6  8  1  0
  7  5  1  0
  9  7  1  0
 11 19  1  0
 12 17  1  0
 13 14  1  0
 13 12  1  0
 15 14  1  0
 15 24  1  0
 15 16  1  0
 17 11  1  0
 17 16  1  0
 18 11  2  0
 19 20  1  0
 19 10  1  0
 21 22  2  0
 22 41  1  0
 23 22  1  0
 23 26  1  0
 24 25  1  0
 24 21  1  0
 25 23  2  0
 26 27  1  0
 27 28  2  0
 29 32  1  0
 29 28  1  0
 30 29  2  0
 31 30  1  0
 31 26  2  0
 32 33  1  0
 33 34  1  0
 34 35  2  0
 36 35  1  0
 36 40  1  0
 37 36  2  0
 38 33  2  0
 38 37  1  0
 39 38  1  0
 41 42  1  0
 42 45  1  0
 42 44  1  0
 43 41  2  0
 46 21  1  0
 46 47  1  0
 48 46  1  0
 49 55  2  0
 50 51  1  0
 50 52  1  0
 51 53  1  0
 52 54  1  0
 53 56  1  0
 53 49  1  0
 54 49  1  0
 54  1  1  0
 57 68  2  0
 58 56  1  0
 58 63  1  0
 59 67  1  0
 59 69  1  0
 60 66  1  0
 60 62  1  0
 61 67  1  0
 62 61  1  0
 63 62  2  0
 64 65  1  0
 64 58  2  0
 65 60  2  0
 66 59  1  0
 67 57  1  0
 69 71  2  0
 70 69  1  0
 72 70  1  0
 73 82  2  0
 73 78  1  0
 74 70  1  0
 74 78  1  0
 75 74  1  0
 76 77  1  0
 76 75  1  0
 77 73  1  0
 78 79  2  0
 79 80  1  0
 81 80  2  0
 82 81  1  0
 83 57  1  0
 83 88  1  0
 83 84  1  0
 84 87  1  1
 84 85  1  0
 86 84  1  0
 88 91  1  0
 89 93  1  0
 89 88  1  0
 90 89  2  0
 93 92  1  0
 95 93  1  0
 95 96  1  0
 95 94  1  0
M  ISO  4  11 100  19 100  53 101  56 101
M  END
>  <TORSDO>  (71) 
F 19

>  <SCORE>  (71) 
-13.051

>  <name>  (71) 
70

>  <ligand_id>  (71) 
70

>  <original_smiles>  (71) 
[H]c1c([H])c([H])c2c(c1[H])C([H])([H])C([H])([H])C([H])([H])C2([H])N([H])C(=O)C1([H])N(C(=O)C([H])(N([H])C(=O)C([H])(N([H])C([H])([H])[H])C([H])([H])[H])C(C([H])([H])[H])(C([H])([H])[H])C([H])([H])[H])C([H])([H])c2c([H])c(OC3([H])C(=O)N(C([H])([H])c4c(Cl)c([H])c(C([H])([H])N([H])C(=O)N5C([H])([H])C([H])([H])C([H])([H])C([H])(n6nc(-c7c([H])c([H])c(Oc8c([H])c([H])c(F)c([H])c8F)c([H])c7[H])c(C(=O)N([H])[H])c6N([H])[H])C5([H])[H])c([H])c4Cl)C([H])([H])C([H])([H])C3([H])[H])c([H])c([H])c2C1([H])[H]

>  <smiles>  (71) 
[H]c1c([H])c([H])c2c(c1[H])C([H])([H])C([H])([H])C([H])([H])C2([H])N([H])C(=O)C1([H])N(C(=O)C([H])(N([H])C(=O)C([H])(N([H])C([H])([H])[H])C([H])([H])[H])C(C([H])([H])[H])(C([H])([H])[H])C([H])([H])[H])C([H])([H])c2c([H])c(OC3([H])C(=O)N(C([H])([H])c4c(Cl)c([H])c(C([H])([H])N([H])C(=O)N5C([H])([H])C([H])([H])C([H])([H])C([H])(n6nc(-c7c([H])c([H])c(Oc8c([H])c([H])c(F)c([H])c8F)c([H])c7[H])c(C(=O)N([H])[H])c6N([H])[H])C5([H])[H])c([H])c4Cl)C([H])([H])C([H])([H])C3([H])[H])c([H])c([H])c2C1([H])[H]

$$$$
71:0:0
     RDKit          3D

 95104  0  0  1  0  0  0  0  0999 V2000
  -28.7330  -23.8690   19.9890 C   0  0  0  0  0  0  0  0  0  0  0  0
  -28.6270  -24.7630   23.2420 C   0  0  0  0  0  2  0  0  0  0  0  0
  -29.5230  -23.5510   22.9530 C   0  0  0  0  0  2  0  0  0  0  0  0
  -27.8730  -25.3180   22.0220 C   0  0  0  0  0  2  0  0  0  0  0  0
  -28.8340  -22.4670   22.1110 C   0  0  0  0  0  2  0  0  0  0  0  0
  -28.7130  -25.3130   20.7240 C   0  0  0  0  0  3  0  0  0  0  0  0
  -28.9070  -22.6330   20.6450 N   0  0  0  0  0  0  0  0  0  0  0  0
  -28.6120  -23.8880   18.7600 O   0  0  0  0  0  0  0  0  0  0  0  0
  -28.5570  -26.5580   19.8790 O   0  0  0  0  0  0  0  0  0  0  0  0
  -24.7030  -31.8050   23.1180 C   0  0  0  0  0  0  0  0  0  0  0  0
  -27.4130  -27.3830   19.9270 C   0  0  0  0  0  0  0  0  0  0  0  0
  -23.5230  -30.4170   21.4510 C   0  0  0  0  0  3  0  0  0  0  0  0
  -25.0030  -28.9380   19.9720 C   0  0  0  0  0  0  0  0  0  0  0  0
  -26.0480  -30.8110   21.2470 C   0  0  0  0  0  2  0  0  0  0  0  0
  -26.1650  -29.4470   20.5680 C   0  0  0  0  0  0  0  0  0  0  0  0
  -27.3740  -28.6840   20.5280 C   0  0  0  0  0  3  0  0  0  0  0  0
  -26.2290  -26.9270   19.3150 C   0  0  0  0  0  3  0  0  0  0  0  0
  -25.0390  -27.6850   19.3350 C   0  0  0  0  0  3  0  0  0  0  0  0
  -23.7420  -29.7770   20.0520 C   0  0  0  0  0  2  0  0  0  0  0  0
  -24.7770  -31.0290   21.9970 N   0  0  0  0  0  0  0  0  0  0  0  0
  -23.6170  -32.0360   23.6710 O   0  0  0  0  0  0  0  0  0  0  0  0
  -22.8980  -29.3590   22.3920 C   0  0  0  0  0  0  0  0  0  0  0  0
  -21.5780  -29.1380   22.2650 N   0  0  0  0  0  0  0  0  0  0  0  0
  -23.6000  -28.7390   23.1940 O   0  0  0  0  0  0  0  0  0  0  0  0
  -21.0670  -29.6920   21.5910 H   0  0  0  0  0  0  0  0  0  0  0  0
  -18.2540  -27.7850   22.7230 C   0  0  0  0  0  0  0  0  0  0  0  0
  -20.7960  -28.1530   23.0160 C   0  0  0  0  0  3  0  0  0  0  0  0
  -20.9650  -26.7370   22.4200 C   0  0  0  0  0  2  0  0  0  0  0  0
  -19.8860  -26.3820   21.3930 C   0  0  0  0  0  2  0  0  0  0  0  0
  -18.4950  -26.4560   22.0290 C   0  0  0  0  0  2  0  0  0  0  0  0
  -19.3340  -28.5900   23.1720 C   0  0  0  0  0  0  0  0  0  0  0  0
  -19.0550  -29.8330   23.7810 C   0  0  0  0  0  3  0  0  0  0  0  0
  -17.7280  -30.2720   23.9440 C   0  0  0  0  0  3  0  0  0  0  0  0
  -16.6620  -29.4660   23.5110 C   0  0  0  0  0  3  0  0  0  0  0  0
  -16.9250  -28.2240   22.9060 C   0  0  0  0  0  3  0  0  0  0  0  0
  -25.9720  -32.4580   23.7450 C   0  0  0  0  0  3  0  0  0  0  0  0
  -25.6300  -33.8400   24.1090 N   0  0  0  0  0  0  0  0  0  0  0  0
  -25.9280  -34.9190   23.3710 C   0  0  0  0  0  0  0  0  0  0  0  0
  -26.5900  -34.8560   22.3320 O   0  0  0  0  0  0  0  0  0  0  0  0
  -25.0380  -33.9620   24.9170 H   0  0  0  0  0  0  0  0  0  0  0  0
  -24.1520  -36.6770   23.0740 C   0  0  0  0  0  1  0  0  0  0  0  0
  -25.4110  -36.2850   23.8650 C   0  0  0  0  0  3  0  0  0  0  0  0
  -27.5280  -37.2070   24.7030 C   0  0  0  0  0  1  0  0  0  0  0  0
  -26.4170  -37.3650   23.7680 N   0  0  0  0  0  0  0  0  0  0  0  0
  -25.9880  -38.2710   23.9350 H   0  0  0  0  0  0  0  0  0  0  0  0
  -26.5170  -31.6740   25.0020 C   0  0  1  0  0  0  0  0  0  0  0  0
  -25.4380  -31.3890   26.0730 C   0  0  0  0  0  1  0  0  0  0  0  0
  -27.1290  -30.3190   24.5780 C   0  0  0  0  0  1  0  0  0  0  0  0
  -27.6510  -32.4830   25.6740 C   0  0  0  0  0  1  0  0  0  0  0  0
  -28.8600  -21.2490   19.9620 C   0  0  0  0  0  2  0  0  0  0  0  0
  -31.5930  -17.7860   20.8430 C   0  0  0  0  0  3  0  0  0  0  0  0
  -32.0050  -19.1260   20.9850 C   0  0  0  0  0  3  0  0  0  0  0  0
  -29.3980  -18.5980   20.2020 C   0  0  0  0  0  3  0  0  0  0  0  0
  -29.7960  -19.9990   20.3430 C   0  0  0  0  0  0  0  0  0  0  0  0
  -30.2820  -17.4590   20.4320 C   0  0  0  0  0  0  0  0  0  0  0  0
  -31.1430  -20.2130   20.7320 C   0  0  0  0  0  0  0  0  0  0  0  0
  -31.8100  -21.8020   20.8690 Cl  0  0  0  0  0  0  0  0  0  0  0  0
  -30.6610  -14.8770   20.1070 C   0  0  0  0  0  0  0  0  0  0  0  0
  -30.4170  -12.6040   19.0880 C   0  0  0  0  0  2  0  0  0  0  0  0
  -29.4300  -12.6620   17.9010 C   0  0  0  0  0  2  0  0  0  0  0  0
  -27.9820  -12.4810   18.3940 C   0  0  0  0  0  2  0  0  0  0  0  0
  -27.6480  -13.3740   19.6180 C   0  0  0  0  0  3  0  0  0  0  0  0
  -28.7500  -13.3060   20.6970 C   0  0  0  0  0  2  0  0  0  0  0  0
  -30.0180  -13.6600   20.0470 N   0  0  0  0  0  0  0  0  0  0  0  0
  -31.8410  -14.9520   19.7530 O   0  0  0  0  0  0  0  0  0  0  0  0
  -29.8950  -16.0240   20.3130 N   0  0  0  0  0  0  0  0  0  0  0  0
  -28.9060  -15.8410   20.3780 H   0  0  0  0  0  0  0  0  0  0  0  0
  -25.2920  -13.9560   20.4510 C   0  0  0  0  0  0  0  0  0  0  0  0
  -24.2430  -13.1780   20.8530 C   0  0  0  0  0  0  0  0  0  0  0  0
  -24.7040  -11.8270   20.7900 C   0  0  0  0  0  0  0  0  0  0  0  0
  -26.3260  -13.0800   20.1620 N   0  0  0  0  0  0  0  0  0  0  0  0
  -25.9820  -11.7930   20.4290 N   0  0  0  0  0  0  0  0  0  0  0  0
  -23.9850  -10.5630   20.9920 C   0  0  0  0  0  0  0  0  0  0  0  0
  -24.4380   -9.5970   21.9180 C   0  0  0  0  0  3  0  0  0  0  0  0
  -23.7190   -8.3980   22.1110 C   0  0  0  0  0  3  0  0  0  0  0  0
  -22.5340   -8.1550   21.3780 C   0  0  0  0  0  0  0  0  0  0  0  0
  -22.0990   -9.1090   20.4420 C   0  0  0  0  0  3  0  0  0  0  0  0
  -22.8180  -10.3010   20.2470 C   0  0  0  0  0  3  0  0  0  0  0  0
  -21.7860   -7.0060   21.4790 O   0  0  0  0  0  0  0  0  0  0  0  0
  -21.7450   -6.2750   22.6390 C   0  0  0  0  0  0  0  0  0  0  0  0
  -21.2930   -6.8310   23.8550 C   0  0  0  0  0  3  0  0  0  0  0  0
  -21.2000   -6.0250   25.0070 C   0  0  0  0  0  3  0  0  0  0  0  0
  -21.5490   -4.6620   24.9430 C   0  0  0  0  0  0  0  0  0  0  0  0
  -21.9940   -4.1050   23.7320 C   0  0  0  0  0  3  0  0  0  0  0  0
  -22.0890   -4.9080   22.5820 C   0  0  0  0  0  0  0  0  0  0  0  0
  -22.4970   -4.3620   21.4110 F   0  0  0  0  0  0  0  0  0  0  0  0
  -21.4530   -3.8860   26.0470 F   0  0  0  0  0  0  0  0  0  0  0  0
  -22.8560  -13.6520   21.1820 C   0  0  0  0  0  0  0  0  0  0  0  0
  -22.1600  -12.9440   22.0640 N   0  0  0  0  0  0  0  0  0  0  0  0
  -22.4010  -14.6850   20.6920 O   0  0  0  0  0  0  0  0  0  0  0  0
  -22.5440  -12.1110   22.4840 H   0  0  0  0  0  0  0  0  0  0  0  0
  -21.2320  -13.2420   22.3260 H   0  0  0  0  0  0  0  0  0  0  0  0
  -25.4470  -15.3280   20.2790 N   0  0  0  0  0  0  0  0  0  0  0  0
  -24.6790  -15.9740   20.4250 H   0  0  0  0  0  0  0  0  0  0  0  0
  -26.2650  -15.7740   19.8870 H   0  0  0  0  0  0  0  0  0  0  0  0
  1  7  1  0
  1  6  1  0
  3  2  1  0
  4  2  1  0
  5  3  1  0
  6  9  1  0
  6  4  1  0
  7  5  1  0
  8  1  2  0
  9 11  1  0
 10 21  2  0
 11 16  1  0
 12 20  1  0
 12 22  1  0
 13 19  1  0
 13 15  1  0
 14 20  1  0
 15 14  1  0
 16 15  2  0
 17 18  1  0
 17 11  2  0
 18 13  2  0
 19 12  1  0
 20 10  1  0
 22 24  2  0
 23 22  1  0
 25 23  1  0
 26 35  2  0
 26 31  1  0
 27 23  1  0
 27 31  1  0
 28 27  1  0
 29 30  1  0
 29 28  1  0
 30 26  1  0
 31 32  2  0
 32 33  1  0
 34 33  2  0
 35 34  1  0
 36 10  1  0
 36 37  1  0
 36 46  1  0
 37 40  1  0
 38 42  1  0
 38 37  1  0
 39 38  2  0
 42 41  1  0
 44 42  1  0
 44 45  1  0
 44 43  1  0
 46 49  1  1
 46 47  1  0
 48 46  1  0
 50 54  1  0
 50  7  1  0
 51 52  1  0
 53 54  2  0
 53 55  1  0
 54 56  1  0
 55 51  2  0
 56 57  1  0
 56 52  2  0
 58 66  1  0
 59 64  1  0
 60 61  1  0
 60 59  1  0
 62 61  1  0
 62 71  1  0
 62 63  1  0
 64 58  1  0
 64 63  1  0
 65 58  2  0
 66 67  1  0
 66 55  1  0
 68 69  2  0
 69 88  1  0
 70 69  1  0
 70 73  1  0
 71 72  1  0
 71 68  1  0
 72 70  2  0
 73 74  1  0
 74 75  2  0
 76 79  1  0
 76 75  1  0
 77 76  2  0
 78 77  1  0
 78 73  2  0
 79 80  1  0
 80 81  1  0
 81 82  2  0
 83 82  1  0
 83 87  1  0
 84 83  2  0
 85 80  2  0
 85 84  1  0
 86 85  1  0
 88 89  1  0
 89 92  1  0
 89 91  1  0
 90 88  2  0
 93 94  1  0
 93 68  1  0
 95 93  1  0
M  ISO  4   6 101   9 101  58 100  66 100
M  END
>  <TORSDO>  (72) 
F 18

>  <SCORE>  (72) 
-14.605

>  <name>  (72) 
71

>  <ligand_id>  (72) 
71

>  <original_smiles>  (72) 
[H]c1c([H])c([H])c2c(c1[H])C([H])([H])C([H])([H])C([H])([H])C2([H])N([H])C(=O)C1([H])N(C(=O)C([H])(N([H])C(=O)C([H])(N([H])C([H])([H])[H])C([H])([H])[H])C(C([H])([H])[H])(C([H])([H])[H])C([H])([H])[H])C([H])([H])c2c([H])c(OC3([H])C(=O)N(C([H])([H])c4c([H])c(N([H])C(=O)N5C([H])([H])C([H])([H])C([H])([H])C([H])(n6nc(-c7c([H])c([H])c(Oc8c([H])c([H])c(F)c([H])c8F)c([H])c7[H])c(C(=O)N([H])[H])c6N([H])[H])C5([H])[H])c([H])c([H])c4Cl)C([H])([H])C([H])([H])C([H])([H])C3([H])[H])c([H])c([H])c2C1([H])[H]

>  <smiles>  (72) 
[H]c1c([H])c([H])c2c(c1[H])C([H])([H])C([H])([H])C([H])([H])C2([H])N([H])C(=O)C1([H])N(C(=O)C([H])(N([H])C(=O)C([H])(N([H])C([H])([H])[H])C([H])([H])[H])C(C([H])([H])[H])(C([H])([H])[H])C([H])([H])[H])C([H])([H])c2c([H])c(OC3([H])C(=O)N(C([H])([H])c4c([H])c(N([H])C(=O)N5C([H])([H])C([H])([H])C([H])([H])C([H])(n6nc(-c7c([H])c([H])c(Oc8c([H])c([H])c(F)c([H])c8F)c([H])c7[H])c(C(=O)N([H])[H])c6N([H])[H])C5([H])[H])c([H])c([H])c4Cl)C([H])([H])C([H])([H])C([H])([H])C3([H])[H])c([H])c([H])c2C1([H])[H]

$$$$
72:0:0
     RDKit          3D

 92100  0  0  1  0  0  0  0  0999 V2000
  -28.9480  -18.3410   20.9980 C   0  0  0  0  0  3  0  0  0  0  0  0
  -28.0800  -19.4500   21.0450 C   0  0  0  0  0  3  0  0  0  0  0  0
  -30.7170  -19.8200   20.2190 C   0  0  0  0  0  3  0  0  0  0  0  0
  -30.2850  -18.4980   20.5800 C   0  0  0  0  0  0  0  0  0  0  0  0
  -28.5140  -20.7490   20.6970 C   0  0  0  0  0  0  0  0  0  0  0  0
  -29.8530  -20.9650   20.2690 C   0  0  0  0  0  0  0  0  0  0  0  0
  -27.5180  -21.8930   20.8300 C   0  0  0  0  0  1  0  0  0  0  0  0
  -30.3810  -22.4160   20.0070 C   0  0  0  0  0  2  0  0  0  0  0  0
  -29.3940  -24.3300   18.7810 C   0  0  0  0  0  0  0  0  0  0  0  0
  -29.1200  -24.8970   17.4020 C   0  0  0  0  0  1  0  0  0  0  0  0
  -29.8310  -23.1040   18.8230 N   0  0  0  0  0  0  0  0  0  0  0  0
  -29.0940  -25.3240   19.9490 C   0  0  0  0  0  2  0  0  0  0  0  0
  -29.0940  -26.7570   19.6320 O   0  0  0  0  0  0  0  0  0  0  0  0
  -25.1800  -31.3950   23.4600 C   0  0  0  0  0  0  0  0  0  0  0  0
  -27.9160  -27.4930   19.7390 C   0  0  0  0  0  0  0  0  0  0  0  0
  -24.0280  -30.3140   21.5570 C   0  0  0  0  0  3  0  0  0  0  0  0
  -25.5280  -29.0320   19.9310 C   0  0  0  0  0  0  0  0  0  0  0  0
  -26.5610  -30.6740   21.5040 C   0  0  0  0  0  2  0  0  0  0  0  0
  -26.6680  -29.4280   20.6380 C   0  0  0  0  0  0  0  0  0  0  0  0
  -27.8640  -28.6720   20.5330 C   0  0  0  0  0  3  0  0  0  0  0  0
  -26.7520  -27.1210   19.0320 C   0  0  0  0  0  3  0  0  0  0  0  0
  -25.5680  -27.8830   19.1200 C   0  0  0  0  0  3  0  0  0  0  0  0
  -24.2860  -29.8860   20.0850 C   0  0  0  0  0  2  0  0  0  0  0  0
  -25.2740  -30.7980   22.2370 N   0  0  0  0  0  0  0  0  0  0  0  0
  -24.0820  -31.5800   24.0020 O   0  0  0  0  0  0  0  0  0  0  0  0
  -23.3380  -29.1480   22.3020 C   0  0  0  0  0  0  0  0  0  0  0  0
  -22.0110  -29.0250   22.1340 N   0  0  0  0  0  0  0  0  0  0  0  0
  -23.9970  -28.3620   22.9910 O   0  0  0  0  0  0  0  0  0  0  0  0
  -21.5420  -29.7180   21.5670 H   0  0  0  0  0  0  0  0  0  0  0  0
  -18.6060  -27.8300   22.3750 C   0  0  0  0  0  0  0  0  0  0  0  0
  -21.1650  -27.9730   22.7030 C   0  0  0  0  0  3  0  0  0  0  0  0
  -21.2440  -26.6770   21.8630 C   0  0  0  0  0  2  0  0  0  0  0  0
  -20.1450  -26.5820   20.8000 C   0  0  0  0  0  2  0  0  0  0  0  0
  -18.7600  -26.6330   21.4510 C   0  0  0  0  0  2  0  0  0  0  0  0
  -19.7360  -28.4690   22.9500 C   0  0  0  0  0  0  0  0  0  0  0  0
  -19.5400  -29.5990   23.7740 C   0  0  0  0  0  3  0  0  0  0  0  0
  -18.2450  -30.0910   24.0260 C   0  0  0  0  0  3  0  0  0  0  0  0
  -17.1270  -29.4470   23.4660 C   0  0  0  0  0  3  0  0  0  0  0  0
  -17.3110  -28.3180   22.6470 C   0  0  0  0  0  3  0  0  0  0  0  0
  -26.4440  -31.9000   24.2220 C   0  0  0  0  0  3  0  0  0  0  0  0
  -26.9040  -30.9270   25.3760 C   0  0  1  0  0  0  0  0  0  0  0  0
  -25.7710  -30.5480   26.3590 C   0  0  0  0  0  1  0  0  0  0  0  0
  -27.4740  -29.6180   24.7840 C   0  0  0  0  0  1  0  0  0  0  0  0
  -28.0460  -31.5790   26.1900 C   0  0  0  0  0  1  0  0  0  0  0  0
  -26.1390  -33.2330   24.7610 N   0  0  0  0  0  0  0  0  0  0  0  0
  -26.5510  -34.3860   24.2170 C   0  0  0  0  0  0  0  0  0  0  0  0
  -27.3010  -34.4320   23.2380 O   0  0  0  0  0  0  0  0  0  0  0  0
  -25.4930  -33.2680   25.5370 H   0  0  0  0  0  0  0  0  0  0  0  0
  -24.9070  -36.2760   24.0230 C   0  0  0  0  0  1  0  0  0  0  0  0
  -26.0570  -35.6960   24.8630 C   0  0  0  0  0  3  0  0  0  0  0  0
  -28.1250  -36.3400   26.0150 C   0  0  0  0  0  1  0  0  0  0  0  0
  -27.1190  -36.7110   25.0240 N   0  0  0  0  0  0  0  0  0  0  0  0
  -26.7240  -37.6070   25.2950 H   0  0  0  0  0  0  0  0  0  0  0  0
  -31.2600  -17.2820   20.5730 C   0  0  0  0  0  2  0  0  0  0  0  0
  -31.4290  -14.7570   20.6060 C   0  0  0  0  0  0  0  0  0  0  0  0
  -31.1880  -12.4690   19.7000 C   0  0  0  0  0  2  0  0  0  0  0  0
  -30.3490  -12.5250   18.4050 C   0  0  0  0  0  2  0  0  0  0  0  0
  -28.8470  -12.4320   18.7270 C   0  0  0  0  0  2  0  0  0  0  0  0
  -28.4120  -13.3960   19.8620 C   0  0  0  0  0  3  0  0  0  0  0  0
  -29.3780  -13.3340   21.0670 C   0  0  0  0  0  2  0  0  0  0  0  0
  -30.7390  -13.5780   20.5650 N   0  0  0  0  0  0  0  0  0  0  0  0
  -32.6180  -14.8200   20.2910 O   0  0  0  0  0  0  0  0  0  0  0  0
  -30.7160  -15.9040   20.7950 N   0  0  0  0  0  0  0  0  0  0  0  0
  -29.7300  -15.8090   20.9750 H   0  0  0  0  0  0  0  0  0  0  0  0
  -26.0100  -14.0940   20.4580 C   0  0  0  0  0  0  0  0  0  0  0  0
  -24.8870  -13.3650   20.7440 C   0  0  0  0  0  0  0  0  0  0  0  0
  -25.2880  -11.9950   20.7180 C   0  0  0  0  0  0  0  0  0  0  0  0
  -27.0250  -13.1690   20.2650 N   0  0  0  0  0  0  0  0  0  0  0  0
  -26.5910  -11.9010   20.4840 N   0  0  0  0  0  0  0  0  0  0  0  0
  -24.4940  -10.7650   20.8510 C   0  0  0  0  0  0  0  0  0  0  0  0
  -24.8600   -9.7460   21.7600 C   0  0  0  0  0  3  0  0  0  0  0  0
  -24.0720   -8.5820   21.8840 C   0  0  0  0  0  3  0  0  0  0  0  0
  -22.9050   -8.4270   21.0980 C   0  0  0  0  0  0  0  0  0  0  0  0
  -22.5570   -9.4350   20.1810 C   0  0  0  0  0  3  0  0  0  0  0  0
  -23.3440  -10.5920   20.0550 C   0  0  0  0  0  3  0  0  0  0  0  0
  -22.0950   -7.3160   21.1300 O   0  0  0  0  0  0  0  0  0  0  0  0
  -22.0390   -6.4960   22.2280 C   0  0  0  0  0  0  0  0  0  0  0  0
  -21.6820   -6.9840   23.5030 C   0  0  0  0  0  3  0  0  0  0  0  0
  -21.5690   -6.0960   24.5910 C   0  0  0  0  0  3  0  0  0  0  0  0
  -21.8030   -4.7200   24.4040 C   0  0  0  0  0  0  0  0  0  0  0  0
  -22.1490   -4.2310   23.1320 C   0  0  0  0  0  3  0  0  0  0  0  0
  -22.2670   -5.1170   22.0460 C   0  0  0  0  0  0  0  0  0  0  0  0
  -22.5830   -4.6390   20.8190 F   0  0  0  0  0  0  0  0  0  0  0  0
  -21.6880   -3.8650   25.4470 F   0  0  0  0  0  0  0  0  0  0  0  0
  -23.4990  -13.9030   20.9390 C   0  0  0  0  0  0  0  0  0  0  0  0
  -22.6920  -13.2440   21.7620 N   0  0  0  0  0  0  0  0  0  0  0  0
  -23.1360  -14.9460   20.3980 O   0  0  0  0  0  0  0  0  0  0  0  0
  -22.9920  -12.4020   22.2290 H   0  0  0  0  0  0  0  0  0  0  0  0
  -21.7600  -13.5950   21.9340 H   0  0  0  0  0  0  0  0  0  0  0  0
  -26.2510  -15.4590   20.3230 N   0  0  0  0  0  0  0  0  0  0  0  0
  -25.5090  -16.1460   20.4060 H   0  0  0  0  0  0  0  0  0  0  0  0
  -27.1480  -15.8690   20.0990 H   0  0  0  0  0  0  0  0  0  0  0  0
  1  2  1  0
  3  6  2  0
  3  4  1  0
  4  1  2  0
  5  7  1  0
  5  2  2  0
  6  5  1  0
  8  6  1  0
  9 11  2  0
  9 12  1  0
 10  9  1  0
 11  8  1  0
 13 15  1  0
 13 12  1  0
 14 25  2  0
 15 20  1  0
 16 24  1  0
 16 26  1  0
 17 23  1  0
 17 19  1  0
 18 24  1  0
 19 18  1  0
 20 19  2  0
 21 22  1  0
 21 15  2  0
 22 17  2  0
 23 16  1  0
 24 14  1  0
 26 28  2  0
 27 26  1  0
 29 27  1  0
 30 39  2  0
 30 35  1  0
 31 27  1  0
 31 35  1  0
 32 31  1  0
 33 34  1  0
 33 32  1  0
 34 30  1  0
 35 36  2  0
 36 37  1  0
 38 37  2  0
 39 38  1  0
 40 14  1  0
 40 45  1  0
 40 41  1  0
 41 44  1  1
 41 42  1  0
 43 41  1  0
 45 48  1  0
 46 45  1  0
 46 50  1  0
 47 46  2  0
 50 49  1  0
 50 52  1  0
 52 53  1  0
 52 51  1  0
 54  4  1  0
 54 63  1  0
 55 63  1  0
 56 61  1  0
 57 58  1  0
 57 56  1  0
 59 58  1  0
 59 68  1  0
 59 60  1  0
 61 55  1  0
 61 60  1  0
 62 55  2  0
 63 64  1  0
 65 66  2  0
 66 85  1  0
 67 66  1  0
 67 70  1  0
 68 65  1  0
 68 69  1  0
 69 67  2  0
 70 71  1  0
 71 72  2  0
 73 76  1  0
 73 72  1  0
 74 73  2  0
 75 74  1  0
 75 70  2  0
 76 77  1  0
 77 78  1  0
 78 79  2  0
 80 79  1  0
 80 84  1  0
 81 80  2  0
 82 77  2  0
 82 81  1  0
 83 82  1  0
 85 86  1  0
 86 89  1  0
 86 88  1  0
 87 85  2  0
 90 91  1  0
 90 65  1  0
 92 90  1  0
M  ISO  4  12 101  13 101  55 100  63 100
M  END
>  <TORSDO>  (73) 
F 20

>  <SCORE>  (73) 
-10.410

>  <name>  (73) 
72

>  <ligand_id>  (73) 
72

>  <original_smiles>  (73) 
[H]c1c([H])c([H])c2c(c1[H])C([H])([H])C([H])([H])C([H])([H])C2([H])N([H])C(=O)C1([H])N(C(=O)C([H])(N([H])C(=O)C([H])(N([H])C([H])([H])[H])C([H])([H])[H])C(C([H])([H])[H])(C([H])([H])[H])C([H])([H])[H])C([H])([H])c2c([H])c(OC([H])([H])C(=NC([H])([H])c3c([H])c(C([H])([H])N([H])C(=O)N4C([H])([H])C([H])([H])C([H])([H])C([H])(n5nc(-c6c([H])c([H])c(Oc7c([H])c([H])c(F)c([H])c7F)c([H])c6[H])c(C(=O)N([H])[H])c5N([H])[H])C4([H])[H])c([H])c([H])c3C([H])([H])[H])C([H])([H])[H])c([H])c([H])c2C1([H])[H]

>  <smiles>  (73) 
[H]c1c([H])c([H])c2c(c1[H])C([H])([H])C([H])([H])C([H])([H])C2([H])N([H])C(=O)C1([H])N(C(=O)C([H])(N([H])C(=O)C([H])(N([H])C([H])([H])[H])C([H])([H])[H])C(C([H])([H])[H])(C([H])([H])[H])C([H])([H])[H])C([H])([H])c2c([H])c(OC([H])([H])C(=NC([H])([H])c3c([H])c(C([H])([H])N([H])C(=O)N4C([H])([H])C([H])([H])C([H])([H])C([H])(n5nc(-c6c([H])c([H])c(Oc7c([H])c([H])c(F)c([H])c7F)c([H])c6[H])c(C(=O)N([H])[H])c5N([H])[H])C4([H])[H])c([H])c([H])c3C([H])([H])[H])C([H])([H])[H])c([H])c([H])c2C1([H])[H]

$$$$
73:0:0
     RDKit          3D

 95104  0  0  1  0  0  0  0  0999 V2000
  -30.1410  -23.4780   21.1640 C   0  0  0  0  0  0  0  0  0  0  0  0
  -31.0820  -23.5370   22.1240 C   0  0  0  0  0  2  0  0  0  0  0  0
  -29.8870  -24.6030   20.1180 C   0  0  0  0  0  2  0  0  0  0  0  0
  -27.4780  -24.0340   20.5030 C   0  0  0  0  0  2  0  0  0  0  0  0
  -27.9930  -22.5470   20.3030 C   0  0  0  0  0  2  0  0  0  0  0  0
  -28.4210  -25.0900   19.8500 C   0  0  0  0  0  3  0  0  0  0  0  0
  -29.2600  -22.2440   21.0440 N   0  0  1  0  0  4  0  0  0  0  0  0
  -28.9230  -22.0530   21.9750 H   0  0  0  0  0  0  0  0  0  0  0  0
  -28.3110  -26.5270   20.2210 O   0  0  0  0  0  0  0  0  0  0  0  0
  -24.5480  -31.8640   23.2010 C   0  0  0  0  0  0  0  0  0  0  0  0
  -27.1510  -27.3120   20.1280 C   0  0  0  0  0  0  0  0  0  0  0  0
  -23.3280  -30.4580   21.5780 C   0  0  0  0  0  3  0  0  0  0  0  0
  -24.7670  -28.9000   20.1300 C   0  0  0  0  0  0  0  0  0  0  0  0
  -25.8590  -30.7770   21.3610 C   0  0  0  0  0  2  0  0  0  0  0  0
  -25.9310  -29.3970   20.7260 C   0  0  0  0  0  0  0  0  0  0  0  0
  -27.1190  -28.6130   20.7150 C   0  0  0  0  0  3  0  0  0  0  0  0
  -25.9750  -26.8710   19.4790 C   0  0  0  0  0  3  0  0  0  0  0  0
  -24.7950  -27.6500   19.4870 C   0  0  0  0  0  3  0  0  0  0  0  0
  -23.5210  -29.7650   20.1980 C   0  0  0  0  0  2  0  0  0  0  0  0
  -24.5980  -31.0540   22.1030 N   0  0  0  0  0  0  0  0  0  0  0  0
  -23.4680  -32.1420   23.7460 O   0  0  0  0  0  0  0  0  0  0  0  0
  -22.6770  -29.4480   22.5520 C   0  0  0  0  0  0  0  0  0  0  0  0
  -21.3490  -29.2700   22.4360 N   0  0  0  0  0  0  0  0  0  0  0  0
  -23.3630  -28.8240   23.3640 O   0  0  0  0  0  0  0  0  0  0  0  0
  -20.8600  -29.8320   21.7530 H   0  0  0  0  0  0  0  0  0  0  0  0
  -17.9750  -28.0710   22.9530 C   0  0  0  0  0  0  0  0  0  0  0  0
  -20.5350  -28.3330   23.2080 C   0  0  0  0  0  3  0  0  0  0  0  0
  -20.6340  -26.9020   22.6310 C   0  0  0  0  0  2  0  0  0  0  0  0
  -19.5270  -26.5740   21.6250 C   0  0  0  0  0  2  0  0  0  0  0  0
  -18.1490  -26.7210   22.2770 C   0  0  0  0  0  2  0  0  0  0  0  0
  -19.0950  -28.8360   23.3740 C   0  0  0  0  0  0  0  0  0  0  0  0
  -18.8790  -30.0990   23.9640 C   0  0  0  0  0  3  0  0  0  0  0  0
  -17.5740  -30.5960   24.1430 C   0  0  0  0  0  3  0  0  0  0  0  0
  -16.4690  -29.8270   23.7410 C   0  0  0  0  0  3  0  0  0  0  0  0
  -16.6700  -28.5670   23.1500 C   0  0  0  0  0  3  0  0  0  0  0  0
  -25.8330  -32.5030   23.8120 C   0  0  0  0  0  3  0  0  0  0  0  0
  -25.5170  -33.8980   24.1540 N   0  0  0  0  0  0  0  0  0  0  0  0
  -25.8330  -34.9600   23.4020 C   0  0  0  0  0  0  0  0  0  0  0  0
  -26.4930  -34.8710   22.3630 O   0  0  0  0  0  0  0  0  0  0  0  0
  -24.9310  -34.0370   24.9630 H   0  0  0  0  0  0  0  0  0  0  0  0
  -24.0940  -36.7560   23.0820 C   0  0  0  0  0  1  0  0  0  0  0  0
  -25.3440  -36.3440   23.8760 C   0  0  0  0  0  3  0  0  0  0  0  0
  -27.4820  -37.2330   24.6950 C   0  0  0  0  0  1  0  0  0  0  0  0
  -26.3700  -37.4030   23.7650 N   0  0  0  0  0  0  0  0  0  0  0  0
  -25.9590  -38.3200   23.9210 H   0  0  0  0  0  0  0  0  0  0  0  0
  -26.3610  -31.7330   25.0860 C   0  0  1  0  0  0  0  0  0  0  0  0
  -25.2800  -31.4900   26.1660 C   0  0  0  0  0  1  0  0  0  0  0  0
  -26.9430  -30.3590   24.6840 C   0  0  0  0  0  1  0  0  0  0  0  0
  -27.5110  -32.5310   25.7430 C   0  0  0  0  0  1  0  0  0  0  0  0
  -30.0680  -20.9710   20.7510 C   0  0  0  0  0  2  0  0  0  0  0  0
  -28.8700  -19.4490   19.0800 C   0  0  0  0  0  3  0  0  0  0  0  0
  -28.9800  -17.0000   19.1440 C   0  0  0  0  0  3  0  0  0  0  0  0
  -29.8600  -18.3100   20.9950 C   0  0  0  0  0  3  0  0  0  0  0  0
  -28.6010  -18.1920   18.5000 C   0  0  0  0  0  0  0  0  0  0  0  0
  -29.5160  -19.5540   20.3300 C   0  0  0  0  0  0  0  0  0  0  0  0
  -29.6200  -17.0150   20.4010 C   0  0  0  0  0  0  0  0  0  0  0  0
  -27.9360  -18.1140   17.1410 C   0  0  0  0  0  1  0  0  0  0  0  0
  -30.6040  -14.6770   20.4710 C   0  0  0  0  0  0  0  0  0  0  0  0
  -30.3900  -12.4580   19.3760 C   0  0  0  0  0  2  0  0  0  0  0  0
  -29.4620  -12.6060   18.1450 C   0  0  0  0  0  2  0  0  0  0  0  0
  -27.9800  -12.4540   18.5420 C   0  0  0  0  0  2  0  0  0  0  0  0
  -27.6110  -13.2870   19.7990 C   0  0  0  0  0  3  0  0  0  0  0  0
  -28.6540  -13.1160   20.9280 C   0  0  0  0  0  2  0  0  0  0  0  0
  -29.9750  -13.4600   20.3820 N   0  0  0  0  0  0  0  0  0  0  0  0
  -31.7320  -14.8450   20.0010 O   0  0  0  0  0  0  0  0  0  0  0  0
  -29.9080  -15.7230   21.0260 N   0  0  0  0  0  0  0  0  0  0  0  0
  -29.1810  -15.4000   21.6470 H   0  0  0  0  0  0  0  0  0  0  0  0
  -25.2070  -13.9020   20.4620 C   0  0  0  0  0  0  0  0  0  0  0  0
  -24.1270  -13.1400   20.8220 C   0  0  0  0  0  0  0  0  0  0  0  0
  -24.5830  -11.7850   20.8130 C   0  0  0  0  0  0  0  0  0  0  0  0
  -26.2500  -13.0120   20.2560 N   0  0  0  0  0  0  0  0  0  0  0  0
  -25.8790  -11.7350   20.5250 N   0  0  0  0  0  0  0  0  0  0  0  0
  -23.8470  -10.5280   21.0080 C   0  0  0  0  0  0  0  0  0  0  0  0
  -24.2680   -9.5680   21.9550 C   0  0  0  0  0  3  0  0  0  0  0  0
  -23.5380   -8.3740   22.1390 C   0  0  0  0  0  3  0  0  0  0  0  0
  -22.3740   -8.1300   21.3750 C   0  0  0  0  0  0  0  0  0  0  0  0
  -21.9690   -9.0790   20.4190 C   0  0  0  0  0  3  0  0  0  0  0  0
  -22.7000  -10.2650   20.2340 C   0  0  0  0  0  3  0  0  0  0  0  0
  -21.6140   -6.9880   21.4660 O   0  0  0  0  0  0  0  0  0  0  0  0
  -21.5560   -6.2510   22.6220 C   0  0  0  0  0  0  0  0  0  0  0  0
  -21.1320   -6.8140   23.8440 C   0  0  0  0  0  3  0  0  0  0  0  0
  -21.0210   -6.0050   24.9910 C   0  0  0  0  0  3  0  0  0  0  0  0
  -21.3240   -4.6310   24.9180 C   0  0  0  0  0  0  0  0  0  0  0  0
  -21.7440   -4.0680   23.7000 C   0  0  0  0  0  3  0  0  0  0  0  0
  -21.8560   -4.8750   22.5550 C   0  0  0  0  0  0  0  0  0  0  0  0
  -22.2390   -4.3210   21.3800 F   0  0  0  0  0  0  0  0  0  0  0  0
  -21.2100   -3.8530   26.0180 F   0  0  0  0  0  0  0  0  0  0  0  0
  -22.7280  -13.6290   21.0680 C   0  0  0  0  0  0  0  0  0  0  0  0
  -21.9800  -12.9460   21.9300 N   0  0  0  0  0  0  0  0  0  0  0  0
  -22.3040  -14.6510   20.5330 O   0  0  0  0  0  0  0  0  0  0  0  0
  -22.3310  -12.1190   22.3880 H   0  0  0  0  0  0  0  0  0  0  0  0
  -21.0420  -13.2620   22.1360 H   0  0  0  0  0  0  0  0  0  0  0  0
  -25.4000  -15.2670   20.2730 N   0  0  0  0  0  0  0  0  0  0  0  0
  -24.6670  -15.9620   20.3620 H   0  0  0  0  0  0  0  0  0  0  0  0
  -26.2890  -15.6630   19.9960 H   0  0  0  0  0  0  0  0  0  0  0  0
  1  2  2  0
  3  1  1  0
  5  4  1  0
  5  7  1  0
  6  3  1  0
  6  9  1  0
  6  4  1  0
  7  1  1  0
  7  8  1  1
 10 21  2  0
 11  9  1  0
 11 16  1  0
 12 20  1  0
 12 22  1  0
 13 19  1  0
 13 15  1  0
 14 20  1  0
 15 14  1  0
 16 15  2  0
 17 18  1  0
 17 11  2  0
 18 13  2  0
 19 12  1  0
 20 10  1  0
 22 24  2  0
 23 22  1  0
 25 23  1  0
 26 35  2  0
 26 31  1  0
 27 23  1  0
 27 31  1  0
 28 27  1  0
 29 30  1  0
 29 28  1  0
 30 26  1  0
 31 32  2  0
 32 33  1  0
 34 33  2  0
 35 34  1  0
 36 10  1  0
 36 37  1  0
 36 46  1  0
 37 40  1  0
 38 42  1  0
 38 37  1  0
 39 38  2  0
 42 41  1  0
 44 42  1  0
 44 45  1  0
 44 43  1  0
 46 49  1  1
 46 47  1  0
 48 46  1  0
 50  7  1  0
 51 55  1  0
 52 56  2  0
 54 51  2  0
 54 52  1  0
 55 50  1  0
 55 53  2  0
 56 53  1  0
 56 66  1  0
 57 54  1  0
 58 66  1  0
 59 64  1  0
 60 61  1  0
 60 59  1  0
 62 61  1  0
 62 71  1  0
 62 63  1  0
 64 58  1  0
 64 63  1  0
 65 58  2  0
 66 67  1  0
 68 69  2  0
 69 88  1  0
 70 69  1  0
 70 73  1  0
 71 68  1  0
 71 72  1  0
 72 70  2  0
 73 74  1  0
 74 75  2  0
 76 79  1  0
 76 75  1  0
 77 76  2  0
 78 77  1  0
 78 73  2  0
 79 80  1  0
 80 81  1  0
 81 82  2  0
 83 82  1  0
 83 87  1  0
 84 83  2  0
 85 80  2  0
 85 84  1  0
 86 85  1  0
 88 89  1  0
 89 92  1  0
 89 91  1  0
 90 88  2  0
 93 94  1  0
 93 68  1  0
 95 93  1  0
M  ISO  4   6 101   9 101  58 100  66 100
M  END
>  <TORSDO>  (74) 
F 18

>  <SCORE>  (74) 
-14.037

>  <name>  (74) 
73

>  <ligand_id>  (74) 
73

>  <original_smiles>  (74) 
[H]C([H])=C1C([H])([H])C([H])(Oc2c([H])c([H])c3c(c2[H])C([H])([H])N(C(=O)C([H])(N([H])C(=O)C([H])(N([H])C([H])([H])[H])C([H])([H])[H])C(C([H])([H])[H])(C([H])([H])[H])C([H])([H])[H])C([H])(C(=O)N([H])C2([H])c4c([H])c([H])c([H])c([H])c4C([H])([H])C([H])([H])C2([H])[H])C3([H])[H])C([H])([H])C([H])([H])[N+]1([H])C([H])([H])c1c([H])c(N([H])C(=O)N2C([H])([H])C([H])([H])C([H])([H])C([H])(n3nc(-c4c([H])c([H])c(Oc5c([H])c([H])c(F)c([H])c5F)c([H])c4[H])c(C(=O)N([H])[H])c3N([H])[H])C2([H])[H])c([H])c(C([H])([H])[H])c1[H]

>  <smiles>  (74) 
[H]C([H])=C1C([H])([H])C([H])(Oc2c([H])c([H])c3c(c2[H])C([H])([H])N(C(=O)C([H])(N([H])C(=O)C([H])(N([H])C([H])([H])[H])C([H])([H])[H])C(C([H])([H])[H])(C([H])([H])[H])C([H])([H])[H])C([H])(C(=O)N([H])C2([H])c4c([H])c([H])c([H])c([H])c4C([H])([H])C([H])([H])C2([H])[H])C3([H])[H])C([H])([H])C([H])([H])[N+]1([H])C([H])([H])c1c([H])c(N([H])C(=O)N2C([H])([H])C([H])([H])C([H])([H])C([H])(n3nc(-c4c([H])c([H])c(Oc5c([H])c([H])c(F)c([H])c5F)c([H])c4[H])c(C(=O)N([H])[H])c3N([H])[H])C2([H])[H])c([H])c(C([H])([H])[H])c1[H]

$$$$
74:0:0
     RDKit          3D

 96105  0  0  1  0  0  0  0  0999 V2000
  -27.9080  -22.8470   20.9080 C   0  0  0  0  0  0  0  0  0  0  0  0
  -26.8190  -22.0650   21.0360 C   0  0  0  0  0  2  0  0  0  0  0  0
  -27.8400  -24.3970   21.0950 C   0  0  0  0  0  2  0  0  0  0  0  0
  -30.1840  -24.6830   20.5860 C   0  0  0  0  0  2  0  0  0  0  0  0
  -30.3720  -23.1810   20.1800 C   0  0  0  0  0  2  0  0  0  0  0  0
  -28.8020  -25.2880   20.2600 C   0  0  0  0  0  3  0  0  0  0  0  0
  -29.2300  -22.2330   20.4290 N   0  0  1  0  0  4  0  0  0  0  0  0
  -29.0230  -21.9930   19.4720 H   0  0  0  0  0  0  0  0  0  0  0  0
  -28.7670  -26.7440   20.5650 O   0  0  0  0  0  0  0  0  0  0  0  0
  -24.7400  -31.9940   23.4250 C   0  0  0  0  0  0  0  0  0  0  0  0
  -27.5980  -27.5170   20.4670 C   0  0  0  0  0  0  0  0  0  0  0  0
  -23.6360  -30.5640   21.7410 C   0  0  0  0  0  3  0  0  0  0  0  0
  -25.1820  -29.0520   20.3690 C   0  0  0  0  0  0  0  0  0  0  0  0
  -26.1680  -30.9560   21.6480 C   0  0  0  0  0  2  0  0  0  0  0  0
  -26.3120  -29.5810   21.0050 C   0  0  0  0  0  0  0  0  0  0  0  0
  -27.5200  -28.8250   21.0410 C   0  0  0  0  0  3  0  0  0  0  0  0
  -26.4410  -27.0340   19.8140 C   0  0  0  0  0  3  0  0  0  0  0  0
  -25.2480  -27.7850   19.7660 C   0  0  0  0  0  3  0  0  0  0  0  0
  -23.9190  -29.8900   20.3710 C   0  0  0  0  0  2  0  0  0  0  0  0
  -24.8650  -31.1890   22.3290 N   0  0  0  0  0  0  0  0  0  0  0  0
  -23.6310  -32.2400   23.9210 O   0  0  0  0  0  0  0  0  0  0  0  0
  -22.9670  -29.5310   22.6770 C   0  0  0  0  0  0  0  0  0  0  0  0
  -21.6500  -29.3230   22.5040 N   0  0  0  0  0  0  0  0  0  0  0  0
  -23.6310  -28.9190   23.5160 O   0  0  0  0  0  0  0  0  0  0  0  0
  -21.1730  -29.8690   21.8010 H   0  0  0  0  0  0  0  0  0  0  0  0
  -18.2840  -28.0550   22.8910 C   0  0  0  0  0  0  0  0  0  0  0  0
  -20.8270  -28.3630   23.2430 C   0  0  0  0  0  3  0  0  0  0  0  0
  -20.9770  -26.9390   22.6620 C   0  0  0  0  0  2  0  0  0  0  0  0
  -19.9140  -26.6000   21.6110 C   0  0  0  0  0  2  0  0  0  0  0  0
  -18.5090  -26.7130   22.2140 C   0  0  0  0  0  2  0  0  0  0  0  0
  -19.3740  -28.8370   23.3610 C   0  0  0  0  0  0  0  0  0  0  0  0
  -19.1110  -30.0910   23.9520 C   0  0  0  0  0  3  0  0  0  0  0  0
  -17.7920  -30.5650   24.0810 C   0  0  0  0  0  3  0  0  0  0  0  0
  -16.7170  -29.7800   23.6300 C   0  0  0  0  0  3  0  0  0  0  0  0
  -16.9630  -28.5270   23.0410 C   0  0  0  0  0  3  0  0  0  0  0  0
  -25.9820  -32.6600   24.0950 C   0  0  0  0  0  3  0  0  0  0  0  0
  -26.4560  -31.9160   25.4040 C   0  0  1  0  0  0  0  0  0  0  0  0
  -25.3140  -31.6300   26.4070 C   0  0  0  0  0  1  0  0  0  0  0  0
  -27.1240  -30.5660   25.0540 C   0  0  0  0  0  1  0  0  0  0  0  0
  -27.5280  -32.7630   26.1290 C   0  0  0  0  0  1  0  0  0  0  0  0
  -25.6320  -34.0560   24.3930 N   0  0  0  0  0  0  0  0  0  0  0  0
  -25.9910  -35.1090   23.6460 C   0  0  0  0  0  0  0  0  0  0  0  0
  -26.7210  -35.0080   22.6570 O   0  0  0  0  0  0  0  0  0  0  0  0
  -24.9900  -34.2060   25.1580 H   0  0  0  0  0  0  0  0  0  0  0  0
  -24.2490  -36.8640   23.1860 C   0  0  0  0  0  1  0  0  0  0  0  0
  -25.4550  -36.4930   24.0620 C   0  0  0  0  0  3  0  0  0  0  0  0
  -27.5350  -37.4230   24.9790 C   0  0  0  0  0  1  0  0  0  0  0  0
  -26.4730  -37.5650   23.9870 N   0  0  0  0  0  0  0  0  0  0  0  0
  -26.0430  -38.4780   24.1120 H   0  0  0  0  0  0  0  0  0  0  0  0
  -29.6210  -20.8090   20.8830 C   0  0  0  0  0  2  0  0  0  0  0  0
  -29.9650  -20.2970   18.4210 C   0  0  0  0  0  3  0  0  0  0  0  0
  -30.3190  -19.5420   17.2930 C   0  0  0  0  0  3  0  0  0  0  0  0
  -30.8760  -17.6870   18.7320 C   0  0  0  0  0  3  0  0  0  0  0  0
  -30.0470  -19.7900   19.7490 C   0  0  0  0  0  0  0  0  0  0  0  0
  -30.5190  -18.4050   19.9040 C   0  0  0  0  0  0  0  0  0  0  0  0
  -30.7780  -18.2330   17.4470 C   0  0  0  0  0  0  0  0  0  0  0  0
  -31.2300  -17.3000   16.0690 Cl  0  0  0  0  0  0  0  0  0  0  0  0
  -30.7320  -17.5830   21.2250 C   0  0  0  0  0  2  0  0  0  0  0  0
  -31.2560  -15.0160   20.8840 C   0  0  0  0  0  0  0  0  0  0  0  0
  -31.0820  -12.8480   19.6780 C   0  0  0  0  0  2  0  0  0  0  0  0
  -30.2330  -13.0660   18.4050 C   0  0  0  0  0  2  0  0  0  0  0  0
  -28.7300  -12.9150   18.7180 C   0  0  0  0  0  2  0  0  0  0  0  0
  -28.2980  -13.7160   19.9750 C   0  0  0  0  0  3  0  0  0  0  0  0
  -29.2670  -13.4740   21.1540 C   0  0  0  0  0  2  0  0  0  0  0  0
  -30.6200  -13.8170   20.6910 N   0  0  0  0  0  0  0  0  0  0  0  0
  -32.4510  -15.1580   20.6080 O   0  0  0  0  0  0  0  0  0  0  0  0
  -30.4560  -16.0900   21.1840 N   0  0  0  0  0  0  0  0  0  0  0  0
  -29.4980  -15.8390   21.3770 H   0  0  0  0  0  0  0  0  0  0  0  0
  -25.8510  -14.3250   20.4610 C   0  0  0  0  0  0  0  0  0  0  0  0
  -24.7550  -13.5570   20.7500 C   0  0  0  0  0  0  0  0  0  0  0  0
  -25.2170  -12.2070   20.7910 C   0  0  0  0  0  0  0  0  0  0  0  0
  -26.9110  -13.4410   20.3410 N   0  0  0  0  0  0  0  0  0  0  0  0
  -26.5300  -12.1640   20.6020 N   0  0  0  0  0  0  0  0  0  0  0  0
  -24.4760  -10.9480   20.9430 C   0  0  0  0  0  0  0  0  0  0  0  0
  -24.8030  -10.0140   21.9520 C   0  0  0  0  0  3  0  0  0  0  0  0
  -24.0640   -8.8190   22.0880 C   0  0  0  0  0  3  0  0  0  0  0  0
  -22.9840   -8.5510   21.2140 C   0  0  0  0  0  0  0  0  0  0  0  0
  -22.6780   -9.4720   20.1970 C   0  0  0  0  0  3  0  0  0  0  0  0
  -23.4180  -10.6580   20.0590 C   0  0  0  0  0  3  0  0  0  0  0  0
  -22.2260   -7.4040   21.2540 O   0  0  0  0  0  0  0  0  0  0  0  0
  -21.9980   -6.7340   22.4300 C   0  0  0  0  0  0  0  0  0  0  0  0
  -21.4090   -7.3680   23.5460 C   0  0  0  0  0  3  0  0  0  0  0  0
  -21.1270   -6.6250   24.7090 C   0  0  0  0  0  3  0  0  0  0  0  0
  -21.4250   -5.2500   24.7570 C   0  0  0  0  0  0  0  0  0  0  0  0
  -22.0070   -4.6160   23.6450 C   0  0  0  0  0  3  0  0  0  0  0  0
  -22.2900   -5.3570   22.4840 C   0  0  0  0  0  0  0  0  0  0  0  0
  -22.8310   -4.7360   21.4080 F   0  0  0  0  0  0  0  0  0  0  0  0
  -21.1480   -4.5350   25.8730 F   0  0  0  0  0  0  0  0  0  0  0  0
  -23.3380  -14.0390   20.8840 C   0  0  0  0  0  0  0  0  0  0  0  0
  -22.5440  -13.3820   21.7230 N   0  0  0  0  0  0  0  0  0  0  0  0
  -22.9420  -15.0340   20.2780 O   0  0  0  0  0  0  0  0  0  0  0  0
  -22.8780  -12.5770   22.2310 H   0  0  0  0  0  0  0  0  0  0  0  0
  -21.5920  -13.6900   21.8580 H   0  0  0  0  0  0  0  0  0  0  0  0
  -26.0290  -15.6920   20.2690 N   0  0  0  0  0  0  0  0  0  0  0  0
  -25.2500  -16.3410   20.2900 H   0  0  0  0  0  0  0  0  0  0  0  0
  -26.8950  -16.1250   19.9740 H   0  0  0  0  0  0  0  0  0  0  0  0
  1  2  2  0
  1  3  1  0
  5  7  1  0
  5  4  1  0
  6  9  1  0
  6  4  1  0
  6  3  1  0
  7 50  1  0
  7  1  1  0
  7  8  1  6
 10 21  2  0
 11  9  1  0
 11 16  1  0
 12 20  1  0
 12 22  1  0
 13 19  1  0
 13 15  1  0
 14 20  1  0
 15 16  2  0
 15 14  1  0
 17 11  2  0
 18 17  1  0
 18 13  2  0
 19 12  1  0
 20 10  1  0
 22 24  2  0
 23 22  1  0
 25 23  1  0
 26 35  2  0
 26 31  1  0
 27 23  1  0
 27 31  1  0
 28 27  1  0
 29 30  1  0
 29 28  1  0
 30 26  1  0
 31 32  2  0
 32 33  1  0
 34 33  2  0
 35 34  1  0
 36 10  1  0
 36 41  1  0
 36 37  1  0
 37 40  1  1
 37 38  1  0
 39 37  1  0
 41 44  1  0
 42 46  1  0
 42 41  1  0
 43 42  2  0
 46 45  1  0
 48 46  1  0
 48 49  1  0
 48 47  1  0
 51 54  1  0
 52 56  1  0
 52 51  2  0
 53 55  1  0
 54 55  2  0
 54 50  1  0
 55 58  1  0
 56 53  2  0
 57 56  1  0
 59 67  1  0
 60 65  1  0
 61 62  1  0
 61 60  1  0
 63 62  1  0
 63 72  1  0
 63 64  1  0
 65 59  1  0
 65 64  1  0
 66 59  2  0
 67 58  1  0
 67 68  1  0
 69 70  2  0
 70 71  1  0
 70 89  1  0
 71 74  1  0
 72 69  1  0
 72 73  1  0
 73 71  2  0
 74 75  1  0
 75 76  2  0
 77 80  1  0
 77 76  1  0
 78 77  2  0
 79 78  1  0
 79 74  2  0
 80 81  1  0
 81 86  2  0
 81 82  1  0
 82 83  2  0
 83 84  1  0
 84 88  1  0
 85 84  2  0
 86 85  1  0
 87 86  1  0
 89 90  1  0
 90 93  1  0
 90 92  1  0
 91 89  2  0
 94 95  1  0
 94 69  1  0
 96 94  1  0
M  ISO  4   6 101   9 101  59 100  67 100
M  END
>  <TORSDO>  (75) 
F 19

>  <SCORE>  (75) 
-13.041

>  <name>  (75) 
74

>  <ligand_id>  (75) 
74

>  <original_smiles>  (75) 
[H]C([H])=C1C([H])([H])C([H])(Oc2c([H])c([H])c3c(c2[H])C([H])([H])N(C(=O)C([H])(N([H])C(=O)C([H])(N([H])C([H])([H])[H])C([H])([H])[H])C(C([H])([H])[H])(C([H])([H])[H])C([H])([H])[H])C([H])(C(=O)N([H])C2([H])c4c([H])c([H])c([H])c([H])c4C([H])([H])C([H])([H])C2([H])[H])C3([H])[H])C([H])([H])C([H])([H])[N+]1([H])C([H])([H])c1c([H])c([H])c(Cl)c([H])c1C([H])([H])N([H])C(=O)N1C([H])([H])C([H])([H])C([H])([H])C([H])(n2nc(-c3c([H])c([H])c(Oc4c([H])c([H])c(F)c([H])c4F)c([H])c3[H])c(C(=O)N([H])[H])c2N([H])[H])C1([H])[H]

>  <smiles>  (75) 
[H]C([H])=C1C([H])([H])C([H])(Oc2c([H])c([H])c3c(c2[H])C([H])([H])N(C(=O)C([H])(N([H])C(=O)C([H])(N([H])C([H])([H])[H])C([H])([H])[H])C(C([H])([H])[H])(C([H])([H])[H])C([H])([H])[H])C([H])(C(=O)N([H])C2([H])c4c([H])c([H])c([H])c([H])c4C([H])([H])C([H])([H])C2([H])[H])C3([H])[H])C([H])([H])C([H])([H])[N+]1([H])C([H])([H])c1c([H])c([H])c(Cl)c([H])c1C([H])([H])N([H])C(=O)N1C([H])([H])C([H])([H])C([H])([H])C([H])(n2nc(-c3c([H])c([H])c(Oc4c([H])c([H])c(F)c([H])c4F)c([H])c3[H])c(C(=O)N([H])[H])c2N([H])[H])C1([H])[H]

$$$$
75:0:0
     RDKit          3D

 98106  0  0  1  0  0  0  0  0999 V2000
  -29.2440  -20.6480   21.0260 C   0  0  0  0  0  0  0  0  0  0  0  0
  -28.0030  -20.6580   21.5270 N   0  0  0  0  0  4  0  0  0  0  0  0
  -29.8120  -21.8320   20.7110 N   0  0  0  0  0  0  0  0  0  0  0  0
  -27.5450  -19.7780   21.7090 H   0  0  0  0  0  0  0  0  0  0  0  0
  -27.4710  -21.4990   21.6600 H   0  0  0  0  0  0  0  0  0  0  0  0
  -30.7610  -21.8310   20.3600 H   0  0  0  0  0  0  0  0  0  0  0  0
  -30.7750  -17.2780   21.8890 C   0  0  0  0  0  3  0  0  0  0  0  0
  -30.3300  -17.3410   19.5000 C   0  0  0  0  0  3  0  0  0  0  0  0
  -29.8970  -19.3320   20.8730 C   0  0  0  0  0  0  0  0  0  0  0  0
  -30.3920  -18.6310   22.0120 C   0  0  0  0  0  0  0  0  0  0  0  0
  -30.7100  -16.6070   20.6520 C   0  0  0  0  0  0  0  0  0  0  0  0
  -29.9250  -18.6900   19.6100 C   0  0  0  0  0  0  0  0  0  0  0  0
  -30.5170  -19.2670   23.3930 C   0  0  0  0  0  1  0  0  0  0  0  0
  -29.4980  -19.3360   18.4980 F   0  0  0  0  0  0  0  0  0  0  0  0
  -31.3130  -14.4160   19.6450 C   0  0  0  0  0  0  0  0  0  0  0  0
  -30.8480  -12.2800   18.4990 C   0  0  0  0  0  2  0  0  0  0  0  0
  -29.7640  -12.4780   17.4210 C   0  0  0  0  0  2  0  0  0  0  0  0
  -28.3520  -12.3550   18.0250 C   0  0  0  0  0  2  0  0  0  0  0  0
  -28.1750  -13.2160   19.3040 C   0  0  0  0  0  3  0  0  0  0  0  0
  -29.3480  -12.9750   20.2820 C   0  0  0  0  0  2  0  0  0  0  0  0
  -30.6180  -13.2510   19.5790 N   0  0  0  0  0  0  0  0  0  0  0  0
  -32.2340  -14.7050   18.8730 O   0  0  0  0  0  0  0  0  0  0  0  0
  -30.9700  -15.2060   20.6710 N   0  0  0  0  0  0  0  0  0  0  0  0
  -30.4800  -14.7070   21.3980 H   0  0  0  0  0  0  0  0  0  0  0  0
  -25.9150  -13.8720   20.3560 C   0  0  0  0  0  0  0  0  0  0  0  0
  -24.8700  -13.1200   20.8200 C   0  0  0  0  0  0  0  0  0  0  0  0
  -25.2580  -11.7570   20.6480 C   0  0  0  0  0  0  0  0  0  0  0  0
  -26.8800  -12.9680   19.9380 N   0  0  0  0  0  0  0  0  0  0  0  0
  -26.4920  -11.6870   20.1650 N   0  0  0  0  0  0  0  0  0  0  0  0
  -24.5080  -10.5120   20.8640 C   0  0  0  0  0  0  0  0  0  0  0  0
  -24.9480   -9.5320   21.7800 C   0  0  0  0  0  3  0  0  0  0  0  0
  -24.2020   -8.3510   21.9800 C   0  0  0  0  0  3  0  0  0  0  0  0
  -22.9980   -8.1430   21.2640 C   0  0  0  0  0  0  0  0  0  0  0  0
  -22.5740   -9.1120   20.3380 C   0  0  0  0  0  3  0  0  0  0  0  0
  -23.3220  -10.2840   20.1360 C   0  0  0  0  0  3  0  0  0  0  0  0
  -22.2180   -7.0170   21.3790 O   0  0  0  0  0  0  0  0  0  0  0  0
  -22.0850   -6.3490   22.5700 C   0  0  0  0  0  0  0  0  0  0  0  0
  -21.5850   -6.9830   23.7280 C   0  0  0  0  0  3  0  0  0  0  0  0
  -21.4000   -6.2400   24.9120 C   0  0  0  0  0  3  0  0  0  0  0  0
  -21.7070   -4.8660   24.9380 C   0  0  0  0  0  0  0  0  0  0  0  0
  -22.2010   -4.2340   23.7840 C   0  0  0  0  0  3  0  0  0  0  0  0
  -22.3880   -4.9730   22.6030 C   0  0  0  0  0  0  0  0  0  0  0  0
  -22.8430   -4.3530   21.4870 F   0  0  0  0  0  0  0  0  0  0  0  0
  -21.5210   -4.1510   26.0720 F   0  0  0  0  0  0  0  0  0  0  0  0
  -23.5450  -13.6300   21.3110 C   0  0  0  0  0  0  0  0  0  0  0  0
  -22.9230  -12.9220   22.2490 N   0  0  0  0  0  0  0  0  0  0  0  0
  -23.0750  -14.6880   20.8960 O   0  0  0  0  0  0  0  0  0  0  0  0
  -23.3190  -12.0650   22.6050 H   0  0  0  0  0  0  0  0  0  0  0  0
  -22.0400  -13.2460   22.6190 H   0  0  0  0  0  0  0  0  0  0  0  0
  -26.1210  -15.2430   20.2380 N   0  0  0  0  0  0  0  0  0  0  0  0
  -25.4100  -15.9230   20.4850 H   0  0  0  0  0  0  0  0  0  0  0  0
  -26.9460  -15.6620   19.8280 H   0  0  0  0  0  0  0  0  0  0  0  0
  -29.1650  -23.1340   20.9910 C   0  0  0  0  0  2  0  0  0  0  0  0
  -31.0770  -24.8030   21.1960 C   0  0  0  0  0  1  0  0  0  0  0  0
  -30.1800  -24.1800   18.9140 C   0  0  0  0  0  1  0  0  0  0  0  0
  -29.8230  -24.4100   20.3940 C   0  0  1  0  0  0  0  0  0  0  0  0
  -28.7320  -25.5090   20.5280 C   0  0  0  0  0  2  0  0  0  0  0  0
  -28.9610  -26.7880   19.9020 O   0  0  0  0  0  0  0  0  0  0  0  0
  -25.0120  -31.7110   23.1740 C   0  0  0  0  0  0  0  0  0  0  0  0
  -27.8020  -27.5390   19.8690 C   0  0  0  0  0  0  0  0  0  0  0  0
  -23.8470  -30.3390   21.4760 C   0  0  0  0  0  3  0  0  0  0  0  0
  -25.3510  -28.9440   19.9600 C   0  0  0  0  0  0  0  0  0  0  0  0
  -26.3530  -30.8150   21.2750 C   0  0  0  0  0  2  0  0  0  0  0  0
  -26.4920  -29.4840   20.5670 C   0  0  0  0  0  0  0  0  0  0  0  0
  -27.7230  -28.7890   20.5200 C   0  0  0  0  0  3  0  0  0  0  0  0
  -26.6500  -27.0310   19.2230 C   0  0  0  0  0  3  0  0  0  0  0  0
  -25.4250  -27.7170   19.2830 C   0  0  0  0  0  3  0  0  0  0  0  0
  -24.0680  -29.7370   20.0640 C   0  0  0  0  0  2  0  0  0  0  0  0
  -25.0890  -30.9670   22.0330 N   0  0  0  0  0  0  0  0  0  0  0  0
  -23.9260  -31.9120   23.7350 O   0  0  0  0  0  0  0  0  0  0  0  0
  -23.2490  -29.2460   22.3920 C   0  0  0  0  0  0  0  0  0  0  0  0
  -21.9380  -28.9920   22.2450 N   0  0  0  0  0  0  0  0  0  0  0  0
  -23.9610  -28.6330   23.1910 O   0  0  0  0  0  0  0  0  0  0  0  0
  -21.4240  -29.5440   21.5730 H   0  0  0  0  0  0  0  0  0  0  0  0
  -18.6450  -27.5560   22.6240 C   0  0  0  0  0  0  0  0  0  0  0  0
  -21.1690  -27.9820   22.9730 C   0  0  0  0  0  3  0  0  0  0  0  0
  -21.3870  -26.5750   22.3690 C   0  0  0  0  0  2  0  0  0  0  0  0
  -20.3360  -26.2010   21.3180 C   0  0  0  0  0  2  0  0  0  0  0  0
  -18.9320  -26.2360   21.9260 C   0  0  0  0  0  2  0  0  0  0  0  0
  -19.6960  -28.3830   23.1010 C   0  0  0  0  0  0  0  0  0  0  0  0
  -19.3750  -29.6150   23.7090 C   0  0  0  0  0  3  0  0  0  0  0  0
  -18.0340  -30.0220   23.8470 C   0  0  0  0  0  3  0  0  0  0  0  0
  -16.9970  -29.1910   23.3880 C   0  0  0  0  0  3  0  0  0  0  0  0
  -17.3030  -27.9610   22.7800 C   0  0  0  0  0  3  0  0  0  0  0  0
  -26.2780  -32.3640   23.8110 C   0  0  0  0  0  3  0  0  0  0  0  0
  -26.8060  -31.5890   25.0790 C   0  0  1  0  0  0  0  0  0  0  0  0
  -25.7120  -31.3010   26.1320 C   0  0  0  0  0  1  0  0  0  0  0  0
  -27.4340  -30.2360   24.6680 C   0  0  0  0  0  1  0  0  0  0  0  0
  -27.9240  -32.4070   25.7640 C   0  0  0  0  0  1  0  0  0  0  0  0
  -25.9330  -33.7500   24.1530 N   0  0  0  0  0  0  0  0  0  0  0  0
  -26.2850  -34.8220   23.4310 C   0  0  0  0  0  0  0  0  0  0  0  0
  -27.0030  -34.7490   22.4300 O   0  0  0  0  0  0  0  0  0  0  0  0
  -25.2980  -33.8790   24.9280 H   0  0  0  0  0  0  0  0  0  0  0  0
  -24.5540  -36.5990   23.0230 C   0  0  0  0  0  1  0  0  0  0  0  0
  -25.7550  -36.1920   23.8920 C   0  0  0  0  0  3  0  0  0  0  0  0
  -27.8340  -37.0780   24.8510 C   0  0  0  0  0  1  0  0  0  0  0  0
  -26.7770  -37.2610   23.8580 N   0  0  0  0  0  0  0  0  0  0  0  0
  -26.3530  -38.1710   24.0120 H   0  0  0  0  0  0  0  0  0  0  0  0
  1  2  2  0
  2  5  1  0
  2  4  1  0
  3 53  1  0
  3  1  1  0
  6  3  1  0
  7 10  1  0
  8 12  2  0
  8 11  1  0
  9  1  1  0
  9 10  2  0
 10 13  1  0
 11 23  1  0
 11  7  2  0
 12  9  1  0
 14 12  1  0
 15 23  1  0
 16 21  1  0
 17 18  1  0
 17 16  1  0
 19 18  1  0
 19 28  1  0
 19 20  1  0
 21 15  1  0
 21 20  1  0
 22 15  2  0
 23 24  1  0
 25 26  2  0
 26 45  1  0
 27 26  1  0
 27 30  1  0
 28 29  1  0
 28 25  1  0
 29 27  2  0
 30 31  1  0
 31 32  2  0
 33 36  1  0
 33 32  1  0
 34 33  2  0
 35 34  1  0
 35 30  2  0
 36 37  1  0
 37 42  2  0
 37 38  1  0
 38 39  2  0
 39 40  1  0
 40 44  1  0
 41 40  2  0
 42 41  1  0
 43 42  1  0
 45 46  1  0
 46 48  1  0
 46 49  1  0
 47 45  2  0
 50 25  1  0
 50 51  1  0
 52 50  1  0
 56 55  1  6
 56 57  1  0
 56 53  1  0
 56 54  1  0
 58 57  1  0
 59 70  2  0
 60 58  1  0
 60 65  1  0
 61 69  1  0
 61 71  1  0
 62 68  1  0
 62 64  1  0
 63 69  1  0
 64 63  1  0
 65 64  2  0
 66 67  1  0
 66 60  2  0
 67 62  2  0
 68 61  1  0
 69 59  1  0
 71 73  2  0
 72 71  1  0
 74 72  1  0
 75 84  2  0
 75 80  1  0
 76 72  1  0
 76 80  1  0
 77 76  1  0
 78 79  1  0
 78 77  1  0
 79 75  1  0
 80 81  2  0
 81 82  1  0
 83 82  2  0
 84 83  1  0
 85 59  1  0
 85 90  1  0
 85 86  1  0
 86 89  1  1
 86 87  1  0
 88 86  1  0
 90 93  1  0
 91 95  1  0
 91 90  1  0
 92 91  2  0
 95 94  1  0
 97 95  1  0
 97 98  1  0
 97 96  1  0
M  ISO  4  15 100  23 100  57 101  58 101
M  END
>  <TORSDO>  (76) 
F 20

>  <SCORE>  (76) 
-10.971

>  <name>  (76) 
75

>  <ligand_id>  (76) 
75

>  <original_smiles>  (76) 
[H]c1c([H])c([H])c2c(c1[H])C([H])([H])C([H])([H])C([H])([H])C2([H])N([H])C(=O)C1([H])N(C(=O)C([H])(N([H])C(=O)C([H])(N([H])C([H])([H])[H])C([H])([H])[H])C(C([H])([H])[H])(C([H])([H])[H])C([H])([H])[H])C([H])([H])c2c([H])c(OC([H])([H])C(C([H])([H])[H])(C([H])([H])[H])C([H])([H])[N+]([H])=C(c3c(F)c([H])c(N([H])C(=O)N4C([H])([H])C([H])([H])C([H])([H])C([H])(n5nc(-c6c([H])c([H])c(Oc7c([H])c([H])c(F)c([H])c7F)c([H])c6[H])c(C(=O)N([H])[H])c5N([H])[H])C4([H])[H])c([H])c3C([H])([H])[H])N([H])[H])c([H])c([H])c2C1([H])[H]

>  <smiles>  (76) 
[H]c1c([H])c([H])c2c(c1[H])C([H])([H])C([H])([H])C([H])([H])C2([H])N([H])C(=O)C1([H])N(C(=O)C([H])(N([H])C(=O)C([H])(N([H])C([H])([H])[H])C([H])([H])[H])C(C([H])([H])[H])(C([H])([H])[H])C([H])([H])[H])C([H])([H])c2c([H])c(OC([H])([H])C(C([H])([H])[H])(C([H])([H])[H])C([H])([H])[N+]([H])=C(c3c(F)c([H])c(N([H])C(=O)N4C([H])([H])C([H])([H])C([H])([H])C([H])(n5nc(-c6c([H])c([H])c(Oc7c([H])c([H])c(F)c([H])c7F)c([H])c6[H])c(C(=O)N([H])[H])c5N([H])[H])C4([H])[H])c([H])c3C([H])([H])[H])N([H])[H])c([H])c([H])c2C1([H])[H]

$$$$
76:0:0
     RDKit          3D

 93101  0  0  1  0  0  0  0  0999 V2000
  -30.5270  -21.9090   20.0210 C   0  0  0  0  0  0  0  0  0  0  0  0
  -29.5250  -22.7940   19.7130 N   0  0  0  0  0  0  0  0  0  0  0  0
  -31.6280  -22.3580   20.3470 O   0  0  0  0  0  0  0  0  0  0  0  0
  -28.6290  -22.4190   19.4320 H   0  0  0  0  0  0  0  0  0  0  0  0
  -29.1750  -18.2390   20.5230 C   0  0  0  0  0  3  0  0  0  0  0  0
  -31.4690  -18.1130   19.8390 C   0  0  0  0  0  3  0  0  0  0  0  0
  -30.3650  -20.3650   19.9900 C   0  0  0  0  0  0  0  0  0  0  0  0
  -29.1870  -19.6660   20.4050 C   0  0  0  0  0  0  0  0  0  0  0  0
  -30.3100  -17.4190   20.2720 C   0  0  0  0  0  0  0  0  0  0  0  0
  -31.4940  -19.5340   19.7010 C   0  0  0  0  0  0  0  0  0  0  0  0
  -27.9190  -20.4190   20.7800 C   0  0  0  0  0  1  0  0  0  0  0  0
  -32.6560  -20.0970   19.2870 F   0  0  0  0  0  0  0  0  0  0  0  0
  -30.9620  -14.9070   19.9980 C   0  0  0  0  0  0  0  0  0  0  0  0
  -30.6950  -12.6620   18.9590 C   0  0  0  0  0  2  0  0  0  0  0  0
  -29.7130  -12.7970   17.7730 C   0  0  0  0  0  2  0  0  0  0  0  0
  -28.2520  -12.6580   18.2500 C   0  0  0  0  0  2  0  0  0  0  0  0
  -27.9460  -13.5310   19.4960 C   0  0  0  0  0  3  0  0  0  0  0  0
  -29.0380  -13.3640   20.5780 C   0  0  0  0  0  2  0  0  0  0  0  0
  -30.3330  -13.6880   19.9580 N   0  0  0  0  0  0  0  0  0  0  0  0
  -32.1030  -15.0500   19.5500 O   0  0  0  0  0  0  0  0  0  0  0  0
  -30.1980  -15.9620   20.4280 N   0  0  0  0  0  0  0  0  0  0  0  0
  -29.3390  -15.6570   20.8600 H   0  0  0  0  0  0  0  0  0  0  0  0
  -25.5970  -14.1720   20.3160 C   0  0  0  0  0  0  0  0  0  0  0  0
  -24.5250  -13.4170   20.7090 C   0  0  0  0  0  0  0  0  0  0  0  0
  -24.9520  -12.0560   20.6310 C   0  0  0  0  0  0  0  0  0  0  0  0
  -26.6090  -13.2720   20.0230 N   0  0  0  0  0  0  0  0  0  0  0  0
  -26.2280  -11.9930   20.2720 N   0  0  0  0  0  0  0  0  0  0  0  0
  -24.2020  -10.8070   20.8200 C   0  0  0  0  0  0  0  0  0  0  0  0
  -24.6020   -9.8420   21.7700 C   0  0  0  0  0  3  0  0  0  0  0  0
  -23.8540   -8.6580   21.9470 C   0  0  0  0  0  3  0  0  0  0  0  0
  -22.6910   -8.4310   21.1730 C   0  0  0  0  0  0  0  0  0  0  0  0
  -22.3110   -9.3840   20.2130 C   0  0  0  0  0  3  0  0  0  0  0  0
  -23.0580  -10.5590   20.0340 C   0  0  0  0  0  3  0  0  0  0  0  0
  -21.9180   -7.2990   21.2580 O   0  0  0  0  0  0  0  0  0  0  0  0
  -21.7780   -6.6100   22.4360 C   0  0  0  0  0  0  0  0  0  0  0  0
  -21.2300   -7.2100   23.5900 C   0  0  0  0  0  3  0  0  0  0  0  0
  -21.0400   -6.4450   24.7580 C   0  0  0  0  0  3  0  0  0  0  0  0
  -21.3880   -5.0810   24.7730 C   0  0  0  0  0  0  0  0  0  0  0  0
  -21.9290   -4.4800   23.6220 C   0  0  0  0  0  3  0  0  0  0  0  0
  -22.1200   -5.2420   22.4560 C   0  0  0  0  0  0  0  0  0  0  0  0
  -22.6220   -4.6530   21.3440 F   0  0  0  0  0  0  0  0  0  0  0  0
  -21.1990   -4.3440   25.8920 F   0  0  0  0  0  0  0  0  0  0  0  0
  -23.1510  -13.9210   21.0450 C   0  0  0  0  0  0  0  0  0  0  0  0
  -22.4440  -13.2300   21.9330 N   0  0  0  0  0  0  0  0  0  0  0  0
  -22.7150  -14.9620   20.5550 O   0  0  0  0  0  0  0  0  0  0  0  0
  -22.8120  -12.3890   22.3510 H   0  0  0  0  0  0  0  0  0  0  0  0
  -21.5240  -13.5490   22.2000 H   0  0  0  0  0  0  0  0  0  0  0  0
  -25.7890  -15.5420   20.1630 N   0  0  0  0  0  0  0  0  0  0  0  0
  -25.0390  -16.2090   20.3070 H   0  0  0  0  0  0  0  0  0  0  0  0
  -26.6280  -15.9670   19.7890 H   0  0  0  0  0  0  0  0  0  0  0  0
  -29.6720  -24.3000   19.7990 C   0  0  0  0  0  3  0  0  0  0  0  0
  -28.4350  -25.2220   19.4260 C   0  0  0  0  0  3  0  0  0  0  0  0
  -28.5450  -26.6790   19.6810 O   0  0  0  0  0  0  0  0  0  0  0  0
  -24.5500  -31.6390   23.0750 C   0  0  0  0  0  0  0  0  0  0  0  0
  -27.3700  -27.4500   19.6970 C   0  0  0  0  0  0  0  0  0  0  0  0
  -23.4010  -30.2810   21.3630 C   0  0  0  0  0  3  0  0  0  0  0  0
  -24.9130  -28.9120   19.8220 C   0  0  0  0  0  0  0  0  0  0  0  0
  -25.9140  -30.7600   21.1660 C   0  0  0  0  0  2  0  0  0  0  0  0
  -26.0620  -29.4330   20.4320 C   0  0  0  0  0  0  0  0  0  0  0  0
  -27.2920  -28.7140   20.3590 C   0  0  0  0  0  3  0  0  0  0  0  0
  -26.1930  -26.9800   19.0700 C   0  0  0  0  0  3  0  0  0  0  0  0
  -24.9810  -27.6920   19.1330 C   0  0  0  0  0  3  0  0  0  0  0  0
  -23.6290  -29.7080   19.9390 C   0  0  0  0  0  2  0  0  0  0  0  0
  -24.6410  -30.9070   21.9260 N   0  0  0  0  0  0  0  0  0  0  0  0
  -23.4620  -31.8200   23.6400 O   0  0  0  0  0  0  0  0  0  0  0  0
  -22.8130  -29.1680   22.2640 C   0  0  0  0  0  0  0  0  0  0  0  0
  -21.5030  -28.9050   22.1220 N   0  0  0  0  0  0  0  0  0  0  0  0
  -23.5340  -28.5470   23.0490 O   0  0  0  0  0  0  0  0  0  0  0  0
  -20.9760  -29.4640   21.4660 H   0  0  0  0  0  0  0  0  0  0  0  0
  -18.2160  -27.4520   22.5410 C   0  0  0  0  0  0  0  0  0  0  0  0
  -20.7500  -27.8720   22.8380 C   0  0  0  0  0  3  0  0  0  0  0  0
  -20.9520  -26.4850   22.1850 C   0  0  0  0  0  2  0  0  0  0  0  0
  -19.8760  -26.1420   21.1500 C   0  0  0  0  0  2  0  0  0  0  0  0
  -18.4870  -26.1570   21.7950 C   0  0  0  0  0  2  0  0  0  0  0  0
  -19.2800  -28.2650   23.0170 C   0  0  0  0  0  0  0  0  0  0  0  0
  -18.9740  -29.4760   23.6750 C   0  0  0  0  0  3  0  0  0  0  0  0
  -17.6370  -29.8750   23.8620 C   0  0  0  0  0  3  0  0  0  0  0  0
  -16.5880  -29.0590   23.4030 C   0  0  0  0  0  3  0  0  0  0  0  0
  -16.8790  -27.8500   22.7470 C   0  0  0  0  0  3  0  0  0  0  0  0
  -25.8060  -32.3030   23.7200 C   0  0  0  0  0  3  0  0  0  0  0  0
  -26.3340  -31.5270   24.9890 C   0  0  1  0  0  0  0  0  0  0  0  0
  -25.2370  -31.2320   26.0400 C   0  0  0  0  0  1  0  0  0  0  0  0
  -26.9700  -30.1790   24.5810 C   0  0  0  0  0  1  0  0  0  0  0  0
  -27.4480  -32.3490   25.6790 C   0  0  0  0  0  1  0  0  0  0  0  0
  -25.4460  -33.6840   24.0700 N   0  0  0  0  0  0  0  0  0  0  0  0
  -25.7290  -34.7580   23.3220 C   0  0  0  0  0  0  0  0  0  0  0  0
  -26.3900  -34.6920   22.2820 O   0  0  0  0  0  0  0  0  0  0  0  0
  -24.8560  -33.8060   24.8810 H   0  0  0  0  0  0  0  0  0  0  0  0
  -23.9160  -36.4760   23.0280 C   0  0  0  0  0  1  0  0  0  0  0  0
  -25.1960  -36.1210   23.8030 C   0  0  0  0  0  3  0  0  0  0  0  0
  -27.3010  -37.1040   24.5980 C   0  0  0  0  0  1  0  0  0  0  0  0
  -26.1780  -37.2190   23.6700 N   0  0  0  0  0  0  0  0  0  0  0  0
  -25.7330  -38.1200   23.8190 H   0  0  0  0  0  0  0  0  0  0  0  0
  1  3  2  0
  2 51  1  0
  2  1  1  0
  4  2  1  0
  6  9  1  0
  7  1  1  0
  7  8  2  0
  8  5  1  0
  8 11  1  0
  9 21  1  0
  9  5  2  0
 10  6  2  0
 10  7  1  0
 12 10  1  0
 13 21  1  0
 14 19  1  0
 15 16  1  0
 15 14  1  0
 17 16  1  0
 17 26  1  0
 17 18  1  0
 19 13  1  0
 19 18  1  0
 20 13  2  0
 21 22  1  0
 23 24  2  0
 24 43  1  0
 25 24  1  0
 25 28  1  0
 26 27  1  0
 26 23  1  0
 27 25  2  0
 28 29  1  0
 29 30  2  0
 31 34  1  0
 31 30  1  0
 32 31  2  0
 33 32  1  0
 33 28  2  0
 34 35  1  0
 35 40  2  0
 35 36  1  0
 36 37  2  0
 37 38  1  0
 38 42  1  0
 39 38  2  0
 40 39  1  0
 41 40  1  0
 43 44  1  0
 44 47  1  0
 44 46  1  0
 45 43  2  0
 48 49  1  0
 48 23  1  0
 50 48  1  0
 52 53  1  0
 52 51  2  0
 53 55  1  0
 54 65  2  0
 55 60  1  0
 56 64  1  0
 56 66  1  0
 57 63  1  0
 57 59  1  0
 58 64  1  0
 59 58  1  0
 60 59  2  0
 61 62  1  0
 61 55  2  0
 62 57  2  0
 63 56  1  0
 64 54  1  0
 66 68  2  0
 67 66  1  0
 69 67  1  0
 70 79  2  0
 70 75  1  0
 71 67  1  0
 71 75  1  0
 72 71  1  0
 73 74  1  0
 73 72  1  0
 74 70  1  0
 75 76  2  0
 76 77  1  0
 78 77  2  0
 79 78  1  0
 80 54  1  0
 80 85  1  0
 80 81  1  0
 81 84  1  1
 81 82  1  0
 83 81  1  0
 85 88  1  0
 86 90  1  0
 86 85  1  0
 87 86  2  0
 90 89  1  0
 92 90  1  0
 92 93  1  0
 92 91  1  0
M  ISO  4  13 100  21 100  52 101  53 101
M  END
>  <TORSDO>  (77) 
F 19

>  <SCORE>  (77) 
-13.180

>  <name>  (77) 
76

>  <ligand_id>  (77) 
76

>  <original_smiles>  (77) 
[H]c1c([H])c([H])c2c(c1[H])C([H])([H])C([H])([H])C([H])([H])C2([H])N([H])C(=O)C1([H])N(C(=O)C([H])(N([H])C(=O)C([H])(N([H])C([H])([H])[H])C([H])([H])[H])C(C([H])([H])[H])(C([H])([H])[H])C([H])([H])[H])C([H])([H])c2c([H])c(OC([H])([H])C([H])([H])N([H])C(=O)c3c(F)c([H])c(N([H])C(=O)N4C([H])([H])C([H])([H])C([H])([H])C([H])(n5nc(-c6c([H])c([H])c(Oc7c([H])c([H])c(F)c([H])c7F)c([H])c6[H])c(C(=O)N([H])[H])c5N([H])[H])C4([H])[H])c([H])c3C([H])([H])[H])c([H])c([H])c2C1([H])[H]

>  <smiles>  (77) 
[H]c1c([H])c([H])c2c(c1[H])C([H])([H])C([H])([H])C([H])([H])C2([H])N([H])C(=O)C1([H])N(C(=O)C([H])(N([H])C(=O)C([H])(N([H])C([H])([H])[H])C([H])([H])[H])C(C([H])([H])[H])(C([H])([H])[H])C([H])([H])[H])C([H])([H])c2c([H])c(OC([H])([H])C([H])([H])N([H])C(=O)c3c(F)c([H])c(N([H])C(=O)N4C([H])([H])C([H])([H])C([H])([H])C([H])(n5nc(-c6c([H])c([H])c(Oc7c([H])c([H])c(F)c([H])c7F)c([H])c6[H])c(C(=O)N([H])[H])c5N([H])[H])C4([H])[H])c([H])c3C([H])([H])[H])c([H])c([H])c2C1([H])[H]

$$$$
77:0:0
     RDKit          3D

 93101  0  0  1  0  0  0  0  0999 V2000
  -28.0500  -18.6870   20.6270 C   0  0  0  0  0  2  0  0  0  0  0  0
  -27.4900  -15.8180   21.6300 C   0  0  0  0  0  3  0  0  0  0  0  0
  -27.6480  -14.1940   21.9400 C   0  0  0  0  0  3  0  0  0  0  0  0
  -28.6580  -14.3820   19.0530 C   0  0  0  0  0  2  0  0  0  0  0  0
  -27.8810  -16.8020   20.3990 C   0  0  0  0  0  3  0  0  0  0  0  0
  -28.4620  -15.9600   19.1950 C   0  0  0  0  0  3  0  0  0  0  0  0
  -28.2840  -13.1470   20.7390 C   0  0  0  0  0  3  0  0  0  0  0  0
  -28.4700  -11.4620   21.2310 Cl  0  0  0  0  0  0  0  0  0  0  0  0
  -29.7150  -16.5110   18.5310 C   0  0  0  0  0  2  0  0  0  0  0  0
  -31.3310  -14.3940   19.0520 C   0  0  0  0  0  0  0  0  0  0  0  0
  -30.1030  -12.3340   18.2850 C   0  0  0  0  0  3  0  0  0  0  0  0
  -28.5100  -12.1620   17.3960 C   0  0  0  0  0  3  0  0  0  0  0  0
  -26.8740  -12.8650   17.7720 C   0  0  0  0  0  2  0  0  0  0  0  0
  -26.5470  -14.0670   19.2250 C   0  0  0  0  0  2  0  0  0  0  0  0
  -29.5520  -14.3350   20.5570 C   0  0  0  0  0  3  0  0  0  0  0  0
  -30.5410  -13.4260   19.5410 N   0  0  0  0  0  0  0  0  0  0  0  0
  -32.3980  -14.0830   18.6270 O   0  0  0  0  0  0  0  0  0  0  0  0
  -30.9700  -15.7110   18.8110 N   0  0  0  0  0  0  0  0  0  0  0  0
  -31.7890  -16.2280   18.5220 H   0  0  0  0  0  0  0  0  0  0  0  0
  -24.4720  -13.8270   20.3970 C   0  0  0  0  0  0  0  0  0  0  0  0
  -23.6810  -12.8670   20.8930 C   0  0  0  0  0  0  0  0  0  0  0  0
  -24.3230  -11.6010   20.7280 C   0  0  0  0  0  0  0  0  0  0  0  0
  -25.4890  -13.1940   19.8420 N   0  0  0  0  0  0  0  0  0  0  0  0
  -25.4990  -11.8230   20.1430 N   0  0  0  0  0  0  0  0  0  0  0  0
  -23.7700  -10.2460   20.9590 C   0  0  0  0  0  0  0  0  0  0  0  0
  -24.3010   -9.3040   21.8740 C   0  0  0  0  0  3  0  0  0  0  0  0
  -23.6420   -8.0670   22.0960 C   0  0  0  0  0  3  0  0  0  0  0  0
  -22.4440   -7.7630   21.4040 C   0  0  0  0  0  0  0  0  0  0  0  0
  -21.9410   -8.6880   20.4760 C   0  0  0  0  0  3  0  0  0  0  0  0
  -22.5980   -9.9090   20.2550 C   0  0  0  0  0  3  0  0  0  0  0  0
  -21.7430   -6.5840   21.5240 O   0  0  0  0  0  0  0  0  0  0  0  0
  -21.7280   -5.8590   22.6880 C   0  0  0  0  0  0  0  0  0  0  0  0
  -21.2970   -6.4200   23.9110 C   0  0  0  0  0  3  0  0  0  0  0  0
  -21.2330   -5.6200   25.0690 C   0  0  0  0  0  3  0  0  0  0  0  0
  -21.5880   -4.2590   25.0070 C   0  0  0  0  0  0  0  0  0  0  0  0
  -22.0070   -3.6960   23.7880 C   0  0  0  0  0  3  0  0  0  0  0  0
  -22.0720   -4.4930   22.6320 C   0  0  0  0  0  0  0  0  0  0  0  0
  -22.4540   -3.9390   21.4560 F   0  0  0  0  0  0  0  0  0  0  0  0
  -21.5230   -3.4890   26.1180 F   0  0  0  0  0  0  0  0  0  0  0  0
  -22.3110  -13.1870   21.3200 C   0  0  0  0  0  0  0  0  0  0  0  0
  -21.7730  -12.4290   22.2550 N   0  0  0  0  0  0  0  0  0  0  0  0
  -21.7430  -14.1730   20.8510 O   0  0  0  0  0  0  0  0  0  0  0  0
  -22.2750  -11.6420   22.6400 H   0  0  0  0  0  0  0  0  0  0  0  0
  -20.8430  -12.6330   22.5910 H   0  0  0  0  0  0  0  0  0  0  0  0
  -24.3970  -15.2090   20.3030 N   0  0  0  0  0  0  0  0  0  0  0  0
  -23.6080  -15.7380   20.6550 H   0  0  0  0  0  0  0  0  0  0  0  0
  -25.1630  -15.7840   19.9750 H   0  0  0  0  0  0  0  0  0  0  0  0
  -28.0780  -21.8590   20.2760 C   0  0  0  0  0  0  0  0  0  0  0  0
  -27.8180  -20.3400   19.9480 N   0  0  0  0  0  0  0  0  0  0  0  0
  -28.7650  -21.9810   21.2920 O   0  0  0  0  0  0  0  0  0  0  0  0
  -27.2720  -20.2830   19.0970 H   0  0  0  0  0  0  0  0  0  0  0  0
  -27.6060  -23.5620   19.5980 C   0  0  0  0  0  2  0  0  0  0  0  0
  -27.9900  -25.2740   19.9330 O   0  0  0  0  0  0  0  0  0  0  0  0
  -24.6650  -31.6070   22.9620 C   0  0  0  0  0  0  0  0  0  0  0  0
  -27.1530  -26.5820   19.8470 C   0  0  0  0  0  0  0  0  0  0  0  0
  -23.5000  -30.2290   21.3000 C   0  0  0  0  0  3  0  0  0  0  0  0
  -24.9550  -28.6610   19.8160 C   0  0  0  0  0  0  0  0  0  0  0  0
  -26.0760  -30.4020   21.1780 C   0  0  0  0  0  2  0  0  0  0  0  0
  -26.1430  -28.9850   20.4780 C   0  0  0  0  0  0  0  0  0  0  0  0
  -27.2380  -27.9680   20.4660 C   0  0  0  0  0  3  0  0  0  0  0  0
  -25.9650  -26.5080   19.0920 C   0  0  0  0  0  3  0  0  0  0  0  0
  -24.9100  -27.4610   19.0930 C   0  0  0  0  0  3  0  0  0  0  0  0
  -23.7430  -29.5980   19.9000 C   0  0  0  0  0  2  0  0  0  0  0  0
  -24.7720  -30.7820   21.8640 N   0  0  0  0  0  0  0  0  0  0  0  0
  -23.5670  -31.8660   23.4840 O   0  0  0  0  0  0  0  0  0  0  0  0
  -22.8210  -29.1970   22.2430 C   0  0  0  0  0  0  0  0  0  0  0  0
  -21.4860  -29.0370   22.1530 N   0  0  0  0  0  0  0  0  0  0  0  0
  -23.5070  -28.5450   23.0340 O   0  0  0  0  0  0  0  0  0  0  0  0
  -20.9810  -29.6180   21.4980 H   0  0  0  0  0  0  0  0  0  0  0  0
  -18.1200  -27.8050   22.7500 C   0  0  0  0  0  0  0  0  0  0  0  0
  -20.6910  -28.0630   22.9120 C   0  0  0  0  0  3  0  0  0  0  0  0
  -20.7620  -26.6600   22.2640 C   0  0  0  0  0  2  0  0  0  0  0  0
  -19.6190  -26.3880   21.2830 C   0  0  0  0  0  2  0  0  0  0  0  0
  -18.2660  -26.4960   21.9930 C   0  0  0  0  0  2  0  0  0  0  0  0
  -19.2570  -28.5490   23.1670 C   0  0  0  0  0  0  0  0  0  0  0  0
  -19.0620  -29.7720   23.8450 C   0  0  0  0  0  3  0  0  0  0  0  0
  -17.7650  -30.2550   24.1030 C   0  0  0  0  0  3  0  0  0  0  0  0
  -16.6440  -29.5100   23.6970 C   0  0  0  0  0  3  0  0  0  0  0  0
  -16.8220  -28.2870   23.0280 C   0  0  0  0  0  3  0  0  0  0  0  0
  -25.9130  -32.2790   23.6100 C   0  0  0  0  0  3  0  0  0  0  0  0
  -26.4700  -31.4790   24.8530 C   0  0  1  0  0  0  0  0  0  0  0  0
  -25.3970  -31.1620   25.9240 C   0  0  0  0  0  1  0  0  0  0  0  0
  -27.0990  -30.1390   24.4190 C   0  0  0  0  0  1  0  0  0  0  0  0
  -27.5980  -32.2880   25.5350 C   0  0  0  0  0  1  0  0  0  0  0  0
  -25.5340  -33.6450   24.0290 N   0  0  0  0  0  0  0  0  0  0  0  0
  -25.8070  -34.7670   23.3500 C   0  0  0  0  0  0  0  0  0  0  0  0
  -26.4610  -34.7650   22.3050 O   0  0  0  0  0  0  0  0  0  0  0  0
  -24.9460  -33.7160   24.8460 H   0  0  0  0  0  0  0  0  0  0  0  0
  -23.9920  -36.5070   23.1730 C   0  0  0  0  0  1  0  0  0  0  0  0
  -25.2760  -36.1030   23.9150 C   0  0  0  0  0  3  0  0  0  0  0  0
  -27.3930  -37.0380   24.7420 C   0  0  0  0  0  1  0  0  0  0  0  0
  -26.2580  -37.2090   23.8400 N   0  0  0  0  0  0  0  0  0  0  0  0
  -25.8150  -38.0990   24.0530 H   0  0  0  0  0  0  0  0  0  0  0  0
  2  3  2  0
  4  6  1  0
  5  1  1  0
  5  2  1  0
  6  9  1  0
  6  5  1  0
  7  8  1  0
  7  3  1  0
  9 18  1  0
 10 16  1  0
 11 16  1  0
 12 13  1  0
 12 11  2  0
 13 14  1  0
 14 23  1  0
 15  4  1  0
 15  7  1  0
 16 15  1  0
 17 10  2  0
 18 10  1  0
 19 18  1  0
 20 21  2  0
 21 40  1  0
 22 21  1  0
 22 25  1  0
 23 24  1  0
 23 20  1  0
 24 22  2  0
 25 26  1  0
 26 27  2  0
 28 31  1  0
 28 27  1  0
 29 28  2  0
 30 29  1  0
 30 25  2  0
 31 32  1  0
 32 33  1  0
 33 34  2  0
 35 34  1  0
 35 39  1  0
 36 35  2  0
 37 32  2  0
 37 36  1  0
 38 37  1  0
 40 41  1  0
 41 44  1  0
 41 43  1  0
 42 40  2  0
 45 20  1  0
 45 46  1  0
 47 45  1  0
 48 50  2  0
 49 48  1  0
 49  1  1  0
 51 49  1  0
 52 53  1  0
 52 48  1  0
 54 65  2  0
 55 53  1  0
 55 60  1  0
 56 64  1  0
 56 66  1  0
 57 63  1  0
 57 59  1  0
 58 64  1  0
 59 58  1  0
 60 59  2  0
 61 62  1  0
 61 55  2  0
 62 57  2  0
 63 56  1  0
 64 54  1  0
 66 68  2  0
 67 66  1  0
 69 67  1  0
 70 79  2  0
 70 75  1  0
 71 67  1  0
 71 75  1  0
 72 71  1  0
 73 74  1  0
 73 72  1  0
 74 70  1  0
 75 76  2  0
 76 77  1  0
 78 77  2  0
 79 78  1  0
 80 54  1  0
 80 85  1  0
 80 81  1  0
 81 84  1  1
 81 82  1  0
 83 81  1  0
 85 88  1  0
 86 90  1  0
 86 85  1  0
 87 86  2  0
 90 89  1  0
 92 90  1  0
 92 93  1  0
 92 91  1  0
M  ISO  4  10 100  18 100  52 101  53 101
M  END
>  <TORSDO>  (78) 
F 20

>  <SCORE>  (78) 
-10.866

>  <name>  (78) 
77

>  <ligand_id>  (78) 
77

>  <original_smiles>  (78) 
[H]c1c([H])c([H])c2c(c1[H])C([H])([H])C([H])([H])C([H])([H])C2([H])N([H])C(=O)C1([H])N(C(=O)C([H])(N([H])C(=O)C([H])(N([H])C([H])([H])[H])C([H])([H])[H])C(C([H])([H])[H])(C([H])([H])[H])C([H])([H])[H])C([H])([H])c2c([H])c(OC([H])([H])C(=O)N([H])C([H])([H])c3c([H])c([H])c(Cl)c([H])c3C([H])([H])N([H])C(=O)N3C([H])([H])C([H])([H])C([H])([H])C([H])(n4nc(-c5c([H])c([H])c(Oc6c([H])c([H])c(F)c([H])c6F)c([H])c5[H])c(C(=O)N([H])[H])c4N([H])[H])C3([H])[H])c([H])c([H])c2C1([H])[H]

>  <smiles>  (78) 
[H]c1c([H])c([H])c2c(c1[H])C([H])([H])C([H])([H])C([H])([H])C2([H])N([H])C(=O)C1([H])N(C(=O)C([H])(N([H])C(=O)C([H])(N([H])C([H])([H])[H])C([H])([H])[H])C(C([H])([H])[H])(C([H])([H])[H])C([H])([H])[H])C([H])([H])c2c([H])c(OC([H])([H])C(=O)N([H])C([H])([H])c3c([H])c([H])c(Cl)c([H])c3C([H])([H])N([H])C(=O)N3C([H])([H])C([H])([H])C([H])([H])C([H])(n4nc(-c5c([H])c([H])c(Oc6c([H])c([H])c(F)c([H])c6F)c([H])c5[H])c(C(=O)N([H])[H])c4N([H])[H])C3([H])[H])c([H])c([H])c2C1([H])[H]

$$$$
78:0:0
     RDKit          3D

 95104  0  0  1  0  0  0  0  0999 V2000
  -29.1660  -23.8060   20.3410 C   0  0  0  0  0  0  0  0  0  0  0  0
  -26.5360  -23.0700   21.2980 C   0  0  0  0  0  2  0  0  0  0  0  0
  -27.0370  -24.4980   21.5430 C   0  0  0  0  0  2  0  0  0  0  0  0
  -27.6930  -22.0650   21.3810 C   0  0  0  0  0  2  0  0  0  0  0  0
  -27.9920  -24.9100   20.3960 C   0  0  0  0  0  3  0  0  0  0  0  0
  -28.9200  -22.4620   20.6680 N   0  0  0  0  0  0  0  0  0  0  0  0
  -30.2810  -24.1690   19.9540 O   0  0  0  0  0  0  0  0  0  0  0  0
  -28.3420  -26.3930   20.4100 O   0  0  0  0  0  0  0  0  0  0  0  0
  -24.6220  -31.9320   23.2520 C   0  0  0  0  0  0  0  0  0  0  0  0
  -27.2880  -27.3360   20.2560 C   0  0  0  0  0  0  0  0  0  0  0  0
  -23.4500  -30.5100   21.6120 C   0  0  0  0  0  3  0  0  0  0  0  0
  -24.9310  -28.9840   20.1870 C   0  0  0  0  0  0  0  0  0  0  0  0
  -25.9920  -30.8430   21.4570 C   0  0  0  0  0  2  0  0  0  0  0  0
  -26.0910  -29.4620   20.8130 C   0  0  0  0  0  0  0  0  0  0  0  0
  -27.2720  -28.6480   20.8440 C   0  0  0  0  0  3  0  0  0  0  0  0
  -26.1250  -26.9660   19.5400 C   0  0  0  0  0  3  0  0  0  0  0  0
  -24.9580  -27.7480   19.5310 C   0  0  0  0  0  3  0  0  0  0  0  0
  -23.6840  -29.8440   20.2310 C   0  0  0  0  0  2  0  0  0  0  0  0
  -24.7060  -31.1140   22.1630 N   0  0  0  0  0  0  0  0  0  0  0  0
  -23.5300  -32.1990   23.7760 O   0  0  0  0  0  0  0  0  0  0  0  0
  -22.7910  -29.4880   22.5700 C   0  0  0  0  0  0  0  0  0  0  0  0
  -21.4680  -29.2920   22.4340 N   0  0  0  0  0  0  0  0  0  0  0  0
  -23.4690  -28.8770   23.3990 O   0  0  0  0  0  0  0  0  0  0  0  0
  -20.9750  -29.8390   21.7420 H   0  0  0  0  0  0  0  0  0  0  0  0
  -18.0980  -28.0760   22.9480 C   0  0  0  0  0  0  0  0  0  0  0  0
  -20.6570  -28.3480   23.2080 C   0  0  0  0  0  3  0  0  0  0  0  0
  -20.7630  -26.9190   22.6280 C   0  0  0  0  0  2  0  0  0  0  0  0
  -19.6600  -26.5930   21.6180 C   0  0  0  0  0  2  0  0  0  0  0  0
  -18.2790  -26.7290   22.2680 C   0  0  0  0  0  2  0  0  0  0  0  0
  -19.2150  -28.8430   23.3750 C   0  0  0  0  0  0  0  0  0  0  0  0
  -18.9910  -30.1020   23.9750 C   0  0  0  0  0  3  0  0  0  0  0  0
  -17.6850  -30.5950   24.1500 C   0  0  0  0  0  3  0  0  0  0  0  0
  -16.5830  -29.8250   23.7380 C   0  0  0  0  0  3  0  0  0  0  0  0
  -16.7890  -28.5690   23.1440 C   0  0  0  0  0  3  0  0  0  0  0  0
  -25.8910  -32.5880   23.8770 C   0  0  0  0  0  3  0  0  0  0  0  0
  -25.5670  -33.9910   24.1720 N   0  0  0  0  0  0  0  0  0  0  0  0
  -25.8870  -35.0280   23.3860 C   0  0  0  0  0  0  0  0  0  0  0  0
  -26.5550  -34.9060   22.3560 O   0  0  0  0  0  0  0  0  0  0  0  0
  -24.9750  -34.1600   24.9710 H   0  0  0  0  0  0  0  0  0  0  0  0
  -24.1430  -36.7980   22.9940 C   0  0  0  0  0  1  0  0  0  0  0  0
  -25.3900  -36.4240   23.8100 C   0  0  0  0  0  3  0  0  0  0  0  0
  -27.5090  -37.3610   24.6240 C   0  0  0  0  0  1  0  0  0  0  0  0
  -26.4130  -37.4830   23.6670 N   0  0  0  0  0  0  0  0  0  0  0  0
  -25.9970  -38.4030   23.7780 H   0  0  0  0  0  0  0  0  0  0  0  0
  -26.3910  -31.8500   25.1810 C   0  0  1  0  0  0  0  0  0  0  0  0
  -25.2800  -31.6250   26.2320 C   0  0  0  0  0  1  0  0  0  0  0  0
  -26.9990  -30.4700   24.8350 C   0  0  0  0  0  1  0  0  0  0  0  0
  -27.5190  -32.6720   25.8480 C   0  0  0  0  0  1  0  0  0  0  0  0
  -29.9230  -21.2990   20.6730 C   0  0  0  0  0  2  0  0  0  0  0  0
  -29.0360  -18.5550   18.0170 C   0  0  0  0  0  3  0  0  0  0  0  0
  -29.4080  -17.3400   18.6180 C   0  0  0  0  0  3  0  0  0  0  0  0
  -29.1550  -19.7960   18.6810 C   0  0  0  0  0  0  0  0  0  0  0  0
  -29.6530  -19.8610   20.0100 C   0  0  0  0  0  0  0  0  0  0  0  0
  -29.8970  -17.2940   19.9390 C   0  0  0  0  0  0  0  0  0  0  0  0
  -29.9990  -18.5760   20.6300 C   0  0  0  0  0  0  0  0  0  0  0  0
  -28.7590  -21.0420   17.9080 C   0  0  0  0  0  1  0  0  0  0  0  0
  -30.5700  -18.5550   22.2610 Cl  0  0  0  0  0  0  0  0  0  0  0  0
  -30.8070  -14.8690   19.9950 C   0  0  0  0  0  0  0  0  0  0  0  0
  -30.5610  -12.6110   18.9550 C   0  0  0  0  0  2  0  0  0  0  0  0
  -29.5530  -12.7170   17.7870 C   0  0  0  0  0  2  0  0  0  0  0  0
  -28.1120  -12.5350   18.2960 C   0  0  0  0  0  2  0  0  0  0  0  0
  -27.8120  -13.3890   19.5550 C   0  0  0  0  0  3  0  0  0  0  0  0
  -28.9320  -13.2640   20.6130 C   0  0  0  0  0  2  0  0  0  0  0  0
  -30.1980  -13.6330   19.9660 N   0  0  0  0  0  0  0  0  0  0  0  0
  -31.9180  -15.0170   19.4790 O   0  0  0  0  0  0  0  0  0  0  0  0
  -30.1200  -15.9490   20.5230 N   0  0  0  0  0  0  0  0  0  0  0  0
  -29.4150  -15.6820   21.1940 H   0  0  0  0  0  0  0  0  0  0  0  0
  -25.4790  -13.9670   20.4590 C   0  0  0  0  0  0  0  0  0  0  0  0
  -24.4310  -13.1860   20.8620 C   0  0  0  0  0  0  0  0  0  0  0  0
  -24.8730  -11.8330   20.7360 C   0  0  0  0  0  0  0  0  0  0  0  0
  -26.4950  -13.0910   20.1140 N   0  0  0  0  0  0  0  0  0  0  0  0
  -26.1400  -11.7990   20.3400 N   0  0  0  0  0  0  0  0  0  0  0  0
  -24.1450  -10.5710   20.9170 C   0  0  0  0  0  0  0  0  0  0  0  0
  -24.5540   -9.6090   21.8690 C   0  0  0  0  0  3  0  0  0  0  0  0
  -23.8240   -8.4130   22.0370 C   0  0  0  0  0  3  0  0  0  0  0  0
  -22.6720   -8.1680   21.2510 C   0  0  0  0  0  0  0  0  0  0  0  0
  -22.2810   -9.1170   20.2910 C   0  0  0  0  0  3  0  0  0  0  0  0
  -23.0120  -10.3060   20.1210 C   0  0  0  0  0  3  0  0  0  0  0  0
  -21.9200   -7.0200   21.3260 O   0  0  0  0  0  0  0  0  0  0  0  0
  -21.7470   -6.3480   22.5090 C   0  0  0  0  0  0  0  0  0  0  0  0
  -21.1200   -6.9490   23.6220 C   0  0  0  0  0  3  0  0  0  0  0  0
  -20.8980   -6.2010   24.7960 C   0  0  0  0  0  3  0  0  0  0  0  0
  -21.2940   -4.8510   24.8550 C   0  0  0  0  0  0  0  0  0  0  0  0
  -21.9130   -4.2470   23.7460 C   0  0  0  0  0  3  0  0  0  0  0  0
  -22.1340   -4.9940   22.5740 C   0  0  0  0  0  0  0  0  0  0  0  0
  -22.7120   -4.4020   21.5000 F   0  0  0  0  0  0  0  0  0  0  0  0
  -21.0760   -4.1280   25.9790 F   0  0  0  0  0  0  0  0  0  0  0  0
  -23.0600  -13.6630   21.2480 C   0  0  0  0  0  0  0  0  0  0  0  0
  -22.3830  -12.9350   22.1280 N   0  0  0  0  0  0  0  0  0  0  0  0
  -22.6020  -14.7150   20.8070 O   0  0  0  0  0  0  0  0  0  0  0  0
  -22.7640  -12.0800   22.5050 H   0  0  0  0  0  0  0  0  0  0  0  0
  -21.4700  -13.2420   22.4330 H   0  0  0  0  0  0  0  0  0  0  0  0
  -25.6500  -15.3420   20.3360 N   0  0  0  0  0  0  0  0  0  0  0  0
  -24.9030  -16.0000   20.5310 H   0  0  0  0  0  0  0  0  0  0  0  0
  -26.4800  -15.7860   19.9660 H   0  0  0  0  0  0  0  0  0  0  0  0
  1  5  1  0
  1  6  1  0
  2  4  1  0
  2  3  1  0
  5  8  1  0
  5  3  1  0
  6 49  1  0
  6  4  1  0
  7  1  2  0
  9 20  2  0
 10  8  1  0
 10 15  1  0
 11 19  1  0
 11 21  1  0
 12 18  1  0
 12 14  1  0
 13 19  1  0
 14 15  2  0
 14 13  1  0
 16 10  2  0
 17 16  1  0
 17 12  2  0
 18 11  1  0
 19  9  1  0
 21 23  2  0
 22 21  1  0
 24 22  1  0
 25 34  2  0
 25 30  1  0
 26 22  1  0
 26 30  1  0
 27 26  1  0
 28 29  1  0
 28 27  1  0
 29 25  1  0
 30 31  2  0
 31 32  1  0
 33 32  2  0
 34 33  1  0
 35  9  1  0
 35 36  1  0
 35 45  1  0
 36 39  1  0
 37 41  1  0
 37 36  1  0
 38 37  2  0
 41 40  1  0
 43 44  1  0
 43 41  1  0
 43 42  1  0
 45 48  1  1
 45 46  1  0
 47 45  1  0
 50 51  2  0
 50 52  1  0
 51 54  1  0
 52 53  2  0
 53 55  1  0
 53 49  1  0
 54 66  1  0
 54 55  2  0
 55 57  1  0
 56 52  1  0
 58 66  1  0
 59 64  1  0
 60 61  1  0
 60 59  1  0
 62 61  1  0
 62 71  1  0
 62 63  1  0
 64 58  1  0
 64 63  1  0
 65 58  2  0
 66 67  1  0
 68 69  2  0
 69 88  1  0
 70 69  1  0
 70 73  1  0
 71 72  1  0
 71 68  1  0
 72 70  2  0
 73 74  1  0
 74 75  2  0
 76 79  1  0
 76 75  1  0
 77 76  2  0
 78 77  1  0
 78 73  2  0
 79 80  1  0
 80 85  2  0
 80 81  1  0
 81 82  2  0
 82 83  1  0
 83 87  1  0
 84 83  2  0
 85 84  1  0
 86 85  1  0
 88 89  1  0
 89 92  1  0
 89 91  1  0
 90 88  2  0
 93 68  1  0
 93 94  1  0
 95 93  1  0
M  ISO  4   5 101   8 101  58 100  66 100
M  END
>  <TORSDO>  (79) 
F 18

>  <SCORE>  (79) 
-14.506

>  <name>  (79) 
78

>  <ligand_id>  (79) 
78

>  <original_smiles>  (79) 
[H]c1c([H])c([H])c2c(c1[H])C([H])([H])C([H])([H])C([H])([H])C2([H])N([H])C(=O)C1([H])N(C(=O)C([H])(N([H])C(=O)C([H])(N([H])C([H])([H])[H])C([H])([H])[H])C(C([H])([H])[H])(C([H])([H])[H])C([H])([H])[H])C([H])([H])c2c([H])c(OC3([H])C(=O)N(C([H])([H])c4c(Cl)c(N([H])C(=O)N5C([H])([H])C([H])([H])C([H])([H])C([H])(n6nc(-c7c([H])c([H])c(Oc8c([H])c([H])c(F)c([H])c8F)c([H])c7[H])c(C(=O)N([H])[H])c6N([H])[H])C5([H])[H])c([H])c([H])c4C([H])([H])[H])C([H])([H])C([H])([H])C3([H])[H])c([H])c([H])c2C1([H])[H]

>  <smiles>  (79) 
[H]c1c([H])c([H])c2c(c1[H])C([H])([H])C([H])([H])C([H])([H])C2([H])N([H])C(=O)C1([H])N(C(=O)C([H])(N([H])C(=O)C([H])(N([H])C([H])([H])[H])C([H])([H])[H])C(C([H])([H])[H])(C([H])([H])[H])C([H])([H])[H])C([H])([H])c2c([H])c(OC3([H])C(=O)N(C([H])([H])c4c(Cl)c(N([H])C(=O)N5C([H])([H])C([H])([H])C([H])([H])C([H])(n6nc(-c7c([H])c([H])c(Oc8c([H])c([H])c(F)c([H])c8F)c([H])c7[H])c(C(=O)N([H])[H])c6N([H])[H])C5([H])[H])c([H])c([H])c4C([H])([H])[H])C([H])([H])C([H])([H])C3([H])[H])c([H])c([H])c2C1([H])[H]

$$$$
79:0:0
     RDKit          3D

 95104  0  0  1  0  0  0  0  0999 V2000
  -28.7430  -23.1860   20.7050 C   0  0  0  0  0  0  0  0  0  0  0  0
  -28.1040  -22.8640   17.9330 C   0  0  0  0  0  2  0  0  0  0  0  0
  -27.4500  -24.0560   18.6540 C   0  0  0  0  0  2  0  0  0  0  0  0
  -28.3110  -21.6110   18.8180 C   0  0  0  0  0  2  0  0  0  0  0  0
  -28.3600  -24.5500   19.7800 C   0  0  0  0  0  3  0  0  0  0  0  0
  -28.8370  -21.8350   20.1810 N   0  0  0  0  0  0  0  0  0  0  0  0
  -28.9640  -23.3730   21.9060 O   0  0  0  0  0  0  0  0  0  0  0  0
  -28.2530  -26.0740   20.2690 O   0  0  0  0  0  0  0  0  0  0  0  0
  -24.5740  -31.8510   23.0970 C   0  0  0  0  0  0  0  0  0  0  0  0
  -27.1910  -27.0730   20.1290 C   0  0  0  0  0  0  0  0  0  0  0  0
  -23.3910  -30.4320   21.4660 C   0  0  0  0  0  3  0  0  0  0  0  0
  -24.8600  -28.8640   20.0630 C   0  0  0  0  0  0  0  0  0  0  0  0
  -25.9520  -30.7070   21.3110 C   0  0  0  0  0  2  0  0  0  0  0  0
  -26.0410  -29.3080   20.6690 C   0  0  0  0  0  0  0  0  0  0  0  0
  -27.2000  -28.4330   20.6770 C   0  0  0  0  0  3  0  0  0  0  0  0
  -25.9640  -26.7510   19.5000 C   0  0  0  0  0  3  0  0  0  0  0  0
  -24.8400  -27.6010   19.4620 C   0  0  0  0  0  3  0  0  0  0  0  0
  -23.6290  -29.7510   20.0940 C   0  0  0  0  0  2  0  0  0  0  0  0
  -24.6590  -31.0180   22.0130 N   0  0  0  0  0  0  0  0  0  0  0  0
  -23.4820  -32.1270   23.6200 O   0  0  0  0  0  0  0  0  0  0  0  0
  -22.7180  -29.4240   22.4310 C   0  0  0  0  0  0  0  0  0  0  0  0
  -21.3870  -29.2640   22.3330 N   0  0  0  0  0  0  0  0  0  0  0  0
  -23.4000  -28.7860   23.2380 O   0  0  0  0  0  0  0  0  0  0  0  0
  -20.8930  -29.8290   21.6570 H   0  0  0  0  0  0  0  0  0  0  0  0
  -18.0070  -28.1040   22.9180 C   0  0  0  0  0  0  0  0  0  0  0  0
  -20.5770  -28.3320   23.1200 C   0  0  0  0  0  3  0  0  0  0  0  0
  -20.6420  -26.9010   22.5330 C   0  0  0  0  0  2  0  0  0  0  0  0
  -19.5140  -26.6020   21.5430 C   0  0  0  0  0  2  0  0  0  0  0  0
  -18.1510  -26.7610   22.2210 C   0  0  0  0  0  2  0  0  0  0  0  0
  -19.1470  -28.8480   23.3280 C   0  0  0  0  0  0  0  0  0  0  0  0
  -18.9590  -30.1060   23.9400 C   0  0  0  0  0  3  0  0  0  0  0  0
  -17.6650  -30.6200   24.1480 C   0  0  0  0  0  3  0  0  0  0  0  0
  -16.5390  -29.8730   23.7550 C   0  0  0  0  0  3  0  0  0  0  0  0
  -16.7120  -28.6170   23.1460 C   0  0  0  0  0  3  0  0  0  0  0  0
  -25.8410  -32.5120   23.7160 C   0  0  0  0  0  3  0  0  0  0  0  0
  -25.5010  -33.8970   24.0750 N   0  0  0  0  0  0  0  0  0  0  0  0
  -25.8170  -34.9750   23.3470 C   0  0  0  0  0  0  0  0  0  0  0  0
  -26.4920  -34.9100   22.3150 O   0  0  0  0  0  0  0  0  0  0  0  0
  -24.9010  -34.0240   24.8760 H   0  0  0  0  0  0  0  0  0  0  0  0
  -24.0650  -36.7560   23.0240 C   0  0  0  0  0  1  0  0  0  0  0  0
  -25.3020  -36.3440   23.8400 C   0  0  0  0  0  3  0  0  0  0  0  0
  -27.4110  -37.2340   24.7290 C   0  0  0  0  0  1  0  0  0  0  0  0
  -26.3190  -37.4160   23.7760 N   0  0  0  0  0  0  0  0  0  0  0  0
  -25.8950  -38.3230   23.9530 H   0  0  0  0  0  0  0  0  0  0  0  0
  -26.3810  -31.7410   24.9810 C   0  0  1  0  0  0  0  0  0  0  0  0
  -25.3000  -31.4800   26.0560 C   0  0  0  0  0  1  0  0  0  0  0  0
  -26.9870  -30.3760   24.5790 C   0  0  0  0  0  1  0  0  0  0  0  0
  -27.5260  -32.5500   25.6410 C   0  0  0  0  0  1  0  0  0  0  0  0
  -29.2170  -20.3850   20.8190 C   0  0  0  0  0  2  0  0  0  0  0  0
  -32.0790  -19.5380   18.4540 C   0  0  0  0  0  3  0  0  0  0  0  0
  -31.9030  -18.2360   18.0100 C   0  0  0  0  0  3  0  0  0  0  0  0
  -30.2230  -19.2670   20.0910 C   0  0  0  0  0  0  0  0  0  0  0  0
  -30.3530  -17.7270   19.9040 C   0  0  0  0  0  0  0  0  0  0  0  0
  -31.2500  -20.0360   19.4590 C   0  0  0  0  0  0  0  0  0  0  0  0
  -31.0480  -17.3700   18.7040 C   0  0  0  0  0  0  0  0  0  0  0  0
  -31.4360  -21.3380   19.7870 F   0  0  0  0  0  0  0  0  0  0  0  0
  -30.8920  -16.1450   18.1470 F   0  0  0  0  0  0  0  0  0  0  0  0
  -30.6210  -15.1050   20.6090 C   0  0  0  0  0  0  0  0  0  0  0  0
  -30.5140  -12.7140   19.7340 C   0  0  0  0  0  2  0  0  0  0  0  0
  -29.6590  -12.6130   18.4490 C   0  0  0  0  0  2  0  0  0  0  0  0
  -28.1810  -12.4070   18.7970 C   0  0  0  0  0  2  0  0  0  0  0  0
  -27.7010  -13.3430   19.9350 C   0  0  0  0  0  3  0  0  0  0  0  0
  -28.6960  -13.4250   21.1110 C   0  0  0  0  0  2  0  0  0  0  0  0
  -29.9870  -13.8520   20.5580 N   0  0  0  0  0  0  0  0  0  0  0  0
  -31.8490  -15.0630   20.4600 O   0  0  0  0  0  0  0  0  0  0  0  0
  -29.9410  -16.3940   20.6190 N   0  0  0  0  0  0  0  0  0  0  0  0
  -28.9940  -16.3690   20.9740 H   0  0  0  0  0  0  0  0  0  0  0  0
  -25.2800  -13.9020   20.5350 C   0  0  0  0  0  0  0  0  0  0  0  0
  -24.2050  -13.1200   20.8680 C   0  0  0  0  0  0  0  0  0  0  0  0
  -24.6870  -11.7750   20.8920 C   0  0  0  0  0  0  0  0  0  0  0  0
  -26.3440  -13.0300   20.3730 N   0  0  0  0  0  0  0  0  0  0  0  0
  -25.9950  -11.7500   20.6570 N   0  0  0  0  0  0  0  0  0  0  0  0
  -23.9630  -10.5110   21.0720 C   0  0  0  0  0  0  0  0  0  0  0  0
  -24.3550   -9.5570   22.0380 C   0  0  0  0  0  3  0  0  0  0  0  0
  -23.6230   -8.3600   22.2010 C   0  0  0  0  0  3  0  0  0  0  0  0
  -22.4860   -8.1090   21.3980 C   0  0  0  0  0  0  0  0  0  0  0  0
  -22.1150   -9.0500   20.4230 C   0  0  0  0  0  3  0  0  0  0  0  0
  -22.8450  -10.2390   20.2590 C   0  0  0  0  0  3  0  0  0  0  0  0
  -21.7260   -6.9630   21.4700 O   0  0  0  0  0  0  0  0  0  0  0  0
  -21.6400   -6.2310   22.6270 C   0  0  0  0  0  0  0  0  0  0  0  0
  -21.1720   -6.7970   23.8340 C   0  0  0  0  0  3  0  0  0  0  0  0
  -21.0310   -5.9930   24.9820 C   0  0  0  0  0  3  0  0  0  0  0  0
  -21.3430   -4.6220   24.9260 C   0  0  0  0  0  0  0  0  0  0  0  0
  -21.7970   -4.0530   23.7240 C   0  0  0  0  0  3  0  0  0  0  0  0
  -21.9440   -4.8560   22.5780 C   0  0  0  0  0  0  0  0  0  0  0  0
  -22.3630   -4.2960   21.4160 F   0  0  0  0  0  0  0  0  0  0  0  0
  -21.1980   -3.8500   26.0260 F   0  0  0  0  0  0  0  0  0  0  0  0
  -22.7910  -13.5860   21.0500 C   0  0  0  0  0  0  0  0  0  0  0  0
  -22.0230  -12.9040   21.8920 N   0  0  0  0  0  0  0  0  0  0  0  0
  -22.3740  -14.5950   20.4820 O   0  0  0  0  0  0  0  0  0  0  0  0
  -22.3830  -12.0960   22.3770 H   0  0  0  0  0  0  0  0  0  0  0  0
  -21.0700  -13.2000   22.0550 H   0  0  0  0  0  0  0  0  0  0  0  0
  -25.4430  -15.2700   20.3340 N   0  0  0  0  0  0  0  0  0  0  0  0
  -24.6670  -15.9230   20.3690 H   0  0  0  0  0  0  0  0  0  0  0  0
  -26.2900  -15.6940   19.9820 H   0  0  0  0  0  0  0  0  0  0  0  0
  1  7  2  0
  2  3  1  0
  2  4  1  0
  3  5  1  0
  4  6  1  0
  5  8  1  0
  5  1  1  0
  6  1  1  0
  6 49  1  0
  9 20  2  0
 10  8  1  0
 10 15  1  0
 11 19  1  0
 11 21  1  0
 12 18  1  0
 12 14  1  0
 13 19  1  0
 14 15  2  0
 14 13  1  0
 16 10  2  0
 17 16  1  0
 17 12  2  0
 18 11  1  0
 19  9  1  0
 21 23  2  0
 22 21  1  0
 24 22  1  0
 25 34  2  0
 25 30  1  0
 26 22  1  0
 26 30  1  0
 27 26  1  0
 28 29  1  0
 28 27  1  0
 29 25  1  0
 30 31  2  0
 31 32  1  0
 33 32  2  0
 34 33  1  0
 35  9  1  0
 35 36  1  0
 35 45  1  0
 36 39  1  0
 37 41  1  0
 37 36  1  0
 38 37  2  0
 41 40  1  0
 43 41  1  0
 43 44  1  0
 43 42  1  0
 45 48  1  1
 45 46  1  0
 47 45  1  0
 50 54  1  0
 51 50  2  0
 51 55  1  0
 52 49  1  0
 53 52  1  0
 53 66  1  0
 54 56  1  0
 54 52  2  0
 55 53  2  0
 57 55  1  0
 58 66  1  0
 59 64  1  0
 60 61  1  0
 60 59  1  0
 62 61  1  0
 62 71  1  0
 62 63  1  0
 64 58  1  0
 64 63  1  0
 65 58  2  0
 66 67  1  0
 68 69  2  0
 69 70  1  0
 69 88  1  0
 70 73  1  0
 71 68  1  0
 71 72  1  0
 72 70  2  0
 73 74  1  0
 74 75  2  0
 76 79  1  0
 76 75  1  0
 77 76  2  0
 78 77  1  0
 78 73  2  0
 79 80  1  0
 80 81  1  0
 81 82  2  0
 83 82  1  0
 83 87  1  0
 84 83  2  0
 85 80  2  0
 85 84  1  0
 86 85  1  0
 88 89  1  0
 89 92  1  0
 89 91  1  0
 90 88  2  0
 93 94  1  0
 93 68  1  0
 95 93  1  0
M  ISO  4   5 101   8 101  58 100  66 100
M  END
>  <TORSDO>  (80) 
F 18

>  <SCORE>  (80) 
-14.751

>  <name>  (80) 
79

>  <ligand_id>  (80) 
79

>  <original_smiles>  (80) 
[H]c1c([H])c([H])c2c(c1[H])C([H])([H])C([H])([H])C([H])([H])C2([H])N([H])C(=O)C1([H])N(C(=O)C([H])(N([H])C(=O)C([H])(N([H])C([H])([H])[H])C([H])([H])[H])C(C([H])([H])[H])(C([H])([H])[H])C([H])([H])[H])C([H])([H])c2c([H])c(OC3([H])C(=O)N(C([H])([H])c4c(F)c([H])c([H])c(F)c4N([H])C(=O)N4C([H])([H])C([H])([H])C([H])([H])C([H])(n5nc(-c6c([H])c([H])c(Oc7c([H])c([H])c(F)c([H])c7F)c([H])c6[H])c(C(=O)N([H])[H])c5N([H])[H])C4([H])[H])C([H])([H])C([H])([H])C3([H])[H])c([H])c([H])c2C1([H])[H]

>  <smiles>  (80) 
[H]c1c([H])c([H])c2c(c1[H])C([H])([H])C([H])([H])C([H])([H])C2([H])N([H])C(=O)C1([H])N(C(=O)C([H])(N([H])C(=O)C([H])(N([H])C([H])([H])[H])C([H])([H])[H])C(C([H])([H])[H])(C([H])([H])[H])C([H])([H])[H])C([H])([H])c2c([H])c(OC3([H])C(=O)N(C([H])([H])c4c(F)c([H])c([H])c(F)c4N([H])C(=O)N4C([H])([H])C([H])([H])C([H])([H])C([H])(n5nc(-c6c([H])c([H])c(Oc7c([H])c([H])c(F)c([H])c7F)c([H])c6[H])c(C(=O)N([H])[H])c5N([H])[H])C4([H])[H])C([H])([H])C([H])([H])C3([H])[H])c([H])c([H])c2C1([H])[H]

$$$$
80:0:0
     RDKit          3D

 95104  0  0  1  0  0  0  0  0999 V2000
  -28.3720  -23.6940   19.7820 C   0  0  0  0  0  0  0  0  0  0  0  0
  -27.3700  -23.4990   22.5150 C   0  0  0  0  0  2  0  0  0  0  0  0
  -27.2930  -24.8750   21.8030 C   0  0  0  0  0  2  0  0  0  0  0  0
  -28.4210  -22.5230   21.9210 C   0  0  0  0  0  2  0  0  0  0  0  0
  -28.3170  -25.0460   20.6550 C   0  0  0  0  0  3  0  0  0  0  0  0
  -28.3960  -22.4640   20.4480 N   0  0  0  0  0  0  0  0  0  0  0  0
  -28.3830  -23.7720   18.5490 O   0  0  0  0  0  0  0  0  0  0  0  0
  -28.3310  -26.4090   19.9980 O   0  0  0  0  0  0  0  0  0  0  0  0
  -24.5070  -31.7410   23.1380 C   0  0  0  0  0  0  0  0  0  0  0  0
  -27.2100  -27.2620   20.0120 C   0  0  0  0  0  0  0  0  0  0  0  0
  -23.3500  -30.3650   21.4500 C   0  0  0  0  0  3  0  0  0  0  0  0
  -24.8370  -28.8610   20.0080 C   0  0  0  0  0  0  0  0  0  0  0  0
  -25.8910  -30.7200   21.3030 C   0  0  0  0  0  2  0  0  0  0  0  0
  -25.9950  -29.3530   20.6260 C   0  0  0  0  0  0  0  0  0  0  0  0
  -27.1910  -28.5670   20.6080 C   0  0  0  0  0  3  0  0  0  0  0  0
  -26.0360  -26.8320   19.3670 C   0  0  0  0  0  3  0  0  0  0  0  0
  -24.8610  -27.6100   19.3700 C   0  0  0  0  0  3  0  0  0  0  0  0
  -23.5860  -29.7160   20.0610 C   0  0  0  0  0  2  0  0  0  0  0  0
  -24.6030  -30.9610   22.0200 N   0  0  0  0  0  0  0  0  0  0  0  0
  -23.4100  -31.9840   23.6660 O   0  0  0  0  0  0  0  0  0  0  0  0
  -22.6900  -29.3190   22.3810 C   0  0  0  0  0  0  0  0  0  0  0  0
  -21.3700  -29.1150   22.2320 N   0  0  0  0  0  0  0  0  0  0  0  0
  -23.3700  -28.6860   23.1950 O   0  0  0  0  0  0  0  0  0  0  0  0
  -20.8790  -29.6660   21.5410 H   0  0  0  0  0  0  0  0  0  0  0  0
  -18.0130  -27.8420   22.6780 C   0  0  0  0  0  0  0  0  0  0  0  0
  -20.5660  -28.1440   22.9720 C   0  0  0  0  0  3  0  0  0  0  0  0
  -20.7010  -26.7300   22.3640 C   0  0  0  0  0  2  0  0  0  0  0  0
  -19.6140  -26.4130   21.3330 C   0  0  0  0  0  2  0  0  0  0  0  0
  -18.2230  -26.5170   21.9660 C   0  0  0  0  0  2  0  0  0  0  0  0
  -19.1150  -28.6150   23.1360 C   0  0  0  0  0  0  0  0  0  0  0  0
  -18.8690  -29.8570   23.7600 C   0  0  0  0  0  3  0  0  0  0  0  0
  -17.5550  -30.3270   23.9310 C   0  0  0  0  0  3  0  0  0  0  0  0
  -16.4660  -29.5540   23.4900 C   0  0  0  0  0  3  0  0  0  0  0  0
  -16.6980  -28.3120   22.8700 C   0  0  0  0  0  3  0  0  0  0  0  0
  -25.7670  -32.3870   23.7920 C   0  0  0  0  0  3  0  0  0  0  0  0
  -26.2710  -31.6080   25.0680 C   0  0  1  0  0  0  0  0  0  0  0  0
  -25.1620  -31.3400   26.1130 C   0  0  0  0  0  1  0  0  0  0  0  0
  -26.8860  -30.2480   24.6700 C   0  0  0  0  0  1  0  0  0  0  0  0
  -27.3950  -32.4130   25.7600 C   0  0  0  0  0  1  0  0  0  0  0  0
  -25.4290  -33.7750   24.1400 N   0  0  0  0  0  0  0  0  0  0  0  0
  -25.7610  -34.8470   23.4090 C   0  0  0  0  0  0  0  0  0  0  0  0
  -26.4500  -34.7720   22.3880 O   0  0  0  0  0  0  0  0  0  0  0  0
  -24.8190  -33.9080   24.9350 H   0  0  0  0  0  0  0  0  0  0  0  0
  -24.0040  -36.6140   23.0690 C   0  0  0  0  0  1  0  0  0  0  0  0
  -25.2490  -36.2220   23.8840 C   0  0  0  0  0  3  0  0  0  0  0  0
  -27.3590  -37.1280   24.7500 C   0  0  0  0  0  1  0  0  0  0  0  0
  -26.2650  -37.2930   23.7950 N   0  0  0  0  0  0  0  0  0  0  0  0
  -25.8430  -38.2040   23.9530 H   0  0  0  0  0  0  0  0  0  0  0  0
  -28.1840  -21.0310   19.9220 C   0  0  0  0  0  2  0  0  0  0  0  0
  -31.6370  -19.2720   20.0390 C   0  0  0  0  0  3  0  0  0  0  0  0
  -30.6090  -20.2300   19.9610 C   0  0  0  0  0  3  0  0  0  0  0  0
  -31.3620  -17.8980   20.1920 C   0  0  0  0  0  3  0  0  0  0  0  0
  -28.9820  -18.4200   20.2430 C   0  0  0  0  0  0  0  0  0  0  0  0
  -29.2600  -19.8540   20.0660 C   0  0  0  0  0  0  0  0  0  0  0  0
  -30.0380  -17.3960   20.2900 C   0  0  0  0  0  0  0  0  0  0  0  0
  -30.6050  -14.7910   20.1490 C   0  0  0  0  0  0  0  0  0  0  0  0
  -30.3820  -12.5320   19.0880 C   0  0  0  0  0  2  0  0  0  0  0  0
  -29.4180  -12.6480   17.8840 C   0  0  0  0  0  2  0  0  0  0  0  0
  -27.9560  -12.4860   18.3430 C   0  0  0  0  0  2  0  0  0  0  0  0
  -27.6290  -13.3360   19.6030 C   0  0  0  0  0  3  0  0  0  0  0  0
  -28.7070  -13.1960   20.6960 C   0  0  0  0  0  2  0  0  0  0  0  0
  -29.9900  -13.5610   20.0850 N   0  0  0  0  0  0  0  0  0  0  0  0
  -31.7870  -14.8740   19.7920 O   0  0  0  0  0  0  0  0  0  0  0  0
  -29.8120  -15.9130   20.4220 N   0  0  0  0  0  0  0  0  0  0  0  0
  -28.8660  -15.6520   20.6610 H   0  0  0  0  0  0  0  0  0  0  0  0
  -25.2740  -13.9510   20.3950 C   0  0  0  0  0  0  0  0  0  0  0  0
  -24.2060  -13.1920   20.7860 C   0  0  0  0  0  0  0  0  0  0  0  0
  -24.6460  -11.8360   20.7240 C   0  0  0  0  0  0  0  0  0  0  0  0
  -26.2950  -13.0590   20.1200 N   0  0  0  0  0  0  0  0  0  0  0  0
  -25.9280  -11.7780   20.3790 N   0  0  0  0  0  0  0  0  0  0  0  0
  -23.9040  -10.5860   20.9190 C   0  0  0  0  0  0  0  0  0  0  0  0
  -24.3140   -9.6250   21.8670 C   0  0  0  0  0  3  0  0  0  0  0  0
  -23.5670   -8.4400   22.0460 C   0  0  0  0  0  3  0  0  0  0  0  0
  -22.4010   -8.2120   21.2760 C   0  0  0  0  0  0  0  0  0  0  0  0
  -22.0160   -9.1630   20.3170 C   0  0  0  0  0  3  0  0  0  0  0  0
  -22.7600  -10.3400   20.1360 C   0  0  0  0  0  3  0  0  0  0  0  0
  -21.6290   -7.0790   21.3660 O   0  0  0  0  0  0  0  0  0  0  0  0
  -21.5170   -6.3760   22.5370 C   0  0  0  0  0  0  0  0  0  0  0  0
  -21.0240   -6.9730   23.7190 C   0  0  0  0  0  3  0  0  0  0  0  0
  -20.8570   -6.1970   24.8830 C   0  0  0  0  0  3  0  0  0  0  0  0
  -21.1740   -4.8250   24.8680 C   0  0  0  0  0  0  0  0  0  0  0  0
  -21.6580   -4.2280   23.6900 C   0  0  0  0  0  3  0  0  0  0  0  0
  -21.8250   -5.0010   22.5280 C   0  0  0  0  0  0  0  0  0  0  0  0
  -22.2730   -4.4170   21.3890 F   0  0  0  0  0  0  0  0  0  0  0  0
  -21.0060   -4.0770   25.9820 F   0  0  0  0  0  0  0  0  0  0  0  0
  -22.8270  -13.6960   21.0990 C   0  0  0  0  0  0  0  0  0  0  0  0
  -22.1150  -13.0030   21.9810 N   0  0  0  0  0  0  0  0  0  0  0  0
  -22.3930  -14.7330   20.6000 O   0  0  0  0  0  0  0  0  0  0  0  0
  -22.4900  -12.1660   22.4040 H   0  0  0  0  0  0  0  0  0  0  0  0
  -21.1870  -13.3070   22.2320 H   0  0  0  0  0  0  0  0  0  0  0  0
  -25.4410  -15.3170   20.2240 N   0  0  0  0  0  0  0  0  0  0  0  0
  -24.6550  -15.9480   20.3310 H   0  0  0  0  0  0  0  0  0  0  0  0
  -26.2580  -15.7720   19.8390 H   0  0  0  0  0  0  0  0  0  0  0  0
  -26.5990  -18.2010   19.5140 C   0  0  0  0  0  2  0  0  0  0  0  0
  -27.5800  -17.9860   20.4090 C   0  0  0  0  0  3  0  0  0  0  0  0
  1  6  1  0
  1  5  1  0
  3  2  1  0
  4  2  1  0
  5  8  1  0
  5  3  1  0
  6  4  1  0
  7  1  2  0
  8 10  1  0
  9 20  2  0
 10 15  1  0
 11 19  1  0
 11 21  1  0
 12 18  1  0
 12 14  1  0
 13 19  1  0
 14 13  1  0
 15 14  2  0
 16 17  1  0
 16 10  2  0
 17 12  2  0
 18 11  1  0
 19  9  1  0
 21 23  2  0
 22 21  1  0
 24 22  1  0
 25 34  2  0
 25 30  1  0
 26 22  1  0
 26 30  1  0
 27 26  1  0
 28 29  1  0
 28 27  1  0
 29 25  1  0
 30 31  2  0
 31 32  1  0
 33 32  2  0
 34 33  1  0
 35  9  1  0
 35 40  1  0
 35 36  1  0
 36 39  1  1
 36 37  1  0
 38 36  1  0
 40 43  1  0
 41 45  1  0
 41 40  1  0
 42 41  2  0
 45 44  1  0
 47 45  1  0
 47 48  1  0
 47 46  1  0
 49 54  1  0
 49  6  1  0
 50 52  1  0
 51 50  2  0
 51 54  1  0
 52 55  2  0
 53 55  1  0
 53 95  1  0
 54 53  2  0
 55 64  1  0
 56 64  1  0
 57 62  1  0
 58 59  1  0
 58 57  1  0
 60 59  1  0
 60 69  1  0
 60 61  1  0
 62 56  1  0
 62 61  1  0
 63 56  2  0
 64 65  1  0
 66 67  2  0
 67 86  1  0
 68 67  1  0
 68 71  1  0
 69 70  1  0
 69 66  1  0
 70 68  2  0
 71 72  1  0
 72 73  2  0
 74 77  1  0
 74 73  1  0
 75 74  2  0
 76 75  1  0
 76 71  2  0
 77 78  1  0
 78 79  1  0
 79 80  2  0
 81 80  1  0
 81 85  1  0
 82 81  2  0
 83 78  2  0
 83 82  1  0
 84 83  1  0
 86 87  1  0
 87 90  1  0
 87 89  1  0
 88 86  2  0
 91 92  1  0
 91 66  1  0
 93 91  1  0
 94 95  2  0
M  ISO  4   5 101   8 101  56 100  64 100
M  END
>  <TORSDO>  (81) 
F 19

>  <SCORE>  (81) 
-13.731

>  <name>  (81) 
80

>  <ligand_id>  (81) 
80

>  <original_smiles>  (81) 
[H]C([H])=C([H])c1c(N([H])C(=O)N2C([H])([H])C([H])([H])C([H])([H])C([H])(n3nc(-c4c([H])c([H])c(Oc5c([H])c([H])c(F)c([H])c5F)c([H])c4[H])c(C(=O)N([H])[H])c3N([H])[H])C2([H])[H])c([H])c([H])c([H])c1C([H])([H])N1C(=O)C([H])(Oc2c([H])c([H])c3c(c2[H])C([H])([H])N(C(=O)C([H])(N([H])C(=O)C([H])(N([H])C([H])([H])[H])C([H])([H])[H])C(C([H])([H])[H])(C([H])([H])[H])C([H])([H])[H])C([H])(C(=O)N([H])C2([H])c4c([H])c([H])c([H])c([H])c4C([H])([H])C([H])([H])C2([H])[H])C3([H])[H])C([H])([H])C([H])([H])C1([H])[H]

>  <smiles>  (81) 
[H]C([H])=C([H])c1c(N([H])C(=O)N2C([H])([H])C([H])([H])C([H])([H])C([H])(n3nc(-c4c([H])c([H])c(Oc5c([H])c([H])c(F)c([H])c5F)c([H])c4[H])c(C(=O)N([H])[H])c3N([H])[H])C2([H])[H])c([H])c([H])c([H])c1C([H])([H])N1C(=O)C([H])(Oc2c([H])c([H])c3c(c2[H])C([H])([H])N(C(=O)C([H])(N([H])C(=O)C([H])(N([H])C([H])([H])[H])C([H])([H])[H])C(C([H])([H])[H])(C([H])([H])[H])C([H])([H])[H])C([H])(C(=O)N([H])C2([H])c4c([H])c([H])c([H])c([H])c4C([H])([H])C([H])([H])C2([H])[H])C3([H])[H])C([H])([H])C([H])([H])C1([H])[H]

$$$$
81:0:0
     RDKit          3D

 96105  0  0  1  0  0  0  0  0999 V2000
  -29.3060  -23.0720   22.4510 C   0  0  0  0  0  0  0  0  0  0  0  0
  -29.6950  -24.4160   23.1120 C   0  0  0  0  0  2  0  0  0  0  0  0
  -30.4710  -25.4380   22.2450 C   0  0  0  0  0  2  0  0  0  0  0  0
  -30.8470  -24.9210   20.8510 C   0  0  0  0  0  2  0  0  0  0  0  0
  -29.6660  -24.1340   20.2570 C   0  0  0  0  0  3  0  0  0  0  0  0
  -29.4390  -22.8930   21.1040 N   0  0  0  0  0  0  0  0  0  0  0  0
  -28.9010  -22.1830   23.2080 O   0  0  0  0  0  0  0  0  0  0  0  0
  -29.3900  -19.1090   20.2570 C   0  0  0  0  0  3  0  0  0  0  0  0
  -31.2100  -21.1500   20.8860 C   0  0  0  0  0  3  0  0  0  0  0  0
  -30.7320  -18.7280   20.5220 C   0  0  0  0  0  0  0  0  0  0  0  0
  -29.8600  -21.5350   20.7090 C   0  0  0  0  0  0  0  0  0  0  0  0
  -28.9610  -20.4770   20.3410 C   0  0  0  0  0  0  0  0  0  0  0  0
  -31.6330  -19.7980   20.8100 C   0  0  0  0  0  0  0  0  0  0  0  0
  -27.3010  -20.8250   19.9970 Cl  0  0  0  0  0  0  0  0  0  0  0  0
  -33.3030  -19.4800   21.1340 Cl  0  0  0  0  0  0  0  0  0  0  0  0
  -31.3060  -17.2590   20.5230 C   0  0  0  0  0  2  0  0  0  0  0  0
  -31.1580  -14.7640   20.4630 C   0  0  0  0  0  0  0  0  0  0  0  0
  -30.7870  -12.5510   19.4080 C   0  0  0  0  0  2  0  0  0  0  0  0
  -29.8940  -12.7240   18.1620 C   0  0  0  0  0  2  0  0  0  0  0  0
  -28.4130  -12.6130   18.5580 C   0  0  0  0  0  2  0  0  0  0  0  0
  -28.0490  -13.5010   19.7770 C   0  0  0  0  0  3  0  0  0  0  0  0
  -29.0770  -13.3700   20.9250 C   0  0  0  0  0  2  0  0  0  0  0  0
  -30.4110  -13.6180   20.3670 N   0  0  0  0  0  0  0  0  0  0  0  0
  -32.3360  -14.7630   20.1060 O   0  0  0  0  0  0  0  0  0  0  0  0
  -30.5560  -15.9680   20.7480 N   0  0  0  0  0  0  0  0  0  0  0  0
  -29.5880  -15.9910   21.0320 H   0  0  0  0  0  0  0  0  0  0  0  0
  -25.6560  -14.1550   20.4270 C   0  0  0  0  0  0  0  0  0  0  0  0
  -24.5630  -13.4130   20.7750 C   0  0  0  0  0  0  0  0  0  0  0  0
  -24.9910  -12.0490   20.7690 C   0  0  0  0  0  0  0  0  0  0  0  0
  -26.6860  -13.2490   20.2340 N   0  0  0  0  0  0  0  0  0  0  0  0
  -26.2900  -11.9780   20.4990 N   0  0  0  0  0  0  0  0  0  0  0  0
  -24.2250  -10.8100   20.9510 C   0  0  0  0  0  0  0  0  0  0  0  0
  -24.6010   -9.8420   21.9080 C   0  0  0  0  0  3  0  0  0  0  0  0
  -23.8360   -8.6680   22.0790 C   0  0  0  0  0  3  0  0  0  0  0  0
  -22.6810   -8.4550   21.2890 C   0  0  0  0  0  0  0  0  0  0  0  0
  -22.3240   -9.4100   20.3210 C   0  0  0  0  0  3  0  0  0  0  0  0
  -23.0900  -10.5760   20.1510 C   0  0  0  0  0  3  0  0  0  0  0  0
  -21.8920   -7.3310   21.3660 O   0  0  0  0  0  0  0  0  0  0  0  0
  -21.7520   -6.6260   22.5350 C   0  0  0  0  0  0  0  0  0  0  0  0
  -21.2540   -7.2290   23.7110 C   0  0  0  0  0  3  0  0  0  0  0  0
  -21.0590   -6.4540   24.8710 C   0  0  0  0  0  3  0  0  0  0  0  0
  -21.3540   -5.0760   24.8570 C   0  0  0  0  0  0  0  0  0  0  0  0
  -21.8460   -4.4730   23.6840 C   0  0  0  0  0  3  0  0  0  0  0  0
  -22.0400   -5.2470   22.5250 C   0  0  0  0  0  0  0  0  0  0  0  0
  -22.4910   -4.6570   21.3910 F   0  0  0  0  0  0  0  0  0  0  0  0
  -21.1610   -4.3280   25.9660 F   0  0  0  0  0  0  0  0  0  0  0  0
  -23.1700  -13.9280   21.0050 C   0  0  0  0  0  0  0  0  0  0  0  0
  -22.4090  -13.2730   21.8740 N   0  0  0  0  0  0  0  0  0  0  0  0
  -22.7670  -14.9500   20.4510 O   0  0  0  0  0  0  0  0  0  0  0  0
  -22.7520  -12.4490   22.3460 H   0  0  0  0  0  0  0  0  0  0  0  0
  -21.4740  -13.6010   22.0730 H   0  0  0  0  0  0  0  0  0  0  0  0
  -25.8510  -15.5180   20.2260 N   0  0  0  0  0  0  0  0  0  0  0  0
  -25.0740  -16.1690   20.2760 H   0  0  0  0  0  0  0  0  0  0  0  0
  -26.6800  -15.9210   19.8090 H   0  0  0  0  0  0  0  0  0  0  0  0
  -28.3950  -25.0960   20.1090 C   0  0  0  0  0  2  0  0  0  0  0  0
  -28.5820  -26.5350   19.7990 O   0  0  0  0  0  0  0  0  0  0  0  0
  -24.6040  -31.6270   23.0130 C   0  0  0  0  0  0  0  0  0  0  0  0
  -27.4300  -27.3310   19.7860 C   0  0  0  0  0  0  0  0  0  0  0  0
  -23.4710  -30.2440   21.3090 C   0  0  0  0  0  3  0  0  0  0  0  0
  -24.9960  -28.8260   19.8260 C   0  0  0  0  0  0  0  0  0  0  0  0
  -25.9940  -30.6870   21.1520 C   0  0  0  0  0  2  0  0  0  0  0  0
  -26.1380  -29.3430   20.4510 C   0  0  0  0  0  0  0  0  0  0  0  0
  -27.3590  -28.6080   20.4200 C   0  0  0  0  0  3  0  0  0  0  0  0
  -26.2660  -26.8720   19.1280 C   0  0  0  0  0  3  0  0  0  0  0  0
  -25.0630  -27.5990   19.1500 C   0  0  0  0  0  3  0  0  0  0  0  0
  -23.7200  -29.6390   19.9020 C   0  0  0  0  0  2  0  0  0  0  0  0
  -24.7070  -30.8700   21.8810 N   0  0  0  0  0  0  0  0  0  0  0  0
  -23.5070  -31.8320   23.5520 O   0  0  0  0  0  0  0  0  0  0  0  0
  -22.8530  -29.1580   22.2250 C   0  0  0  0  0  0  0  0  0  0  0  0
  -21.5300  -28.9530   22.1120 N   0  0  0  0  0  0  0  0  0  0  0  0
  -23.5620  -28.5090   22.9970 O   0  0  0  0  0  0  0  0  0  0  0  0
  -21.0160  -29.5380   21.4670 H   0  0  0  0  0  0  0  0  0  0  0  0
  -18.1850  -27.6690   22.6250 C   0  0  0  0  0  0  0  0  0  0  0  0
  -20.7470  -27.9540   22.8420 C   0  0  0  0  0  3  0  0  0  0  0  0
  -20.8530  -26.5640   22.1720 C   0  0  0  0  0  2  0  0  0  0  0  0
  -19.7270  -26.2880   21.1700 C   0  0  0  0  0  2  0  0  0  0  0  0
  -18.3630  -26.3680   21.8590 C   0  0  0  0  0  2  0  0  0  0  0  0
  -19.3040  -28.4210   23.0720 C   0  0  0  0  0  0  0  0  0  0  0  0
  -19.0820  -29.6400   23.7490 C   0  0  0  0  0  3  0  0  0  0  0  0
  -17.7740  -30.1060   23.9820 C   0  0  0  0  0  3  0  0  0  0  0  0
  -16.6710  -29.3510   23.5510 C   0  0  0  0  0  3  0  0  0  0  0  0
  -16.8780  -28.1340   22.8770 C   0  0  0  0  0  3  0  0  0  0  0  0
  -25.8550  -32.2880   23.6690 C   0  0  0  0  0  3  0  0  0  0  0  0
  -26.3950  -31.4900   24.9180 C   0  0  1  0  0  0  0  0  0  0  0  0
  -25.3070  -31.1600   25.9680 C   0  0  0  0  0  1  0  0  0  0  0  0
  -27.0380  -30.1540   24.4770 C   0  0  0  0  0  1  0  0  0  0  0  0
  -27.5080  -32.3040   25.6180 C   0  0  0  0  0  1  0  0  0  0  0  0
  -25.4840  -33.6590   24.0490 N   0  0  0  0  0  0  0  0  0  0  0  0
  -25.7720  -34.7540   23.3320 C   0  0  0  0  0  0  0  0  0  0  0  0
  -26.4490  -34.7180   22.3000 O   0  0  0  0  0  0  0  0  0  0  0  0
  -24.8790  -33.7580   24.8520 H   0  0  0  0  0  0  0  0  0  0  0  0
  -23.9680  -36.4830   23.0410 C   0  0  0  0  0  1  0  0  0  0  0  0
  -25.2270  -36.1040   23.8390 C   0  0  0  0  0  3  0  0  0  0  0  0
  -27.3190  -37.0580   24.7030 C   0  0  0  0  0  1  0  0  0  0  0  0
  -26.2120  -37.2040   23.7610 N   0  0  0  0  0  0  0  0  0  0  0  0
  -25.7670  -38.1030   23.9280 H   0  0  0  0  0  0  0  0  0  0  0  0
  1  2  1  0
  1  7  2  0
  3  2  1  0
  4  3  1  0
  5 55  1  0
  5  4  1  0
  5  6  1  0
  6  1  1  0
  8 12  2  0
  8 10  1  0
 10 16  1  0
 10 13  2  0
 11  9  2  0
 11  6  1  0
 12 11  1  0
 13  9  1  0
 13 15  1  0
 14 12  1  0
 16 25  1  0
 17 25  1  0
 18 23  1  0
 19 20  1  0
 19 18  1  0
 21 20  1  0
 21 30  1  0
 21 22  1  0
 23 17  1  0
 23 22  1  0
 24 17  2  0
 25 26  1  0
 27 28  2  0
 28 47  1  0
 29 28  1  0
 29 32  1  0
 30 27  1  0
 30 31  1  0
 31 29  2  0
 32 33  1  0
 33 34  2  0
 35 38  1  0
 35 34  1  0
 36 35  2  0
 37 36  1  0
 37 32  2  0
 38 39  1  0
 39 40  1  0
 40 41  2  0
 42 41  1  0
 42 46  1  0
 43 42  2  0
 44 39  2  0
 44 43  1  0
 45 44  1  0
 47 48  1  0
 48 51  1  0
 48 50  1  0
 49 47  2  0
 52 53  1  0
 52 27  1  0
 54 52  1  0
 56 55  1  0
 57 68  2  0
 58 56  1  0
 58 63  1  0
 59 67  1  0
 59 69  1  0
 60 66  1  0
 60 62  1  0
 61 67  1  0
 62 61  1  0
 63 62  2  0
 64 65  1  0
 64 58  2  0
 65 60  2  0
 66 59  1  0
 67 57  1  0
 69 71  2  0
 70 69  1  0
 72 70  1  0
 73 82  2  0
 73 78  1  0
 74 70  1  0
 74 78  1  0
 75 74  1  0
 76 77  1  0
 76 75  1  0
 77 73  1  0
 78 79  2  0
 79 80  1  0
 81 80  2  0
 82 81  1  0
 83 57  1  0
 83 88  1  0
 83 84  1  0
 84 87  1  1
 84 85  1  0
 86 84  1  0
 88 91  1  0
 89 93  1  0
 89 88  1  0
 90 89  2  0
 93 92  1  0
 95 93  1  0
 95 96  1  0
 95 94  1  0
M  ISO  4  17 100  25 100  55 101  56 101
M  END
>  <TORSDO>  (82) 
F 19

>  <SCORE>  (82) 
-13.219

>  <name>  (82) 
81

>  <ligand_id>  (82) 
81

>  <original_smiles>  (82) 
[H]c1c([H])c([H])c2c(c1[H])C([H])([H])C([H])([H])C([H])([H])C2([H])N([H])C(=O)C1([H])N(C(=O)C([H])(N([H])C(=O)C([H])(N([H])C([H])([H])[H])C([H])([H])[H])C(C([H])([H])[H])(C([H])([H])[H])C([H])([H])[H])C([H])([H])c2c([H])c(OC([H])([H])C3([H])N(c4c([H])c(Cl)c(C([H])([H])N([H])C(=O)N5C([H])([H])C([H])([H])C([H])([H])C([H])(n6nc(-c7c([H])c([H])c(Oc8c([H])c([H])c(F)c([H])c8F)c([H])c7[H])c(C(=O)N([H])[H])c6N([H])[H])C5([H])[H])c([H])c4Cl)C(=O)C([H])([H])C([H])([H])C3([H])[H])c([H])c([H])c2C1([H])[H]

>  <smiles>  (82) 
[H]c1c([H])c([H])c2c(c1[H])C([H])([H])C([H])([H])C([H])([H])C2([H])N([H])C(=O)C1([H])N(C(=O)C([H])(N([H])C(=O)C([H])(N([H])C([H])([H])[H])C([H])([H])[H])C(C([H])([H])[H])(C([H])([H])[H])C([H])([H])[H])C([H])([H])c2c([H])c(OC([H])([H])C3([H])N(c4c([H])c(Cl)c(C([H])([H])N([H])C(=O)N5C([H])([H])C([H])([H])C([H])([H])C([H])(n6nc(-c7c([H])c([H])c(Oc8c([H])c([H])c(F)c([H])c8F)c([H])c7[H])c(C(=O)N([H])[H])c6N([H])[H])C5([H])[H])c([H])c4Cl)C(=O)C([H])([H])C([H])([H])C3([H])[H])c([H])c([H])c2C1([H])[H]

$$$$
82:0:0
     RDKit          3D

 94103  0  0  1  0  0  0  0  0999 V2000
  -28.5800  -23.2240   20.5330 C   0  0  0  0  0  0  0  0  0  0  0  0
  -28.3870  -23.1360   17.7310 C   0  0  0  0  0  2  0  0  0  0  0  0
  -27.8010  -24.4440   18.3100 C   0  0  0  0  0  2  0  0  0  0  0  0
  -28.0600  -21.8840   18.5790 C   0  0  0  0  0  2  0  0  0  0  0  0
  -27.8250  -24.5750   19.8590 C   0  0  0  0  0  3  0  0  0  0  0  0
  -28.7180  -21.9240   19.8910 N   0  0  0  0  0  0  0  0  0  0  0  0
  -28.9410  -23.3660   21.7060 O   0  0  0  0  0  0  0  0  0  0  0  0
  -31.5340  -19.6060   21.2520 C   0  0  0  0  0  3  0  0  0  0  0  0
  -29.1380  -19.1450   20.0380 C   0  0  0  0  0  3  0  0  0  0  0  0
  -31.1430  -18.2590   21.0790 C   0  0  0  0  0  0  0  0  0  0  0  0
  -29.4850  -20.6030   20.2850 C   0  0  0  0  0  0  0  0  0  0  0  0
  -29.9520  -17.9080   20.3780 C   0  0  0  0  0  0  0  0  0  0  0  0
  -30.7880  -20.7280   20.8420 C   0  0  0  0  0  0  0  0  0  0  0  0
  -32.0730  -17.2400   21.7180 C   0  0  0  0  0  1  0  0  0  0  0  0
  -31.6330  -22.2350   20.9550 Cl  0  0  0  0  0  0  0  0  0  0  0  0
  -30.3630  -15.1530   19.9350 C   0  0  0  0  0  0  0  0  0  0  0  0
  -30.1960  -12.8010   18.9440 C   0  0  0  0  0  2  0  0  0  0  0  0
  -29.1810  -12.7230   17.7810 C   0  0  0  0  0  2  0  0  0  0  0  0
  -27.7650  -12.4590   18.3220 C   0  0  0  0  0  2  0  0  0  0  0  0
  -27.4200  -13.3710   19.5280 C   0  0  0  0  0  3  0  0  0  0  0  0
  -28.5510  -13.4180   20.5760 C   0  0  0  0  0  2  0  0  0  0  0  0
  -29.7550  -13.8870   19.8770 N   0  0  0  0  0  0  0  0  0  0  0  0
  -31.5430  -15.1690   19.5680 O   0  0  0  0  0  0  0  0  0  0  0  0
  -29.6220  -16.3830   20.1560 N   0  0  0  0  0  0  0  0  0  0  0  0
  -28.6320  -16.1930   20.1870 H   0  0  0  0  0  0  0  0  0  0  0  0
  -25.0940  -13.8990   20.4440 C   0  0  0  0  0  0  0  0  0  0  0  0
  -24.0640  -13.1030   20.8630 C   0  0  0  0  0  0  0  0  0  0  0  0
  -24.5390  -11.7590   20.7650 C   0  0  0  0  0  0  0  0  0  0  0  0
  -26.1270  -13.0400   20.1130 N   0  0  0  0  0  0  0  0  0  0  0  0
  -25.8070  -11.7450   20.3720 N   0  0  0  0  0  0  0  0  0  0  0  0
  -23.8370  -10.4850   20.9660 C   0  0  0  0  0  0  0  0  0  0  0  0
  -24.2990   -9.5240   21.8920 C   0  0  0  0  0  3  0  0  0  0  0  0
  -23.5930   -8.3150   22.0840 C   0  0  0  0  0  3  0  0  0  0  0  0
  -22.4110   -8.0600   21.3480 C   0  0  0  0  0  0  0  0  0  0  0  0
  -21.9680   -9.0100   20.4100 C   0  0  0  0  0  3  0  0  0  0  0  0
  -22.6750  -10.2080   20.2170 C   0  0  0  0  0  3  0  0  0  0  0  0
  -21.6750   -6.9040   21.4480 O   0  0  0  0  0  0  0  0  0  0  0  0
  -21.6200   -6.1860   22.6150 C   0  0  0  0  0  0  0  0  0  0  0  0
  -21.1470   -6.7530   23.8180 C   0  0  0  0  0  3  0  0  0  0  0  0
  -21.0420   -5.9590   24.9780 C   0  0  0  0  0  3  0  0  0  0  0  0
  -21.4000   -4.5990   24.9350 C   0  0  0  0  0  0  0  0  0  0  0  0
  -21.8670   -4.0310   23.7380 C   0  0  0  0  0  3  0  0  0  0  0  0
  -21.9740   -4.8210   22.5800 C   0  0  0  0  0  0  0  0  0  0  0  0
  -22.4030   -4.2640   21.4220 F   0  0  0  0  0  0  0  0  0  0  0  0
  -21.2920   -3.8340   26.0470 F   0  0  0  0  0  0  0  0  0  0  0  0
  -22.6840  -13.5580   21.2360 C   0  0  0  0  0  0  0  0  0  0  0  0
  -22.0210  -12.8320   22.1270 N   0  0  0  0  0  0  0  0  0  0  0  0
  -22.2090  -14.5960   20.7750 O   0  0  0  0  0  0  0  0  0  0  0  0
  -22.4210  -11.9920   22.5170 H   0  0  0  0  0  0  0  0  0  0  0  0
  -21.1000  -13.1210   22.4250 H   0  0  0  0  0  0  0  0  0  0  0  0
  -25.2290  -15.2760   20.2880 N   0  0  0  0  0  0  0  0  0  0  0  0
  -24.4500  -15.9080   20.4380 H   0  0  0  0  0  0  0  0  0  0  0  0
  -26.0360  -15.7340   19.8880 H   0  0  0  0  0  0  0  0  0  0  0  0
  -28.0690  -26.0920   20.2950 O   0  0  0  0  0  0  0  0  0  0  0  0
  -24.5650  -31.9350   23.2920 C   0  0  0  0  0  0  0  0  0  0  0  0
  -27.0570  -27.1460   20.2250 C   0  0  0  0  0  0  0  0  0  0  0  0
  -23.3440  -30.5590   21.6570 C   0  0  0  0  0  3  0  0  0  0  0  0
  -24.7670  -28.9760   20.2120 C   0  0  0  0  0  0  0  0  0  0  0  0
  -25.9070  -30.7730   21.4920 C   0  0  0  0  0  2  0  0  0  0  0  0
  -25.9580  -29.3820   20.8240 C   0  0  0  0  0  0  0  0  0  0  0  0
  -27.1030  -28.4830   20.8150 C   0  0  0  0  0  3  0  0  0  0  0  0
  -25.8360  -26.8690   19.5710 C   0  0  0  0  0  3  0  0  0  0  0  0
  -24.7240  -27.7360   19.5650 C   0  0  0  0  0  3  0  0  0  0  0  0
  -23.5530  -29.8940   20.2720 C   0  0  0  0  0  2  0  0  0  0  0  0
  -24.6260  -31.1110   22.2010 N   0  0  0  0  0  0  0  0  0  0  0  0
  -23.4830  -32.2300   23.8250 O   0  0  0  0  0  0  0  0  0  0  0  0
  -22.6570  -29.5540   22.6160 C   0  0  0  0  0  0  0  0  0  0  0  0
  -21.3290  -29.3830   22.4850 N   0  0  0  0  0  0  0  0  0  0  0  0
  -23.3210  -28.9300   23.4480 O   0  0  0  0  0  0  0  0  0  0  0  0
  -20.8470  -29.9350   21.7890 H   0  0  0  0  0  0  0  0  0  0  0  0
  -17.9480  -28.1680   22.9650 C   0  0  0  0  0  0  0  0  0  0  0  0
  -20.5040  -28.4490   23.2550 C   0  0  0  0  0  3  0  0  0  0  0  0
  -20.6210  -27.0120   22.6960 C   0  0  0  0  0  2  0  0  0  0  0  0
  -19.5300  -26.6730   21.6740 C   0  0  0  0  0  2  0  0  0  0  0  0
  -18.1400  -26.8130   22.3020 C   0  0  0  0  0  2  0  0  0  0  0  0
  -19.0580  -28.9430   23.3970 C   0  0  0  0  0  0  0  0  0  0  0  0
  -18.8230  -30.2080   23.9780 C   0  0  0  0  0  3  0  0  0  0  0  0
  -17.5140  -30.6990   24.1310 C   0  0  0  0  0  3  0  0  0  0  0  0
  -16.4190  -29.9220   23.7120 C   0  0  0  0  0  3  0  0  0  0  0  0
  -16.6380  -28.6600   23.1330 C   0  0  0  0  0  3  0  0  0  0  0  0
  -25.8500  -32.5570   23.9140 C   0  0  0  0  0  3  0  0  0  0  0  0
  -25.5570  -33.9650   24.2300 N   0  0  0  0  0  0  0  0  0  0  0  0
  -25.8840  -35.0080   23.4560 C   0  0  0  0  0  0  0  0  0  0  0  0
  -26.5270  -34.8850   22.4090 O   0  0  0  0  0  0  0  0  0  0  0  0
  -24.9830  -34.1340   25.0430 H   0  0  0  0  0  0  0  0  0  0  0  0
  -24.1540  -36.8090   23.1490 C   0  0  0  0  0  1  0  0  0  0  0  0
  -25.4250  -36.4070   23.9120 C   0  0  0  0  0  3  0  0  0  0  0  0
  -27.5930  -37.2950   24.6460 C   0  0  0  0  0  1  0  0  0  0  0  0
  -26.4580  -37.4530   23.7410 N   0  0  0  0  0  0  0  0  0  0  0  0
  -26.0630  -38.3760   23.8920 H   0  0  0  0  0  0  0  0  0  0  0  0
  -26.3420  -31.7990   25.2080 C   0  0  1  0  0  0  0  0  0  0  0  0
  -25.2340  -31.5930   26.2680 C   0  0  0  0  0  1  0  0  0  0  0  0
  -26.9120  -30.4070   24.8490 C   0  0  0  0  0  1  0  0  0  0  0  0
  -27.4980  -32.5870   25.8660 C   0  0  0  0  0  1  0  0  0  0  0  0
  1  7  2  0
  2  3  1  0
  2  4  1  0
  3  5  1  0
  4  6  1  0
  5 54  1  0
  5  1  1  0
  6 11  1  0
  6  1  1  0
  9 11  2  0
  9 12  1  0
 10  8  1  0
 10 14  1  0
 11 13  1  0
 12 10  2  0
 13 15  1  0
 13  8  2  0
 16 24  1  0
 17 22  1  0
 18 19  1  0
 18 17  1  0
 20 19  1  0
 20 29  1  0
 20 21  1  0
 22 16  1  0
 22 21  1  0
 23 16  2  0
 24 25  1  0
 24 12  1  0
 26 27  2  0
 27 46  1  0
 28 27  1  0
 28 31  1  0
 29 30  1  0
 29 26  1  0
 30 28  2  0
 31 32  1  0
 32 33  2  0
 34 37  1  0
 34 33  1  0
 35 34  2  0
 36 35  1  0
 36 31  2  0
 37 38  1  0
 38 39  1  0
 39 40  2  0
 41 40  1  0
 41 45  1  0
 42 41  2  0
 43 38  2  0
 43 42  1  0
 44 43  1  0
 46 47  1  0
 47 50  1  0
 47 49  1  0
 48 46  2  0
 51 52  1  0
 51 26  1  0
 53 51  1  0
 55 66  2  0
 56 54  1  0
 56 61  1  0
 57 65  1  0
 57 67  1  0
 58 64  1  0
 58 60  1  0
 59 65  1  0
 60 59  1  0
 61 60  2  0
 62 56  2  0
 63 62  1  0
 63 58  2  0
 64 57  1  0
 65 55  1  0
 67 69  2  0
 68 67  1  0
 70 68  1  0
 71 80  2  0
 71 76  1  0
 72 68  1  0
 72 76  1  0
 73 72  1  0
 74 75  1  0
 74 73  1  0
 75 71  1  0
 76 77  2  0
 77 78  1  0
 79 78  2  0
 80 79  1  0
 81 55  1  0
 81 82  1  0
 81 91  1  0
 82 85  1  0
 83 87  1  0
 83 82  1  0
 84 83  2  0
 87 86  1  0
 89 90  1  0
 89 87  1  0
 89 88  1  0
 91 94  1  1
 91 92  1  0
 93 91  1  0
M  ISO  4   5 101  16 100  24 100  54 101
M  END
>  <TORSDO>  (83) 
F 17

>  <SCORE>  (83) 
-14.448

>  <name>  (83) 
82

>  <ligand_id>  (83) 
82

>  <original_smiles>  (83) 
[H]c1c([H])c([H])c2c(c1[H])C([H])([H])C([H])([H])C([H])([H])C2([H])N([H])C(=O)C1([H])N(C(=O)C([H])(N([H])C(=O)C([H])(N([H])C([H])([H])[H])C([H])([H])[H])C(C([H])([H])[H])(C([H])([H])[H])C([H])([H])[H])C([H])([H])c2c([H])c(OC3([H])C(=O)N(c4c([H])c(N([H])C(=O)N5C([H])([H])C([H])([H])C([H])([H])C([H])(n6nc(-c7c([H])c([H])c(Oc8c([H])c([H])c(F)c([H])c8F)c([H])c7[H])c(C(=O)N([H])[H])c6N([H])[H])C5([H])[H])c(C([H])([H])[H])c([H])c4Cl)C([H])([H])C([H])([H])C3([H])[H])c([H])c([H])c2C1([H])[H]

>  <smiles>  (83) 
[H]c1c([H])c([H])c2c(c1[H])C([H])([H])C([H])([H])C([H])([H])C2([H])N([H])C(=O)C1([H])N(C(=O)C([H])(N([H])C(=O)C([H])(N([H])C([H])([H])[H])C([H])([H])[H])C(C([H])([H])[H])(C([H])([H])[H])C([H])([H])[H])C([H])([H])c2c([H])c(OC3([H])C(=O)N(c4c([H])c(N([H])C(=O)N5C([H])([H])C([H])([H])C([H])([H])C([H])(n6nc(-c7c([H])c([H])c(Oc8c([H])c([H])c(F)c([H])c8F)c([H])c7[H])c(C(=O)N([H])[H])c6N([H])[H])C5([H])[H])c(C([H])([H])[H])c([H])c4Cl)C([H])([H])C([H])([H])C3([H])[H])c([H])c([H])c2C1([H])[H]

$$$$
83:0:0
     RDKit          3D

 97106  0  0  1  0  0  0  0  0999 V2000
  -28.3870  -23.3790   20.8190 C   0  0  0  0  0  0  0  0  0  0  0  0
  -27.2790  -22.7540   21.2630 C   0  0  0  0  0  3  0  0  0  0  0  0
  -28.6720  -24.8790   21.0800 C   0  0  0  0  0  2  0  0  0  0  0  0
  -30.0300  -25.0650   19.0690 C   0  0  0  0  0  2  0  0  0  0  0  0
  -29.8220  -23.5340   18.7630 C   0  0  0  0  0  2  0  0  0  0  0  0
  -28.8070  -25.6990   19.7780 C   0  0  0  0  0  3  0  0  0  0  0  0
  -26.8630  -21.3250   20.9800 C   0  0  0  0  0  1  0  0  0  0  0  0
  -29.3900  -22.6710   19.9150 N   0  0  1  0  0  4  0  0  0  0  0  0
  -28.8560  -21.9630   19.4330 H   0  0  0  0  0  0  0  0  0  0  0  0
  -28.8440  -27.1790   19.9630 O   0  0  0  0  0  0  0  0  0  0  0  0
  -24.5310  -31.8920   23.3320 C   0  0  0  0  0  0  0  0  0  0  0  0
  -27.6440  -27.9120   19.9580 C   0  0  0  0  0  0  0  0  0  0  0  0
  -23.5060  -30.5350   21.5440 C   0  0  0  0  0  3  0  0  0  0  0  0
  -25.1310  -29.2820   20.0220 C   0  0  0  0  0  0  0  0  0  0  0  0
  -26.0030  -31.1190   21.4620 C   0  0  0  0  0  2  0  0  0  0  0  0
  -26.2330  -29.8210   20.7000 C   0  0  0  0  0  0  0  0  0  0  0  0
  -27.4900  -29.1460   20.6640 C   0  0  0  0  0  3  0  0  0  0  0  0
  -26.5200  -27.4520   19.2310 C   0  0  0  0  0  3  0  0  0  0  0  0
  -25.2770  -28.1030   19.2800 C   0  0  0  0  0  3  0  0  0  0  0  0
  -23.8110  -30.0180   20.1140 C   0  0  0  0  0  2  0  0  0  0  0  0
  -24.6960  -31.1960   22.1700 N   0  0  0  0  0  0  0  0  0  0  0  0
  -23.4150  -32.0110   23.8580 O   0  0  0  0  0  0  0  0  0  0  0  0
  -22.9360  -29.3710   22.3880 C   0  0  0  0  0  0  0  0  0  0  0  0
  -21.6420  -29.0640   22.1980 N   0  0  0  0  0  0  0  0  0  0  0  0
  -23.6560  -28.7520   23.1750 O   0  0  0  0  0  0  0  0  0  0  0  0
  -21.1140  -29.6230   21.5430 H   0  0  0  0  0  0  0  0  0  0  0  0
  -18.3950  -27.4950   22.4930 C   0  0  0  0  0  0  0  0  0  0  0  0
  -20.9090  -27.9810   22.8580 C   0  0  0  0  0  3  0  0  0  0  0  0
  -21.1670  -26.6270   22.1570 C   0  0  0  0  0  2  0  0  0  0  0  0
  -20.1230  -26.2910   21.0890 C   0  0  0  0  0  2  0  0  0  0  0  0
  -18.7210  -26.2370   21.7050 C   0  0  0  0  0  2  0  0  0  0  0  0
  -19.4230  -28.3210   23.0210 C   0  0  0  0  0  0  0  0  0  0  0  0
  -19.0660  -29.4960   23.7180 C   0  0  0  0  0  3  0  0  0  0  0  0
  -17.7140  -29.8480   23.8910 C   0  0  0  0  0  3  0  0  0  0  0  0
  -16.7010  -29.0180   23.3800 C   0  0  0  0  0  3  0  0  0  0  0  0
  -17.0420  -27.8430   22.6880 C   0  0  0  0  0  3  0  0  0  0  0  0
  -25.7310  -32.5900   24.0410 C   0  0  0  0  0  3  0  0  0  0  0  0
  -25.3270  -33.9710   24.3390 N   0  0  0  0  0  0  0  0  0  0  0  0
  -25.6390  -35.0350   23.5870 C   0  0  0  0  0  0  0  0  0  0  0  0
  -26.3690  -34.9620   22.5940 O   0  0  0  0  0  0  0  0  0  0  0  0
  -24.6810  -34.0980   25.1030 H   0  0  0  0  0  0  0  0  0  0  0  0
  -23.8230  -36.7160   23.1380 C   0  0  0  0  0  1  0  0  0  0  0  0
  -25.0520  -36.3980   24.0030 C   0  0  0  0  0  3  0  0  0  0  0  0
  -27.0860  -37.4280   24.9140 C   0  0  0  0  0  1  0  0  0  0  0  0
  -26.0240  -37.5080   23.9150 N   0  0  0  0  0  0  0  0  0  0  0  0
  -25.5570  -38.4050   24.0220 H   0  0  0  0  0  0  0  0  0  0  0  0
  -26.1910  -31.8500   25.3570 C   0  0  1  0  0  0  0  0  0  0  0  0
  -25.0310  -31.5320   26.3290 C   0  0  0  0  0  1  0  0  0  0  0  0
  -26.8970  -30.5170   25.0170 C   0  0  0  0  0  1  0  0  0  0  0  0
  -27.2250  -32.7170   26.1120 C   0  0  0  0  0  1  0  0  0  0  0  0
  -30.4120  -21.7830   20.6250 C   0  0  0  0  0  2  0  0  0  0  0  0
  -32.6910  -19.4150   18.5420 C   0  0  0  0  0  3  0  0  0  0  0  0
  -32.2340  -18.1280   18.8470 C   0  0  0  0  0  3  0  0  0  0  0  0
  -32.1330  -20.5580   19.1430 C   0  0  0  0  0  0  0  0  0  0  0  0
  -30.9840  -20.4480   19.9780 C   0  0  0  0  0  0  0  0  0  0  0  0
  -30.5540  -19.0930   20.3190 C   0  0  0  0  0  0  0  0  0  0  0  0
  -31.2200  -17.9090   19.8040 C   0  0  0  0  0  0  0  0  0  0  0  0
  -32.9050  -21.8610   18.9530 C   0  0  0  0  0  1  0  0  0  0  0  0
  -29.4190  -18.8730   21.3090 C   0  0  0  0  0  1  0  0  0  0  0  0
  -31.6060  -15.3610   19.9900 C   0  0  0  0  0  0  0  0  0  0  0  0
  -31.3230  -13.0900   19.0390 C   0  0  0  0  0  2  0  0  0  0  0  0
  -30.3800  -13.1770   17.8200 C   0  0  0  0  0  2  0  0  0  0  0  0
  -28.9130  -13.0420   18.2680 C   0  0  0  0  0  2  0  0  0  0  0  0
  -28.5650  -13.9580   19.4710 C   0  0  0  0  0  3  0  0  0  0  0  0
  -29.6310  -13.8750   20.5860 C   0  0  0  0  0  2  0  0  0  0  0  0
  -30.9340  -14.1660   19.9740 N   0  0  0  0  0  0  0  0  0  0  0  0
  -32.7930  -15.3970   19.6620 O   0  0  0  0  0  0  0  0  0  0  0  0
  -30.8840  -16.5220   20.1900 N   0  0  0  0  0  0  0  0  0  0  0  0
  -29.9630  -16.3820   20.5760 H   0  0  0  0  0  0  0  0  0  0  0  0
  -26.1990  -14.5880   20.2430 C   0  0  0  0  0  0  0  0  0  0  0  0
  -25.1250  -13.8300   20.6210 C   0  0  0  0  0  0  0  0  0  0  0  0
  -25.5610  -12.4700   20.5690 C   0  0  0  0  0  0  0  0  0  0  0  0
  -27.2230  -13.6910   19.9800 N   0  0  0  0  0  0  0  0  0  0  0  0
  -26.8460  -12.4130   20.2380 N   0  0  0  0  0  0  0  0  0  0  0  0
  -24.8150  -11.2190   20.7560 C   0  0  0  0  0  0  0  0  0  0  0  0
  -25.1490  -10.3060   21.7800 C   0  0  0  0  0  3  0  0  0  0  0  0
  -24.4030   -9.1190   21.9520 C   0  0  0  0  0  3  0  0  0  0  0  0
  -23.3090   -8.8380   21.1000 C   0  0  0  0  0  0  0  0  0  0  0  0
  -22.9940   -9.7400   20.0680 C   0  0  0  0  0  3  0  0  0  0  0  0
  -23.7410  -10.9180   19.8950 C   0  0  0  0  0  3  0  0  0  0  0  0
  -22.5440   -7.6990   21.1750 O   0  0  0  0  0  0  0  0  0  0  0  0
  -22.2430   -7.1130   22.3790 C   0  0  0  0  0  0  0  0  0  0  0  0
  -21.5360   -7.8050   23.3880 C   0  0  0  0  0  3  0  0  0  0  0  0
  -21.1860   -7.1430   24.5820 C   0  0  0  0  0  3  0  0  0  0  0  0
  -21.5330   -5.7910   24.7660 C   0  0  0  0  0  0  0  0  0  0  0  0
  -22.2330   -5.1000   23.7610 C   0  0  0  0  0  3  0  0  0  0  0  0
  -22.5840   -5.7590   22.5700 C   0  0  0  0  0  0  0  0  0  0  0  0
  -23.2390   -5.0830   21.5960 F   0  0  0  0  0  0  0  0  0  0  0  0
  -21.1920   -5.1530   25.9100 F   0  0  0  0  0  0  0  0  0  0  0  0
  -23.7410  -14.3290   20.9200 C   0  0  0  0  0  0  0  0  0  0  0  0
  -23.0220  -13.6500   21.8050 N   0  0  0  0  0  0  0  0  0  0  0  0
  -23.3080  -15.3580   20.4030 O   0  0  0  0  0  0  0  0  0  0  0  0
  -23.3870  -12.8160   22.2450 H   0  0  0  0  0  0  0  0  0  0  0  0
  -22.0940  -13.9660   22.0500 H   0  0  0  0  0  0  0  0  0  0  0  0
  -26.3850  -15.9570   20.0750 N   0  0  0  0  0  0  0  0  0  0  0  0
  -25.6240  -16.6170   20.1890 H   0  0  0  0  0  0  0  0  0  0  0  0
  -27.2180  -16.3770   19.6830 H   0  0  0  0  0  0  0  0  0  0  0  0
  1  3  1  0
  1  2  2  0
  4  6  1  0
  5  4  1  0
  5  8  1  0
  6 10  1  0
  6  3  1  0
  7  2  1  0
  8 51  1  0
  8  1  1  0
  8  9  1  6
 11 22  2  0
 12 10  1  0
 12 17  1  0
 13 21  1  0
 13 23  1  0
 14 20  1  0
 14 16  1  0
 15 21  1  0
 16 15  1  0
 17 16  2  0
 18 19  1  0
 18 12  2  0
 19 14  2  0
 20 13  1  0
 21 11  1  0
 23 25  2  0
 24 23  1  0
 26 24  1  0
 27 36  2  0
 27 32  1  0
 28 24  1  0
 28 32  1  0
 29 28  1  0
 30 31  1  0
 30 29  1  0
 31 27  1  0
 32 33  2  0
 33 34  1  0
 35 34  2  0
 36 35  1  0
 37 11  1  0
 37 38  1  0
 37 47  1  0
 38 41  1  0
 39 43  1  0
 39 38  1  0
 40 39  2  0
 43 42  1  0
 45 43  1  0
 45 46  1  0
 45 44  1  0
 47 50  1  1
 47 48  1  0
 49 47  1  0
 52 53  2  0
 52 54  1  0
 53 57  1  0
 54 55  2  0
 55 56  1  0
 55 51  1  0
 56 59  1  0
 57 68  1  0
 57 56  2  0
 58 54  1  0
 60 68  1  0
 61 66  1  0
 62 63  1  0
 62 61  1  0
 64 63  1  0
 64 73  1  0
 64 65  1  0
 66 60  1  0
 66 65  1  0
 67 60  2  0
 68 69  1  0
 70 71  2  0
 71 90  1  0
 72 71  1  0
 72 75  1  0
 73 74  1  0
 73 70  1  0
 74 72  2  0
 75 76  1  0
 76 77  2  0
 78 81  1  0
 78 77  1  0
 79 78  2  0
 80 79  1  0
 80 75  2  0
 81 82  1  0
 82 87  2  0
 82 83  1  0
 83 84  2  0
 84 85  1  0
 85 89  1  0
 86 85  2  0
 87 86  1  0
 88 87  1  0
 90 91  1  0
 91 94  1  0
 91 93  1  0
 92 90  2  0
 95 96  1  0
 95 70  1  0
 97 95  1  0
M  ISO  4   6 101  10 101  60 100  68 100
M  END
>  <TORSDO>  (84) 
F 18

>  <SCORE>  (84) 
-10.509

>  <name>  (84) 
83

>  <ligand_id>  (84) 
83

>  <original_smiles>  (84) 
[H]C(=C1C([H])([H])C([H])(Oc2c([H])c([H])c3c(c2[H])C([H])([H])N(C(=O)C([H])(N([H])C(=O)C([H])(N([H])C([H])([H])[H])C([H])([H])[H])C(C([H])([H])[H])(C([H])([H])[H])C([H])([H])[H])C([H])(C(=O)N([H])C2([H])c4c([H])c([H])c([H])c([H])c4C([H])([H])C([H])([H])C2([H])[H])C3([H])[H])C([H])([H])C([H])([H])[N+]1([H])C([H])([H])c1c(C([H])([H])[H])c([H])c([H])c(N([H])C(=O)N2C([H])([H])C([H])([H])C([H])([H])C([H])(n3nc(-c4c([H])c([H])c(Oc5c([H])c([H])c(F)c([H])c5F)c([H])c4[H])c(C(=O)N([H])[H])c3N([H])[H])C2([H])[H])c1C([H])([H])[H])C([H])([H])[H]

>  <smiles>  (84) 
[H]C(=C1C([H])([H])C([H])(Oc2c([H])c([H])c3c(c2[H])C([H])([H])N(C(=O)C([H])(N([H])C(=O)C([H])(N([H])C([H])([H])[H])C([H])([H])[H])C(C([H])([H])[H])(C([H])([H])[H])C([H])([H])[H])C([H])(C(=O)N([H])C2([H])c4c([H])c([H])c([H])c([H])c4C([H])([H])C([H])([H])C2([H])[H])C3([H])[H])C([H])([H])C([H])([H])[N+]1([H])C([H])([H])c1c(C([H])([H])[H])c([H])c([H])c(N([H])C(=O)N2C([H])([H])C([H])([H])C([H])([H])C([H])(n3nc(-c4c([H])c([H])c(Oc5c([H])c([H])c(F)c([H])c5F)c([H])c4[H])c(C(=O)N([H])[H])c3N([H])[H])C2([H])[H])c1C([H])([H])[H])C([H])([H])[H]

$$$$
84:0:0
     RDKit          3D

101110  0  0  1  0  0  0  0  0999 V2000
  -29.4520  -23.9250   19.6140 C   0  0  0  0  0  3  0  0  0  0  0  0
  -30.6950  -23.8250   19.0830 C   0  0  0  0  0  2  0  0  0  0  0  0
  -26.6720  -23.3870   18.8780 C   0  0  0  0  0  2  0  0  0  0  0  0
  -27.4270  -24.5700   18.2580 C   0  0  0  0  0  2  0  0  0  0  0  0
  -27.6300  -22.2000   19.0750 C   0  0  0  0  0  2  0  0  0  0  0  0
  -28.5330  -25.2010   19.1640 C   0  0  2  0  0  0  0  0  0  0  0  0
  -29.2700  -26.1320   18.1570 C   0  0  0  0  0  1  0  0  0  0  0  0
  -28.6760  -22.5940   20.0380 N   0  0  1  0  0  4  0  0  0  0  0  0
  -28.0540  -22.9920   20.7260 H   0  0  0  0  0  0  0  0  0  0  0  0
  -31.3870  -22.6140   18.6900 C   0  0  0  0  0  3  0  0  0  0  0  0
  -32.6210  -22.6520   18.1650 C   0  0  0  0  0  3  0  0  0  0  0  0
  -34.5900  -21.5360   17.2590 C   0  0  0  0  0  2  0  0  0  0  0  0
  -33.3320  -21.4740   17.7200 C   0  0  0  0  0  3  0  0  0  0  0  0
  -28.2410  -26.3250   20.1530 O   0  0  0  0  0  0  0  0  0  0  0  0
  -24.5980  -31.8820   23.2010 C   0  0  0  0  0  0  0  0  0  0  0  0
  -27.1640  -27.2610   20.0880 C   0  0  0  0  0  0  0  0  0  0  0  0
  -23.3870  -30.4980   21.5670 C   0  0  0  0  0  3  0  0  0  0  0  0
  -24.8210  -28.9610   20.1180 C   0  0  0  0  0  0  0  0  0  0  0  0
  -25.9370  -30.7910   21.3740 C   0  0  0  0  0  2  0  0  0  0  0  0
  -26.0090  -29.4130   20.7080 C   0  0  0  0  0  0  0  0  0  0  0  0
  -27.1810  -28.5800   20.6770 C   0  0  0  0  0  3  0  0  0  0  0  0
  -25.9130  -26.8670   19.5660 C   0  0  0  0  0  3  0  0  0  0  0  0
  -24.7810  -27.6930   19.5370 C   0  0  0  0  0  3  0  0  0  0  0  0
  -23.5910  -29.8440   20.1800 C   0  0  0  0  0  2  0  0  0  0  0  0
  -24.6620  -31.0740   22.1030 N   0  0  0  0  0  0  0  0  0  0  0  0
  -23.5150  -32.1570   23.7410 O   0  0  0  0  0  0  0  0  0  0  0  0
  -22.7260  -29.4710   22.5210 C   0  0  0  0  0  0  0  0  0  0  0  0
  -21.4010  -29.2800   22.3860 N   0  0  0  0  0  0  0  0  0  0  0  0
  -23.4040  -28.8530   23.3450 O   0  0  0  0  0  0  0  0  0  0  0  0
  -20.9110  -29.8320   21.6950 H   0  0  0  0  0  0  0  0  0  0  0  0
  -18.0370  -28.0310   22.8550 C   0  0  0  0  0  0  0  0  0  0  0  0
  -20.5870  -28.3370   23.1560 C   0  0  0  0  0  3  0  0  0  0  0  0
  -20.7190  -26.9010   22.5980 C   0  0  0  0  0  2  0  0  0  0  0  0
  -19.6370  -26.5480   21.5720 C   0  0  0  0  0  2  0  0  0  0  0  0
  -18.2440  -26.6770   22.1950 C   0  0  0  0  0  2  0  0  0  0  0  0
  -19.1360  -28.8160   23.2910 C   0  0  0  0  0  0  0  0  0  0  0  0
  -18.8880  -30.0810   23.8670 C   0  0  0  0  0  3  0  0  0  0  0  0
  -17.5730  -30.5610   24.0110 C   0  0  0  0  0  3  0  0  0  0  0  0
  -16.4880  -29.7750   23.5880 C   0  0  0  0  0  3  0  0  0  0  0  0
  -16.7200  -28.5120   23.0160 C   0  0  0  0  0  3  0  0  0  0  0  0
  -25.8770  -32.5140   23.8200 C   0  0  0  0  0  3  0  0  0  0  0  0
  -26.3960  -31.7400   25.0950 C   0  0  1  0  0  0  0  0  0  0  0  0
  -25.3050  -31.4960   26.1630 C   0  0  0  0  0  1  0  0  0  0  0  0
  -26.9810  -30.3640   24.6990 C   0  0  0  0  0  1  0  0  0  0  0  0
  -27.5440  -32.5370   25.7570 C   0  0  0  0  0  1  0  0  0  0  0  0
  -25.5650  -33.9110   24.1570 N   0  0  0  0  0  0  0  0  0  0  0  0
  -25.9010  -34.9700   23.4090 C   0  0  0  0  0  0  0  0  0  0  0  0
  -26.5760  -34.8740   22.3800 O   0  0  0  0  0  0  0  0  0  0  0  0
  -24.9600  -34.0590   24.9510 H   0  0  0  0  0  0  0  0  0  0  0  0
  -24.1870  -36.7760   23.0500 C   0  0  0  0  0  1  0  0  0  0  0  0
  -25.4140  -36.3570   23.8740 C   0  0  0  0  0  3  0  0  0  0  0  0
  -27.5390  -37.2240   24.7490 C   0  0  0  0  0  1  0  0  0  0  0  0
  -26.4550  -37.4070   23.7880 N   0  0  0  0  0  0  0  0  0  0  0  0
  -26.0500  -38.3280   23.9370 H   0  0  0  0  0  0  0  0  0  0  0  0
  -29.1170  -21.4420   21.0120 C   0  0  0  0  0  2  0  0  0  0  0  0
  -32.2320  -19.0500   21.1040 C   0  0  0  0  0  3  0  0  0  0  0  0
  -31.7420  -17.7640   20.8480 C   0  0  0  0  0  3  0  0  0  0  0  0
  -31.3980  -20.1820   21.1500 C   0  0  0  0  0  0  0  0  0  0  0  0
  -30.0210  -20.1030   20.7820 C   0  0  0  0  0  0  0  0  0  0  0  0
  -29.5330  -18.7250   20.5320 C   0  0  0  0  0  0  0  0  0  0  0  0
  -30.3750  -17.5140   20.6070 C   0  0  0  0  0  0  0  0  0  0  0  0
  -32.0630  -21.4270   21.7260 C   0  0  0  0  0  1  0  0  0  0  0  0
  -28.0580  -18.5180   20.2320 C   0  0  0  0  0  1  0  0  0  0  0  0
  -30.6130  -14.8760   20.2780 C   0  0  0  0  0  0  0  0  0  0  0  0
  -30.3330  -12.6320   19.1950 C   0  0  0  0  0  2  0  0  0  0  0  0
  -29.3670  -12.7460   17.9950 C   0  0  0  0  0  2  0  0  0  0  0  0
  -27.9140  -12.5530   18.4590 C   0  0  0  0  0  2  0  0  0  0  0  0
  -27.5710  -13.3980   19.7140 C   0  0  0  0  0  3  0  0  0  0  0  0
  -28.6630  -13.2910   20.8040 C   0  0  0  0  0  2  0  0  0  0  0  0
  -29.9360  -13.6720   20.1780 N   0  0  0  0  0  0  0  0  0  0  0  0
  -31.8000  -14.8870   19.9420 O   0  0  0  0  0  0  0  0  0  0  0  0
  -29.9170  -16.0740   20.5160 N   0  0  0  0  0  0  0  0  0  0  0  0
  -28.9300  -15.9390   20.6630 H   0  0  0  0  0  0  0  0  0  0  0  0
  -25.1880  -13.9400   20.4790 C   0  0  0  0  0  0  0  0  0  0  0  0
  -24.1400  -13.1470   20.8570 C   0  0  0  0  0  0  0  0  0  0  0  0
  -24.6230  -11.8040   20.8120 C   0  0  0  0  0  0  0  0  0  0  0  0
  -26.2420  -13.0800   20.2260 N   0  0  0  0  0  0  0  0  0  0  0  0
  -25.9120  -11.7890   20.4940 N   0  0  0  0  0  0  0  0  0  0  0  0
  -23.9170  -10.5290   21.0050 C   0  0  0  0  0  0  0  0  0  0  0  0
  -24.3530   -9.5750   21.9480 C   0  0  0  0  0  3  0  0  0  0  0  0
  -23.6460   -8.3660   22.1280 C   0  0  0  0  0  3  0  0  0  0  0  0
  -22.4860   -8.1040   21.3590 C   0  0  0  0  0  0  0  0  0  0  0  0
  -22.0690   -9.0470   20.4030 C   0  0  0  0  0  3  0  0  0  0  0  0
  -22.7780  -10.2460   20.2230 C   0  0  0  0  0  3  0  0  0  0  0  0
  -21.7490   -6.9480   21.4460 O   0  0  0  0  0  0  0  0  0  0  0  0
  -21.6800   -6.2250   22.6100 C   0  0  0  0  0  0  0  0  0  0  0  0
  -21.1860   -6.7860   23.8080 C   0  0  0  0  0  3  0  0  0  0  0  0
  -21.0680   -5.9870   24.9630 C   0  0  0  0  0  3  0  0  0  0  0  0
  -21.4330   -4.6280   24.9210 C   0  0  0  0  0  0  0  0  0  0  0  0
  -21.9200   -4.0650   23.7270 C   0  0  0  0  0  3  0  0  0  0  0  0
  -22.0390   -4.8620   22.5750 C   0  0  0  0  0  0  0  0  0  0  0  0
  -22.4880   -4.3110   21.4210 F   0  0  0  0  0  0  0  0  0  0  0  0
  -21.3130   -3.8570   26.0260 F   0  0  0  0  0  0  0  0  0  0  0  0
  -22.7380  -13.6010   21.1470 C   0  0  0  0  0  0  0  0  0  0  0  0
  -22.0310  -12.8810   22.0120 N   0  0  0  0  0  0  0  0  0  0  0  0
  -22.2820  -14.6270   20.6440 O   0  0  0  0  0  0  0  0  0  0  0  0
  -22.4190  -12.0510   22.4350 H   0  0  0  0  0  0  0  0  0  0  0  0
  -21.0930  -13.1620   22.2540 H   0  0  0  0  0  0  0  0  0  0  0  0
  -25.3290  -15.3120   20.3020 N   0  0  0  0  0  0  0  0  0  0  0  0
  -24.5470  -15.9510   20.3980 H   0  0  0  0  0  0  0  0  0  0  0  0
  -26.1560  -15.7560   19.9270 H   0  0  0  0  0  0  0  0  0  0  0  0
  1  2  1  0
  1  8  1  0
  3  5  1  0
  4  3  1  0
  4  6  1  0
  5  8  1  0
  6  7  1  6
  6  1  1  0
  6 14  1  0
  8  9  1  1
  8 55  1  0
 10  2  1  0
 11 10  2  0
 12 13  2  0
 13 11  1  0
 15 26  2  0
 16 14  1  0
 16 21  1  0
 17 25  1  0
 17 27  1  0
 18 24  1  0
 18 20  1  0
 19 25  1  0
 20 19  1  0
 21 20  2  0
 22 16  2  0
 23 22  1  0
 23 18  2  0
 24 17  1  0
 25 15  1  0
 27 29  2  0
 28 27  1  0
 30 28  1  0
 31 40  2  0
 31 36  1  0
 32 28  1  0
 32 36  1  0
 33 32  1  0
 34 35  1  0
 34 33  1  0
 35 31  1  0
 36 37  2  0
 37 38  1  0
 39 38  2  0
 40 39  1  0
 41 15  1  0
 41 46  1  0
 41 42  1  0
 42 45  1  1
 42 43  1  0
 44 42  1  0
 46 49  1  0
 47 51  1  0
 47 46  1  0
 48 47  2  0
 51 50  1  0
 53 51  1  0
 53 54  1  0
 53 52  1  0
 56 58  1  0
 57 56  2  0
 58 62  1  0
 59 55  1  0
 59 58  2  0
 60 61  2  0
 60 59  1  0
 61 57  1  0
 63 60  1  0
 64 72  1  0
 65 70  1  0
 66 67  1  0
 66 65  1  0
 68 67  1  0
 68 77  1  0
 68 69  1  0
 70 64  1  0
 70 69  1  0
 71 64  2  0
 72 61  1  0
 72 73  1  0
 74 75  2  0
 75 94  1  0
 76 75  1  0
 76 79  1  0
 77 74  1  0
 77 78  1  0
 78 76  2  0
 79 80  1  0
 80 81  2  0
 82 85  1  0
 82 81  1  0
 83 82  2  0
 84 83  1  0
 84 79  2  0
 85 86  1  0
 86 87  1  0
 87 88  2  0
 89 88  1  0
 89 93  1  0
 90 89  2  0
 91 86  2  0
 91 90  1  0
 92 91  1  0
 94 95  1  0
 95 98  1  0
 95 97  1  0
 96 94  2  0
 99100  1  0
 99 74  1  0
101 99  1  0
M  ISO  4   6 101  14 101  64 100  72 100
M  END
>  <TORSDO>  (85) 
F 20

>  <SCORE>  (85) 
-14.532

>  <name>  (85) 
84

>  <ligand_id>  (85) 
84

>  <original_smiles>  (85) 
[H]C([H])=C([H])C([H])=C([H])C([H])=C1C(Oc2c([H])c([H])c3c(c2[H])C([H])([H])N(C(=O)C([H])(N([H])C(=O)C([H])(N([H])C([H])([H])[H])C([H])([H])[H])C(C([H])([H])[H])(C([H])([H])[H])C([H])([H])[H])C([H])(C(=O)N([H])C2([H])c4c([H])c([H])c([H])c([H])c4C([H])([H])C([H])([H])C2([H])[H])C3([H])[H])(C([H])([H])[H])C([H])([H])C([H])([H])C([H])([H])[N+]1([H])C([H])([H])c1c(C([H])([H])[H])c([H])c([H])c(N([H])C(=O)N2C([H])([H])C([H])([H])C([H])([H])C([H])(n3nc(-c4c([H])c([H])c(Oc5c([H])c([H])c(F)c([H])c5F)c([H])c4[H])c(C(=O)N([H])[H])c3N([H])[H])C2([H])[H])c1C([H])([H])[H]

>  <smiles>  (85) 
[H]C([H])=C([H])C([H])=C([H])C([H])=C1C(Oc2c([H])c([H])c3c(c2[H])C([H])([H])N(C(=O)C([H])(N([H])C(=O)C([H])(N([H])C([H])([H])[H])C([H])([H])[H])C(C([H])([H])[H])(C([H])([H])[H])C([H])([H])[H])C([H])(C(=O)N([H])C2([H])c4c([H])c([H])c([H])c([H])c4C([H])([H])C([H])([H])C2([H])[H])C3([H])[H])(C([H])([H])[H])C([H])([H])C([H])([H])C([H])([H])[N+]1([H])C([H])([H])c1c(C([H])([H])[H])c([H])c([H])c(N([H])C(=O)N2C([H])([H])C([H])([H])C([H])([H])C([H])(n3nc(-c4c([H])c([H])c(Oc5c([H])c([H])c(F)c([H])c5F)c([H])c4[H])c(C(=O)N([H])[H])c3N([H])[H])C2([H])[H])c1C([H])([H])[H]

$$$$
85:0:0
     RDKit          3D

 94103  0  0  1  0  0  0  0  0999 V2000
  -29.9990  -22.7890   21.8870 C   0  0  0  0  0  0  0  0  0  0  0  0
  -31.1260  -22.2510   22.3910 C   0  0  0  0  0  2  0  0  0  0  0  0
  -29.4770  -24.0910   22.5100 C   0  0  0  0  0  2  0  0  0  0  0  0
  -28.1030  -24.5570   22.0070 C   0  0  0  0  0  2  0  0  0  0  0  0
  -28.8690  -23.4270   19.8450 C   0  0  0  0  0  2  0  0  0  0  0  0
  -28.1060  -24.7820   20.4920 C   0  0  0  0  0  3  0  0  0  0  0  0
  -29.3230  -22.2620   20.7700 N   0  0  0  0  0  0  0  0  0  0  0  0
  -29.7280  -19.8610   21.5610 C   0  0  0  0  0  3  0  0  0  0  0  0
  -29.2210  -20.0440   19.2810 C   0  0  0  0  0  3  0  0  0  0  0  0
  -29.9220  -18.4290   21.4360 C   0  0  0  0  0  0  0  0  0  0  0  0
  -29.3860  -20.7820   20.5080 C   0  0  0  0  0  0  0  0  0  0  0  0
  -29.7920  -17.7040   20.2060 C   0  0  0  0  0  0  0  0  0  0  0  0
  -29.4100  -18.5970   19.1330 C   0  0  0  0  0  0  0  0  0  0  0  0
  -30.2810  -17.6530   22.6930 C   0  0  0  0  0  1  0  0  0  0  0  0
  -29.1060  -17.9060   17.5790 Cl  0  0  0  0  0  0  0  0  0  0  0  0
  -30.6420  -15.0950   19.8390 C   0  0  0  0  0  0  0  0  0  0  0  0
  -30.5450  -12.7530   18.8690 C   0  0  0  0  0  2  0  0  0  0  0  0
  -29.4960  -12.7020   17.7320 C   0  0  0  0  0  2  0  0  0  0  0  0
  -28.0870  -12.4360   18.2950 C   0  0  0  0  0  2  0  0  0  0  0  0
  -27.7650  -13.3270   19.5230 C   0  0  0  0  0  3  0  0  0  0  0  0
  -28.9210  -13.3360   20.5460 C   0  0  0  0  0  2  0  0  0  0  0  0
  -30.1220  -13.8020   19.8370 N   0  0  0  0  0  0  0  0  0  0  0  0
  -31.7870  -15.2550   19.4010 O   0  0  0  0  0  0  0  0  0  0  0  0
  -29.7900  -16.1680   20.1930 N   0  0  0  0  0  0  0  0  0  0  0  0
  -28.9380  -15.7970   20.5830 H   0  0  0  0  0  0  0  0  0  0  0  0
  -25.4640  -13.8240   20.5340 C   0  0  0  0  0  0  0  0  0  0  0  0
  -24.4530  -13.0100   20.9650 C   0  0  0  0  0  0  0  0  0  0  0  0
  -24.9260  -11.6720   20.8040 C   0  0  0  0  0  0  0  0  0  0  0  0
  -26.4870  -12.9800   20.1340 N   0  0  0  0  0  0  0  0  0  0  0  0
  -26.1780  -11.6760   20.3600 N   0  0  0  0  0  0  0  0  0  0  0  0
  -24.2360  -10.3890   20.9900 C   0  0  0  0  0  0  0  0  0  0  0  0
  -24.6700   -9.4490   21.9520 C   0  0  0  0  0  3  0  0  0  0  0  0
  -23.9770   -8.2310   22.1270 C   0  0  0  0  0  3  0  0  0  0  0  0
  -22.8370   -7.9440   21.3390 C   0  0  0  0  0  0  0  0  0  0  0  0
  -22.4220   -8.8730   20.3690 C   0  0  0  0  0  3  0  0  0  0  0  0
  -23.1160  -10.0820   20.1920 C   0  0  0  0  0  3  0  0  0  0  0  0
  -22.1170   -6.7770   21.4220 O   0  0  0  0  0  0  0  0  0  0  0  0
  -21.8860   -6.1570   22.6240 C   0  0  0  0  0  0  0  0  0  0  0  0
  -21.2270   -6.8120   23.6860 C   0  0  0  0  0  3  0  0  0  0  0  0
  -20.9480   -6.1150   24.8780 C   0  0  0  0  0  3  0  0  0  0  0  0
  -21.3200   -4.7630   25.0080 C   0  0  0  0  0  0  0  0  0  0  0  0
  -21.9730   -4.1070   23.9500 C   0  0  0  0  0  3  0  0  0  0  0  0
  -22.2520   -4.8020   22.7600 C   0  0  0  0  0  0  0  0  0  0  0  0
  -22.8620   -4.1600   21.7350 F   0  0  0  0  0  0  0  0  0  0  0  0
  -21.0460   -4.0910   26.1500 F   0  0  0  0  0  0  0  0  0  0  0  0
  -23.0860  -13.4470   21.4060 C   0  0  0  0  0  0  0  0  0  0  0  0
  -22.4740  -12.7090   22.3250 N   0  0  0  0  0  0  0  0  0  0  0  0
  -22.5730  -14.4790   20.9730 O   0  0  0  0  0  0  0  0  0  0  0  0
  -22.9030  -11.8740   22.6950 H   0  0  0  0  0  0  0  0  0  0  0  0
  -21.5630  -12.9830   22.6640 H   0  0  0  0  0  0  0  0  0  0  0  0
  -25.5920  -15.2060   20.4240 N   0  0  0  0  0  0  0  0  0  0  0  0
  -24.8240  -15.8310   20.6420 H   0  0  0  0  0  0  0  0  0  0  0  0
  -26.3780  -15.6810   19.9990 H   0  0  0  0  0  0  0  0  0  0  0  0
  -28.3700  -26.3010   20.2310 O   0  0  0  0  0  0  0  0  0  0  0  0
  -24.7680  -31.9700   23.3110 C   0  0  0  0  0  0  0  0  0  0  0  0
  -27.3070  -27.2790   20.2180 C   0  0  0  0  0  0  0  0  0  0  0  0
  -23.5500  -30.5930   21.6700 C   0  0  0  0  0  3  0  0  0  0  0  0
  -24.9810  -29.0270   20.2200 C   0  0  0  0  0  0  0  0  0  0  0  0
  -26.1030  -30.8530   21.4850 C   0  0  0  0  0  2  0  0  0  0  0  0
  -26.1670  -29.4660   20.8230 C   0  0  0  0  0  0  0  0  0  0  0  0
  -27.3320  -28.6090   20.8040 C   0  0  0  0  0  3  0  0  0  0  0  0
  -26.0970  -26.9480   19.5690 C   0  0  0  0  0  3  0  0  0  0  0  0
  -24.9590  -27.7810   19.5770 C   0  0  0  0  0  3  0  0  0  0  0  0
  -23.7580  -29.9280   20.2840 C   0  0  0  0  0  2  0  0  0  0  0  0
  -24.8280  -31.1600   22.2100 N   0  0  0  0  0  0  0  0  0  0  0  0
  -23.6880  -32.2520   23.8510 O   0  0  0  0  0  0  0  0  0  0  0  0
  -22.8770  -29.5790   22.6290 C   0  0  0  0  0  0  0  0  0  0  0  0
  -21.5520  -29.3960   22.4960 N   0  0  0  0  0  0  0  0  0  0  0  0
  -23.5520  -28.9590   23.4560 O   0  0  0  0  0  0  0  0  0  0  0  0
  -21.0640  -29.9480   21.8040 H   0  0  0  0  0  0  0  0  0  0  0  0
  -18.1770  -28.1780   22.9990 C   0  0  0  0  0  0  0  0  0  0  0  0
  -20.7350  -28.4520   23.2640 C   0  0  0  0  0  3  0  0  0  0  0  0
  -20.8430  -27.0230   22.6840 C   0  0  0  0  0  2  0  0  0  0  0  0
  -19.7420  -26.6970   21.6700 C   0  0  0  0  0  2  0  0  0  0  0  0
  -18.3590  -26.8340   22.3150 C   0  0  0  0  0  2  0  0  0  0  0  0
  -19.2920  -28.9450   23.4300 C   0  0  0  0  0  0  0  0  0  0  0  0
  -19.0650  -30.2030   24.0300 C   0  0  0  0  0  3  0  0  0  0  0  0
  -17.7580  -30.6950   24.2010 C   0  0  0  0  0  3  0  0  0  0  0  0
  -16.6570  -29.9250   23.7840 C   0  0  0  0  0  3  0  0  0  0  0  0
  -16.8670  -28.6680   23.1890 C   0  0  0  0  0  3  0  0  0  0  0  0
  -26.0540  -32.5970   23.9330 C   0  0  0  0  0  3  0  0  0  0  0  0
  -25.7550  -34.0000   24.2610 N   0  0  0  0  0  0  0  0  0  0  0  0
  -26.0620  -35.0480   23.4850 C   0  0  0  0  0  0  0  0  0  0  0  0
  -26.6930  -34.9360   22.4310 O   0  0  0  0  0  0  0  0  0  0  0  0
  -25.1900  -34.1600   25.0810 H   0  0  0  0  0  0  0  0  0  0  0  0
  -24.3090  -36.8320   23.2080 C   0  0  0  0  0  1  0  0  0  0  0  0
  -25.5960  -36.4420   23.9530 C   0  0  0  0  0  3  0  0  0  0  0  0
  -27.7680  -37.3510   24.6550 C   0  0  0  0  0  1  0  0  0  0  0  0
  -26.6180  -37.4960   23.7660 N   0  0  0  0  0  0  0  0  0  0  0  0
  -26.2160  -38.4180   23.9170 H   0  0  0  0  0  0  0  0  0  0  0  0
  -26.5590  -31.8290   25.2160 C   0  0  1  0  0  0  0  0  0  0  0  0
  -25.4570  -31.5980   26.2770 C   0  0  0  0  0  1  0  0  0  0  0  0
  -27.1420  -30.4490   24.8360 C   0  0  0  0  0  1  0  0  0  0  0  0
  -27.7080  -32.6220   25.8820 C   0  0  0  0  0  1  0  0  0  0  0  0
  1  2  2  0
  1  3  1  0
  4  3  1  0
  5  6  1  0
  5  7  1  0
  6 54  1  0
  6  4  1  0
  7  1  1  0
  9 11  1  0
 10  8  1  0
 10 14  1  0
 11  7  1  0
 11  8  2  0
 12 10  2  0
 13  9  2  0
 13 12  1  0
 15 13  1  0
 16 24  1  0
 17 22  1  0
 18 19  1  0
 18 17  1  0
 20 19  1  0
 20 29  1  0
 20 21  1  0
 22 16  1  0
 22 21  1  0
 23 16  2  0
 24 12  1  0
 24 25  1  0
 26 27  2  0
 27 46  1  0
 28 27  1  0
 28 31  1  0
 29 30  1  0
 29 26  1  0
 30 28  2  0
 31 32  1  0
 32 33  2  0
 34 37  1  0
 34 33  1  0
 35 34  2  0
 36 35  1  0
 36 31  2  0
 37 38  1  0
 38 43  2  0
 38 39  1  0
 39 40  2  0
 40 41  1  0
 41 45  1  0
 42 41  2  0
 43 42  1  0
 44 43  1  0
 46 47  1  0
 47 50  1  0
 47 49  1  0
 48 46  2  0
 51 26  1  0
 51 52  1  0
 53 51  1  0
 55 66  2  0
 56 54  1  0
 56 61  1  0
 57 65  1  0
 57 67  1  0
 58 64  1  0
 58 60  1  0
 59 65  1  0
 60 59  1  0
 61 60  2  0
 62 63  1  0
 62 56  2  0
 63 58  2  0
 64 57  1  0
 65 55  1  0
 67 69  2  0
 68 67  1  0
 70 68  1  0
 71 80  2  0
 71 76  1  0
 72 68  1  0
 72 76  1  0
 73 72  1  0
 74 75  1  0
 74 73  1  0
 75 71  1  0
 76 77  2  0
 77 78  1  0
 79 78  2  0
 80 79  1  0
 81 55  1  0
 81 82  1  0
 81 91  1  0
 82 85  1  0
 83 87  1  0
 83 82  1  0
 84 83  2  0
 87 86  1  0
 89 90  1  0
 89 87  1  0
 89 88  1  0
 91 94  1  1
 91 92  1  0
 93 91  1  0
M  ISO  4   6 101  16 100  24 100  54 101
M  END
>  <TORSDO>  (86) 
F 17

>  <SCORE>  (86) 
-13.626

>  <name>  (86) 
85

>  <ligand_id>  (86) 
85

>  <original_smiles>  (86) 
[H]C([H])=C1N(c2c([H])c(Cl)c(N([H])C(=O)N3C([H])([H])C([H])([H])C([H])([H])C([H])(n4nc(-c5c([H])c([H])c(Oc6c([H])c([H])c(F)c([H])c6F)c([H])c5[H])c(C(=O)N([H])[H])c4N([H])[H])C3([H])[H])c(C([H])([H])[H])c2[H])C([H])([H])C([H])(Oc2c([H])c([H])c3c(c2[H])C([H])([H])N(C(=O)C([H])(N([H])C(=O)C([H])(N([H])C([H])([H])[H])C([H])([H])[H])C(C([H])([H])[H])(C([H])([H])[H])C([H])([H])[H])C([H])(C(=O)N([H])C2([H])c4c([H])c([H])c([H])c([H])c4C([H])([H])C([H])([H])C2([H])[H])C3([H])[H])C([H])([H])C1([H])[H]

>  <smiles>  (86) 
[H]C([H])=C1N(c2c([H])c(Cl)c(N([H])C(=O)N3C([H])([H])C([H])([H])C([H])([H])C([H])(n4nc(-c5c([H])c([H])c(Oc6c([H])c([H])c(F)c([H])c6F)c([H])c5[H])c(C(=O)N([H])[H])c4N([H])[H])C3([H])[H])c(C([H])([H])[H])c2[H])C([H])([H])C([H])(Oc2c([H])c([H])c3c(c2[H])C([H])([H])N(C(=O)C([H])(N([H])C(=O)C([H])(N([H])C([H])([H])[H])C([H])([H])[H])C(C([H])([H])[H])(C([H])([H])[H])C([H])([H])[H])C([H])(C(=O)N([H])C2([H])c4c([H])c([H])c([H])c([H])c4C([H])([H])C([H])([H])C2([H])[H])C3([H])[H])C([H])([H])C1([H])[H]

$$$$
86:0:0
     RDKit          3D

 95104  0  0  1  0  0  0  0  0999 V2000
  -28.0690  -24.1190   19.9160 C   0  0  0  0  0  2  0  0  0  0  0  0
  -30.3700  -24.9100   19.3890 C   0  0  0  0  0  2  0  0  0  0  0  0
  -28.8500  -22.7760   20.2610 C   0  0  0  0  0  2  0  0  0  0  0  0
  -28.9880  -25.3850   19.9440 C   0  0  0  0  0  3  0  0  0  0  0  0
  -30.3600  -23.6070   18.4990 C   0  0  0  0  0  3  0  0  0  0  0  0
  -31.7160  -23.4320   17.7780 C   0  0  0  0  0  1  0  0  0  0  0  0
  -29.8320  -22.3620   19.2010 N   0  0  1  0  0  4  0  0  0  0  0  0
  -29.2580  -21.9140   18.5000 H   0  0  0  0  0  0  0  0  0  0  0  0
  -28.6010  -26.6800   19.3280 O   0  0  0  0  0  0  0  0  0  0  0  0
  -24.6450  -31.4260   23.1290 C   0  0  0  0  0  0  0  0  0  0  0  0
  -27.3860  -27.3320   19.5770 C   0  0  0  0  0  0  0  0  0  0  0  0
  -23.4330  -30.0380   21.4850 C   0  0  0  0  0  3  0  0  0  0  0  0
  -24.8910  -28.7050   19.8590 C   0  0  0  0  0  0  0  0  0  0  0  0
  -25.9110  -30.5940   21.1320 C   0  0  0  0  0  2  0  0  0  0  0  0
  -26.0560  -29.2670   20.3970 C   0  0  0  0  0  0  0  0  0  0  0  0
  -27.3050  -28.5960   20.2410 C   0  0  0  0  0  3  0  0  0  0  0  0
  -26.1940  -26.8100   19.0340 C   0  0  0  0  0  3  0  0  0  0  0  0
  -24.9590  -27.4800   19.1710 C   0  0  0  0  0  3  0  0  0  0  0  0
  -23.5930  -29.4650   20.0500 C   0  0  0  0  0  2  0  0  0  0  0  0
  -24.6860  -30.7020   21.9720 N   0  0  0  0  0  0  0  0  0  0  0  0
  -23.5910  -31.5680   23.7650 O   0  0  0  0  0  0  0  0  0  0  0  0
  -22.9360  -28.9080   22.4190 C   0  0  0  0  0  0  0  0  0  0  0  0
  -21.6690  -28.4970   22.2480 N   0  0  0  0  0  0  0  0  0  0  0  0
  -23.6920  -28.4050   23.2530 O   0  0  0  0  0  0  0  0  0  0  0  0
  -21.1080  -28.9650   21.5500 H   0  0  0  0  0  0  0  0  0  0  0  0
  -18.6530  -26.5120   22.4370 C   0  0  0  0  0  0  0  0  0  0  0  0
  -21.0110  -27.4170   22.9850 C   0  0  0  0  0  3  0  0  0  0  0  0
  -21.5340  -26.0350   22.5310 C   0  0  0  0  0  2  0  0  0  0  0  0
  -20.6880  -25.4040   21.4220 C   0  0  0  0  0  2  0  0  0  0  0  0
  -19.2400  -25.2250   21.8860 C   0  0  0  0  0  2  0  0  0  0  0  0
  -19.4850  -27.5480   22.9380 C   0  0  0  0  0  0  0  0  0  0  0  0
  -18.8880  -28.7390   23.4060 C   0  0  0  0  0  3  0  0  0  0  0  0
  -17.4910  -28.9040   23.3820 C   0  0  0  0  0  3  0  0  0  0  0  0
  -16.6710  -27.8700   22.8970 C   0  0  0  0  0  3  0  0  0  0  0  0
  -17.2500  -26.6770   22.4310 C   0  0  0  0  0  3  0  0  0  0  0  0
  -25.9170  -32.1270   23.7000 C   0  0  0  0  0  3  0  0  0  0  0  0
  -25.5410  -33.4960   24.0770 N   0  0  0  0  0  0  0  0  0  0  0  0
  -25.8770  -34.5970   23.3910 C   0  0  0  0  0  0  0  0  0  0  0  0
  -26.6050  -34.5660   22.3960 O   0  0  0  0  0  0  0  0  0  0  0  0
  -24.8990  -33.5920   24.8510 H   0  0  0  0  0  0  0  0  0  0  0  0
  -24.1200  -36.3550   23.0120 C   0  0  0  0  0  1  0  0  0  0  0  0
  -25.3160  -35.9440   23.8850 C   0  0  0  0  0  3  0  0  0  0  0  0
  -27.3670  -36.8370   24.8980 C   0  0  0  0  0  1  0  0  0  0  0  0
  -26.3190  -37.0300   23.8990 N   0  0  0  0  0  0  0  0  0  0  0  0
  -25.8760  -37.9290   24.0740 H   0  0  0  0  0  0  0  0  0  0  0  0
  -26.5450  -31.3660   24.9330 C   0  0  1  0  0  0  0  0  0  0  0  0
  -25.5270  -31.0480   26.0510 C   0  0  0  0  0  1  0  0  0  0  0  0
  -27.1840  -30.0330   24.4810 C   0  0  0  0  0  1  0  0  0  0  0  0
  -27.6800  -32.2160   25.5510 C   0  0  0  0  0  1  0  0  0  0  0  0
  -30.8760  -21.2730   19.5050 C   0  0  0  0  0  2  0  0  0  0  0  0
  -30.4990  -19.9790   21.6660 C   0  0  0  0  0  3  0  0  0  0  0  0
  -30.5130  -18.8100   22.4490 C   0  0  0  0  0  3  0  0  0  0  0  0
  -30.7230  -18.5940   19.6700 C   0  0  0  0  0  3  0  0  0  0  0  0
  -30.6120  -19.9160   20.2630 C   0  0  0  0  0  0  0  0  0  0  0  0
  -30.7520  -17.3810   20.4620 C   0  0  0  0  0  0  0  0  0  0  0  0
  -30.6430  -17.5350   21.8670 C   0  0  0  0  0  0  0  0  0  0  0  0
  -30.6340  -16.1690   22.9240 Cl  0  0  0  0  0  0  0  0  0  0  0  0
  -31.4850  -14.9330   19.9080 C   0  0  0  0  0  0  0  0  0  0  0  0
  -31.1990  -12.6420   18.9570 C   0  0  0  0  0  2  0  0  0  0  0  0
  -30.2150  -12.7220   17.7670 C   0  0  0  0  0  2  0  0  0  0  0  0
  -28.7480  -12.6490   18.2440 C   0  0  0  0  0  2  0  0  0  0  0  0
  -28.4590  -13.5920   19.4400 C   0  0  0  0  0  3  0  0  0  0  0  0
  -29.5440  -13.4420   20.5270 C   0  0  0  0  0  2  0  0  0  0  0  0
  -30.8410  -13.7230   19.8930 N   0  0  0  0  0  0  0  0  0  0  0  0
  -32.6730  -15.0370   19.5850 O   0  0  0  0  0  0  0  0  0  0  0  0
  -30.6400  -16.0150   19.9390 N   0  0  0  0  0  0  0  0  0  0  0  0
  -29.6940  -15.6750   20.0030 H   0  0  0  0  0  0  0  0  0  0  0  0
  -26.1610  -14.3600   20.2920 C   0  0  0  0  0  0  0  0  0  0  0  0
  -25.0510  -13.6640   20.6830 C   0  0  0  0  0  0  0  0  0  0  0  0
  -25.3980  -12.2820   20.5860 C   0  0  0  0  0  0  0  0  0  0  0  0
  -27.1160  -13.4060   19.9790 N   0  0  0  0  0  0  0  0  0  0  0  0
  -26.6660  -12.1480   20.2160 N   0  0  0  0  0  0  0  0  0  0  0  0
  -24.5790  -11.0760   20.7630 C   0  0  0  0  0  0  0  0  0  0  0  0
  -24.9370  -10.0700   21.6890 C   0  0  0  0  0  3  0  0  0  0  0  0
  -24.1240   -8.9290   21.8540 C   0  0  0  0  0  3  0  0  0  0  0  0
  -22.9390   -8.7860   21.0940 C   0  0  0  0  0  0  0  0  0  0  0  0
  -22.6000   -9.7780   20.1580 C   0  0  0  0  0  3  0  0  0  0  0  0
  -23.4130  -10.9110   19.9900 C   0  0  0  0  0  3  0  0  0  0  0  0
  -22.1000   -7.7000   21.1700 O   0  0  0  0  0  0  0  0  0  0  0  0
  -21.9370   -6.9980   22.3380 C   0  0  0  0  0  0  0  0  0  0  0  0
  -21.4980   -7.6200   23.5270 C   0  0  0  0  0  3  0  0  0  0  0  0
  -21.2760   -6.8480   24.6850 C   0  0  0  0  0  3  0  0  0  0  0  0
  -21.4840   -5.4560   24.6550 C   0  0  0  0  0  0  0  0  0  0  0  0
  -21.9170   -4.8340   23.4700 C   0  0  0  0  0  3  0  0  0  0  0  0
  -22.1410   -5.6030   22.3140 C   0  0  0  0  0  0  0  0  0  0  0  0
  -22.5370   -4.9950   21.1700 F   0  0  0  0  0  0  0  0  0  0  0  0
  -21.2630   -4.7130   25.7650 F   0  0  0  0  0  0  0  0  0  0  0  0
  -23.7090  -14.2420   21.0320 C   0  0  0  0  0  0  0  0  0  0  0  0
  -22.9830  -13.6020   21.9420 N   0  0  0  0  0  0  0  0  0  0  0  0
  -23.3180  -15.2950   20.5320 O   0  0  0  0  0  0  0  0  0  0  0  0
  -23.3110  -12.7470   22.3660 H   0  0  0  0  0  0  0  0  0  0  0  0
  -22.0860  -13.9730   22.2200 H   0  0  0  0  0  0  0  0  0  0  0  0
  -26.4280  -15.7200   20.1520 N   0  0  0  0  0  0  0  0  0  0  0  0
  -25.7170  -16.4220   20.3240 H   0  0  0  0  0  0  0  0  0  0  0  0
  -27.2730  -16.1090   19.7570 H   0  0  0  0  0  0  0  0  0  0  0  0
  1  4  1  0
  1  3  1  0
  2  4  1  0
  4  9  1  0
  5  6  1  0
  5  7  1  0
  5  2  1  0
  7 50  1  0
  7  3  1  0
  7  8  1  6
  9 11  1  0
 10 21  2  0
 11 16  1  0
 12 20  1  0
 12 22  1  0
 13 19  1  0
 13 15  1  0
 14 20  1  0
 15 14  1  0
 16 15  2  0
 17 18  1  0
 17 11  2  0
 18 13  2  0
 19 12  1  0
 20 10  1  0
 22 24  2  0
 23 22  1  0
 25 23  1  0
 26 31  1  0
 27 23  1  0
 28 27  1  0
 29 30  1  0
 29 28  1  0
 30 26  1  0
 31 27  1  0
 31 32  2  0
 33 32  1  0
 34 33  2  0
 35 26  2  0
 35 34  1  0
 36 10  1  0
 36 37  1  0
 36 46  1  0
 37 40  1  0
 38 42  1  0
 38 37  1  0
 39 38  2  0
 42 41  1  0
 42 44  1  0
 44 45  1  0
 44 43  1  0
 46 49  1  1
 46 47  1  0
 48 46  1  0
 50 54  1  0
 51 52  1  0
 53 54  1  0
 53 55  2  0
 54 51  2  0
 55 56  1  0
 56 52  2  0
 56 57  1  0
 58 66  1  0
 59 64  1  0
 60 61  1  0
 60 59  1  0
 62 61  1  0
 62 71  1  0
 62 63  1  0
 64 58  1  0
 64 63  1  0
 65 58  2  0
 66 67  1  0
 66 55  1  0
 68 69  2  0
 69 88  1  0
 70 69  1  0
 70 73  1  0
 71 72  1  0
 71 68  1  0
 72 70  2  0
 73 74  1  0
 74 75  2  0
 76 79  1  0
 76 75  1  0
 77 76  2  0
 78 77  1  0
 78 73  2  0
 79 80  1  0
 80 81  1  0
 81 82  2  0
 83 82  1  0
 83 87  1  0
 84 83  2  0
 85 80  2  0
 85 84  1  0
 86 85  1  0
 88 89  1  0
 89 92  1  0
 89 91  1  0
 90 88  2  0
 93 68  1  0
 93 94  1  0
 95 93  1  0
M  ISO  4   4 101   9 101  58 100  66 100
M  END
>  <TORSDO>  (87) 
F 18

>  <SCORE>  (87) 
-11.399

>  <name>  (87) 
86

>  <ligand_id>  (87) 
86

>  <original_smiles>  (87) 
[H]c1c([H])c([H])c2c(c1[H])C([H])([H])C([H])([H])C([H])([H])C2([H])N([H])C(=O)C1([H])N(C(=O)C([H])(N([H])C(=O)C([H])(N([H])C([H])([H])[H])C([H])([H])[H])C(C([H])([H])[H])(C([H])([H])[H])C([H])([H])[H])C([H])([H])c2c([H])c(OC3([H])C([H])([H])C([H])([H])[N+]([H])(C([H])([H])c4c([H])c([H])c(Cl)c(N([H])C(=O)N5C([H])([H])C([H])([H])C([H])([H])C([H])(n6nc(-c7c([H])c([H])c(Oc8c([H])c([H])c(F)c([H])c8F)c([H])c7[H])c(C(=O)N([H])[H])c6N([H])[H])C5([H])[H])c4[H])C([H])(C([H])([H])[H])C3([H])[H])c([H])c([H])c2C1([H])[H]

>  <smiles>  (87) 
[H]c1c([H])c([H])c2c(c1[H])C([H])([H])C([H])([H])C([H])([H])C2([H])N([H])C(=O)C1([H])N(C(=O)C([H])(N([H])C(=O)C([H])(N([H])C([H])([H])[H])C([H])([H])[H])C(C([H])([H])[H])(C([H])([H])[H])C([H])([H])[H])C([H])([H])c2c([H])c(OC3([H])C([H])([H])C([H])([H])[N+]([H])(C([H])([H])c4c([H])c([H])c(Cl)c(N([H])C(=O)N5C([H])([H])C([H])([H])C([H])([H])C([H])(n6nc(-c7c([H])c([H])c(Oc8c([H])c([H])c(F)c([H])c8F)c([H])c7[H])c(C(=O)N([H])[H])c6N([H])[H])C5([H])[H])c4[H])C([H])(C([H])([H])[H])C3([H])[H])c([H])c([H])c2C1([H])[H]

$$$$
87:0:0
     RDKit          3D

 94103  0  0  1  0  0  0  0  0999 V2000
  -28.7040  -23.7280   19.8990 C   0  0  0  0  0  0  0  0  0  0  0  0
  -28.2760  -23.5630   22.7660 C   0  0  0  0  0  2  0  0  0  0  0  0
  -28.4910  -24.9610   22.1650 C   0  0  0  0  0  2  0  0  0  0  0  0
  -29.0950  -22.4940   22.0150 C   0  0  0  0  0  2  0  0  0  0  0  0
  -28.1030  -25.0000   20.6790 C   0  0  0  0  0  3  0  0  0  0  0  0
  -28.9060  -22.5070   20.5530 N   0  0  0  0  0  0  0  0  0  0  0  0
  -28.8570  -23.8250   18.6780 O   0  0  0  0  0  0  0  0  0  0  0  0
  -28.3470  -26.3930   20.1470 O   0  0  0  0  0  0  0  0  0  0  0  0
  -24.6610  -31.8750   23.2110 C   0  0  0  0  0  0  0  0  0  0  0  0
  -27.2570  -27.2950   20.1380 C   0  0  0  0  0  0  0  0  0  0  0  0
  -23.4520  -30.4730   21.5790 C   0  0  0  0  0  3  0  0  0  0  0  0
  -24.8990  -28.9310   20.1350 C   0  0  0  0  0  0  0  0  0  0  0  0
  -25.9900  -30.7920   21.3790 C   0  0  0  0  0  2  0  0  0  0  0  0
  -26.0720  -29.4100   20.7320 C   0  0  0  0  0  0  0  0  0  0  0  0
  -27.2560  -28.6030   20.7250 C   0  0  0  0  0  3  0  0  0  0  0  0
  -26.0670  -26.8860   19.5020 C   0  0  0  0  0  3  0  0  0  0  0  0
  -24.9000  -27.6730   19.5100 C   0  0  0  0  0  3  0  0  0  0  0  0
  -23.6610  -29.8050   20.1950 C   0  0  0  0  0  2  0  0  0  0  0  0
  -24.7210  -31.0650   22.1130 N   0  0  0  0  0  0  0  0  0  0  0  0
  -23.5800  -32.1480   23.7550 O   0  0  0  0  0  0  0  0  0  0  0  0
  -22.7980  -29.4530   22.5410 C   0  0  0  0  0  0  0  0  0  0  0  0
  -21.4700  -29.2750   22.4260 N   0  0  0  0  0  0  0  0  0  0  0  0
  -23.4820  -28.8270   23.3550 O   0  0  0  0  0  0  0  0  0  0  0  0
  -20.9750  -29.8280   21.7390 H   0  0  0  0  0  0  0  0  0  0  0  0
  -18.1020  -28.0650   22.9460 C   0  0  0  0  0  0  0  0  0  0  0  0
  -20.6600  -28.3330   23.2010 C   0  0  0  0  0  3  0  0  0  0  0  0
  -20.7670  -26.9050   22.6200 C   0  0  0  0  0  2  0  0  0  0  0  0
  -19.6590  -26.5800   21.6120 C   0  0  0  0  0  2  0  0  0  0  0  0
  -18.2810  -26.7190   22.2660 C   0  0  0  0  0  2  0  0  0  0  0  0
  -19.2200  -28.8300   23.3710 C   0  0  0  0  0  0  0  0  0  0  0  0
  -18.9990  -30.0930   23.9650 C   0  0  0  0  0  3  0  0  0  0  0  0
  -17.6930  -30.5860   24.1420 C   0  0  0  0  0  3  0  0  0  0  0  0
  -16.5890  -29.8160   23.7360 C   0  0  0  0  0  3  0  0  0  0  0  0
  -16.7950  -28.5580   23.1410 C   0  0  0  0  0  3  0  0  0  0  0  0
  -25.9460  -32.5100   23.8260 C   0  0  0  0  0  3  0  0  0  0  0  0
  -25.6300  -33.9040   24.1710 N   0  0  0  0  0  0  0  0  0  0  0  0
  -25.9490  -34.9650   23.4180 C   0  0  0  0  0  0  0  0  0  0  0  0
  -26.6050  -34.8740   22.3780 O   0  0  0  0  0  0  0  0  0  0  0  0
  -25.0420  -34.0480   24.9780 H   0  0  0  0  0  0  0  0  0  0  0  0
  -24.2060  -36.7540   23.1020 C   0  0  0  0  0  1  0  0  0  0  0  0
  -25.4590  -36.3450   23.8940 C   0  0  0  0  0  3  0  0  0  0  0  0
  -27.5950  -37.2370   24.7130 C   0  0  0  0  0  1  0  0  0  0  0  0
  -26.4830  -37.4050   23.7810 N   0  0  0  0  0  0  0  0  0  0  0  0
  -26.0720  -38.3200   23.9410 H   0  0  0  0  0  0  0  0  0  0  0  0
  -26.4780  -31.7320   25.0920 C   0  0  1  0  0  0  0  0  0  0  0  0
  -25.3980  -31.4840   26.1700 C   0  0  0  0  0  1  0  0  0  0  0  0
  -27.0620  -30.3590   24.6870 C   0  0  0  0  0  1  0  0  0  0  0  0
  -27.6310  -32.5260   25.7500 C   0  0  0  0  0  1  0  0  0  0  0  0
  -28.8660  -21.1080   19.9100 C   0  0  0  0  0  2  0  0  0  0  0  0
  -31.7110  -17.7140   20.6310 C   0  0  0  0  0  3  0  0  0  0  0  0
  -32.1460  -19.0530   20.5710 C   0  0  0  0  0  3  0  0  0  0  0  0
  -29.4400  -18.4960   20.3090 C   0  0  0  0  0  3  0  0  0  0  0  0
  -29.8600  -19.8960   20.2440 C   0  0  0  0  0  0  0  0  0  0  0  0
  -30.3460  -17.3640   20.4730 C   0  0  0  0  0  0  0  0  0  0  0  0
  -31.2540  -20.1210   20.3480 C   0  0  0  0  0  0  0  0  0  0  0  0
  -31.9360  -21.6950   20.1340 Cl  0  0  0  0  0  0  0  0  0  0  0  0
  -30.6410  -14.7580   20.2850 C   0  0  0  0  0  0  0  0  0  0  0  0
  -30.3750  -12.4820   19.2890 C   0  0  0  0  0  2  0  0  0  0  0  0
  -29.4490  -12.5770   18.0600 C   0  0  0  0  0  2  0  0  0  0  0  0
  -27.9790  -12.4070   18.4850 C   0  0  0  0  0  2  0  0  0  0  0  0
  -27.6090  -13.2960   19.7040 C   0  0  0  0  0  3  0  0  0  0  0  0
  -28.6670  -13.2320   20.8280 C   0  0  0  0  0  2  0  0  0  0  0  0
  -29.9670  -13.5560   20.2260 N   0  0  0  0  0  0  0  0  0  0  0  0
  -31.8250  -14.7940   19.9460 O   0  0  0  0  0  0  0  0  0  0  0  0
  -29.9230  -15.9330   20.4980 N   0  0  0  0  0  0  0  0  0  0  0  0
  -28.9350  -15.7800   20.6330 H   0  0  0  0  0  0  0  0  0  0  0  0
  -25.2180  -13.8950   20.4100 C   0  0  0  0  0  0  0  0  0  0  0  0
  -24.1520  -13.1260   20.7850 C   0  0  0  0  0  0  0  0  0  0  0  0
  -24.6160  -11.7740   20.7730 C   0  0  0  0  0  0  0  0  0  0  0  0
  -26.2650  -13.0140   20.1930 N   0  0  0  0  0  0  0  0  0  0  0  0
  -25.9080  -11.7340   20.4730 N   0  0  0  0  0  0  0  0  0  0  0  0
  -23.8880  -10.5130   20.9720 C   0  0  0  0  0  0  0  0  0  0  0  0
  -24.3140   -9.5560   21.9200 C   0  0  0  0  0  3  0  0  0  0  0  0
  -23.5840   -8.3620   22.1080 C   0  0  0  0  0  3  0  0  0  0  0  0
  -22.4130   -8.1170   21.3490 C   0  0  0  0  0  0  0  0  0  0  0  0
  -22.0100   -9.0620   20.3890 C   0  0  0  0  0  3  0  0  0  0  0  0
  -22.7400  -10.2480   20.2010 C   0  0  0  0  0  3  0  0  0  0  0  0
  -21.6570   -6.9730   21.4460 O   0  0  0  0  0  0  0  0  0  0  0  0
  -21.5980   -6.2460   22.6060 C   0  0  0  0  0  0  0  0  0  0  0  0
  -21.1560   -6.8150   23.8220 C   0  0  0  0  0  3  0  0  0  0  0  0
  -21.0480   -6.0140   24.9760 C   0  0  0  0  0  3  0  0  0  0  0  0
  -21.3630   -4.6430   24.9150 C   0  0  0  0  0  0  0  0  0  0  0  0
  -21.7950   -4.0730   23.7040 C   0  0  0  0  0  3  0  0  0  0  0  0
  -21.9090   -4.8730   22.5530 C   0  0  0  0  0  0  0  0  0  0  0  0
  -22.3060   -4.3140   21.3830 F   0  0  0  0  0  0  0  0  0  0  0  0
  -21.2510   -3.8730   26.0230 F   0  0  0  0  0  0  0  0  0  0  0  0
  -22.7520  -13.6070   21.0420 C   0  0  0  0  0  0  0  0  0  0  0  0
  -22.0200  -12.9200   21.9110 N   0  0  0  0  0  0  0  0  0  0  0  0
  -22.3160  -14.6290   20.5130 O   0  0  0  0  0  0  0  0  0  0  0  0
  -22.3870  -12.0910   22.3570 H   0  0  0  0  0  0  0  0  0  0  0  0
  -21.0800  -13.2210   22.1290 H   0  0  0  0  0  0  0  0  0  0  0  0
  -25.3780  -15.2630   20.2070 N   0  0  0  0  0  0  0  0  0  0  0  0
  -24.5940  -15.9030   20.2620 H   0  0  0  0  0  0  0  0  0  0  0  0
  -26.2120  -15.6970   19.8350 H   0  0  0  0  0  0  0  0  0  0  0  0
  1  6  1  0
  1  5  1  0
  3  2  1  0
  4  2  1  0
  5  8  1  0
  5  3  1  0
  6  4  1  0
  7  1  2  0
  9 20  2  0
 10  8  1  0
 10 15  1  0
 11 19  1  0
 11 21  1  0
 12 18  1  0
 12 14  1  0
 13 19  1  0
 14 13  1  0
 15 14  2  0
 16 17  1  0
 16 10  2  0
 17 12  2  0
 18 11  1  0
 19  9  1  0
 21 23  2  0
 22 21  1  0
 24 22  1  0
 25 34  2  0
 25 30  1  0
 26 22  1  0
 26 30  1  0
 27 26  1  0
 28 29  1  0
 28 27  1  0
 29 25  1  0
 30 31  2  0
 31 32  1  0
 33 32  2  0
 34 33  1  0
 35  9  1  0
 35 36  1  0
 35 45  1  0
 36 39  1  0
 37 41  1  0
 37 36  1  0
 38 37  2  0
 41 40  1  0
 43 41  1  0
 43 44  1  0
 43 42  1  0
 45 48  1  1
 45 46  1  0
 47 45  1  0
 49 53  1  0
 49  6  1  0
 51 50  1  0
 52 54  1  0
 53 52  2  0
 53 55  1  0
 54 65  1  0
 54 50  2  0
 55 51  2  0
 56 55  1  0
 57 65  1  0
 58 63  1  0
 59 60  1  0
 59 58  1  0
 61 60  1  0
 61 70  1  0
 61 62  1  0
 63 57  1  0
 63 62  1  0
 64 57  2  0
 65 66  1  0
 67 68  2  0
 68 87  1  0
 69 68  1  0
 69 72  1  0
 70 67  1  0
 70 71  1  0
 71 69  2  0
 72 73  1  0
 73 74  2  0
 75 78  1  0
 75 74  1  0
 76 75  2  0
 77 76  1  0
 77 72  2  0
 78 79  1  0
 79 80  1  0
 80 81  2  0
 82 81  1  0
 82 86  1  0
 83 82  2  0
 84 79  2  0
 84 83  1  0
 85 84  1  0
 87 88  1  0
 88 91  1  0
 88 90  1  0
 89 87  2  0
 92 93  1  0
 92 67  1  0
 94 92  1  0
M  ISO  4   5 101   8 101  57 100  65 100
M  END
>  <TORSDO>  (88) 
F 18

>  <SCORE>  (88) 
-14.435

>  <name>  (88) 
87

>  <ligand_id>  (88) 
87

>  <original_smiles>  (88) 
[H]c1c([H])c([H])c2c(c1[H])C([H])([H])C([H])([H])C([H])([H])C2([H])N([H])C(=O)C1([H])N(C(=O)C([H])(N([H])C(=O)C([H])(N([H])C([H])([H])[H])C([H])([H])[H])C(C([H])([H])[H])(C([H])([H])[H])C([H])([H])[H])C([H])([H])c2c([H])c(OC3([H])C(=O)N(C([H])([H])c4c([H])c(N([H])C(=O)N5C([H])([H])C([H])([H])C([H])([H])C([H])(n6nc(-c7c([H])c([H])c(Oc8c([H])c([H])c(F)c([H])c8F)c([H])c7[H])c(C(=O)N([H])[H])c6N([H])[H])C5([H])[H])c([H])c([H])c4Cl)C([H])([H])C([H])([H])C3([H])[H])c([H])c([H])c2C1([H])[H]

>  <smiles>  (88) 
[H]c1c([H])c([H])c2c(c1[H])C([H])([H])C([H])([H])C([H])([H])C2([H])N([H])C(=O)C1([H])N(C(=O)C([H])(N([H])C(=O)C([H])(N([H])C([H])([H])[H])C([H])([H])[H])C(C([H])([H])[H])(C([H])([H])[H])C([H])([H])[H])C([H])([H])c2c([H])c(OC3([H])C(=O)N(C([H])([H])c4c([H])c(N([H])C(=O)N5C([H])([H])C([H])([H])C([H])([H])C([H])(n6nc(-c7c([H])c([H])c(Oc8c([H])c([H])c(F)c([H])c8F)c([H])c7[H])c(C(=O)N([H])[H])c6N([H])[H])C5([H])[H])c([H])c([H])c4Cl)C([H])([H])C([H])([H])C3([H])[H])c([H])c([H])c2C1([H])[H]

$$$$
88:0:0
     RDKit          3D

 94103  0  0  1  0  0  0  0  0999 V2000
  -29.1960  -23.7340   20.0300 C   0  0  0  0  0  0  0  0  0  0  0  0
  -27.5660  -23.5050   17.6340 C   0  0  0  0  0  2  0  0  0  0  0  0
  -28.0500  -24.8860   18.1010 C   0  0  0  0  0  2  0  0  0  0  0  0
  -28.5330  -22.3680   18.0320 C   0  0  0  0  0  2  0  0  0  0  0  0
  -28.1420  -24.8860   19.6380 C   0  0  0  0  0  3  0  0  0  0  0  0
  -29.2470  -22.5240   19.3170 N   0  0  0  0  0  0  0  0  0  0  0  0
  -29.9460  -23.9400   20.9900 O   0  0  0  0  0  0  0  0  0  0  0  0
  -28.2860  -26.2950   20.1960 O   0  0  0  0  0  0  0  0  0  0  0  0
  -24.3800  -31.6780   23.2190 C   0  0  0  0  0  0  0  0  0  0  0  0
  -27.1730  -27.1860   20.1390 C   0  0  0  0  0  0  0  0  0  0  0  0
  -23.2570  -30.2820   21.5280 C   0  0  0  0  0  3  0  0  0  0  0  0
  -24.7810  -28.8010   20.1080 C   0  0  0  0  0  0  0  0  0  0  0  0
  -25.8010  -30.6520   21.4190 C   0  0  0  0  0  2  0  0  0  0  0  0
  -25.9340  -29.2870   20.7420 C   0  0  0  0  0  0  0  0  0  0  0  0
  -27.1330  -28.4940   20.7410 C   0  0  0  0  0  3  0  0  0  0  0  0
  -25.9780  -26.7780   19.4970 C   0  0  0  0  0  3  0  0  0  0  0  0
  -24.8110  -27.5560   19.4780 C   0  0  0  0  0  3  0  0  0  0  0  0
  -23.5260  -29.6500   20.1420 C   0  0  0  0  0  2  0  0  0  0  0  0
  -24.4980  -30.8880   22.1130 N   0  0  0  0  0  0  0  0  0  0  0  0
  -23.2740  -31.9170   23.7300 O   0  0  0  0  0  0  0  0  0  0  0  0
  -22.6000  -29.2250   22.4490 C   0  0  0  0  0  0  0  0  0  0  0  0
  -21.2910  -28.9810   22.2580 N   0  0  0  0  0  0  0  0  0  0  0  0
  -23.2660  -28.6280   23.2980 O   0  0  0  0  0  0  0  0  0  0  0  0
  -20.8090  -29.5180   21.5490 H   0  0  0  0  0  0  0  0  0  0  0  0
  -17.9690  -27.5750   22.5590 C   0  0  0  0  0  0  0  0  0  0  0  0
  -20.4830  -28.0000   22.9850 C   0  0  0  0  0  3  0  0  0  0  0  0
  -20.7130  -26.5720   22.4370 C   0  0  0  0  0  2  0  0  0  0  0  0
  -19.6990  -26.1700   21.3610 C   0  0  0  0  0  2  0  0  0  0  0  0
  -18.2730  -26.2340   21.9140 C   0  0  0  0  0  2  0  0  0  0  0  0
  -19.0080  -28.4100   23.0490 C   0  0  0  0  0  0  0  0  0  0  0  0
  -18.6730  -29.6610   23.6110 C   0  0  0  0  0  3  0  0  0  0  0  0
  -17.3310  -30.0800   23.6890 C   0  0  0  0  0  3  0  0  0  0  0  0
  -16.3060  -29.2420   23.2160 C   0  0  0  0  0  3  0  0  0  0  0  0
  -16.6250  -27.9920   22.6560 C   0  0  0  0  0  3  0  0  0  0  0  0
  -25.6260  -32.3380   23.8850 C   0  0  0  0  0  3  0  0  0  0  0  0
  -25.2850  -33.7380   24.1780 N   0  0  0  0  0  0  0  0  0  0  0  0
  -25.6100  -34.7800   23.4010 C   0  0  0  0  0  0  0  0  0  0  0  0
  -26.2980  -34.6670   22.3840 O   0  0  0  0  0  0  0  0  0  0  0  0
  -24.6770  -33.9000   24.9670 H   0  0  0  0  0  0  0  0  0  0  0  0
  -23.8520  -36.5320   22.9870 C   0  0  0  0  0  1  0  0  0  0  0  0
  -25.0910  -36.1700   23.8210 C   0  0  0  0  0  3  0  0  0  0  0  0
  -27.1950  -37.1190   24.6590 C   0  0  0  0  0  1  0  0  0  0  0  0
  -26.1060  -37.2390   23.6950 N   0  0  0  0  0  0  0  0  0  0  0  0
  -25.6800  -38.1560   23.8080 H   0  0  0  0  0  0  0  0  0  0  0  0
  -26.0920  -31.5960   25.1990 C   0  0  1  0  0  0  0  0  0  0  0  0
  -24.9530  -31.3580   26.2160 C   0  0  0  0  0  1  0  0  0  0  0  0
  -26.7150  -30.2210   24.8620 C   0  0  0  0  0  1  0  0  0  0  0  0
  -27.1960  -32.4200   25.9010 C   0  0  0  0  0  1  0  0  0  0  0  0
  -30.2910  -21.4040   19.4680 C   0  0  0  0  0  2  0  0  0  0  0  0
  -29.3520  -18.4910   21.8810 C   0  0  0  0  0  3  0  0  0  0  0  0
  -29.4590  -19.7650   21.2790 C   0  0  0  0  0  3  0  0  0  0  0  0
  -29.7640  -17.3130   21.2200 C   0  0  0  0  0  3  0  0  0  0  0  0
  -29.9930  -19.9180   19.9830 C   0  0  0  0  0  0  0  0  0  0  0  0
  -30.2890  -17.3630   19.9120 C   0  0  0  0  0  0  0  0  0  0  0  0
  -30.3880  -18.6860   19.3070 C   0  0  0  0  0  0  0  0  0  0  0  0
  -30.8770  -18.7720   18.0470 F   0  0  0  0  0  0  0  0  0  0  0  0
  -31.2280  -14.9350   19.4890 C   0  0  0  0  0  0  0  0  0  0  0  0
  -30.8050  -12.6830   18.4930 C   0  0  0  0  0  2  0  0  0  0  0  0
  -29.7390  -12.7890   17.3820 C   0  0  0  0  0  2  0  0  0  0  0  0
  -28.3200  -12.6830   17.9740 C   0  0  0  0  0  2  0  0  0  0  0  0
  -28.1210  -13.5770   19.2270 C   0  0  0  0  0  3  0  0  0  0  0  0
  -29.2960  -13.4510   20.2180 C   0  0  0  0  0  2  0  0  0  0  0  0
  -30.5160  -13.7580   19.4670 N   0  0  0  0  0  0  0  0  0  0  0  0
  -32.4220  -14.9170   19.1880 O   0  0  0  0  0  0  0  0  0  0  0  0
  -30.5430  -16.1000   19.1820 N   0  0  0  0  0  0  0  0  0  0  0  0
  -30.8210  -16.3430   18.2420 H   0  0  0  0  0  0  0  0  0  0  0  0
  -25.8900  -14.2640   20.2860 C   0  0  0  0  0  0  0  0  0  0  0  0
  -24.8200  -13.5350   20.7290 C   0  0  0  0  0  0  0  0  0  0  0  0
  -25.1750  -12.1620   20.5540 C   0  0  0  0  0  0  0  0  0  0  0  0
  -26.8300  -13.3390   19.8660 N   0  0  0  0  0  0  0  0  0  0  0  0
  -26.4170  -12.0640   20.0910 N   0  0  0  0  0  0  0  0  0  0  0  0
  -24.3830  -10.9400   20.7460 C   0  0  0  0  0  0  0  0  0  0  0  0
  -24.7710   -9.9450   21.6700 C   0  0  0  0  0  3  0  0  0  0  0  0
  -23.9820   -8.7890   21.8510 C   0  0  0  0  0  3  0  0  0  0  0  0
  -22.7910   -8.6190   21.1070 C   0  0  0  0  0  0  0  0  0  0  0  0
  -22.4210   -9.6000   20.1690 C   0  0  0  0  0  3  0  0  0  0  0  0
  -23.2100  -10.7490   19.9870 C   0  0  0  0  0  3  0  0  0  0  0  0
  -21.9750   -7.5170   21.1960 O   0  0  0  0  0  0  0  0  0  0  0  0
  -21.7890   -6.8530   22.3830 C   0  0  0  0  0  0  0  0  0  0  0  0
  -21.2980   -7.5080   23.5330 C   0  0  0  0  0  3  0  0  0  0  0  0
  -21.0570   -6.7730   24.7120 C   0  0  0  0  0  3  0  0  0  0  0  0
  -21.2970   -5.3860   24.7400 C   0  0  0  0  0  0  0  0  0  0  0  0
  -21.7820   -4.7320   23.5930 C   0  0  0  0  0  3  0  0  0  0  0  0
  -22.0240   -5.4640   22.4180 C   0  0  0  0  0  0  0  0  0  0  0  0
  -22.4720   -4.8250   21.3090 F   0  0  0  0  0  0  0  0  0  0  0  0
  -21.0590   -4.6790   25.8690 F   0  0  0  0  0  0  0  0  0  0  0  0
  -23.5010  -14.0820   21.1940 C   0  0  0  0  0  0  0  0  0  0  0  0
  -22.8430  -13.3910   22.1180 N   0  0  0  0  0  0  0  0  0  0  0  0
  -23.0690  -15.1530   20.7710 O   0  0  0  0  0  0  0  0  0  0  0  0
  -23.2070  -12.5230   22.4810 H   0  0  0  0  0  0  0  0  0  0  0  0
  -21.9600  -13.7370   22.4700 H   0  0  0  0  0  0  0  0  0  0  0  0
  -26.1310  -15.6300   20.1820 N   0  0  0  0  0  0  0  0  0  0  0  0
  -25.4340  -16.3210   20.4320 H   0  0  0  0  0  0  0  0  0  0  0  0
  -26.9770  -16.0380   19.8030 H   0  0  0  0  0  0  0  0  0  0  0  0
  1  7  2  0
  2  4  1  0
  2  3  1  0
  3  5  1  0
  4  6  1  0
  5  1  1  0
  5  8  1  0
  6 49  1  0
  6  1  1  0
  9 20  2  0
 10  8  1  0
 10 15  1  0
 11 19  1  0
 11 21  1  0
 12 18  1  0
 12 14  1  0
 13 19  1  0
 14 13  1  0
 15 14  2  0
 16 10  2  0
 17 16  1  0
 17 12  2  0
 18 11  1  0
 19  9  1  0
 21 23  2  0
 22 21  1  0
 24 22  1  0
 25 34  2  0
 25 30  1  0
 26 22  1  0
 26 30  1  0
 27 26  1  0
 28 29  1  0
 28 27  1  0
 29 25  1  0
 30 31  2  0
 31 32  1  0
 33 32  2  0
 34 33  1  0
 35  9  1  0
 35 36  1  0
 35 45  1  0
 36 39  1  0
 37 41  1  0
 37 36  1  0
 38 37  2  0
 41 40  1  0
 43 44  1  0
 43 41  1  0
 43 42  1  0
 45 48  1  1
 45 46  1  0
 47 45  1  0
 49 53  1  0
 51 50  1  0
 52 50  2  0
 53 51  2  0
 54 52  1  0
 55 54  2  0
 55 53  1  0
 56 55  1  0
 58 63  1  0
 59 60  1  0
 59 58  1  0
 61 60  1  0
 61 70  1  0
 61 62  1  0
 63 57  1  0
 63 62  1  0
 64 57  2  0
 65 57  1  0
 65 54  1  0
 66 65  1  0
 67 68  2  0
 68 87  1  0
 69 68  1  0
 69 72  1  0
 70 71  1  0
 70 67  1  0
 71 69  2  0
 72 73  1  0
 73 74  2  0
 75 78  1  0
 75 74  1  0
 76 75  2  0
 77 76  1  0
 77 72  2  0
 78 79  1  0
 79 84  2  0
 79 80  1  0
 80 81  2  0
 81 82  1  0
 82 86  1  0
 83 82  2  0
 84 83  1  0
 85 84  1  0
 87 88  1  0
 88 91  1  0
 88 90  1  0
 89 87  2  0
 92 67  1  0
 92 93  1  0
 94 92  1  0
M  ISO  4   5 101   8 101  57 100  65 100
M  END
>  <TORSDO>  (89) 
F 18

>  <SCORE>  (89) 
-11.745

>  <name>  (89) 
88

>  <ligand_id>  (89) 
88

>  <original_smiles>  (89) 
[H]c1c([H])c(N([H])C(=O)N2C([H])([H])C([H])([H])C([H])([H])C([H])(n3nc(-c4c([H])c([H])c(Oc5c([H])c([H])c(F)c([H])c5F)c([H])c4[H])c(C(=O)N([H])[H])c3N([H])[H])C2([H])[H])c(F)c(C([H])([H])N2C(=O)C([H])(Oc3c([H])c([H])c4c(c3[H])C([H])([H])N(C(=O)C([H])(N([H])C(=O)C([H])(N([H])C([H])([H])[H])C([H])([H])[H])C(C([H])([H])[H])(C([H])([H])[H])C([H])([H])[H])C([H])(C(=O)N([H])C3([H])c5c([H])c([H])c([H])c([H])c5C([H])([H])C([H])([H])C3([H])[H])C4([H])[H])C([H])([H])C([H])([H])C2([H])[H])c1[H]

>  <smiles>  (89) 
[H]c1c([H])c(N([H])C(=O)N2C([H])([H])C([H])([H])C([H])([H])C([H])(n3nc(-c4c([H])c([H])c(Oc5c([H])c([H])c(F)c([H])c5F)c([H])c4[H])c(C(=O)N([H])[H])c3N([H])[H])C2([H])[H])c(F)c(C([H])([H])N2C(=O)C([H])(Oc3c([H])c([H])c4c(c3[H])C([H])([H])N(C(=O)C([H])(N([H])C(=O)C([H])(N([H])C([H])([H])[H])C([H])([H])[H])C(C([H])([H])[H])(C([H])([H])[H])C([H])([H])[H])C([H])(C(=O)N([H])C3([H])c5c([H])c([H])c([H])c([H])c5C([H])([H])C([H])([H])C3([H])[H])C4([H])[H])C([H])([H])C([H])([H])C2([H])[H])c1[H]

$$$$
89:0:0
     RDKit          3D

 98107  0  0  1  0  0  0  0  0999 V2000
  -29.7840  -23.2270   21.1300 C   0  0  0  0  0  0  0  0  0  0  0  0
  -30.1470  -23.4380   22.4180 C   0  0  0  0  0  3  0  0  0  0  0  0
  -29.8640  -24.3530   20.0780 C   0  0  0  0  0  2  0  0  0  0  0  0
  -27.3610  -24.1160   20.4100 C   0  0  0  0  0  2  0  0  0  0  0  0
  -27.5620  -22.5450   20.3070 C   0  0  0  0  0  2  0  0  0  0  0  0
  -28.4740  -24.9850   19.7250 C   0  0  0  0  0  3  0  0  0  0  0  0
  -28.9680  -22.0760   20.5590 N   0  0  2  0  0  4  0  0  0  0  0  0
  -29.3290  -21.9420   19.6270 H   0  0  0  0  0  0  0  0  0  0  0  0
  -30.1830  -23.0740   24.8300 C   0  0  0  0  0  2  0  0  0  0  0  0
  -29.8580  -22.6450   23.6010 C   0  0  0  0  0  3  0  0  0  0  0  0
  -28.4780  -26.4330   20.0460 O   0  0  0  0  0  0  0  0  0  0  0  0
  -24.5780  -31.6690   23.0390 C   0  0  0  0  0  0  0  0  0  0  0  0
  -27.3260  -27.2220   19.9630 C   0  0  0  0  0  0  0  0  0  0  0  0
  -23.4340  -30.2830   21.3450 C   0  0  0  0  0  3  0  0  0  0  0  0
  -24.9370  -28.7840   19.9220 C   0  0  0  0  0  0  0  0  0  0  0  0
  -25.9670  -30.6510   21.2220 C   0  0  0  0  0  2  0  0  0  0  0  0
  -26.0810  -29.2860   20.5540 C   0  0  0  0  0  0  0  0  0  0  0  0
  -27.2770  -28.5140   20.5670 C   0  0  0  0  0  3  0  0  0  0  0  0
  -26.1610  -26.7680   19.3060 C   0  0  0  0  0  3  0  0  0  0  0  0
  -24.9770  -27.5290   19.2920 C   0  0  0  0  0  3  0  0  0  0  0  0
  -23.6870  -29.6370   19.9570 C   0  0  0  0  0  2  0  0  0  0  0  0
  -24.6770  -30.8840   21.9260 N   0  0  0  0  0  0  0  0  0  0  0  0
  -23.4780  -31.9180   23.5550 O   0  0  0  0  0  0  0  0  0  0  0  0
  -22.7680  -29.2380   22.2710 C   0  0  0  0  0  0  0  0  0  0  0  0
  -21.4400  -29.0750   22.1430 N   0  0  0  0  0  0  0  0  0  0  0  0
  -23.4450  -28.5770   23.0640 O   0  0  0  0  0  0  0  0  0  0  0  0
  -20.9550  -29.6580   21.4750 H   0  0  0  0  0  0  0  0  0  0  0  0
  -18.0440  -27.9500   22.6650 C   0  0  0  0  0  0  0  0  0  0  0  0
  -20.6150  -28.1200   22.8820 C   0  0  0  0  0  3  0  0  0  0  0  0
  -20.6610  -26.7230   22.2220 C   0  0  0  0  0  2  0  0  0  0  0  0
  -19.5240  -26.4890   21.2220 C   0  0  0  0  0  2  0  0  0  0  0  0
  -18.1630  -26.6370   21.9100 C   0  0  0  0  0  2  0  0  0  0  0  0
  -19.1960  -28.6530   23.1070 C   0  0  0  0  0  0  0  0  0  0  0  0
  -19.0290  -29.8870   23.7740 C   0  0  0  0  0  3  0  0  0  0  0  0
  -17.7450  -30.4150   24.0040 C   0  0  0  0  0  3  0  0  0  0  0  0
  -16.6080  -29.7060   23.5810 C   0  0  0  0  0  3  0  0  0  0  0  0
  -16.7580  -28.4750   22.9140 C   0  0  0  0  0  3  0  0  0  0  0  0
  -25.8370  -32.3080   23.7020 C   0  0  0  0  0  3  0  0  0  0  0  0
  -26.3460  -31.5110   24.9650 C   0  0  1  0  0  0  0  0  0  0  0  0
  -25.2400  -31.2210   26.0060 C   0  0  0  0  0  1  0  0  0  0  0  0
  -26.9620  -30.1570   24.5440 C   0  0  0  0  0  1  0  0  0  0  0  0
  -27.4710  -32.3070   25.6680 C   0  0  0  0  0  1  0  0  0  0  0  0
  -25.4940  -33.6900   24.0660 N   0  0  0  0  0  0  0  0  0  0  0  0
  -25.8240  -34.7720   23.3470 C   0  0  0  0  0  0  0  0  0  0  0  0
  -26.5170  -34.7130   22.3280 O   0  0  0  0  0  0  0  0  0  0  0  0
  -24.8810  -33.8100   24.8600 H   0  0  0  0  0  0  0  0  0  0  0  0
  -24.0670  -36.5400   23.0100 C   0  0  0  0  0  1  0  0  0  0  0  0
  -25.3000  -36.1370   23.8350 C   0  0  0  0  0  3  0  0  0  0  0  0
  -27.4000  -37.0390   24.7350 C   0  0  0  0  0  1  0  0  0  0  0  0
  -26.3140  -37.2130   23.7730 N   0  0  0  0  0  0  0  0  0  0  0  0
  -25.8860  -38.1210   23.9400 H   0  0  0  0  0  0  0  0  0  0  0  0
  -29.1440  -20.6550   21.1030 C   0  0  0  0  0  2  0  0  0  0  0  0
  -29.4990  -18.0890   20.7380 C   0  0  0  0  0  3  0  0  0  0  0  0
  -30.2650  -18.3970   18.0870 C   0  0  0  0  0  3  0  0  0  0  0  0
  -29.4830  -19.4210   20.1780 C   0  0  0  0  0  0  0  0  0  0  0  0
  -29.9000  -19.5470   18.8200 C   0  0  0  0  0  0  0  0  0  0  0  0
  -29.9230  -16.9240   20.0080 C   0  0  0  0  0  0  0  0  0  0  0  0
  -30.2700  -17.1110   18.6520 C   0  0  0  0  0  0  0  0  0  0  0  0
  -30.0090  -20.8780   18.0930 C   0  0  0  0  0  1  0  0  0  0  0  0
  -30.5800  -16.0600   17.8570 F   0  0  0  0  0  0  0  0  0  0  0  0
  -30.6790  -14.5080   20.1600 C   0  0  0  0  0  0  0  0  0  0  0  0
  -30.4060  -12.2950   19.0800 C   0  0  0  0  0  2  0  0  0  0  0  0
  -29.4230  -12.4660   17.9000 C   0  0  0  0  0  2  0  0  0  0  0  0
  -27.9620  -12.3340   18.3760 C   0  0  0  0  0  2  0  0  0  0  0  0
  -27.6640  -13.1710   19.6470 C   0  0  0  0  0  3  0  0  0  0  0  0
  -28.7560  -12.9730   20.7210 C   0  0  0  0  0  2  0  0  0  0  0  0
  -30.0500  -13.2950   20.1070 N   0  0  0  0  0  0  0  0  0  0  0  0
  -31.8310  -14.6510   19.7360 O   0  0  0  0  0  0  0  0  0  0  0  0
  -29.9250  -15.5750   20.5660 N   0  0  0  0  0  0  0  0  0  0  0  0
  -29.0890  -15.3260   21.0710 H   0  0  0  0  0  0  0  0  0  0  0  0
  -25.3110  -13.7900   20.4700 C   0  0  0  0  0  0  0  0  0  0  0  0
  -24.2480  -13.0240   20.8690 C   0  0  0  0  0  0  0  0  0  0  0  0
  -24.6900  -11.6680   20.7970 C   0  0  0  0  0  0  0  0  0  0  0  0
  -26.3310  -12.8990   20.1780 N   0  0  0  0  0  0  0  0  0  0  0  0
  -25.9660  -11.6170   20.4340 N   0  0  0  0  0  0  0  0  0  0  0  0
  -23.9550  -10.4120   20.9980 C   0  0  0  0  0  0  0  0  0  0  0  0
  -24.3980   -9.4360   21.9190 C   0  0  0  0  0  3  0  0  0  0  0  0
  -23.6670   -8.2440   22.1060 C   0  0  0  0  0  3  0  0  0  0  0  0
  -22.4800   -8.0160   21.3710 C   0  0  0  0  0  0  0  0  0  0  0  0
  -22.0560   -8.9790   20.4390 C   0  0  0  0  0  3  0  0  0  0  0  0
  -22.7870  -10.1640   20.2510 C   0  0  0  0  0  3  0  0  0  0  0  0
  -21.7170   -6.8770   21.4690 O   0  0  0  0  0  0  0  0  0  0  0  0
  -21.6690   -6.1400   22.6250 C   0  0  0  0  0  0  0  0  0  0  0  0
  -21.2410   -6.6990   23.8480 C   0  0  0  0  0  3  0  0  0  0  0  0
  -21.1420   -5.8890   24.9970 C   0  0  0  0  0  3  0  0  0  0  0  0
  -21.4580   -4.5180   24.9210 C   0  0  0  0  0  0  0  0  0  0  0  0
  -21.8790   -3.9570   23.7010 C   0  0  0  0  0  3  0  0  0  0  0  0
  -21.9800   -4.7670   22.5560 C   0  0  0  0  0  0  0  0  0  0  0  0
  -22.3650   -4.2170   21.3790 F   0  0  0  0  0  0  0  0  0  0  0  0
  -21.3560   -3.7380   26.0220 F   0  0  0  0  0  0  0  0  0  0  0  0
  -22.8690  -13.5130   21.2040 C   0  0  0  0  0  0  0  0  0  0  0  0
  -22.1640  -12.8110   22.0850 N   0  0  0  0  0  0  0  0  0  0  0  0
  -22.4240  -14.5520   20.7180 O   0  0  0  0  0  0  0  0  0  0  0  0
  -22.5370  -11.9700   22.5000 H   0  0  0  0  0  0  0  0  0  0  0  0
  -21.2400  -13.1200   22.3530 H   0  0  0  0  0  0  0  0  0  0  0  0
  -25.4930  -15.1610   20.3130 N   0  0  0  0  0  0  0  0  0  0  0  0
  -24.7490  -15.8300   20.4790 H   0  0  0  0  0  0  0  0  0  0  0  0
  -26.3440  -15.5860   19.9660 H   0  0  0  0  0  0  0  0  0  0  0  0
  1  2  2  0
  2 10  1  0
  3  1  1  0
  5  4  1  0
  5  7  1  0
  6 11  1  0
  6  3  1  0
  6  4  1  0
  7 52  1  0
  7  1  1  0
  7  8  1  6
 10  9  2  0
 12 23  2  0
 13 11  1  0
 13 18  1  0
 14 22  1  0
 14 24  1  0
 15 21  1  0
 15 17  1  0
 16 22  1  0
 17 18  2  0
 17 16  1  0
 19 13  2  0
 20 19  1  0
 20 15  2  0
 21 14  1  0
 22 12  1  0
 24 26  2  0
 25 24  1  0
 27 25  1  0
 28 37  2  0
 28 33  1  0
 29 25  1  0
 29 33  1  0
 30 29  1  0
 31 32  1  0
 31 30  1  0
 32 28  1  0
 33 34  2  0
 34 35  1  0
 36 35  2  0
 37 36  1  0
 38 12  1  0
 38 43  1  0
 38 39  1  0
 39 42  1  1
 39 40  1  0
 41 39  1  0
 43 46  1  0
 44 48  1  0
 44 43  1  0
 45 44  2  0
 48 47  1  0
 50 48  1  0
 50 51  1  0
 50 49  1  0
 54 58  2  0
 54 56  1  0
 55 53  1  0
 55 52  1  0
 56 55  2  0
 57 69  1  0
 57 53  2  0
 58 57  1  0
 59 56  1  0
 60 58  1  0
 61 69  1  0
 62 67  1  0
 63 64  1  0
 63 62  1  0
 65 64  1  0
 65 74  1  0
 65 66  1  0
 67 61  1  0
 67 66  1  0
 68 61  2  0
 69 70  1  0
 71 72  2  0
 72 91  1  0
 73 72  1  0
 73 76  1  0
 74 75  1  0
 74 71  1  0
 75 73  2  0
 76 77  1  0
 77 78  2  0
 79 82  1  0
 79 78  1  0
 80 79  2  0
 81 80  1  0
 81 76  2  0
 82 83  1  0
 83 84  1  0
 84 85  2  0
 86 85  1  0
 86 90  1  0
 87 86  2  0
 88 83  2  0
 88 87  1  0
 89 88  1  0
 91 92  1  0
 92 95  1  0
 92 94  1  0
 93 91  2  0
 96 71  1  0
 96 97  1  0
 98 96  1  0
M  ISO  4   6 101  11 101  61 100  69 100
M  END
>  <TORSDO>  (90) 
F 19

>  <SCORE>  (90) 
-13.568

>  <name>  (90) 
89

>  <ligand_id>  (90) 
89

>  <original_smiles>  (90) 
[H]C([H])=C([H])C([H])=C1C([H])([H])C([H])(Oc2c([H])c([H])c3c(c2[H])C([H])([H])N(C(=O)C([H])(N([H])C(=O)C([H])(N([H])C([H])([H])[H])C([H])([H])[H])C(C([H])([H])[H])(C([H])([H])[H])C([H])([H])[H])C([H])(C(=O)N([H])C2([H])c4c([H])c([H])c([H])c([H])c4C([H])([H])C([H])([H])C2([H])[H])C3([H])[H])C([H])([H])C([H])([H])[N+]1([H])C([H])([H])c1c([H])c(N([H])C(=O)N2C([H])([H])C([H])([H])C([H])([H])C([H])(n3nc(-c4c([H])c([H])c(Oc5c([H])c([H])c(F)c([H])c5F)c([H])c4[H])c(C(=O)N([H])[H])c3N([H])[H])C2([H])[H])c(F)c([H])c1C([H])([H])[H]

>  <smiles>  (90) 
[H]C([H])=C([H])C([H])=C1C([H])([H])C([H])(Oc2c([H])c([H])c3c(c2[H])C([H])([H])N(C(=O)C([H])(N([H])C(=O)C([H])(N([H])C([H])([H])[H])C([H])([H])[H])C(C([H])([H])[H])(C([H])([H])[H])C([H])([H])[H])C([H])(C(=O)N([H])C2([H])c4c([H])c([H])c([H])c([H])c4C([H])([H])C([H])([H])C2([H])[H])C3([H])[H])C([H])([H])C([H])([H])[N+]1([H])C([H])([H])c1c([H])c(N([H])C(=O)N2C([H])([H])C([H])([H])C([H])([H])C([H])(n3nc(-c4c([H])c([H])c(Oc5c([H])c([H])c(F)c([H])c5F)c([H])c4[H])c(C(=O)N([H])[H])c3N([H])[H])C2([H])[H])c(F)c([H])c1C([H])([H])[H]

$$$$
90:0:0
     RDKit          3D

 95104  0  0  1  0  0  0  0  0999 V2000
  -28.5390  -23.8280   19.5030 C   0  0  0  0  0  0  0  0  0  0  0  0
  -28.1810  -23.9430   18.2110 C   0  0  0  0  0  2  0  0  0  0  0  0
  -29.3290  -23.4740   22.2910 C   0  0  0  0  0  2  0  0  0  0  0  0
  -29.0550  -24.9160   21.8390 C   0  0  0  0  0  2  0  0  0  0  0  0
  -30.0970  -22.6870   21.2080 C   0  0  0  0  0  2  0  0  0  0  0  0
  -28.2300  -25.0020   20.5480 C   0  0  0  0  0  3  0  0  0  0  0  0
  -29.3320  -22.5160   19.9470 N   0  0  1  0  0  4  0  0  0  0  0  0
  -30.0910  -22.4600   19.2890 H   0  0  0  0  0  0  0  0  0  0  0  0
  -28.3440  -26.4340   20.1010 O   0  0  0  0  0  0  0  0  0  0  0  0
  -24.6360  -31.8820   23.2230 C   0  0  0  0  0  0  0  0  0  0  0  0
  -27.2250  -27.2930   20.1430 C   0  0  0  0  0  0  0  0  0  0  0  0
  -23.4220  -30.4810   21.5920 C   0  0  0  0  0  3  0  0  0  0  0  0
  -24.8640  -28.9250   20.1580 C   0  0  0  0  0  0  0  0  0  0  0  0
  -25.9640  -30.7920   21.3950 C   0  0  0  0  0  2  0  0  0  0  0  0
  -26.0420  -29.4090   20.7430 C   0  0  0  0  0  0  0  0  0  0  0  0
  -27.2270  -28.6050   20.7240 C   0  0  0  0  0  3  0  0  0  0  0  0
  -26.0250  -26.8670   19.5380 C   0  0  0  0  0  3  0  0  0  0  0  0
  -24.8620  -27.6620   19.5430 C   0  0  0  0  0  3  0  0  0  0  0  0
  -23.6320  -29.8090   20.2090 C   0  0  0  0  0  2  0  0  0  0  0  0
  -24.6920  -31.0700   22.1250 N   0  0  0  0  0  0  0  0  0  0  0  0
  -23.5550  -32.1590   23.7620 O   0  0  0  0  0  0  0  0  0  0  0  0
  -22.7680  -29.4620   22.5570 C   0  0  0  0  0  0  0  0  0  0  0  0
  -21.4400  -29.2830   22.4440 N   0  0  0  0  0  0  0  0  0  0  0  0
  -23.4540  -28.8360   23.3690 O   0  0  0  0  0  0  0  0  0  0  0  0
  -20.9420  -29.8460   21.7690 H   0  0  0  0  0  0  0  0  0  0  0  0
  -18.0680  -28.0710   22.9580 C   0  0  0  0  0  0  0  0  0  0  0  0
  -20.6260  -28.3440   23.2180 C   0  0  0  0  0  3  0  0  0  0  0  0
  -20.7330  -26.9080   22.6490 C   0  0  0  0  0  2  0  0  0  0  0  0
  -19.6270  -26.5770   21.6400 C   0  0  0  0  0  2  0  0  0  0  0  0
  -18.2470  -26.7200   22.2880 C   0  0  0  0  0  2  0  0  0  0  0  0
  -19.1850  -28.8400   23.3810 C   0  0  0  0  0  0  0  0  0  0  0  0
  -18.9620  -30.1050   23.9700 C   0  0  0  0  0  3  0  0  0  0  0  0
  -17.6550  -30.6000   24.1350 C   0  0  0  0  0  3  0  0  0  0  0  0
  -16.5530  -29.8280   23.7260 C   0  0  0  0  0  3  0  0  0  0  0  0
  -16.7610  -28.5650   23.1460 C   0  0  0  0  0  3  0  0  0  0  0  0
  -25.9210  -32.5190   23.8340 C   0  0  0  0  0  3  0  0  0  0  0  0
  -25.6060  -33.9140   24.1740 N   0  0  0  0  0  0  0  0  0  0  0  0
  -25.9230  -34.9740   23.4180 C   0  0  0  0  0  0  0  0  0  0  0  0
  -26.5820  -34.8810   22.3780 O   0  0  0  0  0  0  0  0  0  0  0  0
  -25.0250  -34.0630   24.9860 H   0  0  0  0  0  0  0  0  0  0  0  0
  -24.1830  -36.7590   23.0910 C   0  0  0  0  0  1  0  0  0  0  0  0
  -25.4350  -36.3560   23.8870 C   0  0  0  0  0  3  0  0  0  0  0  0
  -27.5830  -37.2390   24.6890 C   0  0  0  0  0  1  0  0  0  0  0  0
  -26.4610  -37.4180   23.7720 N   0  0  0  0  0  0  0  0  0  0  0  0
  -26.0530  -38.3320   23.9490 H   0  0  0  0  0  0  0  0  0  0  0  0
  -26.4530  -31.7460   25.1020 C   0  0  1  0  0  0  0  0  0  0  0  0
  -25.3720  -31.5060   26.1840 C   0  0  0  0  0  1  0  0  0  0  0  0
  -27.0350  -30.3700   24.7010 C   0  0  0  0  0  1  0  0  0  0  0  0
  -27.6100  -32.5440   25.7520 C   0  0  0  0  0  1  0  0  0  0  0  0
  -28.7350  -21.0910   19.7470 C   0  0  0  0  0  2  0  0  0  0  0  0
  -30.9980  -18.4170   17.8500 C   0  0  0  0  0  3  0  0  0  0  0  0
  -30.8980  -17.2620   18.6340 C   0  0  0  0  0  3  0  0  0  0  0  0
  -29.4820  -18.5050   20.1740 C   0  0  0  0  0  3  0  0  0  0  0  0
  -30.3180  -19.6150   18.1680 C   0  0  0  0  0  0  0  0  0  0  0  0
  -29.5840  -19.7490   19.3990 C   0  0  0  0  0  0  0  0  0  0  0  0
  -30.1060  -17.2320   19.8020 C   0  0  0  0  0  0  0  0  0  0  0  0
  -30.3590  -20.6490   17.0470 C   0  0  0  0  0  1  0  0  0  0  0  0
  -30.6140  -14.7310   20.3460 C   0  0  0  0  0  0  0  0  0  0  0  0
  -30.3610  -12.4490   19.3950 C   0  0  0  0  0  2  0  0  0  0  0  0
  -29.4450  -12.5670   18.1570 C   0  0  0  0  0  2  0  0  0  0  0  0
  -27.9640  -12.4310   18.5590 C   0  0  0  0  0  2  0  0  0  0  0  0
  -27.5910  -13.3050   19.7910 C   0  0  0  0  0  3  0  0  0  0  0  0
  -28.6400  -13.2060   20.9210 C   0  0  0  0  0  2  0  0  0  0  0  0
  -29.9520  -13.5240   20.3350 N   0  0  0  0  0  0  0  0  0  0  0  0
  -31.8140  -14.7710   20.0660 O   0  0  0  0  0  0  0  0  0  0  0  0
  -29.8850  -15.9160   20.4730 N   0  0  0  0  0  0  0  0  0  0  0  0
  -29.0070  -15.8130   20.9560 H   0  0  0  0  0  0  0  0  0  0  0  0
  -25.2070  -13.9110   20.5230 C   0  0  0  0  0  0  0  0  0  0  0  0
  -24.1300  -13.1490   20.8860 C   0  0  0  0  0  0  0  0  0  0  0  0
  -24.5830  -11.7920   20.8580 C   0  0  0  0  0  0  0  0  0  0  0  0
  -26.2380  -13.0240   20.2700 N   0  0  0  0  0  0  0  0  0  0  0  0
  -25.8710  -11.7400   20.5330 N   0  0  0  0  0  0  0  0  0  0  0  0
  -23.8440  -10.5370   21.0460 C   0  0  0  0  0  0  0  0  0  0  0  0
  -24.2660   -9.5600   21.9760 C   0  0  0  0  0  3  0  0  0  0  0  0
  -23.5250   -8.3730   22.1590 C   0  0  0  0  0  3  0  0  0  0  0  0
  -22.3470   -8.1480   21.4070 C   0  0  0  0  0  0  0  0  0  0  0  0
  -21.9370   -9.1110   20.4680 C   0  0  0  0  0  3  0  0  0  0  0  0
  -22.6820  -10.2900   20.2840 C   0  0  0  0  0  3  0  0  0  0  0  0
  -21.5860   -7.0040   21.4920 O   0  0  0  0  0  0  0  0  0  0  0  0
  -21.5420   -6.2550   22.6390 C   0  0  0  0  0  0  0  0  0  0  0  0
  -21.1400   -6.8090   23.8750 C   0  0  0  0  0  3  0  0  0  0  0  0
  -21.0330   -5.9860   25.0150 C   0  0  0  0  0  3  0  0  0  0  0  0
  -21.3180   -4.6100   24.9210 C   0  0  0  0  0  0  0  0  0  0  0  0
  -21.7150   -4.0580   23.6920 C   0  0  0  0  0  3  0  0  0  0  0  0
  -21.8230   -4.8760   22.5570 C   0  0  0  0  0  0  0  0  0  0  0  0
  -22.1820   -4.3320   21.3680 F   0  0  0  0  0  0  0  0  0  0  0  0
  -21.2140   -3.8220   26.0170 F   0  0  0  0  0  0  0  0  0  0  0  0
  -22.7370  -13.6400   21.1500 C   0  0  0  0  0  0  0  0  0  0  0  0
  -21.9900  -12.9580   22.0110 N   0  0  0  0  0  0  0  0  0  0  0  0
  -22.3110  -14.6750   20.6340 O   0  0  0  0  0  0  0  0  0  0  0  0
  -22.3310  -12.1200   22.4580 H   0  0  0  0  0  0  0  0  0  0  0  0
  -21.0540  -13.2770   22.2230 H   0  0  0  0  0  0  0  0  0  0  0  0
  -25.4050  -15.2750   20.3810 N   0  0  0  0  0  0  0  0  0  0  0  0
  -24.7340  -15.9550   20.7210 H   0  0  0  0  0  0  0  0  0  0  0  0
  -26.2820  -15.6880   20.0970 H   0  0  0  0  0  0  0  0  0  0  0  0
  1  7  1  0
  1  6  1  0
  2  1  2  0
  4  3  1  0
  5  3  1  0
  6  9  1  0
  6  4  1  0
  7  5  1  0
  7  8  1  6
  9 11  1  0
 10 21  2  0
 11 16  1  0
 12 20  1  0
 12 22  1  0
 13 19  1  0
 13 15  1  0
 14 20  1  0
 15 14  1  0
 16 15  2  0
 17 18  1  0
 17 11  2  0
 18 13  2  0
 19 12  1  0
 20 10  1  0
 22 24  2  0
 23 22  1  0
 25 23  1  0
 26 35  2  0
 26 31  1  0
 27 23  1  0
 27 31  1  0
 28 27  1  0
 29 30  1  0
 29 28  1  0
 30 26  1  0
 31 32  2  0
 32 33  1  0
 34 33  2  0
 35 34  1  0
 36 10  1  0
 36 37  1  0
 36 46  1  0
 37 40  1  0
 38 42  1  0
 38 37  1  0
 39 38  2  0
 42 41  1  0
 44 42  1  0
 44 45  1  0
 44 43  1  0
 46 49  1  1
 46 47  1  0
 48 46  1  0
 50  7  1  0
 51 54  2  0
 51 52  1  0
 52 56  2  0
 54 55  1  0
 55 50  1  0
 55 53  2  0
 56 53  1  0
 56 66  1  0
 57 54  1  0
 58 66  1  0
 59 64  1  0
 60 61  1  0
 60 59  1  0
 62 61  1  0
 62 71  1  0
 62 63  1  0
 64 58  1  0
 64 63  1  0
 65 58  2  0
 66 67  1  0
 68 69  2  0
 69 88  1  0
 70 69  1  0
 70 73  1  0
 71 68  1  0
 71 72  1  0
 72 70  2  0
 73 74  1  0
 74 75  2  0
 76 79  1  0
 76 75  1  0
 77 76  2  0
 78 77  1  0
 78 73  2  0
 79 80  1  0
 80 81  1  0
 81 82  2  0
 83 82  1  0
 83 87  1  0
 84 83  2  0
 85 80  2  0
 85 84  1  0
 86 85  1  0
 88 89  1  0
 89 92  1  0
 89 91  1  0
 90 88  2  0
 93 68  1  0
 93 94  1  0
 95 93  1  0
M  ISO  4   6 101   9 101  58 100  66 100
M  END
>  <TORSDO>  (91) 
F 18

>  <SCORE>  (91) 
-14.838

>  <name>  (91) 
90

>  <ligand_id>  (91) 
90

>  <original_smiles>  (91) 
[H]C([H])=C1C([H])(Oc2c([H])c([H])c3c(c2[H])C([H])([H])N(C(=O)C([H])(N([H])C(=O)C([H])(N([H])C([H])([H])[H])C([H])([H])[H])C(C([H])([H])[H])(C([H])([H])[H])C([H])([H])[H])C([H])(C(=O)N([H])C2([H])c4c([H])c([H])c([H])c([H])c4C([H])([H])C([H])([H])C2([H])[H])C3([H])[H])C([H])([H])C([H])([H])C([H])([H])[N+]1([H])C([H])([H])c1c([H])c(N([H])C(=O)N2C([H])([H])C([H])([H])C([H])([H])C([H])(n3nc(-c4c([H])c([H])c(Oc5c([H])c([H])c(F)c([H])c5F)c([H])c4[H])c(C(=O)N([H])[H])c3N([H])[H])C2([H])[H])c([H])c([H])c1C([H])([H])[H]

>  <smiles>  (91) 
[H]C([H])=C1C([H])(Oc2c([H])c([H])c3c(c2[H])C([H])([H])N(C(=O)C([H])(N([H])C(=O)C([H])(N([H])C([H])([H])[H])C([H])([H])[H])C(C([H])([H])[H])(C([H])([H])[H])C([H])([H])[H])C([H])(C(=O)N([H])C2([H])c4c([H])c([H])c([H])c([H])c4C([H])([H])C([H])([H])C2([H])[H])C3([H])[H])C([H])([H])C([H])([H])C([H])([H])[N+]1([H])C([H])([H])c1c([H])c(N([H])C(=O)N2C([H])([H])C([H])([H])C([H])([H])C([H])(n3nc(-c4c([H])c([H])c(Oc5c([H])c([H])c(F)c([H])c5F)c([H])c4[H])c(C(=O)N([H])[H])c3N([H])[H])C2([H])[H])c([H])c([H])c1C([H])([H])[H]

$$$$
91:0:0
     RDKit          3D

 93101  0  0  1  0  0  0  0  0999 V2000
  -28.9880  -22.6150   20.2320 C   0  0  0  0  0  0  0  0  0  0  0  0
  -29.6270  -21.6640   20.9590 N   0  0  0  0  0  0  0  0  0  0  0  0
  -28.2220  -22.3010   19.3190 O   0  0  0  0  0  0  0  0  0  0  0  0
  -30.2440  -21.9920   21.6900 H   0  0  0  0  0  0  0  0  0  0  0  0
  -29.5220  -20.1740   20.8360 C   0  0  0  0  0  2  0  0  0  0  0  0
  -32.6160  -19.7780   18.5990 C   0  0  0  0  0  3  0  0  0  0  0  0
  -33.0600  -18.4810   18.8720 C   0  0  0  0  0  3  0  0  0  0  0  0
  -31.4600  -20.2580   19.2310 C   0  0  0  0  0  3  0  0  0  0  0  0
  -32.3150  -17.6620   19.7350 C   0  0  0  0  0  3  0  0  0  0  0  0
  -30.7070  -19.4620   20.1330 C   0  0  0  0  0  0  0  0  0  0  0  0
  -31.1040  -18.0820   20.3390 C   0  0  0  0  0  0  0  0  0  0  0  0
  -30.3930  -17.0620   21.2830 C   0  0  0  0  0  2  0  0  0  0  0  0
  -30.6890  -14.5750   20.4850 C   0  0  0  0  0  0  0  0  0  0  0  0
  -30.3650  -12.3990   19.3480 C   0  0  0  0  0  2  0  0  0  0  0  0
  -29.4390  -12.5840   18.1290 C   0  0  0  0  0  2  0  0  0  0  0  0
  -27.9610  -12.4560   18.5440 C   0  0  0  0  0  2  0  0  0  0  0  0
  -27.6120  -13.3020   19.7990 C   0  0  0  0  0  3  0  0  0  0  0  0
  -28.6620  -13.1220   20.9170 C   0  0  0  0  0  2  0  0  0  0  0  0
  -29.9790  -13.4190   20.3390 N   0  0  0  0  0  0  0  0  0  0  0  0
  -31.8730  -14.6240   20.1720 O   0  0  0  0  0  0  0  0  0  0  0  0
  -29.9860  -15.6900   20.8220 N   0  0  0  0  0  0  0  0  0  0  0  0
  -28.9990  -15.5130   20.9240 H   0  0  0  0  0  0  0  0  0  0  0  0
  -25.2140  -13.9190   20.4820 C   0  0  0  0  0  0  0  0  0  0  0  0
  -24.1390  -13.1530   20.8460 C   0  0  0  0  0  0  0  0  0  0  0  0
  -24.5960  -11.7990   20.8350 C   0  0  0  0  0  0  0  0  0  0  0  0
  -26.2580  -13.0300   20.2710 N   0  0  0  0  0  0  0  0  0  0  0  0
  -25.8900  -11.7520   20.5430 N   0  0  0  0  0  0  0  0  0  0  0  0
  -23.8610  -10.5420   21.0280 C   0  0  0  0  0  0  0  0  0  0  0  0
  -24.2890   -9.5730   21.9620 C   0  0  0  0  0  3  0  0  0  0  0  0
  -23.5540   -8.3820   22.1450 C   0  0  0  0  0  3  0  0  0  0  0  0
  -22.3780   -8.1510   21.3930 C   0  0  0  0  0  0  0  0  0  0  0  0
  -21.9700   -9.1090   20.4480 C   0  0  0  0  0  3  0  0  0  0  0  0
  -22.7050  -10.2910   20.2630 C   0  0  0  0  0  3  0  0  0  0  0  0
  -21.6160   -7.0110   21.4820 O   0  0  0  0  0  0  0  0  0  0  0  0
  -21.5760   -6.2610   22.6300 C   0  0  0  0  0  0  0  0  0  0  0  0
  -21.1890   -6.8150   23.8700 C   0  0  0  0  0  3  0  0  0  0  0  0
  -21.0950   -5.9940   25.0100 C   0  0  0  0  0  3  0  0  0  0  0  0
  -21.3760   -4.6180   24.9120 C   0  0  0  0  0  0  0  0  0  0  0  0
  -21.7580   -4.0630   23.6770 C   0  0  0  0  0  3  0  0  0  0  0  0
  -21.8540   -4.8810   22.5400 C   0  0  0  0  0  0  0  0  0  0  0  0
  -22.1990   -4.3380   21.3480 F   0  0  0  0  0  0  0  0  0  0  0  0
  -21.2790   -3.8270   26.0050 F   0  0  0  0  0  0  0  0  0  0  0  0
  -22.7410  -13.6400   21.0940 C   0  0  0  0  0  0  0  0  0  0  0  0
  -22.0010  -12.9540   21.9580 N   0  0  0  0  0  0  0  0  0  0  0  0
  -22.3120  -14.6600   20.5570 O   0  0  0  0  0  0  0  0  0  0  0  0
  -22.3610  -12.1270   22.4120 H   0  0  0  0  0  0  0  0  0  0  0  0
  -21.0630  -13.2600   22.1710 H   0  0  0  0  0  0  0  0  0  0  0  0
  -25.3870  -15.2860   20.2920 N   0  0  0  0  0  0  0  0  0  0  0  0
  -24.6220  -15.9440   20.3850 H   0  0  0  0  0  0  0  0  0  0  0  0
  -26.2370  -15.7170   19.9490 H   0  0  0  0  0  0  0  0  0  0  0  0
  -29.2400  -24.1320   20.5390 C   0  0  0  0  0  3  0  0  0  0  0  0
  -28.1380  -25.1150   19.9950 C   0  0  0  0  0  3  0  0  0  0  0  0
  -28.3260  -26.5540   20.2010 O   0  0  0  0  0  0  0  0  0  0  0  0
  -24.5900  -31.8720   23.2270 C   0  0  0  0  0  0  0  0  0  0  0  0
  -27.1880  -27.3630   20.1400 C   0  0  0  0  0  0  0  0  0  0  0  0
  -23.3710  -30.4770   21.5930 C   0  0  0  0  0  3  0  0  0  0  0  0
  -24.8130  -28.9380   20.1500 C   0  0  0  0  0  0  0  0  0  0  0  0
  -25.9040  -30.8100   21.3860 C   0  0  0  0  0  2  0  0  0  0  0  0
  -25.9810  -29.4360   20.7410 C   0  0  0  0  0  0  0  0  0  0  0  0
  -27.1700  -28.6570   20.7320 C   0  0  0  0  0  3  0  0  0  0  0  0
  -25.9990  -26.9130   19.5160 C   0  0  0  0  0  3  0  0  0  0  0  0
  -24.8210  -27.6800   19.5310 C   0  0  0  0  0  3  0  0  0  0  0  0
  -23.5730  -29.8030   20.2090 C   0  0  0  0  0  2  0  0  0  0  0  0
  -24.6410  -31.0680   22.1260 N   0  0  0  0  0  0  0  0  0  0  0  0
  -23.5110  -32.1480   23.7710 O   0  0  0  0  0  0  0  0  0  0  0  0
  -22.7210  -29.4550   22.5550 C   0  0  0  0  0  0  0  0  0  0  0  0
  -21.3950  -29.2780   22.4380 N   0  0  0  0  0  0  0  0  0  0  0  0
  -23.4070  -28.8260   23.3650 O   0  0  0  0  0  0  0  0  0  0  0  0
  -20.9010  -29.8370   21.7570 H   0  0  0  0  0  0  0  0  0  0  0  0
  -18.0210  -28.0820   22.9550 C   0  0  0  0  0  0  0  0  0  0  0  0
  -20.5810  -28.3420   23.2140 C   0  0  0  0  0  3  0  0  0  0  0  0
  -20.6810  -26.9100   22.6410 C   0  0  0  0  0  2  0  0  0  0  0  0
  -19.5740  -26.5850   21.6320 C   0  0  0  0  0  2  0  0  0  0  0  0
  -18.1950  -26.7320   22.2810 C   0  0  0  0  0  2  0  0  0  0  0  0
  -19.1420  -28.8450   23.3790 C   0  0  0  0  0  0  0  0  0  0  0  0
  -18.9260  -30.1090   23.9700 C   0  0  0  0  0  3  0  0  0  0  0  0
  -17.6230  -30.6110   24.1400 C   0  0  0  0  0  3  0  0  0  0  0  0
  -16.5170  -29.8460   23.7300 C   0  0  0  0  0  3  0  0  0  0  0  0
  -16.7180  -28.5830   23.1450 C   0  0  0  0  0  3  0  0  0  0  0  0
  -25.8800  -32.5010   23.8390 C   0  0  0  0  0  3  0  0  0  0  0  0
  -25.5710  -33.8960   24.1810 N   0  0  0  0  0  0  0  0  0  0  0  0
  -25.8930  -34.9550   23.4260 C   0  0  0  0  0  0  0  0  0  0  0  0
  -26.5530  -34.8600   22.3870 O   0  0  0  0  0  0  0  0  0  0  0  0
  -24.9790  -34.0440   24.9860 H   0  0  0  0  0  0  0  0  0  0  0  0
  -24.1560  -36.7460   23.1040 C   0  0  0  0  0  1  0  0  0  0  0  0
  -25.4070  -36.3390   23.8990 C   0  0  0  0  0  3  0  0  0  0  0  0
  -27.5510  -37.2230   24.7060 C   0  0  0  0  0  1  0  0  0  0  0  0
  -26.4360  -37.3950   23.7790 N   0  0  0  0  0  0  0  0  0  0  0  0
  -26.0290  -38.3130   23.9390 H   0  0  0  0  0  0  0  0  0  0  0  0
  -26.4120  -31.7200   25.1020 C   0  0  1  0  0  0  0  0  0  0  0  0
  -25.3320  -31.4740   26.1820 C   0  0  0  0  0  1  0  0  0  0  0  0
  -26.9920  -30.3450   24.6940 C   0  0  0  0  0  1  0  0  0  0  0  0
  -27.5700  -32.5100   25.7560 C   0  0  0  0  0  1  0  0  0  0  0  0
  1 51  1  0
  1  2  1  0
  2  4  1  0
  3  1  2  0
  5  2  1  0
  6  7  2  0
  6  8  1  0
  7  9  1  0
  8 10  2  0
  9 11  2  0
 10 11  1  0
 10  5  1  0
 11 12  1  0
 13 21  1  0
 14 19  1  0
 15 16  1  0
 15 14  1  0
 17 16  1  0
 17 26  1  0
 17 18  1  0
 19 13  1  0
 19 18  1  0
 20 13  2  0
 21 22  1  0
 21 12  1  0
 23 24  2  0
 24 43  1  0
 25 24  1  0
 25 28  1  0
 26 23  1  0
 26 27  1  0
 27 25  2  0
 28 29  1  0
 29 30  2  0
 31 34  1  0
 31 30  1  0
 32 31  2  0
 33 32  1  0
 33 28  2  0
 34 35  1  0
 35 36  1  0
 36 37  2  0
 38 37  1  0
 38 42  1  0
 39 38  2  0
 40 35  2  0
 40 39  1  0
 41 40  1  0
 43 44  1  0
 44 47  1  0
 44 46  1  0
 45 43  2  0
 48 49  1  0
 48 23  1  0
 50 48  1  0
 52 53  1  0
 52 51  2  0
 54 65  2  0
 55 53  1  0
 55 60  1  0
 56 64  1  0
 56 66  1  0
 57 63  1  0
 57 59  1  0
 58 64  1  0
 59 58  1  0
 60 59  2  0
 61 62  1  0
 61 55  2  0
 62 57  2  0
 63 56  1  0
 64 54  1  0
 66 68  2  0
 67 66  1  0
 69 67  1  0
 70 79  2  0
 70 75  1  0
 71 67  1  0
 71 75  1  0
 72 71  1  0
 73 74  1  0
 73 72  1  0
 74 70  1  0
 75 76  2  0
 76 77  1  0
 78 77  2  0
 79 78  1  0
 80 54  1  0
 80 81  1  0
 80 90  1  0
 81 84  1  0
 82 86  1  0
 82 81  1  0
 83 82  2  0
 86 85  1  0
 88 86  1  0
 88 89  1  0
 88 87  1  0
 90 93  1  1
 90 91  1  0
 92 90  1  0
M  ISO  4  13 100  21 100  52 101  53 101
M  END
>  <TORSDO>  (92) 
F 21

>  <SCORE>  (92) 
-13.589

>  <name>  (92) 
91

>  <ligand_id>  (92) 
91

>  <original_smiles>  (92) 
[H]c1c([H])c([H])c(C([H])([H])N([H])C(=O)C([H])([H])C([H])([H])Oc2c([H])c([H])c3c(c2[H])C([H])([H])N(C(=O)C([H])(N([H])C(=O)C([H])(N([H])C([H])([H])[H])C([H])([H])[H])C(C([H])([H])[H])(C([H])([H])[H])C([H])([H])[H])C([H])(C(=O)N([H])C2([H])c4c([H])c([H])c([H])c([H])c4C([H])([H])C([H])([H])C2([H])[H])C3([H])[H])c(C([H])([H])N([H])C(=O)N2C([H])([H])C([H])([H])C([H])([H])C([H])(n3nc(-c4c([H])c([H])c(Oc5c([H])c([H])c(F)c([H])c5F)c([H])c4[H])c(C(=O)N([H])[H])c3N([H])[H])C2([H])[H])c1[H]

>  <smiles>  (92) 
[H]c1c([H])c([H])c(C([H])([H])N([H])C(=O)C([H])([H])C([H])([H])Oc2c([H])c([H])c3c(c2[H])C([H])([H])N(C(=O)C([H])(N([H])C(=O)C([H])(N([H])C([H])([H])[H])C([H])([H])[H])C(C([H])([H])[H])(C([H])([H])[H])C([H])([H])[H])C([H])(C(=O)N([H])C2([H])c4c([H])c([H])c([H])c([H])c4C([H])([H])C([H])([H])C2([H])[H])C3([H])[H])c(C([H])([H])N([H])C(=O)N2C([H])([H])C([H])([H])C([H])([H])C([H])(n3nc(-c4c([H])c([H])c(Oc5c([H])c([H])c(F)c([H])c5F)c([H])c4[H])c(C(=O)N([H])[H])c3N([H])[H])C2([H])[H])c1[H]

$$$$
92:0:0
     RDKit          3D

 92100  0  0  1  0  0  0  0  0999 V2000
  -29.1300  -21.1600   19.9310 C   0  0  0  0  0  2  0  0  0  0  0  0
  -31.0120  -20.0220   21.3460 C   0  0  0  0  0  3  0  0  0  0  0  0
  -31.7510  -18.8980   21.7810 C   0  0  0  0  0  3  0  0  0  0  0  0
  -29.4790  -18.4860   20.2530 C   0  0  0  0  0  3  0  0  0  0  0  0
  -29.8500  -19.8660   20.5560 C   0  0  0  0  0  0  0  0  0  0  0  0
  -30.2110  -17.2980   20.6920 C   0  0  0  0  0  0  0  0  0  0  0  0
  -31.3700  -17.5680   21.4810 C   0  0  0  0  0  0  0  0  0  0  0  0
  -32.3380  -16.3200   22.1900 Cl  0  0  0  0  0  0  0  0  0  0  0  0
  -30.3910  -14.7740   19.9540 C   0  0  0  0  0  0  0  0  0  0  0  0
  -30.0100  -12.5820   18.7910 C   0  0  0  0  0  2  0  0  0  0  0  0
  -28.9600  -12.7660   17.6730 C   0  0  0  0  0  2  0  0  0  0  0  0
  -27.5480  -12.5290   18.2340 C   0  0  0  0  0  2  0  0  0  0  0  0
  -27.2930  -13.3310   19.5400 C   0  0  0  0  0  3  0  0  0  0  0  0
  -28.4630  -13.1970   20.5480 C   0  0  0  0  0  2  0  0  0  0  0  0
  -29.7050  -13.5760   19.8530 N   0  0  0  0  0  0  0  0  0  0  0  0
  -31.5040  -14.8720   19.4340 O   0  0  0  0  0  0  0  0  0  0  0  0
  -29.7370  -15.9030   20.4380 N   0  0  0  0  0  0  0  0  0  0  0  0
  -28.7660  -15.7420   20.6500 H   0  0  0  0  0  0  0  0  0  0  0  0
  -24.9570  -13.8330   20.4820 C   0  0  0  0  0  0  0  0  0  0  0  0
  -23.9450  -13.0200   20.9200 C   0  0  0  0  0  0  0  0  0  0  0  0
  -24.4430  -11.6860   20.8240 C   0  0  0  0  0  0  0  0  0  0  0  0
  -26.0020  -12.9910   20.1360 N   0  0  0  0  0  0  0  0  0  0  0  0
  -25.7030  -11.6910   20.4000 N   0  0  0  0  0  0  0  0  0  0  0  0
  -23.7700  -10.3990   21.0530 C   0  0  0  0  0  0  0  0  0  0  0  0
  -24.2670   -9.4560   21.9810 C   0  0  0  0  0  3  0  0  0  0  0  0
  -23.5900   -8.2360   22.2000 C   0  0  0  0  0  3  0  0  0  0  0  0
  -22.4030   -7.9490   21.4900 C   0  0  0  0  0  0  0  0  0  0  0  0
  -21.9240   -8.8770   20.5480 C   0  0  0  0  0  3  0  0  0  0  0  0
  -22.6020  -10.0870   20.3260 C   0  0  0  0  0  3  0  0  0  0  0  0
  -21.6950   -6.7760   21.6170 O   0  0  0  0  0  0  0  0  0  0  0  0
  -21.6800   -6.0670   22.7900 C   0  0  0  0  0  0  0  0  0  0  0  0
  -21.2320   -6.6370   24.0010 C   0  0  0  0  0  3  0  0  0  0  0  0
  -21.1630   -5.8500   25.1680 C   0  0  0  0  0  3  0  0  0  0  0  0
  -21.5370   -4.4950   25.1260 C   0  0  0  0  0  0  0  0  0  0  0  0
  -21.9790   -3.9230   23.9190 C   0  0  0  0  0  3  0  0  0  0  0  0
  -22.0470   -4.7060   22.7550 C   0  0  0  0  0  0  0  0  0  0  0  0
  -22.4540   -4.1440   21.5920 F   0  0  0  0  0  0  0  0  0  0  0  0
  -21.4640   -3.7370   26.2430 F   0  0  0  0  0  0  0  0  0  0  0  0
  -22.5630  -13.4530   21.3120 C   0  0  0  0  0  0  0  0  0  0  0  0
  -21.9230  -12.7450   22.2380 N   0  0  0  0  0  0  0  0  0  0  0  0
  -22.0550  -14.4640   20.8320 O   0  0  0  0  0  0  0  0  0  0  0  0
  -22.3350  -11.9230   22.6520 H   0  0  0  0  0  0  0  0  0  0  0  0
  -21.0040  -13.0380   22.5330 H   0  0  0  0  0  0  0  0  0  0  0  0
  -25.0620  -15.2140   20.3280 N   0  0  0  0  0  0  0  0  0  0  0  0
  -24.2800  -15.8290   20.5120 H   0  0  0  0  0  0  0  0  0  0  0  0
  -25.8600  -15.7110   19.9480 H   0  0  0  0  0  0  0  0  0  0  0  0
  -28.8800  -23.7760   20.1020 C   0  0  0  0  0  0  0  0  0  0  0  0
  -28.1370  -22.2870   21.9270 C   0  0  0  0  0  1  0  0  0  0  0  0
  -28.8380  -22.4860   20.6580 N   0  0  0  0  0  0  0  0  0  0  0  0
  -29.5030  -23.9760   19.0530 O   0  0  0  0  0  0  0  0  0  0  0  0
  -28.0520  -25.0200   20.7130 C   0  0  0  0  0  2  0  0  0  0  0  0
  -28.2610  -26.4140   20.1640 O   0  0  0  0  0  0  0  0  0  0  0  0
  -24.5770  -31.9010   23.2200 C   0  0  0  0  0  0  0  0  0  0  0  0
  -27.1600  -27.3030   20.1560 C   0  0  0  0  0  0  0  0  0  0  0  0
  -23.3550  -30.4990   21.5980 C   0  0  0  0  0  3  0  0  0  0  0  0
  -24.7920  -28.9430   20.1540 C   0  0  0  0  0  0  0  0  0  0  0  0
  -25.8910  -30.8130   21.3800 C   0  0  0  0  0  2  0  0  0  0  0  0
  -25.9710  -29.4300   20.7350 C   0  0  0  0  0  0  0  0  0  0  0  0
  -27.1610  -28.6260   20.7150 C   0  0  0  0  0  3  0  0  0  0  0  0
  -25.9590  -26.8870   19.5380 C   0  0  0  0  0  3  0  0  0  0  0  0
  -24.7960  -27.6850   19.5350 C   0  0  0  0  0  3  0  0  0  0  0  0
  -23.5530  -29.8200   20.2180 C   0  0  0  0  0  2  0  0  0  0  0  0
  -24.6270  -31.0910   22.1210 N   0  0  0  0  0  0  0  0  0  0  0  0
  -23.4990  -32.1800   23.7670 O   0  0  0  0  0  0  0  0  0  0  0  0
  -22.7010  -29.4850   22.5700 C   0  0  0  0  0  0  0  0  0  0  0  0
  -21.3750  -29.2970   22.4470 N   0  0  0  0  0  0  0  0  0  0  0  0
  -23.3870  -28.8730   23.3920 O   0  0  0  0  0  0  0  0  0  0  0  0
  -20.8780  -29.8520   21.7640 H   0  0  0  0  0  0  0  0  0  0  0  0
  -18.0100  -28.0540   22.9500 C   0  0  0  0  0  0  0  0  0  0  0  0
  -20.5660  -28.3520   23.2200 C   0  0  0  0  0  3  0  0  0  0  0  0
  -20.6900  -26.9180   22.6510 C   0  0  0  0  0  2  0  0  0  0  0  0
  -19.5840  -26.5640   21.6520 C   0  0  0  0  0  2  0  0  0  0  0  0
  -18.2050  -26.6940   22.3000 C   0  0  0  0  0  2  0  0  0  0  0  0
  -19.1180  -28.8350   23.3740 C   0  0  0  0  0  0  0  0  0  0  0  0
  -18.8810  -30.0980   23.9570 C   0  0  0  0  0  3  0  0  0  0  0  0
  -17.5690  -30.5830   24.1190 C   0  0  0  0  0  3  0  0  0  0  0  0
  -16.4760  -29.8020   23.7040 C   0  0  0  0  0  3  0  0  0  0  0  0
  -16.6970  -28.5410   23.1220 C   0  0  0  0  0  3  0  0  0  0  0  0
  -25.8650  -32.5380   23.8290 C   0  0  0  0  0  3  0  0  0  0  0  0
  -26.3990  -31.7690   25.0990 C   0  0  1  0  0  0  0  0  0  0  0  0
  -25.3170  -31.5260   26.1800 C   0  0  0  0  0  1  0  0  0  0  0  0
  -26.9820  -30.3940   24.6980 C   0  0  0  0  0  1  0  0  0  0  0  0
  -27.5500  -32.5700   25.7520 C   0  0  0  0  0  1  0  0  0  0  0  0
  -25.5520  -33.9330   24.1680 N   0  0  0  0  0  0  0  0  0  0  0  0
  -25.8780  -34.9930   23.4130 C   0  0  0  0  0  0  0  0  0  0  0  0
  -26.5410  -34.8970   22.3780 O   0  0  0  0  0  0  0  0  0  0  0  0
  -24.9610  -34.0770   24.9740 H   0  0  0  0  0  0  0  0  0  0  0  0
  -24.1510  -36.7930   23.0700 C   0  0  0  0  0  1  0  0  0  0  0  0
  -25.3900  -36.3780   23.8820 C   0  0  0  0  0  3  0  0  0  0  0  0
  -27.5210  -37.2540   24.7340 C   0  0  0  0  0  1  0  0  0  0  0  0
  -26.4230  -37.4330   23.7860 N   0  0  0  0  0  0  0  0  0  0  0  0
  -26.0160  -38.3500   23.9430 H   0  0  0  0  0  0  0  0  0  0  0  0
  1  5  1  0
  1 49  1  0
  2  3  1  0
  4  5  1  0
  4  6  2  0
  5  2  2  0
  6  7  1  0
  7  3  2  0
  7  8  1  0
  9 17  1  0
 10 15  1  0
 11 12  1  0
 11 10  1  0
 13 12  1  0
 13 22  1  0
 13 14  1  0
 15  9  1  0
 15 14  1  0
 16  9  2  0
 17 18  1  0
 17  6  1  0
 19 20  2  0
 20 39  1  0
 21 20  1  0
 21 24  1  0
 22 23  1  0
 22 19  1  0
 23 21  2  0
 24 25  1  0
 25 26  2  0
 27 30  1  0
 27 26  1  0
 28 27  2  0
 29 28  1  0
 29 24  2  0
 30 31  1  0
 31 32  1  0
 32 33  2  0
 34 33  1  0
 34 38  1  0
 35 34  2  0
 36 31  2  0
 36 35  1  0
 37 36  1  0
 39 40  1  0
 40 43  1  0
 40 42  1  0
 41 39  2  0
 44 19  1  0
 44 45  1  0
 46 44  1  0
 47 49  1  0
 47 51  1  0
 49 48  1  0
 50 47  2  0
 52 51  1  0
 53 64  2  0
 54 52  1  0
 54 59  1  0
 55 63  1  0
 55 65  1  0
 56 62  1  0
 56 58  1  0
 57 63  1  0
 58 57  1  0
 59 58  2  0
 60 54  2  0
 61 60  1  0
 61 56  2  0
 62 55  1  0
 63 53  1  0
 65 67  2  0
 66 65  1  0
 68 66  1  0
 69 78  2  0
 69 74  1  0
 70 66  1  0
 70 74  1  0
 71 70  1  0
 72 73  1  0
 72 71  1  0
 73 69  1  0
 74 75  2  0
 75 76  1  0
 77 76  2  0
 78 77  1  0
 79 53  1  0
 79 84  1  0
 79 80  1  0
 80 83  1  1
 80 81  1  0
 82 80  1  0
 84 87  1  0
 85 89  1  0
 85 84  1  0
 86 85  2  0
 89 88  1  0
 91 89  1  0
 91 92  1  0
 91 90  1  0
M  ISO  4   9 100  17 100  51 101  52 101
M  END
>  <TORSDO>  (93) 
F 19

>  <SCORE>  (93) 
-11.859

>  <name>  (93) 
92

>  <ligand_id>  (93) 
92

>  <original_smiles>  (93) 
[H]c1c([H])c([H])c2c(c1[H])C([H])([H])C([H])([H])C([H])([H])C2([H])N([H])C(=O)C1([H])N(C(=O)C([H])(N([H])C(=O)C([H])(N([H])C([H])([H])[H])C([H])([H])[H])C(C([H])([H])[H])(C([H])([H])[H])C([H])([H])[H])C([H])([H])c2c([H])c(OC([H])([H])C(=O)N(C([H])([H])[H])C([H])([H])c3c([H])c([H])c(Cl)c(N([H])C(=O)N4C([H])([H])C([H])([H])C([H])([H])C([H])(n5nc(-c6c([H])c([H])c(Oc7c([H])c([H])c(F)c([H])c7F)c([H])c6[H])c(C(=O)N([H])[H])c5N([H])[H])C4([H])[H])c3[H])c([H])c([H])c2C1([H])[H]

>  <smiles>  (93) 
[H]c1c([H])c([H])c2c(c1[H])C([H])([H])C([H])([H])C([H])([H])C2([H])N([H])C(=O)C1([H])N(C(=O)C([H])(N([H])C(=O)C([H])(N([H])C([H])([H])[H])C([H])([H])[H])C(C([H])([H])[H])(C([H])([H])[H])C([H])([H])[H])C([H])([H])c2c([H])c(OC([H])([H])C(=O)N(C([H])([H])[H])C([H])([H])c3c([H])c([H])c(Cl)c(N([H])C(=O)N4C([H])([H])C([H])([H])C([H])([H])C([H])(n5nc(-c6c([H])c([H])c(Oc7c([H])c([H])c(F)c([H])c7F)c([H])c6[H])c(C(=O)N([H])[H])c5N([H])[H])C4([H])[H])c3[H])c([H])c([H])c2C1([H])[H]

$$$$
