0:0:0
     RDKit          3D

 91 99  0  0  1  0  0  0  0  0999 V2000
  -28.9400  -21.3540   20.2800 C   0  0  0  0  0  2  0  0  0  0  0  0
  -32.1200  -19.0990   20.6000 C   0  0  0  0  0  3  0  0  0  0  0  0
  -31.2380  -20.1870   20.4800 C   0  0  0  0  0  3  0  0  0  0  0  0
  -31.6580  -17.7730   20.6360 C   0  0  0  0  0  3  0  0  0  0  0  0
  -29.8400  -20.0120   20.3990 C   0  0  0  0  0  0  0  0  0  0  0  0
  -29.3800  -18.6120   20.4410 C   0  0  0  0  0  0  0  0  0  0  0  0
  -30.2830  -17.4510   20.5380 C   0  0  0  0  0  0  0  0  0  0  0  0
  -27.8880  -18.3410   20.3770 C   0  0  0  0  0  1  0  0  0  0  0  0
  -30.5960  -14.8180   20.3770 C   0  0  0  0  0  0  0  0  0  0  0  0
  -30.3690  -12.5300   19.3860 C   0  0  0  0  0  2  0  0  0  0  0  0
  -29.4460  -12.5970   18.1510 C   0  0  0  0  0  2  0  0  0  0  0  0
  -27.9780  -12.4020   18.5790 C   0  0  0  0  0  2  0  0  0  0  0  0
  -27.5880  -13.2990   19.7840 C   0  0  0  0  0  3  0  0  0  0  0  0
  -28.6440  -13.2540   20.9110 C   0  0  0  0  0  2  0  0  0  0  0  0
  -29.9380  -13.6050   20.3150 N   0  0  0  0  0  0  0  0  0  0  0  0
  -31.7860  -14.8450   20.0580 O   0  0  0  0  0  0  0  0  0  0  0  0
  -29.8690  -16.0020   20.5690 N   0  0  0  0  0  0  0  0  0  0  0  0
  -28.8830  -15.8440   20.6990 H   0  0  0  0  0  0  0  0  0  0  0  0
  -25.2000  -13.8690   20.5220 C   0  0  0  0  0  0  0  0  0  0  0  0
  -24.1370  -13.0880   20.8870 C   0  0  0  0  0  0  0  0  0  0  0  0
  -24.6080  -11.7390   20.8480 C   0  0  0  0  0  0  0  0  0  0  0  0
  -26.2480  -12.9990   20.2760 N   0  0  0  0  0  0  0  0  0  0  0  0
  -25.9000  -11.7120   20.5380 N   0  0  0  0  0  0  0  0  0  0  0  0
  -23.8880  -10.4720   21.0310 C   0  0  0  0  0  0  0  0  0  0  0  0
  -24.3100   -9.5100   21.9740 C   0  0  0  0  0  3  0  0  0  0  0  0
  -23.5900   -8.3080   22.1450 C   0  0  0  0  0  3  0  0  0  0  0  0
  -22.4310   -8.0610   21.3730 C   0  0  0  0  0  0  0  0  0  0  0  0
  -22.0270   -9.0100   20.4170 C   0  0  0  0  0  3  0  0  0  0  0  0
  -22.7480  -10.2030   20.2450 C   0  0  0  0  0  3  0  0  0  0  0  0
  -21.6850   -6.9080   21.4510 O   0  0  0  0  0  0  0  0  0  0  0  0
  -21.6020   -6.1820   22.6100 C   0  0  0  0  0  0  0  0  0  0  0  0
  -21.1150   -6.7450   23.8110 C   0  0  0  0  0  3  0  0  0  0  0  0
  -20.9800   -5.9440   24.9610 C   0  0  0  0  0  3  0  0  0  0  0  0
  -21.3230   -4.5790   24.9140 C   0  0  0  0  0  0  0  0  0  0  0  0
  -21.8020   -4.0140   23.7180 C   0  0  0  0  0  3  0  0  0  0  0  0
  -21.9370   -4.8140   22.5700 C   0  0  0  0  0  0  0  0  0  0  0  0
  -22.3800   -4.2590   21.4150 F   0  0  0  0  0  0  0  0  0  0  0  0
  -21.1860   -3.8060   26.0170 F   0  0  0  0  0  0  0  0  0  0  0  0
  -22.7380  -13.5560   21.1570 C   0  0  0  0  0  0  0  0  0  0  0  0
  -22.0110  -12.8590   22.0240 N   0  0  0  0  0  0  0  0  0  0  0  0
  -22.2950  -14.5770   20.6330 O   0  0  0  0  0  0  0  0  0  0  0  0
  -22.3840  -12.0360   22.4750 H   0  0  0  0  0  0  0  0  0  0  0  0
  -21.0710  -13.1560   22.2440 H   0  0  0  0  0  0  0  0  0  0  0  0
  -25.3560  -15.2420   20.3520 N   0  0  0  0  0  0  0  0  0  0  0  0
  -24.5850  -15.8890   20.4650 H   0  0  0  0  0  0  0  0  0  0  0  0
  -26.1960  -15.6830   19.9980 H   0  0  0  0  0  0  0  0  0  0  0  0
  -29.4200  -23.9620   20.0840 C   0  0  0  0  0  0  0  0  0  0  0  0
  -30.6300  -24.8510   19.8710 C   0  0  0  0  0  1  0  0  0  0  0  0
  -29.7060  -22.6620   20.1290 N   0  0  0  0  0  0  0  0  0  0  0  0
  -28.1080  -24.8820   20.1720 C   0  0  0  0  0  2  0  0  0  0  0  0
  -28.2960  -26.3940   20.2170 O   0  0  0  0  0  0  0  0  0  0  0  0
  -24.6200  -31.9150   23.2500 C   0  0  0  0  0  0  0  0  0  0  0  0
  -27.1900  -27.2840   20.1880 C   0  0  0  0  0  0  0  0  0  0  0  0
  -23.4100  -30.5290   21.6090 C   0  0  0  0  0  3  0  0  0  0  0  0
  -24.8480  -28.9630   20.1800 C   0  0  0  0  0  0  0  0  0  0  0  0
  -25.9570  -30.8090   21.4360 C   0  0  0  0  0  2  0  0  0  0  0  0
  -26.0250  -29.4260   20.7820 C   0  0  0  0  0  0  0  0  0  0  0  0
  -27.1970  -28.6000   20.7700 C   0  0  0  0  0  3  0  0  0  0  0  0
  -25.9840  -26.8900   19.5670 C   0  0  0  0  0  3  0  0  0  0  0  0
  -24.8340  -27.7040   19.5640 C   0  0  0  0  0  3  0  0  0  0  0  0
  -23.6230  -29.8570   20.2280 C   0  0  0  0  0  2  0  0  0  0  0  0
  -24.6820  -31.1040   22.1540 N   0  0  0  0  0  0  0  0  0  0  0  0
  -23.5370  -32.2010   23.7830 O   0  0  0  0  0  0  0  0  0  0  0  0
  -22.7350  -29.5160   22.5660 C   0  0  0  0  0  0  0  0  0  0  0  0
  -21.4070  -29.3490   22.4400 N   0  0  0  0  0  0  0  0  0  0  0  0
  -23.4070  -28.8840   23.3850 O   0  0  0  0  0  0  0  0  0  0  0  0
  -20.9230  -29.9110   21.7530 H   0  0  0  0  0  0  0  0  0  0  0  0
  -18.0200  -28.1770   22.9440 C   0  0  0  0  0  0  0  0  0  0  0  0
  -20.5810  -28.4160   23.2100 C   0  0  0  0  0  3  0  0  0  0  0  0
  -20.6710  -26.9860   22.6300 C   0  0  0  0  0  2  0  0  0  0  0  0
  -19.5640  -26.6750   21.6160 C   0  0  0  0  0  2  0  0  0  0  0  0
  -18.1850  -26.8280   22.2630 C   0  0  0  0  0  2  0  0  0  0  0  0
  -19.1460  -28.9290   23.3740 C   0  0  0  0  0  0  0  0  0  0  0  0
  -18.9370  -30.1910   23.9730 C   0  0  0  0  0  3  0  0  0  0  0  0
  -17.6360  -30.7010   24.1450 C   0  0  0  0  0  3  0  0  0  0  0  0
  -16.5250  -29.9450   23.7310 C   0  0  0  0  0  3  0  0  0  0  0  0
  -16.7180  -28.6860   23.1360 C   0  0  0  0  0  3  0  0  0  0  0  0
  -25.9040  -32.5410   23.8760 C   0  0  0  0  0  3  0  0  0  0  0  0
  -26.4170  -31.7610   25.1490 C   0  0  1  0  0  0  0  0  0  0  0  0
  -25.3220  -31.5270   26.2170 C   0  0  0  0  0  1  0  0  0  0  0  0
  -26.9890  -30.3800   24.7550 C   0  0  0  0  0  1  0  0  0  0  0  0
  -27.5730  -32.5430   25.8120 C   0  0  0  0  0  1  0  0  0  0  0  0
  -25.6000  -33.9380   24.2170 N   0  0  0  0  0  0  0  0  0  0  0  0
  -25.9010  -34.9940   23.4500 C   0  0  0  0  0  0  0  0  0  0  0  0
  -26.5340  -34.8940   22.3970 O   0  0  0  0  0  0  0  0  0  0  0  0
  -25.0350  -34.0900   25.0400 H   0  0  0  0  0  0  0  0  0  0  0  0
  -24.1440  -36.7730   23.1700 C   0  0  0  0  0  1  0  0  0  0  0  0
  -25.4240  -36.3810   23.9250 C   0  0  0  0  0  3  0  0  0  0  0  0
  -27.5900  -37.2830   24.6520 C   0  0  0  0  0  1  0  0  0  0  0  0
  -26.4420  -37.4430   23.7650 N   0  0  0  0  0  0  0  0  0  0  0  0
  -26.0350  -38.3590   23.9340 H   0  0  0  0  0  0  0  0  0  0  0  0
  1  5  1  0
  2  4  1  0
  3  2  2  0
  5  6  2  0
  5  3  1  0
  6  7  1  0
  7 17  1  0
  7  4  2  0
  8  6  1  0
  9 17  1  0
 10 15  1  0
 11 12  1  0
 11 10  1  0
 13 12  1  0
 13 22  1  0
 13 14  1  0
 15  9  1  0
 15 14  1  0
 16  9  2  0
 17 18  1  0
 19 20  2  0
 20 39  1  0
 21 20  1  0
 21 24  1  0
 22 19  1  0
 22 23  1  0
 23 21  2  0
 24 25  1  0
 25 26  2  0
 27 30  1  0
 27 26  1  0
 28 27  2  0
 29 28  1  0
 29 24  2  0
 30 31  1  0
 31 32  1  0
 32 33  2  0
 34 33  1  0
 34 38  1  0
 35 34  2  0
 36 31  2  0
 36 35  1  0
 37 36  1  0
 39 40  1  0
 40 43  1  0
 40 42  1  0
 41 39  2  0
 44 45  1  0
 44 19  1  0
 46 44  1  0
 47 49  2  0
 47 50  1  0
 48 47  1  0
 49  1  1  0
 50 51  1  0
 52 63  2  0
 53 51  1  0
 53 58  1  0
 54 62  1  0
 54 64  1  0
 55 61  1  0
 55 57  1  0
 56 62  1  0
 57 56  1  0
 58 57  2  0
 59 53  2  0
 60 59  1  0
 60 55  2  0
 61 54  1  0
 62 52  1  0
 64 66  2  0
 65 64  1  0
 67 65  1  0
 68 77  2  0
 68 73  1  0
 69 65  1  0
 69 73  1  0
 70 69  1  0
 71 72  1  0
 71 70  1  0
 72 68  1  0
 73 74  2  0
 74 75  1  0
 76 75  2  0
 77 76  1  0
 78 52  1  0
 78 83  1  0
 78 79  1  0
 79 82  1  1
 79 80  1  0
 81 79  1  0
 83 86  1  0
 84 88  1  0
 84 83  1  0
 85 84  2  0
 88 87  1  0
 90 88  1  0
 90 91  1  0
 90 89  1  0
M  ISO  4   9 100  17 100  50 101  51 101
M  END
>  <TORSDO>  (1) 
F 19

>  <SCORE>  (1) 
-14.436

>  <name>  (1) 
0

>  <ligand_id>  (1) 
0

>  <original_smiles>  (1) 
[H]c1c([H])c(N([H])C(=O)N2C([H])([H])C([H])([H])C([H])([H])C([H])(n3nc(-c4c([H])c([H])c(Oc5c([H])c([H])c(F)c([H])c5F)c([H])c4[H])c(C(=O)N([H])[H])c3N([H])[H])C2([H])[H])c(C([H])([H])[H])c(C([H])([H])N=C(C([H])([H])[H])C([H])([H])Oc2c([H])c([H])c3c(c2[H])C([H])([H])N(C(=O)C([H])(N([H])C(=O)C([H])(N([H])C([H])([H])[H])C([H])([H])[H])C(C([H])([H])[H])(C([H])([H])[H])C([H])([H])[H])C([H])(C(=O)N([H])C2([H])c4c([H])c([H])c([H])c([H])c4C([H])([H])C([H])([H])C2([H])[H])C3([H])[H])c1[H]

>  <smiles>  (1) 
[H]c1c([H])c(N([H])C(=O)N2C([H])([H])C([H])([H])C([H])([H])C([H])(n3nc(-c4c([H])c([H])c(Oc5c([H])c([H])c(F)c([H])c5F)c([H])c4[H])c(C(=O)N([H])[H])c3N([H])[H])C2([H])[H])c(C([H])([H])[H])c(C([H])([H])N=C(C([H])([H])[H])C([H])([H])Oc2c([H])c([H])c3c(c2[H])C([H])([H])N(C(=O)C([H])(N([H])C(=O)C([H])(N([H])C([H])([H])[H])C([H])([H])[H])C(C([H])([H])[H])(C([H])([H])[H])C([H])([H])[H])C([H])(C(=O)N([H])C2([H])c4c([H])c([H])c([H])c([H])c4C([H])([H])C([H])([H])C2([H])[H])C3([H])[H])c1[H]

$$$$
1:0:0
     RDKit          3D

 95103  0  0  1  0  0  0  0  0999 V2000
  -29.5940  -22.0160   21.0230 N   0  0  2  0  0  4  0  0  0  0  0  0
  -28.8960  -22.2280   21.7170 H   0  0  0  0  0  0  0  0  0  0  0  0
  -28.9210  -24.3050   20.1540 C   0  0  0  0  0  3  0  0  0  0  0  0
  -29.7850  -23.2610   20.1940 C   0  0  0  0  0  3  0  0  0  0  0  0
  -29.1390  -25.5700   19.3140 C   0  0  0  0  0  2  0  0  0  0  0  0
  -28.9330  -26.8020   20.0370 O   0  0  0  0  0  0  0  0  0  0  0  0
  -24.7950  -31.5980   23.3000 C   0  0  0  0  0  0  0  0  0  0  0  0
  -27.7070  -27.4530   20.0200 C   0  0  0  0  0  0  0  0  0  0  0  0
  -23.6950  -30.2590   21.5360 C   0  0  0  0  0  3  0  0  0  0  0  0
  -25.2510  -28.8870   20.0500 C   0  0  0  0  0  0  0  0  0  0  0  0
  -26.2090  -30.7300   21.4350 C   0  0  0  0  0  2  0  0  0  0  0  0
  -26.3690  -29.4080   20.7090 C   0  0  0  0  0  0  0  0  0  0  0  0
  -27.5950  -28.6990   20.6910 C   0  0  0  0  0  3  0  0  0  0  0  0
  -26.5530  -26.9410   19.3760 C   0  0  0  0  0  3  0  0  0  0  0  0
  -25.3400  -27.6550   19.3820 C   0  0  0  0  0  3  0  0  0  0  0  0
  -23.9700  -29.6920   20.1170 C   0  0  0  0  0  2  0  0  0  0  0  0
  -24.9160  -30.8760   22.1480 N   0  0  0  0  0  0  0  0  0  0  0  0
  -23.6910  -31.7830   23.8270 O   0  0  0  0  0  0  0  0  0  0  0  0
  -23.0690  -29.1440   22.4070 C   0  0  0  0  0  0  0  0  0  0  0  0
  -21.7620  -28.8950   22.2160 N   0  0  0  0  0  0  0  0  0  0  0  0
  -23.7560  -28.5100   23.2130 O   0  0  0  0  0  0  0  0  0  0  0  0
  -21.2630  -29.4680   21.5490 H   0  0  0  0  0  0  0  0  0  0  0  0
  -18.4440  -27.4910   22.4850 C   0  0  0  0  0  0  0  0  0  0  0  0
  -20.9700  -27.8690   22.8940 C   0  0  0  0  0  3  0  0  0  0  0  0
  -21.1800  -26.4800   22.2440 C   0  0  0  0  0  2  0  0  0  0  0  0
  -20.1430  -26.1590   21.1640 C   0  0  0  0  0  2  0  0  0  0  0  0
  -18.7270  -26.1950   21.7450 C   0  0  0  0  0  2  0  0  0  0  0  0
  -19.4980  -28.2860   23.0100 C   0  0  0  0  0  0  0  0  0  0  0  0
  -19.1840  -29.5030   23.6520 C   0  0  0  0  0  3  0  0  0  0  0  0
  -17.8470  -29.9260   23.7790 C   0  0  0  0  0  3  0  0  0  0  0  0
  -16.8070  -29.1250   23.2770 C   0  0  0  0  0  3  0  0  0  0  0  0
  -17.1050  -27.9100   22.6360 C   0  0  0  0  0  3  0  0  0  0  0  0
  -26.0330  -32.2440   23.9920 C   0  0  0  0  0  3  0  0  0  0  0  0
  -25.6610  -33.6080   24.3920 N   0  0  0  0  0  0  0  0  0  0  0  0
  -25.9960  -34.7150   23.7170 C   0  0  0  0  0  0  0  0  0  0  0  0
  -26.7190  -34.6980   22.7180 O   0  0  0  0  0  0  0  0  0  0  0  0
  -25.0230  -33.6970   25.1710 H   0  0  0  0  0  0  0  0  0  0  0  0
  -24.2320  -36.4700   23.3750 C   0  0  0  0  0  1  0  0  0  0  0  0
  -25.4370  -36.0540   24.2330 C   0  0  0  0  0  3  0  0  0  0  0  0
  -27.4870  -36.9440   25.2470 C   0  0  0  0  0  1  0  0  0  0  0  0
  -26.4370  -37.1430   24.2520 N   0  0  0  0  0  0  0  0  0  0  0  0
  -25.9920  -38.0380   24.4380 H   0  0  0  0  0  0  0  0  0  0  0  0
  -26.5480  -31.4190   25.2330 C   0  0  1  0  0  0  0  0  0  0  0  0
  -25.4370  -31.0560   26.2460 C   0  0  0  0  0  1  0  0  0  0  0  0
  -27.2140  -30.1040   24.7680 C   0  0  0  0  0  1  0  0  0  0  0  0
  -27.6290  -32.2260   25.9900 C   0  0  0  0  0  1  0  0  0  0  0  0
  -31.1050  -22.7240   22.9180 C   0  0  0  0  0  1  0  0  0  0  0  0
  -30.7820  -21.6670   21.8460 C   0  0  0  0  0  2  0  0  0  0  0  0
  -28.9890  -20.8710   20.2630 C   0  0  0  0  0  2  0  0  0  0  0  0
  -29.6440  -18.6200   19.2440 C   0  0  0  0  0  3  0  0  0  0  0  0
  -30.0450  -17.2670   19.3310 C   0  0  0  0  0  3  0  0  0  0  0  0
  -29.6190  -19.4590   20.3880 C   0  0  0  0  0  0  0  0  0  0  0  0
  -30.0890  -18.9230   21.6250 C   0  0  0  0  0  0  0  0  0  0  0  0
  -30.4430  -16.7180   20.5710 C   0  0  0  0  0  0  0  0  0  0  0  0
  -30.5080  -17.5680   21.6950 C   0  0  0  0  0  0  0  0  0  0  0  0
  -30.1550  -19.7570   22.9030 C   0  0  0  0  0  1  0  0  0  0  0  0
  -30.9500  -17.0580   22.8720 F   0  0  0  0  0  0  0  0  0  0  0  0
  -31.1790  -14.4200   19.9170 C   0  0  0  0  0  0  0  0  0  0  0  0
  -30.7920  -12.2110   18.8730 C   0  0  0  0  0  2  0  0  0  0  0  0
  -29.7550  -12.3270   17.7350 C   0  0  0  0  0  2  0  0  0  0  0  0
  -28.3170  -12.2260   18.2740 C   0  0  0  0  0  2  0  0  0  0  0  0
  -28.0770  -13.1390   19.5070 C   0  0  0  0  0  3  0  0  0  0  0  0
  -29.2070  -12.9670   20.5470 C   0  0  0  0  0  2  0  0  0  0  0  0
  -30.5000  -13.2380   19.8870 N   0  0  0  0  0  0  0  0  0  0  0  0
  -32.1770  -14.6390   19.2230 O   0  0  0  0  0  0  0  0  0  0  0  0
  -30.7180  -15.3320   20.7900 N   0  0  0  0  0  0  0  0  0  0  0  0
  -30.2120  -14.9490   21.5750 H   0  0  0  0  0  0  0  0  0  0  0  0
  -25.8150  -13.8280   20.5250 C   0  0  0  0  0  0  0  0  0  0  0  0
  -24.7300  -13.0950   20.9280 C   0  0  0  0  0  0  0  0  0  0  0  0
  -25.0770  -11.7270   20.7090 C   0  0  0  0  0  0  0  0  0  0  0  0
  -26.7580  -12.9080   20.0950 N   0  0  0  0  0  0  0  0  0  0  0  0
  -26.3210  -11.6320   20.2580 N   0  0  0  0  0  0  0  0  0  0  0  0
  -24.2740  -10.5040   20.8500 C   0  0  0  0  0  0  0  0  0  0  0  0
  -24.6120   -9.5040   21.7880 C   0  0  0  0  0  3  0  0  0  0  0  0
  -23.8180   -8.3450   21.9190 C   0  0  0  0  0  3  0  0  0  0  0  0
  -22.6680   -8.1800   21.1100 C   0  0  0  0  0  0  0  0  0  0  0  0
  -22.3470   -9.1670   20.1620 C   0  0  0  0  0  3  0  0  0  0  0  0
  -23.1430  -10.3180   20.0300 C   0  0  0  0  0  3  0  0  0  0  0  0
  -21.8520   -7.0750   21.1480 O   0  0  0  0  0  0  0  0  0  0  0  0
  -21.5720   -6.4260   22.3230 C   0  0  0  0  0  0  0  0  0  0  0  0
  -20.9990   -7.0970   23.4270 C   0  0  0  0  0  3  0  0  0  0  0  0
  -20.6640   -6.3760   24.5910 C   0  0  0  0  0  3  0  0  0  0  0  0
  -20.8910   -4.9880   24.6500 C   0  0  0  0  0  0  0  0  0  0  0  0
  -21.4550   -4.3180   23.5510 C   0  0  0  0  0  3  0  0  0  0  0  0
  -21.7920   -5.0360   22.3890 C   0  0  0  0  0  0  0  0  0  0  0  0
  -22.3170   -4.3820   21.3250 F   0  0  0  0  0  0  0  0  0  0  0  0
  -20.5600   -4.2950   25.7640 F   0  0  0  0  0  0  0  0  0  0  0  0
  -23.4120  -13.6350   21.4020 C   0  0  0  0  0  0  0  0  0  0  0  0
  -22.7420  -12.9170   22.3000 N   0  0  0  0  0  0  0  0  0  0  0  0
  -22.9890  -14.7210   21.0140 O   0  0  0  0  0  0  0  0  0  0  0  0
  -23.1030  -12.0370   22.6360 H   0  0  0  0  0  0  0  0  0  0  0  0
  -21.8590  -13.2550   22.6520 H   0  0  0  0  0  0  0  0  0  0  0  0
  -26.0720  -15.1950   20.4740 N   0  0  0  0  0  0  0  0  0  0  0  0
  -25.3720  -15.8850   20.7200 H   0  0  0  0  0  0  0  0  0  0  0  0
  -26.9300  -15.6060   20.1290 H   0  0  0  0  0  0  0  0  0  0  0  0
  1  2  1  1
  1 48  1  0
  3  4  2  0
  4  1  1  0
  5  6  1  0
  5  3  1  0
  7 18  2  0
  8  6  1  0
  8 13  1  0
  9 17  1  0
  9 19  1  0
 10 16  1  0
 10 12  1  0
 11 17  1  0
 12 11  1  0
 13 12  2  0
 14 15  1  0
 14  8  2  0
 15 10  2  0
 16  9  1  0
 17  7  1  0
 19 21  2  0
 20 19  1  0
 22 20  1  0
 23 32  2  0
 23 28  1  0
 24 20  1  0
 24 28  1  0
 25 24  1  0
 26 27  1  0
 26 25  1  0
 27 23  1  0
 28 29  2  0
 29 30  1  0
 31 30  2  0
 32 31  1  0
 33  7  1  0
 33 34  1  0
 33 43  1  0
 34 37  1  0
 35 39  1  0
 35 34  1  0
 36 35  2  0
 39 38  1  0
 39 41  1  0
 41 42  1  0
 41 40  1  0
 43 46  1  1
 43 44  1  0
 45 43  1  0
 48 47  1  0
 49 52  1  0
 49  1  1  0
 50 51  2  0
 50 52  1  0
 51 54  1  0
 52 53  2  0
 53 55  1  0
 53 56  1  0
 54 66  1  0
 54 55  2  0
 55 57  1  0
 58 66  1  0
 59 64  1  0
 60 61  1  0
 60 59  1  0
 62 61  1  0
 62 71  1  0
 62 63  1  0
 64 58  1  0
 64 63  1  0
 65 58  2  0
 66 67  1  0
 68 69  2  0
 69 88  1  0
 70 73  1  0
 70 69  1  0
 71 72  1  0
 71 68  1  0
 72 70  2  0
 73 74  1  0
 74 75  2  0
 76 79  1  0
 76 75  1  0
 77 76  2  0
 78 77  1  0
 78 73  2  0
 79 80  1  0
 80 85  2  0
 80 81  1  0
 81 82  2  0
 82 83  1  0
 83 87  1  0
 84 83  2  0
 85 84  1  0
 86 85  1  0
 88 89  1  0
 89 91  1  0
 89 92  1  0
 90 88  2  0
 93 68  1  0
 93 94  1  0
 95 93  1  0
M  ISO  4   5 101   6 101  58 100  66 100
M  END
>  <TORSDO>  (2) 
F 21

>  <SCORE>  (2) 
-10.721

>  <name>  (2) 
1

>  <ligand_id>  (2) 
1

>  <original_smiles>  (2) 
[H]C(=C([H])[N+]([H])(C([H])([H])c1c([H])c([H])c(N([H])C(=O)N2C([H])([H])C([H])([H])C([H])([H])C([H])(n3nc(-c4c([H])c([H])c(Oc5c([H])c([H])c(F)c([H])c5F)c([H])c4[H])c(C(=O)N([H])[H])c3N([H])[H])C2([H])[H])c(F)c1C([H])([H])[H])C([H])([H])C([H])([H])[H])C([H])([H])Oc1c([H])c([H])c2c(c1[H])C([H])([H])N(C(=O)C([H])(N([H])C(=O)C([H])(N([H])C([H])([H])[H])C([H])([H])[H])C(C([H])([H])[H])(C([H])([H])[H])C([H])([H])[H])C([H])(C(=O)N([H])C1([H])c3c([H])c([H])c([H])c([H])c3C([H])([H])C([H])([H])C1([H])[H])C2([H])[H]

>  <smiles>  (2) 
[H]C(=C([H])[N+]([H])(C([H])([H])c1c([H])c([H])c(N([H])C(=O)N2C([H])([H])C([H])([H])C([H])([H])C([H])(n3nc(-c4c([H])c([H])c(Oc5c([H])c([H])c(F)c([H])c5F)c([H])c4[H])c(C(=O)N([H])[H])c3N([H])[H])C2([H])[H])c(F)c1C([H])([H])[H])C([H])([H])C([H])([H])[H])C([H])([H])Oc1c([H])c([H])c2c(c1[H])C([H])([H])N(C(=O)C([H])(N([H])C(=O)C([H])(N([H])C([H])([H])[H])C([H])([H])[H])C(C([H])([H])[H])(C([H])([H])[H])C([H])([H])[H])C([H])(C(=O)N([H])C1([H])c3c([H])c([H])c([H])c([H])c3C([H])([H])C([H])([H])C1([H])[H])C2([H])[H]

$$$$
2:0:0
     RDKit          3D

 95103  0  0  1  0  0  0  0  0999 V2000
  -27.9740  -18.0330   20.3350 C   0  0  0  0  0  3  0  0  0  0  0  0
  -29.1130  -17.2450   20.4910 C   0  0  0  0  0  3  0  0  0  0  0  0
  -28.0240  -19.2670   19.6650 C   0  0  0  0  0  0  0  0  0  0  0  0
  -30.3410  -17.6320   19.9270 C   0  0  0  0  0  0  0  0  0  0  0  0
  -30.4170  -18.8970   19.2290 C   0  0  0  0  0  0  0  0  0  0  0  0
  -29.2590  -19.7690   19.1330 C   0  0  0  0  0  0  0  0  0  0  0  0
  -31.7520  -19.2230   18.5700 C   0  0  0  0  0  1  0  0  0  0  0  0
  -25.9090  -19.4700   18.2660 C   0  0  0  0  0  1  0  0  0  0  0  0
  -26.6600  -19.9550   19.5140 C   0  0  0  0  0  2  0  0  0  0  0  0
  -31.5380  -16.6540   20.1280 C   0  0  0  0  0  2  0  0  0  0  0  0
  -31.8950  -14.1240   20.2810 C   0  0  0  0  0  0  0  0  0  0  0  0
  -31.4790  -11.8430   19.4350 C   0  0  0  0  0  2  0  0  0  0  0  0
  -30.5780  -11.9690   18.1880 C   0  0  0  0  0  2  0  0  0  0  0  0
  -29.0870  -12.0130   18.5840 C   0  0  0  0  0  2  0  0  0  0  0  0
  -28.8010  -13.0260   19.7250 C   0  0  0  0  0  3  0  0  0  0  0  0
  -29.8070  -12.8530   20.8830 C   0  0  0  0  0  2  0  0  0  0  0  0
  -31.1620  -12.9760   20.3200 N   0  0  0  0  0  0  0  0  0  0  0  0
  -33.0670  -14.1560   19.8960 O   0  0  0  0  0  0  0  0  0  0  0  0
  -31.1770  -15.2550   20.4760 N   0  0  0  0  0  0  0  0  0  0  0  0
  -30.2220  -15.1140   20.7630 H   0  0  0  0  0  0  0  0  0  0  0  0
  -26.5250  -13.9640   20.4750 C   0  0  0  0  0  0  0  0  0  0  0  0
  -25.3480  -13.3460   20.8060 C   0  0  0  0  0  0  0  0  0  0  0  0
  -25.5990  -11.9430   20.7100 C   0  0  0  0  0  0  0  0  0  0  0  0
  -27.4220  -12.9420   20.1960 N   0  0  0  0  0  0  0  0  0  0  0  0
  -26.8670  -11.7200   20.3960 N   0  0  0  0  0  0  0  0  0  0  0  0
  -24.6860  -10.7990   20.8390 C   0  0  0  0  0  0  0  0  0  0  0  0
  -24.9320   -9.7570   21.7600 C   0  0  0  0  0  3  0  0  0  0  0  0
  -24.0300   -8.6800   21.8780 C   0  0  0  0  0  3  0  0  0  0  0  0
  -22.8640   -8.6380   21.0750 C   0  0  0  0  0  0  0  0  0  0  0  0
  -22.6390   -9.6640   20.1410 C   0  0  0  0  0  3  0  0  0  0  0  0
  -23.5410  -10.7340   20.0210 C   0  0  0  0  0  3  0  0  0  0  0  0
  -21.9430   -7.6190   21.1040 O   0  0  0  0  0  0  0  0  0  0  0  0
  -21.6590   -6.9400   22.2630 C   0  0  0  0  0  0  0  0  0  0  0  0
  -21.1790   -7.6010   23.4150 C   0  0  0  0  0  3  0  0  0  0  0  0
  -20.8330   -6.8560   24.5600 C   0  0  0  0  0  3  0  0  0  0  0  0
  -20.9560   -5.4530   24.5520 C   0  0  0  0  0  0  0  0  0  0  0  0
  -21.4260   -4.7930   23.4030 C   0  0  0  0  0  3  0  0  0  0  0  0
  -21.7740   -5.5360   22.2610 C   0  0  0  0  0  0  0  0  0  0  0  0
  -22.2080   -4.8940   21.1500 F   0  0  0  0  0  0  0  0  0  0  0  0
  -20.6160   -4.7360   25.6490 F   0  0  0  0  0  0  0  0  0  0  0  0
  -24.0410  -14.0200   21.1050 C   0  0  0  0  0  0  0  0  0  0  0  0
  -23.2150  -13.4080   21.9450 N   0  0  0  0  0  0  0  0  0  0  0  0
  -23.7650  -15.1200   20.6280 O   0  0  0  0  0  0  0  0  0  0  0  0
  -23.4480  -12.5130   22.3490 H   0  0  0  0  0  0  0  0  0  0  0  0
  -22.3320  -13.8360   22.1840 H   0  0  0  0  0  0  0  0  0  0  0  0
  -26.9010  -15.2980   20.3690 N   0  0  0  0  0  0  0  0  0  0  0  0
  -26.2480  -16.0570   20.5290 H   0  0  0  0  0  0  0  0  0  0  0  0
  -27.8170  -15.6260   20.0890 H   0  0  0  0  0  0  0  0  0  0  0  0
  -29.1470  -21.2080   18.4860 C   0  0  0  0  0  2  0  0  0  0  0  0
  -30.2700  -22.1810   18.2860 N   0  0  0  0  0  4  0  0  0  0  0  0
  -31.0210  -21.9480   18.9150 H   0  0  0  0  0  0  0  0  0  0  0  0
  -30.6020  -22.0520   17.3440 H   0  0  0  0  0  0  0  0  0  0  0  0
  -29.8760  -23.6350   18.4980 C   0  0  0  0  0  2  0  0  0  0  0  0
  -30.8120  -24.7190   17.8490 C   0  0  0  0  0  2  0  0  0  0  0  0
  -30.7470  -26.0790   18.3810 O   0  0  0  0  0  0  0  0  0  0  0  0
  -26.7490  -29.0580   23.5080 C   0  0  0  0  0  0  0  0  0  0  0  0
  -29.5440  -26.7000   18.6910 C   0  0  0  0  0  0  0  0  0  0  0  0
  -25.5830  -28.5240   21.3960 C   0  0  0  0  0  3  0  0  0  0  0  0
  -27.0830  -27.9240   19.4170 C   0  0  0  0  0  0  0  0  0  0  0  0
  -28.0880  -29.0660   21.3980 C   0  0  0  0  0  2  0  0  0  0  0  0
  -28.2290  -28.1650   20.1820 C   0  0  0  0  0  0  0  0  0  0  0  0
  -29.4630  -27.5610   19.8200 C   0  0  0  0  0  3  0  0  0  0  0  0
  -28.3760  -26.4920   17.9270 C   0  0  0  0  0  3  0  0  0  0  0  0
  -27.1570  -27.0970   18.2830 C   0  0  0  0  0  3  0  0  0  0  0  0
  -25.7980  -28.5910   19.8600 C   0  0  0  0  0  2  0  0  0  0  0  0
  -26.8240  -28.8720   22.1600 N   0  0  0  0  0  0  0  0  0  0  0  0
  -25.6660  -28.9800   24.1060 O   0  0  0  0  0  0  0  0  0  0  0  0
  -25.0090  -27.1360   21.7610 C   0  0  0  0  0  0  0  0  0  0  0  0
  -23.7190  -26.9170   21.4580 N   0  0  0  0  0  0  0  0  0  0  0  0
  -25.7260  -26.2740   22.2750 O   0  0  0  0  0  0  0  0  0  0  0  0
  -23.1900  -27.6810   21.0640 H   0  0  0  0  0  0  0  0  0  0  0  0
  -20.5180  -25.3020   20.9930 C   0  0  0  0  0  0  0  0  0  0  0  0
  -22.9860  -25.6650   21.6620 C   0  0  0  0  0  3  0  0  0  0  0  0
  -23.3300  -24.6300   20.5660 C   0  0  0  0  0  2  0  0  0  0  0  0
  -22.3550  -24.6510   19.3850 C   0  0  0  0  0  2  0  0  0  0  0  0
  -20.9260  -24.3760   19.8640 C   0  0  0  0  0  2  0  0  0  0  0  0
  -21.4840  -25.9200   21.8290 C   0  0  0  0  0  0  0  0  0  0  0  0
  -21.0510  -26.7990   22.8460 C   0  0  0  0  0  3  0  0  0  0  0  0
  -19.6810  -27.0620   23.0340 C   0  0  0  0  0  3  0  0  0  0  0  0
  -18.7280  -26.4340   22.2140 C   0  0  0  0  0  3  0  0  0  0  0  0
  -19.1440  -25.5570   21.1980 C   0  0  0  0  0  3  0  0  0  0  0  0
  -28.0100  -29.4000   24.3590 C   0  0  0  0  0  3  0  0  0  0  0  0
  -27.6330  -30.4590   25.3040 N   0  0  0  0  0  0  0  0  0  0  0  0
  -27.9240  -31.7580   25.1470 C   0  0  0  0  0  0  0  0  0  0  0  0
  -28.6080  -32.1810   24.2110 O   0  0  0  0  0  0  0  0  0  0  0  0
  -27.0260  -30.1940   26.0660 H   0  0  0  0  0  0  0  0  0  0  0  0
  -26.1280  -33.4520   25.6240 C   0  0  0  0  0  1  0  0  0  0  0  0
  -27.3680  -32.7430   26.1920 C   0  0  0  0  0  3  0  0  0  0  0  0
  -29.4360  -33.1840   27.4410 C   0  0  0  0  0  1  0  0  0  0  0  0
  -28.3560  -33.7500   26.6380 N   0  0  0  0  0  0  0  0  0  0  0  0
  -27.9060  -34.4840   27.1790 H   0  0  0  0  0  0  0  0  0  0  0  0
  -28.6000  -28.1530   25.1260 C   0  0  1  0  0  0  0  0  0  0  0  0
  -27.5460  -27.3770   25.9520 C   0  0  0  0  0  1  0  0  0  0  0  0
  -29.2470  -27.1570   24.1360 C   0  0  0  0  0  1  0  0  0  0  0  0
  -29.7220  -28.6110   26.0870 C   0  0  0  0  0  1  0  0  0  0  0  0
  1  2  1  0
  3  1  2  0
  4 10  1  0
  4  2  2  0
  5  4  1  0
  6  5  2  0
  6  3  1  0
  7  5  1  0
  8  9  1  0
  9  3  1  0
 10 19  1  0
 11 17  1  0
 11 19  1  0
 12 17  1  0
 13 14  1  0
 13 12  1  0
 15 14  1  0
 15 24  1  0
 15 16  1  0
 17 16  1  0
 18 11  2  0
 19 20  1  0
 21 22  2  0
 22 41  1  0
 23 22  1  0
 23 26  1  0
 24 25  1  0
 24 21  1  0
 25 23  2  0
 26 27  1  0
 27 28  2  0
 29 32  1  0
 29 28  1  0
 30 29  2  0
 31 30  1  0
 31 26  2  0
 32 33  1  0
 33 34  1  0
 34 35  2  0
 36 35  1  0
 36 40  1  0
 37 36  2  0
 38 33  2  0
 38 37  1  0
 39 38  1  0
 41 42  1  0
 42 45  1  0
 42 44  1  0
 43 41  2  0
 46 21  1  0
 46 47  1  0
 48 46  1  0
 49  6  1  0
 50 49  1  0
 50 53  1  0
 50 51  1  0
 52 50  1  0
 54 55  1  0
 54 53  1  0
 55 57  1  0
 56 67  2  0
 57 62  1  0
 58 68  1  0
 58 66  1  0
 59 65  1  0
 59 61  1  0
 60 66  1  0
 61 60  1  0
 62 61  2  0
 63 64  1  0
 63 57  2  0
 64 59  2  0
 65 58  1  0
 66 56  1  0
 68 70  2  0
 69 68  1  0
 71 69  1  0
 72 81  2  0
 72 77  1  0
 73 69  1  0
 73 77  1  0
 74 73  1  0
 75 76  1  0
 75 74  1  0
 76 72  1  0
 77 78  2  0
 78 79  1  0
 80 79  2  0
 81 80  1  0
 82 56  1  0
 82 92  1  0
 82 83  1  0
 83 86  1  0
 84 83  1  0
 84 88  1  0
 85 84  2  0
 88 87  1  0
 88 90  1  0
 90 91  1  0
 90 89  1  0
 92 93  1  1
 92 95  1  0
 94 92  1  0
M  ISO  4  11 100  19 100  54 101  55 101
M  END
>  <TORSDO>  (3) 
F 22

>  <SCORE>  (3) 
-8.444

>  <name>  (3) 
2

>  <ligand_id>  (3) 
2

>  <original_smiles>  (3) 
[H]c1c([H])c([H])c2c(c1[H])C([H])([H])C([H])([H])C([H])([H])C2([H])N([H])C(=O)C1([H])N(C(=O)C([H])(N([H])C(=O)C([H])(N([H])C([H])([H])[H])C([H])([H])[H])C(C([H])([H])[H])(C([H])([H])[H])C([H])([H])[H])C([H])([H])c2c([H])c(OC([H])([H])C([H])([H])[N+]([H])([H])C([H])([H])c3c(C([H])([H])[H])c(C([H])([H])N([H])C(=O)N4C([H])([H])C([H])([H])C([H])([H])C([H])(n5nc(-c6c([H])c([H])c(Oc7c([H])c([H])c(F)c([H])c7F)c([H])c6[H])c(C(=O)N([H])[H])c5N([H])[H])C4([H])[H])c([H])c([H])c3C([H])([H])C([H])([H])[H])c([H])c([H])c2C1([H])[H]

>  <smiles>  (3) 
[H]c1c([H])c([H])c2c(c1[H])C([H])([H])C([H])([H])C([H])([H])C2([H])N([H])C(=O)C1([H])N(C(=O)C([H])(N([H])C(=O)C([H])(N([H])C([H])([H])[H])C([H])([H])[H])C(C([H])([H])[H])(C([H])([H])[H])C([H])([H])[H])C([H])([H])c2c([H])c(OC([H])([H])C([H])([H])[N+]([H])([H])C([H])([H])c3c(C([H])([H])[H])c(C([H])([H])N([H])C(=O)N4C([H])([H])C([H])([H])C([H])([H])C([H])(n5nc(-c6c([H])c([H])c(Oc7c([H])c([H])c(F)c([H])c7F)c([H])c6[H])c(C(=O)N([H])[H])c5N([H])[H])C4([H])[H])c([H])c([H])c3C([H])([H])C([H])([H])[H])c([H])c([H])c2C1([H])[H]

$$$$
3:0:0
     RDKit          3D

 98107  0  0  1  0  0  0  0  0999 V2000
  -28.7440  -24.0630   19.7130 C   0  0  0  0  0  0  0  0  0  0  0  0
  -28.5730  -24.1900   18.3830 C   0  0  0  0  0  3  0  0  0  0  0  0
  -29.8150  -23.9600   22.4520 C   0  0  0  0  0  2  0  0  0  0  0  0
  -29.4620  -25.3290   21.8600 C   0  0  0  0  0  2  0  0  0  0  0  0
  -30.4020  -23.0520   21.3600 C   0  0  0  0  0  2  0  0  0  0  0  0
  -28.4450  -25.2480   20.7070 C   0  0  0  0  0  3  0  0  0  0  0  0
  -28.9210  -23.1740   17.3090 C   0  0  0  0  0  1  0  0  0  0  0  0
  -29.4140  -22.7720   20.2920 N   0  0  1  0  0  4  0  0  0  0  0  0
  -29.9890  -22.4220   19.5400 H   0  0  0  0  0  0  0  0  0  0  0  0
  -28.4640  -26.6070   20.1160 O   0  0  0  0  0  0  0  0  0  0  0  0
  -24.6610  -31.9110   23.2070 C   0  0  0  0  0  0  0  0  0  0  0  0
  -27.3110  -27.3990   20.1460 C   0  0  0  0  0  0  0  0  0  0  0  0
  -23.4610  -30.5010   21.5680 C   0  0  0  0  0  3  0  0  0  0  0  0
  -24.9230  -28.9620   20.1420 C   0  0  0  0  0  0  0  0  0  0  0  0
  -25.9920  -30.8600   21.3650 C   0  0  0  0  0  2  0  0  0  0  0  0
  -26.0860  -29.4780   20.7250 C   0  0  0  0  0  0  0  0  0  0  0  0
  -27.2860  -28.7110   20.7100 C   0  0  0  0  0  3  0  0  0  0  0  0
  -26.1260  -26.9220   19.5510 C   0  0  0  0  0  3  0  0  0  0  0  0
  -24.9430  -27.6890   19.5440 C   0  0  0  0  0  3  0  0  0  0  0  0
  -23.6750  -29.8200   20.1890 C   0  0  0  0  0  2  0  0  0  0  0  0
  -24.7240  -31.1080   22.1040 N   0  0  0  0  0  0  0  0  0  0  0  0
  -23.5790  -32.1750   23.7480 O   0  0  0  0  0  0  0  0  0  0  0  0
  -22.8120  -29.4800   22.5320 C   0  0  0  0  0  0  0  0  0  0  0  0
  -21.4870  -29.2940   22.4110 N   0  0  0  0  0  0  0  0  0  0  0  0
  -23.4990  -28.8590   23.3460 O   0  0  0  0  0  0  0  0  0  0  0  0
  -20.9920  -29.8460   21.7240 H   0  0  0  0  0  0  0  0  0  0  0  0
  -18.1200  -28.0770   22.9230 C   0  0  0  0  0  0  0  0  0  0  0  0
  -20.6790  -28.3510   23.1830 C   0  0  0  0  0  3  0  0  0  0  0  0
  -20.7870  -26.9210   22.6030 C   0  0  0  0  0  2  0  0  0  0  0  0
  -19.6830  -26.5960   21.5930 C   0  0  0  0  0  2  0  0  0  0  0  0
  -18.3020  -26.7300   22.2430 C   0  0  0  0  0  2  0  0  0  0  0  0
  -19.2370  -28.8440   23.3500 C   0  0  0  0  0  0  0  0  0  0  0  0
  -19.0120  -30.1050   23.9450 C   0  0  0  0  0  3  0  0  0  0  0  0
  -17.7050  -30.5960   24.1190 C   0  0  0  0  0  3  0  0  0  0  0  0
  -16.6030  -29.8270   23.7070 C   0  0  0  0  0  3  0  0  0  0  0  0
  -16.8130  -28.5680   23.1150 C   0  0  0  0  0  3  0  0  0  0  0  0
  -25.9420  -32.5520   23.8240 C   0  0  0  0  0  3  0  0  0  0  0  0
  -25.6200  -33.9440   24.1690 N   0  0  0  0  0  0  0  0  0  0  0  0
  -25.9340  -35.0070   23.4170 C   0  0  0  0  0  0  0  0  0  0  0  0
  -26.5970  -34.9200   22.3800 O   0  0  0  0  0  0  0  0  0  0  0  0
  -25.0280  -34.0850   24.9750 H   0  0  0  0  0  0  0  0  0  0  0  0
  -24.1840  -36.7860   23.0940 C   0  0  0  0  0  1  0  0  0  0  0  0
  -25.4360  -36.3860   23.8910 C   0  0  0  0  0  3  0  0  0  0  0  0
  -27.5660  -37.2870   24.7170 C   0  0  0  0  0  1  0  0  0  0  0  0
  -26.4570  -37.4520   23.7810 N   0  0  0  0  0  0  0  0  0  0  0  0
  -26.0420  -38.3650   23.9410 H   0  0  0  0  0  0  0  0  0  0  0  0
  -26.4770  -31.7760   25.0890 C   0  0  1  0  0  0  0  0  0  0  0  0
  -25.3940  -31.5160   26.1610 C   0  0  0  0  0  1  0  0  0  0  0  0
  -27.0690  -30.4060   24.6800 C   0  0  0  0  0  1  0  0  0  0  0  0
  -27.6230  -32.5750   25.7510 C   0  0  0  0  0  1  0  0  0  0  0  0
  -28.5560  -21.5510   20.5990 C   0  0  0  0  0  2  0  0  0  0  0  0
  -29.8450  -19.4450   21.4600 C   0  0  0  0  0  3  0  0  0  0  0  0
  -29.1130  -20.0660   20.4090 C   0  0  0  0  0  0  0  0  0  0  0  0
  -28.7640  -19.1990   19.3170 C   0  0  0  0  0  0  0  0  0  0  0  0
  -29.0880  -17.7900   19.3270 C   0  0  0  0  0  0  0  0  0  0  0  0
  -29.7610  -17.1780   20.4300 C   0  0  0  0  0  0  0  0  0  0  0  0
  -30.1500  -18.0530   21.4820 C   0  0  0  0  0  0  0  0  0  0  0  0
  -27.9530  -19.7280   18.1340 C   0  0  0  0  0  1  0  0  0  0  0  0
  -28.6160  -16.9060   18.1720 C   0  0  0  0  0  1  0  0  0  0  0  0
  -30.9480  -17.4130   22.8750 Cl  0  0  0  0  0  0  0  0  0  0  0  0
  -30.5960  -14.7230   20.1650 C   0  0  0  0  0  0  0  0  0  0  0  0
  -30.3820  -12.4890   19.0830 C   0  0  0  0  0  2  0  0  0  0  0  0
  -29.3850  -12.6240   17.9110 C   0  0  0  0  0  2  0  0  0  0  0  0
  -27.9310  -12.4520   18.3970 C   0  0  0  0  0  2  0  0  0  0  0  0
  -27.6220  -13.2930   19.6640 C   0  0  0  0  0  3  0  0  0  0  0  0
  -28.7260  -13.1170   20.7310 C   0  0  0  0  0  2  0  0  0  0  0  0
  -30.0100  -13.4850   20.1090 N   0  0  0  0  0  0  0  0  0  0  0  0
  -31.7170  -14.9260   19.6900 O   0  0  0  0  0  0  0  0  0  0  0  0
  -29.7950  -15.7260   20.6390 N   0  0  0  0  0  0  0  0  0  0  0  0
  -28.9790  -15.3690   21.1100 H   0  0  0  0  0  0  0  0  0  0  0  0
  -25.2650  -13.8770   20.5100 C   0  0  0  0  0  0  0  0  0  0  0  0
  -24.2120  -13.0970   20.9040 C   0  0  0  0  0  0  0  0  0  0  0  0
  -24.6670  -11.7460   20.8090 C   0  0  0  0  0  0  0  0  0  0  0  0
  -26.2930  -13.0010   20.2000 N   0  0  0  0  0  0  0  0  0  0  0  0
  -25.9410  -11.7120   20.4390 N   0  0  0  0  0  0  0  0  0  0  0  0
  -23.9470  -10.4790   20.9930 C   0  0  0  0  0  0  0  0  0  0  0  0
  -24.3810   -9.5090   21.9220 C   0  0  0  0  0  3  0  0  0  0  0  0
  -23.6590   -8.3080   22.0940 C   0  0  0  0  0  3  0  0  0  0  0  0
  -22.4890   -8.0680   21.3360 C   0  0  0  0  0  0  0  0  0  0  0  0
  -22.0740   -9.0270   20.3950 C   0  0  0  0  0  3  0  0  0  0  0  0
  -22.7960  -10.2200   20.2220 C   0  0  0  0  0  3  0  0  0  0  0  0
  -21.7400   -6.9190   21.4170 O   0  0  0  0  0  0  0  0  0  0  0  0
  -21.6440   -6.2030   22.5830 C   0  0  0  0  0  0  0  0  0  0  0  0
  -21.1500   -6.7810   23.7740 C   0  0  0  0  0  3  0  0  0  0  0  0
  -21.0020   -5.9900   24.9310 C   0  0  0  0  0  3  0  0  0  0  0  0
  -21.3370   -4.6230   24.8990 C   0  0  0  0  0  0  0  0  0  0  0  0
  -21.8230   -4.0460   23.7130 C   0  0  0  0  0  3  0  0  0  0  0  0
  -21.9740   -4.8330   22.5590 C   0  0  0  0  0  0  0  0  0  0  0  0
  -22.4220   -4.2670   21.4130 F   0  0  0  0  0  0  0  0  0  0  0  0
  -21.1880   -3.8630   26.0090 F   0  0  0  0  0  0  0  0  0  0  0  0
  -22.8330  -13.5700   21.2570 C   0  0  0  0  0  0  0  0  0  0  0  0
  -22.1460  -12.8560   22.1430 N   0  0  0  0  0  0  0  0  0  0  0  0
  -22.3720  -14.6070   20.7810 O   0  0  0  0  0  0  0  0  0  0  0  0
  -22.5300  -12.0150   22.5480 H   0  0  0  0  0  0  0  0  0  0  0  0
  -21.2210  -13.1550   22.4170 H   0  0  0  0  0  0  0  0  0  0  0  0
  -25.4280  -15.2530   20.3690 N   0  0  0  0  0  0  0  0  0  0  0  0
  -24.6710  -15.9030   20.5460 H   0  0  0  0  0  0  0  0  0  0  0  0
  -26.2540  -15.7040   19.9980 H   0  0  0  0  0  0  0  0  0  0  0  0
  1  8  1  0
  1  6  1  0
  2  1  2  0
  4  3  1  0
  5  3  1  0
  6 10  1  0
  6  4  1  0
  7  2  1  0
  8 51  1  0
  8  5  1  0
  8  9  1  6
 10 12  1  0
 11 22  2  0
 12 17  1  0
 13 21  1  0
 13 23  1  0
 14 20  1  0
 14 16  1  0
 15 21  1  0
 16 15  1  0
 17 16  2  0
 18 12  2  0
 19 18  1  0
 19 14  2  0
 20 13  1  0
 21 11  1  0
 23 25  2  0
 24 23  1  0
 26 24  1  0
 27 36  2  0
 27 32  1  0
 28 24  1  0
 28 32  1  0
 29 28  1  0
 30 31  1  0
 30 29  1  0
 31 27  1  0
 32 33  2  0
 33 34  1  0
 35 34  2  0
 36 35  1  0
 37 11  1  0
 37 38  1  0
 37 47  1  0
 38 41  1  0
 39 43  1  0
 39 38  1  0
 40 39  2  0
 43 42  1  0
 45 43  1  0
 45 46  1  0
 45 44  1  0
 47 50  1  1
 47 48  1  0
 49 47  1  0
 52 57  1  0
 53 51  1  0
 53 52  2  0
 54 55  2  0
 54 53  1  0
 55 56  1  0
 56 69  1  0
 56 57  2  0
 57 60  1  0
 58 54  1  0
 59 55  1  0
 61 69  1  0
 62 67  1  0
 63 64  1  0
 63 62  1  0
 65 64  1  0
 65 74  1  0
 65 66  1  0
 67 61  1  0
 67 66  1  0
 68 61  2  0
 69 70  1  0
 71 72  2  0
 72 91  1  0
 73 72  1  0
 73 76  1  0
 74 75  1  0
 74 71  1  0
 75 73  2  0
 76 77  1  0
 77 78  2  0
 79 82  1  0
 79 78  1  0
 80 79  2  0
 81 80  1  0
 81 76  2  0
 82 83  1  0
 83 84  1  0
 84 85  2  0
 86 85  1  0
 86 90  1  0
 87 86  2  0
 88 83  2  0
 88 87  1  0
 89 88  1  0
 91 92  1  0
 92 95  1  0
 92 94  1  0
 93 91  2  0
 96 71  1  0
 96 97  1  0
 98 96  1  0
M  ISO  4   6 101  10 101  61 100  69 100
M  END
>  <TORSDO>  (4) 
F 18

>  <SCORE>  (4) 
-14.387

>  <name>  (4) 
3

>  <ligand_id>  (4) 
3

>  <original_smiles>  (4) 
[H]C(=C1C([H])(Oc2c([H])c([H])c3c(c2[H])C([H])([H])N(C(=O)C([H])(N([H])C(=O)C([H])(N([H])C([H])([H])[H])C([H])([H])[H])C(C([H])([H])[H])(C([H])([H])[H])C([H])([H])[H])C([H])(C(=O)N([H])C2([H])c4c([H])c([H])c([H])c([H])c4C([H])([H])C([H])([H])C2([H])[H])C3([H])[H])C([H])([H])C([H])([H])C([H])([H])[N+]1([H])C([H])([H])c1c([H])c(Cl)c(N([H])C(=O)N2C([H])([H])C([H])([H])C([H])([H])C([H])(n3nc(-c4c([H])c([H])c(Oc5c([H])c([H])c(F)c([H])c5F)c([H])c4[H])c(C(=O)N([H])[H])c3N([H])[H])C2([H])[H])c(C([H])([H])[H])c1C([H])([H])[H])C([H])([H])[H]

>  <smiles>  (4) 
[H]C(=C1C([H])(Oc2c([H])c([H])c3c(c2[H])C([H])([H])N(C(=O)C([H])(N([H])C(=O)C([H])(N([H])C([H])([H])[H])C([H])([H])[H])C(C([H])([H])[H])(C([H])([H])[H])C([H])([H])[H])C([H])(C(=O)N([H])C2([H])c4c([H])c([H])c([H])c([H])c4C([H])([H])C([H])([H])C2([H])[H])C3([H])[H])C([H])([H])C([H])([H])C([H])([H])[N+]1([H])C([H])([H])c1c([H])c(Cl)c(N([H])C(=O)N2C([H])([H])C([H])([H])C([H])([H])C([H])(n3nc(-c4c([H])c([H])c(Oc5c([H])c([H])c(F)c([H])c5F)c([H])c4[H])c(C(=O)N([H])[H])c3N([H])[H])C2([H])[H])c(C([H])([H])[H])c1C([H])([H])[H])C([H])([H])[H]

$$$$
4:0:0
     RDKit          3D

 99108  0  0  1  0  0  0  0  0999 V2000
  -29.6270  -24.4870   20.6730 C   0  0  0  0  0  0  0  0  0  0  0  0
  -30.8350  -25.0890   20.6640 C   0  0  0  0  0  2  0  0  0  0  0  0
  -26.3920  -24.0170   21.6850 C   0  0  0  0  0  2  0  0  0  0  0  0
  -26.9700  -22.7270   21.0980 C   0  0  0  0  0  2  0  0  0  0  0  0
  -27.4290  -25.1430   21.7970 C   0  0  0  0  0  2  0  0  0  0  0  0
  -28.3680  -22.4170   21.6440 C   0  0  0  0  0  2  0  0  0  0  0  0
  -28.2970  -25.2900   20.5150 C   0  0  0  0  0  3  0  0  0  0  0  0
  -29.4760  -22.9340   20.7760 N   0  0  2  0  0  4  0  0  0  0  0  0
  -29.1890  -22.6240   19.8620 H   0  0  0  0  0  0  0  0  0  0  0  0
  -28.4890  -26.7090   20.2100 O   0  0  0  0  0  0  0  0  0  0  0  0
  -24.6140  -31.8720   23.1970 C   0  0  0  0  0  0  0  0  0  0  0  0
  -27.3440  -27.4910   20.0840 C   0  0  0  0  0  0  0  0  0  0  0  0
  -23.4430  -30.4950   21.5070 C   0  0  0  0  0  3  0  0  0  0  0  0
  -24.9340  -28.9990   20.0720 C   0  0  0  0  0  0  0  0  0  0  0  0
  -25.9730  -30.8750   21.3560 C   0  0  0  0  0  2  0  0  0  0  0  0
  -26.0810  -29.5180   20.6860 C   0  0  0  0  0  0  0  0  0  0  0  0
  -27.2880  -28.7750   20.6820 C   0  0  0  0  0  3  0  0  0  0  0  0
  -26.1790  -27.0000   19.4450 C   0  0  0  0  0  3  0  0  0  0  0  0
  -24.9830  -27.7430   19.4420 C   0  0  0  0  0  3  0  0  0  0  0  0
  -23.6800  -29.8450   20.1170 C   0  0  0  0  0  2  0  0  0  0  0  0
  -24.6940  -31.0930   22.0810 N   0  0  0  0  0  0  0  0  0  0  0  0
  -23.5210  -32.1280   23.7240 O   0  0  0  0  0  0  0  0  0  0  0  0
  -22.7830  -29.4510   22.4380 C   0  0  0  0  0  0  0  0  0  0  0  0
  -21.4600  -29.2730   22.2960 N   0  0  0  0  0  0  0  0  0  0  0  0
  -23.4590  -28.8090   23.2460 O   0  0  0  0  0  0  0  0  0  0  0  0
  -20.9750  -29.8450   21.6190 H   0  0  0  0  0  0  0  0  0  0  0  0
  -18.0850  -28.0530   22.7310 C   0  0  0  0  0  0  0  0  0  0  0  0
  -20.6380  -28.3160   23.0380 C   0  0  0  0  0  3  0  0  0  0  0  0
  -20.7540  -26.8950   22.4370 C   0  0  0  0  0  2  0  0  0  0  0  0
  -19.6650  -26.5900   21.4040 C   0  0  0  0  0  2  0  0  0  0  0  0
  -18.2740  -26.7180   22.0310 C   0  0  0  0  0  2  0  0  0  0  0  0
  -19.1950  -28.8100   23.1920 C   0  0  0  0  0  0  0  0  0  0  0  0
  -18.9630  -30.0610   23.8040 C   0  0  0  0  0  3  0  0  0  0  0  0
  -17.6540  -30.5530   23.9650 C   0  0  0  0  0  3  0  0  0  0  0  0
  -16.5580  -29.7930   23.5220 C   0  0  0  0  0  3  0  0  0  0  0  0
  -16.7750  -28.5450   22.9110 C   0  0  0  0  0  3  0  0  0  0  0  0
  -25.8850  -32.5020   23.8470 C   0  0  0  0  0  3  0  0  0  0  0  0
  -26.3880  -31.7170   25.1210 C   0  0  1  0  0  0  0  0  0  0  0  0
  -25.2810  -31.4550   26.1690 C   0  0  0  0  0  1  0  0  0  0  0  0
  -26.9910  -30.3510   24.7170 C   0  0  0  0  0  1  0  0  0  0  0  0
  -27.5200  -32.5130   25.8120 C   0  0  0  0  0  1  0  0  0  0  0  0
  -25.5670  -33.8950   24.1950 N   0  0  0  0  0  0  0  0  0  0  0  0
  -25.9080  -34.9590   23.4580 C   0  0  0  0  0  0  0  0  0  0  0  0
  -26.5990  -34.8740   22.4380 O   0  0  0  0  0  0  0  0  0  0  0  0
  -24.9710  -34.0350   24.9960 H   0  0  0  0  0  0  0  0  0  0  0  0
  -24.1800  -36.7490   23.0850 C   0  0  0  0  0  1  0  0  0  0  0  0
  -25.4010  -36.3390   23.9250 C   0  0  0  0  0  3  0  0  0  0  0  0
  -27.5080  -37.2160   24.8290 C   0  0  0  0  0  1  0  0  0  0  0  0
  -26.4320  -37.3980   23.8590 N   0  0  0  0  0  0  0  0  0  0  0  0
  -26.0170  -38.3130   24.0170 H   0  0  0  0  0  0  0  0  0  0  0  0
  -30.7590  -22.1480   20.9800 C   0  0  0  0  0  2  0  0  0  0  0  0
  -30.5860  -17.9120   22.2310 C   0  0  0  0  0  3  0  0  0  0  0  0
  -30.7820  -18.9250   23.1810 C   0  0  0  0  0  0  0  0  0  0  0  0
  -30.3960  -18.2170   20.8750 C   0  0  0  0  0  0  0  0  0  0  0  0
  -30.8040  -20.2860   22.7880 C   0  0  0  0  0  0  0  0  0  0  0  0
  -30.4590  -19.5860   20.4540 C   0  0  0  0  0  0  0  0  0  0  0  0
  -30.6650  -20.6420   21.4080 C   0  0  0  0  0  0  0  0  0  0  0  0
  -30.9500  -18.5100   24.6350 C   0  0  0  0  0  1  0  0  0  0  0  0
  -30.9680  -21.3320   23.8950 C   0  0  0  0  0  1  0  0  0  0  0  0
  -30.3180  -19.8900   18.9610 C   0  0  0  0  0  1  0  0  0  0  0  0
  -30.1230  -17.0640   19.8810 C   0  0  0  0  0  2  0  0  0  0  0  0
  -30.6700  -14.6150   20.0060 C   0  0  0  0  0  0  0  0  0  0  0  0
  -30.3150  -12.4290   18.9230 C   0  0  0  0  0  2  0  0  0  0  0  0
  -29.3140  -12.6340   17.7660 C   0  0  0  0  0  2  0  0  0  0  0  0
  -27.8650  -12.4900   18.2750 C   0  0  0  0  0  2  0  0  0  0  0  0
  -27.5940  -13.3180   19.5610 C   0  0  0  0  0  3  0  0  0  0  0  0
  -28.7160  -13.1250   20.6090 C   0  0  0  0  0  2  0  0  0  0  0  0
  -30.0030  -13.4250   19.9620 N   0  0  0  0  0  0  0  0  0  0  0  0
  -31.7830  -14.7650   19.4960 O   0  0  0  0  0  0  0  0  0  0  0  0
  -29.9500  -15.6860   20.4050 N   0  0  0  0  0  0  0  0  0  0  0  0
  -29.0550  -15.4830   20.8270 H   0  0  0  0  0  0  0  0  0  0  0  0
  -25.2430  -13.9000   20.4270 C   0  0  0  0  0  0  0  0  0  0  0  0
  -24.2020  -13.1190   20.8470 C   0  0  0  0  0  0  0  0  0  0  0  0
  -24.6640  -11.7690   20.7690 C   0  0  0  0  0  0  0  0  0  0  0  0
  -26.2740  -13.0270   20.1180 N   0  0  0  0  0  0  0  0  0  0  0  0
  -25.9330  -11.7390   20.3820 N   0  0  0  0  0  0  0  0  0  0  0  0
  -23.9560  -10.5020   20.9860 C   0  0  0  0  0  0  0  0  0  0  0  0
  -24.4230   -9.5440   21.9120 C   0  0  0  0  0  3  0  0  0  0  0  0
  -23.7140   -8.3400   22.1160 C   0  0  0  0  0  3  0  0  0  0  0  0
  -22.5240   -8.0860   21.3940 C   0  0  0  0  0  0  0  0  0  0  0  0
  -22.0760   -9.0320   20.4570 C   0  0  0  0  0  3  0  0  0  0  0  0
  -22.7840  -10.2270   20.2500 C   0  0  0  0  0  3  0  0  0  0  0  0
  -21.7830   -6.9330   21.5090 O   0  0  0  0  0  0  0  0  0  0  0  0
  -21.7420   -6.2190   22.6790 C   0  0  0  0  0  0  0  0  0  0  0  0
  -21.3020   -6.7940   23.8900 C   0  0  0  0  0  3  0  0  0  0  0  0
  -21.2090   -6.0040   25.0520 C   0  0  0  0  0  3  0  0  0  0  0  0
  -21.5440   -4.6380   25.0060 C   0  0  0  0  0  0  0  0  0  0  0  0
  -21.9760   -4.0600   23.7980 C   0  0  0  0  0  3  0  0  0  0  0  0
  -22.0730   -4.8480   22.6380 C   0  0  0  0  0  0  0  0  0  0  0  0
  -22.4690   -4.2820   21.4730 F   0  0  0  0  0  0  0  0  0  0  0  0
  -21.4490   -3.8760   26.1200 F   0  0  0  0  0  0  0  0  0  0  0  0
  -22.8220  -13.5860   21.2120 C   0  0  0  0  0  0  0  0  0  0  0  0
  -22.1560  -12.8790   22.1190 N   0  0  0  0  0  0  0  0  0  0  0  0
  -22.3470  -14.6130   20.7320 O   0  0  0  0  0  0  0  0  0  0  0  0
  -22.5520  -12.0430   22.5230 H   0  0  0  0  0  0  0  0  0  0  0  0
  -21.2320  -13.1710   22.4060 H   0  0  0  0  0  0  0  0  0  0  0  0
  -25.3950  -15.2740   20.2630 N   0  0  0  0  0  0  0  0  0  0  0  0
  -24.6410  -15.9300   20.4330 H   0  0  0  0  0  0  0  0  0  0  0  0
  -26.2280  -15.7190   19.9010 H   0  0  0  0  0  0  0  0  0  0  0  0
  1  8  1  0
  2  1  2  0
  3  5  1  0
  4  6  1  0
  4  3  1  0
  7 10  1  0
  7  1  1  0
  7  5  1  0
  8 51  1  0
  8  6  1  0
  8  9  1  6
 11 22  2  0
 12 10  1  0
 12 17  1  0
 13 21  1  0
 13 23  1  0
 14 20  1  0
 14 16  1  0
 15 21  1  0
 16 15  1  0
 17 16  2  0
 18 12  2  0
 19 18  1  0
 19 14  2  0
 20 13  1  0
 21 11  1  0
 23 25  2  0
 24 23  1  0
 26 24  1  0
 27 36  2  0
 27 32  1  0
 28 24  1  0
 28 32  1  0
 29 28  1  0
 30 31  1  0
 30 29  1  0
 31 27  1  0
 32 33  2  0
 33 34  1  0
 35 34  2  0
 36 35  1  0
 37 11  1  0
 37 42  1  0
 37 38  1  0
 38 41  1  1
 38 39  1  0
 40 38  1  0
 42 45  1  0
 43 47  1  0
 43 42  1  0
 44 43  2  0
 47 46  1  0
 49 47  1  0
 49 50  1  0
 49 48  1  0
 51 57  1  0
 52 53  1  0
 53 58  1  0
 54 52  2  0
 55 53  2  0
 55 59  1  0
 56 54  1  0
 56 57  2  0
 57 55  1  0
 60 56  1  0
 61 70  1  0
 61 54  1  0
 62 70  1  0
 63 68  1  0
 64 65  1  0
 64 63  1  0
 66 65  1  0
 66 75  1  0
 66 67  1  0
 68 62  1  0
 68 67  1  0
 69 62  2  0
 70 71  1  0
 72 73  2  0
 73 92  1  0
 74 73  1  0
 74 77  1  0
 75 76  1  0
 75 72  1  0
 76 74  2  0
 77 78  1  0
 78 79  2  0
 80 83  1  0
 80 79  1  0
 81 80  2  0
 82 81  1  0
 82 77  2  0
 83 84  1  0
 84 85  1  0
 85 86  2  0
 87 86  1  0
 87 91  1  0
 88 87  2  0
 89 84  2  0
 89 88  1  0
 90 89  1  0
 92 93  1  0
 93 96  1  0
 93 95  1  0
 94 92  2  0
 97 72  1  0
 97 98  1  0
 99 97  1  0
M  ISO  4   7 101  10 101  62 100  70 100
M  END
>  <TORSDO>  (5) 
F 19

>  <SCORE>  (5) 
-13.207

>  <name>  (5) 
4

>  <ligand_id>  (5) 
4

>  <original_smiles>  (5) 
[H]C([H])=C1C([H])(Oc2c([H])c([H])c3c(c2[H])C([H])([H])N(C(=O)C([H])(N([H])C(=O)C([H])(N([H])C([H])([H])[H])C([H])([H])[H])C(C([H])([H])[H])(C([H])([H])[H])C([H])([H])[H])C([H])(C(=O)N([H])C2([H])c4c([H])c([H])c([H])c([H])c4C([H])([H])C([H])([H])C2([H])[H])C3([H])[H])C([H])([H])C([H])([H])C([H])([H])C([H])([H])[N+]1([H])C([H])([H])c1c(C([H])([H])[H])c(C([H])([H])[H])c([H])c(C([H])([H])N([H])C(=O)N2C([H])([H])C([H])([H])C([H])([H])C([H])(n3nc(-c4c([H])c([H])c(Oc5c([H])c([H])c(F)c([H])c5F)c([H])c4[H])c(C(=O)N([H])[H])c3N([H])[H])C2([H])[H])c1C([H])([H])[H]

>  <smiles>  (5) 
[H]C([H])=C1C([H])(Oc2c([H])c([H])c3c(c2[H])C([H])([H])N(C(=O)C([H])(N([H])C(=O)C([H])(N([H])C([H])([H])[H])C([H])([H])[H])C(C([H])([H])[H])(C([H])([H])[H])C([H])([H])[H])C([H])(C(=O)N([H])C2([H])c4c([H])c([H])c([H])c([H])c4C([H])([H])C([H])([H])C2([H])[H])C3([H])[H])C([H])([H])C([H])([H])C([H])([H])C([H])([H])[N+]1([H])C([H])([H])c1c(C([H])([H])[H])c(C([H])([H])[H])c([H])c(C([H])([H])N([H])C(=O)N2C([H])([H])C([H])([H])C([H])([H])C([H])(n3nc(-c4c([H])c([H])c(Oc5c([H])c([H])c(F)c([H])c5F)c([H])c4[H])c(C(=O)N([H])[H])c3N([H])[H])C2([H])[H])c1C([H])([H])[H]

$$$$
5:0:0
     RDKit          3D

 94102  0  0  1  0  0  0  0  0999 V2000
  -30.6600  -21.0500   21.6070 C   0  0  0  0  0  2  0  0  0  0  0  0
  -29.4960  -18.8000   21.4960 C   0  0  0  0  0  3  0  0  0  0  0  0
  -31.7360  -17.5190   20.4020 C   0  0  0  0  0  3  0  0  0  0  0  0
  -30.6450  -19.5680   21.2060 C   0  0  0  0  0  0  0  0  0  0  0  0
  -29.4620  -17.4090   21.2630 C   0  0  0  0  0  0  0  0  0  0  0  0
  -31.7700  -18.9150   20.6360 C   0  0  0  0  0  0  0  0  0  0  0  0
  -30.5940  -16.7460   20.7260 C   0  0  0  0  0  0  0  0  0  0  0  0
  -28.2000  -16.6350   21.6120 C   0  0  0  0  0  1  0  0  0  0  0  0
  -33.0400  -19.6790   20.2950 C   0  0  0  0  0  1  0  0  0  0  0  0
  -31.0320  -14.5090   19.6130 C   0  0  0  0  0  0  0  0  0  0  0  0
  -30.5590  -12.4740   18.2920 C   0  0  0  0  0  2  0  0  0  0  0  0
  -29.4620  -12.7910   17.2530 C   0  0  0  0  0  2  0  0  0  0  0  0
  -28.0540  -12.6290   17.8630 C   0  0  0  0  0  2  0  0  0  0  0  0
  -27.9090  -13.3510   19.2280 C   0  0  0  0  0  3  0  0  0  0  0  0
  -29.0920  -12.9890   20.1550 C   0  0  0  0  0  2  0  0  0  0  0  0
  -30.3440  -13.3450   19.4570 N   0  0  0  0  0  0  0  0  0  0  0  0
  -32.0340  -14.7880   18.9460 O   0  0  0  0  0  0  0  0  0  0  0  0
  -30.4980  -15.3330   20.5360 N   0  0  0  0  0  0  0  0  0  0  0  0
  -29.7730  -14.8890   21.0760 H   0  0  0  0  0  0  0  0  0  0  0  0
  -25.6080  -13.9260   20.2350 C   0  0  0  0  0  0  0  0  0  0  0  0
  -24.5960  -13.1360   20.7100 C   0  0  0  0  0  0  0  0  0  0  0  0
  -25.0550  -11.7880   20.5850 C   0  0  0  0  0  0  0  0  0  0  0  0
  -26.6220  -13.0580   19.8560 N   0  0  0  0  0  0  0  0  0  0  0  0
  -26.2980  -11.7670   20.1190 N   0  0  0  0  0  0  0  0  0  0  0  0
  -24.3630  -10.5160   20.8260 C   0  0  0  0  0  0  0  0  0  0  0  0
  -24.8210   -9.6000   21.7990 C   0  0  0  0  0  3  0  0  0  0  0  0
  -24.1290   -8.3900   22.0250 C   0  0  0  0  0  3  0  0  0  0  0  0
  -22.9660   -8.0880   21.2780 C   0  0  0  0  0  0  0  0  0  0  0  0
  -22.5270   -8.9930   20.2960 C   0  0  0  0  0  3  0  0  0  0  0  0
  -23.2200  -10.1940   20.0680 C   0  0  0  0  0  3  0  0  0  0  0  0
  -22.2440   -6.9260   21.4120 O   0  0  0  0  0  0  0  0  0  0  0  0
  -22.0560   -6.3320   22.6340 C   0  0  0  0  0  0  0  0  0  0  0  0
  -21.4640   -7.0220   23.7150 C   0  0  0  0  0  3  0  0  0  0  0  0
  -21.2270   -6.3520   24.9310 C   0  0  0  0  0  3  0  0  0  0  0  0
  -21.5700   -4.9940   25.0670 C   0  0  0  0  0  0  0  0  0  0  0  0
  -22.1550   -4.3040   23.9900 C   0  0  0  0  0  3  0  0  0  0  0  0
  -22.3940   -4.9710   22.7760 C   0  0  0  0  0  0  0  0  0  0  0  0
  -22.9380   -4.2970   21.7350 F   0  0  0  0  0  0  0  0  0  0  0  0
  -21.3350   -4.3470   26.2330 F   0  0  0  0  0  0  0  0  0  0  0  0
  -23.2400  -13.5930   21.1670 C   0  0  0  0  0  0  0  0  0  0  0  0
  -22.6490  -12.8940   22.1290 N   0  0  0  0  0  0  0  0  0  0  0  0
  -22.7180  -14.6070   20.7040 O   0  0  0  0  0  0  0  0  0  0  0  0
  -23.0860  -12.0750   22.5240 H   0  0  0  0  0  0  0  0  0  0  0  0
  -21.7460  -13.1840   22.4770 H   0  0  0  0  0  0  0  0  0  0  0  0
  -25.7420  -15.3010   20.0760 N   0  0  0  0  0  0  0  0  0  0  0  0
  -24.9900  -15.9450   20.2920 H   0  0  0  0  0  0  0  0  0  0  0  0
  -26.5410  -15.7540   19.6500 H   0  0  0  0  0  0  0  0  0  0  0  0
  -29.9910  -21.9620   20.6480 N   0  0  0  0  0  4  0  0  0  0  0  0
  -29.0850  -21.5820   20.4260 H   0  0  0  0  0  0  0  0  0  0  0  0
  -30.5320  -21.9820   19.8000 H   0  0  0  0  0  0  0  0  0  0  0  0
  -29.8290  -23.3450   21.1740 C   0  0  0  0  0  2  0  0  0  0  0  0
  -29.3230  -24.3740   20.1320 C   0  0  0  0  0  2  0  0  0  0  0  0
  -29.1000  -25.7780   20.7450 C   0  0  0  0  0  2  0  0  0  0  0  0
  -28.8890  -26.7650   19.7330 O   0  0  0  0  0  0  0  0  0  0  0  0
  -24.5760  -31.4680   22.9250 C   0  0  0  0  0  0  0  0  0  0  0  0
  -27.6680  -27.3940   19.7720 C   0  0  0  0  0  0  0  0  0  0  0  0
  -23.5430  -30.0560   21.1760 C   0  0  0  0  0  3  0  0  0  0  0  0
  -25.1640  -28.6930   19.7520 C   0  0  0  0  0  0  0  0  0  0  0  0
  -26.0370  -30.6150   21.0960 C   0  0  0  0  0  2  0  0  0  0  0  0
  -26.2530  -29.2830   20.4090 C   0  0  0  0  0  0  0  0  0  0  0  0
  -27.5100  -28.6390   20.4200 C   0  0  0  0  0  3  0  0  0  0  0  0
  -26.5680  -26.8100   19.1150 C   0  0  0  0  0  3  0  0  0  0  0  0
  -25.3150  -27.4530   19.1050 C   0  0  0  0  0  3  0  0  0  0  0  0
  -23.8570  -29.4540   19.7790 C   0  0  0  0  0  2  0  0  0  0  0  0
  -24.7340  -30.7260   21.7930 N   0  0  0  0  0  0  0  0  0  0  0  0
  -23.4590  -31.6350   23.4320 O   0  0  0  0  0  0  0  0  0  0  0  0
  -22.9360  -28.9470   22.0650 C   0  0  0  0  0  0  0  0  0  0  0  0
  -21.6180  -28.7250   21.9270 N   0  0  0  0  0  0  0  0  0  0  0  0
  -23.6460  -28.2920   22.8320 O   0  0  0  0  0  0  0  0  0  0  0  0
  -21.1060  -29.3090   21.2820 H   0  0  0  0  0  0  0  0  0  0  0  0
  -18.2780  -27.4410   22.4190 C   0  0  0  0  0  0  0  0  0  0  0  0
  -20.8410  -27.7070   22.6310 C   0  0  0  0  0  3  0  0  0  0  0  0
  -20.9400  -26.3390   21.9160 C   0  0  0  0  0  2  0  0  0  0  0  0
  -19.8070  -26.1000   20.9120 C   0  0  0  0  0  2  0  0  0  0  0  0
  -18.4460  -26.1640   21.6130 C   0  0  0  0  0  2  0  0  0  0  0  0
  -19.4030  -28.1730   22.8840 C   0  0  0  0  0  0  0  0  0  0  0  0
  -19.1920  -29.3720   23.5990 C   0  0  0  0  0  3  0  0  0  0  0  0
  -17.8880  -29.8380   23.8540 C   0  0  0  0  0  3  0  0  0  0  0  0
  -16.7790  -29.1010   23.4070 C   0  0  0  0  0  3  0  0  0  0  0  0
  -16.9740  -27.9040   22.6950 C   0  0  0  0  0  3  0  0  0  0  0  0
  -25.7880  -32.1620   23.6240 C   0  0  0  0  0  3  0  0  0  0  0  0
  -25.3710  -33.5220   23.9880 N   0  0  0  0  0  0  0  0  0  0  0  0
  -25.6530  -34.6200   23.2760 C   0  0  0  0  0  0  0  0  0  0  0  0
  -26.3620  -34.6000   22.2660 O   0  0  0  0  0  0  0  0  0  0  0  0
  -24.7390  -33.6070   24.7720 H   0  0  0  0  0  0  0  0  0  0  0  0
  -23.8040  -36.2880   22.9230 C   0  0  0  0  0  1  0  0  0  0  0  0
  -25.0500  -35.9520   23.7580 C   0  0  0  0  0  3  0  0  0  0  0  0
  -27.0880  -36.9680   24.6750 C   0  0  0  0  0  1  0  0  0  0  0  0
  -26.0030  -37.0830   23.7050 N   0  0  0  0  0  0  0  0  0  0  0  0
  -25.5250  -37.9650   23.8670 H   0  0  0  0  0  0  0  0  0  0  0  0
  -26.3090  -31.3780   24.8910 C   0  0  1  0  0  0  0  0  0  0  0  0
  -25.1910  -31.0000   25.8890 C   0  0  0  0  0  1  0  0  0  0  0  0
  -27.0270  -30.0750   24.4680 C   0  0  0  0  0  1  0  0  0  0  0  0
  -27.3530  -32.2340   25.6450 C   0  0  0  0  0  1  0  0  0  0  0  0
  3  6  2  0
  3  7  1  0
  4  2  2  0
  4  1  1  0
  5  2  1  0
  5  8  1  0
  6  4  1  0
  7  5  2  0
  9  6  1  0
 10 18  1  0
 11 16  1  0
 12 13  1  0
 12 11  1  0
 14 13  1  0
 14 23  1  0
 14 15  1  0
 16 10  1  0
 16 15  1  0
 17 10  2  0
 18  7  1  0
 18 19  1  0
 20 21  2  0
 21 40  1  0
 22 21  1  0
 22 25  1  0
 23 24  1  0
 23 20  1  0
 24 22  2  0
 25 26  1  0
 26 27  2  0
 28 31  1  0
 28 27  1  0
 29 28  2  0
 30 29  1  0
 30 25  2  0
 31 32  1  0
 32 37  2  0
 32 33  1  0
 33 34  2  0
 34 35  1  0
 35 39  1  0
 36 35  2  0
 37 36  1  0
 38 37  1  0
 40 41  1  0
 41 44  1  0
 41 43  1  0
 42 40  2  0
 45 20  1  0
 45 46  1  0
 47 45  1  0
 48 51  1  0
 48  1  1  0
 49 48  1  0
 50 48  1  0
 52 53  1  0
 52 51  1  0
 54 56  1  0
 54 53  1  0
 55 66  2  0
 56 61  1  0
 57 65  1  0
 57 67  1  0
 58 64  1  0
 58 60  1  0
 59 65  1  0
 60 61  2  0
 60 59  1  0
 62 56  2  0
 63 62  1  0
 63 58  2  0
 64 57  1  0
 65 55  1  0
 67 69  2  0
 68 67  1  0
 70 68  1  0
 71 80  2  0
 71 76  1  0
 72 68  1  0
 72 76  1  0
 73 72  1  0
 74 75  1  0
 74 73  1  0
 75 71  1  0
 76 77  2  0
 77 78  1  0
 79 78  2  0
 80 79  1  0
 81 55  1  0
 81 82  1  0
 81 91  1  0
 82 85  1  0
 83 87  1  0
 83 82  1  0
 84 83  2  0
 87 86  1  0
 89 87  1  0
 89 90  1  0
 89 88  1  0
 91 94  1  1
 91 92  1  0
 93 91  1  0
M  ISO  4  10 100  18 100  53 101  54 101
M  END
>  <TORSDO>  (6) 
F 21

>  <SCORE>  (6) 
-9.217

>  <name>  (6) 
5

>  <ligand_id>  (6) 
5

>  <original_smiles>  (6) 
[H]c1c([H])c([H])c2c(c1[H])C([H])([H])C([H])([H])C([H])([H])C2([H])N([H])C(=O)C1([H])N(C(=O)C([H])(N([H])C(=O)C([H])(N([H])C([H])([H])[H])C([H])([H])[H])C(C([H])([H])[H])(C([H])([H])[H])C([H])([H])[H])C([H])([H])c2c([H])c(OC([H])([H])C([H])([H])C([H])([H])[N+]([H])([H])C([H])([H])c3c([H])c(C([H])([H])[H])c(N([H])C(=O)N4C([H])([H])C([H])([H])C([H])([H])C([H])(n5nc(-c6c([H])c([H])c(Oc7c([H])c([H])c(F)c([H])c7F)c([H])c6[H])c(C(=O)N([H])[H])c5N([H])[H])C4([H])[H])c([H])c3C([H])([H])[H])c([H])c([H])c2C1([H])[H]

>  <smiles>  (6) 
[H]c1c([H])c([H])c2c(c1[H])C([H])([H])C([H])([H])C([H])([H])C2([H])N([H])C(=O)C1([H])N(C(=O)C([H])(N([H])C(=O)C([H])(N([H])C([H])([H])[H])C([H])([H])[H])C(C([H])([H])[H])(C([H])([H])[H])C([H])([H])[H])C([H])([H])c2c([H])c(OC([H])([H])C([H])([H])C([H])([H])[N+]([H])([H])C([H])([H])c3c([H])c(C([H])([H])[H])c(N([H])C(=O)N4C([H])([H])C([H])([H])C([H])([H])C([H])(n5nc(-c6c([H])c([H])c(Oc7c([H])c([H])c(F)c([H])c7F)c([H])c6[H])c(C(=O)N([H])[H])c5N([H])[H])C4([H])[H])c([H])c3C([H])([H])[H])c([H])c([H])c2C1([H])[H]

$$$$
6:0:0
     RDKit          3D

102111  0  0  1  0  0  0  0  0999 V2000
  -30.1300  -20.5040   21.7030 C   0  0  0  0  0  3  0  0  0  0  0  0
  -32.3080  -21.0350   20.0430 C   0  0  0  0  0  3  0  0  0  0  0  0
  -30.4990  -21.8530   21.4460 C   0  0  0  0  0  0  0  0  0  0  0  0
  -30.8400  -19.4030   21.1500 C   0  0  0  0  0  0  0  0  0  0  0  0
  -31.5830  -22.1250   20.5750 C   0  0  0  0  0  0  0  0  0  0  0  0
  -31.9530  -19.6920   20.3160 C   0  0  0  0  0  0  0  0  0  0  0  0
  -32.7810  -18.5900   19.6770 C   0  0  0  0  0  1  0  0  0  0  0  0
  -29.6850  -22.9460   22.0020 C   0  0  0  0  0  3  0  0  0  0  0  0
  -29.8260  -23.4310   23.2480 C   0  0  0  0  0  3  0  0  0  0  0  0
  -29.0710  -24.9250   25.0450 C   0  0  0  0  0  2  0  0  0  0  0  0
  -29.0320  -24.5290   23.7640 C   0  0  0  0  0  3  0  0  0  0  0  0
  -32.0420  -23.5560   20.2320 C   0  0  0  0  0  2  0  0  0  0  0  0
  -29.1680  -25.9670   18.0320 C   0  0  0  0  0  2  0  0  0  0  0  0
  -30.5760  -25.8020   17.4190 C   0  0  0  0  0  2  0  0  0  0  0  0
  -29.9910  -24.9850   20.2120 C   0  0  0  0  0  2  0  0  0  0  0  0
  -29.2610  -26.1960   19.5450 C   0  0  0  0  0  3  0  0  0  0  0  0
  -31.6620  -25.2920   18.4060 C   0  0  0  0  0  3  0  0  0  0  0  0
  -32.8430  -24.7280   17.5860 C   0  0  0  0  0  1  0  0  0  0  0  0
  -31.0710  -24.3350   19.3920 N   0  0  1  0  0  4  0  0  0  0  0  0
  -30.6120  -23.6390   18.8250 H   0  0  0  0  0  0  0  0  0  0  0  0
  -28.0020  -26.2120   20.2120 O   0  0  0  0  0  0  0  0  0  0  0  0
  -24.5070  -31.6400   23.1280 C   0  0  0  0  0  0  0  0  0  0  0  0
  -26.9910  -27.1220   20.0060 C   0  0  0  0  0  0  0  0  0  0  0  0
  -23.2380  -30.2680   21.5090 C   0  0  0  0  0  3  0  0  0  0  0  0
  -24.6330  -28.6920   20.0540 C   0  0  0  0  0  0  0  0  0  0  0  0
  -25.7710  -30.5540   21.2740 C   0  0  0  0  0  2  0  0  0  0  0  0
  -25.8160  -29.1870   20.6200 C   0  0  0  0  0  0  0  0  0  0  0  0
  -26.9980  -28.4070   20.5980 C   0  0  0  0  0  3  0  0  0  0  0  0
  -25.7930  -26.6430   19.4340 C   0  0  0  0  0  3  0  0  0  0  0  0
  -24.6170  -27.4210   19.4530 C   0  0  0  0  0  3  0  0  0  0  0  0
  -23.4070  -29.5770   20.1280 C   0  0  0  0  0  2  0  0  0  0  0  0
  -24.5250  -30.8340   22.0290 N   0  0  0  0  0  0  0  0  0  0  0  0
  -23.4440  -31.9500   23.6830 O   0  0  0  0  0  0  0  0  0  0  0  0
  -22.5660  -29.2750   22.4870 C   0  0  0  0  0  0  0  0  0  0  0  0
  -21.2390  -29.1100   22.3570 N   0  0  0  0  0  0  0  0  0  0  0  0
  -23.2360  -28.6570   23.3170 O   0  0  0  0  0  0  0  0  0  0  0  0
  -20.7630  -29.6560   21.6530 H   0  0  0  0  0  0  0  0  0  0  0  0
  -17.8410  -28.0010   22.8910 C   0  0  0  0  0  0  0  0  0  0  0  0
  -20.4050  -28.1990   23.1410 C   0  0  0  0  0  3  0  0  0  0  0  0
  -20.4700  -26.7620   22.5770 C   0  0  0  0  0  2  0  0  0  0  0  0
  -19.3520  -26.4580   21.5730 C   0  0  0  0  0  2  0  0  0  0  0  0
  -17.9790  -26.6420   22.2250 C   0  0  0  0  0  2  0  0  0  0  0  0
  -18.9800  -28.7390   23.3070 C   0  0  0  0  0  0  0  0  0  0  0  0
  -18.7980  -30.0110   23.8920 C   0  0  0  0  0  3  0  0  0  0  0  0
  -17.5070  -30.5450   24.0650 C   0  0  0  0  0  3  0  0  0  0  0  0
  -16.3820  -29.8050   23.6640 C   0  0  0  0  0  3  0  0  0  0  0  0
  -16.5500  -28.5350   23.0840 C   0  0  0  0  0  3  0  0  0  0  0  0
  -25.8230  -32.2350   23.7250 C   0  0  0  0  0  3  0  0  0  0  0  0
  -25.5370  -33.6150   24.1400 N   0  0  0  0  0  0  0  0  0  0  0  0
  -25.8400  -34.7030   23.4200 C   0  0  0  0  0  0  0  0  0  0  0  0
  -26.4600  -34.6510   22.3540 O   0  0  0  0  0  0  0  0  0  0  0  0
  -24.9830  -33.7300   24.9770 H   0  0  0  0  0  0  0  0  0  0  0  0
  -24.0960  -36.5070   23.2430 C   0  0  0  0  0  1  0  0  0  0  0  0
  -25.3800  -36.0690   23.9680 C   0  0  0  0  0  3  0  0  0  0  0  0
  -27.5550  -36.9170   24.7280 C   0  0  0  0  0  1  0  0  0  0  0  0
  -26.4060  -37.1280   23.8500 N   0  0  0  0  0  0  0  0  0  0  0  0
  -26.0090  -38.0400   24.0600 H   0  0  0  0  0  0  0  0  0  0  0  0
  -26.3930  -31.3940   24.9330 C   0  0  1  0  0  0  0  0  0  0  0  0
  -25.3370  -31.0760   26.0170 C   0  0  0  0  0  1  0  0  0  0  0  0
  -26.9790  -30.0510   24.4390 C   0  0  0  0  0  1  0  0  0  0  0  0
  -27.5540  -32.1620   25.6060 C   0  0  0  0  0  1  0  0  0  0  0  0
  -30.2980  -17.9570   21.3250 C   0  0  0  0  0  2  0  0  0  0  0  0
  -31.2750  -16.8330   21.5130 N   0  0  0  0  0  4  0  0  0  0  0  0
  -31.9050  -17.0680   22.2620 H   0  0  0  0  0  0  0  0  0  0  0  0
  -31.8450  -16.7130   20.6930 H   0  0  0  0  0  0  0  0  0  0  0  0
  -30.6540  -15.4940   21.7960 C   0  0  0  0  0  2  0  0  0  0  0  0
  -31.2450  -14.3200   20.9640 C   0  0  0  0  0  0  0  0  0  0  0  0
  -30.8790  -12.2400   19.6460 C   0  0  0  0  0  2  0  0  0  0  0  0
  -29.9480  -12.5070   18.4420 C   0  0  0  0  0  2  0  0  0  0  0  0
  -28.4650  -12.3930   18.8470 C   0  0  0  0  0  2  0  0  0  0  0  0
  -28.1370  -13.1810   20.1410 C   0  0  0  0  0  3  0  0  0  0  0  0
  -29.1780  -12.8970   21.2510 C   0  0  0  0  0  2  0  0  0  0  0  0
  -30.5190  -13.1860   20.7180 N   0  0  0  0  0  0  0  0  0  0  0  0
  -32.3550  -14.5000   20.4540 O   0  0  0  0  0  0  0  0  0  0  0  0
  -25.7620  -13.8290   20.8910 C   0  0  0  0  0  0  0  0  0  0  0  0
  -24.6560  -13.0810   21.1890 C   0  0  0  0  0  0  0  0  0  0  0  0
  -25.0540  -11.7150   21.0460 C   0  0  0  0  0  0  0  0  0  0  0  0
  -26.7680  -12.9240   20.5910 N   0  0  0  0  0  0  0  0  0  0  0  0
  -26.3460  -11.6410   20.7430 N   0  0  0  0  0  0  0  0  0  0  0  0
  -24.2670  -10.4760   21.1240 C   0  0  0  0  0  0  0  0  0  0  0  0
  -24.6630   -9.4000   21.9480 C   0  0  0  0  0  3  0  0  0  0  0  0
  -23.8810   -8.2260   22.0200 C   0  0  0  0  0  3  0  0  0  0  0  0
  -22.6850   -8.1240   21.2700 C   0  0  0  0  0  0  0  0  0  0  0  0
  -22.3080   -9.1880   20.4300 C   0  0  0  0  0  3  0  0  0  0  0  0
  -23.0930  -10.3520   20.3570 C   0  0  0  0  0  3  0  0  0  0  0  0
  -21.8740   -7.0150   21.2600 O   0  0  0  0  0  0  0  0  0  0  0  0
  -21.7780   -6.1830   22.3460 C   0  0  0  0  0  0  0  0  0  0  0  0
  -21.3970   -6.6580   23.6200 C   0  0  0  0  0  3  0  0  0  0  0  0
  -21.2460   -5.7560   24.6910 C   0  0  0  0  0  3  0  0  0  0  0  0
  -21.4660   -4.3800   24.4900 C   0  0  0  0  0  0  0  0  0  0  0  0
  -21.8420   -3.9040   23.2220 C   0  0  0  0  0  3  0  0  0  0  0  0
  -21.9970   -4.8030   22.1530 C   0  0  0  0  0  0  0  0  0  0  0  0
  -22.3390   -4.3360   20.9270 F   0  0  0  0  0  0  0  0  0  0  0  0
  -21.3110   -3.5120   25.5180 F   0  0  0  0  0  0  0  0  0  0  0  0
  -23.2770  -13.5950   21.4910 C   0  0  0  0  0  0  0  0  0  0  0  0
  -22.5180  -12.8750   22.3080 N   0  0  0  0  0  0  0  0  0  0  0  0
  -22.8810  -14.6690   21.0370 O   0  0  0  0  0  0  0  0  0  0  0  0
  -22.8520  -12.0080   22.7020 H   0  0  0  0  0  0  0  0  0  0  0  0
  -21.5910  -13.1970   22.5490 H   0  0  0  0  0  0  0  0  0  0  0  0
  -25.9950  -15.2000   20.8300 N   0  0  0  0  0  0  0  0  0  0  0  0
  -25.2600  -15.8830   20.9790 H   0  0  0  0  0  0  0  0  0  0  0  0
  -26.8670  -15.6170   20.5300 H   0  0  0  0  0  0  0  0  0  0  0  0
  2  6  2  0
  2  5  1  0
  3  1  1  0
  3  8  1  0
  4 62  1  0
  4  1  2  0
  5  3  2  0
  6  4  1  0
  7  6  1  0
  8  9  2  0
  9 11  1  0
 11 10  2  0
 12  5  1  0
 13 16  1  0
 14 13  1  0
 14 17  1  0
 16 15  1  0
 16 21  1  0
 17 18  1  0
 17 19  1  0
 19 15  1  0
 19 12  1  0
 19 20  1  6
 22 33  2  0
 23 21  1  0
 23 28  1  0
 24 32  1  0
 24 34  1  0
 25 31  1  0
 25 27  1  0
 26 32  1  0
 27 26  1  0
 28 27  2  0
 29 30  1  0
 29 23  2  0
 30 25  2  0
 31 24  1  0
 32 22  1  0
 34 36  2  0
 35 34  1  0
 37 35  1  0
 38 47  2  0
 38 43  1  0
 39 35  1  0
 39 43  1  0
 40 39  1  0
 41 42  1  0
 41 40  1  0
 42 38  1  0
 43 44  2  0
 44 45  1  0
 46 45  2  0
 47 46  1  0
 48 22  1  0
 48 49  1  0
 48 58  1  0
 49 52  1  0
 50 54  1  0
 50 49  1  0
 51 50  2  0
 54 53  1  0
 56 54  1  0
 56 57  1  0
 56 55  1  0
 58 61  1  1
 58 59  1  0
 60 58  1  0
 62 63  1  0
 63 66  1  0
 63 64  1  0
 65 63  1  0
 67 66  1  0
 68 73  1  0
 69 70  1  0
 69 68  1  0
 71 70  1  0
 71 78  1  0
 71 72  1  0
 73 67  1  0
 73 72  1  0
 74 67  2  0
 75 76  2  0
 76 95  1  0
 77 80  1  0
 77 76  1  0
 78 79  1  0
 78 75  1  0
 79 77  2  0
 80 81  1  0
 81 82  2  0
 83 82  1  0
 84 83  2  0
 85 84  1  0
 85 80  2  0
 86 83  1  0
 86 87  1  0
 87 88  1  0
 88 89  2  0
 90 89  1  0
 90 94  1  0
 91 90  2  0
 92 87  2  0
 92 91  1  0
 93 92  1  0
 95 96  1  0
 96 99  1  0
 96 98  1  0
 97 95  2  0
100 75  1  0
100101  1  0
102100  1  0
M  ISO  4  16 101  21 101  66 100  67 100
M  END
>  <TORSDO>  (7) 
F 23

>  <SCORE>  (7) 
-10.499

>  <name>  (7) 
6

>  <ligand_id>  (7) 
6

>  <original_smiles>  (7) 
[H]C([H])=C([H])C([H])=C([H])c1c([H])c(C([H])([H])[N+]([H])([H])C([H])([H])C(=O)N2C([H])([H])C([H])([H])C([H])([H])C([H])(n3nc(-c4c([H])c([H])c(Oc5c([H])c([H])c(F)c([H])c5F)c([H])c4[H])c(C(=O)N([H])[H])c3N([H])[H])C2([H])[H])c(C([H])([H])[H])c([H])c1C([H])([H])[N+]1([H])C([H])([H])C([H])(Oc2c([H])c([H])c3c(c2[H])C([H])([H])N(C(=O)C([H])(N([H])C(=O)C([H])(N([H])C([H])([H])[H])C([H])([H])[H])C(C([H])([H])[H])(C([H])([H])[H])C([H])([H])[H])C([H])(C(=O)N([H])C2([H])c4c([H])c([H])c([H])c([H])c4C([H])([H])C([H])([H])C2([H])[H])C3([H])[H])C([H])([H])C([H])([H])C1([H])C([H])([H])[H]

>  <smiles>  (7) 
[H]C([H])=C([H])C([H])=C([H])c1c([H])c(C([H])([H])[N+]([H])([H])C([H])([H])C(=O)N2C([H])([H])C([H])([H])C([H])([H])C([H])(n3nc(-c4c([H])c([H])c(Oc5c([H])c([H])c(F)c([H])c5F)c([H])c4[H])c(C(=O)N([H])[H])c3N([H])[H])C2([H])[H])c(C([H])([H])[H])c([H])c1C([H])([H])[N+]1([H])C([H])([H])C([H])(Oc2c([H])c([H])c3c(c2[H])C([H])([H])N(C(=O)C([H])(N([H])C(=O)C([H])(N([H])C([H])([H])[H])C([H])([H])[H])C(C([H])([H])[H])(C([H])([H])[H])C([H])([H])[H])C([H])(C(=O)N([H])C2([H])c4c([H])c([H])c([H])c([H])c4C([H])([H])C([H])([H])C2([H])[H])C3([H])[H])C([H])([H])C([H])([H])C1([H])C([H])([H])[H]

$$$$
7:0:0
     RDKit          3D

 99108  0  0  1  0  0  0  0  0999 V2000
  -28.0060  -23.9560   20.7770 C   0  0  0  0  0  0  0  0  0  0  0  0
  -26.6560  -23.8930   20.8260 C   0  0  0  0  0  3  0  0  0  0  0  0
  -30.3850  -25.1220   22.7730 C   0  0  0  0  0  2  0  0  0  0  0  0
  -30.3170  -23.5850   22.8740 C   0  0  0  0  0  2  0  0  0  0  0  0
  -29.1130  -25.7860   22.2200 C   0  0  0  0  0  2  0  0  0  0  0  0
  -30.2470  -22.8340   21.5220 C   0  0  0  0  0  2  0  0  0  0  0  0
  -28.7820  -25.3360   20.7890 C   0  0  0  0  0  3  0  0  0  0  0  0
  -28.8590  -22.6500   21.0120 N   0  0  2  0  0  4  0  0  0  0  0  0
  -28.4200  -22.2080   21.8030 H   0  0  0  0  0  0  0  0  0  0  0  0
  -24.4820  -22.7950   20.9570 C   0  0  0  0  0  2  0  0  0  0  0  0
  -25.8200  -22.7210   21.0110 C   0  0  0  0  0  3  0  0  0  0  0  0
  -28.3630  -26.5110   19.9790 O   0  0  0  0  0  0  0  0  0  0  0  0
  -24.6250  -31.8620   23.2040 C   0  0  0  0  0  0  0  0  0  0  0  0
  -27.2210  -27.3020   20.1480 C   0  0  0  0  0  0  0  0  0  0  0  0
  -23.4220  -30.4830   21.5460 C   0  0  0  0  0  3  0  0  0  0  0  0
  -24.8710  -28.9270   20.1260 C   0  0  0  0  0  0  0  0  0  0  0  0
  -25.9630  -30.7810   21.3860 C   0  0  0  0  0  2  0  0  0  0  0  0
  -26.0350  -29.4000   20.7470 C   0  0  0  0  0  0  0  0  0  0  0  0
  -27.2140  -28.5960   20.7570 C   0  0  0  0  0  3  0  0  0  0  0  0
  -26.0490  -26.8980   19.4790 C   0  0  0  0  0  3  0  0  0  0  0  0
  -24.8760  -27.6780   19.4880 C   0  0  0  0  0  3  0  0  0  0  0  0
  -23.6420  -29.8130   20.1640 C   0  0  0  0  0  2  0  0  0  0  0  0
  -24.6880  -31.0610   22.1000 N   0  0  0  0  0  0  0  0  0  0  0  0
  -23.5410  -32.1440   23.7350 O   0  0  0  0  0  0  0  0  0  0  0  0
  -22.7480  -29.4630   22.4960 C   0  0  0  0  0  0  0  0  0  0  0  0
  -21.4190  -29.3060   22.3710 N   0  0  0  0  0  0  0  0  0  0  0  0
  -23.4200  -28.8170   23.3030 O   0  0  0  0  0  0  0  0  0  0  0  0
  -20.9350  -29.8790   21.6950 H   0  0  0  0  0  0  0  0  0  0  0  0
  -18.0310  -28.1400   22.8530 C   0  0  0  0  0  0  0  0  0  0  0  0
  -20.5910  -28.3680   23.1310 C   0  0  0  0  0  3  0  0  0  0  0  0
  -20.6800  -26.9430   22.5380 C   0  0  0  0  0  2  0  0  0  0  0  0
  -19.5750  -26.6460   21.5190 C   0  0  0  0  0  2  0  0  0  0  0  0
  -18.1940  -26.7970   22.1620 C   0  0  0  0  0  2  0  0  0  0  0  0
  -19.1560  -28.8860   23.2930 C   0  0  0  0  0  0  0  0  0  0  0  0
  -18.9470  -30.1450   23.8950 C   0  0  0  0  0  3  0  0  0  0  0  0
  -17.6470  -30.6600   24.0610 C   0  0  0  0  0  3  0  0  0  0  0  0
  -16.5370  -29.9100   23.6350 C   0  0  0  0  0  3  0  0  0  0  0  0
  -16.7290  -28.6520   23.0380 C   0  0  0  0  0  3  0  0  0  0  0  0
  -25.9100  -32.4790   23.8370 C   0  0  0  0  0  3  0  0  0  0  0  0
  -26.4480  -31.6600   25.0730 C   0  0  1  0  0  0  0  0  0  0  0  0
  -25.3690  -31.3750   26.1420 C   0  0  0  0  0  1  0  0  0  0  0  0
  -27.0350  -30.3040   24.6160 C   0  0  0  0  0  1  0  0  0  0  0  0
  -27.6030  -32.4330   25.7520 C   0  0  0  0  0  1  0  0  0  0  0  0
  -25.5940  -33.8600   24.2290 N   0  0  0  0  0  0  0  0  0  0  0  0
  -25.9070  -34.9460   23.5120 C   0  0  0  0  0  0  0  0  0  0  0  0
  -26.5630  -34.8920   22.4670 O   0  0  0  0  0  0  0  0  0  0  0  0
  -25.0090  -33.9760   25.0440 H   0  0  0  0  0  0  0  0  0  0  0  0
  -24.1480  -36.7270   23.2630 C   0  0  0  0  0  1  0  0  0  0  0  0
  -25.4130  -36.3090   24.0330 C   0  0  0  0  0  3  0  0  0  0  0  0
  -27.5580  -37.1830   24.8460 C   0  0  0  0  0  1  0  0  0  0  0  0
  -26.4290  -37.3790   23.9410 N   0  0  0  0  0  0  0  0  0  0  0  0
  -26.0160  -38.2860   24.1400 H   0  0  0  0  0  0  0  0  0  0  0  0
  -28.7930  -21.5250   19.9800 C   0  0  0  0  0  2  0  0  0  0  0  0
  -28.4740  -19.2760   21.3130 C   0  0  0  0  0  3  0  0  0  0  0  0
  -30.4260  -17.8840   19.8790 C   0  0  0  0  0  3  0  0  0  0  0  0
  -29.2020  -20.0270   20.3520 C   0  0  0  0  0  0  0  0  0  0  0  0
  -28.6970  -17.8820   21.5470 C   0  0  0  0  0  0  0  0  0  0  0  0
  -30.2080  -19.2850   19.6510 C   0  0  0  0  0  0  0  0  0  0  0  0
  -29.6680  -17.1310   20.8140 C   0  0  0  0  0  0  0  0  0  0  0  0
  -27.8550  -17.1940   22.6100 C   0  0  0  0  0  1  0  0  0  0  0  0
  -31.0500  -19.9600   18.5830 C   0  0  0  0  0  1  0  0  0  0  0  0
  -30.5750  -14.6750   20.5240 C   0  0  0  0  0  0  0  0  0  0  0  0
  -30.4470  -12.4210   19.4600 C   0  0  0  0  0  2  0  0  0  0  0  0
  -29.5150  -12.5250   18.2310 C   0  0  0  0  0  2  0  0  0  0  0  0
  -28.0370  -12.3510   18.6390 C   0  0  0  0  0  2  0  0  0  0  0  0
  -27.6540  -13.2160   19.8690 C   0  0  0  0  0  3  0  0  0  0  0  0
  -28.6940  -13.0530   21.0010 C   0  0  0  0  0  2  0  0  0  0  0  0
  -30.0080  -13.4270   20.4510 N   0  0  0  0  0  0  0  0  0  0  0  0
  -31.7160  -14.8770   20.0950 O   0  0  0  0  0  0  0  0  0  0  0  0
  -29.7610  -15.6730   21.0110 N   0  0  0  0  0  0  0  0  0  0  0  0
  -28.9560  -15.2870   21.4780 H   0  0  0  0  0  0  0  0  0  0  0  0
  -25.2550  -13.8150   20.5620 C   0  0  0  0  0  0  0  0  0  0  0  0
  -24.1830  -13.0430   20.9180 C   0  0  0  0  0  0  0  0  0  0  0  0
  -24.6400  -11.6900   20.8740 C   0  0  0  0  0  0  0  0  0  0  0  0
  -26.2980  -12.9340   20.3310 N   0  0  0  0  0  0  0  0  0  0  0  0
  -25.9320  -11.6500   20.5760 N   0  0  0  0  0  0  0  0  0  0  0  0
  -23.9070  -10.4290   21.0410 C   0  0  0  0  0  0  0  0  0  0  0  0
  -24.3610   -9.4220   21.9200 C   0  0  0  0  0  3  0  0  0  0  0  0
  -23.6280   -8.2250   22.0770 C   0  0  0  0  0  3  0  0  0  0  0  0
  -22.4280   -8.0280   21.3540 C   0  0  0  0  0  0  0  0  0  0  0  0
  -21.9920   -9.0250   20.4640 C   0  0  0  0  0  3  0  0  0  0  0  0
  -22.7250  -10.2130   20.3050 C   0  0  0  0  0  3  0  0  0  0  0  0
  -21.6640   -6.8880   21.4240 O   0  0  0  0  0  0  0  0  0  0  0  0
  -21.6850   -6.0740   22.5280 C   0  0  0  0  0  0  0  0  0  0  0  0
  -21.4010   -6.5630   23.8210 C   0  0  0  0  0  3  0  0  0  0  0  0
  -21.3660   -5.6790   24.9180 C   0  0  0  0  0  3  0  0  0  0  0  0
  -21.6040   -4.3050   24.7230 C   0  0  0  0  0  0  0  0  0  0  0  0
  -21.8820   -3.8140   23.4340 C   0  0  0  0  0  3  0  0  0  0  0  0
  -21.9190   -4.6960   22.3400 C   0  0  0  0  0  0  0  0  0  0  0  0
  -22.1660   -4.2150   21.0980 F   0  0  0  0  0  0  0  0  0  0  0  0
  -21.5630   -3.4530   25.7740 F   0  0  0  0  0  0  0  0  0  0  0  0
  -22.7850  -13.5230   21.1830 C   0  0  0  0  0  0  0  0  0  0  0  0
  -22.0460  -12.8210   22.0350 N   0  0  0  0  0  0  0  0  0  0  0  0
  -22.3550  -14.5550   20.6700 O   0  0  0  0  0  0  0  0  0  0  0  0
  -22.4030  -11.9820   22.4680 H   0  0  0  0  0  0  0  0  0  0  0  0
  -21.1060  -13.1230   22.2500 H   0  0  0  0  0  0  0  0  0  0  0  0
  -25.4230  -15.1860   20.3940 N   0  0  0  0  0  0  0  0  0  0  0  0
  -24.6410  -15.8280   20.4660 H   0  0  0  0  0  0  0  0  0  0  0  0
  -26.2490  -15.6120   19.9940 H   0  0  0  0  0  0  0  0  0  0  0  0
  1  7  1  0
  1  2  2  0
  1  8  1  0
  2 11  1  0
  3  4  1  0
  5  3  1  0
  6  4  1  0
  7 12  1  0
  7  5  1  0
  8  6  1  0
  8  9  1  1
 10 11  2  0
 12 14  1  0
 13 24  2  0
 14 19  1  0
 15 23  1  0
 15 25  1  0
 16 22  1  0
 16 18  1  0
 17 23  1  0
 18 19  2  0
 18 17  1  0
 20 21  1  0
 20 14  2  0
 21 16  2  0
 22 15  1  0
 23 13  1  0
 25 27  2  0
 26 25  1  0
 28 26  1  0
 29 38  2  0
 29 34  1  0
 30 26  1  0
 30 34  1  0
 31 30  1  0
 32 33  1  0
 32 31  1  0
 33 29  1  0
 34 35  2  0
 35 36  1  0
 37 36  2  0
 38 37  1  0
 39 13  1  0
 39 44  1  0
 39 40  1  0
 40 43  1  1
 40 41  1  0
 42 40  1  0
 44 47  1  0
 45 49  1  0
 45 44  1  0
 46 45  2  0
 49 48  1  0
 51 49  1  0
 51 52  1  0
 51 50  1  0
 53 56  1  0
 53  8  1  0
 54 57  1  0
 55 59  1  0
 56 54  2  0
 57 60  1  0
 58 55  2  0
 58 56  1  0
 59 70  1  0
 59 57  2  0
 61 58  1  0
 62 70  1  0
 63 68  1  0
 64 65  1  0
 64 63  1  0
 66 65  1  0
 66 75  1  0
 66 67  1  0
 68 62  1  0
 68 67  1  0
 69 62  2  0
 70 71  1  0
 72 73  2  0
 73 92  1  0
 74 73  1  0
 74 77  1  0
 75 72  1  0
 75 76  1  0
 76 74  2  0
 77 78  1  0
 78 79  2  0
 80 83  1  0
 80 79  1  0
 81 80  2  0
 82 81  1  0
 82 77  2  0
 83 84  1  0
 84 85  1  0
 85 86  2  0
 87 86  1  0
 87 91  1  0
 88 87  2  0
 89 84  2  0
 89 88  1  0
 90 89  1  0
 92 93  1  0
 93 96  1  0
 93 95  1  0
 94 92  2  0
 97 98  1  0
 97 72  1  0
 99 97  1  0
M  ISO  4   7 101  12 101  62 100  70 100
M  END
>  <TORSDO>  (8) 
F 19

>  <SCORE>  (8) 
-4.526

>  <name>  (8) 
7

>  <ligand_id>  (8) 
7

>  <original_smiles>  (8) 
[H]C([H])=C([H])C([H])=C1C([H])(Oc2c([H])c([H])c3c(c2[H])C([H])([H])N(C(=O)C([H])(N([H])C(=O)C([H])(N([H])C([H])([H])[H])C([H])([H])[H])C(C([H])([H])[H])(C([H])([H])[H])C([H])([H])[H])C([H])(C(=O)N([H])C2([H])c4c([H])c([H])c([H])c([H])c4C([H])([H])C([H])([H])C2([H])[H])C3([H])[H])C([H])([H])C([H])([H])C([H])([H])C([H])([H])[N+]1([H])C([H])([H])c1c([H])c(C([H])([H])[H])c(N([H])C(=O)N2C([H])([H])C([H])([H])C([H])([H])C([H])(n3nc(-c4c([H])c([H])c(Oc5c([H])c([H])c(F)c([H])c5F)c([H])c4[H])c(C(=O)N([H])[H])c3N([H])[H])C2([H])[H])c([H])c1C([H])([H])[H]

>  <smiles>  (8) 
[H]C([H])=C([H])C([H])=C1C([H])(Oc2c([H])c([H])c3c(c2[H])C([H])([H])N(C(=O)C([H])(N([H])C(=O)C([H])(N([H])C([H])([H])[H])C([H])([H])[H])C(C([H])([H])[H])(C([H])([H])[H])C([H])([H])[H])C([H])(C(=O)N([H])C2([H])c4c([H])c([H])c([H])c([H])c4C([H])([H])C([H])([H])C2([H])[H])C3([H])[H])C([H])([H])C([H])([H])C([H])([H])C([H])([H])[N+]1([H])C([H])([H])c1c([H])c(C([H])([H])[H])c(N([H])C(=O)N2C([H])([H])C([H])([H])C([H])([H])C([H])(n3nc(-c4c([H])c([H])c(Oc5c([H])c([H])c(F)c([H])c5F)c([H])c4[H])c(C(=O)N([H])[H])c3N([H])[H])C2([H])[H])c([H])c1C([H])([H])[H]

$$$$
8:0:0
     RDKit          3D

 93101  0  0  1  0  0  0  0  0999 V2000
  -30.1970  -21.6640   20.3450 C   0  0  0  0  0  2  0  0  0  0  0  0
  -29.4240  -19.3060   19.5090 C   0  0  0  0  0  3  0  0  0  0  0  0
  -30.5770  -17.9680   21.6710 C   0  0  0  0  0  3  0  0  0  0  0  0
  -30.0150  -20.1080   20.5260 C   0  0  0  0  0  0  0  0  0  0  0  0
  -30.0120  -17.1720   20.6430 C   0  0  0  0  0  0  0  0  0  0  0  0
  -29.4060  -17.8790   19.5650 C   0  0  0  0  0  0  0  0  0  0  0  0
  -30.5860  -19.3940   21.6180 C   0  0  0  0  0  0  0  0  0  0  0  0
  -28.5940  -17.0100   18.3090 Cl  0  0  0  0  0  0  0  0  0  0  0  0
  -31.3430  -20.2460   22.9170 Cl  0  0  0  0  0  0  0  0  0  0  0  0
  -30.6680  -14.7190   20.2730 C   0  0  0  0  0  0  0  0  0  0  0  0
  -30.4410  -12.5150   19.1480 C   0  0  0  0  0  2  0  0  0  0  0  0
  -29.4640  -12.6700   17.9600 C   0  0  0  0  0  2  0  0  0  0  0  0
  -28.0040  -12.4950   18.4220 C   0  0  0  0  0  2  0  0  0  0  0  0
  -27.6740  -13.3340   19.6840 C   0  0  0  0  0  3  0  0  0  0  0  0
  -28.7560  -13.1420   20.7720 C   0  0  0  0  0  2  0  0  0  0  0  0
  -30.0550  -13.4990   20.1780 N   0  0  0  0  0  0  0  0  0  0  0  0
  -31.7980  -14.9160   19.8160 O   0  0  0  0  0  0  0  0  0  0  0  0
  -29.9100  -15.7260   20.7990 N   0  0  0  0  0  0  0  0  0  0  0  0
  -29.0430  -15.4040   21.2010 H   0  0  0  0  0  0  0  0  0  0  0  0
  -25.2980  -13.9190   20.4760 C   0  0  0  0  0  0  0  0  0  0  0  0
  -24.2410  -13.1360   20.8550 C   0  0  0  0  0  0  0  0  0  0  0  0
  -24.7050  -11.7850   20.7840 C   0  0  0  0  0  0  0  0  0  0  0  0
  -26.3370  -13.0450   20.1950 N   0  0  0  0  0  0  0  0  0  0  0  0
  -25.9860  -11.7560   20.4400 N   0  0  0  0  0  0  0  0  0  0  0  0
  -23.9850  -10.5180   20.9660 C   0  0  0  0  0  0  0  0  0  0  0  0
  -24.4020   -9.5600   21.9170 C   0  0  0  0  0  3  0  0  0  0  0  0
  -23.6820   -8.3580   22.0850 C   0  0  0  0  0  3  0  0  0  0  0  0
  -22.5330   -8.1040   21.3010 C   0  0  0  0  0  0  0  0  0  0  0  0
  -22.1330   -9.0520   20.3410 C   0  0  0  0  0  3  0  0  0  0  0  0
  -22.8540  -10.2440   20.1710 C   0  0  0  0  0  3  0  0  0  0  0  0
  -21.7880   -6.9520   21.3760 O   0  0  0  0  0  0  0  0  0  0  0  0
  -21.6580   -6.2530   22.5500 C   0  0  0  0  0  0  0  0  0  0  0  0
  -21.0650   -6.8270   23.6970 C   0  0  0  0  0  3  0  0  0  0  0  0
  -20.8870   -6.0530   24.8610 C   0  0  0  0  0  3  0  0  0  0  0  0
  -21.2900   -4.7050   24.8790 C   0  0  0  0  0  0  0  0  0  0  0  0
  -21.8750   -4.1290   23.7370 C   0  0  0  0  0  3  0  0  0  0  0  0
  -22.0550   -4.9010   22.5750 C   0  0  0  0  0  0  0  0  0  0  0  0
  -22.5990   -4.3340   21.4720 F   0  0  0  0  0  0  0  0  0  0  0  0
  -21.1130   -3.9590   25.9950 F   0  0  0  0  0  0  0  0  0  0  0  0
  -22.8510  -13.6060   21.1710 C   0  0  0  0  0  0  0  0  0  0  0  0
  -22.1490  -12.8960   22.0470 N   0  0  0  0  0  0  0  0  0  0  0  0
  -22.3970  -14.6390   20.6800 O   0  0  0  0  0  0  0  0  0  0  0  0
  -22.5290  -12.0600   22.4660 H   0  0  0  0  0  0  0  0  0  0  0  0
  -21.2190  -13.1960   22.3040 H   0  0  0  0  0  0  0  0  0  0  0  0
  -25.4580  -15.2930   20.3270 N   0  0  0  0  0  0  0  0  0  0  0  0
  -24.6950  -15.9440   20.4810 H   0  0  0  0  0  0  0  0  0  0  0  0
  -26.2920  -15.7390   19.9660 H   0  0  0  0  0  0  0  0  0  0  0  0
  -29.0370  -22.6240   20.4920 N   0  0  0  0  0  4  0  0  0  0  0  0
  -28.5900  -22.4490   21.3790 H   0  0  0  0  0  0  0  0  0  0  0  0
  -28.3700  -22.3880   19.7740 H   0  0  0  0  0  0  0  0  0  0  0  0
  -29.3800  -24.1110   20.4020 C   0  0  0  0  0  3  0  0  0  0  0  0
  -28.1820  -25.1190   20.1330 C   0  0  0  0  0  3  0  0  0  0  0  0
  -28.4050  -26.5800   20.2640 O   0  0  0  0  0  0  0  0  0  0  0  0
  -24.6910  -31.9800   23.2860 C   0  0  0  0  0  0  0  0  0  0  0  0
  -27.2800  -27.4200   20.2220 C   0  0  0  0  0  0  0  0  0  0  0  0
  -23.4700  -30.5720   21.6680 C   0  0  0  0  0  3  0  0  0  0  0  0
  -24.9070  -29.0220   20.2320 C   0  0  0  0  0  0  0  0  0  0  0  0
  -26.0060  -30.8980   21.4530 C   0  0  0  0  0  2  0  0  0  0  0  0
  -26.0820  -29.5180   20.8120 C   0  0  0  0  0  0  0  0  0  0  0  0
  -27.2720  -28.7300   20.7940 C   0  0  0  0  0  3  0  0  0  0  0  0
  -26.0780  -26.9800   19.6170 C   0  0  0  0  0  3  0  0  0  0  0  0
  -24.9090  -27.7600   19.6230 C   0  0  0  0  0  3  0  0  0  0  0  0
  -23.6670  -29.8890   20.2900 C   0  0  0  0  0  2  0  0  0  0  0  0
  -24.7420  -31.1680   22.1920 N   0  0  0  0  0  0  0  0  0  0  0  0
  -23.6140  -32.2590   23.8330 O   0  0  0  0  0  0  0  0  0  0  0  0
  -22.8210  -29.5580   22.6410 C   0  0  0  0  0  0  0  0  0  0  0  0
  -21.5020  -29.3400   22.4960 N   0  0  0  0  0  0  0  0  0  0  0  0
  -23.5020  -28.9700   23.4840 O   0  0  0  0  0  0  0  0  0  0  0  0
  -21.0070  -29.8700   21.7920 H   0  0  0  0  0  0  0  0  0  0  0  0
  -18.1520  -28.0580   22.9600 C   0  0  0  0  0  0  0  0  0  0  0  0
  -20.6960  -28.3990   23.2750 C   0  0  0  0  0  3  0  0  0  0  0  0
  -20.8490  -26.9550   22.7410 C   0  0  0  0  0  2  0  0  0  0  0  0
  -19.7810  -26.5750   21.7120 C   0  0  0  0  0  2  0  0  0  0  0  0
  -18.3820  -26.6970   22.3250 C   0  0  0  0  0  2  0  0  0  0  0  0
  -19.2390  -28.8630   23.3910 C   0  0  0  0  0  0  0  0  0  0  0  0
  -18.9710  -30.1350   23.9440 C   0  0  0  0  0  3  0  0  0  0  0  0
  -17.6500  -30.6030   24.0670 C   0  0  0  0  0  3  0  0  0  0  0  0
  -16.5770  -29.7940   23.6520 C   0  0  0  0  0  3  0  0  0  0  0  0
  -16.8290  -28.5230   23.1060 C   0  0  0  0  0  3  0  0  0  0  0  0
  -25.9810  -32.6180   23.8900 C   0  0  0  0  0  3  0  0  0  0  0  0
  -26.5150  -31.8520   25.1630 C   0  0  1  0  0  0  0  0  0  0  0  0
  -25.4320  -31.5940   26.2360 C   0  0  0  0  0  1  0  0  0  0  0  0
  -27.1170  -30.4840   24.7640 C   0  0  0  0  0  1  0  0  0  0  0  0
  -27.6570  -32.6630   25.8200 C   0  0  0  0  0  1  0  0  0  0  0  0
  -25.6710  -34.0150   24.2190 N   0  0  0  0  0  0  0  0  0  0  0  0
  -25.9610  -35.0650   23.4380 C   0  0  0  0  0  0  0  0  0  0  0  0
  -26.5870  -34.9580   22.3790 O   0  0  0  0  0  0  0  0  0  0  0  0
  -25.1100  -34.1720   25.0430 H   0  0  0  0  0  0  0  0  0  0  0  0
  -24.2000  -36.8360   23.1460 C   0  0  0  0  0  1  0  0  0  0  0  0
  -25.4810  -36.4530   23.9030 C   0  0  0  0  0  3  0  0  0  0  0  0
  -27.6350  -37.3790   24.6340 C   0  0  0  0  0  1  0  0  0  0  0  0
  -26.4960  -37.5160   23.7300 N   0  0  0  0  0  0  0  0  0  0  0  0
  -26.0840  -38.4350   23.8760 H   0  0  0  0  0  0  0  0  0  0  0  0
  1 48  1  0
  1  4  1  0
  2  6  2  0
  2  4  1  0
  4  7  2  0
  5 18  1  0
  5  3  2  0
  6  5  1  0
  7  3  1  0
  7  9  1  0
  8  6  1  0
 10 18  1  0
 11 16  1  0
 12 13  1  0
 12 11  1  0
 14 13  1  0
 14 23  1  0
 14 15  1  0
 16 10  1  0
 16 15  1  0
 17 10  2  0
 18 19  1  0
 20 21  2  0
 21 40  1  0
 22 21  1  0
 22 25  1  0
 23 24  1  0
 23 20  1  0
 24 22  2  0
 25 26  1  0
 26 27  2  0
 28 31  1  0
 28 27  1  0
 29 28  2  0
 30 29  1  0
 30 25  2  0
 31 32  1  0
 32 37  2  0
 32 33  1  0
 33 34  2  0
 34 35  1  0
 35 39  1  0
 36 35  2  0
 37 36  1  0
 38 37  1  0
 40 41  1  0
 41 44  1  0
 41 43  1  0
 42 40  2  0
 45 20  1  0
 45 46  1  0
 47 45  1  0
 48 49  1  0
 50 48  1  0
 51 48  1  0
 52 53  1  0
 52 51  2  0
 54 65  2  0
 55 53  1  0
 55 60  1  0
 56 64  1  0
 56 66  1  0
 57 63  1  0
 57 59  1  0
 58 64  1  0
 59 58  1  0
 60 59  2  0
 61 62  1  0
 61 55  2  0
 62 57  2  0
 63 56  1  0
 64 54  1  0
 66 68  2  0
 67 66  1  0
 69 67  1  0
 70 79  2  0
 70 75  1  0
 71 67  1  0
 71 75  1  0
 72 71  1  0
 73 74  1  0
 73 72  1  0
 74 70  1  0
 75 76  2  0
 76 77  1  0
 78 77  2  0
 79 78  1  0
 80 54  1  0
 80 85  1  0
 80 81  1  0
 81 84  1  1
 81 82  1  0
 83 81  1  0
 85 88  1  0
 86 90  1  0
 86 85  1  0
 87 86  2  0
 90 89  1  0
 92 93  1  0
 92 90  1  0
 92 91  1  0
M  ISO  4  10 100  18 100  52 101  53 101
M  END
>  <TORSDO>  (9) 
F 20

>  <SCORE>  (9) 
-13.838

>  <name>  (9) 
8

>  <ligand_id>  (9) 
8

>  <original_smiles>  (9) 
[H]c1c([H])c([H])c2c(c1[H])C([H])([H])C([H])([H])C([H])([H])C2([H])N([H])C(=O)C1([H])N(C(=O)C([H])(N([H])C(=O)C([H])(N([H])C([H])([H])[H])C([H])([H])[H])C(C([H])([H])[H])(C([H])([H])[H])C([H])([H])[H])C([H])([H])c2c([H])c(OC([H])([H])C([H])([H])[N+]([H])([H])C([H])([H])c3c([H])c(Cl)c(N([H])C(=O)N4C([H])([H])C([H])([H])C([H])([H])C([H])(n5nc(-c6c([H])c([H])c(Oc7c([H])c([H])c(F)c([H])c7F)c([H])c6[H])c(C(=O)N([H])[H])c5N([H])[H])C4([H])[H])c([H])c3Cl)c([H])c([H])c2C1([H])[H]

>  <smiles>  (9) 
[H]c1c([H])c([H])c2c(c1[H])C([H])([H])C([H])([H])C([H])([H])C2([H])N([H])C(=O)C1([H])N(C(=O)C([H])(N([H])C(=O)C([H])(N([H])C([H])([H])[H])C([H])([H])[H])C(C([H])([H])[H])(C([H])([H])[H])C([H])([H])[H])C([H])([H])c2c([H])c(OC([H])([H])C([H])([H])[N+]([H])([H])C([H])([H])c3c([H])c(Cl)c(N([H])C(=O)N4C([H])([H])C([H])([H])C([H])([H])C([H])(n5nc(-c6c([H])c([H])c(Oc7c([H])c([H])c(F)c([H])c7F)c([H])c6[H])c(C(=O)N([H])[H])c5N([H])[H])C4([H])[H])c([H])c3Cl)c([H])c([H])c2C1([H])[H]

$$$$
9:0:0
     RDKit          3D

 95104  0  0  1  0  0  0  0  0999 V2000
  -28.6420  -23.7570   20.0750 C   0  0  0  0  0  0  0  0  0  0  0  0
  -26.6550  -23.2840   22.1430 C   0  0  0  0  0  2  0  0  0  0  0  0
  -26.7050  -24.6820   21.4660 C   0  0  0  0  0  2  0  0  0  0  0  0
  -27.9630  -22.4640   22.0290 C   0  0  0  0  0  2  0  0  0  0  0  0
  -28.0800  -25.0490   20.8400 C   0  0  0  0  0  3  0  0  0  0  0  0
  -28.5720  -22.5070   20.6890 N   0  0  0  0  0  0  0  0  0  0  0  0
  -29.1070  -23.8940   18.9390 O   0  0  0  0  0  0  0  0  0  0  0  0
  -28.2040  -26.4020   20.1620 O   0  0  0  0  0  0  0  0  0  0  0  0
  -24.5960  -31.9220   23.1970 C   0  0  0  0  0  0  0  0  0  0  0  0
  -27.1290  -27.3140   20.1330 C   0  0  0  0  0  0  0  0  0  0  0  0
  -23.3760  -30.5550   21.5420 C   0  0  0  0  0  3  0  0  0  0  0  0
  -24.8090  -29.0000   20.0920 C   0  0  0  0  0  0  0  0  0  0  0  0
  -25.9220  -30.8310   21.3700 C   0  0  0  0  0  2  0  0  0  0  0  0
  -25.9830  -29.4550   20.7080 C   0  0  0  0  0  0  0  0  0  0  0  0
  -27.1500  -28.6240   20.7140 C   0  0  0  0  0  3  0  0  0  0  0  0
  -25.9500  -26.9400   19.4550 C   0  0  0  0  0  3  0  0  0  0  0  0
  -24.7980  -27.7520   19.4520 C   0  0  0  0  0  3  0  0  0  0  0  0
  -23.5850  -29.8960   20.1500 C   0  0  0  0  0  2  0  0  0  0  0  0
  -24.6510  -31.1220   22.0920 N   0  0  0  0  0  0  0  0  0  0  0  0
  -23.5160  -32.2060   23.7350 O   0  0  0  0  0  0  0  0  0  0  0  0
  -22.7030  -29.5340   22.4930 C   0  0  0  0  0  0  0  0  0  0  0  0
  -21.3720  -29.3780   22.3720 N   0  0  0  0  0  0  0  0  0  0  0  0
  -23.3790  -28.8860   23.2960 O   0  0  0  0  0  0  0  0  0  0  0  0
  -20.8880  -29.9510   21.6970 H   0  0  0  0  0  0  0  0  0  0  0  0
  -17.9780  -28.2470   22.9050 C   0  0  0  0  0  0  0  0  0  0  0  0
  -20.5460  -28.4430   23.1380 C   0  0  0  0  0  3  0  0  0  0  0  0
  -20.6070  -27.0230   22.5320 C   0  0  0  0  0  2  0  0  0  0  0  0
  -19.4820  -26.7460   21.5290 C   0  0  0  0  0  2  0  0  0  0  0  0
  -18.1140  -26.9100   22.1970 C   0  0  0  0  0  2  0  0  0  0  0  0
  -19.1210  -28.9750   23.3330 C   0  0  0  0  0  0  0  0  0  0  0  0
  -18.9400  -30.2290   23.9540 C   0  0  0  0  0  3  0  0  0  0  0  0
  -17.6490  -30.7540   24.1530 C   0  0  0  0  0  3  0  0  0  0  0  0
  -16.5220  -30.0230   23.7410 C   0  0  0  0  0  3  0  0  0  0  0  0
  -16.6870  -28.7720   23.1220 C   0  0  0  0  0  3  0  0  0  0  0  0
  -25.8870  -32.5360   23.8230 C   0  0  0  0  0  3  0  0  0  0  0  0
  -25.5860  -33.9320   24.1690 N   0  0  0  0  0  0  0  0  0  0  0  0
  -25.9220  -34.9920   23.4240 C   0  0  0  0  0  0  0  0  0  0  0  0
  -26.5850  -34.8990   22.3850 O   0  0  0  0  0  0  0  0  0  0  0  0
  -24.9920  -34.0830   24.9710 H   0  0  0  0  0  0  0  0  0  0  0  0
  -24.2000  -36.8030   23.1210 C   0  0  0  0  0  1  0  0  0  0  0  0
  -25.4530  -36.3800   23.9050 C   0  0  0  0  0  3  0  0  0  0  0  0
  -27.6070  -37.2440   24.7090 C   0  0  0  0  0  1  0  0  0  0  0  0
  -26.4910  -37.4280   23.7850 N   0  0  0  0  0  0  0  0  0  0  0  0
  -26.0930  -38.3490   23.9480 H   0  0  0  0  0  0  0  0  0  0  0  0
  -26.4040  -31.7490   25.0900 C   0  0  1  0  0  0  0  0  0  0  0  0
  -25.3150  -31.5090   26.1620 C   0  0  0  0  0  1  0  0  0  0  0  0
  -26.9820  -30.3730   24.6860 C   0  0  0  0  0  1  0  0  0  0  0  0
  -27.5590  -32.5350   25.7530 C   0  0  0  0  0  1  0  0  0  0  0  0
  -28.8830  -21.1540   20.0210 C   0  0  0  0  0  2  0  0  0  0  0  0
  -31.2540  -18.8980   22.2160 C   0  0  0  0  0  3  0  0  0  0  0  0
  -29.3130  -18.5100   20.3020 C   0  0  0  0  0  3  0  0  0  0  0  0
  -30.6180  -20.0350   21.6770 C   0  0  0  0  0  0  0  0  0  0  0  0
  -30.9520  -17.5720   21.8300 C   0  0  0  0  0  0  0  0  0  0  0  0
  -29.5900  -19.8860   20.7080 C   0  0  0  0  0  0  0  0  0  0  0  0
  -29.9890  -17.3210   20.8160 C   0  0  0  0  0  0  0  0  0  0  0  0
  -31.1160  -21.3860   22.1690 C   0  0  0  0  0  1  0  0  0  0  0  0
  -31.6700  -16.4520   22.5700 C   0  0  0  0  0  1  0  0  0  0  0  0
  -30.4030  -14.8150   20.0570 C   0  0  0  0  0  0  0  0  0  0  0  0
  -30.1610  -12.5820   18.9320 C   0  0  0  0  0  2  0  0  0  0  0  0
  -29.1470  -12.6990   17.7730 C   0  0  0  0  0  2  0  0  0  0  0  0
  -27.7040  -12.4960   18.2770 C   0  0  0  0  0  2  0  0  0  0  0  0
  -27.4050  -13.3120   19.5640 C   0  0  0  0  0  3  0  0  0  0  0  0
  -28.5330  -13.1830   20.6100 C   0  0  0  0  0  2  0  0  0  0  0  0
  -29.7810  -13.5890   19.9510 N   0  0  0  0  0  0  0  0  0  0  0  0
  -31.5500  -14.9480   19.6220 O   0  0  0  0  0  0  0  0  0  0  0  0
  -29.6390  -15.9190   20.4340 N   0  0  0  0  0  0  0  0  0  0  0  0
  -28.6560  -15.7090   20.4910 H   0  0  0  0  0  0  0  0  0  0  0  0
  -25.0600  -13.8400   20.4570 C   0  0  0  0  0  0  0  0  0  0  0  0
  -24.0340  -13.0340   20.8750 C   0  0  0  0  0  0  0  0  0  0  0  0
  -24.5190  -11.6930   20.7770 C   0  0  0  0  0  0  0  0  0  0  0  0
  -26.1020  -12.9850   20.1300 N   0  0  0  0  0  0  0  0  0  0  0  0
  -25.7880  -11.6880   20.3850 N   0  0  0  0  0  0  0  0  0  0  0  0
  -23.8250  -10.4150   20.9780 C   0  0  0  0  0  0  0  0  0  0  0  0
  -24.3060   -9.4490   21.8890 C   0  0  0  0  0  3  0  0  0  0  0  0
  -23.6090   -8.2360   22.0800 C   0  0  0  0  0  3  0  0  0  0  0  0
  -22.4180   -7.9800   21.3590 C   0  0  0  0  0  0  0  0  0  0  0  0
  -21.9550   -8.9360   20.4380 C   0  0  0  0  0  3  0  0  0  0  0  0
  -22.6520  -10.1400   20.2450 C   0  0  0  0  0  3  0  0  0  0  0  0
  -21.6880   -6.8200   21.4620 O   0  0  0  0  0  0  0  0  0  0  0  0
  -21.6720   -6.0790   22.6180 C   0  0  0  0  0  0  0  0  0  0  0  0
  -21.2500   -6.6270   23.8490 C   0  0  0  0  0  3  0  0  0  0  0  0
  -21.1810   -5.8110   24.9950 C   0  0  0  0  0  3  0  0  0  0  0  0
  -21.5260   -4.4500   24.9120 C   0  0  0  0  0  0  0  0  0  0  0  0
  -21.9430   -3.9010   23.6860 C   0  0  0  0  0  3  0  0  0  0  0  0
  -22.0130   -4.7140   22.5420 C   0  0  0  0  0  0  0  0  0  0  0  0
  -22.3950   -4.1760   21.3590 F   0  0  0  0  0  0  0  0  0  0  0  0
  -21.4530   -3.6640   26.0120 F   0  0  0  0  0  0  0  0  0  0  0  0
  -22.6510  -13.4820   21.2450 C   0  0  0  0  0  0  0  0  0  0  0  0
  -21.9960  -12.7580   22.1490 N   0  0  0  0  0  0  0  0  0  0  0  0
  -22.1600  -14.5060   20.7730 O   0  0  0  0  0  0  0  0  0  0  0  0
  -22.4050  -11.9290   22.5520 H   0  0  0  0  0  0  0  0  0  0  0  0
  -21.0720  -13.0410   22.4430 H   0  0  0  0  0  0  0  0  0  0  0  0
  -25.1840  -15.2170   20.3080 N   0  0  0  0  0  0  0  0  0  0  0  0
  -24.3990  -15.8380   20.4770 H   0  0  0  0  0  0  0  0  0  0  0  0
  -25.9890  -15.6940   19.9230 H   0  0  0  0  0  0  0  0  0  0  0  0
  1  6  1  0
  1  5  1  0
  3  2  1  0
  4  2  1  0
  5  8  1  0
  5  3  1  0
  6  4  1  0
  7  1  2  0
  9 20  2  0
 10  8  1  0
 10 15  1  0
 11 19  1  0
 11 21  1  0
 12 18  1  0
 12 14  1  0
 13 19  1  0
 14 15  2  0
 14 13  1  0
 16 10  2  0
 17 16  1  0
 17 12  2  0
 18 11  1  0
 19  9  1  0
 21 23  2  0
 22 21  1  0
 24 22  1  0
 25 34  2  0
 25 30  1  0
 26 22  1  0
 26 30  1  0
 27 26  1  0
 28 29  1  0
 28 27  1  0
 29 25  1  0
 30 31  2  0
 31 32  1  0
 33 32  2  0
 34 33  1  0
 35  9  1  0
 35 36  1  0
 35 45  1  0
 36 39  1  0
 37 41  1  0
 37 36  1  0
 38 37  2  0
 41 40  1  0
 43 41  1  0
 43 44  1  0
 43 42  1  0
 45 48  1  1
 45 46  1  0
 47 45  1  0
 49  6  1  0
 49 54  1  0
 51 54  2  0
 51 55  1  0
 52 56  1  0
 52 50  2  0
 53 50  1  0
 53 57  1  0
 54 52  1  0
 55 53  2  0
 58 66  1  0
 59 64  1  0
 60 61  1  0
 60 59  1  0
 62 61  1  0
 62 71  1  0
 62 63  1  0
 64 58  1  0
 64 63  1  0
 65 58  2  0
 66 67  1  0
 66 55  1  0
 68 69  2  0
 69 88  1  0
 70 69  1  0
 70 73  1  0
 71 72  1  0
 71 68  1  0
 72 70  2  0
 73 74  1  0
 74 75  2  0
 76 79  1  0
 76 75  1  0
 77 76  2  0
 78 77  1  0
 78 73  2  0
 79 80  1  0
 80 81  1  0
 81 82  2  0
 83 82  1  0
 83 87  1  0
 84 83  2  0
 85 80  2  0
 85 84  1  0
 86 85  1  0
 88 89  1  0
 89 92  1  0
 89 91  1  0
 90 88  2  0
 93 68  1  0
 93 94  1  0
 95 93  1  0
M  ISO  4   5 101   8 101  58 100  66 100
M  END
>  <TORSDO>  (10) 
F 18

>  <SCORE>  (10) 
-13.317

>  <name>  (10) 
9

>  <ligand_id>  (10) 
9

>  <original_smiles>  (10) 
[H]c1c([H])c([H])c2c(c1[H])C([H])([H])C([H])([H])C([H])([H])C2([H])N([H])C(=O)C1([H])N(C(=O)C([H])(N([H])C(=O)C([H])(N([H])C([H])([H])[H])C([H])([H])[H])C(C([H])([H])[H])(C([H])([H])[H])C([H])([H])[H])C([H])([H])c2c([H])c(OC3([H])C(=O)N(C([H])([H])c4c([H])c(N([H])C(=O)N5C([H])([H])C([H])([H])C([H])([H])C([H])(n6nc(-c7c([H])c([H])c(Oc8c([H])c([H])c(F)c([H])c8F)c([H])c7[H])c(C(=O)N([H])[H])c6N([H])[H])C5([H])[H])c(C([H])([H])[H])c([H])c4C([H])([H])[H])C([H])([H])C([H])([H])C3([H])[H])c([H])c([H])c2C1([H])[H]

>  <smiles>  (10) 
[H]c1c([H])c([H])c2c(c1[H])C([H])([H])C([H])([H])C([H])([H])C2([H])N([H])C(=O)C1([H])N(C(=O)C([H])(N([H])C(=O)C([H])(N([H])C([H])([H])[H])C([H])([H])[H])C(C([H])([H])[H])(C([H])([H])[H])C([H])([H])[H])C([H])([H])c2c([H])c(OC3([H])C(=O)N(C([H])([H])c4c([H])c(N([H])C(=O)N5C([H])([H])C([H])([H])C([H])([H])C([H])(n6nc(-c7c([H])c([H])c(Oc8c([H])c([H])c(F)c([H])c8F)c([H])c7[H])c(C(=O)N([H])[H])c6N([H])[H])C5([H])[H])c(C([H])([H])[H])c([H])c4C([H])([H])[H])C([H])([H])C([H])([H])C3([H])[H])c([H])c([H])c2C1([H])[H]

$$$$
10:0:0
     RDKit          3D

 95103  0  0  1  0  0  0  0  0999 V2000
  -30.2560  -21.1390   21.7330 C   0  0  0  0  0  0  0  0  0  0  0  0
  -30.4660  -21.4540   22.9790 N   0  0  0  0  0  4  0  0  0  0  0  0
  -30.6770  -20.7550   23.6890 H   0  0  0  0  0  0  0  0  0  0  0  0
  -30.4350  -22.4030   23.3360 H   0  0  0  0  0  0  0  0  0  0  0  0
  -31.6440  -17.5690   21.2910 C   0  0  0  0  0  3  0  0  0  0  0  0
  -29.2360  -17.5320   20.9790 C   0  0  0  0  0  3  0  0  0  0  0  0
  -30.3540  -19.6700   21.4320 C   0  0  0  0  0  0  0  0  0  0  0  0
  -31.5970  -18.9760   21.4950 C   0  0  0  0  0  0  0  0  0  0  0  0
  -30.4620  -16.8320   21.0350 C   0  0  0  0  0  0  0  0  0  0  0  0
  -29.1750  -18.9290   21.1690 C   0  0  0  0  0  0  0  0  0  0  0  0
  -32.8920  -19.7150   21.8090 C   0  0  0  0  0  1  0  0  0  0  0  0
  -27.9620  -19.5420   21.1250 F   0  0  0  0  0  0  0  0  0  0  0  0
  -30.9980  -14.5760   19.9890 C   0  0  0  0  0  0  0  0  0  0  0  0
  -30.6030  -12.5040   18.6860 C   0  0  0  0  0  2  0  0  0  0  0  0
  -29.5570  -12.7850   17.5870 C   0  0  0  0  0  2  0  0  0  0  0  0
  -28.1210  -12.6310   18.1320 C   0  0  0  0  0  2  0  0  0  0  0  0
  -27.9070  -13.3900   19.4690 C   0  0  0  0  0  3  0  0  0  0  0  0
  -29.0440  -13.0520   20.4590 C   0  0  0  0  0  2  0  0  0  0  0  0
  -30.3280  -13.4020   19.8190 N   0  0  0  0  0  0  0  0  0  0  0  0
  -32.0270  -14.8580   19.3650 O   0  0  0  0  0  0  0  0  0  0  0  0
  -30.4020  -15.4120   20.8660 N   0  0  0  0  0  0  0  0  0  0  0  0
  -29.6260  -14.9650   21.3310 H   0  0  0  0  0  0  0  0  0  0  0  0
  -25.5860  -13.9980   20.4070 C   0  0  0  0  0  0  0  0  0  0  0  0
  -24.5400  -13.2240   20.8310 C   0  0  0  0  0  0  0  0  0  0  0  0
  -24.9720  -11.8690   20.6940 C   0  0  0  0  0  0  0  0  0  0  0  0
  -26.5920  -13.1150   20.0430 N   0  0  0  0  0  0  0  0  0  0  0  0
  -26.2280  -11.8270   20.2700 N   0  0  0  0  0  0  0  0  0  0  0  0
  -24.2430  -10.6090   20.8850 C   0  0  0  0  0  0  0  0  0  0  0  0
  -24.6700   -9.6450   21.8240 C   0  0  0  0  0  3  0  0  0  0  0  0
  -23.9440   -8.4480   22.0030 C   0  0  0  0  0  3  0  0  0  0  0  0
  -22.7760   -8.2080   21.2410 C   0  0  0  0  0  0  0  0  0  0  0  0
  -22.3680   -9.1590   20.2910 C   0  0  0  0  0  3  0  0  0  0  0  0
  -23.0950  -10.3470   20.1100 C   0  0  0  0  0  3  0  0  0  0  0  0
  -22.0210   -7.0630   21.3290 O   0  0  0  0  0  0  0  0  0  0  0  0
  -21.8490   -6.4040   22.5190 C   0  0  0  0  0  0  0  0  0  0  0  0
  -21.2930   -7.0410   23.6500 C   0  0  0  0  0  3  0  0  0  0  0  0
  -21.0680   -6.3060   24.8330 C   0  0  0  0  0  3  0  0  0  0  0  0
  -21.3900   -4.9360   24.8830 C   0  0  0  0  0  0  0  0  0  0  0  0
  -21.9390   -4.3000   23.7560 C   0  0  0  0  0  3  0  0  0  0  0  0
  -22.1650   -5.0320   22.5770 C   0  0  0  0  0  0  0  0  0  0  0  0
  -22.6750   -4.4090   21.4860 F   0  0  0  0  0  0  0  0  0  0  0  0
  -21.1690   -4.2280   26.0150 F   0  0  0  0  0  0  0  0  0  0  0  0
  -23.1800  -13.7050   21.2490 C   0  0  0  0  0  0  0  0  0  0  0  0
  -22.5360  -12.9990   22.1720 N   0  0  0  0  0  0  0  0  0  0  0  0
  -22.6990  -14.7420   20.7910 O   0  0  0  0  0  0  0  0  0  0  0  0
  -22.9370  -12.1620   22.5660 H   0  0  0  0  0  0  0  0  0  0  0  0
  -21.6270  -13.3040   22.4910 H   0  0  0  0  0  0  0  0  0  0  0  0
  -25.7580  -15.3740   20.2840 N   0  0  0  0  0  0  0  0  0  0  0  0
  -25.0110  -16.0280   20.4870 H   0  0  0  0  0  0  0  0  0  0  0  0
  -26.5760  -15.8180   19.8840 H   0  0  0  0  0  0  0  0  0  0  0  0
  -29.8390  -23.3580   21.0210 C   0  0  0  0  0  3  0  0  0  0  0  0
  -29.9780  -22.0990   20.7850 N   0  0  0  0  0  0  0  0  0  0  0  0
  -29.5550  -24.4230   19.9610 C   0  0  0  0  0  2  0  0  0  0  0  0
  -28.8110  -25.6620   20.5190 C   0  0  0  0  0  2  0  0  0  0  0  0
  -28.6400  -26.6850   19.5250 O   0  0  0  0  0  0  0  0  0  0  0  0
  -24.6880  -31.5570   22.9260 C   0  0  0  0  0  0  0  0  0  0  0  0
  -27.4560  -27.3810   19.6040 C   0  0  0  0  0  0  0  0  0  0  0  0
  -23.5180  -30.2110   21.2130 C   0  0  0  0  0  3  0  0  0  0  0  0
  -25.0130  -28.7970   19.7020 C   0  0  0  0  0  0  0  0  0  0  0  0
  -26.0290  -30.6610   21.0270 C   0  0  0  0  0  2  0  0  0  0  0  0
  -26.1570  -29.3310   20.3130 C   0  0  0  0  0  0  0  0  0  0  0  0
  -27.3840  -28.6320   20.2580 C   0  0  0  0  0  3  0  0  0  0  0  0
  -26.2990  -26.8540   18.9950 C   0  0  0  0  0  3  0  0  0  0  0  0
  -25.0800  -27.5580   19.0400 C   0  0  0  0  0  3  0  0  0  0  0  0
  -23.7420  -29.6090   19.7980 C   0  0  0  0  0  2  0  0  0  0  0  0
  -24.7630  -30.8220   21.7810 N   0  0  0  0  0  0  0  0  0  0  0  0
  -23.6010  -31.7670   23.4830 O   0  0  0  0  0  0  0  0  0  0  0  0
  -22.9020  -29.1200   22.1180 C   0  0  0  0  0  0  0  0  0  0  0  0
  -21.5790  -28.9240   22.0040 N   0  0  0  0  0  0  0  0  0  0  0  0
  -23.6110  -28.4540   22.8770 O   0  0  0  0  0  0  0  0  0  0  0  0
  -21.0670  -29.5140   21.3630 H   0  0  0  0  0  0  0  0  0  0  0  0
  -18.2260  -27.6820   22.5240 C   0  0  0  0  0  0  0  0  0  0  0  0
  -20.7900  -27.9250   22.7250 C   0  0  0  0  0  3  0  0  0  0  0  0
  -20.8740  -26.5450   22.0320 C   0  0  0  0  0  2  0  0  0  0  0  0
  -19.7360  -26.3020   21.0350 C   0  0  0  0  0  2  0  0  0  0  0  0
  -18.3790  -26.3910   21.7370 C   0  0  0  0  0  2  0  0  0  0  0  0
  -19.3590  -28.4100   22.9740 C   0  0  0  0  0  0  0  0  0  0  0  0
  -19.1610  -29.6220   23.6710 C   0  0  0  0  0  3  0  0  0  0  0  0
  -17.8640  -30.1060   23.9200 C   0  0  0  0  0  3  0  0  0  0  0  0
  -16.7450  -29.3740   23.4860 C   0  0  0  0  0  3  0  0  0  0  0  0
  -16.9280  -28.1620   22.7950 C   0  0  0  0  0  3  0  0  0  0  0  0
  -25.9570  -32.1910   23.5760 C   0  0  0  0  0  3  0  0  0  0  0  0
  -26.5240  -31.3510   24.7860 C   0  0  1  0  0  0  0  0  0  0  0  0
  -25.4540  -30.9870   25.8420 C   0  0  0  0  0  1  0  0  0  0  0  0
  -27.1610  -30.0330   24.2870 C   0  0  0  0  0  1  0  0  0  0  0  0
  -27.6480  -32.1440   25.4950 C   0  0  0  0  0  1  0  0  0  0  0  0
  -25.6020  -33.5490   24.0080 N   0  0  0  0  0  0  0  0  0  0  0  0
  -25.9080  -34.6660   23.3340 C   0  0  0  0  0  0  0  0  0  0  0  0
  -26.5890  -34.6620   22.3050 O   0  0  0  0  0  0  0  0  0  0  0  0
  -24.9940  -33.6240   24.8110 H   0  0  0  0  0  0  0  0  0  0  0  0
  -24.1330  -36.4310   23.0880 C   0  0  0  0  0  1  0  0  0  0  0  0
  -25.3730  -36.0000   23.8900 C   0  0  0  0  0  3  0  0  0  0  0  0
  -27.4630  -36.8760   24.8330 C   0  0  0  0  0  1  0  0  0  0  0  0
  -26.3760  -37.0860   23.8810 N   0  0  0  0  0  0  0  0  0  0  0  0
  -25.9410  -37.9820   24.0880 H   0  0  0  0  0  0  0  0  0  0  0  0
  1  2  2  0
  2  4  1  0
  2  3  1  0
  5  8  1  0
  6  9  1  0
  6 10  2  0
  7  8  2  0
  7  1  1  0
  8 11  1  0
  9  5  2  0
 10  7  1  0
 12 10  1  0
 13 21  1  0
 14 19  1  0
 15 16  1  0
 15 14  1  0
 17 16  1  0
 17 26  1  0
 17 18  1  0
 19 13  1  0
 19 18  1  0
 20 13  2  0
 21  9  1  0
 21 22  1  0
 23 24  2  0
 24 43  1  0
 25 24  1  0
 25 28  1  0
 26 27  1  0
 26 23  1  0
 27 25  2  0
 28 29  1  0
 29 30  2  0
 31 34  1  0
 31 30  1  0
 32 31  2  0
 33 32  1  0
 33 28  2  0
 34 35  1  0
 35 40  2  0
 35 36  1  0
 36 37  2  0
 37 38  1  0
 38 42  1  0
 39 38  2  0
 40 39  1  0
 41 40  1  0
 43 44  1  0
 44 47  1  0
 44 46  1  0
 45 43  2  0
 48 23  1  0
 48 49  1  0
 50 48  1  0
 52 51  2  0
 52  1  1  0
 53 54  1  0
 53 51  1  0
 55 57  1  0
 55 54  1  0
 56 67  2  0
 57 62  1  0
 58 66  1  0
 58 68  1  0
 59 65  1  0
 59 61  1  0
 60 66  1  0
 61 60  1  0
 62 61  2  0
 63 64  1  0
 63 57  2  0
 64 59  2  0
 65 58  1  0
 66 56  1  0
 68 70  2  0
 69 68  1  0
 71 69  1  0
 72 81  2  0
 72 77  1  0
 73 69  1  0
 73 77  1  0
 74 73  1  0
 75 76  1  0
 75 74  1  0
 76 72  1  0
 77 78  2  0
 78 79  1  0
 80 79  2  0
 81 80  1  0
 82 56  1  0
 82 87  1  0
 82 83  1  0
 83 86  1  1
 83 84  1  0
 85 83  1  0
 87 90  1  0
 88 92  1  0
 88 87  1  0
 89 88  2  0
 92 91  1  0
 94 92  1  0
 94 95  1  0
 94 93  1  0
M  ISO  4  13 100  21 100  54 101  55 101
M  END
>  <TORSDO>  (11) 
F 20

>  <SCORE>  (11) 
-12.297

>  <name>  (11) 
10

>  <ligand_id>  (11) 
10

>  <original_smiles>  (11) 
[H]C(=NC(c1c(F)c([H])c(N([H])C(=O)N2C([H])([H])C([H])([H])C([H])([H])C([H])(n3nc(-c4c([H])c([H])c(Oc5c([H])c([H])c(F)c([H])c5F)c([H])c4[H])c(C(=O)N([H])[H])c3N([H])[H])C2([H])[H])c([H])c1C([H])([H])[H])=[N+]([H])[H])C([H])([H])C([H])([H])Oc1c([H])c([H])c2c(c1[H])C([H])([H])N(C(=O)C([H])(N([H])C(=O)C([H])(N([H])C([H])([H])[H])C([H])([H])[H])C(C([H])([H])[H])(C([H])([H])[H])C([H])([H])[H])C([H])(C(=O)N([H])C1([H])c3c([H])c([H])c([H])c([H])c3C([H])([H])C([H])([H])C1([H])[H])C2([H])[H]

>  <smiles>  (11) 
[H]C(=NC(c1c(F)c([H])c(N([H])C(=O)N2C([H])([H])C([H])([H])C([H])([H])C([H])(n3nc(-c4c([H])c([H])c(Oc5c([H])c([H])c(F)c([H])c5F)c([H])c4[H])c(C(=O)N([H])[H])c3N([H])[H])C2([H])[H])c([H])c1C([H])([H])[H])=[N+]([H])[H])C([H])([H])C([H])([H])Oc1c([H])c([H])c2c(c1[H])C([H])([H])N(C(=O)C([H])(N([H])C(=O)C([H])(N([H])C([H])([H])[H])C([H])([H])[H])C(C([H])([H])[H])(C([H])([H])[H])C([H])([H])[H])C([H])(C(=O)N([H])C1([H])c3c([H])c([H])c([H])c([H])c3C([H])([H])C([H])([H])C1([H])[H])C2([H])[H]

$$$$
11:0:0
     RDKit          3D

 94101  0  0  1  0  0  0  0  0999 V2000
  -28.2320  -17.3600   20.3670 C   0  0  0  0  0  3  0  0  0  0  0  0
  -27.2430  -19.5570   20.0040 C   0  0  0  0  0  3  0  0  0  0  0  0
  -29.5160  -17.9290   20.4980 C   0  0  0  0  0  0  0  0  0  0  0  0
  -28.5000  -20.1870   20.1680 C   0  0  0  0  0  0  0  0  0  0  0  0
  -29.6490  -19.3560   20.3700 C   0  0  0  0  0  0  0  0  0  0  0  0
  -27.1060  -18.1620   20.1180 C   0  0  0  0  0  3  0  0  0  0  0  0
  -31.0150  -20.0210   20.4860 C   0  0  0  0  0  1  0  0  0  0  0  0
  -25.5470  -17.4360   20.0260 Cl  0  0  0  0  0 15  0  0  0  0  0  0
  -30.7200  -17.0020   20.8160 C   0  0  0  0  0  2  0  0  0  0  0  0
  -31.2640  -14.5490   21.1500 C   0  0  0  0  0  0  0  0  0  0  0  0
  -31.1820  -12.1980   20.4080 C   0  0  0  0  0  2  0  0  0  0  0  0
  -30.4250  -12.1830   19.0610 C   0  0  0  0  0  2  0  0  0  0  0  0
  -28.9010  -12.0800   19.2870 C   0  0  0  0  0  2  0  0  0  0  0  0
  -28.3870  -13.0930   20.3440 C   0  0  0  0  0  3  0  0  0  0  0  0
  -29.2730  -13.0780   21.6100 C   0  0  0  0  0  2  0  0  0  0  0  0
  -30.6580  -13.3280   21.1870 N   0  0  0  0  0  0  0  0  0  0  0  0
  -32.4560  -14.6870   20.8570 O   0  0  0  0  0  0  0  0  0  0  0  0
  -30.4280  -15.6100   21.2340 N   0  0  0  0  0  0  0  0  0  0  0  0
  -29.4660  -15.4000   21.4610 H   0  0  0  0  0  0  0  0  0  0  0  0
  -25.9480  -13.7890   20.7560 C   0  0  0  0  0  0  0  0  0  0  0  0
  -24.8220  -13.0630   21.0270 C   0  0  0  0  0  0  0  0  0  0  0  0
  -25.2390  -11.6990   21.0830 C   0  0  0  0  0  0  0  0  0  0  0  0
  -26.9820  -12.8730   20.6660 N   0  0  0  0  0  0  0  0  0  0  0  0
  -26.5520  -11.6110   20.9160 N   0  0  0  0  0  0  0  0  0  0  0  0
  -24.4530  -10.4670   21.2190 C   0  0  0  0  0  0  0  0  0  0  0  0
  -24.7560   -9.5040   22.2070 C   0  0  0  0  0  3  0  0  0  0  0  0
  -23.9760   -8.3350   22.3290 C   0  0  0  0  0  3  0  0  0  0  0  0
  -22.8780   -8.1200   21.4630 C   0  0  0  0  0  0  0  0  0  0  0  0
  -22.5970   -9.0690   20.4650 C   0  0  0  0  0  3  0  0  0  0  0  0
  -23.3770  -10.2310   20.3400 C   0  0  0  0  0  3  0  0  0  0  0  0
  -22.0810   -7.0000   21.4930 O   0  0  0  0  0  0  0  0  0  0  0  0
  -21.8990   -6.2760   22.6420 C   0  0  0  0  0  0  0  0  0  0  0  0
  -21.3870   -6.8630   23.8200 C   0  0  0  0  0  3  0  0  0  0  0  0
  -21.1510   -6.0680   24.9580 C   0  0  0  0  0  3  0  0  0  0  0  0
  -21.4180   -4.6850   24.9190 C   0  0  0  0  0  0  0  0  0  0  0  0
  -21.9230   -4.0980   23.7450 C   0  0  0  0  0  3  0  0  0  0  0  0
  -22.1600   -4.8930   22.6100 C   0  0  0  0  0  0  0  0  0  0  0  0
  -22.6270   -4.3190   21.4740 F   0  0  0  0  0  0  0  0  0  0  0  0
  -21.1850   -3.9180   26.0090 F   0  0  0  0  0  0  0  0  0  0  0  0
  -23.4220  -13.5910   21.1300 C   0  0  0  0  0  0  0  0  0  0  0  0
  -22.5840  -12.9560   21.9420 N   0  0  0  0  0  0  0  0  0  0  0  0
  -23.0770  -14.6040   20.5250 O   0  0  0  0  0  0  0  0  0  0  0  0
  -22.8790  -12.1390   22.4560 H   0  0  0  0  0  0  0  0  0  0  0  0
  -21.6370  -13.2910   22.0570 H   0  0  0  0  0  0  0  0  0  0  0  0
  -26.1780  -15.1450   20.5540 N   0  0  0  0  0  0  0  0  0  0  0  0
  -25.4290  -15.8240   20.5840 H   0  0  0  0  0  0  0  0  0  0  0  0
  -27.0540  -15.5440   20.2470 H   0  0  0  0  0  0  0  0  0  0  0  0
  -28.5030  -21.7400   20.3030 C   0  0  0  0  0  2  0  0  0  0  0  0
  -28.5230  -22.5780   19.0670 N   0  0  0  0  0  4  0  0  0  0  0  0
  -29.4400  -22.5220   18.6600 H   0  0  0  0  0  0  0  0  0  0  0  0
  -27.8860  -22.1570   18.4050 H   0  0  0  0  0  0  0  0  0  0  0  0
  -28.1310  -24.0200   19.2830 C   0  0  0  0  0  2  0  0  0  0  0  0
  -28.5940  -25.0380   18.1870 C   0  0  0  0  0  2  0  0  0  0  0  0
  -28.6950  -26.4150   18.6510 O   0  0  0  0  0  0  0  0  0  0  0  0
  -25.3170  -30.7560   23.2270 C   0  0  0  0  0  0  0  0  0  0  0  0
  -27.5660  -27.1900   18.8900 C   0  0  0  0  0  0  0  0  0  0  0  0
  -23.9850  -29.9690   21.3000 C   0  0  0  0  0  3  0  0  0  0  0  0
  -25.2960  -28.8150   19.4360 C   0  0  0  0  0  0  0  0  0  0  0  0
  -26.5290  -30.1920   21.1180 C   0  0  0  0  0  2  0  0  0  0  0  0
  -26.5020  -29.0600   20.1010 C   0  0  0  0  0  0  0  0  0  0  0  0
  -27.6380  -28.2560   19.8260 C   0  0  0  0  0  3  0  0  0  0  0  0
  -26.3330  -26.9630   18.2380 C   0  0  0  0  0  3  0  0  0  0  0  0
  -25.2090  -27.7670   18.5050 C   0  0  0  0  0  3  0  0  0  0  0  0
  -24.1200  -29.7070   19.7760 C   0  0  0  0  0  2  0  0  0  0  0  0
  -25.2960  -30.3020   21.9400 N   0  0  0  0  0  0  0  0  0  0  0  0
  -24.2680  -30.9280   23.8640 O   0  0  0  0  0  0  0  0  0  0  0  0
  -23.2790  -28.7560   21.9500 C   0  0  0  0  0  0  0  0  0  0  0  0
  -21.9470  -28.6800   21.7930 N   0  0  0  0  0  0  0  0  0  0  0  0
  -23.9280  -27.8990   22.5550 O   0  0  0  0  0  0  0  0  0  0  0  0
  -21.4870  -29.4210   21.2820 H   0  0  0  0  0  0  0  0  0  0  0  0
  -18.5250  -27.5350   21.9590 C   0  0  0  0  0  0  0  0  0  0  0  0
  -21.0880  -27.6090   22.2990 C   0  0  0  0  0  3  0  0  0  0  0  0
  -21.1340  -26.3690   21.3790 C   0  0  0  0  0  2  0  0  0  0  0  0
  -20.0470  -26.3810   20.3020 C   0  0  0  0  0  2  0  0  0  0  0  0
  -18.6630  -26.3990   20.9610 C   0  0  0  0  0  2  0  0  0  0  0  0
  -19.6660  -28.1130   22.5750 C   0  0  0  0  0  0  0  0  0  0  0  0
  -19.4900  -29.1920   23.4700 C   0  0  0  0  0  3  0  0  0  0  0  0
  -18.2020  -29.6840   23.7550 C   0  0  0  0  0  3  0  0  0  0  0  0
  -17.0770  -29.0960   23.1550 C   0  0  0  0  0  3  0  0  0  0  0  0
  -17.2390  -28.0200   22.2620 C   0  0  0  0  0  3  0  0  0  0  0  0
  -26.6560  -31.1010   23.9510 C   0  0  0  0  0  3  0  0  0  0  0  0
  -26.4370  -32.3310   24.7220 N   0  0  0  0  0  0  0  0  0  0  0  0
  -26.8720  -33.5440   24.3540 C   0  0  0  0  0  0  0  0  0  0  0  0
  -27.5700  -33.7320   23.3530 O   0  0  0  0  0  0  0  0  0  0  0  0
  -25.8270  -32.2630   25.5220 H   0  0  0  0  0  0  0  0  0  0  0  0
  -25.3130  -35.5050   24.5750 C   0  0  0  0  0  1  0  0  0  0  0  0
  -26.4700  -34.7390   25.2380 C   0  0  0  0  0  3  0  0  0  0  0  0
  -28.6120  -35.0950   26.3820 C   0  0  0  0  0  1  0  0  0  0  0  0
  -27.5870  -35.6680   25.5170 N   0  0  0  0  0  0  0  0  0  0  0  0
  -27.2460  -36.5230   25.9520 H   0  0  0  0  0  0  0  0  0  0  0  0
  -27.1730  -29.9400   24.8880 C   0  0  1  0  0  0  0  0  0  0  0  0
  -26.1080  -29.4210   25.8820 C   0  0  0  0  0  1  0  0  0  0  0  0
  -27.6610  -28.7350   24.0510 C   0  0  0  0  0  1  0  0  0  0  0  0
  -28.3910  -30.4300   25.7070 C   0  0  0  0  0  1  0  0  0  0  0  0
  1  3  1  0
  2  6  1  0
  2  4  2  0
  3  9  1  0
  4 48  1  0
  4  5  1  0
  5  7  1  0
  5  3  2  0
  6  1  2  0
  9 18  1  0
 10 16  1  0
 10 18  1  0
 11 16  1  0
 12 13  1  0
 12 11  1  0
 14 13  1  0
 14 23  1  0
 14 15  1  0
 16 15  1  0
 17 10  2  0
 18 19  1  0
 20 21  2  0
 21 22  1  0
 21 40  1  0
 22 25  1  0
 23 20  1  0
 23 24  1  0
 24 22  2  0
 25 26  1  0
 26 27  2  0
 28 31  1  0
 28 27  1  0
 29 28  2  0
 30 29  1  0
 30 25  2  0
 31 32  1  0
 32 33  1  0
 33 34  2  0
 35 34  1  0
 35 39  1  0
 36 35  2  0
 37 32  2  0
 37 36  1  0
 38 37  1  0
 40 41  1  0
 41 44  1  0
 41 43  1  0
 42 40  2  0
 45 46  1  0
 45 20  1  0
 47 45  1  0
 49 52  1  0
 49 48  1  0
 50 49  1  0
 51 49  1  0
 53 54  1  0
 53 52  1  0
 54 56  1  0
 55 66  2  0
 56 61  1  0
 57 65  1  0
 57 67  1  0
 58 64  1  0
 58 60  1  0
 59 65  1  0
 60 59  1  0
 61 60  2  0
 62 63  1  0
 62 56  2  0
 63 58  2  0
 64 57  1  0
 65 55  1  0
 67 69  2  0
 68 67  1  0
 70 68  1  0
 71 80  2  0
 71 76  1  0
 72 68  1  0
 72 76  1  0
 73 72  1  0
 74 75  1  0
 74 73  1  0
 75 71  1  0
 76 77  2  0
 77 78  1  0
 79 78  2  0
 80 79  1  0
 81 55  1  0
 81 82  1  0
 81 91  1  0
 82 85  1  0
 83 82  1  0
 83 87  1  0
 84 83  2  0
 87 86  1  0
 87 89  1  0
 89 90  1  0
 89 88  1  0
 91 94  1  1
 91 92  1  0
 93 91  1  0
M  ISO  4  10 100  18 100  53 101  54 101
M  END
>  <TORSDO>  (12) 
F 21

>  <SCORE>  (12) 
-10.253

>  <name>  (12) 
11

>  <ligand_id>  (12) 
11

>  <original_smiles>  (12) 
[H]c1c([H])c([H])c2c(c1[H])C([H])([H])C([H])([H])C([H])([H])C2([H])N([H])C(=O)C1([H])N(C(=O)C([H])(N([H])C(=O)C([H])(N([H])C([H])([H])[H])C([H])([H])[H])C(C([H])([H])[H])(C([H])([H])[H])C([H])([H])[H])C([H])([H])c2c([H])c(OC([H])([H])C([H])([H])[N+]([H])([H])C([H])([H])c3c([H])c(Cl)c([H])c(C([H])([H])N([H])C(=O)N4C([H])([H])C([H])([H])C([H])([H])C([H])(n5nc(-c6c([H])c([H])c(Oc7c([H])c([H])c(F)c([H])c7F)c([H])c6[H])c(C(=O)N([H])[H])c5N([H])[H])C4([H])[H])c3C([H])([H])[H])c([H])c([H])c2C1([H])[H]

>  <smiles>  (12) 
[H]c1c([H])c([H])c2c(c1[H])C([H])([H])C([H])([H])C([H])([H])C2([H])N([H])C(=O)C1([H])N(C(=O)C([H])(N([H])C(=O)C([H])(N([H])C([H])([H])[H])C([H])([H])[H])C(C([H])([H])[H])(C([H])([H])[H])C([H])([H])[H])C([H])([H])c2c([H])c(OC([H])([H])C([H])([H])[N+]([H])([H])C([H])([H])c3c([H])c(Cl)c([H])c(C([H])([H])N([H])C(=O)N4C([H])([H])C([H])([H])C([H])([H])C([H])(n5nc(-c6c([H])c([H])c(Oc7c([H])c([H])c(F)c([H])c7F)c([H])c6[H])c(C(=O)N([H])[H])c5N([H])[H])C4([H])[H])c3C([H])([H])[H])c([H])c([H])c2C1([H])[H]

$$$$
12:0:0
     RDKit          3D

 94102  0  0  1  0  0  0  0  0999 V2000
  -30.2600  -19.9660   20.7990 C   0  0  0  0  0  2  0  0  0  0  0  0
  -29.1730  -17.3570   17.7580 C   0  0  0  0  0  3  0  0  0  0  0  0
  -28.4180  -18.9600   19.4020 C   0  0  0  0  0  3  0  0  0  0  0  0
  -30.2430  -16.9700   18.5950 C   0  0  0  0  0  0  0  0  0  0  0  0
  -29.5620  -18.6800   20.1850 C   0  0  0  0  0  0  0  0  0  0  0  0
  -30.2620  -17.4100   19.9560 C   0  0  0  0  0  0  0  0  0  0  0  0
  -28.2020  -18.2660   18.1980 C   0  0  0  0  0  0  0  0  0  0  0  0
  -31.3580  -16.1700   17.9280 C   0  0  0  0  0  1  0  0  0  0  0  0
  -26.8500  -18.6420   17.1950 Cl  0  0  0  0  0  0  0  0  0  0  0  0
  -31.0840  -15.1360   20.9410 C   0  0  0  0  0  0  0  0  0  0  0  0
  -30.9020  -12.7960   20.1110 C   0  0  0  0  0  2  0  0  0  0  0  0
  -30.1270  -12.6950   18.7740 C   0  0  0  0  0  2  0  0  0  0  0  0
  -28.6010  -12.6700   18.9760 C   0  0  0  0  0  2  0  0  0  0  0  0
  -28.0970  -13.6410   20.0780 C   0  0  0  0  0  3  0  0  0  0  0  0
  -29.0100  -13.6960   21.3240 C   0  0  0  0  0  2  0  0  0  0  0  0
  -30.3880  -13.9500   20.8770 N   0  0  0  0  0  0  0  0  0  0  0  0
  -32.3070  -15.1280   20.7810 O   0  0  0  0  0  0  0  0  0  0  0  0
  -30.4050  -16.3460   20.9920 N   0  0  0  0  0  0  0  0  0  0  0  0
  -29.6040  -16.3130   21.6120 H   0  0  0  0  0  0  0  0  0  0  0  0
  -25.6690  -14.2610   20.5670 C   0  0  0  0  0  0  0  0  0  0  0  0
  -24.5620  -13.5030   20.8310 C   0  0  0  0  0  0  0  0  0  0  0  0
  -25.0030  -12.1470   20.8450 C   0  0  0  0  0  0  0  0  0  0  0  0
  -26.7140  -13.3640   20.4370 N   0  0  0  0  0  0  0  0  0  0  0  0
  -26.3190  -12.0880   20.6790 N   0  0  0  0  0  0  0  0  0  0  0  0
  -24.2420  -10.8890   20.9620 C   0  0  0  0  0  0  0  0  0  0  0  0
  -24.5770   -9.9220   21.9290 C   0  0  0  0  0  3  0  0  0  0  0  0
  -23.8250   -8.7310   22.0530 C   0  0  0  0  0  3  0  0  0  0  0  0
  -22.7150   -8.5090   21.2060 C   0  0  0  0  0  0  0  0  0  0  0  0
  -22.3960   -9.4650   20.2310 C   0  0  0  0  0  3  0  0  0  0  0  0
  -23.1460  -10.6500   20.1070 C   0  0  0  0  0  3  0  0  0  0  0  0
  -21.9380   -7.3770   21.2300 O   0  0  0  0  0  0  0  0  0  0  0  0
  -21.7920   -6.6270   22.3670 C   0  0  0  0  0  0  0  0  0  0  0  0
  -21.2800   -7.1700   23.5660 C   0  0  0  0  0  3  0  0  0  0  0  0
  -21.0680   -6.3360   24.6790 C   0  0  0  0  0  3  0  0  0  0  0  0
  -21.3650   -4.9620   24.5980 C   0  0  0  0  0  0  0  0  0  0  0  0
  -21.8770   -4.4210   23.4100 C   0  0  0  0  0  3  0  0  0  0  0  0
  -22.0820   -5.2480   22.2910 C   0  0  0  0  0  0  0  0  0  0  0  0
  -22.5420   -4.7160   21.1340 F   0  0  0  0  0  0  0  0  0  0  0  0
  -21.1580   -4.1540   25.6670 F   0  0  0  0  0  0  0  0  0  0  0  0
  -23.1480  -13.9950   20.9570 C   0  0  0  0  0  0  0  0  0  0  0  0
  -22.3260  -13.3100   21.7460 N   0  0  0  0  0  0  0  0  0  0  0  0
  -22.7740  -15.0100   20.3760 O   0  0  0  0  0  0  0  0  0  0  0  0
  -22.6560  -12.5040   22.2500 H   0  0  0  0  0  0  0  0  0  0  0  0
  -21.3650  -13.5990   21.8580 H   0  0  0  0  0  0  0  0  0  0  0  0
  -25.8790  -15.6230   20.4130 N   0  0  0  0  0  0  0  0  0  0  0  0
  -25.1010  -16.2700   20.4790 H   0  0  0  0  0  0  0  0  0  0  0  0
  -26.7510  -16.0670   20.1600 H   0  0  0  0  0  0  0  0  0  0  0  0
  -29.4840  -21.2390   21.1850 N   0  0  0  0  0  4  0  0  0  0  0  0
  -30.0530  -21.6270   21.9230 H   0  0  0  0  0  0  0  0  0  0  0  0
  -28.6210  -20.9650   21.6230 H   0  0  0  0  0  0  0  0  0  0  0  0
  -29.2230  -22.4170   20.2310 C   0  0  0  0  0  2  0  0  0  0  0  0
  -29.1710  -23.9320   20.8440 C   0  0  0  0  0  3  0  0  0  0  0  0
  -28.2980  -25.1170   20.1470 C   0  0  0  0  0  3  0  0  0  0  0  0
  -28.4450  -26.5960   20.4590 O   0  0  0  0  0  0  0  0  0  0  0  0
  -24.5930  -32.0590   23.3710 C   0  0  0  0  0  0  0  0  0  0  0  0
  -27.3340  -27.4800   20.3700 C   0  0  0  0  0  0  0  0  0  0  0  0
  -23.4470  -30.6260   21.7180 C   0  0  0  0  0  3  0  0  0  0  0  0
  -24.9520  -29.1020   20.3170 C   0  0  0  0  0  0  0  0  0  0  0  0
  -25.9850  -30.9830   21.5810 C   0  0  0  0  0  2  0  0  0  0  0  0
  -26.1040  -29.5980   20.9370 C   0  0  0  0  0  0  0  0  0  0  0  0
  -27.2960  -28.7950   20.9610 C   0  0  0  0  0  3  0  0  0  0  0  0
  -26.1580  -27.0690   19.7010 C   0  0  0  0  0  3  0  0  0  0  0  0
  -24.9840  -27.8480   19.6900 C   0  0  0  0  0  3  0  0  0  0  0  0
  -23.7020  -29.9600   20.3410 C   0  0  0  0  0  2  0  0  0  0  0  0
  -24.6900  -31.2430   22.2800 N   0  0  0  0  0  0  0  0  0  0  0  0
  -23.4950  -32.3130   23.8860 O   0  0  0  0  0  0  0  0  0  0  0  0
  -22.7900  -29.5990   22.6710 C   0  0  0  0  0  0  0  0  0  0  0  0
  -21.4740  -29.3750   22.5180 N   0  0  0  0  0  0  0  0  0  0  0  0
  -23.4680  -29.0080   23.5170 O   0  0  0  0  0  0  0  0  0  0  0  0
  -20.9820  -29.9120   21.8170 H   0  0  0  0  0  0  0  0  0  0  0  0
  -18.1320  -28.0460   22.9420 C   0  0  0  0  0  0  0  0  0  0  0  0
  -20.6710  -28.4160   23.2790 C   0  0  0  0  0  3  0  0  0  0  0  0
  -20.8440  -26.9800   22.7320 C   0  0  0  0  0  2  0  0  0  0  0  0
  -19.7850  -26.5950   21.6930 C   0  0  0  0  0  2  0  0  0  0  0  0
  -18.3810  -26.6940   22.2960 C   0  0  0  0  0  2  0  0  0  0  0  0
  -19.2070  -28.8590   23.3920 C   0  0  0  0  0  0  0  0  0  0  0  0
  -18.9190  -30.1200   23.9580 C   0  0  0  0  0  3  0  0  0  0  0  0
  -17.5890  -30.5690   24.0800 C   0  0  0  0  0  3  0  0  0  0  0  0
  -16.5300  -29.7520   23.6460 C   0  0  0  0  0  3  0  0  0  0  0  0
  -16.8020  -28.4930   23.0830 C   0  0  0  0  0  3  0  0  0  0  0  0
  -25.8510  -32.7300   24.0050 C   0  0  0  0  0  3  0  0  0  0  0  0
  -25.5140  -34.1330   24.2860 N   0  0  0  0  0  0  0  0  0  0  0  0
  -25.8510  -35.1670   23.5050 C   0  0  0  0  0  0  0  0  0  0  0  0
  -26.5450  -35.0420   22.4920 O   0  0  0  0  0  0  0  0  0  0  0  0
  -24.9000  -34.3050   25.0680 H   0  0  0  0  0  0  0  0  0  0  0  0
  -24.1110  -36.9320   23.0620 C   0  0  0  0  0  1  0  0  0  0  0  0
  -25.3400  -36.5630   23.9090 C   0  0  0  0  0  3  0  0  0  0  0  0
  -27.4450  -37.5030   24.7580 C   0  0  0  0  0  1  0  0  0  0  0  0
  -26.3630  -37.6250   23.7860 N   0  0  0  0  0  0  0  0  0  0  0  0
  -25.9420  -38.5440   23.8920 H   0  0  0  0  0  0  0  0  0  0  0  0
  -26.3390  -32.0050   25.3210 C   0  0  1  0  0  0  0  0  0  0  0  0
  -25.2170  -31.7720   26.3600 C   0  0  0  0  0  1  0  0  0  0  0  0
  -26.9680  -30.6300   24.9930 C   0  0  0  0  0  1  0  0  0  0  0  0
  -27.4440  -32.8460   26.0030 C   0  0  0  0  0  1  0  0  0  0  0  0
  1 48  1  0
  2  7  2  0
  2  4  1  0
  3  5  2  0
  4  6  2  0
  5  1  1  0
  6  5  1  0
  6 18  1  0
  7  3  1  0
  8  4  1  0
  9  7  1  0
 10 18  1  0
 11 16  1  0
 12 13  1  0
 12 11  1  0
 14 13  1  0
 14 23  1  0
 14 15  1  0
 16 10  1  0
 16 15  1  0
 17 10  2  0
 18 19  1  0
 20 21  2  0
 21 22  1  0
 21 40  1  0
 22 25  1  0
 23 20  1  0
 23 24  1  0
 24 22  2  0
 25 26  1  0
 26 27  2  0
 28 31  1  0
 28 27  1  0
 29 28  2  0
 30 29  1  0
 30 25  2  0
 31 32  1  0
 32 33  1  0
 33 34  2  0
 35 34  1  0
 35 39  1  0
 36 35  2  0
 37 32  2  0
 37 36  1  0
 38 37  1  0
 40 41  1  0
 41 44  1  0
 41 43  1  0
 42 40  2  0
 45 46  1  0
 45 20  1  0
 47 45  1  0
 48 50  1  0
 48 49  1  0
 51 52  1  0
 51 48  1  0
 53 54  1  0
 53 52  2  0
 55 66  2  0
 56 54  1  0
 56 61  1  0
 57 65  1  0
 57 67  1  0
 58 64  1  0
 58 60  1  0
 59 65  1  0
 60 61  2  0
 60 59  1  0
 62 56  2  0
 63 62  1  0
 63 58  2  0
 64 57  1  0
 65 55  1  0
 67 69  2  0
 68 67  1  0
 70 68  1  0
 71 80  2  0
 71 76  1  0
 72 68  1  0
 72 76  1  0
 73 72  1  0
 74 75  1  0
 74 73  1  0
 75 71  1  0
 76 77  2  0
 77 78  1  0
 79 78  2  0
 80 79  1  0
 81 55  1  0
 81 82  1  0
 81 91  1  0
 82 85  1  0
 83 87  1  0
 83 82  1  0
 84 83  2  0
 87 86  1  0
 89 90  1  0
 89 87  1  0
 89 88  1  0
 91 94  1  1
 91 92  1  0
 93 91  1  0
M  ISO  4  10 100  18 100  53 101  54 101
M  END
>  <TORSDO>  (13) 
F 21

>  <SCORE>  (13) 
-11.803

>  <name>  (13) 
12

>  <ligand_id>  (13) 
12

>  <original_smiles>  (13) 
[H]c1c([H])c([H])c2c(c1[H])C([H])([H])C([H])([H])C([H])([H])C2([H])N([H])C(=O)C1([H])N(C(=O)C([H])(N([H])C(=O)C([H])(N([H])C([H])([H])[H])C([H])([H])[H])C(C([H])([H])[H])(C([H])([H])[H])C([H])([H])[H])C([H])([H])c2c([H])c(OC([H])([H])C([H])([H])C([H])([H])[N+]([H])([H])C([H])([H])c3c([H])c(Cl)c([H])c(C([H])([H])[H])c3N([H])C(=O)N3C([H])([H])C([H])([H])C([H])([H])C([H])(n4nc(-c5c([H])c([H])c(Oc6c([H])c([H])c(F)c([H])c6F)c([H])c5[H])c(C(=O)N([H])[H])c4N([H])[H])C3([H])[H])c([H])c([H])c2C1([H])[H]

>  <smiles>  (13) 
[H]c1c([H])c([H])c2c(c1[H])C([H])([H])C([H])([H])C([H])([H])C2([H])N([H])C(=O)C1([H])N(C(=O)C([H])(N([H])C(=O)C([H])(N([H])C([H])([H])[H])C([H])([H])[H])C(C([H])([H])[H])(C([H])([H])[H])C([H])([H])[H])C([H])([H])c2c([H])c(OC([H])([H])C([H])([H])C([H])([H])[N+]([H])([H])C([H])([H])c3c([H])c(Cl)c([H])c(C([H])([H])[H])c3N([H])C(=O)N3C([H])([H])C([H])([H])C([H])([H])C([H])(n4nc(-c5c([H])c([H])c(Oc6c([H])c([H])c(F)c([H])c6F)c([H])c5[H])c(C(=O)N([H])[H])c4N([H])[H])C3([H])[H])c([H])c([H])c2C1([H])[H]

$$$$
13:0:0
     RDKit          3D

 95103  0  0  1  0  0  0  0  0999 V2000
  -31.1160  -21.1320   20.3960 C   0  0  0  0  0  2  0  0  0  0  0  0
  -29.5530  -19.0890   20.2830 C   0  0  0  0  0  3  0  0  0  0  0  0
  -31.4930  -17.4350   21.4380 C   0  0  0  0  0  3  0  0  0  0  0  0
  -29.2840  -17.7050   20.4530 C   0  0  0  0  0  0  0  0  0  0  0  0
  -30.7880  -19.6570   20.6790 C   0  0  0  0  0  0  0  0  0  0  0  0
  -30.2860  -16.8500   20.9860 C   0  0  0  0  0  0  0  0  0  0  0  0
  -31.7520  -18.8110   21.2790 C   0  0  0  0  0  0  0  0  0  0  0  0
  -33.2900  -19.4120   21.7940 Cl  0  0  0  0  0  0  0  0  0  0  0  0
  -30.6680  -14.4670   20.3300 C   0  0  0  0  0  0  0  0  0  0  0  0
  -30.3270  -12.3350   19.1400 C   0  0  0  0  0  2  0  0  0  0  0  0
  -29.3400  -12.5460   17.9740 C   0  0  0  0  0  2  0  0  0  0  0  0
  -27.8850  -12.3870   18.4540 C   0  0  0  0  0  2  0  0  0  0  0  0
  -27.5860  -13.1980   19.7440 C   0  0  0  0  0  3  0  0  0  0  0  0
  -28.6830  -12.9730   20.8100 C   0  0  0  0  0  2  0  0  0  0  0  0
  -29.9870  -13.2960   20.2030 N   0  0  0  0  0  0  0  0  0  0  0  0
  -31.7410  -14.6650   19.7520 O   0  0  0  0  0  0  0  0  0  0  0  0
  -30.0580  -15.4320   21.0510 N   0  0  0  0  0  0  0  0  0  0  0  0
  -29.1840  -15.1400   21.4610 H   0  0  0  0  0  0  0  0  0  0  0  0
  -25.2030  -13.7560   20.5430 C   0  0  0  0  0  0  0  0  0  0  0  0
  -24.1610  -12.9640   20.9420 C   0  0  0  0  0  0  0  0  0  0  0  0
  -24.6380  -11.6200   20.8670 C   0  0  0  0  0  0  0  0  0  0  0  0
  -26.2530  -12.8950   20.2630 N   0  0  0  0  0  0  0  0  0  0  0  0
  -25.9170  -11.6030   20.5130 N   0  0  0  0  0  0  0  0  0  0  0  0
  -23.9340  -10.3460   21.0550 C   0  0  0  0  0  0  0  0  0  0  0  0
  -24.3950   -9.3770   21.9730 C   0  0  0  0  0  3  0  0  0  0  0  0
  -23.6890   -8.1670   22.1490 C   0  0  0  0  0  3  0  0  0  0  0  0
  -22.5090   -7.9190   21.4070 C   0  0  0  0  0  0  0  0  0  0  0  0
  -22.0680   -8.8790   20.4780 C   0  0  0  0  0  3  0  0  0  0  0  0
  -22.7760  -10.0790   20.2990 C   0  0  0  0  0  3  0  0  0  0  0  0
  -21.7740   -6.7620   21.4940 O   0  0  0  0  0  0  0  0  0  0  0  0
  -21.7240   -6.0260   22.6500 C   0  0  0  0  0  0  0  0  0  0  0  0
  -21.2780   -6.5830   23.8690 C   0  0  0  0  0  3  0  0  0  0  0  0
  -21.1760   -5.7730   25.0180 C   0  0  0  0  0  3  0  0  0  0  0  0
  -21.5120   -4.4080   24.9490 C   0  0  0  0  0  0  0  0  0  0  0  0
  -21.9510   -3.8510   23.7360 C   0  0  0  0  0  3  0  0  0  0  0  0
  -22.0530   -4.6570   22.5880 C   0  0  0  0  0  0  0  0  0  0  0  0
  -22.4570   -4.1100   21.4160 F   0  0  0  0  0  0  0  0  0  0  0  0
  -21.4070   -3.6270   26.0500 F   0  0  0  0  0  0  0  0  0  0  0  0
  -22.7710  -13.4210   21.2750 C   0  0  0  0  0  0  0  0  0  0  0  0
  -22.0870  -12.7080   22.1630 N   0  0  0  0  0  0  0  0  0  0  0  0
  -22.2980  -14.4450   20.7830 O   0  0  0  0  0  0  0  0  0  0  0  0
  -22.4810  -11.8780   22.5820 H   0  0  0  0  0  0  0  0  0  0  0  0
  -21.1570  -12.9970   22.4300 H   0  0  0  0  0  0  0  0  0  0  0  0
  -25.3310  -15.1260   20.3690 N   0  0  0  0  0  0  0  0  0  0  0  0
  -24.5480  -15.7580   20.4930 H   0  0  0  0  0  0  0  0  0  0  0  0
  -26.1280  -15.5640   19.9270 H   0  0  0  0  0  0  0  0  0  0  0  0
  -26.8520  -18.1290   19.6090 C   0  0  0  0  0  1  0  0  0  0  0  0
  -27.9410  -17.1190   20.0130 C   0  0  0  0  0  2  0  0  0  0  0  0
  -30.1310  -22.1000   20.9250 N   0  0  0  0  0  4  0  0  0  0  0  0
  -29.5570  -21.3670   20.5400 H   0  0  0  0  0  0  0  0  0  0  0  0
  -30.8510  -22.6950   20.5490 H   0  0  0  0  0  0  0  0  0  0  0  0
  -29.2600  -22.9410   20.0680 C   0  0  0  0  0  2  0  0  0  0  0  0
  -29.4980  -24.4660   20.2310 C   0  0  0  0  0  2  0  0  0  0  0  0
  -28.3680  -25.2880   19.5770 C   0  0  0  0  0  2  0  0  0  0  0  0
  -28.4830  -26.7060   19.7890 O   0  0  0  0  0  0  0  0  0  0  0  0
  -24.6020  -31.6890   23.0600 C   0  0  0  0  0  0  0  0  0  0  0  0
  -27.3010  -27.4270   19.7780 C   0  0  0  0  0  0  0  0  0  0  0  0
  -23.4080  -30.3360   21.3700 C   0  0  0  0  0  3  0  0  0  0  0  0
  -24.8780  -28.8950   19.8650 C   0  0  0  0  0  0  0  0  0  0  0  0
  -25.9250  -30.7550   21.1630 C   0  0  0  0  0  2  0  0  0  0  0  0
  -26.0320  -29.4130   20.4660 C   0  0  0  0  0  0  0  0  0  0  0  0
  -27.2460  -28.6880   20.4180 C   0  0  0  0  0  3  0  0  0  0  0  0
  -26.1260  -26.9360   19.1560 C   0  0  0  0  0  3  0  0  0  0  0  0
  -24.9200  -27.6570   19.2060 C   0  0  0  0  0  3  0  0  0  0  0  0
  -23.6170  -29.7230   19.9590 C   0  0  0  0  0  2  0  0  0  0  0  0
  -24.6640  -30.9390   21.9240 N   0  0  0  0  0  0  0  0  0  0  0  0
  -23.5210  -31.9160   23.6190 O   0  0  0  0  0  0  0  0  0  0  0  0
  -22.7870  -29.2590   22.2880 C   0  0  0  0  0  0  0  0  0  0  0  0
  -21.4600  -29.0760   22.1800 N   0  0  0  0  0  0  0  0  0  0  0  0
  -23.4930  -28.5960   23.0520 O   0  0  0  0  0  0  0  0  0  0  0  0
  -20.9520  -29.6680   21.5380 H   0  0  0  0  0  0  0  0  0  0  0  0
  -18.0990  -27.8610   22.7100 C   0  0  0  0  0  0  0  0  0  0  0  0
  -20.6650  -28.0960   22.9180 C   0  0  0  0  0  3  0  0  0  0  0  0
  -20.7440  -26.7010   22.2540 C   0  0  0  0  0  2  0  0  0  0  0  0
  -19.6100  -26.4430   21.2570 C   0  0  0  0  0  2  0  0  0  0  0  0
  -18.2490  -26.5530   21.9520 C   0  0  0  0  0  2  0  0  0  0  0  0
  -19.2340  -28.5920   23.1500 C   0  0  0  0  0  0  0  0  0  0  0  0
  -19.0390  -29.8200   23.8200 C   0  0  0  0  0  3  0  0  0  0  0  0
  -17.7430  -30.3150   24.0530 C   0  0  0  0  0  3  0  0  0  0  0  0
  -16.6230  -29.5780   23.6310 C   0  0  0  0  0  3  0  0  0  0  0  0
  -16.8030  -28.3530   22.9650 C   0  0  0  0  0  3  0  0  0  0  0  0
  -25.8810  -32.3180   23.6960 C   0  0  0  0  0  3  0  0  0  0  0  0
  -25.5490  -33.6960   24.0830 N   0  0  0  0  0  0  0  0  0  0  0  0
  -25.8560  -34.7830   23.3630 C   0  0  0  0  0  0  0  0  0  0  0  0
  -26.5200  -34.7320   22.3240 O   0  0  0  0  0  0  0  0  0  0  0  0
  -24.9580  -33.8070   24.8940 H   0  0  0  0  0  0  0  0  0  0  0  0
  -24.0890  -36.5510   23.0890 C   0  0  0  0  0  1  0  0  0  0  0  0
  -25.3440  -36.1420   23.8760 C   0  0  0  0  0  3  0  0  0  0  0  0
  -27.4690  -37.0360   24.7240 C   0  0  0  0  0  1  0  0  0  0  0  0
  -26.3560  -37.2180   23.7950 N   0  0  0  0  0  0  0  0  0  0  0  0
  -25.9330  -38.1250   23.9810 H   0  0  0  0  0  0  0  0  0  0  0  0
  -26.4240  -31.5050   24.9340 C   0  0  1  0  0  0  0  0  0  0  0  0
  -25.3480  -31.2090   26.0050 C   0  0  0  0  0  1  0  0  0  0  0  0
  -27.0200  -30.1520   24.4780 C   0  0  0  0  0  1  0  0  0  0  0  0
  -27.5710  -32.2870   25.6150 C   0  0  0  0  0  1  0  0  0  0  0  0
  1  5  1  0
  1 49  1  0
  2  4  2  0
  2  5  1  0
  4  6  1  0
  5  7  2  0
  6 17  1  0
  6  3  2  0
  7  3  1  0
  7  8  1  0
  9 17  1  0
 10 15  1  0
 11 12  1  0
 11 10  1  0
 13 12  1  0
 13 22  1  0
 13 14  1  0
 15  9  1  0
 15 14  1  0
 16  9  2  0
 17 18  1  0
 19 20  2  0
 20 39  1  0
 21 20  1  0
 21 24  1  0
 22 23  1  0
 22 19  1  0
 23 21  2  0
 24 25  1  0
 25 26  2  0
 27 30  1  0
 27 26  1  0
 28 27  2  0
 29 28  1  0
 29 24  2  0
 30 31  1  0
 31 32  1  0
 32 33  2  0
 34 33  1  0
 34 38  1  0
 35 34  2  0
 36 31  2  0
 36 35  1  0
 37 36  1  0
 39 40  1  0
 40 43  1  0
 40 42  1  0
 41 39  2  0
 44 45  1  0
 44 19  1  0
 46 44  1  0
 47 48  1  0
 48  4  1  0
 50 49  1  0
 51 49  1  0
 52 53  1  0
 52 49  1  0
 54 55  1  0
 54 53  1  0
 56 67  2  0
 57 55  1  0
 57 62  1  0
 58 66  1  0
 58 68  1  0
 59 65  1  0
 59 61  1  0
 60 66  1  0
 61 60  1  0
 62 61  2  0
 63 64  1  0
 63 57  2  0
 64 59  2  0
 65 58  1  0
 66 56  1  0
 68 70  2  0
 69 68  1  0
 71 69  1  0
 72 81  2  0
 72 77  1  0
 73 69  1  0
 73 77  1  0
 74 73  1  0
 75 76  1  0
 75 74  1  0
 76 72  1  0
 77 78  2  0
 78 79  1  0
 80 79  2  0
 81 80  1  0
 82 56  1  0
 82 83  1  0
 82 92  1  0
 83 86  1  0
 84 88  1  0
 84 83  1  0
 85 84  2  0
 88 87  1  0
 90 88  1  0
 90 91  1  0
 90 89  1  0
 92 95  1  1
 92 93  1  0
 94 92  1  0
M  ISO  4   9 100  17 100  54 101  55 101
M  END
>  <TORSDO>  (14) 
F 22

>  <SCORE>  (14) 
-13.207

>  <name>  (14) 
13

>  <ligand_id>  (14) 
13

>  <original_smiles>  (14) 
[H]c1c([H])c([H])c2c(c1[H])C([H])([H])C([H])([H])C([H])([H])C2([H])N([H])C(=O)C1([H])N(C(=O)C([H])(N([H])C(=O)C([H])(N([H])C([H])([H])[H])C([H])([H])[H])C(C([H])([H])[H])(C([H])([H])[H])C([H])([H])[H])C([H])([H])c2c([H])c(OC([H])([H])C([H])([H])C([H])([H])[N+]([H])([H])C([H])([H])c3c([H])c(C([H])([H])C([H])([H])[H])c(N([H])C(=O)N4C([H])([H])C([H])([H])C([H])([H])C([H])(n5nc(-c6c([H])c([H])c(Oc7c([H])c([H])c(F)c([H])c7F)c([H])c6[H])c(C(=O)N([H])[H])c5N([H])[H])C4([H])[H])c([H])c3Cl)c([H])c([H])c2C1([H])[H]

>  <smiles>  (14) 
[H]c1c([H])c([H])c2c(c1[H])C([H])([H])C([H])([H])C([H])([H])C2([H])N([H])C(=O)C1([H])N(C(=O)C([H])(N([H])C(=O)C([H])(N([H])C([H])([H])[H])C([H])([H])[H])C(C([H])([H])[H])(C([H])([H])[H])C([H])([H])[H])C([H])([H])c2c([H])c(OC([H])([H])C([H])([H])C([H])([H])[N+]([H])([H])C([H])([H])c3c([H])c(C([H])([H])C([H])([H])[H])c(N([H])C(=O)N4C([H])([H])C([H])([H])C([H])([H])C([H])(n5nc(-c6c([H])c([H])c(Oc7c([H])c([H])c(F)c([H])c7F)c([H])c6[H])c(C(=O)N([H])[H])c5N([H])[H])C4([H])[H])c([H])c3Cl)c([H])c([H])c2C1([H])[H]

$$$$
14:0:0
     RDKit          3D

 93101  0  0  1  0  0  0  0  0999 V2000
  -30.1540  -21.6520   20.2490 C   0  0  0  0  0  2  0  0  0  0  0  0
  -29.1920  -19.3100   19.5970 C   0  0  0  0  0  3  0  0  0  0  0  0
  -30.7120  -17.9470   21.5040 C   0  0  0  0  0  3  0  0  0  0  0  0
  -29.1510  -17.8840   19.6670 C   0  0  0  0  0  0  0  0  0  0  0  0
  -29.9860  -20.0990   20.4710 C   0  0  0  0  0  0  0  0  0  0  0  0
  -29.9290  -17.1630   20.6190 C   0  0  0  0  0  0  0  0  0  0  0  0
  -30.7440  -19.3720   21.4380 C   0  0  0  0  0  0  0  0  0  0  0  0
  -28.2570  -17.1370   18.6930 C   0  0  0  0  0  1  0  0  0  0  0  0
  -31.7560  -20.2020   22.5680 Cl  0  0  0  0  0  0  0  0  0  0  0  0
  -30.5820  -14.6830   20.4090 C   0  0  0  0  0  0  0  0  0  0  0  0
  -30.3620  -12.4630   19.3170 C   0  0  0  0  0  2  0  0  0  0  0  0
  -29.4010  -12.6090   18.1150 C   0  0  0  0  0  2  0  0  0  0  0  0
  -27.9330  -12.4460   18.5570 C   0  0  0  0  0  2  0  0  0  0  0  0
  -27.5880  -13.2920   19.8110 C   0  0  0  0  0  3  0  0  0  0  0  0
  -28.6590  -13.1170   20.9120 C   0  0  0  0  0  2  0  0  0  0  0  0
  -29.9650  -13.4630   20.3260 N   0  0  0  0  0  0  0  0  0  0  0  0
  -31.7370  -14.8540   20.0090 O   0  0  0  0  0  0  0  0  0  0  0  0
  -29.7820  -15.7230   20.7950 N   0  0  0  0  0  0  0  0  0  0  0  0
  -28.8540  -15.4210   21.0500 H   0  0  0  0  0  0  0  0  0  0  0  0
  -25.2030  -13.8920   20.5600 C   0  0  0  0  0  0  0  0  0  0  0  0
  -24.1370  -13.1170   20.9300 C   0  0  0  0  0  0  0  0  0  0  0  0
  -24.5960  -11.7650   20.8740 C   0  0  0  0  0  0  0  0  0  0  0  0
  -26.2430  -13.0120   20.3040 N   0  0  0  0  0  0  0  0  0  0  0  0
  -25.8820  -11.7260   20.5510 N   0  0  0  0  0  0  0  0  0  0  0  0
  -23.8660  -10.5030   21.0540 C   0  0  0  0  0  0  0  0  0  0  0  0
  -24.2890   -9.5320   21.9900 C   0  0  0  0  0  3  0  0  0  0  0  0
  -23.5590   -8.3350   22.1580 C   0  0  0  0  0  3  0  0  0  0  0  0
  -22.3960   -8.1000   21.3880 C   0  0  0  0  0  0  0  0  0  0  0  0
  -21.9930   -9.0580   20.4410 C   0  0  0  0  0  3  0  0  0  0  0  0
  -22.7230  -10.2460   20.2720 C   0  0  0  0  0  3  0  0  0  0  0  0
  -21.6410   -6.9540   21.4640 O   0  0  0  0  0  0  0  0  0  0  0  0
  -21.5590   -6.2210   22.6210 C   0  0  0  0  0  0  0  0  0  0  0  0
  -21.0390   -6.7690   23.8140 C   0  0  0  0  0  3  0  0  0  0  0  0
  -20.9080   -5.9610   24.9620 C   0  0  0  0  0  3  0  0  0  0  0  0
  -21.2870   -4.6050   24.9160 C   0  0  0  0  0  0  0  0  0  0  0  0
  -21.7990   -4.0580   23.7270 C   0  0  0  0  0  3  0  0  0  0  0  0
  -21.9320   -4.8620   22.5820 C   0  0  0  0  0  0  0  0  0  0  0  0
  -22.4080   -4.3230   21.4340 F   0  0  0  0  0  0  0  0  0  0  0  0
  -21.1530   -3.8270   26.0150 F   0  0  0  0  0  0  0  0  0  0  0  0
  -22.7450  -13.5950   21.2220 C   0  0  0  0  0  0  0  0  0  0  0  0
  -22.0210  -12.8880   22.0820 N   0  0  0  0  0  0  0  0  0  0  0  0
  -22.3070  -14.6310   20.7240 O   0  0  0  0  0  0  0  0  0  0  0  0
  -22.3880  -12.0480   22.5070 H   0  0  0  0  0  0  0  0  0  0  0  0
  -21.0870  -13.1900   22.3200 H   0  0  0  0  0  0  0  0  0  0  0  0
  -25.3670  -15.2650   20.4050 N   0  0  0  0  0  0  0  0  0  0  0  0
  -24.6010  -15.9150   20.5400 H   0  0  0  0  0  0  0  0  0  0  0  0
  -26.2120  -15.7130   20.0750 H   0  0  0  0  0  0  0  0  0  0  0  0
  -29.0100  -22.6080   20.5010 N   0  0  0  0  0  4  0  0  0  0  0  0
  -28.6440  -22.4250   21.4200 H   0  0  0  0  0  0  0  0  0  0  0  0
  -28.2840  -22.3770   19.8410 H   0  0  0  0  0  0  0  0  0  0  0  0
  -29.3350  -24.0970   20.3920 C   0  0  0  0  0  3  0  0  0  0  0  0
  -28.1100  -25.0830   20.1930 C   0  0  0  0  0  3  0  0  0  0  0  0
  -28.3330  -26.5460   20.2620 O   0  0  0  0  0  0  0  0  0  0  0  0
  -24.5940  -31.9400   23.2570 C   0  0  0  0  0  0  0  0  0  0  0  0
  -27.2060  -27.3820   20.2100 C   0  0  0  0  0  0  0  0  0  0  0  0
  -23.3900  -30.5420   21.6160 C   0  0  0  0  0  3  0  0  0  0  0  0
  -24.8390  -28.9920   20.1940 C   0  0  0  0  0  0  0  0  0  0  0  0
  -25.9300  -30.8580   21.4360 C   0  0  0  0  0  2  0  0  0  0  0  0
  -26.0080  -29.4810   20.7920 C   0  0  0  0  0  0  0  0  0  0  0  0
  -27.1940  -28.6890   20.7870 C   0  0  0  0  0  3  0  0  0  0  0  0
  -26.0110  -26.9460   19.5910 C   0  0  0  0  0  3  0  0  0  0  0  0
  -24.8440  -27.7300   19.5840 C   0  0  0  0  0  3  0  0  0  0  0  0
  -23.6040  -29.8650   20.2370 C   0  0  0  0  0  2  0  0  0  0  0  0
  -24.6580  -31.1300   22.1590 N   0  0  0  0  0  0  0  0  0  0  0  0
  -23.5100  -32.2210   23.7880 O   0  0  0  0  0  0  0  0  0  0  0  0
  -22.7240  -29.5270   22.5760 C   0  0  0  0  0  0  0  0  0  0  0  0
  -21.3990  -29.3470   22.4390 N   0  0  0  0  0  0  0  0  0  0  0  0
  -23.3970  -28.9060   23.4020 O   0  0  0  0  0  0  0  0  0  0  0  0
  -20.9150  -29.9000   21.7460 H   0  0  0  0  0  0  0  0  0  0  0  0
  -18.0150  -28.1680   22.9340 C   0  0  0  0  0  0  0  0  0  0  0  0
  -20.5750  -28.4120   23.2070 C   0  0  0  0  0  3  0  0  0  0  0  0
  -20.6690  -26.9810   22.6310 C   0  0  0  0  0  2  0  0  0  0  0  0
  -19.5660  -26.6660   21.6150 C   0  0  0  0  0  2  0  0  0  0  0  0
  -18.1850  -26.8180   22.2570 C   0  0  0  0  0  2  0  0  0  0  0  0
  -19.1380  -28.9240   23.3660 C   0  0  0  0  0  0  0  0  0  0  0  0
  -18.9250  -30.1860   23.9590 C   0  0  0  0  0  3  0  0  0  0  0  0
  -17.6230  -30.6950   24.1230 C   0  0  0  0  0  3  0  0  0  0  0  0
  -16.5150  -29.9370   23.7080 C   0  0  0  0  0  3  0  0  0  0  0  0
  -16.7120  -28.6750   23.1190 C   0  0  0  0  0  3  0  0  0  0  0  0
  -25.8780  -32.5690   23.8810 C   0  0  0  0  0  3  0  0  0  0  0  0
  -26.3870  -31.7990   25.1610 C   0  0  1  0  0  0  0  0  0  0  0  0
  -25.2890  -31.5610   26.2240 C   0  0  0  0  0  1  0  0  0  0  0  0
  -26.9730  -30.4210   24.7740 C   0  0  0  0  0  1  0  0  0  0  0  0
  -27.5340  -32.5950   25.8290 C   0  0  0  0  0  1  0  0  0  0  0  0
  -25.5710  -33.9690   24.2070 N   0  0  0  0  0  0  0  0  0  0  0  0
  -25.8910  -35.0170   23.4380 C   0  0  0  0  0  0  0  0  0  0  0  0
  -26.5460  -34.9090   22.3970 O   0  0  0  0  0  0  0  0  0  0  0  0
  -24.9880  -34.1270   25.0160 H   0  0  0  0  0  0  0  0  0  0  0  0
  -24.1580  -36.8090   23.0970 C   0  0  0  0  0  1  0  0  0  0  0  0
  -25.4090  -36.4080   23.8940 C   0  0  0  0  0  3  0  0  0  0  0  0
  -27.5490  -37.3050   24.7010 C   0  0  0  0  0  1  0  0  0  0  0  0
  -26.4410  -37.4600   23.7630 N   0  0  0  0  0  0  0  0  0  0  0  0
  -26.0340  -38.3820   23.9010 H   0  0  0  0  0  0  0  0  0  0  0  0
  1  5  1  0
  1 48  1  0
  2  4  2  0
  2  5  1  0
  4  6  1  0
  5  7  2  0
  6 18  1  0
  6  3  2  0
  7  3  1  0
  7  9  1  0
  8  4  1  0
 10 18  1  0
 11 16  1  0
 12 13  1  0
 12 11  1  0
 14 13  1  0
 14 23  1  0
 14 15  1  0
 16 10  1  0
 16 15  1  0
 17 10  2  0
 18 19  1  0
 20 21  2  0
 21 40  1  0
 22 21  1  0
 22 25  1  0
 23 24  1  0
 23 20  1  0
 24 22  2  0
 25 26  1  0
 26 27  2  0
 28 31  1  0
 28 27  1  0
 29 28  2  0
 30 29  1  0
 30 25  2  0
 31 32  1  0
 32 33  1  0
 33 34  2  0
 35 34  1  0
 35 39  1  0
 36 35  2  0
 37 32  2  0
 37 36  1  0
 38 37  1  0
 40 41  1  0
 41 44  1  0
 41 43  1  0
 42 40  2  0
 45 46  1  0
 45 20  1  0
 47 45  1  0
 48 49  1  0
 50 48  1  0
 51 48  1  0
 52 53  1  0
 52 51  2  0
 54 65  2  0
 55 53  1  0
 55 60  1  0
 56 64  1  0
 56 66  1  0
 57 63  1  0
 57 59  1  0
 58 64  1  0
 59 58  1  0
 60 59  2  0
 61 55  2  0
 62 61  1  0
 62 57  2  0
 63 56  1  0
 64 54  1  0
 66 68  2  0
 67 66  1  0
 69 67  1  0
 70 79  2  0
 70 75  1  0
 71 67  1  0
 71 75  1  0
 72 71  1  0
 73 74  1  0
 73 72  1  0
 74 70  1  0
 75 76  2  0
 76 77  1  0
 78 77  2  0
 79 78  1  0
 80 54  1  0
 80 85  1  0
 80 81  1  0
 81 84  1  1
 81 82  1  0
 83 81  1  0
 85 88  1  0
 86 90  1  0
 86 85  1  0
 87 86  2  0
 90 89  1  0
 92 90  1  0
 92 93  1  0
 92 91  1  0
M  ISO  4  10 100  18 100  52 101  53 101
M  END
>  <TORSDO>  (15) 
F 20

>  <SCORE>  (15) 
-14.207

>  <name>  (15) 
14

>  <ligand_id>  (15) 
14

>  <original_smiles>  (15) 
[H]c1c([H])c([H])c2c(c1[H])C([H])([H])C([H])([H])C([H])([H])C2([H])N([H])C(=O)C1([H])N(C(=O)C([H])(N([H])C(=O)C([H])(N([H])C([H])([H])[H])C([H])([H])[H])C(C([H])([H])[H])(C([H])([H])[H])C([H])([H])[H])C([H])([H])c2c([H])c(OC([H])([H])C([H])([H])[N+]([H])([H])C([H])([H])c3c([H])c(C([H])([H])[H])c(N([H])C(=O)N4C([H])([H])C([H])([H])C([H])([H])C([H])(n5nc(-c6c([H])c([H])c(Oc7c([H])c([H])c(F)c([H])c7F)c([H])c6[H])c(C(=O)N([H])[H])c5N([H])[H])C4([H])[H])c([H])c3Cl)c([H])c([H])c2C1([H])[H]

>  <smiles>  (15) 
[H]c1c([H])c([H])c2c(c1[H])C([H])([H])C([H])([H])C([H])([H])C2([H])N([H])C(=O)C1([H])N(C(=O)C([H])(N([H])C(=O)C([H])(N([H])C([H])([H])[H])C([H])([H])[H])C(C([H])([H])[H])(C([H])([H])[H])C([H])([H])[H])C([H])([H])c2c([H])c(OC([H])([H])C([H])([H])[N+]([H])([H])C([H])([H])c3c([H])c(C([H])([H])[H])c(N([H])C(=O)N4C([H])([H])C([H])([H])C([H])([H])C([H])(n5nc(-c6c([H])c([H])c(Oc7c([H])c([H])c(F)c([H])c7F)c([H])c6[H])c(C(=O)N([H])[H])c5N([H])[H])C4([H])[H])c([H])c3Cl)c([H])c([H])c2C1([H])[H]

$$$$
15:0:0
     RDKit          3D

100109  0  0  1  0  0  0  0  0999 V2000
  -30.0430  -22.8870   18.6020 C   0  0  0  0  0  0  0  0  0  0  0  0
  -31.1820  -22.2640   18.2140 C   0  0  0  0  0  0  0  0  0  0  0  0
  -29.2050  -23.8490   17.7480 C   0  0  0  0  0  2  0  0  0  0  0  0
  -28.1990  -24.7760   18.5060 C   0  0  0  0  0  2  0  0  0  0  0  0
  -29.6480  -24.2920   20.6030 C   0  0  0  0  0  2  0  0  0  0  0  0
  -28.5460  -25.1870   19.9730 C   0  0  0  0  0  3  0  0  0  0  0  0
  -32.1680  -21.6020   19.1590 C   0  0  0  0  0  1  0  0  0  0  0  0
  -31.6280  -22.2100   16.7630 C   0  0  0  0  0  1  0  0  0  0  0  0
  -29.5120  -22.9450   19.9810 N   0  0  2  0  0  4  0  0  0  0  0  0
  -28.5590  -23.1500   19.7160 H   0  0  0  0  0  0  0  0  0  0  0  0
  -28.6780  -26.6390   20.1200 O   0  0  0  0  0  0  0  0  0  0  0  0
  -24.6040  -31.7460   23.0900 C   0  0  0  0  0  0  0  0  0  0  0  0
  -27.5070  -27.3950   20.0500 C   0  0  0  0  0  0  0  0  0  0  0  0
  -23.5060  -30.2860   21.4350 C   0  0  0  0  0  3  0  0  0  0  0  0
  -25.0580  -28.8420   20.0280 C   0  0  0  0  0  0  0  0  0  0  0  0
  -26.0280  -30.7570   21.2940 C   0  0  0  0  0  2  0  0  0  0  0  0
  -26.1880  -29.3970   20.6410 C   0  0  0  0  0  0  0  0  0  0  0  0
  -27.4180  -28.6850   20.6470 C   0  0  0  0  0  3  0  0  0  0  0  0
  -26.3460  -26.8970   19.4020 C   0  0  0  0  0  3  0  0  0  0  0  0
  -25.1330  -27.5930   19.4090 C   0  0  0  0  0  3  0  0  0  0  0  0
  -23.7750  -29.6390   20.0560 C   0  0  0  0  0  2  0  0  0  0  0  0
  -24.7310  -30.9450   21.9970 N   0  0  0  0  0  0  0  0  0  0  0  0
  -23.4970  -31.9640   23.6010 O   0  0  0  0  0  0  0  0  0  0  0  0
  -22.8900  -29.2250   22.3780 C   0  0  0  0  0  0  0  0  0  0  0  0
  -21.5800  -28.9720   22.2210 N   0  0  0  0  0  0  0  0  0  0  0  0
  -23.5900  -28.6300   23.2030 O   0  0  0  0  0  0  0  0  0  0  0  0
  -21.0760  -29.5000   21.5220 H   0  0  0  0  0  0  0  0  0  0  0  0
  -18.2660  -27.5910   22.6380 C   0  0  0  0  0  0  0  0  0  0  0  0
  -20.7960  -27.9940   22.9750 C   0  0  0  0  0  3  0  0  0  0  0  0
  -20.9980  -26.5660   22.4140 C   0  0  0  0  0  2  0  0  0  0  0  0
  -19.9450  -26.1780   21.3750 C   0  0  0  0  0  2  0  0  0  0  0  0
  -18.5410  -26.2480   21.9800 C   0  0  0  0  0  2  0  0  0  0  0  0
  -19.3270  -28.4170   23.0910 C   0  0  0  0  0  0  0  0  0  0  0  0
  -19.0210  -29.6720   23.6620 C   0  0  0  0  0  3  0  0  0  0  0  0
  -17.6850  -30.0980   23.7890 C   0  0  0  0  0  3  0  0  0  0  0  0
  -16.6390  -29.2690   23.3550 C   0  0  0  0  0  3  0  0  0  0  0  0
  -16.9290  -28.0190   22.7810 C   0  0  0  0  0  3  0  0  0  0  0  0
  -25.8400  -32.4450   23.7330 C   0  0  0  0  0  3  0  0  0  0  0  0
  -26.3990  -31.6820   24.9970 C   0  0  1  0  0  0  0  0  0  0  0  0
  -25.3170  -31.3490   26.0500 C   0  0  0  0  0  1  0  0  0  0  0  0
  -27.0750  -30.3550   24.5810 C   0  0  0  0  0  1  0  0  0  0  0  0
  -27.4910  -32.5380   25.6810 C   0  0  0  0  0  1  0  0  0  0  0  0
  -25.4370  -33.8120   24.0870 N   0  0  0  0  0  0  0  0  0  0  0  0
  -25.7410  -34.9040   23.3730 C   0  0  0  0  0  0  0  0  0  0  0  0
  -26.4610  -34.8700   22.3710 O   0  0  0  0  0  0  0  0  0  0  0  0
  -24.7950  -33.9120   24.8600 H   0  0  0  0  0  0  0  0  0  0  0  0
  -23.9300  -36.6080   22.9950 C   0  0  0  0  0  1  0  0  0  0  0  0
  -25.1560  -36.2490   23.8480 C   0  0  0  0  0  3  0  0  0  0  0  0
  -27.1990  -37.2230   24.7950 C   0  0  0  0  0  1  0  0  0  0  0  0
  -26.1290  -37.3610   23.8100 N   0  0  0  0  0  0  0  0  0  0  0  0
  -25.6660  -38.2520   23.9670 H   0  0  0  0  0  0  0  0  0  0  0  0
  -28.9880  -21.7370   20.7150 C   0  0  0  0  0  2  0  0  0  0  0  0
  -29.7710  -19.3230   20.3440 C   0  0  0  0  0  3  0  0  0  0  0  0
  -31.2610  -18.1510   21.8640 C   0  0  0  0  0  3  0  0  0  0  0  0
  -30.4850  -18.1440   20.6910 C   0  0  0  0  0  0  0  0  0  0  0  0
  -29.8810  -20.5220   21.1030 C   0  0  0  0  0  0  0  0  0  0  0  0
  -30.7080  -20.5150   22.2670 C   0  0  0  0  0  0  0  0  0  0  0  0
  -31.3700  -19.3160   22.6490 C   0  0  0  0  0  0  0  0  0  0  0  0
  -32.3300  -19.2230   24.0830 Cl  0  0  0  0  0  0  0  0  0  0  0  0
  -29.7950  -22.0450   24.1270 C   0  0  0  0  0  1  0  0  0  0  0  0
  -30.9090  -21.7810   23.1000 C   0  0  0  0  0  2  0  0  0  0  0  0
  -30.5010  -16.9110   19.7730 C   0  0  0  0  0  2  0  0  0  0  0  0
  -30.9950  -14.5050   20.2160 C   0  0  0  0  0  0  0  0  0  0  0  0
  -30.7360  -12.2030   19.4080 C   0  0  0  0  0  2  0  0  0  0  0  0
  -29.8190  -12.2510   18.1660 C   0  0  0  0  0  2  0  0  0  0  0  0
  -28.3370  -12.1770   18.5810 C   0  0  0  0  0  2  0  0  0  0  0  0
  -27.9740  -13.1700   19.7140 C   0  0  0  0  0  3  0  0  0  0  0  0
  -29.0060  -13.0960   20.8620 C   0  0  0  0  0  2  0  0  0  0  0  0
  -30.3430  -13.3150   20.2860 N   0  0  0  0  0  0  0  0  0  0  0  0
  -32.1430  -14.6010   19.7750 O   0  0  0  0  0  0  0  0  0  0  0  0
  -30.2320  -15.6040   20.4040 N   0  0  0  0  0  0  0  0  0  0  0  0
  -29.3110  -15.4660   20.7900 H   0  0  0  0  0  0  0  0  0  0  0  0
  -25.6140  -13.9040   20.4290 C   0  0  0  0  0  0  0  0  0  0  0  0
  -24.5020  -13.1870   20.7920 C   0  0  0  0  0  0  0  0  0  0  0  0
  -24.8900  -11.8130   20.7550 C   0  0  0  0  0  0  0  0  0  0  0  0
  -26.6070  -12.9660   20.1900 N   0  0  0  0  0  0  0  0  0  0  0  0
  -26.1770  -11.7040   20.4430 N   0  0  0  0  0  0  0  0  0  0  0  0
  -24.0960  -10.5910   20.9480 C   0  0  0  0  0  0  0  0  0  0  0  0
  -24.4590   -9.6110   21.8980 C   0  0  0  0  0  3  0  0  0  0  0  0
  -23.6690   -8.4550   22.0690 C   0  0  0  0  0  3  0  0  0  0  0  0
  -22.5000   -8.2720   21.2950 C   0  0  0  0  0  0  0  0  0  0  0  0
  -22.1570   -9.2390   20.3340 C   0  0  0  0  0  3  0  0  0  0  0  0
  -22.9480  -10.3860   20.1590 C   0  0  0  0  0  3  0  0  0  0  0  0
  -21.6860   -7.1670   21.3770 O   0  0  0  0  0  0  0  0  0  0  0  0
  -21.5600   -6.4520   22.5400 C   0  0  0  0  0  0  0  0  0  0  0  0
  -21.1220   -7.0550   23.7400 C   0  0  0  0  0  3  0  0  0  0  0  0
  -20.9360   -6.2700   24.8940 C   0  0  0  0  0  3  0  0  0  0  0  0
  -21.1810   -4.8840   24.8510 C   0  0  0  0  0  0  0  0  0  0  0  0
  -21.6130   -4.2820   23.6560 C   0  0  0  0  0  3  0  0  0  0  0  0
  -21.7990   -5.0640   22.5030 C   0  0  0  0  0  0  0  0  0  0  0  0
  -22.1960   -4.4750   21.3490 F   0  0  0  0  0  0  0  0  0  0  0  0
  -20.9980   -4.1270   25.9580 F   0  0  0  0  0  0  0  0  0  0  0  0
  -23.1340  -13.7440   21.0600 C   0  0  0  0  0  0  0  0  0  0  0  0
  -22.3760  -13.1040   21.9430 N   0  0  0  0  0  0  0  0  0  0  0  0
  -22.7460  -14.7810   20.5230 O   0  0  0  0  0  0  0  0  0  0  0  0
  -22.7020  -12.2730   22.4090 H   0  0  0  0  0  0  0  0  0  0  0  0
  -21.4550  -13.4570   22.1580 H   0  0  0  0  0  0  0  0  0  0  0  0
  -25.8560  -15.2610   20.2540 N   0  0  0  0  0  0  0  0  0  0  0  0
  -25.1230  -15.9560   20.3530 H   0  0  0  0  0  0  0  0  0  0  0  0
  -26.7250  -15.6500   19.9060 H   0  0  0  0  0  0  0  0  0  0  0  0
  1  9  1  0
  2  1  2  0
  2  7  1  0
  3  4  1  0
  3  1  1  0
  4  6  1  0
  6 11  1  0
  6  5  1  0
  8  2  1  0
  9  5  1  0
  9 52  1  0
  9 10  1  6
 12 23  2  0
 13 11  1  0
 13 18  1  0
 14 22  1  0
 14 24  1  0
 15 21  1  0
 15 17  1  0
 16 22  1  0
 17 18  2  0
 17 16  1  0
 19 20  1  0
 19 13  2  0
 20 15  2  0
 21 14  1  0
 22 12  1  0
 24 26  2  0
 25 24  1  0
 27 25  1  0
 28 37  2  0
 28 33  1  0
 29 25  1  0
 29 33  1  0
 30 29  1  0
 31 32  1  0
 31 30  1  0
 32 28  1  0
 33 34  2  0
 34 35  1  0
 36 35  2  0
 37 36  1  0
 38 12  1  0
 38 43  1  0
 38 39  1  0
 39 42  1  1
 39 40  1  0
 41 39  1  0
 43 46  1  0
 44 48  1  0
 44 43  1  0
 45 44  2  0
 48 47  1  0
 50 48  1  0
 50 51  1  0
 50 49  1  0
 52 56  1  0
 53 55  2  0
 53 56  1  0
 54 58  2  0
 55 54  1  0
 56 57  2  0
 57 58  1  0
 57 61  1  0
 58 59  1  0
 61 60  1  0
 62 71  1  0
 62 55  1  0
 63 69  1  0
 63 71  1  0
 64 69  1  0
 65 66  1  0
 65 64  1  0
 67 66  1  0
 67 76  1  0
 67 68  1  0
 69 68  1  0
 70 63  2  0
 71 72  1  0
 73 74  2  0
 74 93  1  0
 75 74  1  0
 75 78  1  0
 76 73  1  0
 76 77  1  0
 77 75  2  0
 78 79  1  0
 79 80  2  0
 81 84  1  0
 81 80  1  0
 82 81  2  0
 83 82  1  0
 83 78  2  0
 84 85  1  0
 85 86  1  0
 86 87  2  0
 88 87  1  0
 88 92  1  0
 89 88  2  0
 90 85  2  0
 90 89  1  0
 91 90  1  0
 93 94  1  0
 94 97  1  0
 94 96  1  0
 95 93  2  0
 98 99  1  0
 98 73  1  0
100 98  1  0
M  ISO  4   6 101  11 101  63 100  71 100
M  END
>  <TORSDO>  (16) 
F 20

>  <SCORE>  (16) 
-12.320

>  <name>  (16) 
15

>  <ligand_id>  (16) 
15

>  <original_smiles>  (16) 
[H]c1c([H])c([H])c2c(c1[H])C([H])([H])C([H])([H])C([H])([H])C2([H])N([H])C(=O)C1([H])N(C(=O)C([H])(N([H])C(=O)C([H])(N([H])C([H])([H])[H])C([H])([H])[H])C(C([H])([H])[H])(C([H])([H])[H])C([H])([H])[H])C([H])([H])c2c([H])c(OC3([H])C([H])([H])C([H])([H])C(=C(C([H])([H])[H])C([H])([H])[H])[N+]([H])(C([H])([H])c4c([H])c(C([H])([H])N([H])C(=O)N5C([H])([H])C([H])([H])C([H])([H])C([H])(n6nc(-c7c([H])c([H])c(Oc8c([H])c([H])c(F)c([H])c8F)c([H])c7[H])c(C(=O)N([H])[H])c6N([H])[H])C5([H])[H])c([H])c(Cl)c4C([H])([H])C([H])([H])[H])C3([H])[H])c([H])c([H])c2C1([H])[H]

>  <smiles>  (16) 
[H]c1c([H])c([H])c2c(c1[H])C([H])([H])C([H])([H])C([H])([H])C2([H])N([H])C(=O)C1([H])N(C(=O)C([H])(N([H])C(=O)C([H])(N([H])C([H])([H])[H])C([H])([H])[H])C(C([H])([H])[H])(C([H])([H])[H])C([H])([H])[H])C([H])([H])c2c([H])c(OC3([H])C([H])([H])C([H])([H])C(=C(C([H])([H])[H])C([H])([H])[H])[N+]([H])(C([H])([H])c4c([H])c(C([H])([H])N([H])C(=O)N5C([H])([H])C([H])([H])C([H])([H])C([H])(n6nc(-c7c([H])c([H])c(Oc8c([H])c([H])c(F)c([H])c8F)c([H])c7[H])c(C(=O)N([H])[H])c6N([H])[H])C5([H])[H])c([H])c(Cl)c4C([H])([H])C([H])([H])[H])C3([H])[H])c([H])c([H])c2C1([H])[H]

$$$$
16:0:0
     RDKit          3D

102111  0  0  1  0  0  0  0  0999 V2000
  -29.8280  -24.2110   19.9600 C   0  0  0  0  0  0  0  0  0  0  0  0
  -30.9550  -24.9540   20.0660 C   0  0  0  0  0  3  0  0  0  0  0  0
  -27.7590  -22.9130   18.0280 C   0  0  0  0  0  2  0  0  0  0  0  0
  -29.1290  -22.6820   17.3910 C   0  0  0  0  0  2  0  0  0  0  0  0
  -27.5990  -24.3260   18.6100 C   0  0  0  0  0  2  0  0  0  0  0  0
  -30.1920  -22.2030   18.3810 C   0  0  0  0  0  2  0  0  0  0  0  0
  -28.3990  -24.8770   19.8340 C   0  0  0  0  0  3  0  0  0  0  0  0
  -29.9860  -22.6600   19.7830 N   0  0  2  0  0  4  0  0  0  0  0  0
  -30.9240  -22.5180   20.1240 H   0  0  0  0  0  0  0  0  0  0  0  0
  -32.3220  -24.4480   20.0290 C   0  0  0  0  0  3  0  0  0  0  0  0
  -33.3990  -25.2500   20.0450 C   0  0  0  0  0  3  0  0  0  0  0  0
  -34.8280  -24.7530   19.9510 C   0  0  0  0  0  1  0  0  0  0  0  0
  -28.4390  -26.3970   19.8800 O   0  0  0  0  0  0  0  0  0  0  0  0
  -24.6880  -31.7330   23.1760 C   0  0  0  0  0  0  0  0  0  0  0  0
  -27.3000  -27.2490   19.9260 C   0  0  0  0  0  0  0  0  0  0  0  0
  -23.4890  -30.3940   21.4910 C   0  0  0  0  0  3  0  0  0  0  0  0
  -24.9400  -28.9090   20.0100 C   0  0  0  0  0  0  0  0  0  0  0  0
  -26.0350  -30.6930   21.3390 C   0  0  0  0  0  2  0  0  0  0  0  0
  -26.1110  -29.3360   20.6460 C   0  0  0  0  0  0  0  0  0  0  0  0
  -27.2870  -28.5130   20.6130 C   0  0  0  0  0  3  0  0  0  0  0  0
  -26.1100  -26.9470   19.2210 C   0  0  0  0  0  3  0  0  0  0  0  0
  -24.9460  -27.7180   19.2880 C   0  0  0  0  0  3  0  0  0  0  0  0
  -23.7070  -29.7830   20.0860 C   0  0  0  0  0  2  0  0  0  0  0  0
  -24.7560  -30.9560   22.0570 N   0  0  0  0  0  0  0  0  0  0  0  0
  -23.6010  -31.9960   23.7120 O   0  0  0  0  0  0  0  0  0  0  0  0
  -22.8230  -29.3370   22.4040 C   0  0  0  0  0  0  0  0  0  0  0  0
  -21.4970  -29.1700   22.2700 N   0  0  0  0  0  0  0  0  0  0  0  0
  -23.4980  -28.6780   23.2000 O   0  0  0  0  0  0  0  0  0  0  0  0
  -21.0090  -29.7560   21.6060 H   0  0  0  0  0  0  0  0  0  0  0  0
  -18.1110  -27.9820   22.7490 C   0  0  0  0  0  0  0  0  0  0  0  0
  -20.6740  -28.2060   23.0050 C   0  0  0  0  0  3  0  0  0  0  0  0
  -20.7560  -26.7980   22.3670 C   0  0  0  0  0  2  0  0  0  0  0  0
  -19.6420  -26.5280   21.3510 C   0  0  0  0  0  2  0  0  0  0  0  0
  -18.2690  -26.6610   22.0160 C   0  0  0  0  0  2  0  0  0  0  0  0
  -19.2410  -28.7160   23.1990 C   0  0  0  0  0  0  0  0  0  0  0  0
  -19.0410  -29.9530   23.8460 C   0  0  0  0  0  3  0  0  0  0  0  0
  -17.7430  -30.4620   24.0440 C   0  0  0  0  0  3  0  0  0  0  0  0
  -16.6270  -29.7230   23.6150 C   0  0  0  0  0  3  0  0  0  0  0  0
  -16.8120  -28.4860   22.9730 C   0  0  0  0  0  3  0  0  0  0  0  0
  -25.9700  -32.3460   23.8160 C   0  0  0  0  0  3  0  0  0  0  0  0
  -26.4780  -31.5430   25.0740 C   0  0  1  0  0  0  0  0  0  0  0  0
  -25.3780  -31.2670   26.1240 C   0  0  0  0  0  1  0  0  0  0  0  0
  -27.0750  -30.1800   24.6550 C   0  0  0  0  0  1  0  0  0  0  0  0
  -27.6180  -32.3230   25.7710 C   0  0  0  0  0  1  0  0  0  0  0  0
  -25.6590  -33.7350   24.1820 N   0  0  0  0  0  0  0  0  0  0  0  0
  -25.9880  -34.8080   23.4500 C   0  0  0  0  0  0  0  0  0  0  0  0
  -26.6570  -34.7340   22.4160 O   0  0  0  0  0  0  0  0  0  0  0  0
  -25.0690  -33.8670   24.9890 H   0  0  0  0  0  0  0  0  0  0  0  0
  -24.2510  -36.6020   23.1520 C   0  0  0  0  0  1  0  0  0  0  0  0
  -25.4970  -36.1810   23.9470 C   0  0  0  0  0  3  0  0  0  0  0  0
  -27.6320  -37.0480   24.7940 C   0  0  0  0  0  1  0  0  0  0  0  0
  -26.5230  -37.2430   23.8630 N   0  0  0  0  0  0  0  0  0  0  0  0
  -26.1110  -38.1520   24.0510 H   0  0  0  0  0  0  0  0  0  0  0  0
  -29.3190  -21.6410   20.7020 C   0  0  0  0  0  2  0  0  0  0  0  0
  -30.9110  -17.9910   21.1090 C   0  0  0  0  0  3  0  0  0  0  0  0
  -28.8190  -17.7550   19.9820 C   0  0  0  0  0  3  0  0  0  0  0  0
  -30.7370  -19.4180   21.1170 C   0  0  0  0  0  0  0  0  0  0  0  0
  -28.6260  -19.1690   19.9570 C   0  0  0  0  0  0  0  0  0  0  0  0
  -29.5820  -20.0640   20.5550 C   0  0  0  0  0  0  0  0  0  0  0  0
  -29.9370  -17.1170   20.5640 C   0  0  0  0  0  0  0  0  0  0  0  0
  -31.8300  -20.2430   21.7800 C   0  0  0  0  0  1  0  0  0  0  0  0
  -30.7510  -14.6450   20.1890 C   0  0  0  0  0  0  0  0  0  0  0  0
  -30.5130  -12.4400   19.0510 C   0  0  0  0  0  2  0  0  0  0  0  0
  -29.5080  -12.5970   17.8850 C   0  0  0  0  0  2  0  0  0  0  0  0
  -28.0560  -12.4260   18.3760 C   0  0  0  0  0  2  0  0  0  0  0  0
  -27.7560  -13.2560   19.6510 C   0  0  0  0  0  3  0  0  0  0  0  0
  -28.8610  -13.0470   20.7120 C   0  0  0  0  0  2  0  0  0  0  0  0
  -30.1470  -13.4180   20.0940 N   0  0  0  0  0  0  0  0  0  0  0  0
  -31.8940  -14.8390   19.7630 O   0  0  0  0  0  0  0  0  0  0  0  0
  -29.9260  -15.6530   20.6200 N   0  0  0  0  0  0  0  0  0  0  0  0
  -29.0350  -15.2730   20.8950 H   0  0  0  0  0  0  0  0  0  0  0  0
  -25.3950  -13.8540   20.4750 C   0  0  0  0  0  0  0  0  0  0  0  0
  -24.3420  -13.0790   20.8720 C   0  0  0  0  0  0  0  0  0  0  0  0
  -24.7930  -11.7260   20.7910 C   0  0  0  0  0  0  0  0  0  0  0  0
  -26.4260  -12.9750   20.1810 N   0  0  0  0  0  0  0  0  0  0  0  0
  -26.0700  -11.6880   20.4300 N   0  0  0  0  0  0  0  0  0  0  0  0
  -24.0670  -10.4640   20.9790 C   0  0  0  0  0  0  0  0  0  0  0  0
  -24.5020   -9.4950   21.9110 C   0  0  0  0  0  3  0  0  0  0  0  0
  -23.7770   -8.2970   22.0860 C   0  0  0  0  0  3  0  0  0  0  0  0
  -22.6050   -8.0600   21.3300 C   0  0  0  0  0  0  0  0  0  0  0  0
  -22.1920   -9.0160   20.3870 C   0  0  0  0  0  3  0  0  0  0  0  0
  -22.9160  -10.2070   20.2090 C   0  0  0  0  0  3  0  0  0  0  0  0
  -21.8500   -6.9150   21.4140 O   0  0  0  0  0  0  0  0  0  0  0  0
  -21.7430   -6.2100   22.5860 C   0  0  0  0  0  0  0  0  0  0  0  0
  -21.2440   -6.7990   23.7680 C   0  0  0  0  0  3  0  0  0  0  0  0
  -21.0870   -6.0190   24.9330 C   0  0  0  0  0  3  0  0  0  0  0  0
  -21.4190   -4.6500   24.9130 C   0  0  0  0  0  0  0  0  0  0  0  0
  -21.9130   -4.0620   23.7360 C   0  0  0  0  0  3  0  0  0  0  0  0
  -22.0710   -4.8380   22.5750 C   0  0  0  0  0  0  0  0  0  0  0  0
  -22.5270   -4.2610   21.4370 F   0  0  0  0  0  0  0  0  0  0  0  0
  -21.2620   -3.8980   26.0280 F   0  0  0  0  0  0  0  0  0  0  0  0
  -22.9590  -13.5560   21.2110 C   0  0  0  0  0  0  0  0  0  0  0  0
  -22.2680  -12.8560   22.1040 N   0  0  0  0  0  0  0  0  0  0  0  0
  -22.5000  -14.5870   20.7160 O   0  0  0  0  0  0  0  0  0  0  0  0
  -22.6540  -12.0210   22.5210 H   0  0  0  0  0  0  0  0  0  0  0  0
  -21.3450  -13.1580   22.3760 H   0  0  0  0  0  0  0  0  0  0  0  0
  -25.5560  -15.2280   20.3150 N   0  0  0  0  0  0  0  0  0  0  0  0
  -24.7800  -15.8680   20.4450 H   0  0  0  0  0  0  0  0  0  0  0  0
  -26.3530  -15.6590   19.8690 H   0  0  0  0  0  0  0  0  0  0  0  0
  -27.3490  -19.6440   19.2560 C   0  0  0  0  0  3  0  0  0  0  0  0
  -26.4120  -18.6930   19.2440 F   0  0  0  0  0  0  0  0  0  0  0  0
  -27.6430  -19.9610   17.9950 F   0  0  0  0  0  0  0  0  0  0  0  0
  1  2  2  0
  3  5  1  0
  4  3  1  0
  4  6  1  0
  5  7  1  0
  6  8  1  0
  7 13  1  0
  7  1  1  0
  8  1  1  0
  8  9  1  1
  8 54  1  0
 10 11  2  0
 10  2  1  0
 12 11  1  0
 13 15  1  0
 14 25  2  0
 15 20  1  0
 16 24  1  0
 16 26  1  0
 17 23  1  0
 17 19  1  0
 18 24  1  0
 19 18  1  0
 20 19  2  0
 21 22  1  0
 21 15  2  0
 22 17  2  0
 23 16  1  0
 24 14  1  0
 26 28  2  0
 27 26  1  0
 29 27  1  0
 30 39  2  0
 30 35  1  0
 31 27  1  0
 31 35  1  0
 32 31  1  0
 33 34  1  0
 33 32  1  0
 34 30  1  0
 35 36  2  0
 36 37  1  0
 38 37  2  0
 39 38  1  0
 40 14  1  0
 40 45  1  0
 40 41  1  0
 41 44  1  1
 41 42  1  0
 43 41  1  0
 45 48  1  0
 46 50  1  0
 46 45  1  0
 47 46  2  0
 50 49  1  0
 52 50  1  0
 52 53  1  0
 52 51  1  0
 55 57  1  0
 56 60  1  0
 57 61  1  0
 58 56  2  0
 58 59  1  0
 59 54  1  0
 59 57  2  0
 60 70  1  0
 60 55  2  0
 62 70  1  0
 63 68  1  0
 64 65  1  0
 64 63  1  0
 66 65  1  0
 66 75  1  0
 66 67  1  0
 68 62  1  0
 68 67  1  0
 69 62  2  0
 70 71  1  0
 72 73  2  0
 73 92  1  0
 74 73  1  0
 74 77  1  0
 75 76  1  0
 75 72  1  0
 76 74  2  0
 77 78  1  0
 78 79  2  0
 80 83  1  0
 80 79  1  0
 81 80  2  0
 82 81  1  0
 82 77  2  0
 83 84  1  0
 84 85  1  0
 85 86  2  0
 87 86  1  0
 87 91  1  0
 88 87  2  0
 89 84  2  0
 89 88  1  0
 90 89  1  0
 92 93  1  0
 93 96  1  0
 93 95  1  0
 94 92  2  0
 97 98  1  0
 97 72  1  0
 99 97  1  0
100 58  1  0
101100  1  0
102100  1  0
M  ISO  4   7 101  13 101  62 100  70 100
M  END
>  <TORSDO>  (17) 
F 20

>  <SCORE>  (17) 
-14.296

>  <name>  (17) 
16

>  <ligand_id>  (17) 
16

>  <original_smiles>  (17) 
[H]C(C([H])=C1C([H])(Oc2c([H])c([H])c3c(c2[H])C([H])([H])N(C(=O)C([H])(N([H])C(=O)C([H])(N([H])C([H])([H])[H])C([H])([H])[H])C(C([H])([H])[H])(C([H])([H])[H])C([H])([H])[H])C([H])(C(=O)N([H])C2([H])c4c([H])c([H])c([H])c([H])c4C([H])([H])C([H])([H])C2([H])[H])C3([H])[H])C([H])([H])C([H])([H])C([H])([H])C([H])([H])[N+]1([H])C([H])([H])c1c(C([H])([H])[H])c([H])c(N([H])C(=O)N2C([H])([H])C([H])([H])C([H])([H])C([H])(n3nc(-c4c([H])c([H])c(Oc5c([H])c([H])c(F)c([H])c5F)c([H])c4[H])c(C(=O)N([H])[H])c3N([H])[H])C2([H])[H])c([H])c1C([H])(F)F)=C([H])C([H])([H])[H]

>  <smiles>  (17) 
[H]C(C([H])=C1C([H])(Oc2c([H])c([H])c3c(c2[H])C([H])([H])N(C(=O)C([H])(N([H])C(=O)C([H])(N([H])C([H])([H])[H])C([H])([H])[H])C(C([H])([H])[H])(C([H])([H])[H])C([H])([H])[H])C([H])(C(=O)N([H])C2([H])c4c([H])c([H])c([H])c([H])c4C([H])([H])C([H])([H])C2([H])[H])C3([H])[H])C([H])([H])C([H])([H])C([H])([H])C([H])([H])[N+]1([H])C([H])([H])c1c(C([H])([H])[H])c([H])c(N([H])C(=O)N2C([H])([H])C([H])([H])C([H])([H])C([H])(n3nc(-c4c([H])c([H])c(Oc5c([H])c([H])c(F)c([H])c5F)c([H])c4[H])c(C(=O)N([H])[H])c3N([H])[H])C2([H])[H])c([H])c1C([H])(F)F)=C([H])C([H])([H])[H]

$$$$
17:0:0
     RDKit          3D

107116  0  0  1  0  0  0  0  0999 V2000
  -29.9260  -22.5780   20.1500 C   0  0  0  0  0  0  0  0  0  0  0  0
  -30.2900  -21.9370   21.2790 C   0  0  0  0  0  3  0  0  0  0  0  0
  -28.9670  -23.7740   20.0790 C   0  0  0  0  0  2  0  0  0  0  0  0
  -31.9850  -24.8000   19.6010 C   0  0  0  0  0  2  0  0  0  0  0  0
  -32.1420  -23.8640   18.3830 C   0  0  0  0  0  2  0  0  0  0  0  0
  -30.7090  -25.6680   19.6140 C   0  0  0  0  0  2  0  0  0  0  0  0
  -30.8880  -23.1140   17.8730 C   0  0  0  0  0  2  0  0  0  0  0  0
  -29.5830  -25.1260   20.5250 C   0  0  0  0  0  3  0  0  0  0  0  0
  -30.3610  -22.0710   18.7990 N   0  0  2  0  0  4  0  0  0  0  0  0
  -31.1520  -21.4700   18.9630 H   0  0  0  0  0  0  0  0  0  0  0  0
  -31.1590  -20.7750   21.2910 C   0  0  0  0  0  3  0  0  0  0  0  0
  -30.9270  -19.7070   22.0680 C   0  0  0  0  0  3  0  0  0  0  0  0
  -31.7250  -18.5040   21.9740 C   0  0  0  0  0  3  0  0  0  0  0  0
  -31.1980  -17.2880   22.1860 C   0  0  0  0  0  3  0  0  0  0  0  0
  -31.3560  -14.8570   22.0500 C   0  0  0  0  0  3  0  0  0  0  0  0
  -31.9450  -16.0620   21.9980 C   0  0  0  0  0  3  0  0  0  0  0  0
  -31.4650  -12.4200   21.8970 C   0  0  0  0  0  2  0  0  0  0  0  0
  -32.0680  -13.6170   21.8250 C   0  0  0  0  0  3  0  0  0  0  0  0
  -29.3870  -21.1460   18.1430 C   0  0  0  0  0  2  0  0  0  0  0  0
  -28.7340  -19.0120   19.3410 C   0  0  0  0  0  3  0  0  0  0  0  0
  -28.8950  -17.6590   19.6800 C   0  0  0  0  0  3  0  0  0  0  0  0
  -29.6270  -19.6560   18.4620 C   0  0  0  0  0  0  0  0  0  0  0  0
  -30.6570  -18.8840   17.8540 C   0  0  0  0  0  0  0  0  0  0  0  0
  -30.7540  -17.4810   18.1150 C   0  0  0  0  0  0  0  0  0  0  0  0
  -29.9170  -16.8780   19.1060 C   0  0  0  0  0  0  0  0  0  0  0  0
  -31.6370  -19.5420   16.8810 C   0  0  0  0  0  1  0  0  0  0  0  0
  -31.6960  -16.6460   17.2480 C   0  0  0  0  0  1  0  0  0  0  0  0
  -30.7010  -14.4620   19.1560 C   0  0  0  0  0  0  0  0  0  0  0  0
  -30.2150  -12.3090   18.0940 C   0  0  0  0  0  2  0  0  0  0  0  0
  -29.0610  -12.5390   17.0940 C   0  0  0  0  0  2  0  0  0  0  0  0
  -27.6910  -12.4150   17.7920 C   0  0  0  0  0  2  0  0  0  0  0  0
  -27.6070  -13.2300   19.1110 C   0  0  0  0  0  3  0  0  0  0  0  0
  -28.8520  -12.9770   19.9950 C   0  0  0  0  0  2  0  0  0  0  0  0
  -30.0500  -13.2720   19.1900 N   0  0  0  0  0  0  0  0  0  0  0  0
  -31.8110  -14.6100   18.6420 O   0  0  0  0  0  0  0  0  0  0  0  0
  -29.9190  -15.5010   19.5120 N   0  0  0  0  0  0  0  0  0  0  0  0
  -29.1390  -15.2300   20.0870 H   0  0  0  0  0  0  0  0  0  0  0  0
  -25.4410  -13.8530   20.3550 C   0  0  0  0  0  0  0  0  0  0  0  0
  -24.4260  -13.0850   20.8630 C   0  0  0  0  0  0  0  0  0  0  0  0
  -24.7950  -11.7290   20.6110 C   0  0  0  0  0  0  0  0  0  0  0  0
  -26.3650  -12.9620   19.8330 N   0  0  0  0  0  0  0  0  0  0  0  0
  -25.9930  -11.6740   20.0440 N   0  0  0  0  0  0  0  0  0  0  0  0
  -24.0530  -10.4800   20.8240 C   0  0  0  0  0  0  0  0  0  0  0  0
  -24.5110   -9.4950   21.7280 C   0  0  0  0  0  3  0  0  0  0  0  0
  -23.7710   -8.3090   21.9290 C   0  0  0  0  0  3  0  0  0  0  0  0
  -22.5600   -8.1010   21.2290 C   0  0  0  0  0  0  0  0  0  0  0  0
  -22.1200   -9.0740   20.3130 C   0  0  0  0  0  3  0  0  0  0  0  0
  -22.8600  -10.2520   20.1100 C   0  0  0  0  0  3  0  0  0  0  0  0
  -21.7890   -6.9690   21.3410 O   0  0  0  0  0  0  0  0  0  0  0  0
  -21.6240   -6.3280   22.5430 C   0  0  0  0  0  0  0  0  0  0  0  0
  -21.0810   -6.9830   23.6690 C   0  0  0  0  0  3  0  0  0  0  0  0
  -20.8620   -6.2670   24.8620 C   0  0  0  0  0  3  0  0  0  0  0  0
  -21.1790   -4.8980   24.9300 C   0  0  0  0  0  0  0  0  0  0  0  0
  -21.7170   -4.2420   23.8090 C   0  0  0  0  0  3  0  0  0  0  0  0
  -21.9360   -4.9560   22.6170 C   0  0  0  0  0  0  0  0  0  0  0  0
  -22.4330   -4.3140   21.5320 F   0  0  0  0  0  0  0  0  0  0  0  0
  -20.9640   -4.2070   26.0740 F   0  0  0  0  0  0  0  0  0  0  0  0
  -23.1400  -13.5810   21.4580 C   0  0  0  0  0  0  0  0  0  0  0  0
  -22.5870  -12.8470   22.4190 N   0  0  0  0  0  0  0  0  0  0  0  0
  -22.6400  -14.6490   21.1070 O   0  0  0  0  0  0  0  0  0  0  0  0
  -23.0100  -11.9830   22.7210 H   0  0  0  0  0  0  0  0  0  0  0  0
  -21.7310  -13.1570   22.8570 H   0  0  0  0  0  0  0  0  0  0  0  0
  -25.6460  -15.2270   20.2740 N   0  0  0  0  0  0  0  0  0  0  0  0
  -24.9550  -15.8980   20.5940 H   0  0  0  0  0  0  0  0  0  0  0  0
  -26.4250  -15.6620   19.7980 H   0  0  0  0  0  0  0  0  0  0  0  0
  -28.4950  -26.2050   20.7440 C   0  0  0  0  0  2  0  0  0  0  0  0
  -27.9770  -26.6990   19.5080 O   0  0  0  0  0  0  0  0  0  0  0  0
  -24.6790  -31.8570   23.1520 C   0  0  0  0  0  0  0  0  0  0  0  0
  -26.8730  -27.5050   19.6520 C   0  0  0  0  0  0  0  0  0  0  0  0
  -23.2760  -30.5820   21.5600 C   0  0  0  0  0  3  0  0  0  0  0  0
  -24.5400  -29.0690   19.9390 C   0  0  0  0  0  0  0  0  0  0  0  0
  -25.7820  -30.8700   21.1510 C   0  0  0  0  0  2  0  0  0  0  0  0
  -25.7590  -29.5290   20.4510 C   0  0  0  0  0  0  0  0  0  0  0  0
  -26.9280  -28.7520   20.3150 C   0  0  0  0  0  3  0  0  0  0  0  0
  -25.6440  -27.0590   19.1240 C   0  0  0  0  0  3  0  0  0  0  0  0
  -24.4750  -27.8310   19.2730 C   0  0  0  0  0  3  0  0  0  0  0  0
  -23.3350  -29.9620   20.1370 C   0  0  0  0  0  2  0  0  0  0  0  0
  -24.6020  -31.1140   22.0130 N   0  0  0  0  0  0  0  0  0  0  0  0
  -23.6610  -32.1400   23.8010 O   0  0  0  0  0  0  0  0  0  0  0  0
  -22.6740  -29.5380   22.5270 C   0  0  0  0  0  0  0  0  0  0  0  0
  -21.3510  -29.3270   22.4280 N   0  0  0  0  0  0  0  0  0  0  0  0
  -23.3900  -28.9220   23.3200 O   0  0  0  0  0  0  0  0  0  0  0  0
  -20.8350  -29.8800   21.7580 H   0  0  0  0  0  0  0  0  0  0  0  0
  -18.0170  -28.0540   22.9840 C   0  0  0  0  0  0  0  0  0  0  0  0
  -20.5720  -28.3670   23.2070 C   0  0  0  0  0  3  0  0  0  0  0  0
  -20.6950  -26.9430   22.6180 C   0  0  0  0  0  2  0  0  0  0  0  0
  -19.5810  -26.6040   21.6220 C   0  0  0  0  0  2  0  0  0  0  0  0
  -18.2100  -26.7130   22.2950 C   0  0  0  0  0  2  0  0  0  0  0  0
  -19.1260  -28.8380   23.3980 C   0  0  0  0  0  0  0  0  0  0  0  0
  -18.8920  -30.0920   24.0020 C   0  0  0  0  0  3  0  0  0  0  0  0
  -17.5810  -30.5630   24.1960 C   0  0  0  0  0  3  0  0  0  0  0  0
  -16.4850  -29.7770   23.7980 C   0  0  0  0  0  3  0  0  0  0  0  0
  -16.7050  -28.5250   23.1990 C   0  0  0  0  0  3  0  0  0  0  0  0
  -26.0410  -32.4060   23.6820 C   0  0  0  0  0  3  0  0  0  0  0  0
  -25.8120  -33.7780   24.1510 N   0  0  0  0  0  0  0  0  0  0  0  0
  -26.0510  -34.8790   23.4260 C   0  0  0  0  0  0  0  0  0  0  0  0
  -26.5610  -34.8430   22.3030 O   0  0  0  0  0  0  0  0  0  0  0  0
  -25.3420  -33.8810   25.0400 H   0  0  0  0  0  0  0  0  0  0  0  0
  -24.3310  -36.7140   23.4380 C   0  0  0  0  0  1  0  0  0  0  0  0
  -25.6590  -36.2350   24.0430 C   0  0  0  0  0  3  0  0  0  0  0  0
  -27.9000  -37.0350   24.6510 C   0  0  0  0  0  1  0  0  0  0  0  0
  -26.6920  -37.2800   23.8700 N   0  0  0  0  0  0  0  0  0  0  0  0
  -26.3260  -38.1930   24.1290 H   0  0  0  0  0  0  0  0  0  0  0  0
  -26.6670  -31.5200   24.8280 C   0  0  1  0  0  0  0  0  0  0  0  0
  -25.6650  -31.1520   25.9460 C   0  0  0  0  0  1  0  0  0  0  0  0
  -27.2350  -30.2020   24.2490 C   0  0  0  0  0  1  0  0  0  0  0  0
  -27.8560  -32.2670   25.4770 C   0  0  0  0  0  1  0  0  0  0  0  0
  1  2  2  0
  2 11  1  0
  3  1  1  0
  3  8  1  0
  4  6  1  0
  5  4  1  0
  6  8  1  0
  7  5  1  0
  7  9  1  0
  8 66  1  0
  9 10  1  1
  9  1  1  0
 11 12  2  0
 13 12  1  0
 13 14  2  0
 16 15  2  0
 16 14  1  0
 18 17  2  0
 18 15  1  0
 19 22  1  0
 19  9  1  0
 20 21  1  0
 22 20  2  0
 23 24  2  0
 23 22  1  0
 24 25  1  0
 25 36  1  0
 25 21  2  0
 26 23  1  0
 27 24  1  0
 28 34  1  0
 28 36  1  0
 29 34  1  0
 30 31  1  0
 30 29  1  0
 32 31  1  0
 32 41  1  0
 32 33  1  0
 34 33  1  0
 35 28  2  0
 36 37  1  0
 38 39  2  0
 39 58  1  0
 40 43  1  0
 40 39  1  0
 41 42  1  0
 41 38  1  0
 42 40  2  0
 43 44  1  0
 44 45  2  0
 46 49  1  0
 46 45  1  0
 47 46  2  0
 48 47  1  0
 48 43  2  0
 49 50  1  0
 50 55  2  0
 50 51  1  0
 51 52  2  0
 52 53  1  0
 53 57  1  0
 54 53  2  0
 55 54  1  0
 56 55  1  0
 58 59  1  0
 59 61  1  0
 59 62  1  0
 60 58  2  0
 63 38  1  0
 63 64  1  0
 65 63  1  0
 67 69  1  0
 67 66  1  0
 68 79  2  0
 69 74  1  0
 70 78  1  0
 70 80  1  0
 71 77  1  0
 71 73  1  0
 72 78  1  0
 73 72  1  0
 74 73  2  0
 75 76  1  0
 75 69  2  0
 76 71  2  0
 77 70  1  0
 78 68  1  0
 80 82  2  0
 81 80  1  0
 83 81  1  0
 84 93  2  0
 84 89  1  0
 85 81  1  0
 85 89  1  0
 86 85  1  0
 87 88  1  0
 87 86  1  0
 88 84  1  0
 89 90  2  0
 90 91  1  0
 92 91  2  0
 93 92  1  0
 94 68  1  0
 94 95  1  0
 94104  1  0
 95 98  1  0
 96100  1  0
 96 95  1  0
 97 96  2  0
100 99  1  0
102100  1  0
102103  1  0
102101  1  0
104107  1  1
104105  1  0
106104  1  0
M  ISO  4  28 100  36 100  66 101  67 101
M  END
>  <TORSDO>  (18) 
F 23

>  <SCORE>  (18) 
-9.258

>  <name>  (18) 
17

>  <ligand_id>  (18) 
17

>  <original_smiles>  (18) 
[H]C([H])=C([H])C([H])=C([H])C([H])=C([H])C([H])=C([H])C([H])=C1C([H])([H])C([H])(C([H])([H])Oc2c([H])c([H])c3c(c2[H])C([H])([H])N(C(=O)C([H])(N([H])C(=O)C([H])(N([H])C([H])([H])[H])C([H])([H])[H])C(C([H])([H])[H])(C([H])([H])[H])C([H])([H])[H])C([H])(C(=O)N([H])C2([H])c4c([H])c([H])c([H])c([H])c4C([H])([H])C([H])([H])C2([H])[H])C3([H])[H])C([H])([H])C([H])([H])C([H])([H])C([H])([H])[N+]1([H])C([H])([H])c1c([H])c([H])c(N([H])C(=O)N2C([H])([H])C([H])([H])C([H])([H])C([H])(n3nc(-c4c([H])c([H])c(Oc5c([H])c([H])c(F)c([H])c5F)c([H])c4[H])c(C(=O)N([H])[H])c3N([H])[H])C2([H])[H])c(C([H])([H])[H])c1C([H])([H])[H]

>  <smiles>  (18) 
[H]C([H])=C([H])C([H])=C([H])C([H])=C([H])C([H])=C([H])C([H])=C1C([H])([H])C([H])(C([H])([H])Oc2c([H])c([H])c3c(c2[H])C([H])([H])N(C(=O)C([H])(N([H])C(=O)C([H])(N([H])C([H])([H])[H])C([H])([H])[H])C(C([H])([H])[H])(C([H])([H])[H])C([H])([H])[H])C([H])(C(=O)N([H])C2([H])c4c([H])c([H])c([H])c([H])c4C([H])([H])C([H])([H])C2([H])[H])C3([H])[H])C([H])([H])C([H])([H])C([H])([H])C([H])([H])[N+]1([H])C([H])([H])c1c([H])c([H])c(N([H])C(=O)N2C([H])([H])C([H])([H])C([H])([H])C([H])(n3nc(-c4c([H])c([H])c(Oc5c([H])c([H])c(F)c([H])c5F)c([H])c4[H])c(C(=O)N([H])[H])c3N([H])[H])C2([H])[H])c(C([H])([H])[H])c1C([H])([H])[H]

$$$$
18:0:0
     RDKit          3D

100109  0  0  1  0  0  0  0  0999 V2000
  -26.0620  -23.5720   21.7680 C   0  0  0  0  0  3  0  0  0  0  0  0
  -24.7830  -23.3540   21.3930 C   0  0  0  0  0  2  0  0  0  0  0  0
  -26.4000  -24.5700   22.8380 C   0  0  0  0  0  2  0  0  0  0  0  0
  -26.5980  -25.9400   22.0900 C   0  0  0  0  0  2  0  0  0  0  0  0
  -28.2000  -24.4720   20.7430 C   0  0  0  0  0  2  0  0  0  0  0  0
  -27.3890  -25.8190   20.7260 C   0  0  0  0  0  3  0  0  0  0  0  0
  -27.3280  -23.2610   20.9780 N   0  0  2  0  0  4  0  0  0  0  0  0
  -27.8670  -22.6880   21.6170 H   0  0  0  0  0  0  0  0  0  0  0  0
  -23.2430  -22.3360   19.8110 C   0  0  0  0  0  2  0  0  0  0  0  0
  -24.4110  -22.8980   20.0920 C   0  0  0  0  0  3  0  0  0  0  0  0
  -28.0420  -27.0710   20.2070 O   0  0  0  0  0  0  0  0  0  0  0  0
  -24.8180  -32.3270   23.5540 C   0  0  0  0  0  0  0  0  0  0  0  0
  -27.1170  -28.0890   20.0050 C   0  0  0  0  0  0  0  0  0  0  0  0
  -23.5060  -31.1210   21.8460 C   0  0  0  0  0  3  0  0  0  0  0  0
  -24.8470  -29.7560   20.1850 C   0  0  0  0  0  0  0  0  0  0  0  0
  -26.0340  -31.4460   21.5640 C   0  0  0  0  0  2  0  0  0  0  0  0
  -26.0550  -30.1520   20.7810 C   0  0  0  0  0  0  0  0  0  0  0  0
  -27.2080  -29.3280   20.6810 C   0  0  0  0  0  3  0  0  0  0  0  0
  -25.9300  -27.7890   19.2910 C   0  0  0  0  0  3  0  0  0  0  0  0
  -24.7890  -28.5880   19.4190 C   0  0  0  0  0  3  0  0  0  0  0  0
  -23.6270  -30.6070   20.3980 C   0  0  0  0  0  2  0  0  0  0  0  0
  -24.8090  -31.6330   22.3810 N   0  0  0  0  0  0  0  0  0  0  0  0
  -23.7730  -32.5320   24.1880 O   0  0  0  0  0  0  0  0  0  0  0  0
  -22.9300  -29.9750   22.7110 C   0  0  0  0  0  0  0  0  0  0  0  0
  -21.6570  -29.6010   22.4760 N   0  0  0  0  0  0  0  0  0  0  0  0
  -23.6430  -29.4370   23.5710 O   0  0  0  0  0  0  0  0  0  0  0  0
  -21.1740  -29.9790   21.6660 H   0  0  0  0  0  0  0  0  0  0  0  0
  -18.4210  -28.1410   22.8740 C   0  0  0  0  0  0  0  0  0  0  0  0
  -20.9210  -28.6110   23.2590 C   0  0  0  0  0  3  0  0  0  0  0  0
  -21.1940  -27.1920   22.7490 C   0  0  0  0  0  2  0  0  0  0  0  0
  -20.2170  -26.7220   21.6610 C   0  0  0  0  0  2  0  0  0  0  0  0
  -18.7470  -26.8540   22.1290 C   0  0  0  0  0  2  0  0  0  0  0  0
  -19.4450  -28.9770   23.3810 C   0  0  0  0  0  0  0  0  0  0  0  0
  -19.0960  -30.1910   24.0060 C   0  0  0  0  0  3  0  0  0  0  0  0
  -17.7470  -30.5710   24.1370 C   0  0  0  0  0  3  0  0  0  0  0  0
  -16.7250  -29.7320   23.6410 C   0  0  0  0  0  3  0  0  0  0  0  0
  -17.0570  -28.5090   23.0170 C   0  0  0  0  0  3  0  0  0  0  0  0
  -26.1450  -32.9020   24.1440 C   0  0  0  0  0  3  0  0  0  0  0  0
  -26.6660  -32.1080   25.4080 C   0  0  1  0  0  0  0  0  0  0  0  0
  -25.5660  -31.8470   26.4630 C   0  0  0  0  0  1  0  0  0  0  0  0
  -27.2550  -30.7360   24.9940 C   0  0  0  0  0  1  0  0  0  0  0  0
  -27.8130  -32.9030   26.0780 C   0  0  0  0  0  1  0  0  0  0  0  0
  -25.8950  -34.3110   24.4730 N   0  0  0  0  0  0  0  0  0  0  0  0
  -26.2380  -35.3430   23.6930 C   0  0  0  0  0  0  0  0  0  0  0  0
  -26.8710  -35.2230   22.6440 O   0  0  0  0  0  0  0  0  0  0  0  0
  -25.2950  -34.4840   25.2650 H   0  0  0  0  0  0  0  0  0  0  0  0
  -24.5450  -37.1870   23.3830 C   0  0  0  0  0  1  0  0  0  0  0  0
  -25.8000  -36.7470   24.1530 C   0  0  0  0  0  3  0  0  0  0  0  0
  -27.9820  -37.5660   24.9290 C   0  0  0  0  0  1  0  0  0  0  0  0
  -26.8650  -37.7650   24.0060 N   0  0  0  0  0  0  0  0  0  0  0  0
  -26.4870  -38.6940   24.1710 H   0  0  0  0  0  0  0  0  0  0  0  0
  -27.2890  -22.2740   19.8370 C   0  0  0  0  0  2  0  0  0  0  0  0
  -30.1760  -19.8380   20.7010 C   0  0  0  0  0  3  0  0  0  0  0  0
  -29.3400  -20.9620   20.7370 C   0  0  0  0  0  0  0  0  0  0  0  0
  -29.9800  -18.7910   19.7950 C   0  0  0  0  0  0  0  0  0  0  0  0
  -28.2600  -21.0840   19.8040 C   0  0  0  0  0  0  0  0  0  0  0  0
  -28.0260  -19.9960   18.8900 C   0  0  0  0  0  0  0  0  0  0  0  0
  -28.8990  -18.8690   18.8770 C   0  0  0  0  0  0  0  0  0  0  0  0
  -29.6460  -21.9370   21.8630 C   0  0  0  0  0  1  0  0  0  0  0  0
  -26.8220  -20.0160   17.9360 C   0  0  0  0  0  1  0  0  0  0  0  0
  -28.6440  -17.5510   17.7820 Cl  0  0  0  0  0  0  0  0  0  0  0  0
  -31.0060  -17.6690   19.7960 C   0  0  0  0  0  2  0  0  0  0  0  0
  -31.2380  -15.2320   19.9590 C   0  0  0  0  0  0  0  0  0  0  0  0
  -30.9880  -12.8930   19.2940 C   0  0  0  0  0  2  0  0  0  0  0  0
  -30.0870  -12.8320   18.0430 C   0  0  0  0  0  2  0  0  0  0  0  0
  -28.6110  -12.7210   18.4660 C   0  0  0  0  0  2  0  0  0  0  0  0
  -28.2000  -13.7690   19.5340 C   0  0  0  0  0  3  0  0  0  0  0  0
  -29.2390  -13.8430   20.6810 C   0  0  0  0  0  2  0  0  0  0  0  0
  -30.5680  -14.0530   20.0790 N   0  0  0  0  0  0  0  0  0  0  0  0
  -32.3740  -15.3190   19.5120 O   0  0  0  0  0  0  0  0  0  0  0  0
  -30.5170  -16.3440   20.1770 N   0  0  0  0  0  0  0  0  0  0  0  0
  -29.5810  -16.2620   20.5490 H   0  0  0  0  0  0  0  0  0  0  0  0
  -25.8340  -14.4070   20.3230 C   0  0  0  0  0  0  0  0  0  0  0  0
  -24.7620  -13.6580   20.6910 C   0  0  0  0  0  0  0  0  0  0  0  0
  -25.1830  -12.2920   20.6050 C   0  0  0  0  0  0  0  0  0  0  0  0
  -26.8520  -13.5140   20.0350 N   0  0  0  0  0  0  0  0  0  0  0  0
  -26.4650  -12.2360   20.2760 N   0  0  0  0  0  0  0  0  0  0  0  0
  -24.4230  -11.0460   20.7760 C   0  0  0  0  0  0  0  0  0  0  0  0
  -24.7980  -10.0760   21.7340 C   0  0  0  0  0  3  0  0  0  0  0  0
  -24.0420   -8.8940   21.8910 C   0  0  0  0  0  3  0  0  0  0  0  0
  -22.8970   -8.6680   21.0910 C   0  0  0  0  0  0  0  0  0  0  0  0
  -22.5380   -9.6300   20.1310 C   0  0  0  0  0  3  0  0  0  0  0  0
  -23.2910  -10.8040   19.9700 C   0  0  0  0  0  3  0  0  0  0  0  0
  -22.1130   -7.5390   21.1580 O   0  0  0  0  0  0  0  0  0  0  0  0
  -21.9170   -6.8660   22.3380 C   0  0  0  0  0  0  0  0  0  0  0  0
  -21.3610   -7.4980   23.4710 C   0  0  0  0  0  3  0  0  0  0  0  0
  -21.1150   -6.7510   24.6390 C   0  0  0  0  0  3  0  0  0  0  0  0
  -21.4120   -5.3760   24.6740 C   0  0  0  0  0  0  0  0  0  0  0  0
  -21.9610   -4.7470   23.5430 C   0  0  0  0  0  3  0  0  0  0  0  0
  -22.2090   -5.4880   22.3750 C   0  0  0  0  0  0  0  0  0  0  0  0
  -22.7190   -4.8700   21.2810 F   0  0  0  0  0  0  0  0  0  0  0  0
  -21.1670   -4.6570   25.7960 F   0  0  0  0  0  0  0  0  0  0  0  0
  -23.3730  -14.1540   21.0100 C   0  0  0  0  0  0  0  0  0  0  0  0
  -22.6560  -13.4760   21.8930 N   0  0  0  0  0  0  0  0  0  0  0  0
  -22.9480  -15.1920   20.4990 O   0  0  0  0  0  0  0  0  0  0  0  0
  -23.0240  -12.6370   22.3200 H   0  0  0  0  0  0  0  0  0  0  0  0
  -21.7300  -13.8020   22.1430 H   0  0  0  0  0  0  0  0  0  0  0  0
  -26.0370  -15.7800   20.1800 N   0  0  0  0  0  0  0  0  0  0  0  0
  -25.3000  -16.4490   20.3690 H   0  0  0  0  0  0  0  0  0  0  0  0
  -26.8910  -16.2010   19.8540 H   0  0  0  0  0  0  0  0  0  0  0  0
  1  2  1  0
  1  3  1  0
  4  3  1  0
  5  7  1  0
  6 11  1  0
  6  5  1  0
  6  4  1  0
  7  8  1  1
  7  1  1  0
  9 10  2  0
 10  2  1  0
 12 23  2  0
 13 11  1  0
 13 18  1  0
 14 22  1  0
 14 24  1  0
 15 21  1  0
 15 17  1  0
 16 22  1  0
 17 16  1  0
 18 17  2  0
 19 20  1  0
 19 13  2  0
 20 15  2  0
 21 14  1  0
 22 12  1  0
 24 26  2  0
 25 24  1  0
 27 25  1  0
 28 37  2  0
 28 33  1  0
 29 25  1  0
 29 33  1  0
 30 29  1  0
 31 32  1  0
 31 30  1  0
 32 28  1  0
 33 34  2  0
 34 35  1  0
 36 35  2  0
 37 36  1  0
 38 12  1  0
 38 43  1  0
 38 39  1  0
 39 42  1  1
 39 40  1  0
 41 39  1  0
 43 46  1  0
 44 48  1  0
 44 43  1  0
 45 44  2  0
 48 47  1  0
 50 48  1  0
 50 51  1  0
 50 49  1  0
 52  7  1  0
 53 54  1  0
 54 59  1  0
 55 62  1  0
 55 53  2  0
 56 52  1  0
 56 54  2  0
 57 56  1  0
 58 57  2  0
 58 55  1  0
 60 57  1  0
 61 58  1  0
 62 71  1  0
 63 69  1  0
 63 71  1  0
 64 69  1  0
 65 66  1  0
 65 64  1  0
 67 66  1  0
 67 76  1  0
 67 68  1  0
 69 68  1  0
 70 63  2  0
 71 72  1  0
 73 74  2  0
 74 93  1  0
 75 74  1  0
 75 78  1  0
 76 77  1  0
 76 73  1  0
 77 75  2  0
 78 79  1  0
 79 80  2  0
 81 84  1  0
 81 80  1  0
 82 81  2  0
 83 82  1  0
 83 78  2  0
 84 85  1  0
 85 90  2  0
 85 86  1  0
 86 87  2  0
 87 88  1  0
 88 92  1  0
 89 88  2  0
 90 89  1  0
 91 90  1  0
 93 94  1  0
 94 97  1  0
 94 96  1  0
 95 93  2  0
 98 73  1  0
 98 99  1  0
100 98  1  0
M  ISO  4   6 101  11 101  63 100  71 100
M  END
>  <TORSDO>  (19) 
F 20

>  <SCORE>  (19) 
-11.693

>  <name>  (19) 
18

>  <ligand_id>  (19) 
18

>  <original_smiles>  (19) 
[H]C([H])=C([H])C([H])=C1C([H])([H])C([H])([H])C([H])(Oc2c([H])c([H])c3c(c2[H])C([H])([H])N(C(=O)C([H])(N([H])C(=O)C([H])(N([H])C([H])([H])[H])C([H])([H])[H])C(C([H])([H])[H])(C([H])([H])[H])C([H])([H])[H])C([H])(C(=O)N([H])C2([H])c4c([H])c([H])c([H])c([H])c4C([H])([H])C([H])([H])C2([H])[H])C3([H])[H])C([H])([H])[N+]1([H])C([H])([H])c1c(C([H])([H])[H])c([H])c(C([H])([H])N([H])C(=O)N2C([H])([H])C([H])([H])C([H])([H])C([H])(n3nc(-c4c([H])c([H])c(Oc5c([H])c([H])c(F)c([H])c5F)c([H])c4[H])c(C(=O)N([H])[H])c3N([H])[H])C2([H])[H])c(Cl)c1C([H])([H])[H]

>  <smiles>  (19) 
[H]C([H])=C([H])C([H])=C1C([H])([H])C([H])([H])C([H])(Oc2c([H])c([H])c3c(c2[H])C([H])([H])N(C(=O)C([H])(N([H])C(=O)C([H])(N([H])C([H])([H])[H])C([H])([H])[H])C(C([H])([H])[H])(C([H])([H])[H])C([H])([H])[H])C([H])(C(=O)N([H])C2([H])c4c([H])c([H])c([H])c([H])c4C([H])([H])C([H])([H])C2([H])[H])C3([H])[H])C([H])([H])[N+]1([H])C([H])([H])c1c(C([H])([H])[H])c([H])c(C([H])([H])N([H])C(=O)N2C([H])([H])C([H])([H])C([H])([H])C([H])(n3nc(-c4c([H])c([H])c(Oc5c([H])c([H])c(F)c([H])c5F)c([H])c4[H])c(C(=O)N([H])[H])c3N([H])[H])C2([H])[H])c(Cl)c1C([H])([H])[H]

$$$$
19:0:0
     RDKit          3D

 95103  0  0  1  0  0  0  0  0999 V2000
  -28.1610  -20.6390   20.1870 C   0  0  0  0  0  2  0  0  0  0  0  0
  -31.9320  -18.4530   19.8490 C   0  0  0  0  0  3  0  0  0  0  0  0
  -30.5580  -20.3930   19.3020 C   0  0  0  0  0  3  0  0  0  0  0  0
  -30.9070  -17.9340   20.6650 C   0  0  0  0  0  0  0  0  0  0  0  0
  -29.5110  -19.9030   20.1140 C   0  0  0  0  0  0  0  0  0  0  0  0
  -31.7610  -19.6740   19.1730 C   0  0  0  0  0  0  0  0  0  0  0  0
  -29.6940  -18.6640   20.7960 C   0  0  0  0  0  0  0  0  0  0  0  0
  -33.0280  -20.2900   18.1760 Cl  0  0  0  0  0  0  0  0  0  0  0  0
  -28.4230  -18.0140   21.7760 Cl  0  0  0  0  0  0  0  0  0  0  0  0
  -31.1660  -16.6270   21.4250 C   0  0  0  0  0  2  0  0  0  0  0  0
  -31.0500  -14.5050   20.0870 C   0  0  0  0  0  0  0  0  0  0  0  0
  -30.6410  -12.3980   18.8590 C   0  0  0  0  0  2  0  0  0  0  0  0
  -29.6600  -12.6300   17.6940 C   0  0  0  0  0  2  0  0  0  0  0  0
  -28.2010  -12.5130   18.1760 C   0  0  0  0  0  2  0  0  0  0  0  0
  -27.9240  -13.3470   19.4550 C   0  0  0  0  0  3  0  0  0  0  0  0
  -29.0070  -13.0840   20.5230 C   0  0  0  0  0  2  0  0  0  0  0  0
  -30.3220  -13.3680   19.9170 N   0  0  0  0  0  0  0  0  0  0  0  0
  -32.1250  -14.7060   19.5160 O   0  0  0  0  0  0  0  0  0  0  0  0
  -30.5080  -15.4260   20.8980 N   0  0  0  0  0  0  0  0  0  0  0  0
  -29.6000  -15.2050   21.2810 H   0  0  0  0  0  0  0  0  0  0  0  0
  -25.5540  -13.9970   20.2230 C   0  0  0  0  0  0  0  0  0  0  0  0
  -24.4870  -13.2450   20.6330 C   0  0  0  0  0  0  0  0  0  0  0  0
  -24.9280  -11.8860   20.6040 C   0  0  0  0  0  0  0  0  0  0  0  0
  -26.5810  -13.0980   19.9730 N   0  0  0  0  0  0  0  0  0  0  0  0
  -26.2090  -11.8240   20.2580 N   0  0  0  0  0  0  0  0  0  0  0  0
  -24.1900  -10.6350   20.8280 C   0  0  0  0  0  0  0  0  0  0  0  0
  -24.6060   -9.6920   21.7930 C   0  0  0  0  0  3  0  0  0  0  0  0
  -23.8670   -8.5080   21.9990 C   0  0  0  0  0  3  0  0  0  0  0  0
  -22.6970   -8.2590   21.2430 C   0  0  0  0  0  0  0  0  0  0  0  0
  -22.3030   -9.1890   20.2670 C   0  0  0  0  0  3  0  0  0  0  0  0
  -23.0420  -10.3660   20.0570 C   0  0  0  0  0  3  0  0  0  0  0  0
  -21.9300   -7.1250   21.3600 O   0  0  0  0  0  0  0  0  0  0  0  0
  -21.8290   -6.4440   22.5480 C   0  0  0  0  0  0  0  0  0  0  0  0
  -21.3650   -7.0660   23.7280 C   0  0  0  0  0  3  0  0  0  0  0  0
  -21.2110   -6.3110   24.9070 C   0  0  0  0  0  3  0  0  0  0  0  0
  -21.5090   -4.9360   24.9080 C   0  0  0  0  0  0  0  0  0  0  0  0
  -21.9660   -4.3140   23.7330 C   0  0  0  0  0  3  0  0  0  0  0  0
  -22.1220   -5.0650   22.5550 C   0  0  0  0  0  0  0  0  0  0  0  0
  -22.5420   -4.4560   21.4210 F   0  0  0  0  0  0  0  0  0  0  0  0
  -21.3530   -4.2090   26.0380 F   0  0  0  0  0  0  0  0  0  0  0  0
  -23.1050  -13.7450   20.9400 C   0  0  0  0  0  0  0  0  0  0  0  0
  -22.3940  -13.0750   21.8400 N   0  0  0  0  0  0  0  0  0  0  0  0
  -22.6650  -14.7680   20.4160 O   0  0  0  0  0  0  0  0  0  0  0  0
  -22.7580  -12.2470   22.2880 H   0  0  0  0  0  0  0  0  0  0  0  0
  -21.4670  -13.3930   22.0850 H   0  0  0  0  0  0  0  0  0  0  0  0
  -25.7340  -15.3620   20.0210 N   0  0  0  0  0  0  0  0  0  0  0  0
  -24.9850  -16.0330   20.1460 H   0  0  0  0  0  0  0  0  0  0  0  0
  -26.5820  -15.7810   19.6610 H   0  0  0  0  0  0  0  0  0  0  0  0
  -28.1370  -22.0880   19.8440 N   0  0  0  0  0  4  0  0  0  0  0  0
  -27.1700  -22.2880   19.6470 H   0  0  0  0  0  0  0  0  0  0  0  0
  -28.6460  -22.2530   18.9920 H   0  0  0  0  0  0  0  0  0  0  0  0
  -28.5590  -23.0290   20.9120 C   0  0  0  0  0  2  0  0  0  0  0  0
  -27.9090  -24.4360   20.8050 C   0  0  0  0  0  2  0  0  0  0  0  0
  -28.5030  -25.3900   19.7420 C   0  0  0  0  0  2  0  0  0  0  0  0
  -28.4090  -26.7640   20.1370 O   0  0  0  0  0  0  0  0  0  0  0  0
  -24.5380  -31.8530   23.2230 C   0  0  0  0  0  0  0  0  0  0  0  0
  -27.2010  -27.4310   20.1260 C   0  0  0  0  0  0  0  0  0  0  0  0
  -23.3390  -30.4640   21.5610 C   0  0  0  0  0  3  0  0  0  0  0  0
  -24.8000  -28.9290   20.1400 C   0  0  0  0  0  0  0  0  0  0  0  0
  -25.8640  -30.8220   21.3800 C   0  0  0  0  0  2  0  0  0  0  0  0
  -25.9510  -29.4510   20.7410 C   0  0  0  0  0  0  0  0  0  0  0  0
  -27.1490  -28.7030   20.7380 C   0  0  0  0  0  3  0  0  0  0  0  0
  -26.0300  -26.9190   19.5220 C   0  0  0  0  0  3  0  0  0  0  0  0
  -24.8330  -27.6620   19.5300 C   0  0  0  0  0  3  0  0  0  0  0  0
  -23.5560  -29.7900   20.1810 C   0  0  0  0  0  2  0  0  0  0  0  0
  -24.5980  -31.0600   22.1160 N   0  0  0  0  0  0  0  0  0  0  0  0
  -23.4540  -32.1220   23.7590 O   0  0  0  0  0  0  0  0  0  0  0  0
  -22.6800  -29.4400   22.5120 C   0  0  0  0  0  0  0  0  0  0  0  0
  -21.3580  -29.2560   22.3700 N   0  0  0  0  0  0  0  0  0  0  0  0
  -23.3550  -28.8120   23.3320 O   0  0  0  0  0  0  0  0  0  0  0  0
  -20.8750  -29.8230   21.6870 H   0  0  0  0  0  0  0  0  0  0  0  0
  -17.9810  -28.0420   22.7970 C   0  0  0  0  0  0  0  0  0  0  0  0
  -20.5310  -28.3140   23.1240 C   0  0  0  0  0  3  0  0  0  0  0  0
  -20.6540  -26.8810   22.5540 C   0  0  0  0  0  2  0  0  0  0  0  0
  -19.5770  -26.5530   21.5160 C   0  0  0  0  0  2  0  0  0  0  0  0
  -18.1790  -26.6930   22.1290 C   0  0  0  0  0  2  0  0  0  0  0  0
  -19.0870  -28.8110   23.2510 C   0  0  0  0  0  0  0  0  0  0  0  0
  -18.8500  -30.0760   23.8320 C   0  0  0  0  0  3  0  0  0  0  0  0
  -17.5400  -30.5710   23.9670 C   0  0  0  0  0  3  0  0  0  0  0  0
  -16.4470  -29.7990   23.5340 C   0  0  0  0  0  3  0  0  0  0  0  0
  -16.6700  -28.5380   22.9530 C   0  0  0  0  0  3  0  0  0  0  0  0
  -25.8220  -32.4770   23.8570 C   0  0  0  0  0  3  0  0  0  0  0  0
  -25.5190  -33.8760   24.1840 N   0  0  0  0  0  0  0  0  0  0  0  0
  -25.8740  -34.9260   23.4310 C   0  0  0  0  0  0  0  0  0  0  0  0
  -26.5580  -34.8180   22.4090 O   0  0  0  0  0  0  0  0  0  0  0  0
  -24.9130  -34.0350   24.9750 H   0  0  0  0  0  0  0  0  0  0  0  0
  -24.1650  -36.7320   23.0490 C   0  0  0  0  0  1  0  0  0  0  0  0
  -25.3890  -36.3170   23.8810 C   0  0  0  0  0  3  0  0  0  0  0  0
  -27.5160  -37.1810   24.7480 C   0  0  0  0  0  1  0  0  0  0  0  0
  -26.4300  -37.3620   23.7870 N   0  0  0  0  0  0  0  0  0  0  0  0
  -26.0320  -38.2860   23.9320 H   0  0  0  0  0  0  0  0  0  0  0  0
  -26.3240  -31.7010   25.1360 C   0  0  1  0  0  0  0  0  0  0  0  0
  -25.2220  -31.4680   26.1960 C   0  0  0  0  0  1  0  0  0  0  0  0
  -26.9020  -30.3240   24.7380 C   0  0  0  0  0  1  0  0  0  0  0  0
  -27.4730  -32.4860   25.8100 C   0  0  0  0  0  1  0  0  0  0  0  0
  2  4  1  0
  3  5  2  0
  4  7  2  0
  4 10  1  0
  5  1  1  0
  5  7  1  0
  6  3  1  0
  6  2  2  0
  7  9  1  0
  8  6  1  0
 11 19  1  0
 12 17  1  0
 13 14  1  0
 13 12  1  0
 15 14  1  0
 15 24  1  0
 15 16  1  0
 17 11  1  0
 17 16  1  0
 18 11  2  0
 19 20  1  0
 19 10  1  0
 21 22  2  0
 22 41  1  0
 23 22  1  0
 23 26  1  0
 24 21  1  0
 24 25  1  0
 25 23  2  0
 26 27  1  0
 27 28  2  0
 29 32  1  0
 29 28  1  0
 30 29  2  0
 31 30  1  0
 31 26  2  0
 32 33  1  0
 33 38  2  0
 33 34  1  0
 34 35  2  0
 35 36  1  0
 36 40  1  0
 37 36  2  0
 38 37  1  0
 39 38  1  0
 41 42  1  0
 42 45  1  0
 42 44  1  0
 43 41  2  0
 46 47  1  0
 46 21  1  0
 48 46  1  0
 49  1  1  0
 49 52  1  0
 50 49  1  0
 51 49  1  0
 53 52  1  0
 54 55  1  0
 54 53  1  0
 56 67  2  0
 57 55  1  0
 57 62  1  0
 58 66  1  0
 58 68  1  0
 59 65  1  0
 59 61  1  0
 60 66  1  0
 61 60  1  0
 62 61  2  0
 63 64  1  0
 63 57  2  0
 64 59  2  0
 65 58  1  0
 66 56  1  0
 68 70  2  0
 69 68  1  0
 71 69  1  0
 72 81  2  0
 72 77  1  0
 73 69  1  0
 73 77  1  0
 74 73  1  0
 75 76  1  0
 75 74  1  0
 76 72  1  0
 77 78  2  0
 78 79  1  0
 80 79  2  0
 81 80  1  0
 82 56  1  0
 82 83  1  0
 82 92  1  0
 83 86  1  0
 84 88  1  0
 84 83  1  0
 85 84  2  0
 88 87  1  0
 90 88  1  0
 90 91  1  0
 90 89  1  0
 92 95  1  1
 92 93  1  0
 94 92  1  0
M  ISO  4  11 100  19 100  54 101  55 101
M  END
>  <TORSDO>  (20) 
F 22

>  <SCORE>  (20) 
-11.421

>  <name>  (20) 
19

>  <ligand_id>  (20) 
19

>  <original_smiles>  (20) 
[H]c1c([H])c([H])c2c(c1[H])C([H])([H])C([H])([H])C([H])([H])C2([H])N([H])C(=O)C1([H])N(C(=O)C([H])(N([H])C(=O)C([H])(N([H])C([H])([H])[H])C([H])([H])[H])C(C([H])([H])[H])(C([H])([H])[H])C([H])([H])[H])C([H])([H])c2c([H])c(OC([H])([H])C([H])([H])C([H])([H])[N+]([H])([H])C([H])([H])c3c([H])c(Cl)c([H])c(C([H])([H])N([H])C(=O)N4C([H])([H])C([H])([H])C([H])([H])C([H])(n5nc(-c6c([H])c([H])c(Oc7c([H])c([H])c(F)c([H])c7F)c([H])c6[H])c(C(=O)N([H])[H])c5N([H])[H])C4([H])[H])c3Cl)c([H])c([H])c2C1([H])[H]

>  <smiles>  (20) 
[H]c1c([H])c([H])c2c(c1[H])C([H])([H])C([H])([H])C([H])([H])C2([H])N([H])C(=O)C1([H])N(C(=O)C([H])(N([H])C(=O)C([H])(N([H])C([H])([H])[H])C([H])([H])[H])C(C([H])([H])[H])(C([H])([H])[H])C([H])([H])[H])C([H])([H])c2c([H])c(OC([H])([H])C([H])([H])C([H])([H])[N+]([H])([H])C([H])([H])c3c([H])c(Cl)c([H])c(C([H])([H])N([H])C(=O)N4C([H])([H])C([H])([H])C([H])([H])C([H])(n5nc(-c6c([H])c([H])c(Oc7c([H])c([H])c(F)c([H])c7F)c([H])c6[H])c(C(=O)N([H])[H])c5N([H])[H])C4([H])[H])c3Cl)c([H])c([H])c2C1([H])[H]

$$$$
20:0:0
     RDKit          3D

 93101  0  0  1  0  0  0  0  0999 V2000
  -28.8090  -21.1090   19.9090 C   0  0  0  0  0  2  0  0  0  0  0  0
  -32.0220  -19.0400   20.7120 C   0  0  0  0  0  3  0  0  0  0  0  0
  -31.5920  -17.7040   20.7570 C   0  0  0  0  0  3  0  0  0  0  0  0
  -31.1340  -20.1050   20.4640 C   0  0  0  0  0  0  0  0  0  0  0  0
  -29.7410  -19.8690   20.3200 C   0  0  0  0  0  0  0  0  0  0  0  0
  -29.3090  -18.4670   20.3970 C   0  0  0  0  0  0  0  0  0  0  0  0
  -30.2360  -17.3460   20.5720 C   0  0  0  0  0  0  0  0  0  0  0  0
  -31.7440  -21.4940   20.3080 C   0  0  0  0  0  1  0  0  0  0  0  0
  -27.8280  -18.1620   20.2490 C   0  0  0  0  0  1  0  0  0  0  0  0
  -30.5990  -14.7490   20.3330 C   0  0  0  0  0  0  0  0  0  0  0  0
  -30.3480  -12.4870   19.3010 C   0  0  0  0  0  2  0  0  0  0  0  0
  -29.3870  -12.5630   18.0960 C   0  0  0  0  0  2  0  0  0  0  0  0
  -27.9310  -12.3780   18.5600 C   0  0  0  0  0  2  0  0  0  0  0  0
  -27.5780  -13.2730   19.7760 C   0  0  0  0  0  3  0  0  0  0  0  0
  -28.6550  -13.1950   20.8810 C   0  0  0  0  0  2  0  0  0  0  0  0
  -29.9420  -13.5390   20.2620 N   0  0  0  0  0  0  0  0  0  0  0  0
  -31.7780  -14.8040   19.9770 O   0  0  0  0  0  0  0  0  0  0  0  0
  -29.8570  -15.9020   20.5880 N   0  0  0  0  0  0  0  0  0  0  0  0
  -28.8820  -15.7170   20.7490 H   0  0  0  0  0  0  0  0  0  0  0  0
  -25.2040  -13.8560   20.5510 C   0  0  0  0  0  0  0  0  0  0  0  0
  -24.1460  -13.0780   20.9380 C   0  0  0  0  0  0  0  0  0  0  0  0
  -24.6100  -11.7280   20.8890 C   0  0  0  0  0  0  0  0  0  0  0  0
  -26.2450  -12.9790   20.2910 N   0  0  0  0  0  0  0  0  0  0  0  0
  -25.8950  -11.6940   20.5580 N   0  0  0  0  0  0  0  0  0  0  0  0
  -23.8880  -10.4630   21.0800 C   0  0  0  0  0  0  0  0  0  0  0  0
  -24.3420   -9.4830   21.9900 C   0  0  0  0  0  3  0  0  0  0  0  0
  -23.6190   -8.2840   22.1710 C   0  0  0  0  0  3  0  0  0  0  0  0
  -22.4290   -8.0570   21.4390 C   0  0  0  0  0  0  0  0  0  0  0  0
  -21.9950   -9.0240   20.5160 C   0  0  0  0  0  3  0  0  0  0  0  0
  -22.7190  -10.2150   20.3330 C   0  0  0  0  0  3  0  0  0  0  0  0
  -21.6760   -6.9110   21.5300 O   0  0  0  0  0  0  0  0  0  0  0  0
  -21.6590   -6.1490   22.6710 C   0  0  0  0  0  0  0  0  0  0  0  0
  -21.2730   -6.6840   23.9200 C   0  0  0  0  0  3  0  0  0  0  0  0
  -21.2040   -5.8490   25.0520 C   0  0  0  0  0  3  0  0  0  0  0  0
  -21.5120   -4.4800   24.9390 C   0  0  0  0  0  0  0  0  0  0  0  0
  -21.8920   -3.9440   23.6950 C   0  0  0  0  0  3  0  0  0  0  0  0
  -21.9640   -4.7770   22.5650 C   0  0  0  0  0  0  0  0  0  0  0  0
  -22.3090   -4.2510   21.3650 F   0  0  0  0  0  0  0  0  0  0  0  0
  -21.4390   -3.6760   26.0250 F   0  0  0  0  0  0  0  0  0  0  0  0
  -22.7520  -13.5520   21.2330 C   0  0  0  0  0  0  0  0  0  0  0  0
  -22.0400  -12.8480   22.1060 N   0  0  0  0  0  0  0  0  0  0  0  0
  -22.3060  -14.5810   20.7300 O   0  0  0  0  0  0  0  0  0  0  0  0
  -22.4140  -12.0130   22.5320 H   0  0  0  0  0  0  0  0  0  0  0  0
  -21.1050  -13.1440   22.3480 H   0  0  0  0  0  0  0  0  0  0  0  0
  -25.3600  -15.2260   20.3690 N   0  0  0  0  0  0  0  0  0  0  0  0
  -24.5750  -15.8650   20.4500 H   0  0  0  0  0  0  0  0  0  0  0  0
  -26.1610  -15.6380   19.9110 H   0  0  0  0  0  0  0  0  0  0  0  0
  -28.7630  -22.4040   20.7300 N   0  0  0  0  0  4  0  0  0  0  0  0
  -29.5720  -22.4250   21.3290 H   0  0  0  0  0  0  0  0  0  0  0  0
  -27.9670  -22.3070   21.3440 H   0  0  0  0  0  0  0  0  0  0  0  0
  -28.6530  -23.7590   19.9980 C   0  0  0  0  0  3  0  0  0  0  0  0
  -28.2140  -25.0700   20.8330 C   0  0  0  0  0  3  0  0  0  0  0  0
  -28.3500  -26.4430   20.2500 O   0  0  0  0  0  0  0  0  0  0  0  0
  -24.6190  -31.8830   23.2380 C   0  0  0  0  0  0  0  0  0  0  0  0
  -27.2350  -27.2980   20.2310 C   0  0  0  0  0  0  0  0  0  0  0  0
  -23.4170  -30.4730   21.6020 C   0  0  0  0  0  3  0  0  0  0  0  0
  -24.8730  -28.9120   20.1860 C   0  0  0  0  0  0  0  0  0  0  0  0
  -25.9530  -30.7990   21.4120 C   0  0  0  0  0  2  0  0  0  0  0  0
  -26.0400  -29.4110   20.7820 C   0  0  0  0  0  0  0  0  0  0  0  0
  -27.2260  -28.6150   20.7910 C   0  0  0  0  0  3  0  0  0  0  0  0
  -26.0530  -26.8540   19.6070 C   0  0  0  0  0  3  0  0  0  0  0  0
  -24.8830  -27.6390   19.5880 C   0  0  0  0  0  3  0  0  0  0  0  0
  -23.6370  -29.7910   20.2240 C   0  0  0  0  0  2  0  0  0  0  0  0
  -24.6830  -31.0690   22.1420 N   0  0  0  0  0  0  0  0  0  0  0  0
  -23.5350  -32.1560   23.7730 O   0  0  0  0  0  0  0  0  0  0  0  0
  -22.7560  -29.4610   22.5670 C   0  0  0  0  0  0  0  0  0  0  0  0
  -21.4280  -29.2870   22.4440 N   0  0  0  0  0  0  0  0  0  0  0  0
  -23.4350  -28.8340   23.3840 O   0  0  0  0  0  0  0  0  0  0  0  0
  -20.9390  -29.8490   21.7600 H   0  0  0  0  0  0  0  0  0  0  0  0
  -18.0450  -28.1000   22.9510 C   0  0  0  0  0  0  0  0  0  0  0  0
  -20.6050  -28.3520   23.2160 C   0  0  0  0  0  3  0  0  0  0  0  0
  -20.7020  -26.9200   22.6390 C   0  0  0  0  0  2  0  0  0  0  0  0
  -19.5960  -26.6020   21.6270 C   0  0  0  0  0  2  0  0  0  0  0  0
  -18.2160  -26.7500   22.2740 C   0  0  0  0  0  2  0  0  0  0  0  0
  -19.1670  -28.8570   23.3800 C   0  0  0  0  0  0  0  0  0  0  0  0
  -18.9550  -30.1210   23.9730 C   0  0  0  0  0  3  0  0  0  0  0  0
  -17.6520  -30.6290   24.1370 C   0  0  0  0  0  3  0  0  0  0  0  0
  -16.5450  -29.8660   23.7300 C   0  0  0  0  0  3  0  0  0  0  0  0
  -16.7410  -28.6040   23.1420 C   0  0  0  0  0  3  0  0  0  0  0  0
  -25.8990  -32.5180   23.8590 C   0  0  0  0  0  3  0  0  0  0  0  0
  -26.4120  -31.7530   25.1410 C   0  0  1  0  0  0  0  0  0  0  0  0
  -25.3170  -31.5180   26.2100 C   0  0  0  0  0  1  0  0  0  0  0  0
  -26.9920  -30.3760   24.7500 C   0  0  0  0  0  1  0  0  0  0  0  0
  -27.5650  -32.5460   25.8000 C   0  0  0  0  0  1  0  0  0  0  0  0
  -25.5860  -33.9170   24.1850 N   0  0  0  0  0  0  0  0  0  0  0  0
  -25.9150  -34.9690   23.4220 C   0  0  0  0  0  0  0  0  0  0  0  0
  -26.5840  -34.8630   22.3900 O   0  0  0  0  0  0  0  0  0  0  0  0
  -24.9960  -34.0710   24.9900 H   0  0  0  0  0  0  0  0  0  0  0  0
  -24.1860  -36.7610   23.0640 C   0  0  0  0  0  1  0  0  0  0  0  0
  -25.4270  -36.3600   23.8750 C   0  0  0  0  0  3  0  0  0  0  0  0
  -27.5630  -37.2490   24.7030 C   0  0  0  0  0  1  0  0  0  0  0  0
  -26.4590  -37.4140   23.7600 N   0  0  0  0  0  0  0  0  0  0  0  0
  -26.0510  -38.3320   23.9070 H   0  0  0  0  0  0  0  0  0  0  0  0
  1  5  1  0
  1 48  1  0
  2  3  1  0
  4  2  2  0
  5  6  2  0
  5  4  1  0
  6  7  1  0
  7 18  1  0
  7  3  2  0
  8  4  1  0
  9  6  1  0
 10 18  1  0
 11 16  1  0
 12 13  1  0
 12 11  1  0
 14 13  1  0
 14 23  1  0
 14 15  1  0
 16 10  1  0
 16 15  1  0
 17 10  2  0
 18 19  1  0
 20 21  2  0
 21 40  1  0
 22 21  1  0
 22 25  1  0
 23 20  1  0
 23 24  1  0
 24 22  2  0
 25 26  1  0
 26 27  2  0
 28 31  1  0
 28 27  1  0
 29 28  2  0
 30 29  1  0
 30 25  2  0
 31 32  1  0
 32 33  1  0
 33 34  2  0
 35 34  1  0
 35 39  1  0
 36 35  2  0
 37 32  2  0
 37 36  1  0
 38 37  1  0
 40 41  1  0
 41 44  1  0
 41 43  1  0
 42 40  2  0
 45 46  1  0
 45 20  1  0
 47 45  1  0
 48 49  1  0
 48 50  1  0
 51 48  1  0
 51 52  2  0
 53 52  1  0
 54 65  2  0
 55 53  1  0
 55 60  1  0
 56 64  1  0
 56 66  1  0
 57 63  1  0
 57 59  1  0
 58 64  1  0
 59 60  2  0
 59 58  1  0
 61 55  2  0
 62 61  1  0
 62 57  2  0
 63 56  1  0
 64 54  1  0
 66 68  2  0
 67 66  1  0
 69 67  1  0
 70 79  2  0
 70 75  1  0
 71 67  1  0
 71 75  1  0
 72 71  1  0
 73 74  1  0
 73 72  1  0
 74 70  1  0
 75 76  2  0
 76 77  1  0
 78 77  2  0
 79 78  1  0
 80 54  1  0
 80 85  1  0
 80 81  1  0
 81 84  1  1
 81 82  1  0
 83 81  1  0
 85 88  1  0
 86 90  1  0
 86 85  1  0
 87 86  2  0
 90 89  1  0
 92 90  1  0
 92 93  1  0
 92 91  1  0
M  ISO  4  10 100  18 100  52 101  53 101
M  END
>  <TORSDO>  (21) 
F 20

>  <SCORE>  (21) 
-14.158

>  <name>  (21) 
20

>  <ligand_id>  (21) 
20

>  <original_smiles>  (21) 
[H]c1c([H])c([H])c2c(c1[H])C([H])([H])C([H])([H])C([H])([H])C2([H])N([H])C(=O)C1([H])N(C(=O)C([H])(N([H])C(=O)C([H])(N([H])C([H])([H])[H])C([H])([H])[H])C(C([H])([H])[H])(C([H])([H])[H])C([H])([H])[H])C([H])([H])c2c([H])c(OC([H])([H])C([H])([H])[N+]([H])([H])C([H])([H])c3c(C([H])([H])[H])c([H])c([H])c(N([H])C(=O)N4C([H])([H])C([H])([H])C([H])([H])C([H])(n5nc(-c6c([H])c([H])c(Oc7c([H])c([H])c(F)c([H])c7F)c([H])c6[H])c(C(=O)N([H])[H])c5N([H])[H])C4([H])[H])c3C([H])([H])[H])c([H])c([H])c2C1([H])[H]

>  <smiles>  (21) 
[H]c1c([H])c([H])c2c(c1[H])C([H])([H])C([H])([H])C([H])([H])C2([H])N([H])C(=O)C1([H])N(C(=O)C([H])(N([H])C(=O)C([H])(N([H])C([H])([H])[H])C([H])([H])[H])C(C([H])([H])[H])(C([H])([H])[H])C([H])([H])[H])C([H])([H])c2c([H])c(OC([H])([H])C([H])([H])[N+]([H])([H])C([H])([H])c3c(C([H])([H])[H])c([H])c([H])c(N([H])C(=O)N4C([H])([H])C([H])([H])C([H])([H])C([H])(n5nc(-c6c([H])c([H])c(Oc7c([H])c([H])c(F)c([H])c7F)c([H])c6[H])c(C(=O)N([H])[H])c5N([H])[H])C4([H])[H])c3C([H])([H])[H])c([H])c([H])c2C1([H])[H]

$$$$
21:0:0
     RDKit          3D

101109  0  0  1  0  0  0  0  0999 V2000
  -30.7330  -20.4780   21.7320 C   0  0  0  0  0  3  0  0  0  0  0  0
  -30.6420  -20.8270   20.3710 C   0  0  0  0  0  0  0  0  0  0  0  0
  -30.8160  -18.0780   21.2170 C   0  0  0  0  0  0  0  0  0  0  0  0
  -30.6680  -19.7740   19.4110 C   0  0  0  0  0  0  0  0  0  0  0  0
  -30.7240  -18.4130   19.8390 C   0  0  0  0  0  0  0  0  0  0  0  0
  -30.8380  -19.1430   22.1540 C   0  0  0  0  0  0  0  0  0  0  0  0
  -30.7630  -17.4290   18.9100 F   0  0  0  0  0  0  0  0  0  0  0  0
  -31.0650  -18.8780   23.8480 Cl  0  0  0  0  0  0  0  0  0  0  0  0
  -30.7460  -20.0590   18.0350 N   0  0  0  0  0  0  0  0  0  0  0  0
  -31.5390  -20.6200   17.7370 H   0  0  0  0  0  0  0  0  0  0  0  0
  -29.5060  -20.3840   17.3460 C   0  0  0  0  0  2  0  0  0  0  0  0
  -27.5740  -18.8250   16.8780 C   0  0  0  0  0  2  0  0  0  0  0  0
  -28.8550  -19.1790   16.7020 C   0  0  0  0  0  3  0  0  0  0  0  0
  -31.0390  -16.6360   21.7240 C   0  0  0  0  0  2  0  0  0  0  0  0
  -30.7820  -14.5900   20.3360 C   0  0  0  0  0  0  0  0  0  0  0  0
  -30.3530  -12.5170   19.0750 C   0  0  0  0  0  2  0  0  0  0  0  0
  -29.3980  -12.7950   17.8960 C   0  0  0  0  0  2  0  0  0  0  0  0
  -27.9320  -12.6600   18.3540 C   0  0  0  0  0  2  0  0  0  0  0  0
  -27.6310  -13.4480   19.6580 C   0  0  0  0  0  3  0  0  0  0  0  0
  -28.7090  -13.1840   20.7350 C   0  0  0  0  0  2  0  0  0  0  0  0
  -30.0300  -13.4720   20.1430 N   0  0  0  0  0  0  0  0  0  0  0  0
  -31.8790  -14.7590   19.7990 O   0  0  0  0  0  0  0  0  0  0  0  0
  -30.2630  -15.5330   21.1350 N   0  0  0  0  0  0  0  0  0  0  0  0
  -29.3520  -15.3460   21.5260 H   0  0  0  0  0  0  0  0  0  0  0  0
  -25.2330  -14.0320   20.3890 C   0  0  0  0  0  0  0  0  0  0  0  0
  -24.1750  -13.2480   20.7670 C   0  0  0  0  0  0  0  0  0  0  0  0
  -24.6500  -11.9010   20.7370 C   0  0  0  0  0  0  0  0  0  0  0  0
  -26.2860  -13.1600   20.1530 N   0  0  0  0  0  0  0  0  0  0  0  0
  -25.9380  -11.8750   20.4240 N   0  0  0  0  0  0  0  0  0  0  0  0
  -23.9380  -10.6310   20.9400 C   0  0  0  0  0  0  0  0  0  0  0  0
  -24.3650   -9.6840   21.8970 C   0  0  0  0  0  3  0  0  0  0  0  0
  -23.6480   -8.4820   22.0840 C   0  0  0  0  0  3  0  0  0  0  0  0
  -22.4910   -8.2190   21.3160 C   0  0  0  0  0  0  0  0  0  0  0  0
  -22.0820   -9.1570   20.3500 C   0  0  0  0  0  3  0  0  0  0  0  0
  -22.7990  -10.3490   20.1600 C   0  0  0  0  0  3  0  0  0  0  0  0
  -21.7480   -7.0660   21.4110 O   0  0  0  0  0  0  0  0  0  0  0  0
  -21.6740   -6.3530   22.5810 C   0  0  0  0  0  0  0  0  0  0  0  0
  -21.2050   -6.9370   23.7780 C   0  0  0  0  0  3  0  0  0  0  0  0
  -21.0720   -6.1500   24.9400 C   0  0  0  0  0  3  0  0  0  0  0  0
  -21.4020   -4.7830   24.9060 C   0  0  0  0  0  0  0  0  0  0  0  0
  -21.8640   -4.1990   23.7150 C   0  0  0  0  0  3  0  0  0  0  0  0
  -21.9960   -4.9820   22.5540 C   0  0  0  0  0  0  0  0  0  0  0  0
  -22.4210   -4.4090   21.4030 F   0  0  0  0  0  0  0  0  0  0  0  0
  -21.2700   -4.0250   26.0200 F   0  0  0  0  0  0  0  0  0  0  0  0
  -22.7750  -13.7140   21.0490 C   0  0  0  0  0  0  0  0  0  0  0  0
  -22.0570  -13.0180   21.9240 N   0  0  0  0  0  0  0  0  0  0  0  0
  -22.3280  -14.7360   20.5300 O   0  0  0  0  0  0  0  0  0  0  0  0
  -22.4260  -12.1940   22.3720 H   0  0  0  0  0  0  0  0  0  0  0  0
  -21.1240  -13.3280   22.1560 H   0  0  0  0  0  0  0  0  0  0  0  0
  -25.3830  -15.4020   20.2070 N   0  0  0  0  0  0  0  0  0  0  0  0
  -24.6130  -16.0520   20.3130 H   0  0  0  0  0  0  0  0  0  0  0  0
  -26.2320  -15.8410   19.8770 H   0  0  0  0  0  0  0  0  0  0  0  0
  -30.6320  -22.3300   20.0110 C   0  0  0  0  0  2  0  0  0  0  0  0
  -29.6860  -23.1730   20.8100 N   0  0  0  0  0  4  0  0  0  0  0  0
  -29.8640  -22.9580   21.7780 H   0  0  0  0  0  0  0  0  0  0  0  0
  -28.7530  -22.8500   20.6270 H   0  0  0  0  0  0  0  0  0  0  0  0
  -30.8760  -25.3480   20.7050 C   0  0  0  0  0  2  0  0  0  0  0  0
  -31.9720  -26.0710   20.7380 C   0  0  0  0  0  1  0  0  0  0  0  0
  -29.7490  -24.6800   20.6530 C   0  0  0  0  0  3  0  0  0  0  0  0
  -28.3740  -25.3430   20.4780 C   0  0  0  0  0  2  0  0  0  0  0  0
  -28.4560  -26.7770   20.2470 O   0  0  0  0  0  0  0  0  0  0  0  0
  -24.5950  -31.9670   23.2730 C   0  0  0  0  0  0  0  0  0  0  0  0
  -27.2760  -27.5050   20.2280 C   0  0  0  0  0  0  0  0  0  0  0  0
  -23.4010  -30.5460   21.6390 C   0  0  0  0  0  3  0  0  0  0  0  0
  -24.8690  -29.0120   20.2190 C   0  0  0  0  0  0  0  0  0  0  0  0
  -25.9200  -30.9310   21.4220 C   0  0  0  0  0  2  0  0  0  0  0  0
  -26.0260  -29.5470   20.8000 C   0  0  0  0  0  0  0  0  0  0  0  0
  -27.2350  -28.8040   20.7910 C   0  0  0  0  0  3  0  0  0  0  0  0
  -26.0980  -26.9910   19.6370 C   0  0  0  0  0  3  0  0  0  0  0  0
  -24.9010  -27.7350   19.6330 C   0  0  0  0  0  3  0  0  0  0  0  0
  -23.6190  -29.8650   20.2600 C   0  0  0  0  0  2  0  0  0  0  0  0
  -24.6600  -31.1600   22.1750 N   0  0  0  0  0  0  0  0  0  0  0  0
  -23.5130  -32.2310   23.8150 O   0  0  0  0  0  0  0  0  0  0  0  0
  -22.7580  -29.5210   22.6050 C   0  0  0  0  0  0  0  0  0  0  0  0
  -21.4360  -29.3210   22.4730 N   0  0  0  0  0  0  0  0  0  0  0  0
  -23.4460  -28.9120   23.4280 O   0  0  0  0  0  0  0  0  0  0  0  0
  -20.9450  -29.8660   21.7800 H   0  0  0  0  0  0  0  0  0  0  0  0
  -18.0760  -28.0780   22.9550 C   0  0  0  0  0  0  0  0  0  0  0  0
  -20.6290  -28.3790   23.2470 C   0  0  0  0  0  3  0  0  0  0  0  0
  -20.7590  -26.9440   22.6880 C   0  0  0  0  0  2  0  0  0  0  0  0
  -19.6720  -26.5930   21.6660 C   0  0  0  0  0  2  0  0  0  0  0  0
  -18.2820  -26.7230   22.2980 C   0  0  0  0  0  2  0  0  0  0  0  0
  -19.1800  -28.8610   23.3860 C   0  0  0  0  0  0  0  0  0  0  0  0
  -18.9360  -30.1280   23.9610 C   0  0  0  0  0  3  0  0  0  0  0  0
  -17.6220  -30.6120   24.1080 C   0  0  0  0  0  3  0  0  0  0  0  0
  -16.5340  -29.8250   23.6930 C   0  0  0  0  0  3  0  0  0  0  0  0
  -16.7610  -28.5610   23.1220 C   0  0  0  0  0  3  0  0  0  0  0  0
  -25.8750  -32.6150   23.8850 C   0  0  0  0  0  3  0  0  0  0  0  0
  -25.5560  -34.0130   24.2040 N   0  0  0  0  0  0  0  0  0  0  0  0
  -25.8840  -35.0610   23.4360 C   0  0  0  0  0  0  0  0  0  0  0  0
  -26.5610  -34.9530   22.4110 O   0  0  0  0  0  0  0  0  0  0  0  0
  -24.9550  -34.1710   25.0000 H   0  0  0  0  0  0  0  0  0  0  0  0
  -24.1510  -36.8420   23.0460 C   0  0  0  0  0  1  0  0  0  0  0  0
  -25.3850  -36.4500   23.8760 C   0  0  0  0  0  3  0  0  0  0  0  0
  -27.5080  -37.3520   24.7200 C   0  0  0  0  0  1  0  0  0  0  0  0
  -26.4140  -37.5070   23.7650 N   0  0  0  0  0  0  0  0  0  0  0  0
  -26.0010  -38.4240   23.9070 H   0  0  0  0  0  0  0  0  0  0  0  0
  -26.4010  -31.8570   25.1660 C   0  0  1  0  0  0  0  0  0  0  0  0
  -25.3120  -31.6040   26.2320 C   0  0  0  0  0  1  0  0  0  0  0  0
  -27.0030  -30.4880   24.7710 C   0  0  0  0  0  1  0  0  0  0  0  0
  -27.5350  -32.6720   25.8340 C   0  0  0  0  0  1  0  0  0  0  0  0
  1  6  1  0
  2  1  2  0
  3 14  1  0
  3  6  2  0
  4  5  2  0
  4  2  1  0
  5  3  1  0
  6  8  1  0
  7  5  1  0
  9  4  1  0
 10  9  1  0
 11  9  1  0
 13 12  2  0
 13 11  1  0
 15 23  1  0
 16 21  1  0
 17 18  1  0
 17 16  1  0
 19 18  1  0
 19 28  1  0
 19 20  1  0
 21 15  1  0
 21 20  1  0
 22 15  2  0
 23 24  1  0
 23 14  1  0
 25 26  2  0
 26 45  1  0
 27 26  1  0
 27 30  1  0
 28 25  1  0
 28 29  1  0
 29 27  2  0
 30 31  1  0
 31 32  2  0
 33 36  1  0
 33 32  1  0
 34 33  2  0
 35 34  1  0
 35 30  2  0
 36 37  1  0
 37 38  1  0
 38 39  2  0
 40 39  1  0
 40 44  1  0
 41 40  2  0
 42 37  2  0
 42 41  1  0
 43 42  1  0
 45 46  1  0
 46 49  1  0
 46 48  1  0
 47 45  2  0
 50 51  1  0
 50 25  1  0
 52 50  1  0
 53  2  1  0
 53 54  1  0
 54 55  1  0
 56 54  1  0
 57 58  1  0
 59 60  1  0
 59 57  1  0
 59 54  1  0
 61 60  1  0
 62 73  2  0
 63 61  1  0
 63 68  1  0
 64 72  1  0
 64 74  1  0
 65 71  1  0
 65 67  1  0
 66 72  1  0
 67 66  1  0
 68 67  2  0
 69 63  2  0
 70 69  1  0
 70 65  2  0
 71 64  1  0
 72 62  1  0
 74 76  2  0
 75 74  1  0
 77 75  1  0
 78 87  2  0
 78 83  1  0
 79 75  1  0
 79 83  1  0
 80 79  1  0
 81 82  1  0
 81 80  1  0
 82 78  1  0
 83 84  2  0
 84 85  1  0
 86 85  2  0
 87 86  1  0
 88 62  1  0
 88 89  1  0
 88 98  1  0
 89 92  1  0
 90 94  1  0
 90 89  1  0
 91 90  2  0
 94 93  1  0
 96 94  1  0
 96 97  1  0
 96 95  1  0
 98101  1  1
 98 99  1  0
100 98  1  0
M  ISO  4  15 100  23 100  60 101  61 101
M  END
>  <TORSDO>  (22) 
F 24

>  <SCORE>  (22) 
-12.734

>  <name>  (22) 
21

>  <ligand_id>  (22) 
21

>  <original_smiles>  (22) 
[H]C([H])=C=C(C([H])([H])Oc1c([H])c([H])c2c(c1[H])C([H])([H])N(C(=O)C([H])(N([H])C(=O)C([H])(N([H])C([H])([H])[H])C([H])([H])[H])C(C([H])([H])[H])(C([H])([H])[H])C([H])([H])[H])C([H])(C(=O)N([H])C1([H])c3c([H])c([H])c([H])c([H])c3C([H])([H])C([H])([H])C1([H])[H])C2([H])[H])[N+]([H])([H])C([H])([H])c1c([H])c(Cl)c(C([H])([H])N([H])C(=O)N2C([H])([H])C([H])([H])C([H])([H])C([H])(n3nc(-c4c([H])c([H])c(Oc5c([H])c([H])c(F)c([H])c5F)c([H])c4[H])c(C(=O)N([H])[H])c3N([H])[H])C2([H])[H])c(F)c1N([H])C([H])([H])C([H])=C([H])[H]

>  <smiles>  (22) 
[H]C([H])=C=C(C([H])([H])Oc1c([H])c([H])c2c(c1[H])C([H])([H])N(C(=O)C([H])(N([H])C(=O)C([H])(N([H])C([H])([H])[H])C([H])([H])[H])C(C([H])([H])[H])(C([H])([H])[H])C([H])([H])[H])C([H])(C(=O)N([H])C1([H])c3c([H])c([H])c([H])c([H])c3C([H])([H])C([H])([H])C1([H])[H])C2([H])[H])[N+]([H])([H])C([H])([H])c1c([H])c(Cl)c(C([H])([H])N([H])C(=O)N2C([H])([H])C([H])([H])C([H])([H])C([H])(n3nc(-c4c([H])c([H])c(Oc5c([H])c([H])c(F)c([H])c5F)c([H])c4[H])c(C(=O)N([H])[H])c3N([H])[H])C2([H])[H])c(F)c1N([H])C([H])([H])C([H])=C([H])[H]

$$$$
22:0:0
     RDKit          3D

 96104  0  0  1  0  0  0  0  0999 V2000
  -27.6330  -21.6520   19.7310 C   0  0  0  0  0  0  0  0  0  0  0  0
  -26.6030  -21.6310   18.8940 N   0  0  0  0  0  4  0  0  0  0  0  0
  -27.8910  -22.8550   20.2790 N   0  0  0  0  0  0  0  0  0  0  0  0
  -26.4920  -20.7930   18.3420 H   0  0  0  0  0  0  0  0  0  0  0  0
  -26.1160  -22.4540   18.5930 H   0  0  0  0  0  0  0  0  0  0  0  0
  -27.0670  -23.3850   20.5450 H   0  0  0  0  0  0  0  0  0  0  0  0
  -29.7620  -20.3780   19.8500 C   0  0  0  0  0  3  0  0  0  0  0  0
  -30.4660  -19.1640   19.7510 C   0  0  0  0  0  3  0  0  0  0  0  0
  -28.3600  -20.3710   19.9030 C   0  0  0  0  0  0  0  0  0  0  0  0
  -29.8120  -17.9150   19.7560 C   0  0  0  0  0  0  0  0  0  0  0  0
  -27.6610  -19.1170   19.9910 C   0  0  0  0  0  0  0  0  0  0  0  0
  -28.3940  -17.8820   19.9380 C   0  0  0  0  0  0  0  0  0  0  0  0
  -26.1310  -19.0890   20.1790 C   0  0  0  0  0  1  0  0  0  0  0  0
  -27.6480  -16.5450   20.0320 C   0  0  0  0  0  1  0  0  0  0  0  0
  -30.7330  -16.6990   19.5210 C   0  0  0  0  0  2  0  0  0  0  0  0
  -30.9710  -14.2420   19.7980 C   0  0  0  0  0  0  0  0  0  0  0  0
  -30.5610  -11.9730   19.0010 C   0  0  0  0  0  2  0  0  0  0  0  0
  -29.5800  -12.1060   17.8180 C   0  0  0  0  0  2  0  0  0  0  0  0
  -28.1250  -12.0140   18.3290 C   0  0  0  0  0  2  0  0  0  0  0  0
  -27.8380  -12.9520   19.5410 C   0  0  0  0  0  3  0  0  0  0  0  0
  -28.9720  -12.8950   20.5990 C   0  0  0  0  0  2  0  0  0  0  0  0
  -30.2650  -13.0850   19.9200 N   0  0  0  0  0  0  0  0  0  0  0  0
  -32.1010  -14.3100   19.3220 O   0  0  0  0  0  0  0  0  0  0  0  0
  -30.2800  -15.3710   19.9810 N   0  0  0  0  0  0  0  0  0  0  0  0
  -29.3690  -15.3010   20.4070 H   0  0  0  0  0  0  0  0  0  0  0  0
  -25.5520  -13.5940   20.5440 C   0  0  0  0  0  0  0  0  0  0  0  0
  -24.4830  -12.8420   20.9390 C   0  0  0  0  0  0  0  0  0  0  0  0
  -24.8540  -11.4820   20.7230 C   0  0  0  0  0  0  0  0  0  0  0  0
  -26.5210  -12.6950   20.1240 N   0  0  0  0  0  0  0  0  0  0  0  0
  -26.1100  -11.4110   20.2950 N   0  0  0  0  0  0  0  0  0  0  0  0
  -24.0750  -10.2480   20.8590 C   0  0  0  0  0  0  0  0  0  0  0  0
  -24.4100   -9.2750   21.8280 C   0  0  0  0  0  3  0  0  0  0  0  0
  -23.6290   -8.1080   21.9590 C   0  0  0  0  0  3  0  0  0  0  0  0
  -22.5070   -7.9100   21.1210 C   0  0  0  0  0  0  0  0  0  0  0  0
  -22.1880   -8.8750   20.1540 C   0  0  0  0  0  3  0  0  0  0  0  0
  -22.9660  -10.0340   20.0150 C   0  0  0  0  0  3  0  0  0  0  0  0
  -21.7030   -6.8000   21.1490 O   0  0  0  0  0  0  0  0  0  0  0  0
  -21.3940   -6.1640   22.3230 C   0  0  0  0  0  0  0  0  0  0  0  0
  -20.7670   -6.8390   23.3920 C   0  0  0  0  0  3  0  0  0  0  0  0
  -20.3960   -6.1300   24.5510 C   0  0  0  0  0  3  0  0  0  0  0  0
  -20.6550   -4.7500   24.6490 C   0  0  0  0  0  0  0  0  0  0  0  0
  -21.2870   -4.0790   23.5870 C   0  0  0  0  0  3  0  0  0  0  0  0
  -21.6490   -4.7830   22.4260 C   0  0  0  0  0  0  0  0  0  0  0  0
  -22.2320   -4.1210   21.3970 F   0  0  0  0  0  0  0  0  0  0  0  0
  -20.3000   -4.0680   25.7640 F   0  0  0  0  0  0  0  0  0  0  0  0
  -23.1480  -13.3610   21.3940 C   0  0  0  0  0  0  0  0  0  0  0  0
  -22.4830  -12.6500   22.2960 N   0  0  0  0  0  0  0  0  0  0  0  0
  -22.7100  -14.4330   20.9890 O   0  0  0  0  0  0  0  0  0  0  0  0
  -22.8450  -11.7760   22.6470 H   0  0  0  0  0  0  0  0  0  0  0  0
  -21.6020  -12.9920   22.6460 H   0  0  0  0  0  0  0  0  0  0  0  0
  -25.7640  -14.9660   20.5070 N   0  0  0  0  0  0  0  0  0  0  0  0
  -25.0280  -15.6130   20.7730 H   0  0  0  0  0  0  0  0  0  0  0  0
  -26.6280  -15.4140   20.2310 H   0  0  0  0  0  0  0  0  0  0  0  0
  -29.1260  -23.6750   20.4710 C   0  0  0  0  0  2  0  0  0  0  0  0
  -28.9230  -24.9780   19.6230 C   0  0  0  0  0  2  0  0  0  0  0  0
  -29.0440  -26.3350   20.1640 O   0  0  0  0  0  0  0  0  0  0  0  0
  -24.8350  -31.3710   23.0380 C   0  0  0  0  0  0  0  0  0  0  0  0
  -27.9040  -27.1330   20.0180 C   0  0  0  0  0  0  0  0  0  0  0  0
  -23.8180  -29.9500   21.2980 C   0  0  0  0  0  3  0  0  0  0  0  0
  -25.4520  -28.5730   19.9060 C   0  0  0  0  0  0  0  0  0  0  0  0
  -26.3350  -30.4420   21.2810 C   0  0  0  0  0  2  0  0  0  0  0  0
  -26.5440  -29.1090   20.6010 C   0  0  0  0  0  0  0  0  0  0  0  0
  -27.7770  -28.4010   20.6490 C   0  0  0  0  0  3  0  0  0  0  0  0
  -26.7960  -26.6770   19.2500 C   0  0  0  0  0  3  0  0  0  0  0  0
  -25.5770  -27.3580   19.2290 C   0  0  0  0  0  3  0  0  0  0  0  0
  -24.1630  -29.3640   19.9080 C   0  0  0  0  0  2  0  0  0  0  0  0
  -25.0080  -30.5990   21.9290 N   0  0  0  0  0  0  0  0  0  0  0  0
  -23.7060  -31.5610   23.5130 O   0  0  0  0  0  0  0  0  0  0  0  0
  -23.1720  -28.8570   22.1810 C   0  0  0  0  0  0  0  0  0  0  0  0
  -21.8590  -28.6440   22.0090 N   0  0  0  0  0  0  0  0  0  0  0  0
  -23.8510  -28.2150   22.9840 O   0  0  0  0  0  0  0  0  0  0  0  0
  -21.3660  -29.2530   21.3700 H   0  0  0  0  0  0  0  0  0  0  0  0
  -18.4910  -27.3450   22.4090 C   0  0  0  0  0  0  0  0  0  0  0  0
  -21.0560  -27.6240   22.6900 C   0  0  0  0  0  3  0  0  0  0  0  0
  -21.1830  -26.2440   21.9950 C   0  0  0  0  0  2  0  0  0  0  0  0
  -20.0630  -25.9610   20.9830 C   0  0  0  0  0  2  0  0  0  0  0  0
  -18.6760  -26.0480   21.6330 C   0  0  0  0  0  2  0  0  0  0  0  0
  -19.6030  -28.0880   22.8950 C   0  0  0  0  0  0  0  0  0  0  0  0
  -19.3700  -29.2930   23.5970 C   0  0  0  0  0  3  0  0  0  0  0  0
  -18.0640  -29.7700   23.8070 C   0  0  0  0  0  3  0  0  0  0  0  0
  -16.9740  -29.0270   23.3270 C   0  0  0  0  0  3  0  0  0  0  0  0
  -17.1830  -27.8160   22.6410 C   0  0  0  0  0  3  0  0  0  0  0  0
  -26.0350  -32.0700   23.7470 C   0  0  0  0  0  3  0  0  0  0  0  0
  -26.4790  -31.3350   25.0740 C   0  0  1  0  0  0  0  0  0  0  0  0
  -25.3080  -31.0550   26.0450 C   0  0  0  0  0  1  0  0  0  0  0  0
  -27.1580  -29.9820   24.7500 C   0  0  0  0  0  1  0  0  0  0  0  0
  -27.5310  -32.1910   25.8170 C   0  0  0  0  0  1  0  0  0  0  0  0
  -25.6430  -33.4570   24.0280 N   0  0  0  0  0  0  0  0  0  0  0  0
  -25.9530  -34.5040   23.2560 C   0  0  0  0  0  0  0  0  0  0  0  0
  -26.6760  -34.4070   22.2610 O   0  0  0  0  0  0  0  0  0  0  0  0
  -25.0110  -33.6000   24.8020 H   0  0  0  0  0  0  0  0  0  0  0  0
  -24.1450  -36.1810   22.7880 C   0  0  0  0  0  1  0  0  0  0  0  0
  -25.3790  -35.8710   23.6510 C   0  0  0  0  0  3  0  0  0  0  0  0
  -27.4240  -36.9080   24.5290 C   0  0  0  0  0  1  0  0  0  0  0  0
  -26.3510  -36.9780   23.5400 N   0  0  0  0  0  0  0  0  0  0  0  0
  -25.8880  -37.8790   23.6410 H   0  0  0  0  0  0  0  0  0  0  0  0
  1  9  1  0
  1  3  1  0
  2  1  2  0
  3 54  1  0
  3  6  1  0
  4  2  1  0
  5  2  1  0
  7  9  1  0
  8 10  1  0
  8  7  2  0
  9 11  2  0
 10 12  2  0
 11 13  1  0
 12 11  1  0
 12 14  1  0
 15 10  1  0
 15 24  1  0
 16 22  1  0
 16 24  1  0
 17 22  1  0
 18 19  1  0
 18 17  1  0
 20 19  1  0
 20 29  1  0
 20 21  1  0
 22 21  1  0
 23 16  2  0
 24 25  1  0
 26 27  2  0
 27 46  1  0
 28 31  1  0
 28 27  1  0
 29 30  1  0
 29 26  1  0
 30 28  2  0
 31 32  1  0
 32 33  2  0
 34 37  1  0
 34 33  1  0
 35 34  2  0
 36 35  1  0
 36 31  2  0
 37 38  1  0
 38 43  2  0
 38 39  1  0
 39 40  2  0
 40 41  1  0
 41 45  1  0
 42 41  2  0
 43 42  1  0
 44 43  1  0
 46 47  1  0
 47 50  1  0
 47 49  1  0
 48 46  2  0
 51 26  1  0
 51 52  1  0
 53 51  1  0
 55 56  1  0
 55 54  1  0
 57 68  2  0
 58 56  1  0
 58 63  1  0
 59 67  1  0
 59 69  1  0
 60 66  1  0
 60 62  1  0
 61 67  1  0
 62 63  2  0
 62 61  1  0
 64 58  2  0
 65 64  1  0
 65 60  2  0
 66 59  1  0
 67 57  1  0
 69 71  2  0
 70 69  1  0
 72 70  1  0
 73 82  2  0
 73 78  1  0
 74 70  1  0
 74 78  1  0
 75 74  1  0
 76 77  1  0
 76 75  1  0
 77 73  1  0
 78 79  2  0
 79 80  1  0
 81 80  2  0
 82 81  1  0
 83 57  1  0
 83 88  1  0
 83 84  1  0
 84 87  1  1
 84 85  1  0
 86 84  1  0
 88 91  1  0
 89 93  1  0
 89 88  1  0
 90 89  2  0
 93 92  1  0
 95 96  1  0
 95 93  1  0
 95 94  1  0
M  ISO  4  16 100  24 100  55 101  56 101
M  END
>  <TORSDO>  (23) 
F 20

>  <SCORE>  (23) 
-10.708

>  <name>  (23) 
22

>  <ligand_id>  (23) 
22

>  <original_smiles>  (23) 
[H]c1c([H])c([H])c2c(c1[H])C([H])([H])C([H])([H])C([H])([H])C2([H])N([H])C(=O)C1([H])N(C(=O)C([H])(N([H])C(=O)C([H])(N([H])C([H])([H])[H])C([H])([H])[H])C(C([H])([H])[H])(C([H])([H])[H])C([H])([H])[H])C([H])([H])c2c([H])c(OC([H])([H])C([H])([H])[N+]([H])=C(c3c([H])c([H])c(C([H])([H])N([H])C(=O)N4C([H])([H])C([H])([H])C([H])([H])C([H])(n5nc(-c6c([H])c([H])c(Oc7c([H])c([H])c(F)c([H])c7F)c([H])c6[H])c(C(=O)N([H])[H])c5N([H])[H])C4([H])[H])c(C([H])([H])[H])c3C([H])([H])[H])N([H])[H])c([H])c([H])c2C1([H])[H]

>  <smiles>  (23) 
[H]c1c([H])c([H])c2c(c1[H])C([H])([H])C([H])([H])C([H])([H])C2([H])N([H])C(=O)C1([H])N(C(=O)C([H])(N([H])C(=O)C([H])(N([H])C([H])([H])[H])C([H])([H])[H])C(C([H])([H])[H])(C([H])([H])[H])C([H])([H])[H])C([H])([H])c2c([H])c(OC([H])([H])C([H])([H])[N+]([H])=C(c3c([H])c([H])c(C([H])([H])N([H])C(=O)N4C([H])([H])C([H])([H])C([H])([H])C([H])(n5nc(-c6c([H])c([H])c(Oc7c([H])c([H])c(F)c([H])c7F)c([H])c6[H])c(C(=O)N([H])[H])c5N([H])[H])C4([H])[H])c(C([H])([H])[H])c3C([H])([H])[H])N([H])[H])c([H])c([H])c2C1([H])[H]

$$$$
23:0:0
     RDKit          3D

 95103  0  0  1  0  0  0  0  0999 V2000
  -27.9790  -17.9920   19.8590 C   0  0  0  0  0  0  0  0  0  0  0  0
  -26.6690  -18.2230   19.9460 N   0  0  0  0  0  4  0  0  0  0  0  0
  -28.6490  -19.3970   19.6100 N   0  0  0  0  0  0  0  0  0  0  0  0
  -26.3070  -19.1600   19.9070 H   0  0  0  0  0  0  0  0  0  0  0  0
  -26.0420  -17.4650   20.1670 H   0  0  0  0  0  0  0  0  0  0  0  0
  -29.6540  -19.2790   19.7240 H   0  0  0  0  0  0  0  0  0  0  0  0
  -29.8490  -13.3930   19.1740 C   0  0  0  0  0  2  0  0  0  0  0  0
  -28.9780  -13.3410   21.0710 C   0  0  0  0  0  2  0  0  0  0  0  0
  -29.0550  -15.8560   18.7460 C   0  0  0  0  0  3  0  0  0  0  0  0
  -28.3770  -16.2320   20.0140 C   0  0  0  0  0  0  0  0  0  0  0  0
  -29.8000  -14.6250   18.3660 C   0  0  0  0  0  3  0  0  0  0  0  0
  -28.2230  -14.9690   21.1480 C   0  0  0  0  0  3  0  0  0  0  0  0
  -27.5610  -15.3510   22.4630 C   0  0  0  0  0  1  0  0  0  0  0  0
  -31.2120  -14.7500   17.8060 C   0  0  0  0  0  2  0  0  0  0  0  0
  -32.3930  -13.1630   19.6800 C   0  0  0  0  0  0  0  0  0  0  0  0
  -30.8610  -11.1370   19.6770 C   0  0  0  0  0  3  0  0  0  0  0  0
  -29.4250  -10.7460   18.6520 C   0  0  0  0  0  3  0  0  0  0  0  0
  -27.9780  -11.6990   18.2170 C   0  0  0  0  0  2  0  0  0  0  0  0
  -27.5790  -13.3390   19.0340 C   0  0  0  0  0  2  0  0  0  0  0  0
  -30.5270  -14.0270   20.6350 C   0  0  0  0  0  3  0  0  0  0  0  0
  -31.3880  -12.6010   20.3470 N   0  0  0  0  0  0  0  0  0  0  0  0
  -33.4890  -12.7900   19.9210 O   0  0  0  0  0  0  0  0  0  0  0  0
  -32.2830  -14.1320   18.6860 N   0  0  0  0  0  0  0  0  0  0  0  0
  -33.2060  -14.4470   18.4170 H   0  0  0  0  0  0  0  0  0  0  0  0
  -25.5030  -13.3050   20.3950 C   0  0  0  0  0  0  0  0  0  0  0  0
  -24.5920  -12.4430   20.8940 C   0  0  0  0  0  0  0  0  0  0  0  0
  -25.0770  -11.1070   20.7440 C   0  0  0  0  0  3  0  0  0  0  0  0
  -26.4570  -12.5810   19.8330 N   0  0  0  0  0  0  0  0  0  0  0  0
  -26.3140  -11.2150   20.2170 N   0  0  0  0  0  2  0  0  0  0  0  0
  -24.3290   -9.8240   20.9350 C   0  0  0  0  0  0  0  0  0  0  0  0
  -24.7570   -8.7380   21.7430 C   0  0  0  0  0  3  0  0  0  0  0  0
  -23.9300   -7.6000   21.9420 C   0  0  0  0  0  3  0  0  0  0  0  0
  -22.6500   -7.5270   21.3450 C   0  0  0  0  0  0  0  0  0  0  0  0
  -22.2390   -8.5830   20.5160 C   0  0  0  0  0  3  0  0  0  0  0  0
  -23.0640   -9.7040   20.3070 C   0  0  0  0  0  3  0  0  0  0  0  0
  -21.7840   -6.4540   21.4590 O   0  0  0  0  0  0  0  0  0  0  0  0
  -21.6800   -5.7060   22.6050 C   0  0  0  0  0  0  0  0  0  0  0  0
  -21.2140   -6.2530   23.8230 C   0  0  0  0  0  3  0  0  0  0  0  0
  -21.0590   -5.4310   24.9530 C   0  0  0  0  0  3  0  0  0  0  0  0
  -21.3560   -4.0590   24.8750 C   0  0  0  0  0  0  0  0  0  0  0  0
  -21.8060   -3.5040   23.6650 C   0  0  0  0  0  3  0  0  0  0  0  0
  -21.9630   -4.3240   22.5300 C   0  0  0  0  0  0  0  0  0  0  0  0
  -22.3700   -3.7750   21.3640 F   0  0  0  0  0  0  0  0  0  0  0  0
  -21.2070   -3.2690   25.9680 F   0  0  0  0  0  0  0  0  0  0  0  0
  -23.2400  -12.9180   21.2550 C   0  0  0  0  0  0  0  0  0  0  0  0
  -22.5740  -12.2380   22.1750 N   0  0  0  0  0  0  0  0  0  0  0  0
  -22.8010  -13.9470   20.7430 O   0  0  0  0  0  0  0  0  0  0  0  0
  -22.9760  -11.4140   22.5980 H   0  0  0  0  0  0  0  0  0  0  0  0
  -21.6580  -12.5470   22.4650 H   0  0  0  0  0  0  0  0  0  0  0  0
  -25.5560  -14.6750   20.2480 N   0  0  0  0  0  0  0  0  0  0  0  0
  -25.2090  -15.1230   21.0800 H   0  0  0  0  0  0  0  0  0  0  0  0
  -24.8100  -14.8820   19.5880 H   0  0  0  0  0  0  0  0  0  0  0  0
  -28.4420  -21.0760   18.9390 C   0  0  0  0  0  3  0  0  0  0  0  0
  -28.4460  -22.9740   19.3920 C   0  0  0  0  0  3  0  0  0  0  0  0
  -28.5290  -24.6610   18.8330 O   0  0  0  0  0  0  0  0  0  0  0  0
  -25.0280  -30.5860   22.3410 C   0  0  0  0  0  0  0  0  0  0  0  0
  -27.6410  -25.9120   18.9270 C   0  0  0  0  0  0  0  0  0  0  0  0
  -23.9220  -29.3390   20.5450 C   0  0  0  0  0  3  0  0  0  0  0  0
  -25.4310  -27.9370   18.9740 C   0  0  0  0  0  0  0  0  0  0  0  0
  -26.4930  -29.5880   20.4820 C   0  0  0  0  0  2  0  0  0  0  0  0
  -26.5990  -28.2350   19.6810 C   0  0  0  0  0  0  0  0  0  0  0  0
  -27.7120  -27.2540   19.6180 C   0  0  0  0  0  3  0  0  0  0  0  0
  -26.4780  -25.8520   18.1430 C   0  0  0  0  0  3  0  0  0  0  0  0
  -25.4150  -26.7910   18.1660 C   0  0  0  0  0  3  0  0  0  0  0  0
  -24.2000  -28.8350   19.1020 C   0  0  0  0  0  2  0  0  0  0  0  0
  -25.1720  -29.8680   21.1780 N   0  0  0  0  0  0  0  0  0  0  0  0
  -23.9170  -30.7800   22.8640 O   0  0  0  0  0  0  0  0  0  0  0  0
  -23.2530  -28.2100   21.3810 C   0  0  0  0  0  0  0  0  0  0  0  0
  -21.9270  -28.0330   21.2480 N   0  0  0  0  0  0  0  0  0  0  0  0
  -23.9390  -27.4990   22.1190 O   0  0  0  0  0  0  0  0  0  0  0  0
  -21.4230  -28.6610   20.6370 H   0  0  0  0  0  0  0  0  0  0  0  0
  -18.5620  -26.7630   21.7570 C   0  0  0  0  0  0  0  0  0  0  0  0
  -21.1350  -26.9820   21.9040 C   0  0  0  0  0  3  0  0  0  0  0  0
  -21.1850  -25.6660   21.0940 C   0  0  0  0  0  2  0  0  0  0  0  0
  -20.0200  -25.5180   20.1090 C   0  0  0  0  0  2  0  0  0  0  0  0
  -18.6830  -25.5500   20.8520 C   0  0  0  0  0  2  0  0  0  0  0  0
  -19.7110  -27.4470   22.2380 C   0  0  0  0  0  0  0  0  0  0  0  0
  -19.5380  -28.5870   23.0540 C   0  0  0  0  0  3  0  0  0  0  0  0
  -18.2500  -29.0450   23.3870 C   0  0  0  0  0  3  0  0  0  0  0  0
  -17.1170  -28.3610   22.9140 C   0  0  0  0  0  3  0  0  0  0  0  0
  -17.2740  -27.2200   22.1100 C   0  0  0  0  0  3  0  0  0  0  0  0
  -26.2530  -31.2180   23.0700 C   0  0  0  0  0  3  0  0  0  0  0  0
  -26.8530  -30.2810   24.1900 C   0  0  1  0  0  0  0  0  0  0  0  0
  -25.8110  -29.7940   25.2230 C   0  0  0  0  0  1  0  0  0  0  0  0
  -27.5080  -29.0260   23.5730 C   0  0  0  0  0  1  0  0  0  0  0  0
  -27.9740  -31.0290   24.9470 C   0  0  0  0  0  1  0  0  0  0  0  0
  -25.8170  -32.4990   23.6640 N   0  0  0  0  0  0  0  0  0  0  0  0
  -26.1740  -33.7140   23.2290 C   0  0  0  0  0  0  0  0  0  0  0  0
  -26.9620  -33.8770   22.2940 O   0  0  0  0  0  0  0  0  0  0  0  0
  -25.1250  -32.4380   24.3970 H   0  0  0  0  0  0  0  0  0  0  0  0
  -24.4550  -35.5510   23.0630 C   0  0  0  0  0  1  0  0  0  0  0  0
  -25.5650  -34.9460   23.9390 C   0  0  0  0  0  3  0  0  0  0  0  0
  -27.4730  -35.6020   25.3370 C   0  0  0  0  0  1  0  0  0  0  0  0
  -26.5590  -35.9910   24.2670 N   0  0  0  0  0  0  0  0  0  0  0  0
  -26.0970  -36.8530   24.5430 H   0  0  0  0  0  0  0  0  0  0  0  0
  1  2  2  0
  1 10  1  0
  2  5  1  0
  3  6  1  0
  3  1  1  0
  4  2  1  0
  8 12  1  0
  9 10  2  0
 10 12  1  0
 11 14  1  0
 11  9  1  0
 11  7  1  0
 12 13  1  0
 14 23  1  0
 15 22  2  0
 15 21  1  0
 16 21  1  0
 17 16  2  0
 18 17  1  0
 18 19  1  0
 19 28  1  0
 20  7  1  0
 20  8  1  0
 21 20  1  0
 23 15  1  0
 24 23  1  0
 25 26  2  0
 26 45  1  0
 27 26  1  0
 27 30  1  0
 28 29  1  0
 28 25  1  0
 29 27  1  0
 30 31  1  0
 31 32  2  0
 33 36  1  0
 33 32  1  0
 34 33  2  0
 35 34  1  0
 35 30  2  0
 36 37  1  0
 37 38  1  0
 38 39  2  0
 40 39  1  0
 40 44  1  0
 41 40  2  0
 42 37  2  0
 42 41  1  0
 43 42  1  0
 45 46  1  0
 46 49  1  0
 46 48  1  0
 47 45  2  0
 50 25  1  0
 50 51  1  0
 52 50  1  0
 53 54  2  0
 53  3  1  0
 55 57  1  0
 55 54  1  0
 56 67  2  0
 57 62  1  0
 58 66  1  0
 58 68  1  0
 59 65  1  0
 59 61  1  0
 60 66  1  0
 61 60  1  0
 62 61  2  0
 63 64  1  0
 63 57  2  0
 64 59  2  0
 65 58  1  0
 66 56  1  0
 68 70  2  0
 69 68  1  0
 71 69  1  0
 72 81  2  0
 72 77  1  0
 73 69  1  0
 73 77  1  0
 74 73  1  0
 75 76  1  0
 75 74  1  0
 76 72  1  0
 77 78  2  0
 78 79  1  0
 80 79  2  0
 81 80  1  0
 82 56  1  0
 82 87  1  0
 82 83  1  0
 83 86  1  1
 83 84  1  0
 85 83  1  0
 87 90  1  0
 88 87  1  0
 88 92  1  0
 89 88  2  0
 92 91  1  0
 92 94  1  0
 94 95  1  0
 94 93  1  0
M  ISO  4  15 100  23 100  54 101  55 101
M  END
>  <TORSDO>  (24) 
F 20

>  <SCORE>  (24) 
-5.849

>  <name>  (24) 
23

>  <ligand_id>  (24) 
23

>  <original_smiles>  (24) 
[H]c1c([H])c([H])c2c(c1[H])C([H])([H])C([H])([H])C([H])([H])C2([H])N([H])C(=O)C1([H])N(C(=O)C([H])(N([H])C(=O)C([H])(N([H])C([H])([H])[H])C([H])([H])[H])C(C([H])([H])[H])(C([H])([H])[H])C([H])([H])[H])C([H])([H])c2c([H])c(OC([H])([H])C([H])([H])[N+]([H])=C(c3c([H])c(C([H])([H])N([H])C(=O)N4C([H])([H])C([H])([H])C([H])([H])C([H])(n5nc(-c6c([H])c([H])c(Oc7c([H])c([H])c(F)c([H])c7F)c([H])c6[H])c(C(=O)N([H])[H])c5N([H])[H])C4([H])[H])c([H])c([H])c3C([H])([H])[H])N([H])[H])c([H])c([H])c2C1([H])[H]

>  <smiles>  (24) 
[H]c1c([H])c([H])c2c(c1[H])C([H])([H])C([H])([H])C([H])([H])C2([H])N([H])C(=O)C1([H])N(C(=O)C([H])(N([H])C(=O)C([H])(N([H])C([H])([H])[H])C([H])([H])[H])C(C([H])([H])[H])(C([H])([H])[H])C([H])([H])[H])C([H])([H])c2c([H])c(OC([H])([H])C([H])([H])[N+]([H])=C(c3c([H])c(C([H])([H])N([H])C(=O)N4C([H])([H])C([H])([H])C([H])([H])C([H])(n5nc(-c6c([H])c([H])c(Oc7c([H])c([H])c(F)c([H])c7F)c([H])c6[H])c(C(=O)N([H])[H])c5N([H])[H])C4([H])[H])c([H])c([H])c3C([H])([H])[H])N([H])[H])c([H])c([H])c2C1([H])[H]

$$$$
24:0:0
     RDKit          3D

 97106  0  0  1  0  0  0  0  0999 V2000
  -25.7650  -23.0210   19.9310 C   0  0  0  0  0  0  0  0  0  0  0  0
  -24.6800  -22.4620   20.5550 C   0  0  0  0  0  2  0  0  0  0  0  0
  -25.7370  -23.8690   18.6290 C   0  0  0  0  0  2  0  0  0  0  0  0
  -27.1360  -24.5560   18.3540 C   0  0  0  0  0  2  0  0  0  0  0  0
  -27.8900  -24.2880   20.7260 C   0  0  0  0  0  2  0  0  0  0  0  0
  -27.5190  -25.3520   19.6460 C   0  0  0  0  0  3  0  0  0  0  0  0
  -27.1880  -22.9540   20.4380 N   0  0  1  0  0  4  0  0  0  0  0  0
  -27.7120  -22.6330   19.6330 H   0  0  0  0  0  0  0  0  0  0  0  0
  -28.3040  -26.6230   19.4420 O   0  0  0  0  0  0  0  0  0  0  0  0
  -25.0880  -31.6950   23.4190 C   0  0  0  0  0  0  0  0  0  0  0  0
  -27.4680  -27.7320   19.4670 C   0  0  0  0  0  0  0  0  0  0  0  0
  -23.8350  -30.6250   21.6010 C   0  0  0  0  0  3  0  0  0  0  0  0
  -25.2200  -29.3980   19.8550 C   0  0  0  0  0  0  0  0  0  0  0  0
  -26.3900  -30.8960   21.4480 C   0  0  0  0  0  2  0  0  0  0  0  0
  -26.4100  -29.6800   20.5340 C   0  0  0  0  0  0  0  0  0  0  0  0
  -27.5510  -28.8360   20.3720 C   0  0  0  0  0  3  0  0  0  0  0  0
  -26.3470  -27.6890   18.6070 C   0  0  0  0  0  3  0  0  0  0  0  0
  -25.1840  -28.4020   18.8920 C   0  0  0  0  0  3  0  0  0  0  0  0
  -23.9940  -30.2330   20.1160 C   0  0  0  0  0  2  0  0  0  0  0  0
  -25.1230  -31.0810   22.2040 N   0  0  0  0  0  0  0  0  0  0  0  0
  -24.0090  -31.9110   23.9950 O   0  0  0  0  0  0  0  0  0  0  0  0
  -23.1680  -29.4580   22.3580 C   0  0  0  0  0  0  0  0  0  0  0  0
  -21.8390  -29.3460   22.2510 N   0  0  0  0  0  0  0  0  0  0  0  0
  -23.8440  -28.6660   23.0190 O   0  0  0  0  0  0  0  0  0  0  0  0
  -21.3500  -30.0600   21.7410 H   0  0  0  0  0  0  0  0  0  0  0  0
  -18.4190  -28.0830   22.4840 C   0  0  0  0  0  0  0  0  0  0  0  0
  -20.9980  -28.2390   22.7230 C   0  0  0  0  0  0  0  0  0  0  0  0
  -21.1430  -27.0560   21.7370 C   0  0  0  0  0  3  0  0  0  0  0  0
  -19.9010  -26.4980   21.0400 C   0  0  0  0  0  3  0  0  0  0  0  0
  -18.5140  -26.8670   21.5890 C   0  0  0  0  0  3  0  0  0  0  0  0
  -19.5760  -28.7260   23.0030 C   0  0  0  0  0  0  0  0  0  0  0  0
  -19.4050  -29.9100   23.7580 C   0  0  0  0  0  3  0  0  0  0  0  0
  -18.1180  -30.4470   24.0010 C   0  0  0  0  0  3  0  0  0  0  0  0
  -16.9840  -29.7880   23.5110 C   0  0  0  0  0  3  0  0  0  0  0  0
  -17.1280  -28.5790   22.7970 C   0  0  0  0  0  3  0  0  0  0  0  0
  -26.3940  -32.1560   24.1070 C   0  0  0  0  0  3  0  0  0  0  0  0
  -26.8950  -31.1520   25.2150 C   0  0  1  0  0  0  0  0  0  0  0  0
  -25.8070  -30.7700   26.2440 C   0  0  0  0  0  1  0  0  0  0  0  0
  -27.4500  -29.8460   24.5910 C   0  0  0  0  0  1  0  0  0  0  0  0
  -28.0610  -31.7860   26.0010 C   0  0  0  0  0  1  0  0  0  0  0  0
  -26.1230  -33.4740   24.6860 N   0  0  0  0  0  0  0  0  0  0  0  0
  -26.5030  -34.6400   24.1420 C   0  0  0  0  0  0  0  0  0  0  0  0
  -27.1880  -34.7160   23.1180 O   0  0  0  0  0  0  0  0  0  0  0  0
  -25.5100  -33.4980   25.4900 H   0  0  0  0  0  0  0  0  0  0  0  0
  -24.8480  -36.5430   24.0780 C   0  0  0  0  0  1  0  0  0  0  0  0
  -26.0370  -35.9350   24.8410 C   0  0  0  0  0  3  0  0  0  0  0  0
  -28.1540  -36.5590   25.9130 C   0  0  0  0  0  1  0  0  0  0  0  0
  -27.1070  -36.9450   24.9730 N   0  0  0  0  0  0  0  0  0  0  0  0
  -26.7160  -37.8280   25.2830 H   0  0  0  0  0  0  0  0  0  0  0  0
  -27.5460  -21.8530   21.3780 C   0  0  0  0  0  2  0  0  0  0  0  0
  -28.8460  -18.5880   19.7770 C   0  0  0  0  0  3  0  0  0  0  0  0
  -29.8330  -20.8770   21.0740 C   0  0  0  0  0  3  0  0  0  0  0  0
  -27.9930  -19.7110   19.9780 C   0  0  0  0  0  0  0  0  0  0  0  0
  -30.7170  -19.8300   20.7060 C   0  0  0  0  0  0  0  0  0  0  0  0
  -30.2020  -18.5990   20.1940 C   0  0  0  0  0  0  0  0  0  0  0  0
  -28.4510  -20.7880   20.7820 C   0  0  0  0  0  0  0  0  0  0  0  0
  -26.6980  -19.8130   19.1790 C   0  0  0  0  0  1  0  0  0  0  0  0
  -32.2030  -20.1500   20.7440 C   0  0  0  0  0  1  0  0  0  0  0  0
  -31.1110  -17.3640   19.9880 C   0  0  0  0  0  2  0  0  0  0  0  0
  -31.0980  -14.8790   19.8300 C   0  0  0  0  0  0  0  0  0  0  0  0
  -30.7630  -12.5980   18.9820 C   0  0  0  0  0  2  0  0  0  0  0  0
  -29.7940  -12.6150   17.7730 C   0  0  0  0  0  2  0  0  0  0  0  0
  -28.3330  -12.4920   18.2420 C   0  0  0  0  0  2  0  0  0  0  0  0
  -27.9900  -13.4780   19.3940 C   0  0  0  0  0  3  0  0  0  0  0  0
  -29.0830  -13.4670   20.4900 C   0  0  0  0  0  2  0  0  0  0  0  0
  -30.3910  -13.7190   19.8630 N   0  0  0  0  0  0  0  0  0  0  0  0
  -32.2090  -14.9280   19.2830 O   0  0  0  0  0  0  0  0  0  0  0  0
  -30.5240  -16.0240   20.2530 N   0  0  0  0  0  0  0  0  0  0  0  0
  -29.6290  -15.9720   20.7130 H   0  0  0  0  0  0  0  0  0  0  0  0
  -25.6830  -14.1160   20.2960 C   0  0  0  0  0  0  0  0  0  0  0  0
  -24.6220  -13.3700   20.7110 C   0  0  0  0  0  0  0  0  0  0  0  0
  -25.0230  -11.9980   20.5920 C   0  0  0  0  0  0  0  0  0  0  0  0
  -26.6720  -13.2130   19.9510 N   0  0  0  0  0  0  0  0  0  0  0  0
  -26.2810  -11.9330   20.1760 N   0  0  0  0  0  0  0  0  0  0  0  0
  -24.2740  -10.7550   20.7920 C   0  0  0  0  0  0  0  0  0  0  0  0
  -24.6610   -9.7850   21.7490 C   0  0  0  0  0  3  0  0  0  0  0  0
  -23.9090   -8.6010   21.9180 C   0  0  0  0  0  3  0  0  0  0  0  0
  -22.7480   -8.3760   21.1430 C   0  0  0  0  0  0  0  0  0  0  0  0
  -22.3770   -9.3360   20.1840 C   0  0  0  0  0  3  0  0  0  0  0  0
  -23.1270  -10.5140   20.0120 C   0  0  0  0  0  3  0  0  0  0  0  0
  -21.9530   -7.2610   21.2540 O   0  0  0  0  0  0  0  0  0  0  0  0
  -21.7970   -6.5950   22.4470 C   0  0  0  0  0  0  0  0  0  0  0  0
  -21.2620   -7.2270   23.5920 C   0  0  0  0  0  3  0  0  0  0  0  0
  -21.0570   -6.4900   24.7750 C   0  0  0  0  0  3  0  0  0  0  0  0
  -21.3670   -5.1180   24.8140 C   0  0  0  0  0  0  0  0  0  0  0  0
  -21.8690   -4.4780   23.6690 C   0  0  0  0  0  3  0  0  0  0  0  0
  -22.0910   -5.2170   22.4910 C   0  0  0  0  0  0  0  0  0  0  0  0
  -22.5740   -4.5910   21.3920 F   0  0  0  0  0  0  0  0  0  0  0  0
  -21.1570   -4.4070   25.9490 F   0  0  0  0  0  0  0  0  0  0  0  0
  -23.2620  -13.8810   21.0920 C   0  0  0  0  0  0  0  0  0  0  0  0
  -22.5760  -13.1920   21.9920 N   0  0  0  0  0  0  0  0  0  0  0  0
  -22.8310  -14.9390   20.6270 O   0  0  0  0  0  0  0  0  0  0  0  0
  -22.9460  -12.3430   22.3930 H   0  0  0  0  0  0  0  0  0  0  0  0
  -21.6580  -13.5050   22.2740 H   0  0  0  0  0  0  0  0  0  0  0  0
  -25.8850  -15.4940   20.1600 N   0  0  0  0  0  0  0  0  0  0  0  0
  -25.0930  -16.1080   20.2910 H   0  0  0  0  0  0  0  0  0  0  0  0
  -26.6750  -15.9770   19.7410 H   0  0  0  0  0  0  0  0  0  0  0  0
  1  7  1  0
  1  2  2  0
  3  1  1  0
  4  3  1  0
  4  6  1  0
  6  9  1  0
  6  5  1  0
  7  5  1  0
  7 50  1  0
  7  8  1  6
  9 11  1  0
 10 21  2  0
 11 16  1  0
 12 20  1  0
 12 22  1  0
 13 19  1  0
 13 15  1  0
 14 20  1  0
 15 14  1  0
 16 15  2  0
 17 18  1  0
 17 11  2  0
 18 13  2  0
 19 12  1  0
 20 10  1  0
 22 24  2  0
 23 22  1  0
 23 27  1  0
 25 23  1  0
 26 35  2  0
 26 31  1  0
 27 31  1  0
 28 27  2  0
 29 30  2  0
 29 28  1  0
 30 26  1  0
 31 32  2  0
 32 33  1  0
 34 33  2  0
 35 34  1  0
 36 10  1  0
 36 41  1  0
 36 37  1  0
 37 40  1  1
 37 38  1  0
 39 37  1  0
 41 44  1  0
 42 41  1  0
 42 46  1  0
 43 42  2  0
 46 45  1  0
 46 48  1  0
 48 49  1  0
 48 47  1  0
 51 53  2  0
 51 55  1  0
 53 56  1  0
 54 58  1  0
 54 52  1  0
 55 54  2  0
 56 52  2  0
 56 50  1  0
 57 53  1  0
 59 55  1  0
 59 68  1  0
 60 66  1  0
 60 68  1  0
 61 66  1  0
 62 63  1  0
 62 61  1  0
 64 63  1  0
 64 73  1  0
 64 65  1  0
 66 65  1  0
 67 60  2  0
 68 69  1  0
 70 71  2  0
 71 90  1  0
 72 71  1  0
 72 75  1  0
 73 74  1  0
 73 70  1  0
 74 72  2  0
 75 76  1  0
 76 77  2  0
 78 81  1  0
 78 77  1  0
 79 78  2  0
 80 79  1  0
 80 75  2  0
 81 82  1  0
 82 87  2  0
 82 83  1  0
 83 84  2  0
 84 85  1  0
 85 89  1  0
 86 85  2  0
 87 86  1  0
 88 87  1  0
 90 91  1  0
 91 94  1  0
 91 93  1  0
 92 90  2  0
 95 96  1  0
 95 70  1  0
 97 95  1  0
M  ISO  4   6 101   9 101  60 100  68 100
M  END
>  <TORSDO>  (25) 
F 19

>  <SCORE>  (25) 
-11.479

>  <name>  (25) 
24

>  <ligand_id>  (25) 
24

>  <original_smiles>  (25) 
[H]C([H])=C1C([H])([H])C([H])([H])C([H])(Oc2c([H])c([H])c3c(c2[H])C([H])([H])N(C(=O)C([H])(N([H])C(=O)C([H])(N([H])C([H])([H])[H])C([H])([H])[H])C(C([H])([H])[H])(C([H])([H])[H])C([H])([H])[H])C([H])(C(=O)N([H])C2([H])c4c([H])c([H])c([H])c([H])c4C([H])([H])C([H])([H])C2([H])[H])C3([H])[H])C([H])([H])[N+]1([H])C([H])([H])c1c([H])c(C([H])([H])[H])c(C([H])([H])N([H])C(=O)N2C([H])([H])C([H])([H])C([H])([H])C([H])(n3nc(-c4c([H])c([H])c(Oc5c([H])c([H])c(F)c([H])c5F)c([H])c4[H])c(C(=O)N([H])[H])c3N([H])[H])C2([H])[H])c([H])c1C([H])([H])[H]

>  <smiles>  (25) 
[H]C([H])=C1C([H])([H])C([H])([H])C([H])(Oc2c([H])c([H])c3c(c2[H])C([H])([H])N(C(=O)C([H])(N([H])C(=O)C([H])(N([H])C([H])([H])[H])C([H])([H])[H])C(C([H])([H])[H])(C([H])([H])[H])C([H])([H])[H])C([H])(C(=O)N([H])C2([H])c4c([H])c([H])c([H])c([H])c4C([H])([H])C([H])([H])C2([H])[H])C3([H])[H])C([H])([H])[N+]1([H])C([H])([H])c1c([H])c(C([H])([H])[H])c(C([H])([H])N([H])C(=O)N2C([H])([H])C([H])([H])C([H])([H])C([H])(n3nc(-c4c([H])c([H])c(Oc5c([H])c([H])c(F)c([H])c5F)c([H])c4[H])c(C(=O)N([H])[H])c3N([H])[H])C2([H])[H])c([H])c1C([H])([H])[H]

$$$$
25:0:0
     RDKit          3D

 92100  0  0  1  0  0  0  0  0999 V2000
  -30.4190  -21.7560   20.3340 C   0  0  0  0  0  2  0  0  0  0  0  0
  -29.0450  -19.5150   20.7150 C   0  0  0  0  0  3  0  0  0  0  0  0
  -28.9560  -18.0880   20.7710 C   0  0  0  0  0  3  0  0  0  0  0  0
  -31.2540  -17.8900   20.1250 C   0  0  0  0  0  3  0  0  0  0  0  0
  -30.2480  -20.1800   20.3670 C   0  0  0  0  0  0  0  0  0  0  0  0
  -31.3600  -19.3190   20.0810 C   0  0  0  0  0  0  0  0  0  0  0  0
  -30.0520  -17.2240   20.4790 C   0  0  0  0  0  0  0  0  0  0  0  0
  -32.7280  -19.9050   19.7510 C   0  0  0  0  0  1  0  0  0  0  0  0
  -30.6310  -14.6930   20.1360 C   0  0  0  0  0  0  0  0  0  0  0  0
  -30.3570  -12.4860   19.0180 C   0  0  0  0  0  2  0  0  0  0  0  0
  -29.3610  -12.6510   17.8490 C   0  0  0  0  0  2  0  0  0  0  0  0
  -27.9100  -12.4710   18.3370 C   0  0  0  0  0  2  0  0  0  0  0  0
  -27.6030  -13.2940   19.6160 C   0  0  0  0  0  3  0  0  0  0  0  0
  -28.7120  -13.1190   20.6800 C   0  0  0  0  0  2  0  0  0  0  0  0
  -29.9960  -13.4800   20.0540 N   0  0  0  0  0  0  0  0  0  0  0  0
  -31.7760  -14.8320   19.6940 O   0  0  0  0  0  0  0  0  0  0  0  0
  -29.8790  -15.7620   20.5660 N   0  0  0  0  0  0  0  0  0  0  0  0
  -28.9840  -15.4690   20.9310 H   0  0  0  0  0  0  0  0  0  0  0  0
  -25.2340  -13.8600   20.4350 C   0  0  0  0  0  0  0  0  0  0  0  0
  -24.1890  -13.0740   20.8310 C   0  0  0  0  0  0  0  0  0  0  0  0
  -24.6580  -11.7270   20.7640 C   0  0  0  0  0  0  0  0  0  0  0  0
  -26.2760  -12.9920   20.1480 N   0  0  0  0  0  0  0  0  0  0  0  0
  -25.9370  -11.7020   20.4070 N   0  0  0  0  0  0  0  0  0  0  0  0
  -23.9470  -10.4570   20.9650 C   0  0  0  0  0  0  0  0  0  0  0  0
  -24.3980   -9.4970   21.8970 C   0  0  0  0  0  3  0  0  0  0  0  0
  -23.6880   -8.2920   22.0860 C   0  0  0  0  0  3  0  0  0  0  0  0
  -22.5120   -8.0370   21.3420 C   0  0  0  0  0  0  0  0  0  0  0  0
  -22.0800   -8.9840   20.3990 C   0  0  0  0  0  3  0  0  0  0  0  0
  -22.7900  -10.1820   20.2080 C   0  0  0  0  0  3  0  0  0  0  0  0
  -21.7710   -6.8840   21.4410 O   0  0  0  0  0  0  0  0  0  0  0  0
  -21.7150   -6.1630   22.6060 C   0  0  0  0  0  0  0  0  0  0  0  0
  -21.2440   -6.7290   23.8100 C   0  0  0  0  0  3  0  0  0  0  0  0
  -21.1360   -5.9330   24.9690 C   0  0  0  0  0  3  0  0  0  0  0  0
  -21.4880   -4.5710   24.9230 C   0  0  0  0  0  0  0  0  0  0  0  0
  -21.9500   -4.0040   23.7220 C   0  0  0  0  0  3  0  0  0  0  0  0
  -22.0600   -4.7970   22.5670 C   0  0  0  0  0  0  0  0  0  0  0  0
  -22.4870   -4.2410   21.4080 F   0  0  0  0  0  0  0  0  0  0  0  0
  -21.3760   -3.8030   26.0310 F   0  0  0  0  0  0  0  0  0  0  0  0
  -22.7990  -13.5360   21.1630 C   0  0  0  0  0  0  0  0  0  0  0  0
  -22.1080  -12.8200   22.0430 N   0  0  0  0  0  0  0  0  0  0  0  0
  -22.3350  -14.5650   20.6740 O   0  0  0  0  0  0  0  0  0  0  0  0
  -22.4970  -11.9830   22.4550 H   0  0  0  0  0  0  0  0  0  0  0  0
  -21.1770  -13.1080   22.3060 H   0  0  0  0  0  0  0  0  0  0  0  0
  -25.3800  -15.2350   20.2720 N   0  0  0  0  0  0  0  0  0  0  0  0
  -24.6100  -15.8770   20.4260 H   0  0  0  0  0  0  0  0  0  0  0  0
  -26.2060  -15.6870   19.9000 H   0  0  0  0  0  0  0  0  0  0  0  0
  -29.3970  -24.1020   20.2550 C   0  0  0  0  0  0  0  0  0  0  0  0
  -29.2910  -22.7450   20.4660 N   0  0  0  0  0  0  0  0  0  0  0  0
  -30.4650  -24.5960   19.8810 O   0  0  0  0  0  0  0  0  0  0  0  0
  -28.3930  -22.3910   20.7710 H   0  0  0  0  0  0  0  0  0  0  0  0
  -28.1590  -25.0570   20.4840 C   0  0  0  0  0  2  0  0  0  0  0  0
  -28.3630  -26.5050   20.2060 O   0  0  0  0  0  0  0  0  0  0  0  0
  -24.5780  -31.8780   23.2170 C   0  0  0  0  0  0  0  0  0  0  0  0
  -27.2260  -27.3310   20.1800 C   0  0  0  0  0  0  0  0  0  0  0  0
  -23.3820  -30.4690   21.5790 C   0  0  0  0  0  3  0  0  0  0  0  0
  -24.8420  -28.9200   20.1640 C   0  0  0  0  0  0  0  0  0  0  0  0
  -25.9190  -30.8030   21.3950 C   0  0  0  0  0  2  0  0  0  0  0  0
  -26.0090  -29.4230   20.7540 C   0  0  0  0  0  0  0  0  0  0  0  0
  -27.2030  -28.6420   20.7480 C   0  0  0  0  0  3  0  0  0  0  0  0
  -26.0340  -26.8800   19.5660 C   0  0  0  0  0  3  0  0  0  0  0  0
  -24.8560  -27.6520   19.5630 C   0  0  0  0  0  3  0  0  0  0  0  0
  -23.6000  -29.7850   20.2040 C   0  0  0  0  0  2  0  0  0  0  0  0
  -24.6460  -31.0680   22.1190 N   0  0  0  0  0  0  0  0  0  0  0  0
  -23.4940  -32.1510   23.7510 O   0  0  0  0  0  0  0  0  0  0  0  0
  -22.7220  -29.4540   22.5430 C   0  0  0  0  0  0  0  0  0  0  0  0
  -21.3970  -29.2720   22.4150 N   0  0  0  0  0  0  0  0  0  0  0  0
  -23.4030  -28.8310   23.3620 O   0  0  0  0  0  0  0  0  0  0  0  0
  -20.9080  -29.8200   21.7220 H   0  0  0  0  0  0  0  0  0  0  0  0
  -18.0200  -28.0820   22.9250 C   0  0  0  0  0  0  0  0  0  0  0  0
  -20.5800  -28.3350   23.1890 C   0  0  0  0  0  3  0  0  0  0  0  0
  -20.6770  -26.9050   22.6080 C   0  0  0  0  0  2  0  0  0  0  0  0
  -19.5700  -26.5880   21.5970 C   0  0  0  0  0  2  0  0  0  0  0  0
  -18.1910  -26.7340   22.2460 C   0  0  0  0  0  2  0  0  0  0  0  0
  -19.1420  -28.8410   23.3530 C   0  0  0  0  0  0  0  0  0  0  0  0
  -18.9270  -30.1040   23.9460 C   0  0  0  0  0  3  0  0  0  0  0  0
  -17.6220  -30.6060   24.1190 C   0  0  0  0  0  3  0  0  0  0  0  0
  -16.5150  -29.8430   23.7080 C   0  0  0  0  0  3  0  0  0  0  0  0
  -16.7160  -28.5840   23.1160 C   0  0  0  0  0  3  0  0  0  0  0  0
  -25.8580  -32.5160   23.8390 C   0  0  0  0  0  3  0  0  0  0  0  0
  -26.3790  -31.7460   25.1130 C   0  0  1  0  0  0  0  0  0  0  0  0
  -25.2860  -31.4990   26.1790 C   0  0  0  0  0  1  0  0  0  0  0  0
  -26.9740  -30.3740   24.7200 C   0  0  0  0  0  1  0  0  0  0  0  0
  -27.5230  -32.5480   25.7790 C   0  0  0  0  0  1  0  0  0  0  0  0
  -25.5410  -33.9110   24.1720 N   0  0  0  0  0  0  0  0  0  0  0  0
  -25.8620  -34.9670   23.4140 C   0  0  0  0  0  0  0  0  0  0  0  0
  -26.5220  -34.8710   22.3750 O   0  0  0  0  0  0  0  0  0  0  0  0
  -24.9530  -34.0590   24.9790 H   0  0  0  0  0  0  0  0  0  0  0  0
  -24.1160  -36.7460   23.0740 C   0  0  0  0  0  1  0  0  0  0  0  0
  -25.3660  -36.3510   23.8770 C   0  0  0  0  0  3  0  0  0  0  0  0
  -27.5000  -37.2500   24.6930 C   0  0  0  0  0  1  0  0  0  0  0  0
  -26.3890  -37.4130   23.7600 N   0  0  0  0  0  0  0  0  0  0  0  0
  -25.9760  -38.3300   23.9140 H   0  0  0  0  0  0  0  0  0  0  0  0
  1  5  1  0
  1 48  1  0
  2  3  1  0
  4  7  1  0
  5  2  2  0
  6  4  2  0
  6  5  1  0
  7 17  1  0
  7  3  2  0
  8  6  1  0
  9 17  1  0
 10 15  1  0
 11 12  1  0
 11 10  1  0
 13 12  1  0
 13 22  1  0
 13 14  1  0
 15  9  1  0
 15 14  1  0
 16  9  2  0
 17 18  1  0
 19 20  2  0
 20 39  1  0
 21 20  1  0
 21 24  1  0
 22 23  1  0
 22 19  1  0
 23 21  2  0
 24 25  1  0
 25 26  2  0
 27 30  1  0
 27 26  1  0
 28 27  2  0
 29 28  1  0
 29 24  2  0
 30 31  1  0
 31 32  1  0
 32 33  2  0
 34 33  1  0
 34 38  1  0
 35 34  2  0
 36 31  2  0
 36 35  1  0
 37 36  1  0
 39 40  1  0
 40 43  1  0
 40 42  1  0
 41 39  2  0
 44 45  1  0
 44 19  1  0
 46 44  1  0
 47 48  1  0
 47 51  1  0
 48 50  1  0
 49 47  2  0
 52 51  1  0
 53 64  2  0
 54 52  1  0
 54 59  1  0
 55 63  1  0
 55 65  1  0
 56 62  1  0
 56 58  1  0
 57 63  1  0
 58 57  1  0
 59 58  2  0
 60 54  2  0
 61 60  1  0
 61 56  2  0
 62 55  1  0
 63 53  1  0
 65 67  2  0
 66 65  1  0
 68 66  1  0
 69 78  2  0
 69 74  1  0
 70 66  1  0
 70 74  1  0
 71 70  1  0
 72 73  1  0
 72 71  1  0
 73 69  1  0
 74 75  2  0
 75 76  1  0
 77 76  2  0
 78 77  1  0
 79 53  1  0
 79 84  1  0
 79 80  1  0
 80 83  1  1
 80 81  1  0
 82 80  1  0
 84 87  1  0
 85 89  1  0
 85 84  1  0
 86 85  2  0
 89 88  1  0
 91 89  1  0
 91 92  1  0
 91 90  1  0
M  ISO  4   9 100  17 100  51 101  52 101
M  END
>  <TORSDO>  (26) 
F 19

>  <SCORE>  (26) 
-14.162

>  <name>  (26) 
25

>  <ligand_id>  (26) 
25

>  <original_smiles>  (26) 
[H]c1c([H])c([H])c2c(c1[H])C([H])([H])C([H])([H])C([H])([H])C2([H])N([H])C(=O)C1([H])N(C(=O)C([H])(N([H])C(=O)C([H])(N([H])C([H])([H])[H])C([H])([H])[H])C(C([H])([H])[H])(C([H])([H])[H])C([H])([H])[H])C([H])([H])c2c([H])c(OC([H])([H])C(=O)N([H])C([H])([H])c3c([H])c([H])c(N([H])C(=O)N4C([H])([H])C([H])([H])C([H])([H])C([H])(n5nc(-c6c([H])c([H])c(Oc7c([H])c([H])c(F)c([H])c7F)c([H])c6[H])c(C(=O)N([H])[H])c5N([H])[H])C4([H])[H])c([H])c3C([H])([H])[H])c([H])c([H])c2C1([H])[H]

>  <smiles>  (26) 
[H]c1c([H])c([H])c2c(c1[H])C([H])([H])C([H])([H])C([H])([H])C2([H])N([H])C(=O)C1([H])N(C(=O)C([H])(N([H])C(=O)C([H])(N([H])C([H])([H])[H])C([H])([H])[H])C(C([H])([H])[H])(C([H])([H])[H])C([H])([H])[H])C([H])([H])c2c([H])c(OC([H])([H])C(=O)N([H])C([H])([H])c3c([H])c([H])c(N([H])C(=O)N4C([H])([H])C([H])([H])C([H])([H])C([H])(n5nc(-c6c([H])c([H])c(Oc7c([H])c([H])c(F)c([H])c7F)c([H])c6[H])c(C(=O)N([H])[H])c5N([H])[H])C4([H])[H])c([H])c3C([H])([H])[H])c([H])c([H])c2C1([H])[H]

$$$$
26:0:0
     RDKit          3D

100109  0  0  1  0  0  0  0  0999 V2000
  -28.6860  -22.8830   20.0960 C   0  0  0  0  0  0  0  0  0  0  0  0
  -27.5030  -22.5450   19.5180 C   0  0  0  0  0  3  0  0  0  0  0  0
  -29.7100  -23.5240   22.9160 C   0  0  0  0  0  2  0  0  0  0  0  0
  -28.9530  -22.1790   22.9040 C   0  0  0  0  0  2  0  0  0  0  0  0
  -29.0820  -24.5830   21.9850 C   0  0  0  0  0  2  0  0  0  0  0  0
  -29.4300  -21.1960   21.8150 C   0  0  0  0  0  2  0  0  0  0  0  0
  -29.1490  -24.3290   20.4560 C   0  0  0  0  0  3  0  0  0  0  0  0
  -29.7250  -21.8600   20.5170 N   0  0  1  0  0  4  0  0  0  0  0  0
  -30.5480  -22.3980   20.7420 H   0  0  0  0  0  0  0  0  0  0  0  0
  -26.9800  -21.2110   19.2760 C   0  0  0  0  0  3  0  0  0  0  0  0
  -26.0870  -20.9600   18.3050 C   0  0  0  0  0  3  0  0  0  0  0  0
  -25.5090  -19.5940   18.0040 C   0  0  0  0  0  1  0  0  0  0  0  0
  -30.2410  -20.9470   19.4380 C   0  0  0  0  0  2  0  0  0  0  0  0
  -33.2730  -18.8220   20.5020 C   0  0  0  0  0  3  0  0  0  0  0  0
  -32.4690  -19.9150   20.1300 C   0  0  0  0  0  3  0  0  0  0  0  0
  -32.7200  -17.5320   20.5900 C   0  0  0  0  0  3  0  0  0  0  0  0
  -31.0900  -19.7360   19.8800 C   0  0  0  0  0  0  0  0  0  0  0  0
  -31.3530  -17.3090   20.3000 C   0  0  0  0  0  0  0  0  0  0  0  0
  -30.5350  -18.4260   19.9820 C   0  0  0  0  0  0  0  0  0  0  0  0
  -29.2160  -18.2320   19.7370 F   0  0  0  0  0  0  0  0  0  0  0  0
  -31.4180  -14.8710   19.8650 C   0  0  0  0  0  0  0  0  0  0  0  0
  -31.0220  -12.6270   18.9190 C   0  0  0  0  0  2  0  0  0  0  0  0
  -30.0420  -12.7310   17.7350 C   0  0  0  0  0  2  0  0  0  0  0  0
  -28.5890  -12.6320   18.2320 C   0  0  0  0  0  2  0  0  0  0  0  0
  -28.2980  -13.5800   19.4270 C   0  0  0  0  0  3  0  0  0  0  0  0
  -29.3990  -13.4840   20.5100 C   0  0  0  0  0  2  0  0  0  0  0  0
  -30.6970  -13.7150   19.8570 N   0  0  0  0  0  0  0  0  0  0  0  0
  -32.5290  -14.9450   19.3350 O   0  0  0  0  0  0  0  0  0  0  0  0
  -30.8030  -15.9810   20.3300 N   0  0  0  0  0  0  0  0  0  0  0  0
  -29.8250  -15.8940   20.5620 H   0  0  0  0  0  0  0  0  0  0  0  0
  -25.9830  -14.2660   20.3090 C   0  0  0  0  0  0  0  0  0  0  0  0
  -24.9020  -13.5300   20.7150 C   0  0  0  0  0  0  0  0  0  0  0  0
  -25.2920  -12.1600   20.6040 C   0  0  0  0  0  0  0  0  0  0  0  0
  -26.9670  -13.3470   19.9810 N   0  0  0  0  0  0  0  0  0  0  0  0
  -26.5580  -12.0720   20.2160 N   0  0  0  0  0  0  0  0  0  0  0  0
  -24.5150  -10.9270   20.7910 C   0  0  0  0  0  0  0  0  0  0  0  0
  -24.8810   -9.9620   21.7560 C   0  0  0  0  0  3  0  0  0  0  0  0
  -24.1080   -8.7940   21.9300 C   0  0  0  0  0  3  0  0  0  0  0  0
  -22.9530   -8.5830   21.1380 C   0  0  0  0  0  0  0  0  0  0  0  0
  -22.6070   -9.5360   20.1640 C   0  0  0  0  0  3  0  0  0  0  0  0
  -23.3800  -10.6950   19.9890 C   0  0  0  0  0  3  0  0  0  0  0  0
  -22.1550   -7.4670   21.2200 O   0  0  0  0  0  0  0  0  0  0  0  0
  -21.9490   -6.8160   22.4100 C   0  0  0  0  0  0  0  0  0  0  0  0
  -21.3680   -7.4630   23.5220 C   0  0  0  0  0  3  0  0  0  0  0  0
  -21.1090   -6.7380   24.7020 C   0  0  0  0  0  3  0  0  0  0  0  0
  -21.4200   -5.3670   24.7690 C   0  0  0  0  0  0  0  0  0  0  0  0
  -21.9920   -4.7190   23.6600 C   0  0  0  0  0  3  0  0  0  0  0  0
  -22.2520   -5.4420   22.4830 C   0  0  0  0  0  0  0  0  0  0  0  0
  -22.7840   -4.8080   21.4100 F   0  0  0  0  0  0  0  0  0  0  0  0
  -21.1640   -4.6680   25.9000 F   0  0  0  0  0  0  0  0  0  0  0  0
  -23.5500  -14.0610   21.0930 C   0  0  0  0  0  0  0  0  0  0  0  0
  -22.8450  -13.3690   21.9810 N   0  0  0  0  0  0  0  0  0  0  0  0
  -23.1320  -15.1240   20.6370 O   0  0  0  0  0  0  0  0  0  0  0  0
  -23.1980  -12.5060   22.3680 H   0  0  0  0  0  0  0  0  0  0  0  0
  -21.9400  -13.7050   22.2760 H   0  0  0  0  0  0  0  0  0  0  0  0
  -26.2040  -15.6330   20.1720 N   0  0  0  0  0  0  0  0  0  0  0  0
  -25.4710  -16.3140   20.3420 H   0  0  0  0  0  0  0  0  0  0  0  0
  -27.0490  -16.0470   19.8010 H   0  0  0  0  0  0  0  0  0  0  0  0
  -28.2790  -25.4160   19.7460 C   0  0  0  0  0  2  0  0  0  0  0  0
  -28.5260  -26.8340   19.9700 O   0  0  0  0  0  0  0  0  0  0  0  0
  -24.6920  -31.9280   23.2000 C   0  0  0  0  0  0  0  0  0  0  0  0
  -27.3830  -27.6310   19.9240 C   0  0  0  0  0  0  0  0  0  0  0  0
  -23.4980  -30.5510   21.5340 C   0  0  0  0  0  3  0  0  0  0  0  0
  -24.9660  -29.1220   20.0170 C   0  0  0  0  0  0  0  0  0  0  0  0
  -26.0180  -30.9740   21.3140 C   0  0  0  0  0  2  0  0  0  0  0  0
  -26.1260  -29.6320   20.6150 C   0  0  0  0  0  0  0  0  0  0  0  0
  -27.3390  -28.8950   20.5700 C   0  0  0  0  0  3  0  0  0  0  0  0
  -26.2070  -27.1810   19.2730 C   0  0  0  0  0  3  0  0  0  0  0  0
  -25.0040  -27.8970   19.3400 C   0  0  0  0  0  3  0  0  0  0  0  0
  -23.7000  -29.9400   20.1260 C   0  0  0  0  0  2  0  0  0  0  0  0
  -24.7550  -31.1640   22.0730 N   0  0  0  0  0  0  0  0  0  0  0  0
  -23.6120  -32.1530   23.7630 O   0  0  0  0  0  0  0  0  0  0  0  0
  -22.8930  -29.4730   22.4650 C   0  0  0  0  0  0  0  0  0  0  0  0
  -21.5760  -29.2430   22.3370 N   0  0  0  0  0  0  0  0  0  0  0  0
  -23.6040  -28.8520   23.2580 O   0  0  0  0  0  0  0  0  0  0  0  0
  -21.0630  -29.7990   21.6670 H   0  0  0  0  0  0  0  0  0  0  0  0
  -18.2520  -27.9050   22.8130 C   0  0  0  0  0  0  0  0  0  0  0  0
  -20.7990  -28.2520   23.0820 C   0  0  0  0  0  3  0  0  0  0  0  0
  -20.9520  -26.8430   22.4640 C   0  0  0  0  0  2  0  0  0  0  0  0
  -19.8580  -26.5080   21.4460 C   0  0  0  0  0  2  0  0  0  0  0  0
  -18.4750  -26.5820   22.0980 C   0  0  0  0  0  2  0  0  0  0  0  0
  -19.3420  -28.6970   23.2600 C   0  0  0  0  0  0  0  0  0  0  0  0
  -19.0780  -29.9350   23.8850 C   0  0  0  0  0  3  0  0  0  0  0  0
  -17.7560  -30.3820   24.0680 C   0  0  0  0  0  3  0  0  0  0  0  0
  -16.6800  -29.5860   23.6410 C   0  0  0  0  0  3  0  0  0  0  0  0
  -16.9280  -28.3480   23.0190 C   0  0  0  0  0  3  0  0  0  0  0  0
  -25.9690  -32.5750   23.8190 C   0  0  0  0  0  3  0  0  0  0  0  0
  -26.5070  -31.7980   25.0840 C   0  0  1  0  0  0  0  0  0  0  0  0
  -25.4200  -31.5040   26.1430 C   0  0  0  0  0  1  0  0  0  0  0  0
  -27.1360  -30.4480   24.6680 C   0  0  0  0  0  1  0  0  0  0  0  0
  -27.6320  -32.6180   25.7610 C   0  0  0  0  0  1  0  0  0  0  0  0
  -25.6390  -33.9640   24.1650 N   0  0  0  0  0  0  0  0  0  0  0  0
  -25.9410  -35.0270   23.4090 C   0  0  0  0  0  0  0  0  0  0  0  0
  -26.6020  -34.9430   22.3690 O   0  0  0  0  0  0  0  0  0  0  0  0
  -25.0540  -34.1000   24.9760 H   0  0  0  0  0  0  0  0  0  0  0  0
  -24.1730  -36.7840   23.0890 C   0  0  0  0  0  1  0  0  0  0  0  0
  -25.4320  -36.4020   23.8820 C   0  0  0  0  0  3  0  0  0  0  0  0
  -27.5550  -37.3280   24.6990 C   0  0  0  0  0  1  0  0  0  0  0  0
  -26.4420  -37.4760   23.7630 N   0  0  0  0  0  0  0  0  0  0  0  0
  -26.0210  -38.3870   23.9150 H   0  0  0  0  0  0  0  0  0  0  0  0
  1  7  1  0
  1  8  1  0
  2  1  2  0
  4  3  1  0
  5  3  1  0
  6  4  1  0
  7 59  1  0
  7  5  1  0
  8  9  1  1
  8  6  1  0
 10  2  1  0
 11 10  2  0
 12 11  1  0
 13 17  1  0
 13  8  1  0
 14 16  1  0
 15 14  2  0
 17 19  2  0
 17 15  1  0
 18 29  1  0
 18 16  2  0
 19 18  1  0
 20 19  1  0
 21 29  1  0
 22 27  1  0
 23 24  1  0
 23 22  1  0
 25 24  1  0
 25 34  1  0
 25 26  1  0
 27 21  1  0
 27 26  1  0
 28 21  2  0
 29 30  1  0
 31 32  2  0
 32 51  1  0
 33 32  1  0
 33 36  1  0
 34 35  1  0
 34 31  1  0
 35 33  2  0
 36 37  1  0
 37 38  2  0
 39 42  1  0
 39 38  1  0
 40 39  2  0
 41 40  1  0
 41 36  2  0
 42 43  1  0
 43 48  2  0
 43 44  1  0
 44 45  2  0
 45 46  1  0
 46 50  1  0
 47 46  2  0
 48 47  1  0
 49 48  1  0
 51 52  1  0
 52 55  1  0
 52 54  1  0
 53 51  2  0
 56 31  1  0
 56 57  1  0
 58 56  1  0
 59 60  1  0
 61 72  2  0
 62 60  1  0
 62 67  1  0
 63 71  1  0
 63 73  1  0
 64 70  1  0
 64 66  1  0
 65 71  1  0
 66 65  1  0
 67 66  2  0
 68 69  1  0
 68 62  2  0
 69 64  2  0
 70 63  1  0
 71 61  1  0
 73 75  2  0
 74 73  1  0
 76 74  1  0
 77 86  2  0
 77 82  1  0
 78 74  1  0
 78 82  1  0
 79 78  1  0
 80 81  1  0
 80 79  1  0
 81 77  1  0
 82 83  2  0
 83 84  1  0
 85 84  2  0
 86 85  1  0
 87 61  1  0
 87 92  1  0
 87 88  1  0
 88 91  1  1
 88 89  1  0
 90 88  1  0
 92 95  1  0
 93 97  1  0
 93 92  1  0
 94 93  2  0
 97 96  1  0
 99 97  1  0
 99100  1  0
 99 98  1  0
M  ISO  4  21 100  29 100  59 101  60 101
M  END
>  <TORSDO>  (27) 
F 20

>  <SCORE>  (27) 
-12.467

>  <name>  (27) 
26

>  <ligand_id>  (27) 
26

>  <original_smiles>  (27) 
[H]C(C([H])=C1C([H])(C([H])([H])Oc2c([H])c([H])c3c(c2[H])C([H])([H])N(C(=O)C([H])(N([H])C(=O)C([H])(N([H])C([H])([H])[H])C([H])([H])[H])C(C([H])([H])[H])(C([H])([H])[H])C([H])([H])[H])C([H])(C(=O)N([H])C2([H])c4c([H])c([H])c([H])c([H])c4C([H])([H])C([H])([H])C2([H])[H])C3([H])[H])C([H])([H])C([H])([H])C([H])([H])C([H])([H])[N+]1([H])C([H])([H])c1c([H])c([H])c([H])c(N([H])C(=O)N2C([H])([H])C([H])([H])C([H])([H])C([H])(n3nc(-c4c([H])c([H])c(Oc5c([H])c([H])c(F)c([H])c5F)c([H])c4[H])c(C(=O)N([H])[H])c3N([H])[H])C2([H])[H])c1F)=C([H])C([H])([H])[H]

>  <smiles>  (27) 
[H]C(C([H])=C1C([H])(C([H])([H])Oc2c([H])c([H])c3c(c2[H])C([H])([H])N(C(=O)C([H])(N([H])C(=O)C([H])(N([H])C([H])([H])[H])C([H])([H])[H])C(C([H])([H])[H])(C([H])([H])[H])C([H])([H])[H])C([H])(C(=O)N([H])C2([H])c4c([H])c([H])c([H])c([H])c4C([H])([H])C([H])([H])C2([H])[H])C3([H])[H])C([H])([H])C([H])([H])C([H])([H])C([H])([H])[N+]1([H])C([H])([H])c1c([H])c([H])c([H])c(N([H])C(=O)N2C([H])([H])C([H])([H])C([H])([H])C([H])(n3nc(-c4c([H])c([H])c(Oc5c([H])c([H])c(F)c([H])c5F)c([H])c4[H])c(C(=O)N([H])[H])c3N([H])[H])C2([H])[H])c1F)=C([H])C([H])([H])[H]

$$$$
27:0:0
     RDKit          3D

 94102  0  0  1  0  0  0  0  0999 V2000
  -30.0100  -18.2220   19.6360 C   0  0  0  0  0  3  0  0  0  0  0  0
  -27.4900  -19.4510   19.6700 C   0  0  0  0  0  3  0  0  0  0  0  0
  -28.8840  -17.4420   19.9850 C   0  0  0  0  0  0  0  0  0  0  0  0
  -28.6080  -20.2200   19.2790 C   0  0  0  0  0  0  0  0  0  0  0  0
  -27.6180  -18.0850   20.0160 C   0  0  0  0  0  0  0  0  0  0  0  0
  -29.8820  -19.5910   19.2930 C   0  0  0  0  0  0  0  0  0  0  0  0
  -26.1870  -17.2130   20.4410 Cl  0  0  0  0  0  0  0  0  0  0  0  0
  -31.3100  -20.4570   18.8530 Cl  0  0  0  0  0  0  0  0  0  0  0  0
  -29.0030  -15.9240   20.2380 C   0  0  0  0  0  2  0  0  0  0  0  0
  -30.8080  -14.1740   19.6010 C   0  0  0  0  0  0  0  0  0  0  0  0
  -30.5930  -11.7610   19.1180 C   0  0  0  0  0  2  0  0  0  0  0  0
  -29.6090  -11.5170   17.9570 C   0  0  0  0  0  2  0  0  0  0  0  0
  -28.1610  -11.4180   18.4790 C   0  0  0  0  0  2  0  0  0  0  0  0
  -27.8040  -12.5790   19.4430 C   0  0  0  0  0  3  0  0  0  0  0  0
  -28.8990  -12.7550   20.5220 C   0  0  0  0  0  2  0  0  0  0  0  0
  -30.1730  -12.9850   19.8290 N   0  0  0  0  0  0  0  0  0  0  0  0
  -31.8730  -14.2260   18.9850 O   0  0  0  0  0  0  0  0  0  0  0  0
  -30.3490  -15.3280   20.1330 N   0  0  0  0  0  0  0  0  0  0  0  0
  -31.0680  -16.0350   20.1080 H   0  0  0  0  0  0  0  0  0  0  0  0
  -25.5400  -13.3620   20.3880 C   0  0  0  0  0  0  0  0  0  0  0  0
  -24.4510  -12.6660   20.8380 C   0  0  0  0  0  0  0  0  0  0  0  0
  -24.7940  -11.2830   20.7310 C   0  0  0  0  0  0  0  0  0  0  0  0
  -26.4820  -12.4050   20.0370 N   0  0  0  0  0  0  0  0  0  0  0  0
  -26.0410  -11.1510   20.3020 N   0  0  0  0  0  0  0  0  0  0  0  0
  -23.9880  -10.0770   20.9530 C   0  0  0  0  0  0  0  0  0  0  0  0
  -24.4090   -9.0580   21.8360 C   0  0  0  0  0  3  0  0  0  0  0  0
  -23.6070   -7.9150   22.0440 C   0  0  0  0  0  3  0  0  0  0  0  0
  -22.3710   -7.7840   21.3700 C   0  0  0  0  0  0  0  0  0  0  0  0
  -21.9680   -8.7900   20.4740 C   0  0  0  0  0  3  0  0  0  0  0  0
  -22.7690   -9.9240   20.2640 C   0  0  0  0  0  3  0  0  0  0  0  0
  -21.5380   -6.6980   21.4940 O   0  0  0  0  0  0  0  0  0  0  0  0
  -21.5180   -5.9330   22.6320 C   0  0  0  0  0  0  0  0  0  0  0  0
  -21.1760   -6.4770   23.8900 C   0  0  0  0  0  3  0  0  0  0  0  0
  -21.1020   -5.6410   25.0210 C   0  0  0  0  0  3  0  0  0  0  0  0
  -21.3560   -4.2620   24.8970 C   0  0  0  0  0  0  0  0  0  0  0  0
  -21.6910   -3.7170   23.6440 C   0  0  0  0  0  3  0  0  0  0  0  0
  -21.7690   -4.5510   22.5160 C   0  0  0  0  0  0  0  0  0  0  0  0
  -22.0730   -4.0180   21.3060 F   0  0  0  0  0  0  0  0  0  0  0  0
  -21.2760   -3.4560   25.9810 F   0  0  0  0  0  0  0  0  0  0  0  0
  -23.1290  -13.2460   21.2510 C   0  0  0  0  0  0  0  0  0  0  0  0
  -22.4320  -12.5990   22.1790 N   0  0  0  0  0  0  0  0  0  0  0  0
  -22.7260  -14.3120   20.7830 O   0  0  0  0  0  0  0  0  0  0  0  0
  -22.7690  -11.7380   22.5860 H   0  0  0  0  0  0  0  0  0  0  0  0
  -21.5500  -12.9780   22.4940 H   0  0  0  0  0  0  0  0  0  0  0  0
  -25.7980  -14.7210   20.2280 N   0  0  0  0  0  0  0  0  0  0  0  0
  -25.0930  -15.4220   20.4150 H   0  0  0  0  0  0  0  0  0  0  0  0
  -26.6240  -15.0990   19.7840 H   0  0  0  0  0  0  0  0  0  0  0  0
  -28.3940  -21.6440   18.7210 C   0  0  0  0  0  2  0  0  0  0  0  0
  -28.3790  -22.7590   19.7120 N   0  0  0  0  0  4  0  0  0  0  0  0
  -29.2960  -22.8270   20.1290 H   0  0  0  0  0  0  0  0  0  0  0  0
  -27.7320  -22.5180   20.4470 H   0  0  0  0  0  0  0  0  0  0  0  0
  -27.9990  -24.0860   19.1240 C   0  0  0  0  0  2  0  0  0  0  0  0
  -28.1410  -25.2970   20.0960 C   0  0  0  0  0  2  0  0  0  0  0  0
  -28.1450  -26.6040   19.4730 O   0  0  0  0  0  0  0  0  0  0  0  0
  -24.5210  -31.6530   22.9950 C   0  0  0  0  0  0  0  0  0  0  0  0
  -26.9910  -27.3550   19.5790 C   0  0  0  0  0  0  0  0  0  0  0  0
  -23.2410  -30.3650   21.3150 C   0  0  0  0  0  3  0  0  0  0  0  0
  -24.6240  -28.8970   19.7530 C   0  0  0  0  0  0  0  0  0  0  0  0
  -25.7610  -30.7060   21.0500 C   0  0  0  0  0  2  0  0  0  0  0  0
  -25.8080  -29.3710   20.3310 C   0  0  0  0  0  0  0  0  0  0  0  0
  -26.9970  -28.6080   20.2380 C   0  0  0  0  0  3  0  0  0  0  0  0
  -25.7950  -26.9050   18.9870 C   0  0  0  0  0  3  0  0  0  0  0  0
  -24.6130  -27.6640   19.0760 C   0  0  0  0  0  3  0  0  0  0  0  0
  -23.3950  -29.7670   19.8900 C   0  0  0  0  0  2  0  0  0  0  0  0
  -24.5280  -30.9190   21.8460 N   0  0  0  0  0  0  0  0  0  0  0  0
  -23.4630  -31.9030   23.5910 O   0  0  0  0  0  0  0  0  0  0  0  0
  -22.6110  -29.2940   22.2360 C   0  0  0  0  0  0  0  0  0  0  0  0
  -21.2800  -29.1450   22.1590 N   0  0  0  0  0  0  0  0  0  0  0  0
  -23.3170  -28.6050   22.9770 O   0  0  0  0  0  0  0  0  0  0  0  0
  -20.7710  -29.7580   21.5370 H   0  0  0  0  0  0  0  0  0  0  0  0
  -17.9060  -27.9820   22.7270 C   0  0  0  0  0  0  0  0  0  0  0  0
  -20.4790  -28.1690   22.8980 C   0  0  0  0  0  3  0  0  0  0  0  0
  -20.5220  -26.7790   22.2190 C   0  0  0  0  0  2  0  0  0  0  0  0
  -19.3680  -26.5480   21.2380 C   0  0  0  0  0  2  0  0  0  0  0  0
  -18.0200  -26.6780   21.9540 C   0  0  0  0  0  2  0  0  0  0  0  0
  -19.0600  -28.6890   23.1580 C   0  0  0  0  0  0  0  0  0  0  0  0
  -18.8980  -29.9130   23.8420 C   0  0  0  0  0  3  0  0  0  0  0  0
  -17.6130  -30.4280   24.1020 C   0  0  0  0  0  3  0  0  0  0  0  0
  -16.4740  -29.7140   23.6860 C   0  0  0  0  0  3  0  0  0  0  0  0
  -16.6220  -28.4940   23.0050 C   0  0  0  0  0  3  0  0  0  0  0  0
  -25.8360  -32.2320   23.6060 C   0  0  0  0  0  3  0  0  0  0  0  0
  -25.5670  -33.6200   24.0010 N   0  0  0  0  0  0  0  0  0  0  0  0
  -25.9190  -34.6970   23.2870 C   0  0  0  0  0  0  0  0  0  0  0  0
  -26.5770  -34.6240   22.2460 O   0  0  0  0  0  0  0  0  0  0  0  0
  -24.9860  -33.7540   24.8170 H   0  0  0  0  0  0  0  0  0  0  0  0
  -24.2290  -36.5430   23.0290 C   0  0  0  0  0  1  0  0  0  0  0  0
  -25.4680  -36.0750   23.8090 C   0  0  0  0  0  3  0  0  0  0  0  0
  -27.6260  -36.8770   24.6640 C   0  0  0  0  0  1  0  0  0  0  0  0
  -26.5240  -37.1070   23.7330 N   0  0  0  0  0  0  0  0  0  0  0  0
  -26.1400  -38.0290   23.9200 H   0  0  0  0  0  0  0  0  0  0  0  0
  -26.3710  -31.3980   24.8320 C   0  0  1  0  0  0  0  0  0  0  0  0
  -25.3110  -31.1520   25.9300 C   0  0  0  0  0  1  0  0  0  0  0  0
  -26.8960  -30.0200   24.3660 C   0  0  0  0  0  1  0  0  0  0  0  0
  -27.5660  -32.1320   25.4850 C   0  0  0  0  0  1  0  0  0  0  0  0
  1  3  1  0
  2  5  1  0
  3  5  2  0
  3  9  1  0
  4  6  1  0
  4  2  2  0
  5  7  1  0
  6  1  2  0
  8  6  1  0
 10 16  1  0
 10 18  1  0
 11 16  1  0
 12 13  1  0
 12 11  1  0
 14 13  1  0
 14 23  1  0
 14 15  1  0
 16 15  1  0
 17 10  2  0
 18  9  1  0
 19 18  1  0
 20 21  2  0
 21 40  1  0
 22 21  1  0
 22 25  1  0
 23 24  1  0
 23 20  1  0
 24 22  2  0
 25 26  1  0
 26 27  2  0
 28 31  1  0
 28 27  1  0
 29 28  2  0
 30 29  1  0
 30 25  2  0
 31 32  1  0
 32 33  1  0
 33 34  2  0
 35 34  1  0
 35 39  1  0
 36 35  2  0
 37 32  2  0
 37 36  1  0
 38 37  1  0
 40 41  1  0
 41 44  1  0
 41 43  1  0
 42 40  2  0
 45 20  1  0
 45 46  1  0
 47 45  1  0
 48  4  1  0
 48 49  1  0
 49 50  1  0
 49 51  1  0
 52 49  1  0
 52 53  1  0
 54 56  1  0
 54 53  1  0
 55 66  2  0
 56 61  1  0
 57 65  1  0
 57 67  1  0
 58 64  1  0
 58 60  1  0
 59 65  1  0
 60 59  1  0
 61 60  2  0
 62 63  1  0
 62 56  2  0
 63 58  2  0
 64 57  1  0
 65 55  1  0
 67 69  2  0
 68 67  1  0
 70 68  1  0
 71 80  2  0
 71 76  1  0
 72 68  1  0
 72 76  1  0
 73 72  1  0
 74 75  1  0
 74 73  1  0
 75 71  1  0
 76 77  2  0
 77 78  1  0
 79 78  2  0
 80 79  1  0
 81 55  1  0
 81 82  1  0
 81 91  1  0
 82 85  1  0
 83 87  1  0
 83 82  1  0
 84 83  2  0
 87 86  1  0
 89 87  1  0
 89 90  1  0
 89 88  1  0
 91 94  1  1
 91 92  1  0
 93 91  1  0
M  ISO  4  10 100  18 100  53 101  54 101
M  END
>  <TORSDO>  (28) 
F 21

>  <SCORE>  (28) 
-12.377

>  <name>  (28) 
27

>  <ligand_id>  (28) 
27

>  <original_smiles>  (28) 
[H]c1c([H])c([H])c2c(c1[H])C([H])([H])C([H])([H])C([H])([H])C2([H])N([H])C(=O)C1([H])N(C(=O)C([H])(N([H])C(=O)C([H])(N([H])C([H])([H])[H])C([H])([H])[H])C(C([H])([H])[H])(C([H])([H])[H])C([H])([H])[H])C([H])([H])c2c([H])c(OC([H])([H])C([H])([H])[N+]([H])([H])C([H])([H])c3c([H])c(Cl)c(C([H])([H])N([H])C(=O)N4C([H])([H])C([H])([H])C([H])([H])C([H])(n5nc(-c6c([H])c([H])c(Oc7c([H])c([H])c(F)c([H])c7F)c([H])c6[H])c(C(=O)N([H])[H])c5N([H])[H])C4([H])[H])c([H])c3Cl)c([H])c([H])c2C1([H])[H]

>  <smiles>  (28) 
[H]c1c([H])c([H])c2c(c1[H])C([H])([H])C([H])([H])C([H])([H])C2([H])N([H])C(=O)C1([H])N(C(=O)C([H])(N([H])C(=O)C([H])(N([H])C([H])([H])[H])C([H])([H])[H])C(C([H])([H])[H])(C([H])([H])[H])C([H])([H])[H])C([H])([H])c2c([H])c(OC([H])([H])C([H])([H])[N+]([H])([H])C([H])([H])c3c([H])c(Cl)c(C([H])([H])N([H])C(=O)N4C([H])([H])C([H])([H])C([H])([H])C([H])(n5nc(-c6c([H])c([H])c(Oc7c([H])c([H])c(F)c([H])c7F)c([H])c6[H])c(C(=O)N([H])[H])c5N([H])[H])C4([H])[H])c([H])c3Cl)c([H])c([H])c2C1([H])[H]

$$$$
28:0:0
     RDKit          3D

 96105  0  0  1  0  0  0  0  0999 V2000
  -28.2990  -23.3100   20.2710 C   0  0  0  0  0  0  0  0  0  0  0  0
  -29.0910  -24.4200   20.2530 C   0  0  0  0  0  3  0  0  0  0  0  0
  -26.8710  -23.2080   19.7460 C   0  0  0  0  0  2  0  0  0  0  0  0
  -26.2210  -22.0770   20.5480 C   0  0  0  0  0  2  0  0  0  0  0  0
  -27.3830  -21.1210   20.7860 C   0  0  0  0  0  2  0  0  0  0  0  0
  -28.5700  -21.9790   20.9800 N   0  0  1  0  0  4  0  0  0  0  0  0
  -28.5570  -22.1910   21.9690 H   0  0  0  0  0  0  0  0  0  0  0  0
  -29.8960  -21.2670   20.8360 C   0  0  0  0  0  2  0  0  0  0  0  0
  -30.1160  -18.4590   18.1860 C   0  0  0  0  0  3  0  0  0  0  0  0
  -30.1530  -18.6420   20.9650 C   0  0  0  0  0  3  0  0  0  0  0  0
  -29.9020  -19.7130   18.7800 C   0  0  0  0  0  0  0  0  0  0  0  0
  -30.3840  -17.3080   18.9450 C   0  0  0  0  0  0  0  0  0  0  0  0
  -29.9620  -19.8440   20.1910 C   0  0  0  0  0  0  0  0  0  0  0  0
  -30.3640  -17.3550   20.3650 C   0  0  0  0  0  0  0  0  0  0  0  0
  -29.6130  -20.8750   17.8400 C   0  0  0  0  0  1  0  0  0  0  0  0
  -30.6700  -16.0390   18.1800 C   0  0  0  0  0  1  0  0  0  0  0  0
  -31.1940  -15.0550   21.1740 C   0  0  0  0  0  0  0  0  0  0  0  0
  -31.1180  -12.7090   20.3710 C   0  0  0  0  0  2  0  0  0  0  0  0
  -30.3440  -12.6540   19.0320 C   0  0  0  0  0  2  0  0  0  0  0  0
  -28.8100  -12.6610   19.2320 C   0  0  0  0  0  2  0  0  0  0  0  0
  -28.3090  -13.6290   20.3430 C   0  0  0  0  0  3  0  0  0  0  0  0
  -29.2100  -13.5500   21.5960 C   0  0  0  0  0  2  0  0  0  0  0  0
  -30.5880  -13.8310   21.1670 N   0  0  0  0  0  0  0  0  0  0  0  0
  -32.4160  -15.1830   21.0400 O   0  0  0  0  0  0  0  0  0  0  0  0
  -30.3400  -16.1220   21.1510 N   0  0  0  0  0  0  0  0  0  0  0  0
  -29.4030  -15.8100   21.3510 H   0  0  0  0  0  0  0  0  0  0  0  0
  -25.8710  -14.3280   20.7610 C   0  0  0  0  0  0  0  0  0  0  0  0
  -24.7360  -13.5910   20.9860 C   0  0  0  0  0  0  0  0  0  0  0  0
  -25.1480  -12.2270   21.0020 C   0  0  0  0  0  0  0  0  0  0  0  0
  -26.9020  -13.4060   20.6580 N   0  0  0  0  0  0  0  0  0  0  0  0
  -26.4640  -12.1410   20.8700 N   0  0  0  0  0  0  0  0  0  0  0  0
  -24.3610  -10.9910   21.0830 C   0  0  0  0  0  0  0  0  0  0  0  0
  -24.6810   -9.9720   22.0070 C   0  0  0  0  0  3  0  0  0  0  0  0
  -23.8970   -8.8000   22.0780 C   0  0  0  0  0  3  0  0  0  0  0  0
  -22.7800   -8.6410   21.2260 C   0  0  0  0  0  0  0  0  0  0  0  0
  -22.4810   -9.6470   20.2920 C   0  0  0  0  0  3  0  0  0  0  0  0
  -23.2650  -10.8110   20.2160 C   0  0  0  0  0  3  0  0  0  0  0  0
  -21.9760   -7.5270   21.2120 O   0  0  0  0  0  0  0  0  0  0  0  0
  -21.8350   -6.7270   22.3170 C   0  0  0  0  0  0  0  0  0  0  0  0
  -21.3390   -7.2280   23.5420 C   0  0  0  0  0  3  0  0  0  0  0  0
  -21.1440   -6.3550   24.6310 C   0  0  0  0  0  3  0  0  0  0  0  0
  -21.4360   -4.9850   24.4980 C   0  0  0  0  0  0  0  0  0  0  0  0
  -21.9220   -4.4830   23.2780 C   0  0  0  0  0  3  0  0  0  0  0  0
  -22.1180   -5.3520   22.1910 C   0  0  0  0  0  0  0  0  0  0  0  0
  -22.5710   -4.8600   21.0100 F   0  0  0  0  0  0  0  0  0  0  0  0
  -21.2390   -4.1450   25.5410 F   0  0  0  0  0  0  0  0  0  0  0  0
  -23.3330  -14.1190   21.0780 C   0  0  0  0  0  0  0  0  0  0  0  0
  -22.4800  -13.4530   21.8540 N   0  0  0  0  0  0  0  0  0  0  0  0
  -22.9980  -15.1520   20.5030 O   0  0  0  0  0  0  0  0  0  0  0  0
  -22.7640  -12.6160   22.3410 H   0  0  0  0  0  0  0  0  0  0  0  0
  -21.5340  -13.7890   21.9560 H   0  0  0  0  0  0  0  0  0  0  0  0
  -26.0990  -15.6910   20.6160 N   0  0  0  0  0  0  0  0  0  0  0  0
  -25.3360  -16.3570   20.6360 H   0  0  0  0  0  0  0  0  0  0  0  0
  -26.9870  -16.1200   20.3770 H   0  0  0  0  0  0  0  0  0  0  0  0
  -28.8430  -25.7210   19.4540 C   0  0  0  0  0  2  0  0  0  0  0  0
  -28.6990  -26.9690   20.2030 O   0  0  0  0  0  0  0  0  0  0  0  0
  -24.6890  -32.0610   23.2810 C   0  0  0  0  0  0  0  0  0  0  0  0
  -27.5140  -27.7070   20.1540 C   0  0  0  0  0  0  0  0  0  0  0  0
  -23.5760  -30.6780   21.5690 C   0  0  0  0  0  3  0  0  0  0  0  0
  -25.0990  -29.2120   20.1460 C   0  0  0  0  0  0  0  0  0  0  0  0
  -26.1040  -31.0800   21.4620 C   0  0  0  0  0  2  0  0  0  0  0  0
  -26.2320  -29.7250   20.7850 C   0  0  0  0  0  0  0  0  0  0  0  0
  -27.4410  -28.9800   20.7850 C   0  0  0  0  0  3  0  0  0  0  0  0
  -26.3400  -27.2200   19.5290 C   0  0  0  0  0  3  0  0  0  0  0  0
  -25.1440  -27.9580   19.5210 C   0  0  0  0  0  3  0  0  0  0  0  0
  -23.8400  -30.0450   20.1800 C   0  0  0  0  0  2  0  0  0  0  0  0
  -24.8090  -31.2880   22.1630 N   0  0  0  0  0  0  0  0  0  0  0  0
  -23.5820  -32.2890   23.7910 O   0  0  0  0  0  0  0  0  0  0  0  0
  -22.9170  -29.6120   22.4760 C   0  0  0  0  0  0  0  0  0  0  0  0
  -21.6030  -29.4030   22.2930 N   0  0  0  0  0  0  0  0  0  0  0  0
  -23.5860  -28.9770   23.2970 O   0  0  0  0  0  0  0  0  0  0  0  0
  -21.1240  -29.9660   21.6030 H   0  0  0  0  0  0  0  0  0  0  0  0
  -18.2450  -28.1180   22.6740 C   0  0  0  0  0  0  0  0  0  0  0  0
  -20.7890  -28.4220   23.0080 C   0  0  0  0  0  3  0  0  0  0  0  0
  -20.9380  -27.0170   22.3870 C   0  0  0  0  0  2  0  0  0  0  0  0
  -19.8690  -26.7020   21.3370 C   0  0  0  0  0  2  0  0  0  0  0  0
  -18.4700  -26.7970   21.9530 C   0  0  0  0  0  2  0  0  0  0  0  0
  -19.3380  -28.8870   23.1560 C   0  0  0  0  0  0  0  0  0  0  0  0
  -19.0810  -30.1210   23.7920 C   0  0  0  0  0  3  0  0  0  0  0  0
  -17.7640  -30.5900   23.9490 C   0  0  0  0  0  3  0  0  0  0  0  0
  -16.6850  -29.8180   23.4830 C   0  0  0  0  0  3  0  0  0  0  0  0
  -16.9260  -28.5840   22.8530 C   0  0  0  0  0  3  0  0  0  0  0  0
  -25.9330  -32.7130   23.9640 C   0  0  0  0  0  3  0  0  0  0  0  0
  -26.3910  -31.9530   25.2680 C   0  0  1  0  0  0  0  0  0  0  0  0
  -25.2450  -31.7050   26.2780 C   0  0  0  0  0  1  0  0  0  0  0  0
  -27.0090  -30.5800   24.9150 C   0  0  0  0  0  1  0  0  0  0  0  0
  -27.5010  -32.7640   25.9800 C   0  0  0  0  0  1  0  0  0  0  0  0
  -25.5880  -34.1060   24.2670 N   0  0  0  0  0  0  0  0  0  0  0  0
  -25.9800  -35.1610   23.5390 C   0  0  0  0  0  0  0  0  0  0  0  0
  -26.7360  -35.0620   22.5710 O   0  0  0  0  0  0  0  0  0  0  0  0
  -24.9270  -34.2580   25.0150 H   0  0  0  0  0  0  0  0  0  0  0  0
  -24.2890  -36.9510   23.0260 C   0  0  0  0  0  1  0  0  0  0  0  0
  -25.4480  -36.5470   23.9510 C   0  0  0  0  0  3  0  0  0  0  0  0
  -27.4940  -37.4260   24.9910 C   0  0  0  0  0  1  0  0  0  0  0  0
  -26.4880  -37.6000   23.9450 N   0  0  0  0  0  0  0  0  0  0  0  0
  -26.0730  -38.5200   24.0550 H   0  0  0  0  0  0  0  0  0  0  0  0
  1  6  1  0
  2  1  2  0
  3  1  1  0
  3  4  1  0
  4  5  1  0
  5  6  1  0
  6  7  1  1
  8  6  1  0
  9 11  2  0
  9 12  1  0
 11 13  1  0
 12 14  2  0
 13  8  1  0
 13 10  2  0
 14 10  1  0
 14 25  1  0
 15 11  1  0
 16 12  1  0
 18 23  1  0
 19 20  1  0
 19 18  1  0
 21 20  1  0
 21 30  1  0
 21 22  1  0
 23 17  1  0
 23 22  1  0
 24 17  2  0
 25 17  1  0
 25 26  1  0
 27 28  2  0
 28 29  1  0
 28 47  1  0
 29 32  1  0
 30 27  1  0
 30 31  1  0
 31 29  2  0
 32 33  1  0
 33 34  2  0
 35 34  1  0
 36 35  2  0
 37 36  1  0
 37 32  2  0
 38 35  1  0
 38 39  1  0
 39 40  1  0
 40 41  2  0
 42 41  1  0
 42 46  1  0
 43 42  2  0
 44 39  2  0
 44 43  1  0
 45 44  1  0
 47 48  1  0
 48 51  1  0
 48 50  1  0
 49 47  2  0
 52 53  1  0
 52 27  1  0
 54 52  1  0
 55 56  1  0
 55  2  1  0
 57 68  2  0
 58 56  1  0
 58 63  1  0
 59 67  1  0
 59 69  1  0
 60 66  1  0
 60 62  1  0
 61 67  1  0
 62 61  1  0
 63 62  2  0
 64 58  2  0
 65 64  1  0
 65 60  2  0
 66 59  1  0
 67 57  1  0
 69 71  2  0
 70 69  1  0
 72 70  1  0
 73 82  2  0
 73 78  1  0
 74 70  1  0
 74 78  1  0
 75 74  1  0
 76 77  1  0
 76 75  1  0
 77 73  1  0
 78 79  2  0
 79 80  1  0
 81 80  2  0
 82 81  1  0
 83 57  1  0
 83 88  1  0
 83 84  1  0
 84 87  1  1
 84 85  1  0
 86 84  1  0
 88 91  1  0
 89 93  1  0
 89 88  1  0
 90 89  2  0
 93 92  1  0
 95 93  1  0
 95 96  1  0
 95 94  1  0
M  ISO  4  17 100  25 100  55 101  56 101
M  END
>  <TORSDO>  (29) 
F 19

>  <SCORE>  (29) 
-11.397

>  <name>  (29) 
28

>  <ligand_id>  (29) 
28

>  <original_smiles>  (29) 
[H]C(=C1C([H])([H])C([H])([H])C([H])([H])[N+]1([H])C([H])([H])c1c([H])c(N([H])C(=O)N2C([H])([H])C([H])([H])C([H])([H])C([H])(n3nc(-c4c([H])c([H])c(Oc5c([H])c([H])c(F)c([H])c5F)c([H])c4[H])c(C(=O)N([H])[H])c3N([H])[H])C2([H])[H])c(C([H])([H])[H])c([H])c1C([H])([H])[H])C([H])([H])Oc1c([H])c([H])c2c(c1[H])C([H])([H])N(C(=O)C([H])(N([H])C(=O)C([H])(N([H])C([H])([H])[H])C([H])([H])[H])C(C([H])([H])[H])(C([H])([H])[H])C([H])([H])[H])C([H])(C(=O)N([H])C1([H])c3c([H])c([H])c([H])c([H])c3C([H])([H])C([H])([H])C1([H])[H])C2([H])[H]

>  <smiles>  (29) 
[H]C(=C1C([H])([H])C([H])([H])C([H])([H])[N+]1([H])C([H])([H])c1c([H])c(N([H])C(=O)N2C([H])([H])C([H])([H])C([H])([H])C([H])(n3nc(-c4c([H])c([H])c(Oc5c([H])c([H])c(F)c([H])c5F)c([H])c4[H])c(C(=O)N([H])[H])c3N([H])[H])C2([H])[H])c(C([H])([H])[H])c([H])c1C([H])([H])[H])C([H])([H])Oc1c([H])c([H])c2c(c1[H])C([H])([H])N(C(=O)C([H])(N([H])C(=O)C([H])(N([H])C([H])([H])[H])C([H])([H])[H])C(C([H])([H])[H])(C([H])([H])[H])C([H])([H])[H])C([H])(C(=O)N([H])C1([H])c3c([H])c([H])c([H])c([H])c3C([H])([H])C([H])([H])C1([H])[H])C2([H])[H]

$$$$
29:0:0
     RDKit          3D

100109  0  0  1  0  0  0  0  0999 V2000
  -29.8470  -23.2680   21.1280 C   0  0  0  0  0  0  0  0  0  0  0  0
  -29.4840  -23.5110   22.4040 C   0  0  0  0  0  3  0  0  0  0  0  0
  -32.2760  -24.2650   19.3050 C   0  0  0  0  0  2  0  0  0  0  0  0
  -32.6410  -23.0410   20.1660 C   0  0  0  0  0  2  0  0  0  0  0  0
  -31.0710  -25.0870   19.8000 C   0  0  0  0  0  2  0  0  0  0  0  0
  -31.6840  -21.8520   19.9450 C   0  0  0  0  0  2  0  0  0  0  0  0
  -29.7550  -24.3030   19.9700 C   0  0  0  0  0  3  0  0  0  0  0  0
  -30.4380  -21.9000   20.7580 N   0  0  2  0  0  4  0  0  0  0  0  0
  -30.8390  -21.5950   21.6340 H   0  0  0  0  0  0  0  0  0  0  0  0
  -30.3580  -23.1500   24.7740 C   0  0  0  0  0  1  0  0  0  0  0  0
  -29.6010  -22.5490   23.5810 C   0  0  0  0  0  2  0  0  0  0  0  0
  -29.4650  -20.7580   20.5660 C   0  0  0  0  0  2  0  0  0  0  0  0
  -30.4170  -18.0460   17.9760 C   0  0  0  0  0  3  0  0  0  0  0  0
  -30.0840  -18.2300   20.7360 C   0  0  0  0  0  3  0  0  0  0  0  0
  -30.0740  -19.2930   18.5270 C   0  0  0  0  0  0  0  0  0  0  0  0
  -30.5690  -16.8920   18.7660 C   0  0  0  0  0  0  0  0  0  0  0  0
  -29.9340  -19.4130   19.9360 C   0  0  0  0  0  0  0  0  0  0  0  0
  -30.3910  -16.9480   20.1790 C   0  0  0  0  0  0  0  0  0  0  0  0
  -29.8140  -20.4390   17.5480 C   0  0  0  0  0  1  0  0  0  0  0  0
  -30.8580  -15.6100   18.0150 C   0  0  0  0  0  1  0  0  0  0  0  0
  -31.1350  -14.6410   20.9810 C   0  0  0  0  0  0  0  0  0  0  0  0
  -31.0240  -12.2640   20.3100 C   0  0  0  0  0  2  0  0  0  0  0  0
  -30.2890  -12.1780   18.9530 C   0  0  0  0  0  2  0  0  0  0  0  0
  -28.7500  -12.2000   19.1220 C   0  0  0  0  0  2  0  0  0  0  0  0
  -28.2340  -13.2170   20.1790 C   0  0  0  0  0  3  0  0  0  0  0  0
  -29.1060  -13.2070   21.4530 C   0  0  0  0  0  2  0  0  0  0  0  0
  -30.5010  -13.4320   21.0400 N   0  0  0  0  0  0  0  0  0  0  0  0
  -32.3480  -14.7280   20.7600 O   0  0  0  0  0  0  0  0  0  0  0  0
  -30.3370  -15.7470   21.0070 N   0  0  0  0  0  0  0  0  0  0  0  0
  -29.4410  -15.5880   21.4440 H   0  0  0  0  0  0  0  0  0  0  0  0
  -25.8070  -13.9580   20.5890 C   0  0  0  0  0  0  0  0  0  0  0  0
  -24.6580  -13.2520   20.8170 C   0  0  0  0  0  0  0  0  0  0  0  0
  -25.0370  -11.8760   20.8350 C   0  0  0  0  0  0  0  0  0  0  0  0
  -26.8200  -13.0150   20.4860 N   0  0  0  0  0  0  0  0  0  0  0  0
  -26.3520  -11.7590   20.6930 N   0  0  0  0  0  0  0  0  0  0  0  0
  -24.2170  -10.6610   20.9270 C   0  0  0  0  0  0  0  0  0  0  0  0
  -24.5190   -9.6380   21.8510 C   0  0  0  0  0  3  0  0  0  0  0  0
  -23.7130   -8.4820   21.9320 C   0  0  0  0  0  3  0  0  0  0  0  0
  -22.5880   -8.3420   21.0840 C   0  0  0  0  0  0  0  0  0  0  0  0
  -22.3050   -9.3540   20.1480 C   0  0  0  0  0  3  0  0  0  0  0  0
  -23.1120  -10.5000   20.0670 C   0  0  0  0  0  3  0  0  0  0  0  0
  -21.7590   -7.2470   21.0780 O   0  0  0  0  0  0  0  0  0  0  0  0
  -21.6160   -6.4430   22.1810 C   0  0  0  0  0  0  0  0  0  0  0  0
  -21.0810   -6.9280   23.3940 C   0  0  0  0  0  3  0  0  0  0  0  0
  -20.8880   -6.0480   24.4790 C   0  0  0  0  0  3  0  0  0  0  0  0
  -21.2210   -4.6870   24.3500 C   0  0  0  0  0  0  0  0  0  0  0  0
  -21.7480   -4.2010   23.1410 C   0  0  0  0  0  3  0  0  0  0  0  0
  -21.9410   -5.0780   22.0590 C   0  0  0  0  0  0  0  0  0  0  0  0
  -22.4310   -4.6000   20.8900 F   0  0  0  0  0  0  0  0  0  0  0  0
  -21.0270   -3.8420   25.3890 F   0  0  0  0  0  0  0  0  0  0  0  0
  -23.2670  -13.8110   20.9160 C   0  0  0  0  0  0  0  0  0  0  0  0
  -22.4030  -13.1770   21.7040 N   0  0  0  0  0  0  0  0  0  0  0  0
  -22.9520  -14.8440   20.3280 O   0  0  0  0  0  0  0  0  0  0  0  0
  -22.6660  -12.3380   22.1990 H   0  0  0  0  0  0  0  0  0  0  0  0
  -21.4620  -13.5320   21.8080 H   0  0  0  0  0  0  0  0  0  0  0  0
  -26.0800  -15.3160   20.4450 N   0  0  0  0  0  0  0  0  0  0  0  0
  -25.3530  -16.0230   20.4650 H   0  0  0  0  0  0  0  0  0  0  0  0
  -26.9970  -15.6980   20.2480 H   0  0  0  0  0  0  0  0  0  0  0  0
  -28.4940  -25.2730   19.9620 C   0  0  0  0  0  2  0  0  0  0  0  0
  -28.6030  -26.6790   20.3690 O   0  0  0  0  0  0  0  0  0  0  0  0
  -24.7560  -31.8910   23.4640 C   0  0  0  0  0  0  0  0  0  0  0  0
  -27.4570  -27.4860   20.2990 C   0  0  0  0  0  0  0  0  0  0  0  0
  -23.5930  -30.5860   21.7190 C   0  0  0  0  0  3  0  0  0  0  0  0
  -25.0830  -29.0890   20.2700 C   0  0  0  0  0  0  0  0  0  0  0  0
  -26.1420  -30.8890   21.6390 C   0  0  0  0  0  2  0  0  0  0  0  0
  -26.2310  -29.5480   20.9290 C   0  0  0  0  0  0  0  0  0  0  0  0
  -27.4190  -28.7630   20.9280 C   0  0  0  0  0  3  0  0  0  0  0  0
  -26.2830  -27.0660   19.6250 C   0  0  0  0  0  3  0  0  0  0  0  0
  -25.1140  -27.8530   19.6020 C   0  0  0  0  0  3  0  0  0  0  0  0
  -23.8460  -29.9680   20.3170 C   0  0  0  0  0  2  0  0  0  0  0  0
  -24.8470  -31.1390   22.3300 N   0  0  0  0  0  0  0  0  0  0  0  0
  -23.6580  -32.1550   23.9740 O   0  0  0  0  0  0  0  0  0  0  0  0
  -22.8910  -29.5340   22.6090 C   0  0  0  0  0  0  0  0  0  0  0  0
  -21.5560  -29.4330   22.4810 N   0  0  0  0  0  0  0  0  0  0  0  0
  -23.5440  -28.8150   23.3700 O   0  0  0  0  0  0  0  0  0  0  0  0
  -21.0950  -30.0670   21.8430 H   0  0  0  0  0  0  0  0  0  0  0  0
  -18.1150  -28.4250   22.9800 C   0  0  0  0  0  0  0  0  0  0  0  0
  -20.6930  -28.4840   23.1870 C   0  0  0  0  0  3  0  0  0  0  0  0
  -20.6750  -27.1090   22.4800 C   0  0  0  0  0  2  0  0  0  0  0  0
  -19.5260  -26.9590   21.4780 C   0  0  0  0  0  2  0  0  0  0  0  0
  -18.1760  -27.1360   22.1780 C   0  0  0  0  0  2  0  0  0  0  0  0
  -19.2970  -29.0650   23.4410 C   0  0  0  0  0  0  0  0  0  0  0  0
  -19.1840  -30.2760   24.1550 C   0  0  0  0  0  3  0  0  0  0  0  0
  -17.9240  -30.8470   24.4110 C   0  0  0  0  0  3  0  0  0  0  0  0
  -16.7570  -30.2030   23.9650 C   0  0  0  0  0  3  0  0  0  0  0  0
  -16.8540  -28.9920   23.2560 C   0  0  0  0  0  3  0  0  0  0  0  0
  -26.0240  -32.4740   24.1640 C   0  0  0  0  0  3  0  0  0  0  0  0
  -26.4400  -31.6790   25.4630 C   0  0  1  0  0  0  0  0  0  0  0  0
  -25.2810  -31.4740   26.4640 C   0  0  0  0  0  1  0  0  0  0  0  0
  -27.0080  -30.2850   25.1030 C   0  0  0  0  0  1  0  0  0  0  0  0
  -27.5710  -32.4390   26.1980 C   0  0  0  0  0  1  0  0  0  0  0  0
  -25.7390  -33.8800   24.4840 N   0  0  0  0  0  0  0  0  0  0  0  0
  -26.1720  -34.9270   23.7700 C   0  0  0  0  0  0  0  0  0  0  0  0
  -26.9200  -34.8100   22.7960 O   0  0  0  0  0  0  0  0  0  0  0  0
  -25.0830  -34.0450   25.2330 H   0  0  0  0  0  0  0  0  0  0  0  0
  -24.5850  -36.8160   23.2660 C   0  0  0  0  0  1  0  0  0  0  0  0
  -25.7010  -36.3290   24.2050 C   0  0  0  0  0  3  0  0  0  0  0  0
  -27.7490  -37.1020   25.3200 C   0  0  0  0  0  1  0  0  0  0  0  0
  -26.7910  -37.3300   24.2420 N   0  0  0  0  0  0  0  0  0  0  0  0
  -26.4150  -38.2690   24.3400 H   0  0  0  0  0  0  0  0  0  0  0  0
  1  2  2  0
  2 11  1  0
  3  5  1  0
  3  4  1  0
  5  7  1  0
  6  4  1  0
  6  8  1  0
  7 59  1  0
  7  1  1  0
  8  1  1  0
  8  9  1  1
 11 10  1  0
 12  8  1  0
 13 15  2  0
 13 16  1  0
 15 17  1  0
 16 18  2  0
 17 12  1  0
 17 14  2  0
 18 14  1  0
 18 29  1  0
 19 15  1  0
 20 16  1  0
 21 29  1  0
 21 27  1  0
 22 27  1  0
 23 24  1  0
 23 22  1  0
 25 24  1  0
 25 34  1  0
 25 26  1  0
 27 26  1  0
 28 21  2  0
 29 30  1  0
 31 32  2  0
 32 33  1  0
 32 51  1  0
 33 36  1  0
 34 31  1  0
 34 35  1  0
 35 33  2  0
 36 37  1  0
 37 38  2  0
 39 38  1  0
 40 39  2  0
 41 40  1  0
 41 36  2  0
 42 39  1  0
 42 43  1  0
 43 44  1  0
 44 45  2  0
 46 45  1  0
 46 50  1  0
 47 46  2  0
 48 43  2  0
 48 47  1  0
 49 48  1  0
 51 52  1  0
 52 55  1  0
 52 54  1  0
 53 51  2  0
 56 57  1  0
 56 31  1  0
 58 56  1  0
 59 60  1  0
 61 72  2  0
 62 60  1  0
 62 67  1  0
 63 71  1  0
 63 73  1  0
 64 70  1  0
 64 66  1  0
 65 71  1  0
 66 65  1  0
 67 66  2  0
 68 62  2  0
 69 68  1  0
 69 64  2  0
 70 63  1  0
 71 61  1  0
 73 75  2  0
 74 73  1  0
 76 74  1  0
 77 86  2  0
 77 82  1  0
 78 74  1  0
 78 82  1  0
 79 78  1  0
 80 81  1  0
 80 79  1  0
 81 77  1  0
 82 83  2  0
 83 84  1  0
 85 84  2  0
 86 85  1  0
 87 61  1  0
 87 92  1  0
 87 88  1  0
 88 91  1  1
 88 89  1  0
 90 88  1  0
 92 95  1  0
 93 97  1  0
 93 92  1  0
 94 93  2  0
 97 96  1  0
 97 99  1  0
 99100  1  0
 99 98  1  0
M  ISO  4  21 100  29 100  59 101  60 101
M  END
>  <TORSDO>  (30) 
F 20

>  <SCORE>  (30) 
-11.751

>  <name>  (30) 
29

>  <ligand_id>  (30) 
29

>  <original_smiles>  (30) 
[H]C(=C1C([H])(C([H])([H])Oc2c([H])c([H])c3c(c2[H])C([H])([H])N(C(=O)C([H])(N([H])C(=O)C([H])(N([H])C([H])([H])[H])C([H])([H])[H])C(C([H])([H])[H])(C([H])([H])[H])C([H])([H])[H])C([H])(C(=O)N([H])C2([H])c4c([H])c([H])c([H])c([H])c4C([H])([H])C([H])([H])C2([H])[H])C3([H])[H])C([H])([H])C([H])([H])C([H])([H])C([H])([H])[N+]1([H])C([H])([H])c1c([H])c(N([H])C(=O)N2C([H])([H])C([H])([H])C([H])([H])C([H])(n3nc(-c4c([H])c([H])c(Oc5c([H])c([H])c(F)c([H])c5F)c([H])c4[H])c(C(=O)N([H])[H])c3N([H])[H])C2([H])[H])c(C([H])([H])[H])c([H])c1C([H])([H])[H])C([H])([H])C([H])([H])[H]

>  <smiles>  (30) 
[H]C(=C1C([H])(C([H])([H])Oc2c([H])c([H])c3c(c2[H])C([H])([H])N(C(=O)C([H])(N([H])C(=O)C([H])(N([H])C([H])([H])[H])C([H])([H])[H])C(C([H])([H])[H])(C([H])([H])[H])C([H])([H])[H])C([H])(C(=O)N([H])C2([H])c4c([H])c([H])c([H])c([H])c4C([H])([H])C([H])([H])C2([H])[H])C3([H])[H])C([H])([H])C([H])([H])C([H])([H])C([H])([H])[N+]1([H])C([H])([H])c1c([H])c(N([H])C(=O)N2C([H])([H])C([H])([H])C([H])([H])C([H])(n3nc(-c4c([H])c([H])c(Oc5c([H])c([H])c(F)c([H])c5F)c([H])c4[H])c(C(=O)N([H])[H])c3N([H])[H])C2([H])[H])c(C([H])([H])[H])c([H])c1C([H])([H])[H])C([H])([H])C([H])([H])[H]

$$$$
30:0:0
     RDKit          3D

 94102  0  0  1  0  0  0  0  0999 V2000
  -30.3200  -20.0160   20.4300 C   0  0  0  0  0  2  0  0  0  0  0  0
  -29.7300  -17.2800   17.2510 C   0  0  0  0  0  3  0  0  0  0  0  0
  -28.8020  -18.9840   18.6890 C   0  0  0  0  0  3  0  0  0  0  0  0
  -28.7110  -18.1990   17.5220 C   0  0  0  0  0  0  0  0  0  0  0  0
  -30.6780  -16.9580   18.2330 C   0  0  0  0  0  0  0  0  0  0  0  0
  -29.7860  -18.7170   19.6710 C   0  0  0  0  0  0  0  0  0  0  0  0
  -30.4870  -17.4220   19.5730 C   0  0  0  0  0  0  0  0  0  0  0  0
  -27.6520  -18.4430   16.4680 C   0  0  0  0  0  1  0  0  0  0  0  0
  -31.9660  -16.3260   17.7200 C   0  0  0  0  0  1  0  0  0  0  0  0
  -31.3380  -15.2250   20.7320 C   0  0  0  0  0  0  0  0  0  0  0  0
  -31.0680  -12.9420   19.7680 C   0  0  0  0  0  2  0  0  0  0  0  0
  -30.2220  -12.8850   18.4840 C   0  0  0  0  0  2  0  0  0  0  0  0
  -28.7150  -12.8530   18.7700 C   0  0  0  0  0  2  0  0  0  0  0  0
  -28.2820  -13.7960   19.9270 C   0  0  0  0  0  3  0  0  0  0  0  0
  -29.2650  -13.7820   21.1120 C   0  0  0  0  0  2  0  0  0  0  0  0
  -30.5920  -14.0810   20.5730 N   0  0  0  0  0  0  0  0  0  0  0  0
  -32.5610  -15.1550   20.6860 O   0  0  0  0  0  0  0  0  0  0  0  0
  -30.7700  -16.4970   20.7040 N   0  0  0  0  0  0  0  0  0  0  0  0
  -30.9090  -16.9740   21.5850 H   0  0  0  0  0  0  0  0  0  0  0  0
  -25.8710  -14.4450   20.5140 C   0  0  0  0  0  0  0  0  0  0  0  0
  -24.7550  -13.7010   20.7850 C   0  0  0  0  0  0  0  0  0  0  0  0
  -25.1770  -12.3360   20.7750 C   0  0  0  0  0  0  0  0  0  0  0  0
  -26.9040  -13.5410   20.3390 N   0  0  0  0  0  0  0  0  0  0  0  0
  -26.4870  -12.2620   20.5690 N   0  0  0  0  0  0  0  0  0  0  0  0
  -24.4010  -11.0890   20.8810 C   0  0  0  0  0  0  0  0  0  0  0  0
  -24.7430  -10.0820   21.8090 C   0  0  0  0  0  3  0  0  0  0  0  0
  -23.9720   -8.9040   21.8990 C   0  0  0  0  0  3  0  0  0  0  0  0
  -22.8410   -8.7290   21.0600 C   0  0  0  0  0  0  0  0  0  0  0  0
  -22.5260   -9.7240   20.1100 C   0  0  0  0  0  3  0  0  0  0  0  0
  -23.3030  -10.8920   20.0190 C   0  0  0  0  0  3  0  0  0  0  0  0
  -22.0500   -7.6070   21.0610 O   0  0  0  0  0  0  0  0  0  0  0  0
  -21.8780   -6.8420   22.1900 C   0  0  0  0  0  0  0  0  0  0  0  0
  -21.3600   -7.3910   23.3820 C   0  0  0  0  0  3  0  0  0  0  0  0
  -21.1400   -6.5650   24.5010 C   0  0  0  0  0  3  0  0  0  0  0  0
  -21.4140   -5.1860   24.4240 C   0  0  0  0  0  0  0  0  0  0  0  0
  -21.9150   -4.6350   23.2310 C   0  0  0  0  0  3  0  0  0  0  0  0
  -22.1440   -5.4600   22.1160 C   0  0  0  0  0  0  0  0  0  0  0  0
  -22.6110   -4.9160   20.9660 F   0  0  0  0  0  0  0  0  0  0  0  0
  -21.1950   -4.3890   25.4980 F   0  0  0  0  0  0  0  0  0  0  0  0
  -23.3540  -14.2160   20.9560 C   0  0  0  0  0  0  0  0  0  0  0  0
  -22.5490  -13.5440   21.7650 N   0  0  0  0  0  0  0  0  0  0  0  0
  -22.9760  -15.2470   20.4070 O   0  0  0  0  0  0  0  0  0  0  0  0
  -22.8700  -12.7130   22.2400 H   0  0  0  0  0  0  0  0  0  0  0  0
  -21.6030  -13.8730   21.9100 H   0  0  0  0  0  0  0  0  0  0  0  0
  -26.0850  -15.8170   20.3890 N   0  0  0  0  0  0  0  0  0  0  0  0
  -25.3350  -16.4990   20.4570 H   0  0  0  0  0  0  0  0  0  0  0  0
  -26.9780  -16.2220   20.1320 H   0  0  0  0  0  0  0  0  0  0  0  0
  -29.4830  -21.2860   20.7250 N   0  0  0  0  0  4  0  0  0  0  0  0
  -30.0080  -21.6840   21.4870 H   0  0  0  0  0  0  0  0  0  0  0  0
  -28.6030  -21.0160   21.1250 H   0  0  0  0  0  0  0  0  0  0  0  0
  -29.2830  -22.5110   19.7930 C   0  0  0  0  0  2  0  0  0  0  0  0
  -29.2530  -24.0200   20.4540 C   0  0  0  0  0  3  0  0  0  0  0  0
  -28.3270  -25.2350   19.8800 C   0  0  0  0  0  3  0  0  0  0  0  0
  -28.4890  -26.6970   20.2760 O   0  0  0  0  0  0  0  0  0  0  0  0
  -24.6360  -32.1240   23.3310 C   0  0  0  0  0  0  0  0  0  0  0  0
  -27.3770  -27.5880   20.2340 C   0  0  0  0  0  0  0  0  0  0  0  0
  -23.4840  -30.6970   21.6880 C   0  0  0  0  0  3  0  0  0  0  0  0
  -24.9780  -29.1980   20.2450 C   0  0  0  0  0  0  0  0  0  0  0  0
  -26.0250  -31.0610   21.5290 C   0  0  0  0  0  2  0  0  0  0  0  0
  -26.1370  -29.6860   20.8610 C   0  0  0  0  0  0  0  0  0  0  0  0
  -27.3390  -28.8950   20.8450 C   0  0  0  0  0  3  0  0  0  0  0  0
  -26.1860  -27.1840   19.5880 C   0  0  0  0  0  3  0  0  0  0  0  0
  -25.0100  -27.9550   19.6010 C   0  0  0  0  0  3  0  0  0  0  0  0
  -23.7240  -30.0500   20.3000 C   0  0  0  0  0  2  0  0  0  0  0  0
  -24.7340  -31.3150   22.2370 N   0  0  0  0  0  0  0  0  0  0  0  0
  -23.5420  -32.3690   23.8570 O   0  0  0  0  0  0  0  0  0  0  0  0
  -22.8440  -29.6530   22.6350 C   0  0  0  0  0  0  0  0  0  0  0  0
  -21.5410  -29.3850   22.4510 N   0  0  0  0  0  0  0  0  0  0  0  0
  -23.5230  -29.0990   23.5030 O   0  0  0  0  0  0  0  0  0  0  0  0
  -21.0530  -29.8920   21.7270 H   0  0  0  0  0  0  0  0  0  0  0  0
  -18.2470  -27.9170   22.7710 C   0  0  0  0  0  0  0  0  0  0  0  0
  -20.7490  -28.4090   23.2040 C   0  0  0  0  0  3  0  0  0  0  0  0
  -21.0110  -26.9700   22.7010 C   0  0  0  0  0  2  0  0  0  0  0  0
  -20.0160  -26.5120   21.6300 C   0  0  0  0  0  2  0  0  0  0  0  0
  -18.5850  -26.5630   22.1720 C   0  0  0  0  0  2  0  0  0  0  0  0
  -19.2640  -28.7900   23.2400 C   0  0  0  0  0  0  0  0  0  0  0  0
  -18.8960  -30.0510   23.7570 C   0  0  0  0  0  3  0  0  0  0  0  0
  -17.5440  -30.4420   23.8120 C   0  0  0  0  0  3  0  0  0  0  0  0
  -16.5410  -29.5670   23.3620 C   0  0  0  0  0  3  0  0  0  0  0  0
  -16.8930  -28.3080   22.8440 C   0  0  0  0  0  3  0  0  0  0  0  0
  -25.8930  -32.7930   23.9640 C   0  0  0  0  0  3  0  0  0  0  0  0
  -25.5520  -34.1940   24.2530 N   0  0  0  0  0  0  0  0  0  0  0  0
  -25.8850  -35.2360   23.4800 C   0  0  0  0  0  0  0  0  0  0  0  0
  -26.5800  -35.1220   22.4670 O   0  0  0  0  0  0  0  0  0  0  0  0
  -24.9340  -34.3560   25.0350 H   0  0  0  0  0  0  0  0  0  0  0  0
  -24.1360  -36.9950   23.0460 C   0  0  0  0  0  1  0  0  0  0  0  0
  -25.3650  -36.6280   23.8950 C   0  0  0  0  0  3  0  0  0  0  0  0
  -27.4620  -37.5670   24.7590 C   0  0  0  0  0  1  0  0  0  0  0  0
  -26.3850  -37.6940   23.7810 N   0  0  0  0  0  0  0  0  0  0  0  0
  -25.9610  -38.6110   23.8940 H   0  0  0  0  0  0  0  0  0  0  0  0
  -26.3920  -32.0660   25.2730 C   0  0  1  0  0  0  0  0  0  0  0  0
  -25.2710  -31.7910   26.3030 C   0  0  0  0  0  1  0  0  0  0  0  0
  -27.0540  -30.7120   24.9300 C   0  0  0  0  0  1  0  0  0  0  0  0
  -27.4780  -32.9220   25.9640 C   0  0  0  0  0  1  0  0  0  0  0  0
  1 48  1  0
  2  4  2  0
  2  5  1  0
  3  6  2  0
  4  3  1  0
  5  7  2  0
  6  1  1  0
  7  6  1  0
  7 18  1  0
  8  4  1  0
  9  5  1  0
 11 16  1  0
 12 13  1  0
 12 11  1  0
 14 13  1  0
 14 23  1  0
 14 15  1  0
 16 10  1  0
 16 15  1  0
 17 10  2  0
 18 10  1  0
 18 19  1  0
 20 21  2  0
 21 40  1  0
 22 21  1  0
 22 25  1  0
 23 20  1  0
 23 24  1  0
 24 22  2  0
 25 26  1  0
 26 27  2  0
 28 31  1  0
 28 27  1  0
 29 28  2  0
 30 29  1  0
 30 25  2  0
 31 32  1  0
 32 33  1  0
 33 34  2  0
 35 34  1  0
 35 39  1  0
 36 35  2  0
 37 32  2  0
 37 36  1  0
 38 37  1  0
 40 41  1  0
 41 44  1  0
 41 43  1  0
 42 40  2  0
 45 46  1  0
 45 20  1  0
 47 45  1  0
 48 50  1  0
 48 49  1  0
 51 52  1  0
 51 48  1  0
 53 54  1  0
 53 52  2  0
 55 66  2  0
 56 54  1  0
 56 61  1  0
 57 65  1  0
 57 67  1  0
 58 64  1  0
 58 60  1  0
 59 65  1  0
 60 59  1  0
 61 60  2  0
 62 63  1  0
 62 56  2  0
 63 58  2  0
 64 57  1  0
 65 55  1  0
 67 69  2  0
 68 67  1  0
 70 68  1  0
 71 80  2  0
 71 76  1  0
 72 68  1  0
 72 76  1  0
 73 72  1  0
 74 75  1  0
 74 73  1  0
 75 71  1  0
 76 77  2  0
 77 78  1  0
 79 78  2  0
 80 79  1  0
 81 55  1  0
 81 82  1  0
 81 91  1  0
 82 85  1  0
 83 87  1  0
 83 82  1  0
 84 83  2  0
 87 86  1  0
 89 90  1  0
 89 87  1  0
 89 88  1  0
 91 94  1  1
 91 92  1  0
 93 91  1  0
M  ISO  4  10 100  18 100  53 101  54 101
M  END
>  <TORSDO>  (31) 
F 21

>  <SCORE>  (31) 
-11.194

>  <name>  (31) 
30

>  <ligand_id>  (31) 
30

>  <original_smiles>  (31) 
[H]c1c([H])c([H])c2c(c1[H])C([H])([H])C([H])([H])C([H])([H])C2([H])N([H])C(=O)C1([H])N(C(=O)C([H])(N([H])C(=O)C([H])(N([H])C([H])([H])[H])C([H])([H])[H])C(C([H])([H])[H])(C([H])([H])[H])C([H])([H])[H])C([H])([H])c2c([H])c(OC([H])([H])C([H])([H])C([H])([H])[N+]([H])([H])C([H])([H])c3c([H])c(C([H])([H])[H])c([H])c(C([H])([H])[H])c3N([H])C(=O)N3C([H])([H])C([H])([H])C([H])([H])C([H])(n4nc(-c5c([H])c([H])c(Oc6c([H])c([H])c(F)c([H])c6F)c([H])c5[H])c(C(=O)N([H])[H])c4N([H])[H])C3([H])[H])c([H])c([H])c2C1([H])[H]

>  <smiles>  (31) 
[H]c1c([H])c([H])c2c(c1[H])C([H])([H])C([H])([H])C([H])([H])C2([H])N([H])C(=O)C1([H])N(C(=O)C([H])(N([H])C(=O)C([H])(N([H])C([H])([H])[H])C([H])([H])[H])C(C([H])([H])[H])(C([H])([H])[H])C([H])([H])[H])C([H])([H])c2c([H])c(OC([H])([H])C([H])([H])C([H])([H])[N+]([H])([H])C([H])([H])c3c([H])c(C([H])([H])[H])c([H])c(C([H])([H])[H])c3N([H])C(=O)N3C([H])([H])C([H])([H])C([H])([H])C([H])(n4nc(-c5c([H])c([H])c(Oc6c([H])c([H])c(F)c([H])c6F)c([H])c5[H])c(C(=O)N([H])[H])c4N([H])[H])C3([H])[H])c([H])c([H])c2C1([H])[H]

$$$$
31:0:0
     RDKit          3D

 93101  0  0  1  0  0  0  0  0999 V2000
  -29.5390  -21.2060   20.8330 C   0  0  0  0  0  2  0  0  0  0  0  0
  -30.3390  -19.9970   18.7170 C   0  0  0  0  0  3  0  0  0  0  0  0
  -30.7390  -18.8760   17.9710 C   0  0  0  0  0  3  0  0  0  0  0  0
  -29.9090  -19.8680   20.0510 C   0  0  0  0  0  0  0  0  0  0  0  0
  -30.3560  -17.3410   19.8640 C   0  0  0  0  0  0  0  0  0  0  0  0
  -30.7400  -17.5770   18.5100 C   0  0  0  0  0  0  0  0  0  0  0  0
  -29.9230  -18.5190   20.6080 C   0  0  0  0  0  0  0  0  0  0  0  0
  -31.1560  -16.3180   17.4010 Cl  0  0  0  0  0  0  0  0  0  0  0  0
  -29.4120  -18.2980   22.2450 Cl  0  0  0  0  0  0  0  0  0  0  0  0
  -31.0240  -14.8310   20.0840 C   0  0  0  0  0  0  0  0  0  0  0  0
  -30.7280  -12.6100   18.9990 C   0  0  0  0  0  2  0  0  0  0  0  0
  -29.7360  -12.7520   17.8230 C   0  0  0  0  0  2  0  0  0  0  0  0
  -28.2820  -12.6090   18.3070 C   0  0  0  0  0  2  0  0  0  0  0  0
  -27.9860  -13.4540   19.5740 C   0  0  0  0  0  3  0  0  0  0  0  0
  -29.0870  -13.2860   20.6450 C   0  0  0  0  0  2  0  0  0  0  0  0
  -30.3710  -13.6220   20.0190 N   0  0  0  0  0  0  0  0  0  0  0  0
  -32.1960  -14.9240   19.7090 O   0  0  0  0  0  0  0  0  0  0  0  0
  -30.2850  -15.9550   20.4010 N   0  0  0  0  0  0  0  0  0  0  0  0
  -29.4500  -15.7620   20.9320 H   0  0  0  0  0  0  0  0  0  0  0  0
  -25.6300  -14.0610   20.3950 C   0  0  0  0  0  0  0  0  0  0  0  0
  -24.5700  -13.2920   20.7910 C   0  0  0  0  0  0  0  0  0  0  0  0
  -25.0180  -11.9370   20.7250 C   0  0  0  0  0  0  0  0  0  0  0  0
  -26.6560  -13.1750   20.1090 N   0  0  0  0  0  0  0  0  0  0  0  0
  -26.2960  -11.8910   20.3730 N   0  0  0  0  0  0  0  0  0  0  0  0
  -24.2850  -10.6790   20.9180 C   0  0  0  0  0  0  0  0  0  0  0  0
  -24.6990   -9.7210   21.8690 C   0  0  0  0  0  3  0  0  0  0  0  0
  -23.9670   -8.5270   22.0490 C   0  0  0  0  0  3  0  0  0  0  0  0
  -22.8050   -8.2840   21.2790 C   0  0  0  0  0  0  0  0  0  0  0  0
  -22.4090   -9.2300   20.3180 C   0  0  0  0  0  3  0  0  0  0  0  0
  -23.1420  -10.4150   20.1340 C   0  0  0  0  0  3  0  0  0  0  0  0
  -22.0450   -7.1430   21.3700 O   0  0  0  0  0  0  0  0  0  0  0  0
  -21.9080   -6.4600   22.5530 C   0  0  0  0  0  0  0  0  0  0  0  0
  -21.3680   -7.0700   23.7060 C   0  0  0  0  0  3  0  0  0  0  0  0
  -21.1800   -6.3130   24.8800 C   0  0  0  0  0  3  0  0  0  0  0  0
  -21.5220   -4.9470   24.9000 C   0  0  0  0  0  0  0  0  0  0  0  0
  -22.0540   -4.3370   23.7500 C   0  0  0  0  0  3  0  0  0  0  0  0
  -22.2430   -5.0920   22.5790 C   0  0  0  0  0  0  0  0  0  0  0  0
  -22.7370   -4.4930   21.4670 F   0  0  0  0  0  0  0  0  0  0  0  0
  -21.3340   -4.2180   26.0240 F   0  0  0  0  0  0  0  0  0  0  0  0
  -23.1870  -13.7780   21.1170 C   0  0  0  0  0  0  0  0  0  0  0  0
  -22.4880  -13.0840   22.0100 N   0  0  0  0  0  0  0  0  0  0  0  0
  -22.7360  -14.8070   20.6170 O   0  0  0  0  0  0  0  0  0  0  0  0
  -22.8670  -12.2510   22.4350 H   0  0  0  0  0  0  0  0  0  0  0  0
  -21.5620  -13.3900   22.2710 H   0  0  0  0  0  0  0  0  0  0  0  0
  -25.8050  -15.4330   20.2290 N   0  0  0  0  0  0  0  0  0  0  0  0
  -25.0490  -16.0950   20.3640 H   0  0  0  0  0  0  0  0  0  0  0  0
  -26.6380  -15.8600   19.8450 H   0  0  0  0  0  0  0  0  0  0  0  0
  -28.9990  -22.4170   20.0630 N   0  0  0  0  0  4  0  0  0  0  0  0
  -28.0250  -22.2260   19.8850 H   0  0  0  0  0  0  0  0  0  0  0  0
  -29.4560  -22.4290   19.1660 H   0  0  0  0  0  0  0  0  0  0  0  0
  -29.1260  -23.8360   20.6500 C   0  0  0  0  0  3  0  0  0  0  0  0
  -28.2650  -25.0020   19.9510 C   0  0  0  0  0  3  0  0  0  0  0  0
  -28.4330  -26.4550   20.2850 O   0  0  0  0  0  0  0  0  0  0  0  0
  -24.6040  -31.8530   23.2160 C   0  0  0  0  0  0  0  0  0  0  0  0
  -27.3260  -27.3270   20.1790 C   0  0  0  0  0  0  0  0  0  0  0  0
  -23.4540  -30.4590   21.5350 C   0  0  0  0  0  3  0  0  0  0  0  0
  -24.9530  -28.9420   20.1230 C   0  0  0  0  0  0  0  0  0  0  0  0
  -25.9960  -30.7960   21.4190 C   0  0  0  0  0  2  0  0  0  0  0  0
  -26.1020  -29.4240   20.7610 C   0  0  0  0  0  0  0  0  0  0  0  0
  -27.2900  -28.6260   20.7850 C   0  0  0  0  0  3  0  0  0  0  0  0
  -26.1600  -26.9250   19.4850 C   0  0  0  0  0  3  0  0  0  0  0  0
  -24.9850  -27.6990   19.4760 C   0  0  0  0  0  3  0  0  0  0  0  0
  -23.7080  -29.8040   20.1520 C   0  0  0  0  0  2  0  0  0  0  0  0
  -24.7020  -31.0540   22.1130 N   0  0  0  0  0  0  0  0  0  0  0  0
  -23.5060  -32.1150   23.7270 O   0  0  0  0  0  0  0  0  0  0  0  0
  -22.7810  -29.4240   22.4690 C   0  0  0  0  0  0  0  0  0  0  0  0
  -21.4610  -29.2290   22.3070 N   0  0  0  0  0  0  0  0  0  0  0  0
  -23.4480  -28.8010   23.3010 O   0  0  0  0  0  0  0  0  0  0  0  0
  -20.9840  -29.7860   21.6130 H   0  0  0  0  0  0  0  0  0  0  0  0
  -18.0890  -27.9830   22.7140 C   0  0  0  0  0  0  0  0  0  0  0  0
  -20.6360  -28.2750   23.0490 C   0  0  0  0  0  3  0  0  0  0  0  0
  -20.7720  -26.8490   22.4670 C   0  0  0  0  0  2  0  0  0  0  0  0
  -19.7000  -26.5190   21.4230 C   0  0  0  0  0  2  0  0  0  0  0  0
  -18.3010  -26.6420   22.0330 C   0  0  0  0  0  2  0  0  0  0  0  0
  -19.1860  -28.7570   23.1770 C   0  0  0  0  0  0  0  0  0  0  0  0
  -18.9360  -30.0120   23.7740 C   0  0  0  0  0  3  0  0  0  0  0  0
  -17.6210  -30.4940   23.9130 C   0  0  0  0  0  3  0  0  0  0  0  0
  -16.5380  -29.7180   23.4660 C   0  0  0  0  0  3  0  0  0  0  0  0
  -16.7730  -28.4650   22.8710 C   0  0  0  0  0  3  0  0  0  0  0  0
  -25.8650  -32.4950   23.8710 C   0  0  0  0  0  3  0  0  0  0  0  0
  -26.3490  -31.7320   25.1660 C   0  0  1  0  0  0  0  0  0  0  0  0
  -25.2260  -31.4910   26.2020 C   0  0  0  0  0  1  0  0  0  0  0  0
  -26.9520  -30.3560   24.7990 C   0  0  0  0  0  1  0  0  0  0  0  0
  -27.4730  -32.5360   25.8600 C   0  0  0  0  0  1  0  0  0  0  0  0
  -25.5390  -33.8930   24.1880 N   0  0  0  0  0  0  0  0  0  0  0  0
  -25.8860  -34.9460   23.4370 C   0  0  0  0  0  0  0  0  0  0  0  0
  -26.5850  -34.8430   22.4230 O   0  0  0  0  0  0  0  0  0  0  0  0
  -24.9240  -34.0480   24.9730 H   0  0  0  0  0  0  0  0  0  0  0  0
  -24.1620  -36.7330   23.0300 C   0  0  0  0  0  1  0  0  0  0  0  0
  -25.3800  -36.3340   23.8770 C   0  0  0  0  0  3  0  0  0  0  0  0
  -27.4820  -37.2330   24.7740 C   0  0  0  0  0  1  0  0  0  0  0  0
  -26.4110  -37.3910   23.7940 N   0  0  0  0  0  0  0  0  0  0  0  0
  -25.9960  -38.3100   23.9230 H   0  0  0  0  0  0  0  0  0  0  0  0
  2  4  1  0
  3  6  1  0
  3  2  2  0
  4  7  2  0
  4  1  1  0
  5 18  1  0
  5  7  1  0
  6  5  2  0
  7  9  1  0
  8  6  1  0
 10 18  1  0
 11 16  1  0
 12 13  1  0
 12 11  1  0
 14 13  1  0
 14 23  1  0
 14 15  1  0
 16 10  1  0
 16 15  1  0
 17 10  2  0
 18 19  1  0
 20 21  2  0
 21 40  1  0
 22 21  1  0
 22 25  1  0
 23 24  1  0
 23 20  1  0
 24 22  2  0
 25 26  1  0
 26 27  2  0
 28 31  1  0
 28 27  1  0
 29 28  2  0
 30 29  1  0
 30 25  2  0
 31 32  1  0
 32 37  2  0
 32 33  1  0
 33 34  2  0
 34 35  1  0
 35 39  1  0
 36 35  2  0
 37 36  1  0
 38 37  1  0
 40 41  1  0
 41 44  1  0
 41 43  1  0
 42 40  2  0
 45 46  1  0
 45 20  1  0
 47 45  1  0
 48 51  1  0
 48  1  1  0
 49 48  1  0
 50 48  1  0
 52 53  1  0
 52 51  2  0
 54 65  2  0
 55 53  1  0
 55 60  1  0
 56 64  1  0
 56 66  1  0
 57 63  1  0
 57 59  1  0
 58 64  1  0
 59 60  2  0
 59 58  1  0
 61 55  2  0
 62 61  1  0
 62 57  2  0
 63 56  1  0
 64 54  1  0
 66 68  2  0
 67 66  1  0
 69 67  1  0
 70 79  2  0
 70 75  1  0
 71 67  1  0
 71 75  1  0
 72 71  1  0
 73 74  1  0
 73 72  1  0
 74 70  1  0
 75 76  2  0
 76 77  1  0
 78 77  2  0
 79 78  1  0
 80 54  1  0
 80 85  1  0
 80 81  1  0
 81 84  1  1
 81 82  1  0
 83 81  1  0
 85 88  1  0
 86 90  1  0
 86 85  1  0
 87 86  2  0
 90 89  1  0
 92 90  1  0
 92 93  1  0
 92 91  1  0
M  ISO  4  10 100  18 100  52 101  53 101
M  END
>  <TORSDO>  (32) 
F 20

>  <SCORE>  (32) 
-12.169

>  <name>  (32) 
31

>  <ligand_id>  (32) 
31

>  <original_smiles>  (32) 
[H]c1c([H])c([H])c2c(c1[H])C([H])([H])C([H])([H])C([H])([H])C2([H])N([H])C(=O)C1([H])N(C(=O)C([H])(N([H])C(=O)C([H])(N([H])C([H])([H])[H])C([H])([H])[H])C(C([H])([H])[H])(C([H])([H])[H])C([H])([H])[H])C([H])([H])c2c([H])c(OC([H])([H])C([H])([H])[N+]([H])([H])C([H])([H])c3c([H])c([H])c(Cl)c(N([H])C(=O)N4C([H])([H])C([H])([H])C([H])([H])C([H])(n5nc(-c6c([H])c([H])c(Oc7c([H])c([H])c(F)c([H])c7F)c([H])c6[H])c(C(=O)N([H])[H])c5N([H])[H])C4([H])[H])c3Cl)c([H])c([H])c2C1([H])[H]

>  <smiles>  (32) 
[H]c1c([H])c([H])c2c(c1[H])C([H])([H])C([H])([H])C([H])([H])C2([H])N([H])C(=O)C1([H])N(C(=O)C([H])(N([H])C(=O)C([H])(N([H])C([H])([H])[H])C([H])([H])[H])C(C([H])([H])[H])(C([H])([H])[H])C([H])([H])[H])C([H])([H])c2c([H])c(OC([H])([H])C([H])([H])[N+]([H])([H])C([H])([H])c3c([H])c([H])c(Cl)c(N([H])C(=O)N4C([H])([H])C([H])([H])C([H])([H])C([H])(n5nc(-c6c([H])c([H])c(Oc7c([H])c([H])c(F)c([H])c7F)c([H])c6[H])c(C(=O)N([H])[H])c5N([H])[H])C4([H])[H])c3Cl)c([H])c([H])c2C1([H])[H]

$$$$
32:0:0
     RDKit          3D

 96105  0  0  1  0  0  0  0  0999 V2000
  -29.2540  -24.1220   20.0770 C   0  0  0  0  0  0  0  0  0  0  0  0
  -30.1560  -24.4750   19.1400 C   0  0  0  0  0  2  0  0  0  0  0  0
  -26.8880  -23.1330   21.5270 C   0  0  0  0  0  2  0  0  0  0  0  0
  -26.8480  -24.5130   20.8670 C   0  0  0  0  0  2  0  0  0  0  0  0
  -27.7380  -22.1700   20.6940 C   0  0  0  0  0  2  0  0  0  0  0  0
  -28.2530  -25.1520   20.7190 C   0  0  0  0  0  3  0  0  0  0  0  0
  -29.1370  -22.6450   20.5950 N   0  0  1  0  0  4  0  0  0  0  0  0
  -29.4430  -22.6620   21.5560 H   0  0  0  0  0  0  0  0  0  0  0  0
  -28.3090  -26.5290   20.1340 O   0  0  0  0  0  0  0  0  0  0  0  0
  -24.6030  -31.9040   23.2490 C   0  0  0  0  0  0  0  0  0  0  0  0
  -27.1930  -27.3800   20.1400 C   0  0  0  0  0  0  0  0  0  0  0  0
  -23.3940  -30.5360   21.5850 C   0  0  0  0  0  3  0  0  0  0  0  0
  -24.8400  -29.0040   20.1370 C   0  0  0  0  0  0  0  0  0  0  0  0
  -25.9350  -30.8410   21.4170 C   0  0  0  0  0  2  0  0  0  0  0  0
  -26.0060  -29.4710   20.7600 C   0  0  0  0  0  0  0  0  0  0  0  0
  -27.1830  -28.6650   20.7630 C   0  0  0  0  0  3  0  0  0  0  0  0
  -26.0270  -27.0020   19.4390 C   0  0  0  0  0  3  0  0  0  0  0  0
  -24.8530  -27.7720   19.4690 C   0  0  0  0  0  3  0  0  0  0  0  0
  -23.6070  -29.8800   20.1960 C   0  0  0  0  0  2  0  0  0  0  0  0
  -24.6620  -31.1110   22.1400 N   0  0  0  0  0  0  0  0  0  0  0  0
  -23.5200  -32.1800   23.7860 O   0  0  0  0  0  0  0  0  0  0  0  0
  -22.7260  -29.5080   22.5270 C   0  0  0  0  0  0  0  0  0  0  0  0
  -21.3980  -29.3420   22.3960 N   0  0  0  0  0  0  0  0  0  0  0  0
  -23.3990  -28.8640   23.3360 O   0  0  0  0  0  0  0  0  0  0  0  0
  -20.9160  -29.9120   21.7160 H   0  0  0  0  0  0  0  0  0  0  0  0
  -18.0080  -28.1800   22.8870 C   0  0  0  0  0  0  0  0  0  0  0  0
  -20.5710  -28.4010   23.1510 C   0  0  0  0  0  3  0  0  0  0  0  0
  -20.6520  -26.9800   22.5480 C   0  0  0  0  0  2  0  0  0  0  0  0
  -19.5430  -26.6910   21.5330 C   0  0  0  0  0  2  0  0  0  0  0  0
  -18.1650  -26.8420   22.1850 C   0  0  0  0  0  2  0  0  0  0  0  0
  -19.1380  -28.9200   23.3270 C   0  0  0  0  0  0  0  0  0  0  0  0
  -18.9380  -30.1730   23.9440 C   0  0  0  0  0  3  0  0  0  0  0  0
  -17.6400  -30.6880   24.1250 C   0  0  0  0  0  3  0  0  0  0  0  0
  -16.5250  -29.9450   23.7010 C   0  0  0  0  0  3  0  0  0  0  0  0
  -16.7100  -28.6930   23.0880 C   0  0  0  0  0  3  0  0  0  0  0  0
  -25.8910  -32.5170   23.8810 C   0  0  0  0  0  3  0  0  0  0  0  0
  -25.5940  -33.9160   24.2170 N   0  0  0  0  0  0  0  0  0  0  0  0
  -25.9410  -34.9700   23.4660 C   0  0  0  0  0  0  0  0  0  0  0  0
  -26.6130  -34.8660   22.4350 O   0  0  0  0  0  0  0  0  0  0  0  0
  -24.9950  -34.0720   25.0150 H   0  0  0  0  0  0  0  0  0  0  0  0
  -24.2360  -36.7870   23.1160 C   0  0  0  0  0  1  0  0  0  0  0  0
  -25.4670  -36.3600   23.9310 C   0  0  0  0  0  3  0  0  0  0  0  0
  -27.6050  -37.2160   24.7830 C   0  0  0  0  0  1  0  0  0  0  0  0
  -26.5130  -37.4020   23.8320 N   0  0  0  0  0  0  0  0  0  0  0  0
  -26.1160  -38.3260   23.9800 H   0  0  0  0  0  0  0  0  0  0  0  0
  -26.3930  -31.7310   25.1530 C   0  0  1  0  0  0  0  0  0  0  0  0
  -25.2920  -31.4960   26.2120 C   0  0  0  0  0  1  0  0  0  0  0  0
  -26.9670  -30.3500   24.7570 C   0  0  0  0  0  1  0  0  0  0  0  0
  -27.5470  -32.5110   25.8270 C   0  0  0  0  0  1  0  0  0  0  0  0
  -30.0610  -21.5950   19.9860 C   0  0  0  0  0  2  0  0  0  0  0  0
  -30.6050  -19.4290   21.3430 C   0  0  0  0  0  3  0  0  0  0  0  0
  -29.2290  -17.7390   19.6120 C   0  0  0  0  0  3  0  0  0  0  0  0
  -29.9020  -20.0440   20.2680 C   0  0  0  0  0  0  0  0  0  0  0  0
  -30.6390  -18.0140   21.5470 C   0  0  0  0  0  0  0  0  0  0  0  0
  -29.2070  -19.1470   19.3950 C   0  0  0  0  0  0  0  0  0  0  0  0
  -29.9560  -17.1330   20.6650 C   0  0  0  0  0  0  0  0  0  0  0  0
  -31.4100  -17.4480   22.7280 C   0  0  0  0  0  1  0  0  0  0  0  0
  -28.4210  -19.6300   18.1830 C   0  0  0  0  0  1  0  0  0  0  0  0
  -30.6190  -14.6730   20.4420 C   0  0  0  0  0  0  0  0  0  0  0  0
  -30.4210  -12.4460   19.3510 C   0  0  0  0  0  2  0  0  0  0  0  0
  -29.4920  -12.5770   18.1240 C   0  0  0  0  0  2  0  0  0  0  0  0
  -28.0160  -12.4060   18.5360 C   0  0  0  0  0  2  0  0  0  0  0  0
  -27.6360  -13.2700   19.7680 C   0  0  0  0  0  3  0  0  0  0  0  0
  -28.6780  -13.1120   20.8970 C   0  0  0  0  0  2  0  0  0  0  0  0
  -30.0010  -13.4540   20.3440 N   0  0  0  0  0  0  0  0  0  0  0  0
  -31.7690  -14.8500   20.0270 O   0  0  0  0  0  0  0  0  0  0  0  0
  -29.8410  -15.6990   20.8900 N   0  0  0  0  0  0  0  0  0  0  0  0
  -28.9210  -15.3890   21.1690 H   0  0  0  0  0  0  0  0  0  0  0  0
  -25.2220  -13.8570   20.4360 C   0  0  0  0  0  0  0  0  0  0  0  0
  -24.1560  -13.0780   20.7990 C   0  0  0  0  0  0  0  0  0  0  0  0
  -24.6310  -11.7310   20.7900 C   0  0  0  0  0  0  0  0  0  0  0  0
  -26.2790  -12.9830   20.2300 N   0  0  0  0  0  0  0  0  0  0  0  0
  -25.9270  -11.7010   20.5050 N   0  0  0  0  0  0  0  0  0  0  0  0
  -23.9140  -10.4640   20.9860 C   0  0  0  0  0  0  0  0  0  0  0  0
  -24.3250   -9.5240   21.9560 C   0  0  0  0  0  3  0  0  0  0  0  0
  -23.6070   -8.3210   22.1370 C   0  0  0  0  0  3  0  0  0  0  0  0
  -22.4650   -8.0490   21.3460 C   0  0  0  0  0  0  0  0  0  0  0  0
  -22.0750   -8.9780   20.3650 C   0  0  0  0  0  3  0  0  0  0  0  0
  -22.7930  -10.1720   20.1840 C   0  0  0  0  0  3  0  0  0  0  0  0
  -21.7230   -6.8970   21.4340 O   0  0  0  0  0  0  0  0  0  0  0  0
  -21.6350   -6.1850   22.6030 C   0  0  0  0  0  0  0  0  0  0  0  0
  -21.1330   -6.7610   23.7910 C   0  0  0  0  0  3  0  0  0  0  0  0
  -20.9940   -5.9740   24.9510 C   0  0  0  0  0  3  0  0  0  0  0  0
  -21.3470   -4.6120   24.9260 C   0  0  0  0  0  0  0  0  0  0  0  0
  -21.8410   -4.0350   23.7430 C   0  0  0  0  0  3  0  0  0  0  0  0
  -21.9820   -4.8180   22.5850 C   0  0  0  0  0  0  0  0  0  0  0  0
  -22.4400   -4.2530   21.4420 F   0  0  0  0  0  0  0  0  0  0  0  0
  -21.2060   -3.8530   26.0380 F   0  0  0  0  0  0  0  0  0  0  0  0
  -22.7510  -13.5440   21.0440 C   0  0  0  0  0  0  0  0  0  0  0  0
  -22.0120  -12.8420   21.8970 N   0  0  0  0  0  0  0  0  0  0  0  0
  -22.3160  -14.5670   20.5150 O   0  0  0  0  0  0  0  0  0  0  0  0
  -22.3750  -12.0150   22.3480 H   0  0  0  0  0  0  0  0  0  0  0  0
  -21.0670  -13.1370   22.1020 H   0  0  0  0  0  0  0  0  0  0  0  0
  -25.3790  -15.2270   20.2440 N   0  0  0  0  0  0  0  0  0  0  0  0
  -24.6070  -15.8790   20.3290 H   0  0  0  0  0  0  0  0  0  0  0  0
  -26.2310  -15.6630   19.9150 H   0  0  0  0  0  0  0  0  0  0  0  0
  1  7  1  0
  1  6  1  0
  2  1  2  0
  4  3  1  0
  5  3  1  0
  6  9  1  0
  6  4  1  0
  7  5  1  0
  7  8  1  1
  9 11  1  0
 10 21  2  0
 11 16  1  0
 12 20  1  0
 12 22  1  0
 13 19  1  0
 13 15  1  0
 14 20  1  0
 15 16  2  0
 15 14  1  0
 17 18  1  0
 17 11  2  0
 18 13  2  0
 19 12  1  0
 20 10  1  0
 22 24  2  0
 23 22  1  0
 25 23  1  0
 26 35  2  0
 26 31  1  0
 27 23  1  0
 27 31  1  0
 28 27  1  0
 29 30  1  0
 29 28  1  0
 30 26  1  0
 31 32  2  0
 32 33  1  0
 34 33  2  0
 35 34  1  0
 36 10  1  0
 36 37  1  0
 36 46  1  0
 37 40  1  0
 38 42  1  0
 38 37  1  0
 39 38  2  0
 42 41  1  0
 44 42  1  0
 44 45  1  0
 44 43  1  0
 46 49  1  1
 46 47  1  0
 48 46  1  0
 50 53  1  0
 50  7  1  0
 51 54  1  0
 52 56  1  0
 53 51  2  0
 54 57  1  0
 55 52  2  0
 55 53  1  0
 56 67  1  0
 56 54  2  0
 58 55  1  0
 59 67  1  0
 60 65  1  0
 61 62  1  0
 61 60  1  0
 63 62  1  0
 63 72  1  0
 63 64  1  0
 65 59  1  0
 65 64  1  0
 66 59  2  0
 67 68  1  0
 69 70  2  0
 70 89  1  0
 71 70  1  0
 71 74  1  0
 72 69  1  0
 72 73  1  0
 73 71  2  0
 74 75  1  0
 75 76  2  0
 77 80  1  0
 77 76  1  0
 78 77  2  0
 79 78  1  0
 79 74  2  0
 80 81  1  0
 81 82  1  0
 82 83  2  0
 84 83  1  0
 84 88  1  0
 85 84  2  0
 86 81  2  0
 86 85  1  0
 87 86  1  0
 89 90  1  0
 90 93  1  0
 90 92  1  0
 91 89  2  0
 94 95  1  0
 94 69  1  0
 96 94  1  0
M  ISO  4   6 101   9 101  59 100  67 100
M  END
>  <TORSDO>  (33) 
F 18

>  <SCORE>  (33) 
-14.519

>  <name>  (33) 
32

>  <ligand_id>  (33) 
32

>  <original_smiles>  (33) 
[H]C([H])=C1C([H])(Oc2c([H])c([H])c3c(c2[H])C([H])([H])N(C(=O)C([H])(N([H])C(=O)C([H])(N([H])C([H])([H])[H])C([H])([H])[H])C(C([H])([H])[H])(C([H])([H])[H])C([H])([H])[H])C([H])(C(=O)N([H])C2([H])c4c([H])c([H])c([H])c([H])c4C([H])([H])C([H])([H])C2([H])[H])C3([H])[H])C([H])([H])C([H])([H])C([H])([H])[N+]1([H])C([H])([H])c1c([H])c(C([H])([H])[H])c(N([H])C(=O)N2C([H])([H])C([H])([H])C([H])([H])C([H])(n3nc(-c4c([H])c([H])c(Oc5c([H])c([H])c(F)c([H])c5F)c([H])c4[H])c(C(=O)N([H])[H])c3N([H])[H])C2([H])[H])c([H])c1C([H])([H])[H]

>  <smiles>  (33) 
[H]C([H])=C1C([H])(Oc2c([H])c([H])c3c(c2[H])C([H])([H])N(C(=O)C([H])(N([H])C(=O)C([H])(N([H])C([H])([H])[H])C([H])([H])[H])C(C([H])([H])[H])(C([H])([H])[H])C([H])([H])[H])C([H])(C(=O)N([H])C2([H])c4c([H])c([H])c([H])c([H])c4C([H])([H])C([H])([H])C2([H])[H])C3([H])[H])C([H])([H])C([H])([H])C([H])([H])[N+]1([H])C([H])([H])c1c([H])c(C([H])([H])[H])c(N([H])C(=O)N2C([H])([H])C([H])([H])C([H])([H])C([H])(n3nc(-c4c([H])c([H])c(Oc5c([H])c([H])c(F)c([H])c5F)c([H])c4[H])c(C(=O)N([H])[H])c3N([H])[H])C2([H])[H])c([H])c1C([H])([H])[H]

$$$$
33:0:0
     RDKit          3D

 94102  0  0  1  0  0  0  0  0999 V2000
  -30.0220  -20.6230   19.7800 C   0  0  0  0  0  2  0  0  0  0  0  0
  -30.0500  -18.0370   20.1680 C   0  0  0  0  0  3  0  0  0  0  0  0
  -31.1640  -18.4010   22.7190 C   0  0  0  0  0  3  0  0  0  0  0  0
  -30.2700  -19.3650   20.6510 C   0  0  0  0  0  0  0  0  0  0  0  0
  -30.3940  -16.8940   20.9510 C   0  0  0  0  0  0  0  0  0  0  0  0
  -30.8310  -19.5230   21.9360 C   0  0  0  0  0  0  0  0  0  0  0  0
  -30.9430  -17.0940   22.2400 C   0  0  0  0  0  0  0  0  0  0  0  0
  -31.0490  -20.7690   22.4210 F   0  0  0  0  0  0  0  0  0  0  0  0
  -31.3100  -15.7540   23.2700 Cl  0  0  0  0  0  0  0  0  0  0  0  0
  -30.8090  -14.5450   20.1010 C   0  0  0  0  0  0  0  0  0  0  0  0
  -30.4740  -12.3850   18.9310 C   0  0  0  0  0  2  0  0  0  0  0  0
  -29.4780  -12.6050   17.7720 C   0  0  0  0  0  2  0  0  0  0  0  0
  -28.0210  -12.4860   18.2630 C   0  0  0  0  0  2  0  0  0  0  0  0
  -27.7510  -13.3110   19.5490 C   0  0  0  0  0  3  0  0  0  0  0  0
  -28.8480  -13.0450   20.6060 C   0  0  0  0  0  2  0  0  0  0  0  0
  -30.1470  -13.3580   19.9860 N   0  0  0  0  0  0  0  0  0  0  0  0
  -31.9400  -14.7260   19.6390 O   0  0  0  0  0  0  0  0  0  0  0  0
  -30.0340  -15.5640   20.5470 N   0  0  0  0  0  0  0  0  0  0  0  0
  -29.1110  -15.2700   20.8280 H   0  0  0  0  0  0  0  0  0  0  0  0
  -25.3970  -13.9720   20.3510 C   0  0  0  0  0  0  0  0  0  0  0  0
  -24.3260  -13.2250   20.7630 C   0  0  0  0  0  0  0  0  0  0  0  0
  -24.7550  -11.8620   20.7140 C   0  0  0  0  0  0  0  0  0  0  0  0
  -26.4120  -13.0670   20.0790 N   0  0  0  0  0  0  0  0  0  0  0  0
  -26.0310  -11.7930   20.3540 N   0  0  0  0  0  0  0  0  0  0  0  0
  -24.0070  -10.6180   20.9310 C   0  0  0  0  0  0  0  0  0  0  0  0
  -24.4510   -9.6400   21.8480 C   0  0  0  0  0  3  0  0  0  0  0  0
  -23.7060   -8.4590   22.0530 C   0  0  0  0  0  3  0  0  0  0  0  0
  -22.5030   -8.2460   21.3410 C   0  0  0  0  0  0  0  0  0  0  0  0
  -22.0760   -9.2130   20.4120 C   0  0  0  0  0  3  0  0  0  0  0  0
  -22.8220  -10.3850   20.2060 C   0  0  0  0  0  3  0  0  0  0  0  0
  -21.7280   -7.1170   21.4550 O   0  0  0  0  0  0  0  0  0  0  0  0
  -21.6950   -6.3820   22.6130 C   0  0  0  0  0  0  0  0  0  0  0  0
  -21.3320   -6.9560   23.8500 C   0  0  0  0  0  3  0  0  0  0  0  0
  -21.2440   -6.1480   25.0030 C   0  0  0  0  0  3  0  0  0  0  0  0
  -21.5090   -4.7680   24.9180 C   0  0  0  0  0  0  0  0  0  0  0  0
  -21.8660   -4.1940   23.6850 C   0  0  0  0  0  3  0  0  0  0  0  0
  -21.9560   -4.9990   22.5360 C   0  0  0  0  0  0  0  0  0  0  0  0
  -22.2790   -4.4370   21.3460 F   0  0  0  0  0  0  0  0  0  0  0  0
  -21.4180   -3.9910   26.0210 F   0  0  0  0  0  0  0  0  0  0  0  0
  -22.9530  -13.7330   21.0910 C   0  0  0  0  0  0  0  0  0  0  0  0
  -22.2470  -13.0600   21.9920 N   0  0  0  0  0  0  0  0  0  0  0  0
  -22.5150  -14.7640   20.5800 O   0  0  0  0  0  0  0  0  0  0  0  0
  -22.6150  -12.2270   22.4260 H   0  0  0  0  0  0  0  0  0  0  0  0
  -21.3260  -13.3850   22.2520 H   0  0  0  0  0  0  0  0  0  0  0  0
  -25.5840  -15.3380   20.1650 N   0  0  0  0  0  0  0  0  0  0  0  0
  -24.8300  -16.0030   20.2970 H   0  0  0  0  0  0  0  0  0  0  0  0
  -26.4150  -15.7590   19.7720 H   0  0  0  0  0  0  0  0  0  0  0  0
  -29.1760  -21.7180   20.3660 N   0  0  0  0  0  4  0  0  0  0  0  0
  -29.3960  -21.7820   21.3480 H   0  0  0  0  0  0  0  0  0  0  0  0
  -28.2110  -21.4450   20.2730 H   0  0  0  0  0  0  0  0  0  0  0  0
  -29.3850  -23.0680   19.7390 C   0  0  0  0  0  2  0  0  0  0  0  0
  -28.2240  -24.1290   19.8430 C   0  0  0  0  0  2  0  0  0  0  0  0
  -28.3650  -25.2980   20.8710 C   0  0  0  0  0  2  0  0  0  0  0  0
  -28.3860  -26.6390   20.3170 O   0  0  0  0  0  0  0  0  0  0  0  0
  -24.5780  -31.9260   23.2740 C   0  0  0  0  0  0  0  0  0  0  0  0
  -27.2120  -27.3750   20.3220 C   0  0  0  0  0  0  0  0  0  0  0  0
  -23.3750  -30.5020   21.6490 C   0  0  0  0  0  3  0  0  0  0  0  0
  -24.8290  -28.9160   20.2720 C   0  0  0  0  0  0  0  0  0  0  0  0
  -25.9070  -30.8300   21.4650 C   0  0  0  0  0  2  0  0  0  0  0  0
  -25.9870  -29.4430   20.8550 C   0  0  0  0  0  0  0  0  0  0  0  0
  -27.1830  -28.6830   20.8670 C   0  0  0  0  0  3  0  0  0  0  0  0
  -26.0350  -26.8620   19.7400 C   0  0  0  0  0  3  0  0  0  0  0  0
  -24.8490  -27.6250   19.7090 C   0  0  0  0  0  3  0  0  0  0  0  0
  -23.5910  -29.7890   20.2860 C   0  0  0  0  0  2  0  0  0  0  0  0
  -24.6380  -31.1030   22.1870 N   0  0  0  0  0  0  0  0  0  0  0  0
  -23.4950  -32.2170   23.7990 O   0  0  0  0  0  0  0  0  0  0  0  0
  -22.7060  -29.5090   22.6250 C   0  0  0  0  0  0  0  0  0  0  0  0
  -21.3850  -29.3190   22.4770 N   0  0  0  0  0  0  0  0  0  0  0  0
  -23.3740  -28.9080   23.4710 O   0  0  0  0  0  0  0  0  0  0  0  0
  -20.9090  -29.8550   21.7640 H   0  0  0  0  0  0  0  0  0  0  0  0
  -18.0110  -28.0950   22.9000 C   0  0  0  0  0  0  0  0  0  0  0  0
  -20.5530  -28.4000   23.2540 C   0  0  0  0  0  3  0  0  0  0  0  0
  -20.6960  -26.9500   22.7370 C   0  0  0  0  0  2  0  0  0  0  0  0
  -19.6360  -26.5720   21.6980 C   0  0  0  0  0  2  0  0  0  0  0  0
  -18.2300  -26.7230   22.2860 C   0  0  0  0  0  2  0  0  0  0  0  0
  -19.1030  -28.8890   23.3410 C   0  0  0  0  0  0  0  0  0  0  0  0
  -18.8470  -30.1710   23.8730 C   0  0  0  0  0  3  0  0  0  0  0  0
  -17.5300  -30.6600   23.9720 C   0  0  0  0  0  3  0  0  0  0  0  0
  -16.4520  -29.8630   23.5500 C   0  0  0  0  0  3  0  0  0  0  0  0
  -16.6930  -28.5830   23.0190 C   0  0  0  0  0  3  0  0  0  0  0  0
  -25.8650  -32.5580   23.8940 C   0  0  0  0  0  3  0  0  0  0  0  0
  -25.5580  -33.9590   24.2170 N   0  0  0  0  0  0  0  0  0  0  0  0
  -25.8940  -35.0060   23.4510 C   0  0  0  0  0  0  0  0  0  0  0  0
  -26.5630  -34.8940   22.4200 O   0  0  0  0  0  0  0  0  0  0  0  0
  -24.9670  -34.1180   25.0180 H   0  0  0  0  0  0  0  0  0  0  0  0
  -24.1630  -36.7930   23.0920 C   0  0  0  0  0  1  0  0  0  0  0  0
  -25.4090  -36.3970   23.8990 C   0  0  0  0  0  3  0  0  0  0  0  0
  -27.5490  -37.2860   24.7080 C   0  0  0  0  0  1  0  0  0  0  0  0
  -26.4390  -37.4500   23.7720 N   0  0  0  0  0  0  0  0  0  0  0  0
  -26.0350  -38.3720   23.9180 H   0  0  0  0  0  0  0  0  0  0  0  0
  -26.3780  -31.7940   25.1760 C   0  0  1  0  0  0  0  0  0  0  0  0
  -25.2820  -31.5610   26.2430 C   0  0  0  0  0  1  0  0  0  0  0  0
  -26.9590  -30.4160   24.7860 C   0  0  0  0  0  1  0  0  0  0  0  0
  -27.5290  -32.5890   25.8360 C   0  0  0  0  0  1  0  0  0  0  0  0
  1 48  1  0
  1  4  1  0
  2  4  2  0
  2  5  1  0
  4  6  1  0
  5  7  2  0
  6  8  1  0
  6  3  2  0
  7  3  1  0
  7  9  1  0
 10 18  1  0
 11 16  1  0
 12 13  1  0
 12 11  1  0
 14 13  1  0
 14 23  1  0
 14 15  1  0
 16 10  1  0
 16 15  1  0
 17 10  2  0
 18 19  1  0
 18  5  1  0
 20 21  2  0
 21 40  1  0
 22 21  1  0
 22 25  1  0
 23 20  1  0
 23 24  1  0
 24 22  2  0
 25 26  1  0
 26 27  2  0
 28 31  1  0
 28 27  1  0
 29 28  2  0
 30 29  1  0
 30 25  2  0
 31 32  1  0
 32 33  1  0
 33 34  2  0
 35 34  1  0
 35 39  1  0
 36 35  2  0
 37 32  2  0
 37 36  1  0
 38 37  1  0
 40 41  1  0
 41 44  1  0
 41 43  1  0
 42 40  2  0
 45 46  1  0
 45 20  1  0
 47 45  1  0
 48 49  1  0
 50 48  1  0
 51 52  1  0
 51 48  1  0
 52 53  1  0
 54 56  1  0
 54 53  1  0
 55 66  2  0
 56 61  1  0
 57 65  1  0
 57 67  1  0
 58 64  1  0
 58 60  1  0
 59 65  1  0
 60 61  2  0
 60 59  1  0
 62 56  2  0
 63 62  1  0
 63 58  2  0
 64 57  1  0
 65 55  1  0
 67 69  2  0
 68 67  1  0
 70 68  1  0
 71 80  2  0
 71 76  1  0
 72 68  1  0
 72 76  1  0
 73 72  1  0
 74 75  1  0
 74 73  1  0
 75 71  1  0
 76 77  2  0
 77 78  1  0
 79 78  2  0
 80 79  1  0
 81 55  1  0
 81 82  1  0
 81 91  1  0
 82 85  1  0
 83 87  1  0
 83 82  1  0
 84 83  2  0
 87 86  1  0
 89 87  1  0
 89 90  1  0
 89 88  1  0
 91 94  1  1
 91 92  1  0
 93 91  1  0
M  ISO  4  10 100  18 100  53 101  54 101
M  END
>  <TORSDO>  (34) 
F 21

>  <SCORE>  (34) 
-11.797

>  <name>  (34) 
33

>  <ligand_id>  (34) 
33

>  <original_smiles>  (34) 
[H]c1c([H])c([H])c2c(c1[H])C([H])([H])C([H])([H])C([H])([H])C2([H])N([H])C(=O)C1([H])N(C(=O)C([H])(N([H])C(=O)C([H])(N([H])C([H])([H])[H])C([H])([H])[H])C(C([H])([H])[H])(C([H])([H])[H])C([H])([H])[H])C([H])([H])c2c([H])c(OC([H])([H])C([H])([H])C([H])([H])[N+]([H])([H])C([H])([H])c3c([H])c(N([H])C(=O)N4C([H])([H])C([H])([H])C([H])([H])C([H])(n5nc(-c6c([H])c([H])c(Oc7c([H])c([H])c(F)c([H])c7F)c([H])c6[H])c(C(=O)N([H])[H])c5N([H])[H])C4([H])[H])c(Cl)c([H])c3F)c([H])c([H])c2C1([H])[H]

>  <smiles>  (34) 
[H]c1c([H])c([H])c2c(c1[H])C([H])([H])C([H])([H])C([H])([H])C2([H])N([H])C(=O)C1([H])N(C(=O)C([H])(N([H])C(=O)C([H])(N([H])C([H])([H])[H])C([H])([H])[H])C(C([H])([H])[H])(C([H])([H])[H])C([H])([H])[H])C([H])([H])c2c([H])c(OC([H])([H])C([H])([H])C([H])([H])[N+]([H])([H])C([H])([H])c3c([H])c(N([H])C(=O)N4C([H])([H])C([H])([H])C([H])([H])C([H])(n5nc(-c6c([H])c([H])c(Oc7c([H])c([H])c(F)c([H])c7F)c([H])c6[H])c(C(=O)N([H])[H])c5N([H])[H])C4([H])[H])c(Cl)c([H])c3F)c([H])c([H])c2C1([H])[H]

$$$$
34:0:0
     RDKit          3D

 94102  0  0  1  0  0  0  0  0999 V2000
  -29.3390  -20.0050   20.3870 C   0  0  0  0  0  3  0  0  0  0  0  0
  -30.7270  -19.7690   22.3580 C   0  0  0  0  0  3  0  0  0  0  0  0
  -30.1030  -20.6110   21.4090 C   0  0  0  0  0  0  0  0  0  0  0  0
  -29.1880  -18.5940   20.3220 C   0  0  0  0  0  0  0  0  0  0  0  0
  -29.8190  -17.7540   21.2810 C   0  0  0  0  0  0  0  0  0  0  0  0
  -30.5840  -18.3640   22.3020 C   0  0  0  0  0  0  0  0  0  0  0  0
  -28.3290  -18.0060   19.2140 C   0  0  0  0  0  1  0  0  0  0  0  0
  -31.1890  -17.6030   23.2440 F   0  0  0  0  0  0  0  0  0  0  0  0
  -30.3080  -22.1400   21.5110 C   0  0  0  0  0  2  0  0  0  0  0  0
  -29.4410  -24.3050   20.6080 C   0  0  0  0  0  0  0  0  0  0  0  0
  -27.8530  -22.5910   21.4540 C   0  0  0  0  0  1  0  0  0  0  0  0
  -29.2040  -23.0460   21.0970 N   0  0  0  0  0  0  0  0  0  0  0  0
  -30.5800  -24.7850   20.5690 O   0  0  0  0  0  0  0  0  0  0  0  0
  -28.2650  -25.1510   20.0390 C   0  0  0  0  0  2  0  0  0  0  0  0
  -28.4850  -26.5900   20.0690 O   0  0  0  0  0  0  0  0  0  0  0  0
  -24.6160  -31.7300   23.1550 C   0  0  0  0  0  0  0  0  0  0  0  0
  -27.3340  -27.3630   20.0020 C   0  0  0  0  0  0  0  0  0  0  0  0
  -23.4360  -30.3360   21.4880 C   0  0  0  0  0  3  0  0  0  0  0  0
  -24.9190  -28.8570   20.0330 C   0  0  0  0  0  0  0  0  0  0  0  0
  -25.9610  -30.7350   21.3060 C   0  0  0  0  0  2  0  0  0  0  0  0
  -26.0720  -29.3790   20.6310 C   0  0  0  0  0  0  0  0  0  0  0  0
  -27.2830  -28.6420   20.6120 C   0  0  0  0  0  3  0  0  0  0  0  0
  -26.1610  -26.8820   19.3680 C   0  0  0  0  0  3  0  0  0  0  0  0
  -24.9590  -27.6080   19.3970 C   0  0  0  0  0  3  0  0  0  0  0  0
  -23.6610  -29.6940   20.0950 C   0  0  0  0  0  2  0  0  0  0  0  0
  -24.6890  -30.9480   22.0400 N   0  0  0  0  0  0  0  0  0  0  0  0
  -23.5300  -31.9720   23.7020 O   0  0  0  0  0  0  0  0  0  0  0  0
  -22.8070  -29.2810   22.4280 C   0  0  0  0  0  0  0  0  0  0  0  0
  -21.4890  -29.0660   22.2910 N   0  0  0  0  0  0  0  0  0  0  0  0
  -23.5020  -28.6630   23.2400 O   0  0  0  0  0  0  0  0  0  0  0  0
  -20.9900  -29.6180   21.6090 H   0  0  0  0  0  0  0  0  0  0  0  0
  -18.1510  -27.7580   22.7400 C   0  0  0  0  0  0  0  0  0  0  0  0
  -20.6950  -28.0960   23.0450 C   0  0  0  0  0  3  0  0  0  0  0  0
  -20.8490  -26.6730   22.4630 C   0  0  0  0  0  2  0  0  0  0  0  0
  -19.7740  -26.3230   21.4290 C   0  0  0  0  0  2  0  0  0  0  0  0
  -18.3810  -26.4200   22.0600 C   0  0  0  0  0  2  0  0  0  0  0  0
  -19.2390  -28.5520   23.1890 C   0  0  0  0  0  0  0  0  0  0  0  0
  -18.9730  -29.8040   23.7840 C   0  0  0  0  0  3  0  0  0  0  0  0
  -17.6520  -30.2630   23.9360 C   0  0  0  0  0  3  0  0  0  0  0  0
  -16.5770  -29.4660   23.5060 C   0  0  0  0  0  3  0  0  0  0  0  0
  -16.8280  -28.2150   22.9150 C   0  0  0  0  0  3  0  0  0  0  0  0
  -25.8910  -32.3740   23.7820 C   0  0  0  0  0  3  0  0  0  0  0  0
  -26.4290  -31.5920   25.0430 C   0  0  1  0  0  0  0  0  0  0  0  0
  -25.3450  -31.3150   26.1110 C   0  0  0  0  0  1  0  0  0  0  0  0
  -27.0380  -30.2340   24.6250 C   0  0  0  0  0  1  0  0  0  0  0  0
  -27.5630  -32.3970   25.7160 C   0  0  0  0  0  1  0  0  0  0  0  0
  -25.5550  -33.7600   24.1380 N   0  0  0  0  0  0  0  0  0  0  0  0
  -25.8570  -34.8310   23.3930 C   0  0  0  0  0  0  0  0  0  0  0  0
  -26.5240  -34.7600   22.3570 O   0  0  0  0  0  0  0  0  0  0  0  0
  -24.9650  -33.8870   24.9470 H   0  0  0  0  0  0  0  0  0  0  0  0
  -24.0850  -36.5870   23.0780 C   0  0  0  0  0  1  0  0  0  0  0  0
  -25.3400  -36.2000   23.8760 C   0  0  0  0  0  3  0  0  0  0  0  0
  -27.4570  -37.1210   24.7100 C   0  0  0  0  0  1  0  0  0  0  0  0
  -26.3460  -37.2790   23.7750 N   0  0  0  0  0  0  0  0  0  0  0  0
  -25.9190  -38.1860   23.9440 H   0  0  0  0  0  0  0  0  0  0  0  0
  -29.6890  -16.2190   21.2500 C   0  0  0  0  0  2  0  0  0  0  0  0
  -31.1110  -14.4580   20.1160 C   0  0  0  0  0  0  0  0  0  0  0  0
  -30.6720  -12.3430   18.9430 C   0  0  0  0  0  2  0  0  0  0  0  0
  -29.7160  -12.6330   17.7690 C   0  0  0  0  0  2  0  0  0  0  0  0
  -28.2490  -12.5390   18.2340 C   0  0  0  0  0  2  0  0  0  0  0  0
  -27.9790  -13.3450   19.5330 C   0  0  0  0  0  3  0  0  0  0  0  0
  -29.0590  -13.0620   20.6050 C   0  0  0  0  0  2  0  0  0  0  0  0
  -30.3670  -13.3270   19.9940 N   0  0  0  0  0  0  0  0  0  0  0  0
  -32.2730  -14.5340   19.7190 O   0  0  0  0  0  0  0  0  0  0  0  0
  -30.4290  -15.6130   20.1420 N   0  0  0  0  0  0  0  0  0  0  0  0
  -30.9560  -16.3210   19.6520 H   0  0  0  0  0  0  0  0  0  0  0  0
  -25.6110  -14.0130   20.2850 C   0  0  0  0  0  0  0  0  0  0  0  0
  -24.5340  -13.2700   20.6790 C   0  0  0  0  0  0  0  0  0  0  0  0
  -24.9610  -11.9060   20.6450 C   0  0  0  0  0  0  0  0  0  0  0  0
  -26.6300  -13.1050   20.0380 N   0  0  0  0  0  0  0  0  0  0  0  0
  -26.2430  -11.8350   20.3130 N   0  0  0  0  0  0  0  0  0  0  0  0
  -24.2090  -10.6630   20.8550 C   0  0  0  0  0  0  0  0  0  0  0  0
  -24.6160   -9.7080   21.8120 C   0  0  0  0  0  3  0  0  0  0  0  0
  -23.8670   -8.5280   22.0090 C   0  0  0  0  0  3  0  0  0  0  0  0
  -22.6990   -8.2940   21.2490 C   0  0  0  0  0  0  0  0  0  0  0  0
  -22.3090   -9.2370   20.2810 C   0  0  0  0  0  3  0  0  0  0  0  0
  -23.0580  -10.4100   20.0830 C   0  0  0  0  0  3  0  0  0  0  0  0
  -21.9250   -7.1640   21.3510 O   0  0  0  0  0  0  0  0  0  0  0  0
  -21.8100   -6.4750   22.5330 C   0  0  0  0  0  0  0  0  0  0  0  0
  -21.3440   -7.0930   23.7140 C   0  0  0  0  0  3  0  0  0  0  0  0
  -21.1740   -6.3320   24.8880 C   0  0  0  0  0  3  0  0  0  0  0  0
  -21.4600   -4.9540   24.8820 C   0  0  0  0  0  0  0  0  0  0  0  0
  -21.9200   -4.3360   23.7060 C   0  0  0  0  0  3  0  0  0  0  0  0
  -22.0910   -5.0940   22.5340 C   0  0  0  0  0  0  0  0  0  0  0  0
  -22.5120   -4.4880   21.3970 F   0  0  0  0  0  0  0  0  0  0  0  0
  -21.2920   -4.2190   26.0060 F   0  0  0  0  0  0  0  0  0  0  0  0
  -23.1530  -13.7820   20.9770 C   0  0  0  0  0  0  0  0  0  0  0  0
  -22.4350  -13.1150   21.8710 N   0  0  0  0  0  0  0  0  0  0  0  0
  -22.7270  -14.8110   20.4510 O   0  0  0  0  0  0  0  0  0  0  0  0
  -22.8000  -12.2810   22.3080 H   0  0  0  0  0  0  0  0  0  0  0  0
  -21.5120  -13.4390   22.1250 H   0  0  0  0  0  0  0  0  0  0  0  0
  -25.8080  -15.3780   20.1000 N   0  0  0  0  0  0  0  0  0  0  0  0
  -25.0720  -16.0570   20.2560 H   0  0  0  0  0  0  0  0  0  0  0  0
  -26.6510  -15.7790   19.7100 H   0  0  0  0  0  0  0  0  0  0  0  0
  1  3  1  0
  3  9  1  0
  3  2  2  0
  4  1  2  0
  4  5  1  0
  5  6  2  0
  6  2  1  0
  6  8  1  0
  7  4  1  0
 10 12  1  0
 12 11  1  0
 12  9  1  0
 13 10  2  0
 14 15  1  0
 14 10  1  0
 16 27  2  0
 17 15  1  0
 17 22  1  0
 18 26  1  0
 18 28  1  0
 19 25  1  0
 19 21  1  0
 20 26  1  0
 21 20  1  0
 22 21  2  0
 23 24  1  0
 23 17  2  0
 24 19  2  0
 25 18  1  0
 26 16  1  0
 28 30  2  0
 29 28  1  0
 31 29  1  0
 32 41  2  0
 32 37  1  0
 33 29  1  0
 33 37  1  0
 34 33  1  0
 35 36  1  0
 35 34  1  0
 36 32  1  0
 37 38  2  0
 38 39  1  0
 40 39  2  0
 41 40  1  0
 42 16  1  0
 42 47  1  0
 42 43  1  0
 43 46  1  1
 43 44  1  0
 45 43  1  0
 47 50  1  0
 48 52  1  0
 48 47  1  0
 49 48  2  0
 52 51  1  0
 54 52  1  0
 54 55  1  0
 54 53  1  0
 56  5  1  0
 57 65  1  0
 58 63  1  0
 59 60  1  0
 59 58  1  0
 61 60  1  0
 61 70  1  0
 61 62  1  0
 63 57  1  0
 63 62  1  0
 64 57  2  0
 65 56  1  0
 66 65  1  0
 67 68  2  0
 68 87  1  0
 69 68  1  0
 69 72  1  0
 70 67  1  0
 70 71  1  0
 71 69  2  0
 72 73  1  0
 73 74  2  0
 75 78  1  0
 75 74  1  0
 76 75  2  0
 77 76  1  0
 77 72  2  0
 78 79  1  0
 79 84  2  0
 79 80  1  0
 80 81  2  0
 82 81  1  0
 82 86  1  0
 83 82  2  0
 84 83  1  0
 85 84  1  0
 87 88  1  0
 88 91  1  0
 88 90  1  0
 89 87  2  0
 92 93  1  0
 92 67  1  0
 94 92  1  0
M  ISO  4  14 101  15 101  57 100  65 100
M  END
>  <TORSDO>  (35) 
F 20

>  <SCORE>  (35) 
-13.496

>  <name>  (35) 
34

>  <ligand_id>  (35) 
34

>  <original_smiles>  (35) 
[H]c1c([H])c([H])c2c(c1[H])C([H])([H])C([H])([H])C([H])([H])C2([H])N([H])C(=O)C1([H])N(C(=O)C([H])(N([H])C(=O)C([H])(N([H])C([H])([H])[H])C([H])([H])[H])C(C([H])([H])[H])(C([H])([H])[H])C([H])([H])[H])C([H])([H])c2c([H])c(OC([H])([H])C(=O)N(C([H])([H])[H])C([H])([H])c3c([H])c(F)c(C([H])([H])N([H])C(=O)N4C([H])([H])C([H])([H])C([H])([H])C([H])(n5nc(-c6c([H])c([H])c(Oc7c([H])c([H])c(F)c([H])c7F)c([H])c6[H])c(C(=O)N([H])[H])c5N([H])[H])C4([H])[H])c(C([H])([H])[H])c3[H])c([H])c([H])c2C1([H])[H]

>  <smiles>  (35) 
[H]c1c([H])c([H])c2c(c1[H])C([H])([H])C([H])([H])C([H])([H])C2([H])N([H])C(=O)C1([H])N(C(=O)C([H])(N([H])C(=O)C([H])(N([H])C([H])([H])[H])C([H])([H])[H])C(C([H])([H])[H])(C([H])([H])[H])C([H])([H])[H])C([H])([H])c2c([H])c(OC([H])([H])C(=O)N(C([H])([H])[H])C([H])([H])c3c([H])c(F)c(C([H])([H])N([H])C(=O)N4C([H])([H])C([H])([H])C([H])([H])C([H])(n5nc(-c6c([H])c([H])c(Oc7c([H])c([H])c(F)c([H])c7F)c([H])c6[H])c(C(=O)N([H])[H])c5N([H])[H])C4([H])[H])c(C([H])([H])[H])c3[H])c([H])c([H])c2C1([H])[H]

$$$$
35:0:0
     RDKit          3D

101109  0  0  1  0  0  0  0  0999 V2000
  -26.3690  -26.7600   20.8170 C   0  0  0  0  0  2  0  0  0  0  0  0
  -26.0860  -27.9940   18.7910 C   0  0  0  0  0  2  0  0  0  0  0  0
  -24.9700  -25.7410   23.8810 C   0  0  0  0  0  2  0  0  0  0  0  0
  -26.2930  -26.2120   24.4550 C   0  0  0  0  0  2  0  0  0  0  0  0
  -25.0480  -24.3420   23.2460 C   0  0  0  0  0  2  0  0  0  0  0  0
  -27.4500  -26.1040   23.4470 C   0  0  0  0  0  2  0  0  0  0  0  0
  -25.1740  -24.4210   21.6990 C   0  0  0  0  0  2  0  0  0  0  0  0
  -27.4240  -26.9260   22.0970 C   0  0  0  0  0  3  0  0  0  0  0  0
  -26.4840  -24.9720   21.2020 N   0  0  1  0  0  4  0  0  0  0  0  0
  -26.8220  -25.1290   22.1390 H   0  0  0  0  0  0  0  0  0  0  0  0
  -27.7180  -23.8000   20.9520 C   0  0  0  0  0  2  0  0  0  0  0  0
  -28.8850  -20.9590   20.8720 C   0  0  0  0  0  3  0  0  0  0  0  0
  -29.0170  -19.4950   20.3720 C   0  0  0  0  0  0  0  0  0  0  0  0
  -28.0110  -22.1390   20.3610 C   0  0  0  0  0  0  0  0  0  0  0  0
  -28.0110  -19.3070   19.4010 C   0  0  0  0  0  0  0  0  0  0  0  0
  -27.4600  -21.7600   19.0910 C   0  0  0  0  0  0  0  0  0  0  0  0
  -27.4340  -20.3870   18.6630 C   0  0  0  0  0  0  0  0  0  0  0  0
  -27.3890  -17.9320   19.2820 C   0  0  0  0  0  1  0  0  0  0  0  0
  -26.8280  -22.7820   18.1290 C   0  0  0  0  0  1  0  0  0  0  0  0
  -26.7190  -20.0080   17.3620 C   0  0  0  0  0  1  0  0  0  0  0  0
  -30.0680  -18.1120   20.7850 C   0  0  0  0  0  2  0  0  0  0  0  0
  -30.7620  -15.1810   20.5440 C   0  0  0  0  0  0  0  0  0  0  0  0
  -30.7810  -12.7250   19.6500 C   0  0  0  0  0  2  0  0  0  0  0  0
  -29.8940  -12.5380   18.3870 C   0  0  0  0  0  2  0  0  0  0  0  0
  -28.4250  -12.2910   18.7810 C   0  0  0  0  0  2  0  0  0  0  0  0
  -27.9660  -13.2680   19.8880 C   0  0  0  0  0  3  0  0  0  0  0  0
  -28.9680  -13.3800   21.0490 C   0  0  0  0  0  2  0  0  0  0  0  0
  -30.2210  -13.8680   20.4670 N   0  0  0  0  0  0  0  0  0  0  0  0
  -31.9850  -15.1980   20.3110 O   0  0  0  0  0  0  0  0  0  0  0  0
  -29.9430  -16.4240   20.7080 N   0  0  0  0  0  0  0  0  0  0  0  0
  -28.9880  -16.1400   20.8520 H   0  0  0  0  0  0  0  0  0  0  0  0
  -25.6160  -13.9010   20.6320 C   0  0  0  0  0  0  0  0  0  0  0  0
  -24.5140  -13.1780   20.9740 C   0  0  0  0  0  0  0  0  0  0  0  0
  -24.9090  -11.8100   20.8680 C   0  0  0  0  0  0  0  0  0  0  0  0
  -26.6170  -12.9940   20.3570 N   0  0  0  0  0  0  0  0  0  0  0  0
  -26.2010  -11.7210   20.5650 N   0  0  0  0  0  0  0  0  0  0  0  0
  -24.1100  -10.5870   20.9690 C   0  0  0  0  0  0  0  0  0  0  0  0
  -24.4990   -9.5230   21.8080 C   0  0  0  0  0  3  0  0  0  0  0  0
  -23.6980   -8.3660   21.9040 C   0  0  0  0  0  3  0  0  0  0  0  0
  -22.5000   -8.2660   21.1600 C   0  0  0  0  0  0  0  0  0  0  0  0
  -22.1290   -9.3230   20.3090 C   0  0  0  0  0  3  0  0  0  0  0  0
  -22.9290  -10.4730   20.2070 C   0  0  0  0  0  3  0  0  0  0  0  0
  -21.6720   -7.1710   21.1760 O   0  0  0  0  0  0  0  0  0  0  0  0
  -21.5970   -6.3440   22.2680 C   0  0  0  0  0  0  0  0  0  0  0  0
  -21.2430   -6.8320   23.5460 C   0  0  0  0  0  3  0  0  0  0  0  0
  -21.1100   -5.9370   24.6270 C   0  0  0  0  0  3  0  0  0  0  0  0
  -21.3190   -4.5600   24.4320 C   0  0  0  0  0  0  0  0  0  0  0  0
  -21.6650   -4.0720   23.1600 C   0  0  0  0  0  3  0  0  0  0  0  0
  -21.8020   -4.9610   22.0800 C   0  0  0  0  0  0  0  0  0  0  0  0
  -22.1170   -4.4870   20.8520 F   0  0  0  0  0  0  0  0  0  0  0  0
  -21.1820   -3.6980   25.4680 F   0  0  0  0  0  0  0  0  0  0  0  0
  -23.1470  -13.7270   21.2530 C   0  0  0  0  0  0  0  0  0  0  0  0
  -22.3740  -13.0600   22.1010 N   0  0  0  0  0  0  0  0  0  0  0  0
  -22.7720  -14.7850   20.7470 O   0  0  0  0  0  0  0  0  0  0  0  0
  -22.6850  -12.2000   22.5300 H   0  0  0  0  0  0  0  0  0  0  0  0
  -21.4530  -13.4090   22.3190 H   0  0  0  0  0  0  0  0  0  0  0  0
  -25.8270  -15.2540   20.4850 N   0  0  0  0  0  0  0  0  0  0  0  0
  -25.0330  -15.8840   20.5330 H   0  0  0  0  0  0  0  0  0  0  0  0
  -26.5920  -15.6200   19.9360 H   0  0  0  0  0  0  0  0  0  0  0  0
  -28.9220  -26.8290   21.5060 C   0  0  0  0  0  2  0  0  0  0  0  0
  -29.0050  -26.6730   20.0600 O   0  0  0  0  0  0  0  0  0  0  0  0
  -24.5760  -31.8850   23.3610 C   0  0  0  0  0  0  0  0  0  0  0  0
  -28.1640  -27.5060   19.4310 C   0  0  0  0  0  2  0  0  0  0  0  0
  -23.3890  -30.5530   21.6170 C   0  0  0  0  0  3  0  0  0  0  0  0
  -24.6180  -28.6630   20.4250 C   0  0  0  0  0  3  0  0  0  0  0  0
  -25.9150  -30.9530   21.5150 C   0  0  0  0  0  2  0  0  0  0  0  0
  -26.1250  -29.5340   21.1000 C   0  0  0  0  0  3  0  0  0  0  0  0
  -27.8790  -29.0410   20.6070 C   0  0  0  0  0  2  0  0  0  0  0  0
  -26.5810  -26.5530   18.6540 C   0  0  0  0  0  1  0  0  0  0  0  0
  -24.7760  -27.1570   19.2220 C   0  0  0  0  0  2  0  0  0  0  0  0
  -23.5670  -29.7540   20.2890 C   0  0  0  0  0  2  0  0  0  0  0  0
  -24.6470  -31.1430   22.2180 N   0  0  0  0  0  0  0  0  0  0  0  0
  -23.4810  -32.1290   23.8920 O   0  0  0  0  0  0  0  0  0  0  0  0
  -22.7070  -29.5410   22.5370 C   0  0  0  0  0  0  0  0  0  0  0  0
  -21.4150  -29.3160   22.2880 N   0  0  0  0  0  0  0  0  0  0  0  0
  -23.3540  -28.9190   23.3780 O   0  0  0  0  0  0  0  0  0  0  0  0
  -20.9650  -29.8770   21.5840 H   0  0  0  0  0  0  0  0  0  0  0  0
  -18.0490  -28.0890   22.5890 C   0  0  0  0  0  0  0  0  0  0  0  0
  -20.5940  -28.3000   22.9370 C   0  0  0  0  0  3  0  0  0  0  0  0
  -20.7120  -26.9390   22.2150 C   0  0  0  0  0  2  0  0  0  0  0  0
  -19.6250  -26.7170   21.1570 C   0  0  0  0  0  2  0  0  0  0  0  0
  -18.2330  -26.8070   21.7920 C   0  0  0  0  0  2  0  0  0  0  0  0
  -19.1620  -28.7990   23.1090 C   0  0  0  0  0  0  0  0  0  0  0  0
  -18.9440  -30.0050   23.8090 C   0  0  0  0  0  3  0  0  0  0  0  0
  -17.6410  -30.5040   23.9940 C   0  0  0  0  0  3  0  0  0  0  0  0
  -16.5410  -29.7840   23.4950 C   0  0  0  0  0  3  0  0  0  0  0  0
  -16.7430  -28.5780   22.8010 C   0  0  0  0  0  3  0  0  0  0  0  0
  -25.8500  -32.4690   24.0560 C   0  0  0  0  0  3  0  0  0  0  0  0
  -26.2420  -31.7260   25.3930 C   0  0  1  0  0  0  0  0  0  0  0  0
  -25.0630  -31.5350   26.3730 C   0  0  0  0  0  1  0  0  0  0  0  0
  -26.8170  -30.3260   25.0960 C   0  0  0  0  0  1  0  0  0  0  0  0
  -27.3490  -32.5200   26.1250 C   0  0  0  0  0  1  0  0  0  0  0  0
  -25.5950  -33.8900   24.3140 N   0  0  0  0  0  0  0  0  0  0  0  0
  -25.9760  -34.8900   23.5080 C   0  0  0  0  0  0  0  0  0  0  0  0
  -26.6510  -34.7120   22.4900 O   0  0  0  0  0  0  0  0  0  0  0  0
  -25.0000  -34.1030   25.1000 H   0  0  0  0  0  0  0  0  0  0  0  0
  -24.2960  -36.7130   23.0870 C   0  0  0  0  0  1  0  0  0  0  0  0
  -25.5400  -36.3140   23.8960 C   0  0  0  0  0  3  0  0  0  0  0  0
  -27.7110  -37.1900   24.6360 C   0  0  0  0  0  1  0  0  0  0  0  0
  -26.5970  -37.3270   23.7020 N   0  0  0  0  0  0  0  0  0  0  0  0
  -26.2150  -38.2630   23.7920 H   0  0  0  0  0  0  0  0  0  0  0  0
  1  9  1  0
  1  8  1  0
  2 70  1  0
  3  4  1  0
  5  3  1  0
  6  4  1  0
  7  5  1  0
  8 60  1  0
  8  6  1  0
  9  7  1  0
  9 10  1  1
 11  9  1  0
 13 21  1  0
 13 12  1  0
 14 12  2  0
 14 11  1  0
 15 13  2  0
 16 14  1  0
 17 16  2  0
 17 15  1  0
 18 15  1  0
 19 16  1  0
 20 17  1  0
 22 30  1  0
 23 28  1  0
 24 25  1  0
 24 23  1  0
 26 25  1  0
 26 35  1  0
 26 27  1  0
 28 22  1  0
 28 27  1  0
 29 22  2  0
 30 21  1  0
 30 31  1  0
 32 33  2  0
 33 52  1  0
 34 37  1  0
 34 33  1  0
 35 36  1  0
 35 32  1  0
 36 34  2  0
 37 38  1  0
 38 39  2  0
 40 43  1  0
 40 39  1  0
 41 40  2  0
 42 41  1  0
 42 37  2  0
 43 44  1  0
 44 45  1  0
 45 46  2  0
 47 46  1  0
 47 51  1  0
 48 47  2  0
 49 44  2  0
 49 48  1  0
 50 49  1  0
 52 53  1  0
 53 56  1  0
 53 55  1  0
 54 52  2  0
 57 58  1  0
 57 32  1  0
 59 57  1  0
 61 60  1  0
 62 73  2  0
 63 61  1  0
 63 68  1  0
 64 72  1  0
 64 74  1  0
 65 70  1  0
 65 67  1  0
 66 72  1  0
 67 68  1  0
 67 66  1  0
 69  2  1  0
 71 65  1  0
 71 64  1  0
 72 62  1  0
 74 76  2  0
 75 74  1  0
 77 75  1  0
 78 87  2  0
 78 83  1  0
 79 75  1  0
 79 83  1  0
 80 79  1  0
 81 82  1  0
 81 80  1  0
 82 78  1  0
 83 84  2  0
 84 85  1  0
 86 85  2  0
 87 86  1  0
 88 62  1  0
 88 93  1  0
 88 89  1  0
 89 92  1  1
 89 90  1  0
 91 89  1  0
 93 96  1  0
 94 98  1  0
 94 93  1  0
 95 94  2  0
 98 97  1  0
100101  1  0
100 98  1  0
100 99  1  0
M  ISO  4  22 100  30 100  60 101  61 101
M  END
>  <TORSDO>  (36) 
F 20

>  <SCORE>  (36) 
-15.252

>  <name>  (36) 
35

>  <ligand_id>  (36) 
35

>  <original_smiles>  (36) 
[H]C([H])=C1C([H])(C([H])([H])Oc2c([H])c([H])c3c(c2[H])C([H])([H])N(C(=O)C([H])(N([H])C(=O)C([H])(N([H])C([H])([H])[H])C([H])([H])[H])C(C([H])([H])[H])(C([H])([H])[H])C([H])([H])[H])C([H])(C(=O)N([H])C2([H])c4c([H])c([H])c([H])c([H])c4C([H])([H])C([H])([H])C2([H])[H])C3([H])[H])C([H])([H])C([H])([H])C([H])([H])C([H])([H])C([H])([H])[N+]1([H])C([H])([H])c1c([H])c(C([H])([H])N([H])C(=O)N2C([H])([H])C([H])([H])C([H])([H])C([H])(n3nc(-c4c([H])c([H])c(Oc5c([H])c([H])c(F)c([H])c5F)c([H])c4[H])c(C(=O)N([H])[H])c3N([H])[H])C2([H])[H])c(C([H])([H])[H])c(C([H])([H])[H])c1C([H])([H])[H]

>  <smiles>  (36) 
[H]C([H])=C1C([H])(C([H])([H])Oc2c([H])c([H])c3c(c2[H])C([H])([H])N(C(=O)C([H])(N([H])C(=O)C([H])(N([H])C([H])([H])[H])C([H])([H])[H])C(C([H])([H])[H])(C([H])([H])[H])C([H])([H])[H])C([H])(C(=O)N([H])C2([H])c4c([H])c([H])c([H])c([H])c4C([H])([H])C([H])([H])C2([H])[H])C3([H])[H])C([H])([H])C([H])([H])C([H])([H])C([H])([H])C([H])([H])[N+]1([H])C([H])([H])c1c([H])c(C([H])([H])N([H])C(=O)N2C([H])([H])C([H])([H])C([H])([H])C([H])(n3nc(-c4c([H])c([H])c(Oc5c([H])c([H])c(F)c([H])c5F)c([H])c4[H])c(C(=O)N([H])[H])c3N([H])[H])C2([H])[H])c(C([H])([H])[H])c(C([H])([H])[H])c1C([H])([H])[H]

$$$$
36:0:0
     RDKit          3D

 95103  0  0  1  0  0  0  0  0999 V2000
  -28.9290  -21.5450   19.6610 C   0  0  0  0  0  2  0  0  0  0  0  0
  -30.2280  -17.4710   18.8890 C   0  0  0  0  0  3  0  0  0  0  0  0
  -29.4440  -19.6340   18.1070 C   0  0  0  0  0  3  0  0  0  0  0  0
  -29.8240  -18.3080   17.8370 C   0  0  0  0  0  0  0  0  0  0  0  0
  -30.2900  -17.9420   20.2200 C   0  0  0  0  0  0  0  0  0  0  0  0
  -29.4910  -20.1390   19.4240 C   0  0  0  0  0  0  0  0  0  0  0  0
  -29.9700  -19.3100   20.4820 C   0  0  0  0  0  0  0  0  0  0  0  0
  -29.7760  -17.7650   16.4240 C   0  0  0  0  0  1  0  0  0  0  0  0
  -30.1150  -19.8910   21.8870 C   0  0  0  0  0  1  0  0  0  0  0  0
  -30.7060  -16.9650   21.3380 C   0  0  0  0  0  2  0  0  0  0  0  0
  -30.9230  -14.5840   20.5750 C   0  0  0  0  0  0  0  0  0  0  0  0
  -30.6220  -12.4550   19.3780 C   0  0  0  0  0  2  0  0  0  0  0  0
  -29.7100  -12.6750   18.1530 C   0  0  0  0  0  2  0  0  0  0  0  0
  -28.2250  -12.5410   18.5450 C   0  0  0  0  0  2  0  0  0  0  0  0
  -27.8600  -13.3760   19.8010 C   0  0  0  0  0  3  0  0  0  0  0  0
  -28.8830  -13.1400   20.9360 C   0  0  0  0  0  2  0  0  0  0  0  0
  -30.2280  -13.4280   20.4070 N   0  0  0  0  0  0  0  0  0  0  0  0
  -32.0470  -14.7710   20.1030 O   0  0  0  0  0  0  0  0  0  0  0  0
  -30.2490  -15.5780   21.1680 N   0  0  0  0  0  0  0  0  0  0  0  0
  -29.3290  -15.3590   21.5190 H   0  0  0  0  0  0  0  0  0  0  0  0
  -25.4340  -13.9900   20.4070 C   0  0  0  0  0  0  0  0  0  0  0  0
  -24.3560  -13.2220   20.7600 C   0  0  0  0  0  0  0  0  0  0  0  0
  -24.8240  -11.8720   20.7790 C   0  0  0  0  0  0  0  0  0  0  0  0
  -26.4910  -13.1090   20.2370 N   0  0  0  0  0  0  0  0  0  0  0  0
  -26.1240  -11.8310   20.5180 N   0  0  0  0  0  0  0  0  0  0  0  0
  -24.0960  -10.6110   20.9770 C   0  0  0  0  0  0  0  0  0  0  0  0
  -24.5000   -9.6710   21.9500 C   0  0  0  0  0  3  0  0  0  0  0  0
  -23.7770   -8.4730   22.1330 C   0  0  0  0  0  3  0  0  0  0  0  0
  -22.6330   -8.2070   21.3430 C   0  0  0  0  0  0  0  0  0  0  0  0
  -22.2490   -9.1340   20.3590 C   0  0  0  0  0  3  0  0  0  0  0  0
  -22.9730  -10.3240   20.1740 C   0  0  0  0  0  3  0  0  0  0  0  0
  -21.8820   -7.0610   21.4330 O   0  0  0  0  0  0  0  0  0  0  0  0
  -21.7870   -6.3530   22.6040 C   0  0  0  0  0  0  0  0  0  0  0  0
  -21.3060   -6.9410   23.7930 C   0  0  0  0  0  3  0  0  0  0  0  0
  -21.1630   -6.1600   24.9570 C   0  0  0  0  0  3  0  0  0  0  0  0
  -21.4880   -4.7900   24.9310 C   0  0  0  0  0  0  0  0  0  0  0  0
  -21.9600   -4.2010   23.7440 C   0  0  0  0  0  3  0  0  0  0  0  0
  -22.1080   -4.9810   22.5840 C   0  0  0  0  0  0  0  0  0  0  0  0
  -22.5440   -4.4040   21.4380 F   0  0  0  0  0  0  0  0  0  0  0  0
  -21.3400   -4.0360   26.0450 F   0  0  0  0  0  0  0  0  0  0  0  0
  -22.9480  -13.6990   20.9760 C   0  0  0  0  0  0  0  0  0  0  0  0
  -22.1970  -13.0220   21.8390 N   0  0  0  0  0  0  0  0  0  0  0  0
  -22.5220  -14.7080   20.4150 O   0  0  0  0  0  0  0  0  0  0  0  0
  -22.5560  -12.2080   22.3160 H   0  0  0  0  0  0  0  0  0  0  0  0
  -21.2510  -13.3220   22.0250 H   0  0  0  0  0  0  0  0  0  0  0  0
  -25.6010  -15.3550   20.1970 N   0  0  0  0  0  0  0  0  0  0  0  0
  -24.8270  -16.0090   20.2490 H   0  0  0  0  0  0  0  0  0  0  0  0
  -26.4580  -15.7820   19.8650 H   0  0  0  0  0  0  0  0  0  0  0  0
  -29.8420  -22.6320   19.2410 N   0  0  0  0  0  4  0  0  0  0  0  0
  -30.0800  -22.4630   18.2760 H   0  0  0  0  0  0  0  0  0  0  0  0
  -30.6990  -22.5910   19.7650 H   0  0  0  0  0  0  0  0  0  0  0  0
  -29.2430  -23.9920   19.3230 C   0  0  0  0  0  2  0  0  0  0  0  0
  -29.3330  -24.6210   20.7320 C   0  0  0  0  0  2  0  0  0  0  0  0
  -28.2170  -25.6420   21.0250 C   0  0  0  0  0  2  0  0  0  0  0  0
  -28.3140  -26.8200   20.2210 O   0  0  0  0  0  0  0  0  0  0  0  0
  -24.4960  -31.9900   23.2690 C   0  0  0  0  0  0  0  0  0  0  0  0
  -27.1550  -27.5570   20.2150 C   0  0  0  0  0  0  0  0  0  0  0  0
  -23.2920  -30.5740   21.6350 C   0  0  0  0  0  3  0  0  0  0  0  0
  -24.7510  -29.0330   20.2190 C   0  0  0  0  0  0  0  0  0  0  0  0
  -25.8130  -30.9470   21.4290 C   0  0  0  0  0  2  0  0  0  0  0  0
  -25.9060  -29.5730   20.8030 C   0  0  0  0  0  0  0  0  0  0  0  0
  -27.1140  -28.8400   20.7990 C   0  0  0  0  0  3  0  0  0  0  0  0
  -25.9890  -27.0290   19.6240 C   0  0  0  0  0  3  0  0  0  0  0  0
  -24.7870  -27.7590   19.6280 C   0  0  0  0  0  3  0  0  0  0  0  0
  -23.5020  -29.8840   20.2590 C   0  0  0  0  0  2  0  0  0  0  0  0
  -24.5510  -31.1850   22.1690 N   0  0  0  0  0  0  0  0  0  0  0  0
  -23.4160  -32.2600   23.8110 O   0  0  0  0  0  0  0  0  0  0  0  0
  -22.6460  -29.5560   22.6030 C   0  0  0  0  0  0  0  0  0  0  0  0
  -21.3230  -29.3640   22.4740 N   0  0  0  0  0  0  0  0  0  0  0  0
  -23.3320  -28.9430   23.4240 O   0  0  0  0  0  0  0  0  0  0  0  0
  -20.8310  -29.9140   21.7830 H   0  0  0  0  0  0  0  0  0  0  0  0
  -17.9570  -28.1520   22.9660 C   0  0  0  0  0  0  0  0  0  0  0  0
  -20.5110  -28.4270   23.2500 C   0  0  0  0  0  3  0  0  0  0  0  0
  -20.6260  -26.9910   22.6880 C   0  0  0  0  0  2  0  0  0  0  0  0
  -19.5320  -26.6530   21.6710 C   0  0  0  0  0  2  0  0  0  0  0  0
  -18.1460  -26.7970   22.3070 C   0  0  0  0  0  2  0  0  0  0  0  0
  -19.0690  -28.9240   23.3970 C   0  0  0  0  0  0  0  0  0  0  0  0
  -18.8390  -30.1930   23.9720 C   0  0  0  0  0  3  0  0  0  0  0  0
  -17.5300  -30.6890   24.1240 C   0  0  0  0  0  3  0  0  0  0  0  0
  -16.4340  -29.9130   23.7110 C   0  0  0  0  0  3  0  0  0  0  0  0
  -16.6480  -28.6470   23.1380 C   0  0  0  0  0  3  0  0  0  0  0  0
  -25.7820  -32.6270   23.8820 C   0  0  0  0  0  3  0  0  0  0  0  0
  -25.4730  -34.0260   24.2010 N   0  0  0  0  0  0  0  0  0  0  0  0
  -25.8100  -35.0720   23.4350 C   0  0  0  0  0  0  0  0  0  0  0  0
  -26.4860  -34.9620   22.4070 O   0  0  0  0  0  0  0  0  0  0  0  0
  -24.8760  -34.1860   24.9980 H   0  0  0  0  0  0  0  0  0  0  0  0
  -24.0850  -36.8620   23.0530 C   0  0  0  0  0  1  0  0  0  0  0  0
  -25.3190  -36.4640   23.8780 C   0  0  0  0  0  3  0  0  0  0  0  0
  -27.4470  -37.3520   24.7200 C   0  0  0  0  0  1  0  0  0  0  0  0
  -26.3520  -37.5150   23.7670 N   0  0  0  0  0  0  0  0  0  0  0  0
  -25.9450  -38.4360   23.9060 H   0  0  0  0  0  0  0  0  0  0  0  0
  -26.3070  -31.8650   25.1600 C   0  0  1  0  0  0  0  0  0  0  0  0
  -25.2170  -31.6250   26.2290 C   0  0  0  0  0  1  0  0  0  0  0  0
  -26.9000  -30.4910   24.7700 C   0  0  0  0  0  1  0  0  0  0  0  0
  -27.4500  -32.6710   25.8180 C   0  0  0  0  0  1  0  0  0  0  0  0
  2  5  1  0
  3  6  2  0
  4  3  1  0
  4  2  2  0
  5  7  2  0
  5 10  1  0
  6  1  1  0
  6  7  1  0
  7  9  1  0
  8  4  1  0
 11 19  1  0
 12 17  1  0
 13 14  1  0
 13 12  1  0
 15 14  1  0
 15 24  1  0
 15 16  1  0
 17 11  1  0
 17 16  1  0
 18 11  2  0
 19 10  1  0
 19 20  1  0
 21 22  2  0
 22 23  1  0
 22 41  1  0
 23 26  1  0
 24 21  1  0
 24 25  1  0
 25 23  2  0
 26 27  1  0
 27 28  2  0
 29 32  1  0
 29 28  1  0
 30 29  2  0
 31 30  1  0
 31 26  2  0
 32 33  1  0
 33 34  1  0
 34 35  2  0
 36 35  1  0
 36 40  1  0
 37 36  2  0
 38 33  2  0
 38 37  1  0
 39 38  1  0
 41 42  1  0
 42 45  1  0
 42 44  1  0
 43 41  2  0
 46 47  1  0
 46 21  1  0
 48 46  1  0
 49 52  1  0
 49  1  1  0
 49 51  1  0
 50 49  1  0
 52 53  1  0
 53 54  1  0
 55 54  1  0
 56 67  2  0
 57 55  1  0
 57 62  1  0
 58 66  1  0
 58 68  1  0
 59 65  1  0
 59 61  1  0
 60 66  1  0
 61 60  1  0
 62 61  2  0
 63 64  1  0
 63 57  2  0
 64 59  2  0
 65 58  1  0
 66 56  1  0
 68 70  2  0
 69 68  1  0
 71 69  1  0
 72 81  2  0
 72 77  1  0
 73 69  1  0
 73 77  1  0
 74 73  1  0
 75 76  1  0
 75 74  1  0
 76 72  1  0
 77 78  2  0
 78 79  1  0
 80 79  2  0
 81 80  1  0
 82 56  1  0
 82 83  1  0
 82 92  1  0
 83 86  1  0
 84 88  1  0
 84 83  1  0
 85 84  2  0
 88 87  1  0
 90 88  1  0
 90 91  1  0
 90 89  1  0
 92 95  1  1
 92 93  1  0
 94 92  1  0
M  ISO  4  11 100  19 100  54 101  55 101
M  END
>  <TORSDO>  (37) 
F 22

>  <SCORE>  (37) 
-12.401

>  <name>  (37) 
36

>  <ligand_id>  (37) 
36

>  <original_smiles>  (37) 
[H]c1c([H])c([H])c2c(c1[H])C([H])([H])C([H])([H])C([H])([H])C2([H])N([H])C(=O)C1([H])N(C(=O)C([H])(N([H])C(=O)C([H])(N([H])C([H])([H])[H])C([H])([H])[H])C(C([H])([H])[H])(C([H])([H])[H])C([H])([H])[H])C([H])([H])c2c([H])c(OC([H])([H])C([H])([H])C([H])([H])[N+]([H])([H])C([H])([H])c3c([H])c(C([H])([H])[H])c([H])c(C([H])([H])N([H])C(=O)N4C([H])([H])C([H])([H])C([H])([H])C([H])(n5nc(-c6c([H])c([H])c(Oc7c([H])c([H])c(F)c([H])c7F)c([H])c6[H])c(C(=O)N([H])[H])c5N([H])[H])C4([H])[H])c3C([H])([H])[H])c([H])c([H])c2C1([H])[H]

>  <smiles>  (37) 
[H]c1c([H])c([H])c2c(c1[H])C([H])([H])C([H])([H])C([H])([H])C2([H])N([H])C(=O)C1([H])N(C(=O)C([H])(N([H])C(=O)C([H])(N([H])C([H])([H])[H])C([H])([H])[H])C(C([H])([H])[H])(C([H])([H])[H])C([H])([H])[H])C([H])([H])c2c([H])c(OC([H])([H])C([H])([H])C([H])([H])[N+]([H])([H])C([H])([H])c3c([H])c(C([H])([H])[H])c([H])c(C([H])([H])N([H])C(=O)N4C([H])([H])C([H])([H])C([H])([H])C([H])(n5nc(-c6c([H])c([H])c(Oc7c([H])c([H])c(F)c([H])c7F)c([H])c6[H])c(C(=O)N([H])[H])c5N([H])[H])C4([H])[H])c3C([H])([H])[H])c([H])c([H])c2C1([H])[H]

$$$$
37:0:0
     RDKit          3D

 95103  0  0  1  0  0  0  0  0999 V2000
  -28.8470  -21.3070   20.6180 C   0  0  0  0  0  2  0  0  0  0  0  0
  -29.6620  -18.8750   20.5120 C   0  0  0  0  0  3  0  0  0  0  0  0
  -27.3560  -19.3720   19.9390 C   0  0  0  0  0  3  0  0  0  0  0  0
  -28.6290  -19.8220   20.3340 C   0  0  0  0  0  0  0  0  0  0  0  0
  -29.4370  -17.4860   20.3410 C   0  0  0  0  0  0  0  0  0  0  0  0
  -28.1280  -17.0450   19.9740 C   0  0  0  0  0  0  0  0  0  0  0  0
  -27.1070  -18.0030   19.7430 C   0  0  0  0  0  0  0  0  0  0  0  0
  -27.7860  -15.5680   19.8430 C   0  0  0  0  0  1  0  0  0  0  0  0
  -25.5180  -17.5430   19.2360 Cl  0  0  0  0  0  0  0  0  0  0  0  0
  -30.6180  -16.5410   20.6390 C   0  0  0  0  0  2  0  0  0  0  0  0
  -30.9750  -14.1010   20.0700 C   0  0  0  0  0  0  0  0  0  0  0  0
  -30.7710  -11.7390   19.3730 C   0  0  0  0  0  2  0  0  0  0  0  0
  -29.8120  -11.6510   18.1660 C   0  0  0  0  0  2  0  0  0  0  0  0
  -28.3390  -11.5810   18.6250 C   0  0  0  0  0  2  0  0  0  0  0  0
  -27.9900  -12.6570   19.6880 C   0  0  0  0  0  3  0  0  0  0  0  0
  -29.0490  -12.6580   20.8120 C   0  0  0  0  0  2  0  0  0  0  0  0
  -30.3640  -12.8930   20.1850 N   0  0  0  0  0  0  0  0  0  0  0  0
  -32.0230  -14.2740   19.4380 O   0  0  0  0  0  0  0  0  0  0  0  0
  -30.3100  -15.1100   20.6560 N   0  0  0  0  0  0  0  0  0  0  0  0
  -29.4830  -14.8440   21.1650 H   0  0  0  0  0  0  0  0  0  0  0  0
  -25.6520  -13.4220   20.4590 C   0  0  0  0  0  0  0  0  0  0  0  0
  -24.5580  -12.7220   20.8850 C   0  0  0  0  0  0  0  0  0  0  0  0
  -24.9350  -11.3440   20.8530 C   0  0  0  0  0  0  0  0  0  0  0  0
  -26.6380  -12.4770   20.2120 N   0  0  0  0  0  0  0  0  0  0  0  0
  -26.2070  -11.2210   20.4960 N   0  0  0  0  0  0  0  0  0  0  0  0
  -24.1420  -10.1310   21.0890 C   0  0  0  0  0  0  0  0  0  0  0  0
  -24.5440   -9.1550   22.0280 C   0  0  0  0  0  3  0  0  0  0  0  0
  -23.7550   -8.0050   22.2500 C   0  0  0  0  0  3  0  0  0  0  0  0
  -22.5490   -7.8210   21.5310 C   0  0  0  0  0  0  0  0  0  0  0  0
  -22.1660   -8.7850   20.5800 C   0  0  0  0  0  3  0  0  0  0  0  0
  -22.9550   -9.9260   20.3580 C   0  0  0  0  0  3  0  0  0  0  0  0
  -21.7320   -6.7250   21.6640 O   0  0  0  0  0  0  0  0  0  0  0  0
  -21.6530   -6.0210   22.8390 C   0  0  0  0  0  0  0  0  0  0  0  0
  -21.2890   -6.6410   24.0550 C   0  0  0  0  0  3  0  0  0  0  0  0
  -21.1520   -5.8690   25.2260 C   0  0  0  0  0  3  0  0  0  0  0  0
  -21.3690   -4.4790   25.1830 C   0  0  0  0  0  0  0  0  0  0  0  0
  -21.7260   -3.8580   23.9730 C   0  0  0  0  0  3  0  0  0  0  0  0
  -21.8660   -4.6280   22.8040 C   0  0  0  0  0  0  0  0  0  0  0  0
  -22.1880   -4.0210   21.6360 F   0  0  0  0  0  0  0  0  0  0  0  0
  -21.2300   -3.7370   26.3070 F   0  0  0  0  0  0  0  0  0  0  0  0
  -23.2030  -13.2820   21.2100 C   0  0  0  0  0  0  0  0  0  0  0  0
  -22.4780  -12.6420   22.1200 N   0  0  0  0  0  0  0  0  0  0  0  0
  -22.8020  -14.3260   20.6950 O   0  0  0  0  0  0  0  0  0  0  0  0
  -22.8180  -11.7960   22.5540 H   0  0  0  0  0  0  0  0  0  0  0  0
  -21.5710  -13.0000   22.3850 H   0  0  0  0  0  0  0  0  0  0  0  0
  -25.8910  -14.7750   20.2340 N   0  0  0  0  0  0  0  0  0  0  0  0
  -25.1600  -15.4740   20.3140 H   0  0  0  0  0  0  0  0  0  0  0  0
  -26.7350  -15.1330   19.8070 H   0  0  0  0  0  0  0  0  0  0  0  0
  -28.2720  -22.1730   19.5660 N   0  0  0  0  0  4  0  0  0  0  0  0
  -27.4100  -21.7380   19.2820 H   0  0  0  0  0  0  0  0  0  0  0  0
  -28.8760  -22.1790   18.7620 H   0  0  0  0  0  0  0  0  0  0  0  0
  -27.9350  -23.5560   19.9920 C   0  0  0  0  0  2  0  0  0  0  0  0
  -29.1360  -24.5390   20.0240 C   0  0  0  0  0  2  0  0  0  0  0  0
  -28.9950  -25.6480   21.0880 C   0  0  0  0  0  2  0  0  0  0  0  0
  -29.0560  -26.9540   20.5190 O   0  0  0  0  0  0  0  0  0  0  0  0
  -24.7950  -31.8750   23.3610 C   0  0  0  0  0  0  0  0  0  0  0  0
  -27.8440  -27.5970   20.4560 C   0  0  0  0  0  0  0  0  0  0  0  0
  -23.7580  -30.4030   21.6630 C   0  0  0  0  0  3  0  0  0  0  0  0
  -25.3670  -28.9360   20.3360 C   0  0  0  0  0  0  0  0  0  0  0  0
  -26.2650  -30.9030   21.6020 C   0  0  0  0  0  2  0  0  0  0  0  0
  -26.4600  -29.5390   20.9740 C   0  0  0  0  0  0  0  0  0  0  0  0
  -27.7050  -28.8790   21.0260 C   0  0  0  0  0  3  0  0  0  0  0  0
  -26.7380  -26.9920   19.8230 C   0  0  0  0  0  3  0  0  0  0  0  0
  -25.4990  -27.6580   19.7630 C   0  0  0  0  0  3  0  0  0  0  0  0
  -24.0770  -29.7230   20.3040 C   0  0  0  0  0  2  0  0  0  0  0  0
  -24.9530  -31.0750   22.2680 N   0  0  0  0  0  0  0  0  0  0  0  0
  -23.6720  -32.0920   23.8360 O   0  0  0  0  0  0  0  0  0  0  0  0
  -23.1100  -29.3550   22.5980 C   0  0  0  0  0  0  0  0  0  0  0  0
  -21.8090  -29.0980   22.3920 N   0  0  0  0  0  0  0  0  0  0  0  0
  -23.7730  -28.7770   23.4620 O   0  0  0  0  0  0  0  0  0  0  0  0
  -21.3300  -29.6280   21.6770 H   0  0  0  0  0  0  0  0  0  0  0  0
  -18.4780  -27.7420   22.7040 C   0  0  0  0  0  0  0  0  0  0  0  0
  -20.9990  -28.1250   23.1230 C   0  0  0  0  0  3  0  0  0  0  0  0
  -21.2030  -26.6970   22.5650 C   0  0  0  0  0  2  0  0  0  0  0  0
  -20.1800  -26.3190   21.4900 C   0  0  0  0  0  2  0  0  0  0  0  0
  -18.7580  -26.3980   22.0540 C   0  0  0  0  0  2  0  0  0  0  0  0
  -19.5330  -28.5590   23.1890 C   0  0  0  0  0  0  0  0  0  0  0  0
  -19.2260  -29.8170   23.7480 C   0  0  0  0  0  3  0  0  0  0  0  0
  -17.8930  -30.2540   23.8410 C   0  0  0  0  0  3  0  0  0  0  0  0
  -16.8490  -29.4310   23.3810 C   0  0  0  0  0  3  0  0  0  0  0  0
  -17.1430  -28.1760   22.8180 C   0  0  0  0  0  3  0  0  0  0  0  0
  -26.0100  -32.5740   24.0440 C   0  0  0  0  0  3  0  0  0  0  0  0
  -25.6270  -33.9650   24.3170 N   0  0  0  0  0  0  0  0  0  0  0  0
  -25.9650  -35.0100   23.5510 C   0  0  0  0  0  0  0  0  0  0  0  0
  -26.7070  -34.9090   22.5710 O   0  0  0  0  0  0  0  0  0  0  0  0
  -24.9740  -34.1160   25.0720 H   0  0  0  0  0  0  0  0  0  0  0  0
  -24.1930  -36.7160   23.0290 C   0  0  0  0  0  1  0  0  0  0  0  0
  -25.3930  -36.3870   23.9330 C   0  0  0  0  0  3  0  0  0  0  0  0
  -27.4360  -37.3760   24.8710 C   0  0  0  0  0  1  0  0  0  0  0  0
  -26.3870  -37.4800   23.8580 N   0  0  0  0  0  0  0  0  0  0  0  0
  -25.9360  -38.3850   23.9630 H   0  0  0  0  0  0  0  0  0  0  0  0
  -26.4790  -31.8540   25.3680 C   0  0  1  0  0  0  0  0  0  0  0  0
  -25.3280  -31.5650   26.3620 C   0  0  0  0  0  1  0  0  0  0  0  0
  -27.1690  -30.5090   25.0450 C   0  0  0  0  0  1  0  0  0  0  0  0
  -27.5280  -32.7260   26.0980 C   0  0  0  0  0  1  0  0  0  0  0  0
  3  4  1  0
  4  2  2  0
  4  1  1  0
  5  2  1  0
  5 10  1  0
  6  5  2  0
  7  3  2  0
  7  6  1  0
  8  6  1  0
  9  7  1  0
 10 19  1  0
 11 17  1  0
 11 19  1  0
 12 17  1  0
 13 14  1  0
 13 12  1  0
 15 14  1  0
 15 24  1  0
 15 16  1  0
 17 16  1  0
 18 11  2  0
 19 20  1  0
 21 22  2  0
 22 41  1  0
 23 22  1  0
 23 26  1  0
 24 21  1  0
 24 25  1  0
 25 23  2  0
 26 27  1  0
 27 28  2  0
 29 32  1  0
 29 28  1  0
 30 29  2  0
 31 30  1  0
 31 26  2  0
 32 33  1  0
 33 34  1  0
 34 35  2  0
 36 35  1  0
 36 40  1  0
 37 36  2  0
 38 33  2  0
 38 37  1  0
 39 38  1  0
 41 42  1  0
 42 45  1  0
 42 44  1  0
 43 41  2  0
 46 47  1  0
 46 21  1  0
 48 46  1  0
 49 52  1  0
 49  1  1  0
 50 49  1  0
 51 49  1  0
 52 53  1  0
 53 54  1  0
 55 54  1  0
 56 67  2  0
 57 55  1  0
 57 62  1  0
 58 66  1  0
 58 68  1  0
 59 61  1  0
 60 66  1  0
 61 62  2  0
 61 60  1  0
 63 57  2  0
 64 63  1  0
 64 59  2  0
 65 59  1  0
 65 58  1  0
 66 56  1  0
 68 70  2  0
 69 68  1  0
 71 69  1  0
 72 81  2  0
 72 77  1  0
 73 69  1  0
 73 77  1  0
 74 73  1  0
 75 76  1  0
 75 74  1  0
 76 72  1  0
 77 78  2  0
 78 79  1  0
 80 79  2  0
 81 80  1  0
 82 56  1  0
 82 83  1  0
 82 92  1  0
 83 86  1  0
 84 88  1  0
 84 83  1  0
 85 84  2  0
 88 87  1  0
 90 88  1  0
 90 91  1  0
 90 89  1  0
 92 95  1  1
 92 93  1  0
 94 92  1  0
M  ISO  4  11 100  19 100  54 101  55 101
M  END
>  <TORSDO>  (38) 
F 22

>  <SCORE>  (38) 
-12.220

>  <name>  (38) 
37

>  <ligand_id>  (38) 
37

>  <original_smiles>  (38) 
[H]c1c([H])c([H])c2c(c1[H])C([H])([H])C([H])([H])C([H])([H])C2([H])N([H])C(=O)C1([H])N(C(=O)C([H])(N([H])C(=O)C([H])(N([H])C([H])([H])[H])C([H])([H])[H])C(C([H])([H])[H])(C([H])([H])[H])C([H])([H])[H])C([H])([H])c2c([H])c(OC([H])([H])C([H])([H])C([H])([H])[N+]([H])([H])C([H])([H])c3c([H])c(Cl)c(C([H])([H])[H])c(C([H])([H])N([H])C(=O)N4C([H])([H])C([H])([H])C([H])([H])C([H])(n5nc(-c6c([H])c([H])c(Oc7c([H])c([H])c(F)c([H])c7F)c([H])c6[H])c(C(=O)N([H])[H])c5N([H])[H])C4([H])[H])c3[H])c([H])c([H])c2C1([H])[H]

>  <smiles>  (38) 
[H]c1c([H])c([H])c2c(c1[H])C([H])([H])C([H])([H])C([H])([H])C2([H])N([H])C(=O)C1([H])N(C(=O)C([H])(N([H])C(=O)C([H])(N([H])C([H])([H])[H])C([H])([H])[H])C(C([H])([H])[H])(C([H])([H])[H])C([H])([H])[H])C([H])([H])c2c([H])c(OC([H])([H])C([H])([H])C([H])([H])[N+]([H])([H])C([H])([H])c3c([H])c(Cl)c(C([H])([H])[H])c(C([H])([H])N([H])C(=O)N4C([H])([H])C([H])([H])C([H])([H])C([H])(n5nc(-c6c([H])c([H])c(Oc7c([H])c([H])c(F)c([H])c7F)c([H])c6[H])c(C(=O)N([H])[H])c5N([H])[H])C4([H])[H])c3[H])c([H])c([H])c2C1([H])[H]

$$$$
38:0:0
     RDKit          3D

 93101  0  0  1  0  0  0  0  0999 V2000
  -30.1540  -21.6520   20.2490 C   0  0  0  0  0  2  0  0  0  0  0  0
  -29.1920  -19.3100   19.5970 C   0  0  0  0  0  3  0  0  0  0  0  0
  -30.7120  -17.9470   21.5040 C   0  0  0  0  0  3  0  0  0  0  0  0
  -29.1510  -17.8840   19.6670 C   0  0  0  0  0  0  0  0  0  0  0  0
  -29.9860  -20.0990   20.4710 C   0  0  0  0  0  0  0  0  0  0  0  0
  -29.9290  -17.1630   20.6190 C   0  0  0  0  0  0  0  0  0  0  0  0
  -30.7440  -19.3720   21.4380 C   0  0  0  0  0  0  0  0  0  0  0  0
  -28.2570  -17.1370   18.6930 C   0  0  0  0  0  1  0  0  0  0  0  0
  -31.7560  -20.2020   22.5680 Cl  0  0  0  0  0  0  0  0  0  0  0  0
  -30.5820  -14.6830   20.4090 C   0  0  0  0  0  0  0  0  0  0  0  0
  -30.3620  -12.4630   19.3170 C   0  0  0  0  0  2  0  0  0  0  0  0
  -29.4010  -12.6090   18.1150 C   0  0  0  0  0  2  0  0  0  0  0  0
  -27.9330  -12.4460   18.5570 C   0  0  0  0  0  2  0  0  0  0  0  0
  -27.5880  -13.2920   19.8110 C   0  0  0  0  0  3  0  0  0  0  0  0
  -28.6590  -13.1170   20.9120 C   0  0  0  0  0  2  0  0  0  0  0  0
  -29.9650  -13.4630   20.3260 N   0  0  0  0  0  0  0  0  0  0  0  0
  -31.7370  -14.8540   20.0090 O   0  0  0  0  0  0  0  0  0  0  0  0
  -29.7820  -15.7230   20.7950 N   0  0  0  0  0  0  0  0  0  0  0  0
  -28.8540  -15.4210   21.0500 H   0  0  0  0  0  0  0  0  0  0  0  0
  -25.2030  -13.8920   20.5600 C   0  0  0  0  0  0  0  0  0  0  0  0
  -24.1370  -13.1170   20.9300 C   0  0  0  0  0  0  0  0  0  0  0  0
  -24.5960  -11.7650   20.8740 C   0  0  0  0  0  0  0  0  0  0  0  0
  -26.2430  -13.0120   20.3040 N   0  0  0  0  0  0  0  0  0  0  0  0
  -25.8820  -11.7260   20.5510 N   0  0  0  0  0  0  0  0  0  0  0  0
  -23.8660  -10.5030   21.0540 C   0  0  0  0  0  0  0  0  0  0  0  0
  -24.2890   -9.5320   21.9900 C   0  0  0  0  0  3  0  0  0  0  0  0
  -23.5590   -8.3350   22.1580 C   0  0  0  0  0  3  0  0  0  0  0  0
  -22.3960   -8.1000   21.3880 C   0  0  0  0  0  0  0  0  0  0  0  0
  -21.9930   -9.0580   20.4410 C   0  0  0  0  0  3  0  0  0  0  0  0
  -22.7230  -10.2460   20.2720 C   0  0  0  0  0  3  0  0  0  0  0  0
  -21.6410   -6.9540   21.4640 O   0  0  0  0  0  0  0  0  0  0  0  0
  -21.5590   -6.2210   22.6210 C   0  0  0  0  0  0  0  0  0  0  0  0
  -21.0390   -6.7690   23.8140 C   0  0  0  0  0  3  0  0  0  0  0  0
  -20.9080   -5.9610   24.9620 C   0  0  0  0  0  3  0  0  0  0  0  0
  -21.2870   -4.6050   24.9160 C   0  0  0  0  0  0  0  0  0  0  0  0
  -21.7990   -4.0580   23.7270 C   0  0  0  0  0  3  0  0  0  0  0  0
  -21.9320   -4.8620   22.5820 C   0  0  0  0  0  0  0  0  0  0  0  0
  -22.4080   -4.3230   21.4340 F   0  0  0  0  0  0  0  0  0  0  0  0
  -21.1530   -3.8270   26.0150 F   0  0  0  0  0  0  0  0  0  0  0  0
  -22.7450  -13.5950   21.2220 C   0  0  0  0  0  0  0  0  0  0  0  0
  -22.0210  -12.8880   22.0820 N   0  0  0  0  0  0  0  0  0  0  0  0
  -22.3070  -14.6310   20.7240 O   0  0  0  0  0  0  0  0  0  0  0  0
  -22.3880  -12.0480   22.5070 H   0  0  0  0  0  0  0  0  0  0  0  0
  -21.0870  -13.1900   22.3200 H   0  0  0  0  0  0  0  0  0  0  0  0
  -25.3670  -15.2650   20.4050 N   0  0  0  0  0  0  0  0  0  0  0  0
  -24.6010  -15.9150   20.5400 H   0  0  0  0  0  0  0  0  0  0  0  0
  -26.2120  -15.7130   20.0750 H   0  0  0  0  0  0  0  0  0  0  0  0
  -29.0100  -22.6080   20.5010 N   0  0  0  0  0  4  0  0  0  0  0  0
  -28.6440  -22.4250   21.4200 H   0  0  0  0  0  0  0  0  0  0  0  0
  -28.2840  -22.3770   19.8410 H   0  0  0  0  0  0  0  0  0  0  0  0
  -29.3350  -24.0970   20.3920 C   0  0  0  0  0  3  0  0  0  0  0  0
  -28.1100  -25.0830   20.1930 C   0  0  0  0  0  3  0  0  0  0  0  0
  -28.3330  -26.5460   20.2620 O   0  0  0  0  0  0  0  0  0  0  0  0
  -24.5940  -31.9400   23.2570 C   0  0  0  0  0  0  0  0  0  0  0  0
  -27.2060  -27.3820   20.2100 C   0  0  0  0  0  0  0  0  0  0  0  0
  -23.3900  -30.5420   21.6160 C   0  0  0  0  0  3  0  0  0  0  0  0
  -24.8390  -28.9920   20.1940 C   0  0  0  0  0  0  0  0  0  0  0  0
  -25.9300  -30.8580   21.4360 C   0  0  0  0  0  2  0  0  0  0  0  0
  -26.0080  -29.4810   20.7920 C   0  0  0  0  0  0  0  0  0  0  0  0
  -27.1940  -28.6890   20.7870 C   0  0  0  0  0  3  0  0  0  0  0  0
  -26.0110  -26.9460   19.5910 C   0  0  0  0  0  3  0  0  0  0  0  0
  -24.8440  -27.7300   19.5840 C   0  0  0  0  0  3  0  0  0  0  0  0
  -23.6040  -29.8650   20.2370 C   0  0  0  0  0  2  0  0  0  0  0  0
  -24.6580  -31.1300   22.1590 N   0  0  0  0  0  0  0  0  0  0  0  0
  -23.5100  -32.2210   23.7880 O   0  0  0  0  0  0  0  0  0  0  0  0
  -22.7240  -29.5270   22.5760 C   0  0  0  0  0  0  0  0  0  0  0  0
  -21.3990  -29.3470   22.4390 N   0  0  0  0  0  0  0  0  0  0  0  0
  -23.3970  -28.9060   23.4020 O   0  0  0  0  0  0  0  0  0  0  0  0
  -20.9150  -29.9000   21.7460 H   0  0  0  0  0  0  0  0  0  0  0  0
  -18.0150  -28.1680   22.9340 C   0  0  0  0  0  0  0  0  0  0  0  0
  -20.5750  -28.4120   23.2070 C   0  0  0  0  0  3  0  0  0  0  0  0
  -20.6690  -26.9810   22.6310 C   0  0  0  0  0  2  0  0  0  0  0  0
  -19.5660  -26.6660   21.6150 C   0  0  0  0  0  2  0  0  0  0  0  0
  -18.1850  -26.8180   22.2570 C   0  0  0  0  0  2  0  0  0  0  0  0
  -19.1380  -28.9240   23.3660 C   0  0  0  0  0  0  0  0  0  0  0  0
  -18.9250  -30.1860   23.9590 C   0  0  0  0  0  3  0  0  0  0  0  0
  -17.6230  -30.6950   24.1230 C   0  0  0  0  0  3  0  0  0  0  0  0
  -16.5150  -29.9370   23.7080 C   0  0  0  0  0  3  0  0  0  0  0  0
  -16.7120  -28.6750   23.1190 C   0  0  0  0  0  3  0  0  0  0  0  0
  -25.8780  -32.5690   23.8810 C   0  0  0  0  0  3  0  0  0  0  0  0
  -26.3870  -31.7990   25.1610 C   0  0  1  0  0  0  0  0  0  0  0  0
  -25.2890  -31.5610   26.2240 C   0  0  0  0  0  1  0  0  0  0  0  0
  -26.9730  -30.4210   24.7740 C   0  0  0  0  0  1  0  0  0  0  0  0
  -27.5340  -32.5950   25.8290 C   0  0  0  0  0  1  0  0  0  0  0  0
  -25.5710  -33.9690   24.2070 N   0  0  0  0  0  0  0  0  0  0  0  0
  -25.8910  -35.0170   23.4380 C   0  0  0  0  0  0  0  0  0  0  0  0
  -26.5460  -34.9090   22.3970 O   0  0  0  0  0  0  0  0  0  0  0  0
  -24.9880  -34.1270   25.0160 H   0  0  0  0  0  0  0  0  0  0  0  0
  -24.1580  -36.8090   23.0970 C   0  0  0  0  0  1  0  0  0  0  0  0
  -25.4090  -36.4080   23.8940 C   0  0  0  0  0  3  0  0  0  0  0  0
  -27.5490  -37.3050   24.7010 C   0  0  0  0  0  1  0  0  0  0  0  0
  -26.4410  -37.4600   23.7630 N   0  0  0  0  0  0  0  0  0  0  0  0
  -26.0340  -38.3820   23.9010 H   0  0  0  0  0  0  0  0  0  0  0  0
  1  5  1  0
  1 48  1  0
  2  4  2  0
  2  5  1  0
  4  6  1  0
  5  7  2  0
  6 18  1  0
  6  3  2  0
  7  3  1  0
  7  9  1  0
  8  4  1  0
 10 18  1  0
 11 16  1  0
 12 13  1  0
 12 11  1  0
 14 13  1  0
 14 23  1  0
 14 15  1  0
 16 10  1  0
 16 15  1  0
 17 10  2  0
 18 19  1  0
 20 21  2  0
 21 40  1  0
 22 21  1  0
 22 25  1  0
 23 24  1  0
 23 20  1  0
 24 22  2  0
 25 26  1  0
 26 27  2  0
 28 31  1  0
 28 27  1  0
 29 28  2  0
 30 29  1  0
 30 25  2  0
 31 32  1  0
 32 33  1  0
 33 34  2  0
 35 34  1  0
 35 39  1  0
 36 35  2  0
 37 32  2  0
 37 36  1  0
 38 37  1  0
 40 41  1  0
 41 44  1  0
 41 43  1  0
 42 40  2  0
 45 46  1  0
 45 20  1  0
 47 45  1  0
 48 49  1  0
 50 48  1  0
 51 48  1  0
 52 53  1  0
 52 51  2  0
 54 65  2  0
 55 53  1  0
 55 60  1  0
 56 64  1  0
 56 66  1  0
 57 63  1  0
 57 59  1  0
 58 64  1  0
 59 58  1  0
 60 59  2  0
 61 55  2  0
 62 61  1  0
 62 57  2  0
 63 56  1  0
 64 54  1  0
 66 68  2  0
 67 66  1  0
 69 67  1  0
 70 79  2  0
 70 75  1  0
 71 67  1  0
 71 75  1  0
 72 71  1  0
 73 74  1  0
 73 72  1  0
 74 70  1  0
 75 76  2  0
 76 77  1  0
 78 77  2  0
 79 78  1  0
 80 54  1  0
 80 85  1  0
 80 81  1  0
 81 84  1  1
 81 82  1  0
 83 81  1  0
 85 88  1  0
 86 90  1  0
 86 85  1  0
 87 86  2  0
 90 89  1  0
 92 90  1  0
 92 93  1  0
 92 91  1  0
M  ISO  4  10 100  18 100  52 101  53 101
M  END
>  <TORSDO>  (39) 
F 20

>  <SCORE>  (39) 
-14.207

>  <name>  (39) 
38

>  <ligand_id>  (39) 
38

>  <original_smiles>  (39) 
[H]c1c([H])c([H])c2c(c1[H])C([H])([H])C([H])([H])C([H])([H])C2([H])N([H])C(=O)C1([H])N(C(=O)C([H])(N([H])C(=O)C([H])(N([H])C([H])([H])[H])C([H])([H])[H])C(C([H])([H])[H])(C([H])([H])[H])C([H])([H])[H])C([H])([H])c2c([H])c(OC([H])([H])C([H])([H])[N+]([H])([H])C([H])([H])c3c([H])c(C([H])([H])[H])c(N([H])C(=O)N4C([H])([H])C([H])([H])C([H])([H])C([H])(n5nc(-c6c([H])c([H])c(Oc7c([H])c([H])c(F)c([H])c7F)c([H])c6[H])c(C(=O)N([H])[H])c5N([H])[H])C4([H])[H])c([H])c3Cl)c([H])c([H])c2C1([H])[H]

>  <smiles>  (39) 
[H]c1c([H])c([H])c2c(c1[H])C([H])([H])C([H])([H])C([H])([H])C2([H])N([H])C(=O)C1([H])N(C(=O)C([H])(N([H])C(=O)C([H])(N([H])C([H])([H])[H])C([H])([H])[H])C(C([H])([H])[H])(C([H])([H])[H])C([H])([H])[H])C([H])([H])c2c([H])c(OC([H])([H])C([H])([H])[N+]([H])([H])C([H])([H])c3c([H])c(C([H])([H])[H])c(N([H])C(=O)N4C([H])([H])C([H])([H])C([H])([H])C([H])(n5nc(-c6c([H])c([H])c(Oc7c([H])c([H])c(F)c([H])c7F)c([H])c6[H])c(C(=O)N([H])[H])c5N([H])[H])C4([H])[H])c([H])c3Cl)c([H])c([H])c2C1([H])[H]

$$$$
39:0:0
     RDKit          3D

 96105  0  0  1  0  0  0  0  0999 V2000
  -28.5720  -23.8300   19.6300 C   0  0  0  0  0  0  0  0  0  0  0  0
  -28.1890  -23.8570   18.3420 C   0  0  0  0  0  2  0  0  0  0  0  0
  -29.7600  -23.7100   22.2970 C   0  0  0  0  0  2  0  0  0  0  0  0
  -29.3090  -25.0960   21.8150 C   0  0  0  0  0  2  0  0  0  0  0  0
  -30.4080  -22.9510   21.1330 C   0  0  0  0  0  2  0  0  0  0  0  0
  -28.3330  -25.0650   20.6190 C   0  0  0  0  0  3  0  0  0  0  0  0
  -29.3970  -22.5690   20.1220 N   0  0  1  0  0  4  0  0  0  0  0  0
  -30.0010  -22.3440   19.3470 H   0  0  0  0  0  0  0  0  0  0  0  0
  -28.3870  -26.4650   20.0670 O   0  0  0  0  0  0  0  0  0  0  0  0
  -24.6410  -31.8890   23.1710 C   0  0  0  0  0  0  0  0  0  0  0  0
  -27.2610  -27.3140   20.1100 C   0  0  0  0  0  0  0  0  0  0  0  0
  -23.4390  -30.4860   21.5320 C   0  0  0  0  0  3  0  0  0  0  0  0
  -24.8920  -28.9340   20.1060 C   0  0  0  0  0  0  0  0  0  0  0  0
  -25.9790  -30.8110   21.3390 C   0  0  0  0  0  2  0  0  0  0  0  0
  -26.0640  -29.4270   20.6940 C   0  0  0  0  0  0  0  0  0  0  0  0
  -27.2550  -28.6330   20.6770 C   0  0  0  0  0  3  0  0  0  0  0  0
  -26.0640  -26.8740   19.5100 C   0  0  0  0  0  3  0  0  0  0  0  0
  -24.8960  -27.6640   19.5030 C   0  0  0  0  0  3  0  0  0  0  0  0
  -23.6540  -29.8090   20.1530 C   0  0  0  0  0  2  0  0  0  0  0  0
  -24.7060  -31.0810   22.0710 N   0  0  0  0  0  0  0  0  0  0  0  0
  -23.5580  -32.1600   23.7090 O   0  0  0  0  0  0  0  0  0  0  0  0
  -22.7830  -29.4680   22.4960 C   0  0  0  0  0  0  0  0  0  0  0  0
  -21.4540  -29.2960   22.3850 N   0  0  0  0  0  0  0  0  0  0  0  0
  -23.4690  -28.8330   23.3020 O   0  0  0  0  0  0  0  0  0  0  0  0
  -20.9590  -29.8600   21.7070 H   0  0  0  0  0  0  0  0  0  0  0  0
  -18.0810  -28.0970   22.9100 C   0  0  0  0  0  0  0  0  0  0  0  0
  -20.6410  -28.3560   23.1580 C   0  0  0  0  0  3  0  0  0  0  0  0
  -20.7390  -26.9270   22.5760 C   0  0  0  0  0  2  0  0  0  0  0  0
  -19.6270  -26.6090   21.5700 C   0  0  0  0  0  2  0  0  0  0  0  0
  -18.2510  -26.7510   22.2280 C   0  0  0  0  0  2  0  0  0  0  0  0
  -19.2030  -28.8580   23.3330 C   0  0  0  0  0  0  0  0  0  0  0  0
  -18.9880  -30.1180   23.9330 C   0  0  0  0  0  3  0  0  0  0  0  0
  -17.6850  -30.6170   24.1140 C   0  0  0  0  0  3  0  0  0  0  0  0
  -16.5770  -29.8540   23.7060 C   0  0  0  0  0  3  0  0  0  0  0  0
  -16.7770  -28.5960   23.1100 C   0  0  0  0  0  3  0  0  0  0  0  0
  -25.9220  -32.5280   23.7900 C   0  0  0  0  0  3  0  0  0  0  0  0
  -25.6020  -33.9200   24.1390 N   0  0  0  0  0  0  0  0  0  0  0  0
  -25.9270  -34.9860   23.3960 C   0  0  0  0  0  0  0  0  0  0  0  0
  -26.5990  -34.9020   22.3630 O   0  0  0  0  0  0  0  0  0  0  0  0
  -25.0050  -34.0590   24.9410 H   0  0  0  0  0  0  0  0  0  0  0  0
  -24.1990  -36.7820   23.0550 C   0  0  0  0  0  1  0  0  0  0  0  0
  -25.4330  -36.3660   23.8720 C   0  0  0  0  0  3  0  0  0  0  0  0
  -27.5550  -37.2420   24.7430 C   0  0  0  0  0  1  0  0  0  0  0  0
  -26.4630  -37.4230   23.7900 N   0  0  0  0  0  0  0  0  0  0  0  0
  -26.0530  -38.3390   23.9480 H   0  0  0  0  0  0  0  0  0  0  0  0
  -26.4540  -31.7500   25.0560 C   0  0  1  0  0  0  0  0  0  0  0  0
  -25.3710  -31.4930   26.1300 C   0  0  0  0  0  1  0  0  0  0  0  0
  -27.0460  -30.3800   24.6480 C   0  0  0  0  0  1  0  0  0  0  0  0
  -27.6030  -32.5470   25.7170 C   0  0  0  0  0  1  0  0  0  0  0  0
  -28.7160  -21.1850   20.3140 C   0  0  0  0  0  2  0  0  0  0  0  0
  -30.1440  -19.8230   21.9830 C   0  0  0  0  0  3  0  0  0  0  0  0
  -30.7710  -18.6820   22.5090 C   0  0  0  0  0  3  0  0  0  0  0  0
  -29.4790  -19.8180   20.7390 C   0  0  0  0  0  0  0  0  0  0  0  0
  -30.7020  -17.4270   21.8740 C   0  0  0  0  0  0  0  0  0  0  0  0
  -29.3990  -18.5020   20.0890 C   0  0  0  0  0  0  0  0  0  0  0  0
  -29.9930  -17.2780   20.6500 C   0  0  0  0  0  0  0  0  0  0  0  0
  -31.3290  -16.2480   22.6060 C   0  0  0  0  0  1  0  0  0  0  0  0
  -28.6060  -18.3830   18.7970 C   0  0  0  0  0  1  0  0  0  0  0  0
  -30.5200  -14.7840   19.9230 C   0  0  0  0  0  0  0  0  0  0  0  0
  -30.2500  -12.5380   18.8450 C   0  0  0  0  0  2  0  0  0  0  0  0
  -29.2200  -12.6340   17.6990 C   0  0  0  0  0  2  0  0  0  0  0  0
  -27.7840  -12.4550   18.2340 C   0  0  0  0  0  2  0  0  0  0  0  0
  -27.5040  -13.3180   19.4930 C   0  0  0  0  0  3  0  0  0  0  0  0
  -28.6410  -13.1960   20.5290 C   0  0  0  0  0  2  0  0  0  0  0  0
  -29.8870  -13.5650   19.8450 N   0  0  0  0  0  0  0  0  0  0  0  0
  -31.6930  -14.8940   19.5520 O   0  0  0  0  0  0  0  0  0  0  0  0
  -29.7230  -15.9010   20.1520 N   0  0  0  0  0  0  0  0  0  0  0  0
  -28.7410  -15.6780   20.1120 H   0  0  0  0  0  0  0  0  0  0  0  0
  -25.1830  -13.9110   20.4120 C   0  0  0  0  0  0  0  0  0  0  0  0
  -24.1380  -13.1360   20.8350 C   0  0  0  0  0  0  0  0  0  0  0  0
  -24.5830  -11.7830   20.7300 C   0  0  0  0  0  0  0  0  0  0  0  0
  -26.1970  -13.0290   20.0740 N   0  0  0  0  0  0  0  0  0  0  0  0
  -25.8480  -11.7420   20.3280 N   0  0  0  0  0  0  0  0  0  0  0  0
  -23.8570  -10.5220   20.9330 C   0  0  0  0  0  0  0  0  0  0  0  0
  -24.3020   -9.5550   21.8600 C   0  0  0  0  0  3  0  0  0  0  0  0
  -23.5760   -8.3590   22.0520 C   0  0  0  0  0  3  0  0  0  0  0  0
  -22.3910   -8.1230   21.3150 C   0  0  0  0  0  0  0  0  0  0  0  0
  -21.9650   -9.0790   20.3770 C   0  0  0  0  0  3  0  0  0  0  0  0
  -22.6920  -10.2660   20.1840 C   0  0  0  0  0  3  0  0  0  0  0  0
  -21.6350   -6.9800   21.4160 O   0  0  0  0  0  0  0  0  0  0  0  0
  -21.5620   -6.2660   22.5850 C   0  0  0  0  0  0  0  0  0  0  0  0
  -21.1020   -6.8500   23.7860 C   0  0  0  0  0  3  0  0  0  0  0  0
  -20.9760   -6.0620   24.9470 C   0  0  0  0  0  3  0  0  0  0  0  0
  -21.3010   -4.6920   24.9100 C   0  0  0  0  0  0  0  0  0  0  0  0
  -21.7540   -4.1090   23.7140 C   0  0  0  0  0  3  0  0  0  0  0  0
  -21.8810   -4.8940   22.5540 C   0  0  0  0  0  0  0  0  0  0  0  0
  -22.2980   -4.3220   21.3980 F   0  0  0  0  0  0  0  0  0  0  0  0
  -21.1730   -3.9340   26.0230 F   0  0  0  0  0  0  0  0  0  0  0  0
  -22.7700  -13.6180   21.2190 C   0  0  0  0  0  0  0  0  0  0  0  0
  -22.0930  -12.9000   22.1070 N   0  0  0  0  0  0  0  0  0  0  0  0
  -22.3120  -14.6670   20.7670 O   0  0  0  0  0  0  0  0  0  0  0  0
  -22.4780  -12.0500   22.4940 H   0  0  0  0  0  0  0  0  0  0  0  0
  -21.1780  -13.2030   22.4070 H   0  0  0  0  0  0  0  0  0  0  0  0
  -25.3480  -15.2860   20.2630 N   0  0  0  0  0  0  0  0  0  0  0  0
  -24.5900  -15.9350   20.4460 H   0  0  0  0  0  0  0  0  0  0  0  0
  -26.1600  -15.7320   19.8570 H   0  0  0  0  0  0  0  0  0  0  0  0
  1  7  1  0
  1  6  1  0
  2  1  2  0
  4  3  1  0
  5  3  1  0
  6  9  1  0
  6  4  1  0
  7 50  1  0
  7  5  1  0
  7  8  1  6
  9 11  1  0
 10 21  2  0
 11 16  1  0
 12 20  1  0
 12 22  1  0
 13 19  1  0
 13 15  1  0
 14 20  1  0
 15 14  1  0
 16 15  2  0
 17 11  2  0
 18 17  1  0
 18 13  2  0
 19 12  1  0
 20 10  1  0
 22 24  2  0
 23 22  1  0
 25 23  1  0
 26 35  2  0
 26 31  1  0
 27 23  1  0
 27 31  1  0
 28 27  1  0
 29 30  1  0
 29 28  1  0
 30 26  1  0
 31 32  2  0
 32 33  1  0
 34 33  2  0
 35 34  1  0
 36 10  1  0
 36 37  1  0
 36 46  1  0
 37 40  1  0
 38 42  1  0
 38 37  1  0
 39 38  2  0
 42 41  1  0
 44 42  1  0
 44 45  1  0
 44 43  1  0
 46 49  1  1
 46 47  1  0
 48 46  1  0
 50 53  1  0
 51 52  1  0
 53 51  2  0
 54 52  2  0
 54 57  1  0
 55 56  2  0
 55 53  1  0
 56 54  1  0
 58 55  1  0
 59 67  1  0
 60 65  1  0
 61 62  1  0
 61 60  1  0
 63 62  1  0
 63 72  1  0
 63 64  1  0
 65 59  1  0
 65 64  1  0
 66 59  2  0
 67 56  1  0
 68 67  1  0
 69 70  2  0
 70 89  1  0
 71 70  1  0
 71 74  1  0
 72 73  1  0
 72 69  1  0
 73 71  2  0
 74 75  1  0
 75 76  2  0
 77 80  1  0
 77 76  1  0
 78 77  2  0
 79 78  1  0
 79 74  2  0
 80 81  1  0
 81 82  1  0
 82 83  2  0
 84 83  1  0
 84 88  1  0
 85 84  2  0
 86 81  2  0
 86 85  1  0
 87 86  1  0
 89 90  1  0
 90 93  1  0
 90 92  1  0
 91 89  2  0
 94 69  1  0
 94 95  1  0
 96 94  1  0
M  ISO  4   6 101   9 101  59 100  67 100
M  END
>  <TORSDO>  (40) 
F 18

>  <SCORE>  (40) 
-13.837

>  <name>  (40) 
39

>  <ligand_id>  (40) 
39

>  <original_smiles>  (40) 
[H]C([H])=C1C([H])(Oc2c([H])c([H])c3c(c2[H])C([H])([H])N(C(=O)C([H])(N([H])C(=O)C([H])(N([H])C([H])([H])[H])C([H])([H])[H])C(C([H])([H])[H])(C([H])([H])[H])C([H])([H])[H])C([H])(C(=O)N([H])C2([H])c4c([H])c([H])c([H])c([H])c4C([H])([H])C([H])([H])C2([H])[H])C3([H])[H])C([H])([H])C([H])([H])C([H])([H])[N+]1([H])C([H])([H])c1c([H])c([H])c(C([H])([H])[H])c(N([H])C(=O)N2C([H])([H])C([H])([H])C([H])([H])C([H])(n3nc(-c4c([H])c([H])c(Oc5c([H])c([H])c(F)c([H])c5F)c([H])c4[H])c(C(=O)N([H])[H])c3N([H])[H])C2([H])[H])c1C([H])([H])[H]

>  <smiles>  (40) 
[H]C([H])=C1C([H])(Oc2c([H])c([H])c3c(c2[H])C([H])([H])N(C(=O)C([H])(N([H])C(=O)C([H])(N([H])C([H])([H])[H])C([H])([H])[H])C(C([H])([H])[H])(C([H])([H])[H])C([H])([H])[H])C([H])(C(=O)N([H])C2([H])c4c([H])c([H])c([H])c([H])c4C([H])([H])C([H])([H])C2([H])[H])C3([H])[H])C([H])([H])C([H])([H])C([H])([H])[N+]1([H])C([H])([H])c1c([H])c([H])c(C([H])([H])[H])c(N([H])C(=O)N2C([H])([H])C([H])([H])C([H])([H])C([H])(n3nc(-c4c([H])c([H])c(Oc5c([H])c([H])c(F)c([H])c5F)c([H])c4[H])c(C(=O)N([H])[H])c3N([H])[H])C2([H])[H])c1C([H])([H])[H]

$$$$
40:0:0
     RDKit          3D

100109  0  0  1  0  0  0  0  0999 V2000
  -28.6110  -24.2060   19.9270 C   0  0  0  0  0  0  0  0  0  0  0  0
  -28.9850  -24.3100   18.6350 C   0  0  0  0  0  3  0  0  0  0  0  0
  -29.7370  -24.1850   22.6330 C   0  0  0  0  0  2  0  0  0  0  0  0
  -29.4390  -25.5130   21.8900 C   0  0  0  0  0  2  0  0  0  0  0  0
  -29.8850  -22.9730   21.6840 C   0  0  0  0  0  2  0  0  0  0  0  0
  -28.3040  -25.4160   20.8370 C   0  0  0  0  0  3  0  0  0  0  0  0
  -28.7080  -22.9610   20.8000 N   0  0  2  0  0  4  0  0  0  0  0  0
  -28.0200  -23.1720   21.5060 H   0  0  0  0  0  0  0  0  0  0  0  0
  -29.6430  -23.2850   17.8540 C   0  0  0  0  0  3  0  0  0  0  0  0
  -29.8620  -23.4040   16.5360 C   0  0  0  0  0  3  0  0  0  0  0  0
  -30.5790  -22.3690   15.6960 C   0  0  0  0  0  1  0  0  0  0  0  0
  -28.3060  -26.7030   20.1660 O   0  0  0  0  0  0  0  0  0  0  0  0
  -24.5200  -31.9280   23.2640 C   0  0  0  0  0  0  0  0  0  0  0  0
  -27.1410  -27.4490   20.1980 C   0  0  0  0  0  0  0  0  0  0  0  0
  -23.3080  -30.5350   21.6190 C   0  0  0  0  0  3  0  0  0  0  0  0
  -24.7570  -28.9820   20.2000 C   0  0  0  0  0  0  0  0  0  0  0  0
  -25.8370  -30.8760   21.4240 C   0  0  0  0  0  2  0  0  0  0  0  0
  -25.9190  -29.5000   20.7850 C   0  0  0  0  0  0  0  0  0  0  0  0
  -27.1170  -28.7450   20.7730 C   0  0  0  0  0  3  0  0  0  0  0  0
  -25.9640  -26.9470   19.6090 C   0  0  0  0  0  3  0  0  0  0  0  0
  -24.7760  -27.7050   19.6070 C   0  0  0  0  0  3  0  0  0  0  0  0
  -23.5170  -29.8500   20.2410 C   0  0  0  0  0  2  0  0  0  0  0  0
  -24.5730  -31.1280   22.1610 N   0  0  0  0  0  0  0  0  0  0  0  0
  -23.4390  -32.2050   23.8040 O   0  0  0  0  0  0  0  0  0  0  0  0
  -22.6470  -29.5190   22.5790 C   0  0  0  0  0  0  0  0  0  0  0  0
  -21.3220  -29.3440   22.4490 N   0  0  0  0  0  0  0  0  0  0  0  0
  -23.3250  -28.8900   23.3960 O   0  0  0  0  0  0  0  0  0  0  0  0
  -20.8360  -29.9020   21.7600 H   0  0  0  0  0  0  0  0  0  0  0  0
  -17.9400  -28.1710   22.9450 C   0  0  0  0  0  0  0  0  0  0  0  0
  -20.5000  -28.4100   23.2160 C   0  0  0  0  0  3  0  0  0  0  0  0
  -20.5920  -26.9800   22.6340 C   0  0  0  0  0  2  0  0  0  0  0  0
  -19.4870  -26.6690   21.6200 C   0  0  0  0  0  2  0  0  0  0  0  0
  -18.1070  -26.8230   22.2650 C   0  0  0  0  0  2  0  0  0  0  0  0
  -19.0650  -28.9220   23.3780 C   0  0  0  0  0  0  0  0  0  0  0  0
  -18.8550  -30.1860   23.9740 C   0  0  0  0  0  3  0  0  0  0  0  0
  -17.5550  -30.6970   24.1410 C   0  0  0  0  0  3  0  0  0  0  0  0
  -16.4450  -29.9410   23.7250 C   0  0  0  0  0  3  0  0  0  0  0  0
  -16.6380  -28.6810   23.1330 C   0  0  0  0  0  3  0  0  0  0  0  0
  -25.8070  -32.5510   23.8870 C   0  0  0  0  0  3  0  0  0  0  0  0
  -26.3130  -31.7840   25.1710 C   0  0  1  0  0  0  0  0  0  0  0  0
  -25.2140  -31.5590   26.2350 C   0  0  0  0  0  1  0  0  0  0  0  0
  -26.8880  -30.4000   24.7870 C   0  0  0  0  0  1  0  0  0  0  0  0
  -27.4660  -32.5730   25.8350 C   0  0  0  0  0  1  0  0  0  0  0  0
  -25.5120  -33.9550   24.2050 N   0  0  0  0  0  0  0  0  0  0  0  0
  -25.8730  -34.9990   23.4460 C   0  0  0  0  0  0  0  0  0  0  0  0
  -26.5600  -34.8800   22.4270 O   0  0  0  0  0  0  0  0  0  0  0  0
  -24.9050  -34.1220   24.9940 H   0  0  0  0  0  0  0  0  0  0  0  0
  -24.1870  -36.8190   23.0380 C   0  0  0  0  0  1  0  0  0  0  0  0
  -25.3960  -36.3960   23.8860 C   0  0  0  0  0  3  0  0  0  0  0  0
  -27.5210  -37.2450   24.7770 C   0  0  0  0  0  1  0  0  0  0  0  0
  -26.4490  -37.4310   23.8030 N   0  0  0  0  0  0  0  0  0  0  0  0
  -26.0550  -38.3570   23.9380 H   0  0  0  0  0  0  0  0  0  0  0  0
  -28.0750  -21.6360   20.4580 C   0  0  0  0  0  2  0  0  0  0  0  0
  -28.8910  -20.1860   18.5380 C   0  0  0  0  0  3  0  0  0  0  0  0
  -29.4470  -19.4070   20.7680 C   0  0  0  0  0  3  0  0  0  0  0  0
  -28.8840  -20.4180   19.9280 C   0  0  0  0  0  0  0  0  0  0  0  0
  -29.4840  -19.0360   17.9870 C   0  0  0  0  0  0  0  0  0  0  0  0
  -30.0180  -18.2050   20.2370 C   0  0  0  0  0  0  0  0  0  0  0  0
  -30.0560  -18.0520   18.8240 C   0  0  0  0  0  0  0  0  0  0  0  0
  -29.4910  -18.8640   16.4770 C   0  0  0  0  0  1  0  0  0  0  0  0
  -30.8110  -16.6850   18.0780 Cl  0  0  0  0  0  0  0  0  0  0  0  0
  -30.6510  -17.1500   21.1880 C   0  0  0  0  0  2  0  0  0  0  0  0
  -30.9560  -14.6570   20.7780 C   0  0  0  0  0  0  0  0  0  0  0  0
  -30.7280  -12.4590   19.6740 C   0  0  0  0  0  2  0  0  0  0  0  0
  -29.8540  -12.6260   18.4140 C   0  0  0  0  0  2  0  0  0  0  0  0
  -28.3570  -12.4980   18.7620 C   0  0  0  0  0  2  0  0  0  0  0  0
  -27.9510  -13.3600   19.9900 C   0  0  0  0  0  3  0  0  0  0  0  0
  -28.9470  -13.1750   21.1560 C   0  0  0  0  0  2  0  0  0  0  0  0
  -30.2930  -13.4740   20.6460 N   0  0  0  0  0  0  0  0  0  0  0  0
  -32.1390  -14.7840   20.4560 O   0  0  0  0  0  0  0  0  0  0  0  0
  -30.1990  -15.7340   21.1000 N   0  0  0  0  0  0  0  0  0  0  0  0
  -29.2260  -15.5580   21.2970 H   0  0  0  0  0  0  0  0  0  0  0  0
  -25.5240  -13.9810   20.5750 C   0  0  0  0  0  0  0  0  0  0  0  0
  -24.4360  -13.2170   20.8950 C   0  0  0  0  0  0  0  0  0  0  0  0
  -24.8900  -11.8630   20.9010 C   0  0  0  0  0  0  0  0  0  0  0  0
  -26.5750  -13.0930   20.4040 N   0  0  0  0  0  0  0  0  0  0  0  0
  -26.1950  -11.8160   20.6600 N   0  0  0  0  0  0  0  0  0  0  0  0
  -24.1470  -10.6060   21.0630 C   0  0  0  0  0  0  0  0  0  0  0  0
  -24.5410   -9.6290   22.0040 C   0  0  0  0  0  3  0  0  0  0  0  0
  -23.7970   -8.4390   22.1530 C   0  0  0  0  0  3  0  0  0  0  0  0
  -22.6460   -8.2160   21.3620 C   0  0  0  0  0  0  0  0  0  0  0  0
  -22.2710   -9.1820   20.4100 C   0  0  0  0  0  3  0  0  0  0  0  0
  -23.0160  -10.3640   20.2580 C   0  0  0  0  0  3  0  0  0  0  0  0
  -21.8780   -7.0780   21.4190 O   0  0  0  0  0  0  0  0  0  0  0  0
  -21.7970   -6.3220   22.5620 C   0  0  0  0  0  0  0  0  0  0  0  0
  -21.3470   -6.8660   23.7840 C   0  0  0  0  0  3  0  0  0  0  0  0
  -21.2120   -6.0370   24.9170 C   0  0  0  0  0  3  0  0  0  0  0  0
  -21.5180   -4.6660   24.8270 C   0  0  0  0  0  0  0  0  0  0  0  0
  -21.9620   -4.1210   23.6090 C   0  0  0  0  0  3  0  0  0  0  0  0
  -22.0980   -4.9470   22.4780 C   0  0  0  0  0  0  0  0  0  0  0  0
  -22.5060   -4.4130   21.3020 F   0  0  0  0  0  0  0  0  0  0  0  0
  -21.3800   -3.8680   25.9110 F   0  0  0  0  0  0  0  0  0  0  0  0
  -23.0280  -13.7050   21.0900 C   0  0  0  0  0  0  0  0  0  0  0  0
  -22.2570  -13.0300   21.9340 N   0  0  0  0  0  0  0  0  0  0  0  0
  -22.6210  -14.7210   20.5290 O   0  0  0  0  0  0  0  0  0  0  0  0
  -22.5970  -12.2070   22.4100 H   0  0  0  0  0  0  0  0  0  0  0  0
  -21.3110  -13.3410   22.1080 H   0  0  0  0  0  0  0  0  0  0  0  0
  -25.7040  -15.3490   20.3930 N   0  0  0  0  0  0  0  0  0  0  0  0
  -24.9260  -15.9990   20.4380 H   0  0  0  0  0  0  0  0  0  0  0  0
  -26.5540  -15.7770   20.0490 H   0  0  0  0  0  0  0  0  0  0  0  0
  1  7  1  0
  1  6  1  0
  2  1  2  0
  4  3  1  0
  5  3  1  0
  6 12  1  0
  6  4  1  0
  7  8  1  1
  7  5  1  0
  9  2  1  0
 10  9  2  0
 11 10  1  0
 12 14  1  0
 13 24  2  0
 14 19  1  0
 15 23  1  0
 15 25  1  0
 16 22  1  0
 16 18  1  0
 17 23  1  0
 18 17  1  0
 19 18  2  0
 20 14  2  0
 21 20  1  0
 21 16  2  0
 22 15  1  0
 23 13  1  0
 25 27  2  0
 26 25  1  0
 28 26  1  0
 29 38  2  0
 29 34  1  0
 30 26  1  0
 30 34  1  0
 31 30  1  0
 32 33  1  0
 32 31  1  0
 33 29  1  0
 34 35  2  0
 35 36  1  0
 37 36  2  0
 38 37  1  0
 39 13  1  0
 39 44  1  0
 39 40  1  0
 40 43  1  1
 40 41  1  0
 42 40  1  0
 44 47  1  0
 45 49  1  0
 45 44  1  0
 46 45  2  0
 49 48  1  0
 51 49  1  0
 51 52  1  0
 51 50  1  0
 53  7  1  0
 54 56  1  0
 56 53  1  0
 56 55  2  0
 57 54  2  0
 57 59  1  0
 58 55  1  0
 58 62  1  0
 59 58  2  0
 60 57  1  0
 61 59  1  0
 63 71  1  0
 64 69  1  0
 65 66  1  0
 65 64  1  0
 67 66  1  0
 67 76  1  0
 67 68  1  0
 69 63  1  0
 69 68  1  0
 70 63  2  0
 71 62  1  0
 71 72  1  0
 73 74  2  0
 74 75  1  0
 74 93  1  0
 75 78  1  0
 76 73  1  0
 76 77  1  0
 77 75  2  0
 78 79  1  0
 79 80  2  0
 81 84  1  0
 81 80  1  0
 82 81  2  0
 83 82  1  0
 83 78  2  0
 84 85  1  0
 85 86  1  0
 86 87  2  0
 88 87  1  0
 88 92  1  0
 89 88  2  0
 90 85  2  0
 90 89  1  0
 91 90  1  0
 93 94  1  0
 94 97  1  0
 94 96  1  0
 95 93  2  0
 98 99  1  0
 98 73  1  0
100 98  1  0
M  ISO  4   6 101  12 101  63 100  71 100
M  END
>  <TORSDO>  (41) 
F 20

>  <SCORE>  (41) 
-14.078

>  <name>  (41) 
40

>  <ligand_id>  (41) 
40

>  <original_smiles>  (41) 
[H]C(C([H])=C1C([H])(Oc2c([H])c([H])c3c(c2[H])C([H])([H])N(C(=O)C([H])(N([H])C(=O)C([H])(N([H])C([H])([H])[H])C([H])([H])[H])C(C([H])([H])[H])(C([H])([H])[H])C([H])([H])[H])C([H])(C(=O)N([H])C2([H])c4c([H])c([H])c([H])c([H])c4C([H])([H])C([H])([H])C2([H])[H])C3([H])[H])C([H])([H])C([H])([H])C([H])([H])[N+]1([H])C([H])([H])c1c([H])c(C([H])([H])[H])c(Cl)c(C([H])([H])N([H])C(=O)N2C([H])([H])C([H])([H])C([H])([H])C([H])(n3nc(-c4c([H])c([H])c(Oc5c([H])c([H])c(F)c([H])c5F)c([H])c4[H])c(C(=O)N([H])[H])c3N([H])[H])C2([H])[H])c1[H])=C([H])C([H])([H])[H]

>  <smiles>  (41) 
[H]C(C([H])=C1C([H])(Oc2c([H])c([H])c3c(c2[H])C([H])([H])N(C(=O)C([H])(N([H])C(=O)C([H])(N([H])C([H])([H])[H])C([H])([H])[H])C(C([H])([H])[H])(C([H])([H])[H])C([H])([H])[H])C([H])(C(=O)N([H])C2([H])c4c([H])c([H])c([H])c([H])c4C([H])([H])C([H])([H])C2([H])[H])C3([H])[H])C([H])([H])C([H])([H])C([H])([H])[N+]1([H])C([H])([H])c1c([H])c(C([H])([H])[H])c(Cl)c(C([H])([H])N([H])C(=O)N2C([H])([H])C([H])([H])C([H])([H])C([H])(n3nc(-c4c([H])c([H])c(Oc5c([H])c([H])c(F)c([H])c5F)c([H])c4[H])c(C(=O)N([H])[H])c3N([H])[H])C2([H])[H])c1[H])=C([H])C([H])([H])[H]

$$$$
41:0:0
     RDKit          3D

 95104  0  0  1  0  0  0  0  0999 V2000
  -28.7860  -22.8020   17.6420 C   0  0  0  0  0  0  0  0  0  0  0  0
  -28.4400  -21.8690   16.7360 C   0  0  0  0  0  2  0  0  0  0  0  0
  -29.1710  -24.2070   17.1990 C   0  0  0  0  0  2  0  0  0  0  0  0
  -28.4200  -25.2940   17.9690 C   0  0  0  0  0  2  0  0  0  0  0  0
  -28.3410  -23.6200   19.9570 C   0  0  0  0  0  2  0  0  0  0  0  0
  -28.6400  -25.1270   19.4810 C   0  0  0  0  0  3  0  0  0  0  0  0
  -28.8360  -22.5460   19.0180 N   0  0  0  0  0  0  0  0  0  0  0  0
  -28.3620  -20.1810   19.8120 C   0  0  0  0  0  3  0  0  0  0  0  0
  -31.0600  -19.5130   19.6710 C   0  0  0  0  0  3  0  0  0  0  0  0
  -28.7950  -18.8290   20.0610 C   0  0  0  0  0  0  0  0  0  0  0  0
  -30.1720  -18.4550   19.9900 C   0  0  0  0  0  0  0  0  0  0  0  0
  -29.2600  -21.2330   19.4680 C   0  0  0  0  0  0  0  0  0  0  0  0
  -30.6360  -20.8500   19.4220 C   0  0  0  0  0  0  0  0  0  0  0  0
  -27.7570  -17.7870   20.4350 C   0  0  0  0  0  1  0  0  0  0  0  0
  -31.8660  -22.0160   19.0740 Cl  0  0  0  0  0  0  0  0  0  0  0  0
  -30.7790  -17.0650   20.4570 C   0  0  0  0  0  2  0  0  0  0  0  0
  -30.8630  -14.5510   19.8950 C   0  0  0  0  0  0  0  0  0  0  0  0
  -30.5110  -12.2770   18.9440 C   0  0  0  0  0  2  0  0  0  0  0  0
  -29.5080  -12.3580   17.7740 C   0  0  0  0  0  2  0  0  0  0  0  0
  -28.0610  -12.2530   18.2910 C   0  0  0  0  0  2  0  0  0  0  0  0
  -27.7860  -13.1880   19.5000 C   0  0  0  0  0  3  0  0  0  0  0  0
  -28.9010  -13.0880   20.5620 C   0  0  0  0  0  2  0  0  0  0  0  0
  -30.1730  -13.3650   19.8840 N   0  0  0  0  0  0  0  0  0  0  0  0
  -32.0310  -14.5980   19.5010 O   0  0  0  0  0  0  0  0  0  0  0  0
  -30.1750  -15.7070   20.1860 N   0  0  0  0  0  0  0  0  0  0  0  0
  -29.1980  -15.5980   20.4090 H   0  0  0  0  0  0  0  0  0  0  0  0
  -25.4860  -13.8820   20.4000 C   0  0  0  0  0  0  0  0  0  0  0  0
  -24.4070  -13.1530   20.8220 C   0  0  0  0  0  0  0  0  0  0  0  0
  -24.7960  -11.7820   20.7260 C   0  0  0  0  0  0  0  0  0  0  0  0
  -26.4640  -12.9570   20.0730 N   0  0  0  0  0  0  0  0  0  0  0  0
  -26.0590  -11.6860   20.3320 N   0  0  0  0  0  0  0  0  0  0  0  0
  -24.0170  -10.5530   20.9310 C   0  0  0  0  0  0  0  0  0  0  0  0
  -24.4380   -9.5540   21.8370 C   0  0  0  0  0  3  0  0  0  0  0  0
  -23.6630   -8.3900   22.0300 C   0  0  0  0  0  3  0  0  0  0  0  0
  -22.4520   -8.2180   21.3180 C   0  0  0  0  0  0  0  0  0  0  0  0
  -22.0490   -9.2040   20.4000 C   0  0  0  0  0  3  0  0  0  0  0  0
  -22.8250  -10.3590   20.2060 C   0  0  0  0  0  3  0  0  0  0  0  0
  -21.6460   -7.1100   21.4240 O   0  0  0  0  0  0  0  0  0  0  0  0
  -21.5800   -6.3760   22.5810 C   0  0  0  0  0  0  0  0  0  0  0  0
  -21.1670   -6.9480   23.8040 C   0  0  0  0  0  3  0  0  0  0  0  0
  -21.0470   -6.1410   24.9540 C   0  0  0  0  0  3  0  0  0  0  0  0
  -21.3270   -4.7640   24.8800 C   0  0  0  0  0  0  0  0  0  0  0  0
  -21.7330   -4.1920   23.6620 C   0  0  0  0  0  3  0  0  0  0  0  0
  -21.8560   -4.9950   22.5140 C   0  0  0  0  0  0  0  0  0  0  0  0
  -22.2260   -4.4340   21.3380 F   0  0  0  0  0  0  0  0  0  0  0  0
  -21.2050   -3.9870   25.9820 F   0  0  0  0  0  0  0  0  0  0  0  0
  -23.0580  -13.6930   21.1970 C   0  0  0  0  0  0  0  0  0  0  0  0
  -22.3550  -13.0140   22.0980 N   0  0  0  0  0  0  0  0  0  0  0  0
  -22.6400  -14.7500   20.7280 O   0  0  0  0  0  0  0  0  0  0  0  0
  -22.7080  -12.1570   22.4970 H   0  0  0  0  0  0  0  0  0  0  0  0
  -21.4510  -13.3560   22.3900 H   0  0  0  0  0  0  0  0  0  0  0  0
  -25.7080  -15.2470   20.2420 N   0  0  0  0  0  0  0  0  0  0  0  0
  -24.9740  -15.9280   20.4030 H   0  0  0  0  0  0  0  0  0  0  0  0
  -26.5290  -15.6450   19.8050 H   0  0  0  0  0  0  0  0  0  0  0  0
  -28.3060  -26.3510   20.2600 O   0  0  0  0  0  0  0  0  0  0  0  0
  -24.4850  -31.7080   23.1880 C   0  0  0  0  0  0  0  0  0  0  0  0
  -27.1390  -27.1290   20.1840 C   0  0  0  0  0  0  0  0  0  0  0  0
  -23.2990  -30.2980   21.5420 C   0  0  0  0  0  3  0  0  0  0  0  0
  -24.7630  -28.7320   20.1460 C   0  0  0  0  0  0  0  0  0  0  0  0
  -25.8390  -30.6170   21.3810 C   0  0  0  0  0  2  0  0  0  0  0  0
  -25.9240  -29.2330   20.7440 C   0  0  0  0  0  0  0  0  0  0  0  0
  -27.1100  -28.4430   20.7500 C   0  0  0  0  0  3  0  0  0  0  0  0
  -25.9390  -26.6570   19.6090 C   0  0  0  0  0  3  0  0  0  0  0  0
  -24.7710  -27.4480   19.5740 C   0  0  0  0  0  3  0  0  0  0  0  0
  -23.5270  -29.6080   20.1700 C   0  0  0  0  0  2  0  0  0  0  0  0
  -24.5590  -30.8920   22.0940 N   0  0  0  0  0  0  0  0  0  0  0  0
  -23.3950  -31.9890   23.7080 O   0  0  0  0  0  0  0  0  0  0  0  0
  -22.6250  -29.2910   22.5030 C   0  0  0  0  0  0  0  0  0  0  0  0
  -21.3030  -29.0990   22.3490 N   0  0  0  0  0  0  0  0  0  0  0  0
  -23.2900  -28.6820   23.3450 O   0  0  0  0  0  0  0  0  0  0  0  0
  -20.8260  -29.6410   21.6420 H   0  0  0  0  0  0  0  0  0  0  0  0
  -17.9320  -27.8610   22.7670 C   0  0  0  0  0  0  0  0  0  0  0  0
  -20.4750  -28.1650   23.1120 C   0  0  0  0  0  3  0  0  0  0  0  0
  -20.6170  -26.7230   22.5710 C   0  0  0  0  0  2  0  0  0  0  0  0
  -19.5530  -26.3630   21.5290 C   0  0  0  0  0  2  0  0  0  0  0  0
  -18.1500  -26.5000   22.1250 C   0  0  0  0  0  2  0  0  0  0  0  0
  -19.0240  -28.6490   23.2160 C   0  0  0  0  0  0  0  0  0  0  0  0
  -18.7670  -29.9190   23.7740 C   0  0  0  0  0  3  0  0  0  0  0  0
  -17.4520  -30.4040   23.8870 C   0  0  0  0  0  3  0  0  0  0  0  0
  -16.3720  -29.6130   23.4550 C   0  0  0  0  0  3  0  0  0  0  0  0
  -16.6130  -28.3440   22.9000 C   0  0  0  0  0  3  0  0  0  0  0  0
  -25.7610  -32.3430   23.8230 C   0  0  0  0  0  3  0  0  0  0  0  0
  -25.4560  -33.7490   24.1220 N   0  0  0  0  0  0  0  0  0  0  0  0
  -25.7720  -34.7830   23.3310 C   0  0  0  0  0  0  0  0  0  0  0  0
  -26.4200  -34.6540   22.2900 O   0  0  0  0  0  0  0  0  0  0  0  0
  -24.8780  -33.9230   24.9320 H   0  0  0  0  0  0  0  0  0  0  0  0
  -24.0210  -36.5550   22.9820 C   0  0  0  0  0  1  0  0  0  0  0  0
  -25.2910  -36.1820   23.7630 C   0  0  0  0  0  3  0  0  0  0  0  0
  -27.4420  -37.1090   24.5010 C   0  0  0  0  0  1  0  0  0  0  0  0
  -26.3120  -37.2370   23.5840 N   0  0  0  0  0  0  0  0  0  0  0  0
  -25.9040  -38.1590   23.7110 H   0  0  0  0  0  0  0  0  0  0  0  0
  -26.2480  -31.5930   25.1230 C   0  0  1  0  0  0  0  0  0  0  0  0
  -25.1320  -31.3790   26.1720 C   0  0  0  0  0  1  0  0  0  0  0  0
  -26.8330  -30.2070   24.7670 C   0  0  0  0  0  1  0  0  0  0  0  0
  -27.3870  -32.3950   25.7950 C   0  0  0  0  0  1  0  0  0  0  0  0
  1  7  1  0
  2  1  2  0
  3  1  1  0
  3  4  1  0
  4  6  1  0
  6  5  1  0
  6 55  1  0
  7 12  1  0
  7  5  1  0
  8 10  1  0
  9 11  1  0
 10 14  1  0
 11 10  2  0
 11 16  1  0
 12  8  2  0
 13 12  1  0
 13  9  2  0
 15 13  1  0
 17 25  1  0
 18 23  1  0
 19 20  1  0
 19 18  1  0
 21 20  1  0
 21 30  1  0
 21 22  1  0
 23 17  1  0
 23 22  1  0
 24 17  2  0
 25 26  1  0
 25 16  1  0
 27 28  2  0
 28 47  1  0
 29 28  1  0
 29 32  1  0
 30 31  1  0
 30 27  1  0
 31 29  2  0
 32 33  1  0
 33 34  2  0
 35 38  1  0
 35 34  1  0
 36 35  2  0
 37 36  1  0
 37 32  2  0
 38 39  1  0
 39 40  1  0
 40 41  2  0
 42 41  1  0
 42 46  1  0
 43 42  2  0
 44 39  2  0
 44 43  1  0
 45 44  1  0
 47 48  1  0
 48 51  1  0
 48 50  1  0
 49 47  2  0
 52 27  1  0
 52 53  1  0
 54 52  1  0
 56 67  2  0
 57 55  1  0
 57 62  1  0
 58 66  1  0
 58 68  1  0
 59 65  1  0
 59 61  1  0
 60 66  1  0
 61 62  2  0
 61 60  1  0
 63 57  2  0
 64 63  1  0
 64 59  2  0
 65 58  1  0
 66 56  1  0
 68 70  2  0
 69 68  1  0
 71 69  1  0
 72 81  2  0
 72 77  1  0
 73 69  1  0
 73 77  1  0
 74 73  1  0
 75 76  1  0
 75 74  1  0
 76 72  1  0
 77 78  2  0
 78 79  1  0
 80 79  2  0
 81 80  1  0
 82 56  1  0
 82 83  1  0
 82 92  1  0
 83 86  1  0
 84 88  1  0
 84 83  1  0
 85 84  2  0
 88 87  1  0
 90 91  1  0
 90 88  1  0
 90 89  1  0
 92 95  1  1
 92 93  1  0
 94 92  1  0
M  ISO  4   6 101  17 100  25 100  55 101
M  END
>  <TORSDO>  (42) 
F 18

>  <SCORE>  (42) 
-13.957

>  <name>  (42) 
41

>  <ligand_id>  (42) 
41

>  <original_smiles>  (42) 
[H]C([H])=C1N(c2c([H])c(C([H])([H])[H])c(C([H])([H])N([H])C(=O)N3C([H])([H])C([H])([H])C([H])([H])C([H])(n4nc(-c5c([H])c([H])c(Oc6c([H])c([H])c(F)c([H])c6F)c([H])c5[H])c(C(=O)N([H])[H])c4N([H])[H])C3([H])[H])c([H])c2Cl)C([H])([H])C([H])(Oc2c([H])c([H])c3c(c2[H])C([H])([H])N(C(=O)C([H])(N([H])C(=O)C([H])(N([H])C([H])([H])[H])C([H])([H])[H])C(C([H])([H])[H])(C([H])([H])[H])C([H])([H])[H])C([H])(C(=O)N([H])C2([H])c4c([H])c([H])c([H])c([H])c4C([H])([H])C([H])([H])C2([H])[H])C3([H])[H])C([H])([H])C1([H])[H]

>  <smiles>  (42) 
[H]C([H])=C1N(c2c([H])c(C([H])([H])[H])c(C([H])([H])N([H])C(=O)N3C([H])([H])C([H])([H])C([H])([H])C([H])(n4nc(-c5c([H])c([H])c(Oc6c([H])c([H])c(F)c([H])c6F)c([H])c5[H])c(C(=O)N([H])[H])c4N([H])[H])C3([H])[H])c([H])c2Cl)C([H])([H])C([H])(Oc2c([H])c([H])c3c(c2[H])C([H])([H])N(C(=O)C([H])(N([H])C(=O)C([H])(N([H])C([H])([H])[H])C([H])([H])[H])C(C([H])([H])[H])(C([H])([H])[H])C([H])([H])[H])C([H])(C(=O)N([H])C2([H])c4c([H])c([H])c([H])c([H])c4C([H])([H])C([H])([H])C2([H])[H])C3([H])[H])C([H])([H])C1([H])[H]

$$$$
42:0:0
     RDKit          3D

102111  0  0  1  0  0  0  0  0999 V2000
  -31.5940  -23.5590   19.1190 C   0  0  0  0  0  0  0  0  0  0  0  0
  -32.7650  -23.6230   18.4310 C   0  0  0  0  0  0  0  0  0  0  0  0
  -30.7970  -24.7470   19.6500 C   0  0  0  0  0  2  0  0  0  0  0  0
  -29.2290  -22.8990   17.5760 C   0  0  0  0  0  2  0  0  0  0  0  0
  -28.6820  -24.1440   18.3190 C   0  0  0  0  0  2  0  0  0  0  0  0
  -29.8940  -21.7960   18.4430 C   0  0  0  0  0  2  0  0  0  0  0  0
  -29.7640  -25.2170   18.6000 C   0  0  0  0  0  3  0  0  0  0  0  0
  -33.4480  -24.9700   18.2150 C   0  0  0  0  0  1  0  0  0  0  0  0
  -30.8420  -22.3050   19.4750 N   0  0  1  0  0  4  0  0  0  0  0  0
  -30.1810  -22.6130   20.1720 H   0  0  0  0  0  0  0  0  0  0  0  0
  -34.6180  -22.2960   17.4380 C   0  0  0  0  0  2  0  0  0  0  0  0
  -33.3310  -22.4410   17.7930 C   0  0  0  0  0  3  0  0  0  0  0  0
  -31.6200  -21.3020   20.2780 C   0  0  0  0  0  2  0  0  0  0  0  0
  -31.1070  -19.0980   19.1230 C   0  0  0  0  0  3  0  0  0  0  0  0
  -31.1470  -19.8320   20.3250 C   0  0  0  0  0  0  0  0  0  0  0  0
  -30.7970  -17.7240   19.0990 C   0  0  0  0  0  0  0  0  0  0  0  0
  -30.8610  -19.1550   21.5430 C   0  0  0  0  0  0  0  0  0  0  0  0
  -30.6870  -17.7380   21.5440 C   0  0  0  0  0  0  0  0  0  0  0  0
  -30.6660  -17.0100   20.3210 C   0  0  0  0  0  0  0  0  0  0  0  0
  -30.5820  -17.0980   17.7310 C   0  0  0  0  0  1  0  0  0  0  0  0
  -30.7660  -19.9390   22.8530 C   0  0  0  0  0  1  0  0  0  0  0  0
  -30.5420  -16.9830   22.8680 C   0  0  0  0  0  1  0  0  0  0  0  0
  -31.1690  -14.5600   20.0190 C   0  0  0  0  0  0  0  0  0  0  0  0
  -30.8130  -12.3930   18.9230 C   0  0  0  0  0  2  0  0  0  0  0  0
  -29.8170  -12.6160   17.7660 C   0  0  0  0  0  2  0  0  0  0  0  0
  -28.3640  -12.4960   18.2630 C   0  0  0  0  0  2  0  0  0  0  0  0
  -28.0930  -13.3410   19.5360 C   0  0  0  0  0  3  0  0  0  0  0  0
  -29.1940  -13.1100   20.5950 C   0  0  0  0  0  2  0  0  0  0  0  0
  -30.4960  -13.3820   19.9610 N   0  0  0  0  0  0  0  0  0  0  0  0
  -32.3210  -14.6940   19.6050 O   0  0  0  0  0  0  0  0  0  0  0  0
  -30.4000  -15.6060   20.3800 N   0  0  0  0  0  0  0  0  0  0  0  0
  -29.5170  -15.3510   20.7910 H   0  0  0  0  0  0  0  0  0  0  0  0
  -25.7550  -13.9900   20.4030 C   0  0  0  0  0  0  0  0  0  0  0  0
  -24.6840  -13.2330   20.7970 C   0  0  0  0  0  0  0  0  0  0  0  0
  -25.1010  -11.8710   20.6830 C   0  0  0  0  0  0  0  0  0  0  0  0
  -26.7590  -13.0880   20.0770 N   0  0  0  0  0  0  0  0  0  0  0  0
  -26.3700  -11.8080   20.3020 N   0  0  0  0  0  0  0  0  0  0  0  0
  -24.3480  -10.6240   20.8570 C   0  0  0  0  0  0  0  0  0  0  0  0
  -24.7340   -9.6540   21.8090 C   0  0  0  0  0  3  0  0  0  0  0  0
  -23.9820   -8.4700   21.9710 C   0  0  0  0  0  3  0  0  0  0  0  0
  -22.8300   -8.2470   21.1790 C   0  0  0  0  0  0  0  0  0  0  0  0
  -22.4640   -9.2040   20.2160 C   0  0  0  0  0  3  0  0  0  0  0  0
  -23.2160  -10.3790   20.0530 C   0  0  0  0  0  3  0  0  0  0  0  0
  -22.0550   -7.1150   21.2490 O   0  0  0  0  0  0  0  0  0  0  0  0
  -21.8520   -6.4510   22.4310 C   0  0  0  0  0  0  0  0  0  0  0  0
  -21.2840   -7.0910   23.5540 C   0  0  0  0  0  3  0  0  0  0  0  0
  -21.0290   -6.3560   24.7280 C   0  0  0  0  0  3  0  0  0  0  0  0
  -21.3300   -4.9820   24.7800 C   0  0  0  0  0  0  0  0  0  0  0  0
  -21.8900   -4.3430   23.6610 C   0  0  0  0  0  3  0  0  0  0  0  0
  -22.1470   -5.0750   22.4870 C   0  0  0  0  0  0  0  0  0  0  0  0
  -22.6670   -4.4490   21.4040 F   0  0  0  0  0  0  0  0  0  0  0  0
  -21.0760   -4.2730   25.9050 F   0  0  0  0  0  0  0  0  0  0  0  0
  -23.3190  -13.7390   21.1620 C   0  0  0  0  0  0  0  0  0  0  0  0
  -22.6230  -13.0370   22.0490 N   0  0  0  0  0  0  0  0  0  0  0  0
  -22.8770  -14.7900   20.6970 O   0  0  0  0  0  0  0  0  0  0  0  0
  -22.9930  -12.1880   22.4460 H   0  0  0  0  0  0  0  0  0  0  0  0
  -21.7050  -13.3520   22.3340 H   0  0  0  0  0  0  0  0  0  0  0  0
  -25.9520  -15.3600   20.2760 N   0  0  0  0  0  0  0  0  0  0  0  0
  -25.2130  -16.0290   20.4580 H   0  0  0  0  0  0  0  0  0  0  0  0
  -26.7910  -15.7890   19.9090 H   0  0  0  0  0  0  0  0  0  0  0  0
  -29.1650  -26.6030   18.9230 C   0  0  0  0  0  2  0  0  0  0  0  0
  -28.4360  -26.5820   20.1430 O   0  0  0  0  0  0  0  0  0  0  0  0
  -24.6780  -31.7110   23.3150 C   0  0  0  0  0  0  0  0  0  0  0  0
  -27.2800  -27.3210   20.1510 C   0  0  0  0  0  0  0  0  0  0  0  0
  -23.4570  -30.3490   21.6490 C   0  0  0  0  0  3  0  0  0  0  0  0
  -24.8940  -28.8210   20.1990 C   0  0  0  0  0  0  0  0  0  0  0  0
  -25.9810  -30.6920   21.4550 C   0  0  0  0  0  2  0  0  0  0  0  0
  -26.0520  -29.3270   20.8020 C   0  0  0  0  0  0  0  0  0  0  0  0
  -27.2470  -28.5770   20.7910 C   0  0  0  0  0  3  0  0  0  0  0  0
  -26.1080  -26.8140   19.5530 C   0  0  0  0  0  3  0  0  0  0  0  0
  -24.9150  -27.5610   19.5750 C   0  0  0  0  0  3  0  0  0  0  0  0
  -23.6570  -29.6870   20.2580 C   0  0  0  0  0  2  0  0  0  0  0  0
  -24.7240  -30.9290   22.1990 N   0  0  0  0  0  0  0  0  0  0  0  0
  -23.6000  -31.9860   23.8610 O   0  0  0  0  0  0  0  0  0  0  0  0
  -22.7940  -29.3190   22.5930 C   0  0  0  0  0  0  0  0  0  0  0  0
  -21.4760  -29.1210   22.4290 N   0  0  0  0  0  0  0  0  0  0  0  0
  -23.4640  -28.7010   23.4240 O   0  0  0  0  0  0  0  0  0  0  0  0
  -20.9990  -29.6770   21.7320 H   0  0  0  0  0  0  0  0  0  0  0  0
  -18.1180  -27.8390   22.7760 C   0  0  0  0  0  0  0  0  0  0  0  0
  -20.6490  -28.1720   23.1730 C   0  0  0  0  0  3  0  0  0  0  0  0
  -20.8210  -26.7360   22.6260 C   0  0  0  0  0  2  0  0  0  0  0  0
  -19.7810  -26.3660   21.5640 C   0  0  0  0  0  2  0  0  0  0  0  0
  -18.3650  -26.4830   22.1340 C   0  0  0  0  0  2  0  0  0  0  0  0
  -19.1910  -28.6380   23.2490 C   0  0  0  0  0  0  0  0  0  0  0  0
  -18.9090  -29.9060   23.8010 C   0  0  0  0  0  3  0  0  0  0  0  0
  -17.5850  -30.3730   23.8910 C   0  0  0  0  0  3  0  0  0  0  0  0
  -16.5240  -29.5700   23.4380 C   0  0  0  0  0  3  0  0  0  0  0  0
  -16.7920  -28.3050   22.8850 C   0  0  0  0  0  3  0  0  0  0  0  0
  -25.9730  -32.3130   23.9480 C   0  0  0  0  0  3  0  0  0  0  0  0
  -26.4310  -31.5670   25.2610 C   0  0  1  0  0  0  0  0  0  0  0  0
  -25.3030  -31.3990   26.3050 C   0  0  0  0  0  1  0  0  0  0  0  0
  -26.9780  -30.1600   24.9240 C   0  0  0  0  0  1  0  0  0  0  0  0
  -27.5890  -32.3450   25.9310 C   0  0  0  0  0  1  0  0  0  0  0  0
  -25.7150  -33.7340   24.2170 N   0  0  0  0  0  0  0  0  0  0  0  0
  -26.1010  -34.7410   23.4210 C   0  0  0  0  0  0  0  0  0  0  0  0
  -26.7830  -34.5700   22.4070 O   0  0  0  0  0  0  0  0  0  0  0  0
  -25.1140  -33.9430   25.0020 H   0  0  0  0  0  0  0  0  0  0  0  0
  -24.4400  -36.5730   22.9680 C   0  0  0  0  0  1  0  0  0  0  0  0
  -25.6560  -36.1630   23.8140 C   0  0  0  0  0  3  0  0  0  0  0  0
  -27.8090  -37.0040   24.6420 C   0  0  0  0  0  1  0  0  0  0  0  0
  -26.7270  -37.1740   23.6740 N   0  0  0  0  0  0  0  0  0  0  0  0
  -26.3520  -38.1120   23.7810 H   0  0  0  0  0  0  0  0  0  0  0  0
  1  9  1  0
  1  3  1  0
  2  1  2  0
  4  5  1  0
  4  6  1  0
  5  7  1  0
  6  9  1  0
  7 61  1  0
  7  3  1  0
  8  2  1  0
  9 10  1  1
  9 13  1  0
 11 12  2  0
 12  2  1  0
 13 15  1  0
 14 15  1  0
 15 17  2  0
 16 14  2  0
 16 19  1  0
 17 18  1  0
 17 21  1  0
 18 22  1  0
 19 31  1  0
 19 18  2  0
 20 16  1  0
 23 31  1  0
 24 29  1  0
 25 26  1  0
 25 24  1  0
 27 26  1  0
 27 36  1  0
 27 28  1  0
 29 23  1  0
 29 28  1  0
 30 23  2  0
 31 32  1  0
 33 34  2  0
 34 53  1  0
 35 34  1  0
 35 38  1  0
 36 37  1  0
 36 33  1  0
 37 35  2  0
 38 39  1  0
 39 40  2  0
 41 44  1  0
 41 40  1  0
 42 41  2  0
 43 42  1  0
 43 38  2  0
 44 45  1  0
 45 50  2  0
 45 46  1  0
 46 47  2  0
 47 48  1  0
 48 52  1  0
 49 48  2  0
 50 49  1  0
 51 50  1  0
 53 54  1  0
 54 57  1  0
 54 56  1  0
 55 53  2  0
 58 33  1  0
 58 59  1  0
 60 58  1  0
 61 62  1  0
 62 64  1  0
 63 74  2  0
 64 69  1  0
 65 73  1  0
 65 75  1  0
 66 72  1  0
 66 68  1  0
 67 73  1  0
 68 67  1  0
 69 68  2  0
 70 71  1  0
 70 64  2  0
 71 66  2  0
 72 65  1  0
 73 63  1  0
 75 77  2  0
 76 75  1  0
 78 76  1  0
 79 88  2  0
 79 84  1  0
 80 76  1  0
 80 84  1  0
 81 80  1  0
 82 83  1  0
 82 81  1  0
 83 79  1  0
 84 85  2  0
 85 86  1  0
 87 86  2  0
 88 87  1  0
 89 63  1  0
 89 94  1  0
 89 90  1  0
 90 93  1  1
 90 91  1  0
 92 90  1  0
 94 97  1  0
 95 99  1  0
 95 94  1  0
 96 95  2  0
 99 98  1  0
101102  1  0
101 99  1  0
101100  1  0
M  ISO  4  23 100  31 100  61 101  62 101
M  END
>  <TORSDO>  (43) 
F 20

>  <SCORE>  (43) 
-12.743

>  <name>  (43) 
42

>  <ligand_id>  (43) 
42

>  <original_smiles>  (43) 
[H]C([H])=C([H])C(=C1C([H])([H])C([H])(C([H])([H])Oc2c([H])c([H])c3c(c2[H])C([H])([H])N(C(=O)C([H])(N([H])C(=O)C([H])(N([H])C([H])([H])[H])C([H])([H])[H])C(C([H])([H])[H])(C([H])([H])[H])C([H])([H])[H])C([H])(C(=O)N([H])C2([H])c4c([H])c([H])c([H])c([H])c4C([H])([H])C([H])([H])C2([H])[H])C3([H])[H])C([H])([H])C([H])([H])C([H])([H])[N+]1([H])C([H])([H])c1c([H])c(C([H])([H])[H])c(N([H])C(=O)N2C([H])([H])C([H])([H])C([H])([H])C([H])(n3nc(-c4c([H])c([H])c(Oc5c([H])c([H])c(F)c([H])c5F)c([H])c4[H])c(C(=O)N([H])[H])c3N([H])[H])C2([H])[H])c(C([H])([H])[H])c1C([H])([H])[H])C([H])([H])[H]

>  <smiles>  (43) 
[H]C([H])=C([H])C(=C1C([H])([H])C([H])(C([H])([H])Oc2c([H])c([H])c3c(c2[H])C([H])([H])N(C(=O)C([H])(N([H])C(=O)C([H])(N([H])C([H])([H])[H])C([H])([H])[H])C(C([H])([H])[H])(C([H])([H])[H])C([H])([H])[H])C([H])(C(=O)N([H])C2([H])c4c([H])c([H])c([H])c([H])c4C([H])([H])C([H])([H])C2([H])[H])C3([H])[H])C([H])([H])C([H])([H])C([H])([H])[N+]1([H])C([H])([H])c1c([H])c(C([H])([H])[H])c(N([H])C(=O)N2C([H])([H])C([H])([H])C([H])([H])C([H])(n3nc(-c4c([H])c([H])c(Oc5c([H])c([H])c(F)c([H])c5F)c([H])c4[H])c(C(=O)N([H])[H])c3N([H])[H])C2([H])[H])c(C([H])([H])[H])c1C([H])([H])[H])C([H])([H])[H]

$$$$
43:0:0
     RDKit          3D

 95104  0  0  1  0  0  0  0  0999 V2000
  -29.0990  -24.0760   20.3540 C   0  0  0  0  0  0  0  0  0  0  0  0
  -28.8930  -23.9060   17.4490 C   0  0  0  0  0  2  0  0  0  0  0  0
  -27.9890  -24.9030   18.1850 C   0  0  0  0  0  2  0  0  0  0  0  0
  -29.2270  -22.6550   18.2980 C   0  0  0  0  0  2  0  0  0  0  0  0
  -28.6890  -25.3310   19.4850 C   0  0  0  0  0  3  0  0  0  0  0  0
  -29.4730  -22.8890   19.7340 N   0  0  0  0  0  0  0  0  0  0  0  0
  -29.1610  -24.2170   21.5800 O   0  0  0  0  0  0  0  0  0  0  0  0
  -28.3490  -26.5910   20.2040 O   0  0  0  0  0  0  0  0  0  0  0  0
  -24.4610  -31.8200   23.2540 C   0  0  0  0  0  0  0  0  0  0  0  0
  -27.1540  -27.3290   20.1630 C   0  0  0  0  0  0  0  0  0  0  0  0
  -23.2770  -30.4140   21.6030 C   0  0  0  0  0  3  0  0  0  0  0  0
  -24.7500  -28.8900   20.1750 C   0  0  0  0  0  0  0  0  0  0  0  0
  -25.8100  -30.7750   21.4220 C   0  0  0  0  0  2  0  0  0  0  0  0
  -25.9110  -29.4020   20.7660 C   0  0  0  0  0  0  0  0  0  0  0  0
  -27.1100  -28.6330   20.7450 C   0  0  0  0  0  3  0  0  0  0  0  0
  -25.9580  -26.8530   19.5830 C   0  0  0  0  0  3  0  0  0  0  0  0
  -24.7760  -27.6200   19.5770 C   0  0  0  0  0  3  0  0  0  0  0  0
  -23.5020  -29.7450   20.2210 C   0  0  0  0  0  2  0  0  0  0  0  0
  -24.5350  -31.0190   22.1500 N   0  0  0  0  0  0  0  0  0  0  0  0
  -23.3730  -32.0780   23.7890 O   0  0  0  0  0  0  0  0  0  0  0  0
  -22.6280  -29.3840   22.5560 C   0  0  0  0  0  0  0  0  0  0  0  0
  -21.3160  -29.1500   22.3900 N   0  0  0  0  0  0  0  0  0  0  0  0
  -23.3060  -28.7970   23.4050 O   0  0  0  0  0  0  0  0  0  0  0  0
  -20.8310  -29.6770   21.6780 H   0  0  0  0  0  0  0  0  0  0  0  0
  -17.9920  -27.7710   22.7460 C   0  0  0  0  0  0  0  0  0  0  0  0
  -20.5100  -28.1910   23.1460 C   0  0  0  0  0  3  0  0  0  0  0  0
  -20.7280  -26.7510   22.6270 C   0  0  0  0  0  2  0  0  0  0  0  0
  -19.7060  -26.3310   21.5660 C   0  0  0  0  0  2  0  0  0  0  0  0
  -18.2830  -26.4140   22.1280 C   0  0  0  0  0  2  0  0  0  0  0  0
  -19.0390  -28.6130   23.2090 C   0  0  0  0  0  0  0  0  0  0  0  0
  -18.7150  -29.8790   23.7430 C   0  0  0  0  0  3  0  0  0  0  0  0
  -17.3760  -30.3070   23.8190 C   0  0  0  0  0  3  0  0  0  0  0  0
  -16.3430  -29.4640   23.3730 C   0  0  0  0  0  3  0  0  0  0  0  0
  -16.6510  -28.1980   22.8440 C   0  0  0  0  0  3  0  0  0  0  0  0
  -25.7360  -32.4660   23.8830 C   0  0  0  0  0  3  0  0  0  0  0  0
  -25.4160  -33.8670   24.1940 N   0  0  0  0  0  0  0  0  0  0  0  0
  -25.7430  -34.9120   23.4250 C   0  0  0  0  0  0  0  0  0  0  0  0
  -26.4150  -34.8010   22.3950 O   0  0  0  0  0  0  0  0  0  0  0  0
  -24.8310  -34.0270   25.0000 H   0  0  0  0  0  0  0  0  0  0  0  0
  -24.0050  -36.6900   23.0370 C   0  0  0  0  0  1  0  0  0  0  0  0
  -25.2410  -36.3020   23.8640 C   0  0  0  0  0  3  0  0  0  0  0  0
  -27.3630  -37.2050   24.7060 C   0  0  0  0  0  1  0  0  0  0  0  0
  -26.2670  -37.3620   23.7540 N   0  0  0  0  0  0  0  0  0  0  0  0
  -25.8520  -38.2800   23.8970 H   0  0  0  0  0  0  0  0  0  0  0  0
  -26.2410  -31.7130   25.1730 C   0  0  1  0  0  0  0  0  0  0  0  0
  -25.1380  -31.4670   26.2300 C   0  0  0  0  0  1  0  0  0  0  0  0
  -26.8490  -30.3420   24.8000 C   0  0  0  0  0  1  0  0  0  0  0  0
  -27.3700  -32.5300   25.8450 C   0  0  0  0  0  1  0  0  0  0  0  0
  -30.2380  -21.8100   20.4820 C   0  0  0  0  0  2  0  0  0  0  0  0
  -30.1370  -19.4980   19.1030 C   0  0  0  0  0  3  0  0  0  0  0  0
  -30.1290  -19.4350   21.4950 C   0  0  0  0  0  3  0  0  0  0  0  0
  -30.1000  -20.2350   20.3230 C   0  0  0  0  0  0  0  0  0  0  0  0
  -30.1750  -18.0650   19.0580 C   0  0  0  0  0  0  0  0  0  0  0  0
  -30.1930  -18.0120   21.4720 C   0  0  0  0  0  0  0  0  0  0  0  0
  -30.2330  -17.2780   20.2530 C   0  0  0  0  0  0  0  0  0  0  0  0
  -30.1180  -17.3970   17.6950 C   0  0  0  0  0  1  0  0  0  0  0  0
  -30.2340  -17.2760   22.8010 C   0  0  0  0  0  1  0  0  0  0  0  0
  -30.9750  -14.7840   19.9230 C   0  0  0  0  0  0  0  0  0  0  0  0
  -30.7410  -12.5180   18.9210 C   0  0  0  0  0  2  0  0  0  0  0  0
  -29.7350  -12.6230   17.7520 C   0  0  0  0  0  2  0  0  0  0  0  0
  -28.2850  -12.4680   18.2560 C   0  0  0  0  0  2  0  0  0  0  0  0
  -27.9890  -13.3530   19.4950 C   0  0  0  0  0  3  0  0  0  0  0  0
  -29.1020  -13.2110   20.5590 C   0  0  0  0  0  2  0  0  0  0  0  0
  -30.3790  -13.5490   19.9120 N   0  0  0  0  0  0  0  0  0  0  0  0
  -32.1120  -14.9510   19.4710 O   0  0  0  0  0  0  0  0  0  0  0  0
  -30.1660  -15.8140   20.3240 N   0  0  0  0  0  0  0  0  0  0  0  0
  -29.3350  -15.4710   20.7800 H   0  0  0  0  0  0  0  0  0  0  0  0
  -25.6760  -13.9810   20.4170 C   0  0  0  0  0  0  0  0  0  0  0  0
  -24.6050  -13.2220   20.8040 C   0  0  0  0  0  0  0  0  0  0  0  0
  -25.0110  -11.8610   20.6470 C   0  0  0  0  0  0  0  0  0  0  0  0
  -26.6660  -13.0850   20.0500 N   0  0  0  0  0  0  0  0  0  0  0  0
  -26.2750  -11.8000   20.2460 N   0  0  0  0  0  0  0  0  0  0  0  0
  -24.2490  -10.6140   20.7980 C   0  0  0  0  0  0  0  0  0  0  0  0
  -24.6380   -9.6190   21.7220 C   0  0  0  0  0  3  0  0  0  0  0  0
  -23.8800   -8.4370   21.8610 C   0  0  0  0  0  3  0  0  0  0  0  0
  -22.7190   -8.2420   21.0770 C   0  0  0  0  0  0  0  0  0  0  0  0
  -22.3500   -9.2240   20.1400 C   0  0  0  0  0  3  0  0  0  0  0  0
  -23.1100  -10.3980   19.9980 C   0  0  0  0  0  3  0  0  0  0  0  0
  -21.9340   -7.1150   21.1280 O   0  0  0  0  0  0  0  0  0  0  0  0
  -21.7350   -6.4290   22.3000 C   0  0  0  0  0  0  0  0  0  0  0  0
  -21.1890   -7.0500   23.4460 C   0  0  0  0  0  3  0  0  0  0  0  0
  -20.9370   -6.2910   24.6060 C   0  0  0  0  0  3  0  0  0  0  0  0
  -21.2200   -4.9110   24.6190 C   0  0  0  0  0  0  0  0  0  0  0  0
  -21.7570   -4.2900   23.4780 C   0  0  0  0  0  3  0  0  0  0  0  0
  -22.0100   -5.0470   22.3220 C   0  0  0  0  0  0  0  0  0  0  0  0
  -22.5080   -4.4390   21.2170 F   0  0  0  0  0  0  0  0  0  0  0  0
  -20.9710   -4.1790   25.7310 F   0  0  0  0  0  0  0  0  0  0  0  0
  -23.2500  -13.7260   21.2080 C   0  0  0  0  0  0  0  0  0  0  0  0
  -22.5670  -13.0050   22.0910 N   0  0  0  0  0  0  0  0  0  0  0  0
  -22.8080  -14.7890   20.7740 O   0  0  0  0  0  0  0  0  0  0  0  0
  -22.9400  -12.1440   22.4600 H   0  0  0  0  0  0  0  0  0  0  0  0
  -21.6590  -13.3190   22.4040 H   0  0  0  0  0  0  0  0  0  0  0  0
  -25.8860  -15.3540   20.3240 N   0  0  0  0  0  0  0  0  0  0  0  0
  -25.1580  -16.0290   20.5280 H   0  0  0  0  0  0  0  0  0  0  0  0
  -26.7300  -15.7800   19.9660 H   0  0  0  0  0  0  0  0  0  0  0  0
  1  7  2  0
  2  3  1  0
  2  4  1  0
  3  5  1  0
  4  6  1  0
  5  8  1  0
  5  1  1  0
  6  1  1  0
  6 49  1  0
  9 20  2  0
 10  8  1  0
 10 15  1  0
 11 19  1  0
 11 21  1  0
 12 18  1  0
 12 14  1  0
 13 19  1  0
 14 13  1  0
 15 14  2  0
 16 10  2  0
 17 16  1  0
 17 12  2  0
 18 11  1  0
 19  9  1  0
 21 23  2  0
 22 21  1  0
 24 22  1  0
 25 34  2  0
 25 30  1  0
 26 22  1  0
 26 30  1  0
 27 26  1  0
 28 29  1  0
 28 27  1  0
 29 25  1  0
 30 31  2  0
 31 32  1  0
 33 32  2  0
 34 33  1  0
 35  9  1  0
 35 36  1  0
 35 45  1  0
 36 39  1  0
 37 41  1  0
 37 36  1  0
 38 37  2  0
 41 40  1  0
 43 41  1  0
 43 44  1  0
 43 42  1  0
 45 48  1  1
 45 46  1  0
 47 45  1  0
 50 52  1  0
 52 49  1  0
 52 51  2  0
 53 50  2  0
 53 55  1  0
 54 51  1  0
 54 57  1  0
 55 66  1  0
 55 54  2  0
 56 53  1  0
 58 66  1  0
 59 64  1  0
 60 61  1  0
 60 59  1  0
 62 61  1  0
 62 71  1  0
 62 63  1  0
 64 58  1  0
 64 63  1  0
 65 58  2  0
 66 67  1  0
 68 69  2  0
 69 88  1  0
 70 73  1  0
 70 69  1  0
 71 72  1  0
 71 68  1  0
 72 70  2  0
 73 74  1  0
 74 75  2  0
 76 79  1  0
 76 75  1  0
 77 76  2  0
 78 77  1  0
 78 73  2  0
 79 80  1  0
 80 85  2  0
 80 81  1  0
 81 82  2  0
 82 83  1  0
 83 87  1  0
 84 83  2  0
 85 84  1  0
 86 85  1  0
 88 89  1  0
 89 92  1  0
 89 91  1  0
 90 88  2  0
 93 68  1  0
 93 94  1  0
 95 93  1  0
M  ISO  4   5 101   8 101  58 100  66 100
M  END
>  <TORSDO>  (44) 
F 18

>  <SCORE>  (44) 
-13.311

>  <name>  (44) 
43

>  <ligand_id>  (44) 
43

>  <original_smiles>  (44) 
[H]c1c([H])c([H])c2c(c1[H])C([H])([H])C([H])([H])C([H])([H])C2([H])N([H])C(=O)C1([H])N(C(=O)C([H])(N([H])C(=O)C([H])(N([H])C([H])([H])[H])C([H])([H])[H])C(C([H])([H])[H])(C([H])([H])[H])C([H])([H])[H])C([H])([H])c2c([H])c(OC3([H])C(=O)N(C([H])([H])c4c([H])c(C([H])([H])[H])c(N([H])C(=O)N5C([H])([H])C([H])([H])C([H])([H])C([H])(n6nc(-c7c([H])c([H])c(Oc8c([H])c([H])c(F)c([H])c8F)c([H])c7[H])c(C(=O)N([H])[H])c6N([H])[H])C5([H])[H])c(C([H])([H])[H])c4[H])C([H])([H])C([H])([H])C3([H])[H])c([H])c([H])c2C1([H])[H]

>  <smiles>  (44) 
[H]c1c([H])c([H])c2c(c1[H])C([H])([H])C([H])([H])C([H])([H])C2([H])N([H])C(=O)C1([H])N(C(=O)C([H])(N([H])C(=O)C([H])(N([H])C([H])([H])[H])C([H])([H])[H])C(C([H])([H])[H])(C([H])([H])[H])C([H])([H])[H])C([H])([H])c2c([H])c(OC3([H])C(=O)N(C([H])([H])c4c([H])c(C([H])([H])[H])c(N([H])C(=O)N5C([H])([H])C([H])([H])C([H])([H])C([H])(n6nc(-c7c([H])c([H])c(Oc8c([H])c([H])c(F)c([H])c8F)c([H])c7[H])c(C(=O)N([H])[H])c6N([H])[H])C5([H])[H])c(C([H])([H])[H])c4[H])C([H])([H])C([H])([H])C3([H])[H])c([H])c([H])c2C1([H])[H]

$$$$
44:0:0
     RDKit          3D

103112  0  0  1  0  0  0  0  0999 V2000
  -29.9690  -24.6900   19.1620 C   0  0  0  0  0  0  0  0  0  0  0  0
  -31.2430  -25.1380   19.0420 C   0  0  0  0  0  3  0  0  0  0  0  0
  -28.6500  -23.9860   16.3280 C   0  0  0  0  0  2  0  0  0  0  0  0
  -29.0140  -25.4850   16.3160 C   0  0  0  0  0  2  0  0  0  0  0  0
  -29.8680  -23.0960   16.6540 C   0  0  0  0  0  2  0  0  0  0  0  0
  -28.7330  -26.3030   17.5950 C   0  0  0  0  0  2  0  0  0  0  0  0
  -29.8740  -22.3760   18.0170 C   0  0  0  0  0  2  0  0  0  0  0  0
  -28.7100  -25.5750   18.9710 C   0  0  0  0  0  3  0  0  0  0  0  0
  -29.6010  -23.2070   19.2320 N   0  0  1  0  0  4  0  0  0  0  0  0
  -28.5910  -23.1980   19.2490 H   0  0  0  0  0  0  0  0  0  0  0  0
  -32.4460  -24.3220   19.0250 C   0  0  0  0  0  3  0  0  0  0  0  0
  -33.6810  -24.8190   18.8300 C   0  0  0  0  0  3  0  0  0  0  0  0
  -36.1050  -24.4390   18.6160 C   0  0  0  0  0  2  0  0  0  0  0  0
  -34.8600  -23.9740   18.8040 C   0  0  0  0  0  3  0  0  0  0  0  0
  -28.5180  -26.5940   20.0040 O   0  0  0  0  0  0  0  0  0  0  0  0
  -24.6220  -31.8060   23.1200 C   0  0  0  0  0  0  0  0  0  0  0  0
  -27.3270  -27.3310   20.0390 C   0  0  0  0  0  0  0  0  0  0  0  0
  -23.4430  -30.4050   21.4630 C   0  0  0  0  0  3  0  0  0  0  0  0
  -24.9190  -28.8690   20.0620 C   0  0  0  0  0  0  0  0  0  0  0  0
  -25.9780  -30.7460   21.3080 C   0  0  0  0  0  2  0  0  0  0  0  0
  -26.0760  -29.3750   20.6650 C   0  0  0  0  0  0  0  0  0  0  0  0
  -27.2790  -28.6170   20.6520 C   0  0  0  0  0  3  0  0  0  0  0  0
  -26.1210  -26.8420   19.4750 C   0  0  0  0  0  3  0  0  0  0  0  0
  -24.9410  -27.6010   19.4680 C   0  0  0  0  0  3  0  0  0  0  0  0
  -23.6770  -29.7340   20.0880 C   0  0  0  0  0  2  0  0  0  0  0  0
  -24.6990  -31.0020   22.0200 N   0  0  0  0  0  0  0  0  0  0  0  0
  -23.5320  -32.0750   23.6410 O   0  0  0  0  0  0  0  0  0  0  0  0
  -22.7800  -29.3800   22.4100 C   0  0  0  0  0  0  0  0  0  0  0  0
  -21.4490  -29.2310   22.2960 N   0  0  0  0  0  0  0  0  0  0  0  0
  -23.4570  -28.7220   23.2040 O   0  0  0  0  0  0  0  0  0  0  0  0
  -20.9680  -29.8130   21.6250 H   0  0  0  0  0  0  0  0  0  0  0  0
  -18.0490  -28.1380   22.8550 C   0  0  0  0  0  0  0  0  0  0  0  0
  -20.6210  -28.2960   23.0560 C   0  0  0  0  0  3  0  0  0  0  0  0
  -20.6560  -26.8820   22.4320 C   0  0  0  0  0  2  0  0  0  0  0  0
  -19.5150  -26.6330   21.4400 C   0  0  0  0  0  2  0  0  0  0  0  0
  -18.1580  -26.8070   22.1280 C   0  0  0  0  0  2  0  0  0  0  0  0
  -19.2060  -28.8450   23.2750 C   0  0  0  0  0  0  0  0  0  0  0  0
  -19.0520  -30.0960   23.9140 C   0  0  0  0  0  3  0  0  0  0  0  0
  -17.7730  -30.6380   24.1360 C   0  0  0  0  0  3  0  0  0  0  0  0
  -16.6300  -29.9280   23.7300 C   0  0  0  0  0  3  0  0  0  0  0  0
  -16.7680  -28.6800   23.0950 C   0  0  0  0  0  3  0  0  0  0  0  0
  -25.8970  -32.4390   23.7620 C   0  0  0  0  0  3  0  0  0  0  0  0
  -25.5740  -33.8280   24.1200 N   0  0  0  0  0  0  0  0  0  0  0  0
  -25.8940  -34.8970   23.3780 C   0  0  0  0  0  0  0  0  0  0  0  0
  -26.5690  -34.8220   22.3470 O   0  0  0  0  0  0  0  0  0  0  0  0
  -24.9930  -33.9620   24.9340 H   0  0  0  0  0  0  0  0  0  0  0  0
  -24.1420  -36.6660   23.0500 C   0  0  0  0  0  1  0  0  0  0  0  0
  -25.3860  -36.2680   23.8600 C   0  0  0  0  0  3  0  0  0  0  0  0
  -27.5020  -37.1650   24.7210 C   0  0  0  0  0  1  0  0  0  0  0  0
  -26.4040  -37.3380   23.7740 N   0  0  0  0  0  0  0  0  0  0  0  0
  -25.9820  -38.2480   23.9420 H   0  0  0  0  0  0  0  0  0  0  0  0
  -26.4120  -31.6510   25.0270 C   0  0  1  0  0  0  0  0  0  0  0  0
  -25.3140  -31.3710   26.0820 C   0  0  0  0  0  1  0  0  0  0  0  0
  -27.0190  -30.2940   24.6060 C   0  0  0  0  0  1  0  0  0  0  0  0
  -27.5480  -32.4470   25.7130 C   0  0  0  0  0  1  0  0  0  0  0  0
  -29.9430  -22.5040   20.5200 C   0  0  0  0  0  2  0  0  0  0  0  0
  -31.9650  -19.2110   20.6730 C   0  0  0  0  0  3  0  0  0  0  0  0
  -31.6070  -20.5730   20.6050 C   0  0  0  0  0  3  0  0  0  0  0  0
  -30.9970  -18.1840   20.6390 C   0  0  0  0  0  0  0  0  0  0  0  0
  -30.2610  -20.9780   20.4730 C   0  0  0  0  0  0  0  0  0  0  0  0
  -29.6320  -18.5680   20.4850 C   0  0  0  0  0  0  0  0  0  0  0  0
  -29.2700  -19.9540   20.3860 C   0  0  0  0  0  0  0  0  0  0  0  0
  -28.5370  -17.5060   20.4840 C   0  0  0  0  0  1  0  0  0  0  0  0
  -27.7980  -20.3400   20.2530 C   0  0  0  0  0  1  0  0  0  0  0  0
  -31.4870  -16.7450   20.9640 C   0  0  0  0  0  2  0  0  0  0  0  0
  -31.2930  -14.4670   19.9140 C   0  0  0  0  0  0  0  0  0  0  0  0
  -30.8430  -12.2450   18.9130 C   0  0  0  0  0  2  0  0  0  0  0  0
  -29.8570  -12.3760   17.7370 C   0  0  0  0  0  2  0  0  0  0  0  0
  -28.4010  -12.3160   18.2400 C   0  0  0  0  0  2  0  0  0  0  0  0
  -28.1440  -13.2590   19.4450 C   0  0  0  0  0  3  0  0  0  0  0  0
  -29.2420  -13.1100   20.5200 C   0  0  0  0  0  2  0  0  0  0  0  0
  -30.5420  -13.3280   19.8670 N   0  0  0  0  0  0  0  0  0  0  0  0
  -32.4040  -14.5380   19.3840 O   0  0  0  0  0  0  0  0  0  0  0  0
  -30.7380  -15.5510   20.5040 N   0  0  0  0  0  0  0  0  0  0  0  0
  -29.7940  -15.4480   20.8340 H   0  0  0  0  0  0  0  0  0  0  0  0
  -25.8450  -14.0040   20.3210 C   0  0  0  0  0  0  0  0  0  0  0  0
  -24.7480  -13.2990   20.7350 C   0  0  0  0  0  0  0  0  0  0  0  0
  -25.1060  -11.9200   20.6390 C   0  0  0  0  0  0  0  0  0  0  0  0
  -26.8080  -13.0600   20.0030 N   0  0  0  0  0  0  0  0  0  0  0  0
  -26.3710  -11.7980   20.2530 N   0  0  0  0  0  0  0  0  0  0  0  0
  -24.3010  -10.7060   20.8380 C   0  0  0  0  0  0  0  0  0  0  0  0
  -24.6860   -9.7070   21.7590 C   0  0  0  0  0  3  0  0  0  0  0  0
  -23.8850   -8.5600   21.9460 C   0  0  0  0  0  3  0  0  0  0  0  0
  -22.6840   -8.4040   21.2140 C   0  0  0  0  0  0  0  0  0  0  0  0
  -22.3170   -9.3920   20.2820 C   0  0  0  0  0  3  0  0  0  0  0  0
  -23.1180  -10.5310   20.0930 C   0  0  0  0  0  3  0  0  0  0  0  0
  -21.8560   -7.3120   21.3100 O   0  0  0  0  0  0  0  0  0  0  0  0
  -21.7350   -6.6030   22.4790 C   0  0  0  0  0  0  0  0  0  0  0  0
  -21.3120   -7.2120   23.6800 C   0  0  0  0  0  3  0  0  0  0  0  0
  -21.1350   -6.4320   24.8400 C   0  0  0  0  0  3  0  0  0  0  0  0
  -21.3710   -5.0450   24.7980 C   0  0  0  0  0  0  0  0  0  0  0  0
  -21.7880   -4.4360   23.6010 C   0  0  0  0  0  3  0  0  0  0  0  0
  -21.9660   -5.2130   22.4440 C   0  0  0  0  0  0  0  0  0  0  0  0
  -22.3470   -4.6180   21.2880 F   0  0  0  0  0  0  0  0  0  0  0  0
  -21.1930   -4.2940   25.9100 F   0  0  0  0  0  0  0  0  0  0  0  0
  -23.4080  -13.8670   21.1020 C   0  0  0  0  0  0  0  0  0  0  0  0
  -22.6940  -13.2110   22.0110 N   0  0  0  0  0  0  0  0  0  0  0  0
  -23.0070  -14.9260   20.6200 O   0  0  0  0  0  0  0  0  0  0  0  0
  -23.0330  -12.3540   22.4220 H   0  0  0  0  0  0  0  0  0  0  0  0
  -21.7970  -13.5710   22.2990 H   0  0  0  0  0  0  0  0  0  0  0  0
  -26.0980  -15.3630   20.1670 N   0  0  0  0  0  0  0  0  0  0  0  0
  -25.3780  -16.0630   20.3180 H   0  0  0  0  0  0  0  0  0  0  0  0
  -26.9390  -15.7450   19.7560 H   0  0  0  0  0  0  0  0  0  0  0  0
  1  9  1  0
  2  1  2  0
  3  5  1  0
  4  3  1  0
  4  6  1  0
  5  7  1  0
  6  8  1  0
  7  9  1  0
  8  1  1  0
  8 15  1  0
  9 10  1  1
  9 56  1  0
 11  2  1  0
 12 11  2  0
 13 14  2  0
 14 12  1  0
 15 17  1  0
 16 27  2  0
 17 22  1  0
 18 26  1  0
 18 28  1  0
 19 25  1  0
 19 21  1  0
 20 26  1  0
 21 20  1  0
 22 21  2  0
 23 17  2  0
 24 23  1  0
 24 19  2  0
 25 18  1  0
 26 16  1  0
 28 30  2  0
 29 28  1  0
 31 29  1  0
 32 41  2  0
 32 37  1  0
 33 29  1  0
 33 37  1  0
 34 33  1  0
 35 36  1  0
 35 34  1  0
 36 32  1  0
 37 38  2  0
 38 39  1  0
 40 39  2  0
 41 40  1  0
 42 16  1  0
 42 43  1  0
 42 52  1  0
 43 46  1  0
 44 48  1  0
 44 43  1  0
 45 44  2  0
 48 47  1  0
 50 48  1  0
 50 51  1  0
 50 49  1  0
 52 55  1  1
 52 53  1  0
 54 52  1  0
 58 57  2  0
 59 57  1  0
 59 65  1  0
 60 56  1  0
 60 58  1  0
 61 59  2  0
 62 60  2  0
 62 61  1  0
 63 61  1  0
 64 62  1  0
 66 74  1  0
 67 72  1  0
 68 69  1  0
 68 67  1  0
 70 69  1  0
 70 79  1  0
 70 71  1  0
 72 66  1  0
 72 71  1  0
 73 66  2  0
 74 75  1  0
 74 65  1  0
 76 77  2  0
 77 96  1  0
 78 77  1  0
 78 81  1  0
 79 80  1  0
 79 76  1  0
 80 78  2  0
 81 82  1  0
 82 83  2  0
 84 87  1  0
 84 83  1  0
 85 84  2  0
 86 85  1  0
 86 81  2  0
 87 88  1  0
 88 89  1  0
 89 90  2  0
 91 90  1  0
 91 95  1  0
 92 91  2  0
 93 88  2  0
 93 92  1  0
 94 93  1  0
 96 97  1  0
 97100  1  0
 97 99  1  0
 98 96  2  0
101102  1  0
101 76  1  0
103101  1  0
M  ISO  4   8 101  15 101  66 100  74 100
M  END
>  <TORSDO>  (45) 
F 21

>  <SCORE>  (45) 
-13.257

>  <name>  (45) 
44

>  <ligand_id>  (45) 
44

>  <original_smiles>  (45) 
[H]C([H])=C([H])C([H])=C([H])C([H])=C1C([H])(Oc2c([H])c([H])c3c(c2[H])C([H])([H])N(C(=O)C([H])(N([H])C(=O)C([H])(N([H])C([H])([H])[H])C([H])([H])[H])C(C([H])([H])[H])(C([H])([H])[H])C([H])([H])[H])C([H])(C(=O)N([H])C2([H])c4c([H])c([H])c([H])c([H])c4C([H])([H])C([H])([H])C2([H])[H])C3([H])[H])C([H])([H])C([H])([H])C([H])([H])C([H])([H])C([H])([H])[N+]1([H])C([H])([H])c1c([H])c([H])c(C([H])([H])N([H])C(=O)N2C([H])([H])C([H])([H])C([H])([H])C([H])(n3nc(-c4c([H])c([H])c(Oc5c([H])c([H])c(F)c([H])c5F)c([H])c4[H])c(C(=O)N([H])[H])c3N([H])[H])C2([H])[H])c(C([H])([H])[H])c1C([H])([H])[H]

>  <smiles>  (45) 
[H]C([H])=C([H])C([H])=C([H])C([H])=C1C([H])(Oc2c([H])c([H])c3c(c2[H])C([H])([H])N(C(=O)C([H])(N([H])C(=O)C([H])(N([H])C([H])([H])[H])C([H])([H])[H])C(C([H])([H])[H])(C([H])([H])[H])C([H])([H])[H])C([H])(C(=O)N([H])C2([H])c4c([H])c([H])c([H])c([H])c4C([H])([H])C([H])([H])C2([H])[H])C3([H])[H])C([H])([H])C([H])([H])C([H])([H])C([H])([H])C([H])([H])[N+]1([H])C([H])([H])c1c([H])c([H])c(C([H])([H])N([H])C(=O)N2C([H])([H])C([H])([H])C([H])([H])C([H])(n3nc(-c4c([H])c([H])c(Oc5c([H])c([H])c(F)c([H])c5F)c([H])c4[H])c(C(=O)N([H])[H])c3N([H])[H])C2([H])[H])c(C([H])([H])[H])c1C([H])([H])[H]

$$$$
45:0:0
     RDKit          3D

 97106  0  0  1  0  0  0  0  0999 V2000
  -31.0380  -22.3770   17.2780 C   0  0  0  0  0  2  0  0  0  0  0  0
  -29.9270  -23.4030   16.9670 C   0  0  0  0  0  2  0  0  0  0  0  0
  -31.8190  -22.6720   18.5840 C   0  0  0  0  0  2  0  0  0  0  0  0
  -28.7500  -23.4470   17.9590 C   0  0  0  0  0  2  0  0  0  0  0  0
  -31.2100  -22.2190   19.9410 C   0  0  0  0  0  2  0  0  0  0  0  0
  -29.1850  -23.6550   19.4210 C   0  0  0  0  0  3  0  0  0  0  0  0
  -29.7170  -22.3100   20.0450 N   0  0  1  0  0  4  0  0  0  0  0  0
  -29.5520  -22.3870   21.0380 H   0  0  0  0  0  0  0  0  0  0  0  0
  -29.1340  -20.9100   19.7100 C   0  0  0  0  0  2  0  0  0  0  0  0
  -31.1740  -17.2800   21.3990 C   0  0  0  0  0  3  0  0  0  0  0  0
  -30.1190  -18.3850   19.5120 C   0  0  0  0  0  3  0  0  0  0  0  0
  -30.8750  -18.3960   22.1990 C   0  0  0  0  0  0  0  0  0  0  0  0
  -29.8590  -19.5950   20.2860 C   0  0  0  0  0  0  0  0  0  0  0  0
  -30.2060  -19.5310   21.6670 C   0  0  0  0  0  0  0  0  0  0  0  0
  -30.7660  -17.2040   20.0600 C   0  0  0  0  0  0  0  0  0  0  0  0
  -31.2250  -18.3160   23.6770 C   0  0  0  0  0  1  0  0  0  0  0  0
  -29.8250  -20.6380   22.6450 C   0  0  0  0  0  1  0  0  0  0  0  0
  -31.5720  -14.7370   19.7780 C   0  0  0  0  0  0  0  0  0  0  0  0
  -31.1520  -12.4860   18.8130 C   0  0  0  0  0  2  0  0  0  0  0  0
  -30.1610  -12.6710   17.6420 C   0  0  0  0  0  2  0  0  0  0  0  0
  -28.6950  -12.6610   18.1350 C   0  0  0  0  0  2  0  0  0  0  0  0
  -28.4640  -13.5580   19.3830 C   0  0  0  0  0  3  0  0  0  0  0  0
  -29.5700  -13.3780   20.4390 C   0  0  0  0  0  2  0  0  0  0  0  0
  -30.8570  -13.5740   19.7620 N   0  0  0  0  0  0  0  0  0  0  0  0
  -32.8020  -14.7220   19.6740 O   0  0  0  0  0  0  0  0  0  0  0  0
  -30.8620  -15.8770   19.4310 N   0  0  0  0  0  0  0  0  0  0  0  0
  -30.0410  -15.6480   18.8880 H   0  0  0  0  0  0  0  0  0  0  0  0
  -26.1920  -14.3610   20.2550 C   0  0  0  0  0  0  0  0  0  0  0  0
  -25.0710  -13.6780   20.6550 C   0  0  0  0  0  0  0  0  0  0  0  0
  -25.4030  -12.2920   20.5750 C   0  0  0  0  0  0  0  0  0  0  0  0
  -27.1300  -13.3880   19.9470 N   0  0  0  0  0  0  0  0  0  0  0  0
  -26.6680  -12.1370   20.2080 N   0  0  0  0  0  0  0  0  0  0  0  0
  -24.5630  -11.1000   20.7720 C   0  0  0  0  0  0  0  0  0  0  0  0
  -24.9430  -10.0630   21.6520 C   0  0  0  0  0  3  0  0  0  0  0  0
  -24.1090   -8.9410   21.8370 C   0  0  0  0  0  3  0  0  0  0  0  0
  -22.8800   -8.8480   21.1430 C   0  0  0  0  0  0  0  0  0  0  0  0
  -22.5160   -9.8710   20.2480 C   0  0  0  0  0  3  0  0  0  0  0  0
  -23.3520  -10.9860   20.0620 C   0  0  0  0  0  3  0  0  0  0  0  0
  -22.0160   -7.7840   21.2400 O   0  0  0  0  0  0  0  0  0  0  0  0
  -21.8980   -7.0580   22.3970 C   0  0  0  0  0  0  0  0  0  0  0  0
  -21.5670   -7.6640   23.6300 C   0  0  0  0  0  3  0  0  0  0  0  0
  -21.3890   -6.8700   24.7790 C   0  0  0  0  0  3  0  0  0  0  0  0
  -21.5340   -5.4720   24.7010 C   0  0  0  0  0  0  0  0  0  0  0  0
  -21.8610   -4.8660   23.4750 C   0  0  0  0  0  3  0  0  0  0  0  0
  -22.0410   -5.6560   22.3270 C   0  0  0  0  0  0  0  0  0  0  0  0
  -22.3340   -5.0640   21.1440 F   0  0  0  0  0  0  0  0  0  0  0  0
  -21.3540   -4.7100   25.8050 F   0  0  0  0  0  0  0  0  0  0  0  0
  -23.7390  -14.2830   20.9890 C   0  0  0  0  0  0  0  0  0  0  0  0
  -23.0260  -13.7030   21.9490 N   0  0  0  0  0  0  0  0  0  0  0  0
  -23.3440  -15.3090   20.4370 O   0  0  0  0  0  0  0  0  0  0  0  0
  -23.3580  -12.8790   22.4300 H   0  0  0  0  0  0  0  0  0  0  0  0
  -22.1300  -14.0900   22.2090 H   0  0  0  0  0  0  0  0  0  0  0  0
  -26.4720  -15.7150   20.1110 N   0  0  0  0  0  0  0  0  0  0  0  0
  -25.7690  -16.4240   20.2870 H   0  0  0  0  0  0  0  0  0  0  0  0
  -27.3690  -16.1050   19.8410 H   0  0  0  0  0  0  0  0  0  0  0  0
  -28.1970  -24.6950   20.2000 C   0  0  0  0  0  2  0  0  0  0  0  0
  -28.3730  -26.2040   20.0230 O   0  0  0  0  0  0  0  0  0  0  0  0
  -24.4510  -31.6060   23.0020 C   0  0  0  0  0  0  0  0  0  0  0  0
  -27.2590  -27.0860   19.9850 C   0  0  0  0  0  0  0  0  0  0  0  0
  -23.3460  -30.2070   21.3020 C   0  0  0  0  0  3  0  0  0  0  0  0
  -24.8810  -28.7110   19.9110 C   0  0  0  0  0  0  0  0  0  0  0  0
  -25.8900  -30.5820   21.2070 C   0  0  0  0  0  2  0  0  0  0  0  0
  -26.0280  -29.2050   20.5460 C   0  0  0  0  0  0  0  0  0  0  0  0
  -27.2260  -28.4110   20.5550 C   0  0  0  0  0  3  0  0  0  0  0  0
  -26.0780  -26.6630   19.3380 C   0  0  0  0  0  3  0  0  0  0  0  0
  -24.9090  -27.4490   19.3040 C   0  0  0  0  0  3  0  0  0  0  0  0
  -23.6300  -29.5640   19.9220 C   0  0  0  0  0  2  0  0  0  0  0  0
  -24.5810  -30.8130   21.8960 N   0  0  0  0  0  0  0  0  0  0  0  0
  -23.3380  -31.8470   23.4930 O   0  0  0  0  0  0  0  0  0  0  0  0
  -22.6710  -29.1560   22.2220 C   0  0  0  0  0  0  0  0  0  0  0  0
  -21.3390  -29.0080   22.1030 N   0  0  0  0  0  0  0  0  0  0  0  0
  -23.3430  -28.4790   23.0040 O   0  0  0  0  0  0  0  0  0  0  0  0
  -20.8560  -29.6050   21.4470 H   0  0  0  0  0  0  0  0  0  0  0  0
  -17.9350  -27.9130   22.6680 C   0  0  0  0  0  0  0  0  0  0  0  0
  -20.5090  -28.0510   22.8420 C   0  0  0  0  0  3  0  0  0  0  0  0
  -20.5290  -26.6630   22.1630 C   0  0  0  0  0  2  0  0  0  0  0  0
  -19.3750  -26.4560   21.1780 C   0  0  0  0  0  2  0  0  0  0  0  0
  -18.0270  -26.6120   21.8890 C   0  0  0  0  0  2  0  0  0  0  0  0
  -19.1010  -28.5980   23.1010 C   0  0  0  0  0  0  0  0  0  0  0  0
  -18.9590  -29.8210   23.7910 C   0  0  0  0  0  3  0  0  0  0  0  0
  -17.6840  -30.3570   24.0490 C   0  0  0  0  0  3  0  0  0  0  0  0
  -16.5310  -29.6690   23.6290 C   0  0  0  0  0  3  0  0  0  0  0  0
  -16.6600  -28.4480   22.9440 C   0  0  0  0  0  3  0  0  0  0  0  0
  -25.6880  -32.2680   23.6820 C   0  0  0  0  0  3  0  0  0  0  0  0
  -26.1930  -31.4790   24.9500 C   0  0  1  0  0  0  0  0  0  0  0  0
  -25.0760  -31.1750   25.9750 C   0  0  0  0  0  1  0  0  0  0  0  0
  -26.8390  -30.1350   24.5370 C   0  0  0  0  0  1  0  0  0  0  0  0
  -27.2910  -32.2950   25.6740 C   0  0  0  0  0  1  0  0  0  0  0  0
  -25.3140  -33.6410   24.0490 N   0  0  0  0  0  0  0  0  0  0  0  0
  -25.6140  -34.7330   23.3350 C   0  0  0  0  0  0  0  0  0  0  0  0
  -26.3100  -34.6920   22.3160 O   0  0  0  0  0  0  0  0  0  0  0  0
  -24.7100  -33.7430   24.8520 H   0  0  0  0  0  0  0  0  0  0  0  0
  -23.8090  -36.4540   23.0260 C   0  0  0  0  0  1  0  0  0  0  0  0
  -25.0640  -36.0850   23.8340 C   0  0  0  0  0  3  0  0  0  0  0  0
  -27.1500  -37.0420   24.7090 C   0  0  0  0  0  1  0  0  0  0  0  0
  -26.0480  -37.1860   23.7600 N   0  0  0  0  0  0  0  0  0  0  0  0
  -25.5990  -38.0840   23.9280 H   0  0  0  0  0  0  0  0  0  0  0  0
  1  3  1  0
  2  1  1  0
  2  4  1  0
  3  5  1  0
  4  6  1  0
  5  7  1  0
  6  7  1  0
  6 56  1  0
  7  8  1  1
  9  7  1  0
  9 13  1  0
 10 12  1  0
 11 15  1  0
 11 13  2  0
 12 16  1  0
 13 14  1  0
 14 12  2  0
 14 17  1  0
 15 10  2  0
 19 24  1  0
 20 21  1  0
 20 19  1  0
 22 21  1  0
 22 31  1  0
 22 23  1  0
 24 18  1  0
 24 23  1  0
 25 18  2  0
 26 18  1  0
 26 15  1  0
 27 26  1  0
 28 29  2  0
 29 48  1  0
 30 29  1  0
 30 33  1  0
 31 32  1  0
 31 28  1  0
 32 30  2  0
 33 34  1  0
 34 35  2  0
 36 39  1  0
 36 35  1  0
 37 36  2  0
 38 37  1  0
 38 33  2  0
 39 40  1  0
 40 41  1  0
 41 42  2  0
 43 42  1  0
 43 47  1  0
 44 43  2  0
 45 40  2  0
 45 44  1  0
 46 45  1  0
 48 49  1  0
 49 52  1  0
 49 51  1  0
 50 48  2  0
 53 28  1  0
 53 54  1  0
 55 53  1  0
 57 56  1  0
 58 69  2  0
 59 57  1  0
 59 64  1  0
 60 68  1  0
 60 70  1  0
 61 67  1  0
 61 63  1  0
 62 68  1  0
 63 64  2  0
 63 62  1  0
 65 59  2  0
 66 65  1  0
 66 61  2  0
 67 60  1  0
 68 58  1  0
 70 72  2  0
 71 70  1  0
 73 71  1  0
 74 83  2  0
 74 79  1  0
 75 71  1  0
 75 79  1  0
 76 75  1  0
 77 78  1  0
 77 76  1  0
 78 74  1  0
 79 80  2  0
 80 81  1  0
 82 81  2  0
 83 82  1  0
 84 58  1  0
 84 89  1  0
 84 85  1  0
 85 88  1  1
 85 86  1  0
 87 85  1  0
 89 92  1  0
 90 94  1  0
 90 89  1  0
 91 90  2  0
 94 93  1  0
 96 94  1  0
 96 97  1  0
 96 95  1  0
M  ISO  4  18 100  26 100  56 101  57 101
M  END
>  <TORSDO>  (46) 
F 19

>  <SCORE>  (46) 
-12.005

>  <name>  (46) 
45

>  <ligand_id>  (46) 
45

>  <original_smiles>  (46) 
[H]c1c([H])c([H])c2c(c1[H])C([H])([H])C([H])([H])C([H])([H])C2([H])N([H])C(=O)C1([H])N(C(=O)C([H])(N([H])C(=O)C([H])(N([H])C([H])([H])[H])C([H])([H])[H])C(C([H])([H])[H])(C([H])([H])[H])C([H])([H])[H])C([H])([H])c2c([H])c(OC([H])([H])C3([H])C([H])([H])C([H])([H])C([H])([H])C([H])([H])C([H])([H])[N+]3([H])C([H])([H])c3c([H])c(N([H])C(=O)N4C([H])([H])C([H])([H])C([H])([H])C([H])(n5nc(-c6c([H])c([H])c(Oc7c([H])c([H])c(F)c([H])c7F)c([H])c6[H])c(C(=O)N([H])[H])c5N([H])[H])C4([H])[H])c([H])c(C([H])([H])[H])c3C([H])([H])[H])c([H])c([H])c2C1([H])[H]

>  <smiles>  (46) 
[H]c1c([H])c([H])c2c(c1[H])C([H])([H])C([H])([H])C([H])([H])C2([H])N([H])C(=O)C1([H])N(C(=O)C([H])(N([H])C(=O)C([H])(N([H])C([H])([H])[H])C([H])([H])[H])C(C([H])([H])[H])(C([H])([H])[H])C([H])([H])[H])C([H])([H])c2c([H])c(OC([H])([H])C3([H])C([H])([H])C([H])([H])C([H])([H])C([H])([H])C([H])([H])[N+]3([H])C([H])([H])c3c([H])c(N([H])C(=O)N4C([H])([H])C([H])([H])C([H])([H])C([H])(n5nc(-c6c([H])c([H])c(Oc7c([H])c([H])c(F)c([H])c7F)c([H])c6[H])c(C(=O)N([H])[H])c5N([H])[H])C4([H])[H])c([H])c(C([H])([H])[H])c3C([H])([H])[H])c([H])c([H])c2C1([H])[H]

$$$$
46:0:0
     RDKit          3D

 94102  0  0  1  0  0  0  0  0999 V2000
  -28.4940  -19.1620   21.1480 C   0  0  0  0  0  3  0  0  0  0  0  0
  -28.4510  -20.3200   20.3580 C   0  0  0  0  0  3  0  0  0  0  0  0
  -29.2470  -18.0330   20.7610 C   0  0  0  0  0  0  0  0  0  0  0  0
  -29.1830  -20.3980   19.1590 C   0  0  0  0  0  0  0  0  0  0  0  0
  -30.0000  -18.0610   19.5540 C   0  0  0  0  0  0  0  0  0  0  0  0
  -29.9630  -19.2610   18.7600 C   0  0  0  0  0  0  0  0  0  0  0  0
  -29.2740  -16.8430   21.7090 C   0  0  0  0  0  1  0  0  0  0  0  0
  -30.8940  -19.3780   17.3060 Cl  0  0  0  0  0  0  0  0  0  0  0  0
  -30.9640  -16.8840   19.2000 C   0  0  0  0  0  2  0  0  0  0  0  0
  -31.1640  -14.3850   19.0620 C   0  0  0  0  0  0  0  0  0  0  0  0
  -30.7470  -12.0650   18.3420 C   0  0  0  0  0  2  0  0  0  0  0  0
  -29.6430  -12.0840   17.2640 C   0  0  0  0  0  2  0  0  0  0  0  0
  -28.2430  -12.0280   17.9030 C   0  0  0  0  0  2  0  0  0  0  0  0
  -28.0630  -13.0750   19.0340 C   0  0  0  0  0  3  0  0  0  0  0  0
  -29.2580  -13.0330   20.0130 C   0  0  0  0  0  2  0  0  0  0  0  0
  -30.4980  -13.2090   19.2360 N   0  0  0  0  0  0  0  0  0  0  0  0
  -32.2010  -14.4670   18.3970 O   0  0  0  0  0  0  0  0  0  0  0  0
  -30.5640  -15.4940   19.5360 N   0  0  0  0  0  0  0  0  0  0  0  0
  -29.7830  -15.3520   20.1570 H   0  0  0  0  0  0  0  0  0  0  0  0
  -25.8800  -13.8550   20.1620 C   0  0  0  0  0  0  0  0  0  0  0  0
  -24.8140  -13.1630   20.6680 C   0  0  0  0  0  0  0  0  0  0  0  0
  -25.1250  -11.7800   20.4920 C   0  0  0  0  0  0  0  0  0  0  0  0
  -26.7810  -12.8990   19.7180 N   0  0  0  0  0  0  0  0  0  0  0  0
  -26.3370  -11.6430   19.9710 N   0  0  0  0  0  0  0  0  0  0  0  0
  -24.3170  -10.5780   20.7390 C   0  0  0  0  0  0  0  0  0  0  0  0
  -24.6880   -9.6240   21.7100 C   0  0  0  0  0  3  0  0  0  0  0  0
  -23.8850   -8.4850   21.9400 C   0  0  0  0  0  3  0  0  0  0  0  0
  -22.6960   -8.2950   21.1980 C   0  0  0  0  0  0  0  0  0  0  0  0
  -22.3430   -9.2370   20.2160 C   0  0  0  0  0  3  0  0  0  0  0  0
  -23.1460  -10.3650   19.9850 C   0  0  0  0  0  3  0  0  0  0  0  0
  -21.8660   -7.2070   21.3380 O   0  0  0  0  0  0  0  0  0  0  0  0
  -21.6060   -6.6510   22.5650 C   0  0  0  0  0  0  0  0  0  0  0  0
  -21.0100   -7.3920   23.6090 C   0  0  0  0  0  3  0  0  0  0  0  0
  -20.6970   -6.7610   24.8290 C   0  0  0  0  0  3  0  0  0  0  0  0
  -20.9720   -5.3920   25.0050 C   0  0  0  0  0  0  0  0  0  0  0  0
  -21.5620   -4.6530   23.9660 C   0  0  0  0  0  3  0  0  0  0  0  0
  -21.8760   -5.2800   22.7480 C   0  0  0  0  0  0  0  0  0  0  0  0
  -22.4240   -4.5550   21.7420 F   0  0  0  0  0  0  0  0  0  0  0  0
  -20.6640   -4.7860   26.1760 F   0  0  0  0  0  0  0  0  0  0  0  0
  -23.5360  -13.7470   21.1990 C   0  0  0  0  0  0  0  0  0  0  0  0
  -22.9070  -13.0730   22.1560 N   0  0  0  0  0  0  0  0  0  0  0  0
  -23.1130  -14.8310   20.7980 O   0  0  0  0  0  0  0  0  0  0  0  0
  -23.2640  -12.1960   22.5020 H   0  0  0  0  0  0  0  0  0  0  0  0
  -22.0550  -13.4460   22.5540 H   0  0  0  0  0  0  0  0  0  0  0  0
  -26.1560  -15.2120   20.0310 N   0  0  0  0  0  0  0  0  0  0  0  0
  -25.5020  -15.9310   20.3170 H   0  0  0  0  0  0  0  0  0  0  0  0
  -26.9960  -15.5920   19.6120 H   0  0  0  0  0  0  0  0  0  0  0  0
  -29.0480  -21.7040   18.3340 C   0  0  0  0  0  2  0  0  0  0  0  0
  -29.3760  -22.9510   19.1000 N   0  0  0  0  0  4  0  0  0  0  0  0
  -30.3760  -23.0640   19.0810 H   0  0  0  0  0  0  0  0  0  0  0  0
  -29.1110  -22.7900   20.0560 H   0  0  0  0  0  0  0  0  0  0  0  0
  -28.7280  -24.2280   18.6470 C   0  0  0  0  0  2  0  0  0  0  0  0
  -29.1080  -25.4320   19.5690 C   0  0  0  0  0  2  0  0  0  0  0  0
  -28.8630  -26.7750   19.1000 O   0  0  0  0  0  0  0  0  0  0  0  0
  -24.6390  -31.1560   22.8990 C   0  0  0  0  0  0  0  0  0  0  0  0
  -27.6270  -27.3580   19.2840 C   0  0  0  0  0  0  0  0  0  0  0  0
  -23.5510  -29.8890   21.0770 C   0  0  0  0  0  3  0  0  0  0  0  0
  -25.1160  -28.6580   19.4850 C   0  0  0  0  0  0  0  0  0  0  0  0
  -26.0390  -30.4650   20.9480 C   0  0  0  0  0  2  0  0  0  0  0  0
  -26.2300  -29.1930   20.1400 C   0  0  0  0  0  0  0  0  0  0  0  0
  -27.4920  -28.5550   20.0290 C   0  0  0  0  0  3  0  0  0  0  0  0
  -26.4870  -26.8310   18.6380 C   0  0  0  0  0  3  0  0  0  0  0  0
  -25.2400  -27.4770   18.7310 C   0  0  0  0  0  3  0  0  0  0  0  0
  -23.8100  -29.4070   19.6240 C   0  0  0  0  0  2  0  0  0  0  0  0
  -24.7590  -30.5160   21.7000 N   0  0  0  0  0  0  0  0  0  0  0  0
  -23.5390  -31.2660   23.4580 O   0  0  0  0  0  0  0  0  0  0  0  0
  -22.9870  -28.7060   21.8910 C   0  0  0  0  0  0  0  0  0  0  0  0
  -21.6850  -28.4330   21.7250 N   0  0  0  0  0  0  0  0  0  0  0  0
  -23.7190  -28.0410   22.6290 O   0  0  0  0  0  0  0  0  0  0  0  0
  -21.1530  -29.0530   21.1300 H   0  0  0  0  0  0  0  0  0  0  0  0
  -18.4400  -26.8620   22.0000 C   0  0  0  0  0  0  0  0  0  0  0  0
  -20.9560  -27.3230   22.3370 C   0  0  0  0  0  3  0  0  0  0  0  0
  -21.2030  -26.0010   21.5710 C   0  0  0  0  0  2  0  0  0  0  0  0
  -20.1310  -25.6840   20.5230 C   0  0  0  0  0  2  0  0  0  0  0  0
  -18.7490  -25.6250   21.1720 C   0  0  0  0  0  2  0  0  0  0  0  0
  -19.4760  -27.6680   22.5410 C   0  0  0  0  0  0  0  0  0  0  0  0
  -19.1320  -28.8320   23.2640 C   0  0  0  0  0  3  0  0  0  0  0  0
  -17.7790  -29.1710   23.4760 C   0  0  0  0  0  3  0  0  0  0  0  0
  -16.7580  -28.3520   22.9590 C   0  0  0  0  0  3  0  0  0  0  0  0
  -17.0900  -27.2000   22.2250 C   0  0  0  0  0  3  0  0  0  0  0  0
  -25.8660  -31.8060   23.6060 C   0  0  0  0  0  3  0  0  0  0  0  0
  -25.4700  -33.1510   24.0410 N   0  0  0  0  0  0  0  0  0  0  0  0
  -25.7640  -34.2830   23.3830 C   0  0  0  0  0  0  0  0  0  0  0  0
  -26.4740  -34.3020   22.3700 O   0  0  0  0  0  0  0  0  0  0  0  0
  -24.8410  -33.2060   24.8300 H   0  0  0  0  0  0  0  0  0  0  0  0
  -23.9480  -36.0010   23.1180 C   0  0  0  0  0  1  0  0  0  0  0  0
  -25.1850  -35.5970   23.9370 C   0  0  0  0  0  3  0  0  0  0  0  0
  -27.2320  -36.5310   24.9220 C   0  0  0  0  0  1  0  0  0  0  0  0
  -26.1580  -36.7120   23.9470 N   0  0  0  0  0  0  0  0  0  0  0  0
  -25.6930  -37.5920   24.1520 H   0  0  0  0  0  0  0  0  0  0  0  0
  -26.4000  -30.9610   24.8290 C   0  0  1  0  0  0  0  0  0  0  0  0
  -25.2990  -30.5690   25.8420 C   0  0  0  0  0  1  0  0  0  0  0  0
  -27.0770  -29.6610   24.3380 C   0  0  0  0  0  1  0  0  0  0  0  0
  -27.4830  -31.7630   25.5910 C   0  0  0  0  0  1  0  0  0  0  0  0
  2  1  2  0
  3  1  1  0
  3  7  1  0
  4  2  1  0
  5  3  2  0
  6  4  2  0
  6  5  1  0
  8  6  1  0
  9 18  1  0
  9  5  1  0
 10 16  1  0
 10 18  1  0
 11 16  1  0
 12 13  1  0
 12 11  1  0
 14 13  1  0
 14 23  1  0
 14 15  1  0
 16 15  1  0
 17 10  2  0
 18 19  1  0
 20 21  2  0
 21 40  1  0
 22 21  1  0
 22 25  1  0
 23 24  1  0
 23 20  1  0
 24 22  2  0
 25 26  1  0
 26 27  2  0
 28 31  1  0
 28 27  1  0
 29 28  2  0
 30 29  1  0
 30 25  2  0
 31 32  1  0
 32 37  2  0
 32 33  1  0
 33 34  2  0
 34 35  1  0
 35 39  1  0
 36 35  2  0
 37 36  1  0
 38 37  1  0
 40 41  1  0
 41 43  1  0
 41 44  1  0
 42 40  2  0
 45 20  1  0
 45 46  1  0
 47 45  1  0
 48 49  1  0
 48  4  1  0
 49 51  1  0
 50 49  1  0
 52 49  1  0
 52 53  1  0
 54 56  1  0
 54 53  1  0
 55 66  2  0
 56 61  1  0
 57 65  1  0
 57 67  1  0
 58 64  1  0
 58 60  1  0
 59 65  1  0
 60 59  1  0
 61 60  2  0
 62 63  1  0
 62 56  2  0
 63 58  2  0
 64 57  1  0
 65 55  1  0
 67 69  2  0
 68 67  1  0
 70 68  1  0
 71 80  2  0
 71 76  1  0
 72 68  1  0
 72 76  1  0
 73 72  1  0
 74 75  1  0
 74 73  1  0
 75 71  1  0
 76 77  2  0
 77 78  1  0
 79 78  2  0
 80 79  1  0
 81 55  1  0
 81 82  1  0
 81 91  1  0
 82 85  1  0
 83 87  1  0
 83 82  1  0
 84 83  2  0
 87 86  1  0
 87 89  1  0
 89 90  1  0
 89 88  1  0
 91 94  1  1
 91 92  1  0
 93 91  1  0
M  ISO  4  10 100  18 100  53 101  54 101
M  END
>  <TORSDO>  (47) 
F 21

>  <SCORE>  (47) 
-9.248

>  <name>  (47) 
46

>  <ligand_id>  (47) 
46

>  <original_smiles>  (47) 
[H]c1c([H])c([H])c2c(c1[H])C([H])([H])C([H])([H])C([H])([H])C2([H])N([H])C(=O)C1([H])N(C(=O)C([H])(N([H])C(=O)C([H])(N([H])C([H])([H])[H])C([H])([H])[H])C(C([H])([H])[H])(C([H])([H])[H])C([H])([H])[H])C([H])([H])c2c([H])c(OC([H])([H])C([H])([H])[N+]([H])([H])C([H])([H])c3c([H])c([H])c(C([H])([H])[H])c(C([H])([H])N([H])C(=O)N4C([H])([H])C([H])([H])C([H])([H])C([H])(n5nc(-c6c([H])c([H])c(Oc7c([H])c([H])c(F)c([H])c7F)c([H])c6[H])c(C(=O)N([H])[H])c5N([H])[H])C4([H])[H])c3Cl)c([H])c([H])c2C1([H])[H]

>  <smiles>  (47) 
[H]c1c([H])c([H])c2c(c1[H])C([H])([H])C([H])([H])C([H])([H])C2([H])N([H])C(=O)C1([H])N(C(=O)C([H])(N([H])C(=O)C([H])(N([H])C([H])([H])[H])C([H])([H])[H])C(C([H])([H])[H])(C([H])([H])[H])C([H])([H])[H])C([H])([H])c2c([H])c(OC([H])([H])C([H])([H])[N+]([H])([H])C([H])([H])c3c([H])c([H])c(C([H])([H])[H])c(C([H])([H])N([H])C(=O)N4C([H])([H])C([H])([H])C([H])([H])C([H])(n5nc(-c6c([H])c([H])c(Oc7c([H])c([H])c(F)c([H])c7F)c([H])c6[H])c(C(=O)N([H])[H])c5N([H])[H])C4([H])[H])c3Cl)c([H])c([H])c2C1([H])[H]

$$$$
47:0:0
     RDKit          3D

 96104  0  0  1  0  0  0  0  0999 V2000
  -27.9100  -22.2140   21.2850 C   0  0  0  0  0  0  0  0  0  0  0  0
  -26.8430  -21.7980   21.9610 N   0  0  0  0  0  4  0  0  0  0  0  0
  -27.9480  -23.5500   21.0550 N   0  0  0  0  0  0  0  0  0  0  0  0
  -26.7920  -20.8170   22.1950 H   0  0  0  0  0  0  0  0  0  0  0  0
  -26.1080  -22.3960   22.3010 H   0  0  0  0  0  0  0  0  0  0  0  0
  -27.1550  -24.0580   21.4170 H   0  0  0  0  0  0  0  0  0  0  0  0
  -28.3660  -20.0540   20.1560 C   0  0  0  0  0  3  0  0  0  0  0  0
  -30.8500  -19.7470   21.3600 C   0  0  0  0  0  3  0  0  0  0  0  0
  -28.8710  -21.1340   20.9200 C   0  0  0  0  0  0  0  0  0  0  0  0
  -29.0690  -18.8310   20.0020 C   0  0  0  0  0  0  0  0  0  0  0  0
  -30.1700  -20.9910   21.4830 C   0  0  0  0  0  0  0  0  0  0  0  0
  -30.3040  -18.6320   20.6720 C   0  0  0  0  0  0  0  0  0  0  0  0
  -28.4670  -17.7630   19.1140 C   0  0  0  0  0  1  0  0  0  0  0  0
  -30.8420  -22.1150   22.2620 C   0  0  0  0  0  1  0  0  0  0  0  0
  -31.1310  -17.3180   20.6240 C   0  0  0  0  0  2  0  0  0  0  0  0
  -31.0610  -14.8640   20.1270 C   0  0  0  0  0  0  0  0  0  0  0  0
  -30.6820  -12.6500   19.0950 C   0  0  0  0  0  2  0  0  0  0  0  0
  -29.7190  -12.7680   17.8980 C   0  0  0  0  0  2  0  0  0  0  0  0
  -28.2580  -12.6310   18.3680 C   0  0  0  0  0  2  0  0  0  0  0  0
  -27.9330  -13.5460   19.5760 C   0  0  0  0  0  3  0  0  0  0  0  0
  -29.0200  -13.4490   20.6740 C   0  0  0  0  0  2  0  0  0  0  0  0
  -30.3300  -13.7120   20.0560 N   0  0  0  0  0  0  0  0  0  0  0  0
  -32.1890  -14.9420   19.6380 O   0  0  0  0  0  0  0  0  0  0  0  0
  -30.4700  -15.9800   20.6200 N   0  0  0  0  0  0  0  0  0  0  0  0
  -29.5440  -15.9030   21.0110 H   0  0  0  0  0  0  0  0  0  0  0  0
  -25.5760  -14.1710   20.3940 C   0  0  0  0  0  0  0  0  0  0  0  0
  -24.5100  -13.4120   20.7900 C   0  0  0  0  0  0  0  0  0  0  0  0
  -24.9440  -12.0540   20.7170 C   0  0  0  0  0  0  0  0  0  0  0  0
  -26.5970  -13.2790   20.1080 N   0  0  0  0  0  0  0  0  0  0  0  0
  -26.2230  -11.9980   20.3620 N   0  0  0  0  0  0  0  0  0  0  0  0
  -24.2020  -10.8000   20.9060 C   0  0  0  0  0  0  0  0  0  0  0  0
  -24.5940   -9.8490   21.8720 C   0  0  0  0  0  3  0  0  0  0  0  0
  -23.8540   -8.6600   22.0470 C   0  0  0  0  0  3  0  0  0  0  0  0
  -22.7050   -8.4160   21.2580 C   0  0  0  0  0  0  0  0  0  0  0  0
  -22.3300   -9.3580   20.2830 C   0  0  0  0  0  3  0  0  0  0  0  0
  -23.0720  -10.5370   20.1060 C   0  0  0  0  0  3  0  0  0  0  0  0
  -21.9370   -7.2800   21.3480 O   0  0  0  0  0  0  0  0  0  0  0  0
  -21.7780   -6.6070   22.5330 C   0  0  0  0  0  0  0  0  0  0  0  0
  -21.2120   -7.2230   23.6700 C   0  0  0  0  0  3  0  0  0  0  0  0
  -21.0040   -6.4750   24.8460 C   0  0  0  0  0  3  0  0  0  0  0  0
  -21.3490   -5.1120   24.8840 C   0  0  0  0  0  0  0  0  0  0  0  0
  -21.9040   -4.4930   23.7500 C   0  0  0  0  0  3  0  0  0  0  0  0
  -22.1170   -5.2380   22.5770 C   0  0  0  0  0  0  0  0  0  0  0  0
  -22.6340   -4.6330   21.4810 F   0  0  0  0  0  0  0  0  0  0  0  0
  -21.1420   -4.3900   26.0100 F   0  0  0  0  0  0  0  0  0  0  0  0
  -23.1310  -13.9120   21.1150 C   0  0  0  0  0  0  0  0  0  0  0  0
  -22.4220  -13.2200   21.9980 N   0  0  0  0  0  0  0  0  0  0  0  0
  -22.6950  -14.9490   20.6190 O   0  0  0  0  0  0  0  0  0  0  0  0
  -22.7870  -12.3790   22.4210 H   0  0  0  0  0  0  0  0  0  0  0  0
  -21.4950  -13.5350   22.2530 H   0  0  0  0  0  0  0  0  0  0  0  0
  -25.7500  -15.5400   20.2300 N   0  0  0  0  0  0  0  0  0  0  0  0
  -24.9850  -16.1940   20.3550 H   0  0  0  0  0  0  0  0  0  0  0  0
  -26.5720  -15.9680   19.8260 H   0  0  0  0  0  0  0  0  0  0  0  0
  -28.8280  -24.4720   20.2950 C   0  0  0  0  0  2  0  0  0  0  0  0
  -28.7970  -25.9090   20.9200 C   0  0  0  0  0  2  0  0  0  0  0  0
  -28.7210  -27.0180   20.0000 O   0  0  0  0  0  0  0  0  0  0  0  0
  -24.7030  -31.9360   23.2890 C   0  0  0  0  0  0  0  0  0  0  0  0
  -27.5400  -27.7340   20.0400 C   0  0  0  0  0  0  0  0  0  0  0  0
  -23.5610  -30.5590   21.5810 C   0  0  0  0  0  3  0  0  0  0  0  0
  -25.0840  -29.1410   20.1000 C   0  0  0  0  0  0  0  0  0  0  0  0
  -26.0710  -31.0290   21.4100 C   0  0  0  0  0  2  0  0  0  0  0  0
  -26.2180  -29.6900   20.7130 C   0  0  0  0  0  0  0  0  0  0  0  0
  -27.4510  -28.9960   20.6760 C   0  0  0  0  0  3  0  0  0  0  0  0
  -26.3920  -27.1990   19.4210 C   0  0  0  0  0  3  0  0  0  0  0  0
  -25.1660  -27.8940   19.4520 C   0  0  0  0  0  3  0  0  0  0  0  0
  -23.8030  -29.9430   20.1780 C   0  0  0  0  0  2  0  0  0  0  0  0
  -24.7960  -31.1870   22.1520 N   0  0  0  0  0  0  0  0  0  0  0  0
  -23.6120  -32.1410   23.8380 O   0  0  0  0  0  0  0  0  0  0  0  0
  -22.9460  -29.4750   22.4960 C   0  0  0  0  0  0  0  0  0  0  0  0
  -21.6280  -29.2510   22.3570 N   0  0  0  0  0  0  0  0  0  0  0  0
  -23.6520  -28.8380   23.2810 O   0  0  0  0  0  0  0  0  0  0  0  0
  -21.1190  -29.8220   21.6990 H   0  0  0  0  0  0  0  0  0  0  0  0
  -18.3030  -27.9130   22.7950 C   0  0  0  0  0  0  0  0  0  0  0  0
  -20.8490  -28.2480   23.0810 C   0  0  0  0  0  3  0  0  0  0  0  0
  -21.0050  -26.8520   22.4340 C   0  0  0  0  0  2  0  0  0  0  0  0
  -19.9150  -26.5450   21.4020 C   0  0  0  0  0  2  0  0  0  0  0  0
  -18.5300  -26.6050   22.0510 C   0  0  0  0  0  2  0  0  0  0  0  0
  -19.3950  -28.6910   23.2630 C   0  0  0  0  0  0  0  0  0  0  0  0
  -19.1330  -29.9140   23.9170 C   0  0  0  0  0  3  0  0  0  0  0  0
  -17.8120  -30.3630   24.1060 C   0  0  0  0  0  3  0  0  0  0  0  0
  -16.7330  -29.5810   23.6550 C   0  0  0  0  0  3  0  0  0  0  0  0
  -16.9810  -28.3570   23.0070 C   0  0  0  0  0  3  0  0  0  0  0  0
  -25.9630  -32.5900   23.9400 C   0  0  0  0  0  3  0  0  0  0  0  0
  -26.4730  -31.8200   25.2190 C   0  0  1  0  0  0  0  0  0  0  0  0
  -25.3650  -31.5450   26.2600 C   0  0  0  0  0  1  0  0  0  0  0  0
  -27.1030  -30.4640   24.8270 C   0  0  0  0  0  1  0  0  0  0  0  0
  -27.5870  -32.6370   25.9170 C   0  0  0  0  0  1  0  0  0  0  0  0
  -25.6180  -33.9790   24.2770 N   0  0  0  0  0  0  0  0  0  0  0  0
  -25.9400  -35.0450   23.5320 C   0  0  0  0  0  0  0  0  0  0  0  0
  -26.6310  -34.9650   22.5130 O   0  0  0  0  0  0  0  0  0  0  0  0
  -25.0090  -34.1130   25.0710 H   0  0  0  0  0  0  0  0  0  0  0  0
  -24.1780  -36.7980   23.1570 C   0  0  0  0  0  1  0  0  0  0  0  0
  -25.4110  -36.4170   23.9910 C   0  0  0  0  0  3  0  0  0  0  0  0
  -27.5050  -37.3470   24.8750 C   0  0  0  0  0  1  0  0  0  0  0  0
  -26.4210  -37.4940   23.9070 N   0  0  0  0  0  0  0  0  0  0  0  0
  -25.9900  -38.4030   24.0490 H   0  0  0  0  0  0  0  0  0  0  0  0
  1  2  2  0
  2  4  1  0
  2  5  1  0
  3  1  1  0
  3  6  1  0
  7  9  1  0
  8 11  1  0
  9  1  1  0
  9 11  2  0
 10  7  2  0
 10 12  1  0
 11 14  1  0
 12  8  2  0
 13 10  1  0
 15 12  1  0
 16 24  1  0
 17 22  1  0
 18 19  1  0
 18 17  1  0
 20 19  1  0
 20 29  1  0
 20 21  1  0
 22 16  1  0
 22 21  1  0
 23 16  2  0
 24 15  1  0
 24 25  1  0
 26 27  2  0
 27 46  1  0
 28 27  1  0
 28 31  1  0
 29 30  1  0
 29 26  1  0
 30 28  2  0
 31 32  1  0
 32 33  2  0
 34 37  1  0
 34 33  1  0
 35 34  2  0
 36 35  1  0
 36 31  2  0
 37 38  1  0
 38 43  2  0
 38 39  1  0
 39 40  2  0
 40 41  1  0
 41 45  1  0
 42 41  2  0
 43 42  1  0
 44 43  1  0
 46 47  1  0
 47 50  1  0
 47 49  1  0
 48 46  2  0
 51 52  1  0
 51 26  1  0
 53 51  1  0
 54 55  1  0
 54  3  1  0
 56 58  1  0
 56 55  1  0
 57 68  2  0
 58 63  1  0
 59 67  1  0
 59 69  1  0
 60 66  1  0
 60 62  1  0
 61 67  1  0
 62 61  1  0
 63 62  2  0
 64 65  1  0
 64 58  2  0
 65 60  2  0
 66 59  1  0
 67 57  1  0
 69 71  2  0
 70 69  1  0
 72 70  1  0
 73 82  2  0
 73 78  1  0
 74 70  1  0
 74 78  1  0
 75 74  1  0
 76 77  1  0
 76 75  1  0
 77 73  1  0
 78 79  2  0
 79 80  1  0
 81 80  2  0
 82 81  1  0
 83 57  1  0
 83 88  1  0
 83 84  1  0
 84 87  1  1
 84 85  1  0
 86 84  1  0
 88 91  1  0
 89 93  1  0
 89 88  1  0
 90 89  2  0
 93 92  1  0
 95 93  1  0
 95 96  1  0
 95 94  1  0
M  ISO  4  16 100  24 100  55 101  56 101
M  END
>  <TORSDO>  (48) 
F 20

>  <SCORE>  (48) 
-12.983

>  <name>  (48) 
47

>  <ligand_id>  (48) 
47

>  <original_smiles>  (48) 
[H]c1c([H])c([H])c2c(c1[H])C([H])([H])C([H])([H])C([H])([H])C2([H])N([H])C(=O)C1([H])N(C(=O)C([H])(N([H])C(=O)C([H])(N([H])C([H])([H])[H])C([H])([H])[H])C(C([H])([H])[H])(C([H])([H])[H])C([H])([H])[H])C([H])([H])c2c([H])c(OC([H])([H])C([H])([H])[N+]([H])=C(c3c([H])c(C([H])([H])[H])c(C([H])([H])N([H])C(=O)N4C([H])([H])C([H])([H])C([H])([H])C([H])(n5nc(-c6c([H])c([H])c(Oc7c([H])c([H])c(F)c([H])c7F)c([H])c6[H])c(C(=O)N([H])[H])c5N([H])[H])C4([H])[H])c([H])c3C([H])([H])[H])N([H])[H])c([H])c([H])c2C1([H])[H]

>  <smiles>  (48) 
[H]c1c([H])c([H])c2c(c1[H])C([H])([H])C([H])([H])C([H])([H])C2([H])N([H])C(=O)C1([H])N(C(=O)C([H])(N([H])C(=O)C([H])(N([H])C([H])([H])[H])C([H])([H])[H])C(C([H])([H])[H])(C([H])([H])[H])C([H])([H])[H])C([H])([H])c2c([H])c(OC([H])([H])C([H])([H])[N+]([H])=C(c3c([H])c(C([H])([H])[H])c(C([H])([H])N([H])C(=O)N4C([H])([H])C([H])([H])C([H])([H])C([H])(n5nc(-c6c([H])c([H])c(Oc7c([H])c([H])c(F)c([H])c7F)c([H])c6[H])c(C(=O)N([H])[H])c5N([H])[H])C4([H])[H])c([H])c3C([H])([H])[H])N([H])[H])c([H])c([H])c2C1([H])[H]

$$$$
48:0:0
     RDKit          3D

 94102  0  0  1  0  0  0  0  0999 V2000
  -30.1960  -19.3450   19.2290 C   0  0  0  0  0  3  0  0  0  0  0  0
  -30.3890  -20.2090   20.3380 C   0  0  0  0  0  0  0  0  0  0  0  0
  -30.1820  -17.9220   19.3450 C   0  0  0  0  0  0  0  0  0  0  0  0
  -30.5510  -19.5750   21.6060 C   0  0  0  0  0  0  0  0  0  0  0  0
  -30.5730  -18.1410   21.7290 C   0  0  0  0  0  0  0  0  0  0  0  0
  -30.4020  -17.2840   20.5990 C   0  0  0  0  0  0  0  0  0  0  0  0
  -29.9020  -17.1040   18.0940 C   0  0  0  0  0  1  0  0  0  0  0  0
  -30.7360  -20.4360   22.8540 C   0  0  0  0  0  1  0  0  0  0  0  0
  -30.7910  -17.5080   23.1030 C   0  0  0  0  0  1  0  0  0  0  0  0
  -31.1060  -14.7930   20.4580 C   0  0  0  0  0  0  0  0  0  0  0  0
  -30.9470  -12.5070   19.5020 C   0  0  0  0  0  2  0  0  0  0  0  0
  -30.0170  -12.5720   18.2700 C   0  0  0  0  0  2  0  0  0  0  0  0
  -28.5410  -12.4100   18.6850 C   0  0  0  0  0  2  0  0  0  0  0  0
  -28.1530  -13.3210   19.8800 C   0  0  0  0  0  3  0  0  0  0  0  0
  -29.1980  -13.2260   21.0160 C   0  0  0  0  0  2  0  0  0  0  0  0
  -30.5130  -13.5580   20.4420 N   0  0  0  0  0  0  0  0  0  0  0  0
  -32.2630  -14.9580   20.0610 O   0  0  0  0  0  0  0  0  0  0  0  0
  -30.2880  -15.8380   20.7910 N   0  0  0  0  0  0  0  0  0  0  0  0
  -29.4260  -15.5410   21.2210 H   0  0  0  0  0  0  0  0  0  0  0  0
  -25.7680  -13.9290   20.6230 C   0  0  0  0  0  0  0  0  0  0  0  0
  -24.6910  -13.1580   20.9690 C   0  0  0  0  0  0  0  0  0  0  0  0
  -25.1360  -11.8020   20.8890 C   0  0  0  0  0  0  0  0  0  0  0  0
  -26.8010  -13.0430   20.3580 N   0  0  0  0  0  0  0  0  0  0  0  0
  -26.4250  -11.7560   20.5760 N   0  0  0  0  0  0  0  0  0  0  0  0
  -24.3930  -10.5430   21.0370 C   0  0  0  0  0  0  0  0  0  0  0  0
  -24.7480   -9.5860   22.0120 C   0  0  0  0  0  3  0  0  0  0  0  0
  -24.0070   -8.3910   22.1480 C   0  0  0  0  0  3  0  0  0  0  0  0
  -22.8960   -8.1470   21.3050 C   0  0  0  0  0  0  0  0  0  0  0  0
  -22.5610   -9.0930   20.3210 C   0  0  0  0  0  3  0  0  0  0  0  0
  -23.3030  -10.2780   20.1840 C   0  0  0  0  0  3  0  0  0  0  0  0
  -22.1350   -7.0040   21.3470 O   0  0  0  0  0  0  0  0  0  0  0  0
  -21.8570   -6.3660   22.5290 C   0  0  0  0  0  0  0  0  0  0  0  0
  -21.1780   -7.0150   23.5840 C   0  0  0  0  0  3  0  0  0  0  0  0
  -20.8520   -6.3020   24.7550 C   0  0  0  0  0  3  0  0  0  0  0  0
  -21.1940   -4.9410   24.8690 C   0  0  0  0  0  0  0  0  0  0  0  0
  -21.8650   -4.2920   23.8180 C   0  0  0  0  0  3  0  0  0  0  0  0
  -22.1930   -5.0030   22.6490 C   0  0  0  0  0  0  0  0  0  0  0  0
  -22.8200   -4.3680   21.6310 F   0  0  0  0  0  0  0  0  0  0  0  0
  -20.8740   -4.2530   25.9900 F   0  0  0  0  0  0  0  0  0  0  0  0
  -23.3020  -13.6430   21.2610 C   0  0  0  0  0  0  0  0  0  0  0  0
  -22.5710  -12.9330   22.1140 N   0  0  0  0  0  0  0  0  0  0  0  0
  -22.8720  -14.6870   20.7710 O   0  0  0  0  0  0  0  0  0  0  0  0
  -22.9310  -12.0870   22.5320 H   0  0  0  0  0  0  0  0  0  0  0  0
  -21.6380  -13.2380   22.3520 H   0  0  0  0  0  0  0  0  0  0  0  0
  -25.9500  -15.3020   20.4930 N   0  0  0  0  0  0  0  0  0  0  0  0
  -25.1890  -15.9590   20.6240 H   0  0  0  0  0  0  0  0  0  0  0  0
  -26.8030  -15.7440   20.1750 H   0  0  0  0  0  0  0  0  0  0  0  0
  -30.5950  -21.7590   20.1120 C   0  0  0  0  0  2  0  0  0  0  0  0
  -29.4100  -22.6950   20.0530 N   0  0  0  0  0  4  0  0  0  0  0  0
  -28.8020  -22.4790   20.8260 H   0  0  0  0  0  0  0  0  0  0  0  0
  -28.9040  -22.4750   19.2100 H   0  0  0  0  0  0  0  0  0  0  0  0
  -29.7260  -24.1890   20.0740 C   0  0  0  0  0  3  0  0  0  0  0  0
  -28.5140  -25.1760   19.8030 C   0  0  0  0  0  3  0  0  0  0  0  0
  -28.6850  -26.6240   20.0620 O   0  0  0  0  0  0  0  0  0  0  0  0
  -24.7280  -31.7430   23.2520 C   0  0  0  0  0  0  0  0  0  0  0  0
  -27.5410  -27.4380   20.0220 C   0  0  0  0  0  0  0  0  0  0  0  0
  -23.6130  -30.4300   21.4840 C   0  0  0  0  0  3  0  0  0  0  0  0
  -25.1420  -28.9980   20.0250 C   0  0  0  0  0  0  0  0  0  0  0  0
  -26.1500  -30.8030   21.4180 C   0  0  0  0  0  2  0  0  0  0  0  0
  -26.2790  -29.4710   20.6930 C   0  0  0  0  0  0  0  0  0  0  0  0
  -27.4800  -28.7040   20.6830 C   0  0  0  0  0  3  0  0  0  0  0  0
  -26.3760  -27.0170   19.3370 C   0  0  0  0  0  3  0  0  0  0  0  0
  -25.1930  -27.7760   19.3400 C   0  0  0  0  0  3  0  0  0  0  0  0
  -23.8890  -29.8460   20.0750 C   0  0  0  0  0  2  0  0  0  0  0  0
  -24.8460  -31.0050   22.1100 N   0  0  0  0  0  0  0  0  0  0  0  0
  -23.6210  -31.9690   23.7600 O   0  0  0  0  0  0  0  0  0  0  0  0
  -22.9340  -29.3440   22.3530 C   0  0  0  0  0  0  0  0  0  0  0  0
  -21.6070  -29.1910   22.2020 N   0  0  0  0  0  0  0  0  0  0  0  0
  -23.6000  -28.6470   23.1220 O   0  0  0  0  0  0  0  0  0  0  0  0
  -21.1310  -29.8050   21.5560 H   0  0  0  0  0  0  0  0  0  0  0  0
  -18.2010  -28.0600   22.6500 C   0  0  0  0  0  0  0  0  0  0  0  0
  -20.7720  -28.2050   22.8890 C   0  0  0  0  0  3  0  0  0  0  0  0
  -20.8140  -26.8390   22.1640 C   0  0  0  0  0  2  0  0  0  0  0  0
  -19.6820  -26.6610   21.1470 C   0  0  0  0  0  2  0  0  0  0  0  0
  -18.3180  -26.7830   21.8330 C   0  0  0  0  0  2  0  0  0  0  0  0
  -19.3530  -28.7350   23.1330 C   0  0  0  0  0  0  0  0  0  0  0  0
  -19.1900  -29.9360   23.8570 C   0  0  0  0  0  3  0  0  0  0  0  0
  -17.9070  -30.4590   24.1040 C   0  0  0  0  0  3  0  0  0  0  0  0
  -16.7690  -29.7780   23.6380 C   0  0  0  0  0  3  0  0  0  0  0  0
  -16.9170  -28.5800   22.9160 C   0  0  0  0  0  3  0  0  0  0  0  0
  -25.9750  -32.3550   23.9600 C   0  0  0  0  0  3  0  0  0  0  0  0
  -26.4410  -31.5280   25.2210 C   0  0  1  0  0  0  0  0  0  0  0  0
  -25.3030  -31.2310   26.2250 C   0  0  0  0  0  1  0  0  0  0  0  0
  -27.0570  -30.1760   24.7910 C   0  0  0  0  0  1  0  0  0  0  0  0
  -27.5520  -32.2990   25.9720 C   0  0  0  0  0  1  0  0  0  0  0  0
  -25.6370  -33.7330   24.3420 N   0  0  0  0  0  0  0  0  0  0  0  0
  -25.9470  -34.8200   23.6240 C   0  0  0  0  0  0  0  0  0  0  0  0
  -26.6190  -34.7700   22.5900 O   0  0  0  0  0  0  0  0  0  0  0  0
  -25.0430  -33.8450   25.1510 H   0  0  0  0  0  0  0  0  0  0  0  0
  -24.1650  -36.5740   23.3560 C   0  0  0  0  0  1  0  0  0  0  0  0
  -25.4310  -36.1810   24.1330 C   0  0  0  0  0  3  0  0  0  0  0  0
  -27.5500  -37.1030   24.9610 C   0  0  0  0  0  1  0  0  0  0  0  0
  -26.4320  -37.2650   24.0340 N   0  0  0  0  0  0  0  0  0  0  0  0
  -26.0030  -38.1680   24.2120 H   0  0  0  0  0  0  0  0  0  0  0  0
  1  3  2  0
  1  2  1  0
  2  4  2  0
  3  6  1  0
  4  5  1  0
  4  8  1  0
  5  9  1  0
  6 18  1  0
  6  5  2  0
  7  3  1  0
 10 18  1  0
 11 16  1  0
 12 13  1  0
 12 11  1  0
 14 13  1  0
 14 23  1  0
 14 15  1  0
 16 10  1  0
 16 15  1  0
 17 10  2  0
 18 19  1  0
 20 21  2  0
 21 40  1  0
 22 21  1  0
 22 25  1  0
 23 24  1  0
 23 20  1  0
 24 22  2  0
 25 26  1  0
 26 27  2  0
 28 31  1  0
 28 27  1  0
 29 28  2  0
 30 29  1  0
 30 25  2  0
 31 32  1  0
 32 37  2  0
 32 33  1  0
 33 34  2  0
 34 35  1  0
 35 39  1  0
 36 35  2  0
 37 36  1  0
 38 37  1  0
 40 41  1  0
 41 44  1  0
 41 43  1  0
 42 40  2  0
 45 20  1  0
 45 46  1  0
 47 45  1  0
 48  2  1  0
 49 52  1  0
 49 48  1  0
 49 50  1  0
 51 49  1  0
 53 54  1  0
 53 52  2  0
 55 66  2  0
 56 54  1  0
 56 61  1  0
 57 65  1  0
 57 67  1  0
 58 64  1  0
 58 60  1  0
 59 65  1  0
 60 59  1  0
 61 60  2  0
 62 63  1  0
 62 56  2  0
 63 58  2  0
 64 57  1  0
 65 55  1  0
 67 69  2  0
 68 67  1  0
 70 68  1  0
 71 80  2  0
 71 76  1  0
 72 68  1  0
 72 76  1  0
 73 72  1  0
 74 75  1  0
 74 73  1  0
 75 71  1  0
 76 77  2  0
 77 78  1  0
 79 78  2  0
 80 79  1  0
 81 55  1  0
 81 86  1  0
 81 82  1  0
 82 85  1  1
 82 83  1  0
 84 82  1  0
 86 89  1  0
 87 91  1  0
 87 86  1  0
 88 87  2  0
 91 90  1  0
 93 91  1  0
 93 94  1  0
 93 92  1  0
M  ISO  4  10 100  18 100  53 101  54 101
M  END
>  <TORSDO>  (49) 
F 20

>  <SCORE>  (49) 
-12.354

>  <name>  (49) 
48

>  <ligand_id>  (49) 
48

>  <original_smiles>  (49) 
[H]c1c([H])c([H])c2c(c1[H])C([H])([H])C([H])([H])C([H])([H])C2([H])N([H])C(=O)C1([H])N(C(=O)C([H])(N([H])C(=O)C([H])(N([H])C([H])([H])[H])C([H])([H])[H])C(C([H])([H])[H])(C([H])([H])[H])C([H])([H])[H])C([H])([H])c2c([H])c(OC([H])([H])C([H])([H])[N+]([H])([H])C([H])([H])c3c([H])c(C([H])([H])[H])c(N([H])C(=O)N4C([H])([H])C([H])([H])C([H])([H])C([H])(n5nc(-c6c([H])c([H])c(Oc7c([H])c([H])c(F)c([H])c7F)c([H])c6[H])c(C(=O)N([H])[H])c5N([H])[H])C4([H])[H])c(C([H])([H])[H])c3C([H])([H])[H])c([H])c([H])c2C1([H])[H]

>  <smiles>  (49) 
[H]c1c([H])c([H])c2c(c1[H])C([H])([H])C([H])([H])C([H])([H])C2([H])N([H])C(=O)C1([H])N(C(=O)C([H])(N([H])C(=O)C([H])(N([H])C([H])([H])[H])C([H])([H])[H])C(C([H])([H])[H])(C([H])([H])[H])C([H])([H])[H])C([H])([H])c2c([H])c(OC([H])([H])C([H])([H])[N+]([H])([H])C([H])([H])c3c([H])c(C([H])([H])[H])c(N([H])C(=O)N4C([H])([H])C([H])([H])C([H])([H])C([H])(n5nc(-c6c([H])c([H])c(Oc7c([H])c([H])c(F)c([H])c7F)c([H])c6[H])c(C(=O)N([H])[H])c5N([H])[H])C4([H])[H])c(C([H])([H])[H])c3C([H])([H])[H])c([H])c([H])c2C1([H])[H]

$$$$
49:0:0
     RDKit          3D

 92100  0  0  1  0  0  0  0  0999 V2000
  -29.3830  -20.5650   20.1660 C   0  0  0  0  0  3  0  0  0  0  0  0
  -28.9960  -21.6590   20.8630 C   0  0  0  0  0  0  0  0  0  0  0  0
  -29.2730  -21.8450   22.5620 Cl  0  0  0  0  0  0  0  0  0  0  0  0
  -31.7050  -17.1740   21.5190 C   0  0  0  0  0  3  0  0  0  0  0  0
  -32.2170  -18.4770   21.6480 C   0  0  0  0  0  3  0  0  0  0  0  0
  -29.6720  -18.0860   20.5350 C   0  0  0  0  0  3  0  0  0  0  0  0
  -30.1760  -19.4100   20.6640 C   0  0  0  0  0  0  0  0  0  0  0  0
  -30.4400  -16.9590   20.9300 C   0  0  0  0  0  0  0  0  0  0  0  0
  -31.4770  -19.5870   21.2040 C   0  0  0  0  0  0  0  0  0  0  0  0
  -32.2330  -21.1420   21.2770 Cl  0  0  0  0  0  0  0  0  0  0  0  0
  -30.6000  -14.6030   20.1670 C   0  0  0  0  0  0  0  0  0  0  0  0
  -30.2360  -12.4750   18.9720 C   0  0  0  0  0  2  0  0  0  0  0  0
  -29.2320  -12.6920   17.8220 C   0  0  0  0  0  2  0  0  0  0  0  0
  -27.7850  -12.5300   18.3270 C   0  0  0  0  0  2  0  0  0  0  0  0
  -27.5070  -13.3400   19.6220 C   0  0  0  0  0  3  0  0  0  0  0  0
  -28.6200  -13.1170   20.6700 C   0  0  0  0  0  2  0  0  0  0  0  0
  -29.9080  -13.4380   20.0340 N   0  0  0  0  0  0  0  0  0  0  0  0
  -31.7050  -14.7740   19.6440 O   0  0  0  0  0  0  0  0  0  0  0  0
  -29.9420  -15.6270   20.7560 N   0  0  0  0  0  0  0  0  0  0  0  0
  -28.9770  -15.4560   20.9950 H   0  0  0  0  0  0  0  0  0  0  0  0
  -25.1460  -13.9080   20.4740 C   0  0  0  0  0  0  0  0  0  0  0  0
  -24.1040  -13.1170   20.8760 C   0  0  0  0  0  0  0  0  0  0  0  0
  -24.5710  -11.7700   20.7830 C   0  0  0  0  0  0  0  0  0  0  0  0
  -26.1830  -13.0410   20.1640 N   0  0  0  0  0  0  0  0  0  0  0  0
  -25.8440  -11.7490   20.4080 N   0  0  0  0  0  0  0  0  0  0  0  0
  -23.8630  -10.4980   20.9750 C   0  0  0  0  0  0  0  0  0  0  0  0
  -24.3050   -9.5410   21.9150 C   0  0  0  0  0  3  0  0  0  0  0  0
  -23.5970   -8.3330   22.0940 C   0  0  0  0  0  3  0  0  0  0  0  0
  -22.4330   -8.0730   21.3320 C   0  0  0  0  0  0  0  0  0  0  0  0
  -22.0110   -9.0190   20.3810 C   0  0  0  0  0  3  0  0  0  0  0  0
  -22.7200  -10.2180   20.2000 C   0  0  0  0  0  3  0  0  0  0  0  0
  -21.6970   -6.9160   21.4190 O   0  0  0  0  0  0  0  0  0  0  0  0
  -21.6140   -6.2020   22.5870 C   0  0  0  0  0  0  0  0  0  0  0  0
  -21.0790   -6.7630   23.7670 C   0  0  0  0  0  3  0  0  0  0  0  0
  -20.9490   -5.9710   24.9260 C   0  0  0  0  0  3  0  0  0  0  0  0
  -21.3440   -4.6210   24.9060 C   0  0  0  0  0  0  0  0  0  0  0  0
  -21.8720   -4.0590   23.7300 C   0  0  0  0  0  3  0  0  0  0  0  0
  -22.0030   -4.8480   22.5730 C   0  0  0  0  0  0  0  0  0  0  0  0
  -22.4930   -4.2960   21.4370 F   0  0  0  0  0  0  0  0  0  0  0  0
  -21.2120   -3.8580   26.0160 F   0  0  0  0  0  0  0  0  0  0  0  0
  -22.7200  -13.5760   21.2340 C   0  0  0  0  0  0  0  0  0  0  0  0
  -22.0350  -12.8400   22.1020 N   0  0  0  0  0  0  0  0  0  0  0  0
  -22.2560  -14.6210   20.7800 O   0  0  0  0  0  0  0  0  0  0  0  0
  -22.4230  -11.9930   22.4900 H   0  0  0  0  0  0  0  0  0  0  0  0
  -21.1080  -13.1280   22.3830 H   0  0  0  0  0  0  0  0  0  0  0  0
  -25.2940  -15.2840   20.3250 N   0  0  0  0  0  0  0  0  0  0  0  0
  -24.5290  -15.9290   20.4860 H   0  0  0  0  0  0  0  0  0  0  0  0
  -26.1190  -15.7350   19.9500 H   0  0  0  0  0  0  0  0  0  0  0  0
  -28.2170  -22.8500   20.3010 C   0  0  0  0  0  2  0  0  0  0  0  0
  -29.0250  -24.1740   20.1950 C   0  0  0  0  0  2  0  0  0  0  0  0
  -28.1470  -25.3780   19.7210 C   0  0  0  0  0  2  0  0  0  0  0  0
  -28.2470  -26.7760   20.0600 O   0  0  0  0  0  0  0  0  0  0  0  0
  -24.5130  -31.9650   23.2030 C   0  0  0  0  0  0  0  0  0  0  0  0
  -27.0790  -27.5260   20.0400 C   0  0  0  0  0  0  0  0  0  0  0  0
  -23.2680  -30.5690   21.5850 C   0  0  0  0  0  3  0  0  0  0  0  0
  -24.6860  -29.0420   20.1150 C   0  0  0  0  0  0  0  0  0  0  0  0
  -25.7890  -30.9280   21.3280 C   0  0  0  0  0  2  0  0  0  0  0  0
  -25.8590  -29.5600   20.6770 C   0  0  0  0  0  0  0  0  0  0  0  0
  -27.0580  -28.8090   20.6370 C   0  0  0  0  0  3  0  0  0  0  0  0
  -25.8850  -27.0270   19.4680 C   0  0  0  0  0  3  0  0  0  0  0  0
  -24.6940  -27.7760   19.5070 C   0  0  0  0  0  3  0  0  0  0  0  0
  -23.4440  -29.9000   20.1970 C   0  0  0  0  0  2  0  0  0  0  0  0
  -24.5430  -31.1680   22.0960 N   0  0  0  0  0  0  0  0  0  0  0  0
  -23.4450  -32.2330   23.7700 O   0  0  0  0  0  0  0  0  0  0  0  0
  -22.6430  -29.5400   22.5560 C   0  0  0  0  0  0  0  0  0  0  0  0
  -21.3200  -29.3340   22.4390 N   0  0  0  0  0  0  0  0  0  0  0  0
  -23.3430  -28.9320   23.3690 O   0  0  0  0  0  0  0  0  0  0  0  0
  -20.8150  -29.8790   21.7550 H   0  0  0  0  0  0  0  0  0  0  0  0
  -17.9690  -28.0940   22.9760 C   0  0  0  0  0  0  0  0  0  0  0  0
  -20.5250  -28.3870   23.2210 C   0  0  0  0  0  3  0  0  0  0  0  0
  -20.6420  -26.9550   22.6470 C   0  0  0  0  0  2  0  0  0  0  0  0
  -19.5340  -26.6140   21.6450 C   0  0  0  0  0  2  0  0  0  0  0  0
  -18.1570  -26.7440   22.3030 C   0  0  0  0  0  2  0  0  0  0  0  0
  -19.0810  -28.8720   23.3930 C   0  0  0  0  0  0  0  0  0  0  0  0
  -18.8530  -30.1350   23.9810 C   0  0  0  0  0  3  0  0  0  0  0  0
  -17.5440  -30.6210   24.1570 C   0  0  0  0  0  3  0  0  0  0  0  0
  -16.4460  -29.8400   23.7570 C   0  0  0  0  0  3  0  0  0  0  0  0
  -16.6580  -28.5780   23.1720 C   0  0  0  0  0  3  0  0  0  0  0  0
  -25.8130  -32.5950   23.7920 C   0  0  0  0  0  3  0  0  0  0  0  0
  -26.3700  -31.8130   25.0450 C   0  0  1  0  0  0  0  0  0  0  0  0
  -25.3050  -31.5370   26.1320 C   0  0  0  0  0  1  0  0  0  0  0  0
  -26.9700  -30.4530   24.6160 C   0  0  0  0  0  1  0  0  0  0  0  0
  -27.5200  -32.6170   25.6970 C   0  0  0  0  0  1  0  0  0  0  0  0
  -25.5090  -33.9880   24.1430 N   0  0  0  0  0  0  0  0  0  0  0  0
  -25.8310  -35.0480   23.3910 C   0  0  0  0  0  0  0  0  0  0  0  0
  -26.4880  -34.9570   22.3500 O   0  0  0  0  0  0  0  0  0  0  0  0
  -24.9270  -34.1340   24.9550 H   0  0  0  0  0  0  0  0  0  0  0  0
  -24.1150  -36.8550   23.0570 C   0  0  0  0  0  1  0  0  0  0  0  0
  -25.3490  -36.4310   23.8690 C   0  0  0  0  0  3  0  0  0  0  0  0
  -27.4770  -37.2970   24.7350 C   0  0  0  0  0  1  0  0  0  0  0  0
  -26.3880  -37.4800   23.7800 N   0  0  0  0  0  0  0  0  0  0  0  0
  -25.9840  -38.4010   23.9320 H   0  0  0  0  0  0  0  0  0  0  0  0
  1  7  1  0
  1  2  2  0
  2  3  1  0
  4  5  1  0
  6  7  2  0
  6  8  1  0
  7  9  1  0
  8  4  2  0
  9 10  1  0
  9  5  2  0
 11 19  1  0
 12 17  1  0
 13 14  1  0
 13 12  1  0
 15 14  1  0
 15 24  1  0
 15 16  1  0
 17 11  1  0
 17 16  1  0
 18 11  2  0
 19  8  1  0
 19 20  1  0
 21 22  2  0
 22 41  1  0
 23 22  1  0
 23 26  1  0
 24 25  1  0
 24 21  1  0
 25 23  2  0
 26 27  1  0
 27 28  2  0
 29 32  1  0
 29 28  1  0
 30 29  2  0
 31 30  1  0
 31 26  2  0
 32 33  1  0
 33 34  1  0
 34 35  2  0
 36 35  1  0
 36 40  1  0
 37 36  2  0
 38 33  2  0
 38 37  1  0
 39 38  1  0
 41 42  1  0
 42 45  1  0
 42 44  1  0
 43 41  2  0
 46 21  1  0
 46 47  1  0
 48 46  1  0
 49  2  1  0
 50 49  1  0
 51 52  1  0
 51 50  1  0
 53 64  2  0
 54 52  1  0
 54 59  1  0
 55 63  1  0
 55 65  1  0
 56 62  1  0
 56 58  1  0
 57 63  1  0
 58 57  1  0
 59 58  2  0
 60 61  1  0
 60 54  2  0
 61 56  2  0
 62 55  1  0
 63 53  1  0
 65 67  2  0
 66 65  1  0
 68 66  1  0
 69 78  2  0
 69 74  1  0
 70 66  1  0
 70 74  1  0
 71 70  1  0
 72 73  1  0
 72 71  1  0
 73 69  1  0
 74 75  2  0
 75 76  1  0
 77 76  2  0
 78 77  1  0
 79 53  1  0
 79 84  1  0
 79 80  1  0
 80 83  1  1
 80 81  1  0
 82 80  1  0
 84 87  1  0
 85 89  1  0
 85 84  1  0
 86 85  2  0
 89 88  1  0
 91 89  1  0
 91 92  1  0
 91 90  1  0
M  ISO  4  11 100  19 100  51 101  52 101
M  END
>  <TORSDO>  (50) 
F 20

>  <SCORE>  (50) 
-13.737

>  <name>  (50) 
49

>  <ligand_id>  (50) 
49

>  <original_smiles>  (50) 
[H]C(=C(Cl)C([H])([H])C([H])([H])C([H])([H])Oc1c([H])c([H])c2c(c1[H])C([H])([H])N(C(=O)C([H])(N([H])C(=O)C([H])(N([H])C([H])([H])[H])C([H])([H])[H])C(C([H])([H])[H])(C([H])([H])[H])C([H])([H])[H])C([H])(C(=O)N([H])C1([H])c3c([H])c([H])c([H])c([H])c3C([H])([H])C([H])([H])C1([H])[H])C2([H])[H])c1c([H])c(N([H])C(=O)N2C([H])([H])C([H])([H])C([H])([H])C([H])(n3nc(-c4c([H])c([H])c(Oc5c([H])c([H])c(F)c([H])c5F)c([H])c4[H])c(C(=O)N([H])[H])c3N([H])[H])C2([H])[H])c([H])c([H])c1Cl

>  <smiles>  (50) 
[H]C(=C(Cl)C([H])([H])C([H])([H])C([H])([H])Oc1c([H])c([H])c2c(c1[H])C([H])([H])N(C(=O)C([H])(N([H])C(=O)C([H])(N([H])C([H])([H])[H])C([H])([H])[H])C(C([H])([H])[H])(C([H])([H])[H])C([H])([H])[H])C([H])(C(=O)N([H])C1([H])c3c([H])c([H])c([H])c([H])c3C([H])([H])C([H])([H])C1([H])[H])C2([H])[H])c1c([H])c(N([H])C(=O)N2C([H])([H])C([H])([H])C([H])([H])C([H])(n3nc(-c4c([H])c([H])c(Oc5c([H])c([H])c(F)c([H])c5F)c([H])c4[H])c(C(=O)N([H])[H])c3N([H])[H])C2([H])[H])c([H])c([H])c1Cl

$$$$
50:0:0
     RDKit          3D

 94102  0  0  1  0  0  0  0  0999 V2000
  -28.4420  -20.3850   21.1620 C   0  0  0  0  0  2  0  0  0  0  0  0
  -30.0590  -19.0270   22.5790 C   0  0  0  0  0  3  0  0  0  0  0  0
  -30.7490  -17.8480   22.8910 C   0  0  0  0  0  3  0  0  0  0  0  0
  -29.2360  -19.0820   21.4420 C   0  0  0  0  0  0  0  0  0  0  0  0
  -29.1050  -17.9010   20.6410 C   0  0  0  0  0  0  0  0  0  0  0  0
  -29.9720  -16.7560   20.8190 C   0  0  0  0  0  0  0  0  0  0  0  0
  -30.7350  -16.7300   22.0350 C   0  0  0  0  0  0  0  0  0  0  0  0
  -27.9220  -17.8480   19.6740 C   0  0  0  0  0  1  0  0  0  0  0  0
  -31.6780  -15.3910   22.6060 Cl  0  0  0  0  0  0  0  0  0  0  0  0
  -30.7890  -14.5730   19.8560 C   0  0  0  0  0  0  0  0  0  0  0  0
  -30.3360  -12.4150   18.7700 C   0  0  0  0  0  2  0  0  0  0  0  0
  -29.3440  -12.6560   17.6140 C   0  0  0  0  0  2  0  0  0  0  0  0
  -27.8920  -12.5670   18.1280 C   0  0  0  0  0  2  0  0  0  0  0  0
  -27.6480  -13.4060   19.4130 C   0  0  0  0  0  3  0  0  0  0  0  0
  -28.7660  -13.1960   20.4580 C   0  0  0  0  0  2  0  0  0  0  0  0
  -30.0500  -13.4310   19.7920 N   0  0  0  0  0  0  0  0  0  0  0  0
  -31.9810  -14.5980   19.5340 O   0  0  0  0  0  0  0  0  0  0  0  0
  -30.1320  -16.2470   18.3700 C   0  0  0  0  0  1  0  0  0  0  0  0
  -30.0790  -15.7350   19.7650 N   0  0  0  0  0  0  0  0  0  0  0  0
  -25.3150  -14.0550   20.2760 C   0  0  0  0  0  0  0  0  0  0  0  0
  -24.2520  -13.3050   20.6960 C   0  0  0  0  0  0  0  0  0  0  0  0
  -24.6800  -11.9430   20.6310 C   0  0  0  0  0  0  0  0  0  0  0  0
  -26.3240  -13.1550   19.9770 N   0  0  0  0  0  0  0  0  0  0  0  0
  -25.9510  -11.8790   20.2530 N   0  0  0  0  0  0  0  0  0  0  0  0
  -23.9390  -10.6960   20.8530 C   0  0  0  0  0  0  0  0  0  0  0  0
  -24.3750   -9.7330   21.7890 C   0  0  0  0  0  3  0  0  0  0  0  0
  -23.6330   -8.5510   21.9990 C   0  0  0  0  0  3  0  0  0  0  0  0
  -22.4390   -8.3230   21.2730 C   0  0  0  0  0  0  0  0  0  0  0  0
  -22.0210   -9.2760   20.3260 C   0  0  0  0  0  3  0  0  0  0  0  0
  -22.7640  -10.4490   20.1150 C   0  0  0  0  0  3  0  0  0  0  0  0
  -21.6670   -7.1930   21.3920 O   0  0  0  0  0  0  0  0  0  0  0  0
  -21.5960   -6.4910   22.5680 C   0  0  0  0  0  0  0  0  0  0  0  0
  -21.1910   -7.0980   23.7770 C   0  0  0  0  0  3  0  0  0  0  0  0
  -21.0630   -6.3230   24.9470 C   0  0  0  0  0  3  0  0  0  0  0  0
  -21.3330   -4.9420   24.9100 C   0  0  0  0  0  0  0  0  0  0  0  0
  -21.7300   -4.3340   23.7050 C   0  0  0  0  0  3  0  0  0  0  0  0
  -21.8590   -5.1060   22.5380 C   0  0  0  0  0  0  0  0  0  0  0  0
  -22.2220   -4.5120   21.3760 F   0  0  0  0  0  0  0  0  0  0  0  0
  -21.2020   -4.1960   26.0300 F   0  0  0  0  0  0  0  0  0  0  0  0
  -22.8830  -13.8110   21.0470 C   0  0  0  0  0  0  0  0  0  0  0  0
  -22.1980  -13.1400   21.9660 N   0  0  0  0  0  0  0  0  0  0  0  0
  -22.4320  -14.8380   20.5400 O   0  0  0  0  0  0  0  0  0  0  0  0
  -22.5790  -12.3110   22.3970 H   0  0  0  0  0  0  0  0  0  0  0  0
  -21.2810  -13.4610   22.2410 H   0  0  0  0  0  0  0  0  0  0  0  0
  -25.5020  -15.4220   20.1010 N   0  0  0  0  0  0  0  0  0  0  0  0
  -24.7660  -16.1000   20.2700 H   0  0  0  0  0  0  0  0  0  0  0  0
  -26.3620  -15.8400   19.7760 H   0  0  0  0  0  0  0  0  0  0  0  0
  -29.2330  -21.6510   21.1090 N   0  0  0  0  0  4  0  0  0  0  0  0
  -30.1280  -21.4570   20.6910 H   0  0  0  0  0  0  0  0  0  0  0  0
  -29.3900  -21.9600   22.0540 H   0  0  0  0  0  0  0  0  0  0  0  0
  -28.5530  -22.7350   20.3310 C   0  0  0  0  0  2  0  0  0  0  0  0
  -29.0040  -24.2100   20.5990 C   0  0  0  0  0  2  0  0  0  0  0  0
  -28.1330  -25.2070   19.7800 C   0  0  0  0  0  2  0  0  0  0  0  0
  -28.2770  -26.6280   20.0600 O   0  0  0  0  0  0  0  0  0  0  0  0
  -24.5830  -31.8880   23.1870 C   0  0  0  0  0  0  0  0  0  0  0  0
  -27.1270  -27.4150   20.0230 C   0  0  0  0  0  0  0  0  0  0  0  0
  -23.3330  -30.4990   21.5700 C   0  0  0  0  0  3  0  0  0  0  0  0
  -24.7480  -28.9740   20.0950 C   0  0  0  0  0  0  0  0  0  0  0  0
  -25.8610  -30.8420   21.3160 C   0  0  0  0  0  2  0  0  0  0  0  0
  -25.9250  -29.4710   20.6660 C   0  0  0  0  0  0  0  0  0  0  0  0
  -27.1150  -28.6980   20.6320 C   0  0  0  0  0  3  0  0  0  0  0  0
  -25.9330  -26.9720   19.4000 C   0  0  0  0  0  3  0  0  0  0  0  0
  -24.7500  -27.7260   19.4590 C   0  0  0  0  0  3  0  0  0  0  0  0
  -23.5080  -29.8360   20.1790 C   0  0  0  0  0  2  0  0  0  0  0  0
  -24.6120  -31.0920   22.0810 N   0  0  0  0  0  0  0  0  0  0  0  0
  -23.5150  -32.1580   23.7540 O   0  0  0  0  0  0  0  0  0  0  0  0
  -22.7050  -29.4700   22.5400 C   0  0  0  0  0  0  0  0  0  0  0  0
  -21.3810  -29.2770   22.4310 N   0  0  0  0  0  0  0  0  0  0  0  0
  -23.4070  -28.8520   23.3440 O   0  0  0  0  0  0  0  0  0  0  0  0
  -20.8770  -29.8280   21.7530 H   0  0  0  0  0  0  0  0  0  0  0  0
  -18.0280  -28.0290   22.9570 C   0  0  0  0  0  0  0  0  0  0  0  0
  -20.5830  -28.3330   23.2160 C   0  0  0  0  0  3  0  0  0  0  0  0
  -20.7070  -26.8990   22.6520 C   0  0  0  0  0  2  0  0  0  0  0  0
  -19.6060  -26.5450   21.6480 C   0  0  0  0  0  2  0  0  0  0  0  0
  -18.2240  -26.6750   22.2960 C   0  0  0  0  0  2  0  0  0  0  0  0
  -19.1370  -28.8150   23.3730 C   0  0  0  0  0  0  0  0  0  0  0  0
  -18.9000  -30.0800   23.9520 C   0  0  0  0  0  3  0  0  0  0  0  0
  -17.5890  -30.5620   24.1190 C   0  0  0  0  0  3  0  0  0  0  0  0
  -16.4950  -29.7750   23.7180 C   0  0  0  0  0  3  0  0  0  0  0  0
  -16.7150  -28.5110   23.1410 C   0  0  0  0  0  3  0  0  0  0  0  0
  -25.8860  -32.5140   23.7760 C   0  0  0  0  0  3  0  0  0  0  0  0
  -25.5830  -33.9060   24.1350 N   0  0  0  0  0  0  0  0  0  0  0  0
  -25.8990  -34.9710   23.3850 C   0  0  0  0  0  0  0  0  0  0  0  0
  -26.5460  -34.8840   22.3390 O   0  0  0  0  0  0  0  0  0  0  0  0
  -25.0040  -34.0480   24.9480 H   0  0  0  0  0  0  0  0  0  0  0  0
  -24.1650  -36.7700   23.0850 C   0  0  0  0  0  1  0  0  0  0  0  0
  -25.4160  -36.3510   23.8740 C   0  0  0  0  0  3  0  0  0  0  0  0
  -27.5660  -37.2150   24.6830 C   0  0  0  0  0  1  0  0  0  0  0  0
  -26.4450  -37.4080   23.7670 N   0  0  0  0  0  0  0  0  0  0  0  0
  -26.0430  -38.3240   23.9450 H   0  0  0  0  0  0  0  0  0  0  0  0
  -26.4440  -31.7270   25.0230 C   0  0  1  0  0  0  0  0  0  0  0  0
  -25.3850  -31.4710   26.1210 C   0  0  0  0  0  1  0  0  0  0  0  0
  -27.0130  -30.3550   24.5900 C   0  0  0  0  0  1  0  0  0  0  0  0
  -27.6120  -32.5130   25.6600 C   0  0  0  0  0  1  0  0  0  0  0  0
  1  4  1  0
  2  3  1  0
  4  2  2  0
  5  6  2  0
  5  4  1  0
  6  7  1  0
  7  9  1  0
  7  3  2  0
  8  5  1  0
 11 16  1  0
 12 13  1  0
 12 11  1  0
 14 13  1  0
 14 23  1  0
 14 15  1  0
 16 10  1  0
 16 15  1  0
 17 10  2  0
 18 19  1  0
 19 10  1  0
 19  6  1  0
 20 21  2  0
 21 40  1  0
 22 21  1  0
 22 25  1  0
 23 24  1  0
 23 20  1  0
 24 22  2  0
 25 26  1  0
 26 27  2  0
 28 31  1  0
 28 27  1  0
 29 28  2  0
 30 29  1  0
 30 25  2  0
 31 32  1  0
 32 33  1  0
 33 34  2  0
 35 34  1  0
 35 39  1  0
 36 35  2  0
 37 32  2  0
 37 36  1  0
 38 37  1  0
 40 41  1  0
 41 44  1  0
 41 43  1  0
 42 40  2  0
 45 46  1  0
 45 20  1  0
 47 45  1  0
 48  1  1  0
 48 50  1  0
 49 48  1  0
 51 52  1  0
 51 48  1  0
 53 54  1  0
 53 52  1  0
 55 66  2  0
 56 54  1  0
 56 61  1  0
 57 65  1  0
 57 67  1  0
 58 64  1  0
 58 60  1  0
 59 65  1  0
 60 59  1  0
 61 60  2  0
 62 63  1  0
 62 56  2  0
 63 58  2  0
 64 57  1  0
 65 55  1  0
 67 69  2  0
 68 67  1  0
 70 68  1  0
 71 80  2  0
 71 76  1  0
 72 68  1  0
 72 76  1  0
 73 72  1  0
 74 75  1  0
 74 73  1  0
 75 71  1  0
 76 77  2  0
 77 78  1  0
 79 78  2  0
 80 79  1  0
 81 55  1  0
 81 82  1  0
 81 91  1  0
 82 85  1  0
 83 87  1  0
 83 82  1  0
 84 83  2  0
 87 86  1  0
 89 87  1  0
 89 90  1  0
 89 88  1  0
 91 94  1  1
 91 92  1  0
 93 91  1  0
M  ISO  4  10 100  19 100  53 101  54 101
M  END
>  <TORSDO>  (51) 
F 21

>  <SCORE>  (51) 
-10.115

>  <name>  (51) 
50

>  <ligand_id>  (51) 
50

>  <original_smiles>  (51) 
[H]c1c([H])c([H])c2c(c1[H])C([H])([H])C([H])([H])C([H])([H])C2([H])N([H])C(=O)C1([H])N(C(=O)C([H])(N([H])C(=O)C([H])(N([H])C([H])([H])[H])C([H])([H])[H])C(C([H])([H])[H])(C([H])([H])[H])C([H])([H])[H])C([H])([H])c2c([H])c(OC([H])([H])C([H])([H])C([H])([H])[N+]([H])([H])C([H])([H])c3c([H])c([H])c(Cl)c(N(C(=O)N4C([H])([H])C([H])([H])C([H])([H])C([H])(n5nc(-c6c([H])c([H])c(Oc7c([H])c([H])c(F)c([H])c7F)c([H])c6[H])c(C(=O)N([H])[H])c5N([H])[H])C4([H])[H])C([H])([H])[H])c3C([H])([H])[H])c([H])c([H])c2C1([H])[H]

>  <smiles>  (51) 
[H]c1c([H])c([H])c2c(c1[H])C([H])([H])C([H])([H])C([H])([H])C2([H])N([H])C(=O)C1([H])N(C(=O)C([H])(N([H])C(=O)C([H])(N([H])C([H])([H])[H])C([H])([H])[H])C(C([H])([H])[H])(C([H])([H])[H])C([H])([H])[H])C([H])([H])c2c([H])c(OC([H])([H])C([H])([H])C([H])([H])[N+]([H])([H])C([H])([H])c3c([H])c([H])c(Cl)c(N(C(=O)N4C([H])([H])C([H])([H])C([H])([H])C([H])(n5nc(-c6c([H])c([H])c(Oc7c([H])c([H])c(F)c([H])c7F)c([H])c6[H])c(C(=O)N([H])[H])c5N([H])[H])C4([H])[H])C([H])([H])[H])c3C([H])([H])[H])c([H])c([H])c2C1([H])[H]

$$$$
51:0:0
     RDKit          3D

 98106  0  0  1  0  0  0  0  0999 V2000
  -29.8910  -21.0280   18.3100 C   0  0  0  0  0  0  0  0  0  0  0  0
  -29.2240  -20.6720   17.1990 C   0  0  0  0  0  2  0  0  0  0  0  0
  -29.9240  -22.7100   18.7770 C   0  0  0  0  0  2  0  0  0  0  0  0
  -29.0260  -21.0010   20.8530 C   0  0  0  0  0  2  0  0  0  0  0  0
  -29.0050  -22.6320   21.1080 C   0  0  0  0  0  2  0  0  0  0  0  0
  -30.2840  -19.9700   20.5100 C   0  0  0  0  0  2  0  0  0  0  0  0
  -29.0520  -23.7410   19.9370 C   0  0  0  0  0  3  0  0  0  0  0  0
  -30.6730  -19.7250   19.0550 N   0  0  1  0  0  4  0  0  0  0  0  0
  -31.5910  -20.1380   19.1330 H   0  0  0  0  0  0  0  0  0  0  0  0
  -28.7230  -25.4410   20.1820 O   0  0  0  0  0  0  0  0  0  0  0  0
  -24.6760  -31.3330   23.2730 C   0  0  0  0  0  0  0  0  0  0  0  0
  -27.5740  -26.4700   20.2320 C   0  0  0  0  0  0  0  0  0  0  0  0
  -23.6030  -29.9170   21.5710 C   0  0  0  0  0  3  0  0  0  0  0  0
  -25.1640  -28.3280   20.2110 C   0  0  0  0  0  0  0  0  0  0  0  0
  -26.1790  -30.1600   21.5530 C   0  0  0  0  0  2  0  0  0  0  0  0
  -26.3250  -28.7480   20.8710 C   0  0  0  0  0  0  0  0  0  0  0  0
  -27.5080  -27.8450   20.8480 C   0  0  0  0  0  3  0  0  0  0  0  0
  -26.3420  -26.2160   19.5770 C   0  0  0  0  0  3  0  0  0  0  0  0
  -25.2020  -27.0820   19.5580 C   0  0  0  0  0  3  0  0  0  0  0  0
  -23.9190  -29.2310   20.2110 C   0  0  0  0  0  2  0  0  0  0  0  0
  -24.8400  -30.5000   22.1880 N   0  0  0  0  0  0  0  0  0  0  0  0
  -23.5530  -31.5960   23.7360 O   0  0  0  0  0  0  0  0  0  0  0  0
  -22.8680  -28.9160   22.5020 C   0  0  0  0  0  0  0  0  0  0  0  0
  -21.5550  -28.7030   22.2900 N   0  0  0  0  0  0  0  0  0  0  0  0
  -23.4940  -28.3240   23.3840 O   0  0  0  0  0  0  0  0  0  0  0  0
  -21.0990  -29.2330   21.5590 H   0  0  0  0  0  0  0  0  0  0  0  0
  -18.2230  -27.2690   22.5110 C   0  0  0  0  0  0  0  0  0  0  0  0
  -20.7190  -27.7330   23.0100 C   0  0  0  0  0  3  0  0  0  0  0  0
  -20.9770  -26.2950   22.5030 C   0  0  0  0  0  2  0  0  0  0  0  0
  -20.0080  -25.8620   21.4000 C   0  0  0  0  0  2  0  0  0  0  0  0
  -18.5620  -25.9200   21.9010 C   0  0  0  0  0  2  0  0  0  0  0  0
  -19.2370  -28.1270   23.0170 C   0  0  0  0  0  0  0  0  0  0  0  0
  -18.8660  -29.3820   23.5480 C   0  0  0  0  0  3  0  0  0  0  0  0
  -17.5170  -29.7820   23.5780 C   0  0  0  0  0  3  0  0  0  0  0  0
  -16.5170  -28.9240   23.0870 C   0  0  0  0  0  3  0  0  0  0  0  0
  -16.8710  -27.6690   22.5590 C   0  0  0  0  0  3  0  0  0  0  0  0
  -25.8910  -32.0090   23.9800 C   0  0  0  0  0  3  0  0  0  0  0  0
  -26.2550  -31.3340   25.3610 C   0  0  1  0  0  0  0  0  0  0  0  0
  -25.0510  -31.1930   26.3230 C   0  0  0  0  0  1  0  0  0  0  0  0
  -26.8520  -29.9250   25.1500 C   0  0  0  0  0  1  0  0  0  0  0  0
  -27.3420  -32.1680   26.0810 C   0  0  0  0  0  1  0  0  0  0  0  0
  -25.5680  -33.4340   24.1900 N   0  0  0  0  0  0  0  0  0  0  0  0
  -26.0990  -34.4550   23.5040 C   0  0  0  0  0  0  0  0  0  0  0  0
  -26.9670  -34.2940   22.6430 O   0  0  0  0  0  0  0  0  0  0  0  0
  -24.8210  -33.6340   24.8390 H   0  0  0  0  0  0  0  0  0  0  0  0
  -24.5670  -36.3140   22.7600 C   0  0  0  0  0  1  0  0  0  0  0  0
  -25.5910  -35.8790   23.8200 C   0  0  0  0  0  3  0  0  0  0  0  0
  -27.5470  -36.7050   25.0580 C   0  0  0  0  0  1  0  0  0  0  0  0
  -26.6720  -36.8880   23.9040 N   0  0  0  0  0  0  0  0  0  0  0  0
  -26.2840  -37.8260   23.9460 H   0  0  0  0  0  0  0  0  0  0  0  0
  -31.4540  -18.2740   18.4270 C   0  0  0  0  0  2  0  0  0  0  0  0
  -31.6060  -12.7470   19.1420 C   0  0  0  0  0  2  0  0  0  0  0  0
  -30.2390  -15.8140   18.6000 C   0  0  0  0  0  3  0  0  0  0  0  0
  -29.8830  -14.2810   18.9480 C   0  0  0  0  0  2  0  0  0  0  0  0
  -33.1320  -13.6870   19.0840 C   0  0  0  0  0  0  0  0  0  0  0  0
  -31.6480  -16.4640   18.6340 C   0  0  0  0  0  0  0  0  0  0  0  0
  -33.0250  -15.4340   18.8270 C   0  0  0  0  0  0  0  0  0  0  0  0
  -34.4610  -12.9940   19.2860 C   0  0  0  0  0  1  0  0  0  0  0  0
  -34.3490  -16.1720   18.7680 C   0  0  0  0  0  1  0  0  0  0  0  0
  -29.1520  -15.1570   20.2120 C   0  0  0  0  0  2  0  0  0  0  0  0
  -31.2810  -15.0820   21.5710 C   0  0  0  0  0  0  0  0  0  0  0  0
  -31.5260  -12.9920   18.2850 C   0  0  0  0  0  2  0  0  0  0  0  0
  -30.1190  -11.8030   17.9400 C   0  0  0  0  0  3  0  0  0  0  0  0
  -28.7850  -11.4590   19.1200 C   0  0  0  0  0  3  0  0  0  0  0  0
  -28.3950  -12.3500   20.6040 C   0  0  0  0  0  3  0  0  0  0  0  0
  -29.6300  -13.1800   21.7540 C   0  0  0  0  0  2  0  0  0  0  0  0
  -31.1070  -14.0060   21.0350 N   0  0  0  0  0  2  0  0  0  0  0  0
  -32.4300  -15.3320   21.8910 O   0  0  0  0  0  0  0  0  0  0  0  0
  -30.1710  -15.7990   21.2170 N   0  0  0  0  0  0  0  0  0  0  0  0
  -30.1230  -16.7870   21.4060 H   0  0  0  0  0  0  0  0  0  0  0  0
  -26.0770  -13.7020   20.6220 C   0  0  0  0  0  0  0  0  0  0  0  0
  -24.8400  -13.1940   20.8260 C   0  0  0  0  0  0  0  0  0  0  0  0
  -25.0510  -11.8020   21.0160 C   0  0  0  0  0  0  0  0  0  0  0  0
  -26.9770  -12.6010   20.8390 N   0  0  0  0  0  0  0  0  0  0  0  0
  -26.3200  -11.4760   21.0490 N   0  0  0  0  0  0  0  0  0  0  0  0
  -24.1250  -10.7100   21.1310 C   0  0  0  0  0  0  0  0  0  0  0  0
  -24.3700   -9.6850   22.0640 C   0  0  0  0  0  3  0  0  0  0  0  0
  -23.4600   -8.6250   22.1860 C   0  0  0  0  0  3  0  0  0  0  0  0
  -22.3040   -8.5990   21.3740 C   0  0  0  0  0  0  0  0  0  0  0  0
  -22.0900   -9.6080   20.4210 C   0  0  0  0  0  3  0  0  0  0  0  0
  -23.0010  -10.6620   20.2900 C   0  0  0  0  0  3  0  0  0  0  0  0
  -21.3650   -7.6040   21.4300 O   0  0  0  0  0  0  0  0  0  0  0  0
  -21.3270   -6.7310   22.4840 C   0  0  0  0  0  0  0  0  0  0  0  0
  -21.1590   -7.1750   23.8140 C   0  0  0  0  0  3  0  0  0  0  0  0
  -21.0500   -6.2340   24.8580 C   0  0  0  0  0  3  0  0  0  0  0  0
  -21.1020   -4.8570   24.5720 C   0  0  0  0  0  0  0  0  0  0  0  0
  -21.2730   -4.4160   23.2490 C   0  0  0  0  0  3  0  0  0  0  0  0
  -21.3840   -5.3520   22.2070 C   0  0  0  0  0  0  0  0  0  0  0  0
  -21.5290   -4.9270   20.9280 F   0  0  0  0  0  0  0  0  0  0  0  0
  -20.9850   -3.9530   25.5730 F   0  0  0  0  0  0  0  0  0  0  0  0
  -23.5350  -13.9280   20.7170 C   0  0  0  0  0  0  0  0  0  0  0  0
  -22.5520  -13.5030   21.5010 N   0  0  0  0  0  0  0  0  0  0  0  0
  -23.3970  -14.9130   19.9920 O   0  0  0  0  0  0  0  0  0  0  0  0
  -22.6800  -12.7100   22.1110 H   0  0  0  0  0  0  0  0  0  0  0  0
  -21.6580  -13.9760   21.4970 H   0  0  0  0  0  0  0  0  0  0  0  0
  -26.4160  -14.9820   20.1820 N   0  0  0  0  0  0  0  0  0  0  0  0
  -25.6500  -15.5690   19.8680 H   0  0  0  0  0  0  0  0  0  0  0  0
  -27.2370  -15.0850   19.6000 H   0  0  0  0  0  0  0  0  0  0  0  0
  1  3  1  0
  1  8  1  0
  2  1  2  0
  3  7  1  0
  4  5  1  0
  6  4  1  0
  7 10  1  0
  7  5  1  0
  8  9  1  1
  8  6  1  0
 10 12  1  0
 11 22  2  0
 12 17  1  0
 13 21  1  0
 13 23  1  0
 14 16  1  0
 15 21  1  0
 16 15  1  0
 17 16  2  0
 18 12  2  0
 19 18  1  0
 19 14  2  0
 20 14  1  0
 20 13  1  0
 21 11  1  0
 23 25  2  0
 24 23  1  0
 26 24  1  0
 27 36  2  0
 27 32  1  0
 28 24  1  0
 28 32  1  0
 29 28  1  0
 30 31  1  0
 30 29  1  0
 31 27  1  0
 32 33  2  0
 33 34  1  0
 35 34  2  0
 36 35  1  0
 37 11  1  0
 37 42  1  0
 37 38  1  0
 38 41  1  1
 38 39  1  0
 40 38  1  0
 42 45  1  0
 43 47  1  0
 43 42  1  0
 44 43  2  0
 47 46  1  0
 47 49  1  0
 49 50  1  0
 49 48  1  0
 51 56  1  0
 51  8  1  0
 53 56  2  0
 53 54  1  0
 54 60  1  0
 55 52  1  0
 55 58  1  0
 56 57  1  0
 57 55  2  0
 59 57  1  0
 60 69  1  0
 61 68  2  0
 62 52  1  0
 63 62  1  0
 63 64  2  0
 65 64  1  0
 65 74  1  0
 65 66  1  0
 67 61  1  0
 67 66  1  0
 69 70  1  0
 69 61  1  0
 71 72  2  0
 71 74  1  0
 72 73  1  0
 73 75  2  0
 73 76  1  0
 74 75  1  0
 76 77  1  0
 77 78  2  0
 79 82  1  0
 79 78  1  0
 80 79  2  0
 81 80  1  0
 81 76  2  0
 82 83  1  0
 83 84  1  0
 84 85  2  0
 86 85  1  0
 86 90  1  0
 87 86  2  0
 88 83  2  0
 88 87  1  0
 89 88  1  0
 91 72  1  0
 91 92  1  0
 92 94  1  0
 93 91  2  0
 95 92  1  0
 96 71  1  0
 97 96  1  0
 98 96  1  0
M  ISO  4   7 101  10 101  61 100  69 100
M  END
>  <TORSDO>  (52) 
F 19

>  <SCORE>  (52) 
-12.763

>  <name>  (52) 
51

>  <ligand_id>  (52) 
51

>  <original_smiles>  (52) 
[H]C([H])=C1C([H])([H])C([H])(Oc2c([H])c([H])c3c(c2[H])C([H])([H])N(C(=O)C([H])(N([H])C(=O)C([H])(N([H])C([H])([H])[H])C([H])([H])[H])C(C([H])([H])[H])(C([H])([H])[H])C([H])([H])[H])C([H])(C(=O)N([H])C2([H])c4c([H])c([H])c([H])c([H])c4C([H])([H])C([H])([H])C2([H])[H])C3([H])[H])C([H])([H])C([H])([H])C([H])([H])[N+]1([H])C([H])([H])c1c([H])c(C([H])([H])N([H])C(=O)N2C([H])([H])C([H])([H])C([H])([H])C([H])(n3nc(-c4c([H])c([H])c(Oc5c([H])c([H])c(F)c([H])c5F)c([H])c4[H])c(C(=O)N([H])[H])c3N([H])[H])C2([H])[H])c([H])c(C([H])([H])[H])c1C([H])([H])[H]

>  <smiles>  (52) 
[H]C([H])=C1C([H])([H])C([H])(Oc2c([H])c([H])c3c(c2[H])C([H])([H])N(C(=O)C([H])(N([H])C(=O)C([H])(N([H])C([H])([H])[H])C([H])([H])[H])C(C([H])([H])[H])(C([H])([H])[H])C([H])([H])[H])C([H])(C(=O)N([H])C2([H])c4c([H])c([H])c([H])c([H])c4C([H])([H])C([H])([H])C2([H])[H])C3([H])[H])C([H])([H])C([H])([H])C([H])([H])[N+]1([H])C([H])([H])c1c([H])c(C([H])([H])N([H])C(=O)N2C([H])([H])C([H])([H])C([H])([H])C([H])(n3nc(-c4c([H])c([H])c(Oc5c([H])c([H])c(F)c([H])c5F)c([H])c4[H])c(C(=O)N([H])[H])c3N([H])[H])C2([H])[H])c([H])c(C([H])([H])[H])c1C([H])([H])[H]

$$$$
52:0:0
     RDKit          3D

 97106  0  0  1  0  0  0  0  0999 V2000
  -30.8890  -24.5670   21.9140 C   0  0  0  0  0  2  0  0  0  0  0  0
  -30.2170  -25.7110   21.1330 C   0  0  0  0  0  2  0  0  0  0  0  0
  -29.1980  -24.0600   19.4300 C   0  0  0  0  0  2  0  0  0  0  0  0
  -31.5810  -23.5250   21.0010 C   0  0  0  0  0  2  0  0  0  0  0  0
  -29.3420  -22.7150   20.2170 C   0  0  0  0  0  2  0  0  0  0  0  0
  -28.9740  -25.3290   20.3040 C   0  0  0  0  0  3  0  0  0  0  0  0
  -30.7260  -22.3500   20.6740 N   0  0  2  0  0  4  0  0  0  0  0  0
  -31.1780  -21.9140   19.8840 H   0  0  0  0  0  0  0  0  0  0  0  0
  -28.7230  -26.5030   19.5080 O   0  0  0  0  0  0  0  0  0  0  0  0
  -24.7190  -31.2960   22.9820 C   0  0  0  0  0  0  0  0  0  0  0  0
  -27.5070  -27.1380   19.6420 C   0  0  0  0  0  0  0  0  0  0  0  0
  -23.5420  -29.9100   21.3030 C   0  0  0  0  0  3  0  0  0  0  0  0
  -25.0360  -28.5110   19.7790 C   0  0  0  0  0  0  0  0  0  0  0  0
  -26.0380  -30.4100   21.0600 C   0  0  0  0  0  2  0  0  0  0  0  0
  -26.1800  -29.0720   20.3600 C   0  0  0  0  0  0  0  0  0  0  0  0
  -27.4190  -28.3950   20.2860 C   0  0  0  0  0  3  0  0  0  0  0  0
  -26.3460  -26.5870   19.0620 C   0  0  0  0  0  3  0  0  0  0  0  0
  -25.1140  -27.2660   19.1280 C   0  0  0  0  0  3  0  0  0  0  0  0
  -23.7500  -29.3010   19.8900 C   0  0  0  0  0  2  0  0  0  0  0  0
  -24.7860  -30.5520   21.8400 N   0  0  0  0  0  0  0  0  0  0  0  0
  -23.6400  -31.4850   23.5600 O   0  0  0  0  0  0  0  0  0  0  0  0
  -22.9680  -28.8150   22.2310 C   0  0  0  0  0  0  0  0  0  0  0  0
  -21.6570  -28.5510   22.1060 N   0  0  0  0  0  0  0  0  0  0  0  0
  -23.7000  -28.2050   23.0170 O   0  0  0  0  0  0  0  0  0  0  0  0
  -21.1250  -29.0990   21.4470 H   0  0  0  0  0  0  0  0  0  0  0  0
  -18.3940  -27.0550   22.5140 C   0  0  0  0  0  0  0  0  0  0  0  0
  -20.9120  -27.5330   22.8460 C   0  0  0  0  0  3  0  0  0  0  0  0
  -21.1530  -26.1250   22.2530 C   0  0  0  0  0  2  0  0  0  0  0  0
  -20.1060  -25.7220   21.2100 C   0  0  0  0  0  2  0  0  0  0  0  0
  -18.7040  -25.7360   21.8250 C   0  0  0  0  0  2  0  0  0  0  0  0
  -19.4320  -27.9050   22.9790 C   0  0  0  0  0  0  0  0  0  0  0  0
  -19.0910  -29.1360   23.5810 C   0  0  0  0  0  3  0  0  0  0  0  0
  -17.7440  -29.5190   23.7230 C   0  0  0  0  0  3  0  0  0  0  0  0
  -16.7210  -28.6670   23.2750 C   0  0  0  0  0  3  0  0  0  0  0  0
  -17.0460  -27.4360   22.6770 C   0  0  0  0  0  3  0  0  0  0  0  0
  -25.9880  -31.9630   23.5990 C   0  0  0  0  0  3  0  0  0  0  0  0
  -26.6000  -31.1410   24.7990 C   0  0  1  0  0  0  0  0  0  0  0  0
  -25.5690  -30.7720   25.8910 C   0  0  0  0  0  1  0  0  0  0  0  0
  -27.2420  -29.8280   24.2910 C   0  0  0  0  0  1  0  0  0  0  0  0
  -27.7320  -31.9550   25.4680 C   0  0  0  0  0  1  0  0  0  0  0  0
  -25.6100  -33.3140   24.0330 N   0  0  0  0  0  0  0  0  0  0  0  0
  -25.9140  -34.4380   23.3700 C   0  0  0  0  0  0  0  0  0  0  0  0
  -26.6130  -34.4470   22.3530 O   0  0  0  0  0  0  0  0  0  0  0  0
  -24.9910  -33.3770   24.8280 H   0  0  0  0  0  0  0  0  0  0  0  0
  -24.1160  -36.1780   23.1120 C   0  0  0  0  0  1  0  0  0  0  0  0
  -25.3530  -35.7620   23.9230 C   0  0  0  0  0  3  0  0  0  0  0  0
  -27.4280  -36.6640   24.8790 C   0  0  0  0  0  1  0  0  0  0  0  0
  -26.3410  -36.8640   23.9240 N   0  0  0  0  0  0  0  0  0  0  0  0
  -25.8910  -37.7500   24.1360 H   0  0  0  0  0  0  0  0  0  0  0  0
  -30.7630  -21.3140   21.7610 C   0  0  0  0  0  2  0  0  0  0  0  0
  -30.7540  -19.3910   20.0370 C   0  0  0  0  0  3  0  0  0  0  0  0
  -30.2510  -17.4720   21.9920 C   0  0  0  0  0  3  0  0  0  0  0  0
  -30.5470  -19.8300   21.3700 C   0  0  0  0  0  0  0  0  0  0  0  0
  -30.6950  -18.0170   19.6730 C   0  0  0  0  0  0  0  0  0  0  0  0
  -30.2690  -18.8390   22.3510 C   0  0  0  0  0  0  0  0  0  0  0  0
  -30.4870  -17.0250   20.6760 C   0  0  0  0  0  0  0  0  0  0  0  0
  -30.8200  -17.6800   18.1980 C   0  0  0  0  0  1  0  0  0  0  0  0
  -31.1460  -14.6210   19.9860 C   0  0  0  0  0  0  0  0  0  0  0  0
  -30.8160  -12.4580   18.8350 C   0  0  0  0  0  2  0  0  0  0  0  0
  -29.8250  -12.6870   17.6730 C   0  0  0  0  0  2  0  0  0  0  0  0
  -28.3620  -12.5850   18.1550 C   0  0  0  0  0  2  0  0  0  0  0  0
  -28.0960  -13.4120   19.4410 C   0  0  0  0  0  3  0  0  0  0  0  0
  -29.1850  -13.1260   20.4990 C   0  0  0  0  0  2  0  0  0  0  0  0
  -30.4940  -13.4290   19.8890 N   0  0  0  0  0  0  0  0  0  0  0  0
  -32.2780  -14.7970   19.5270 O   0  0  0  0  0  0  0  0  0  0  0  0
  -30.3710  -15.6020   20.5040 N   0  0  0  0  0  0  0  0  0  0  0  0
  -29.5230  -15.2190   20.8910 H   0  0  0  0  0  0  0  0  0  0  0  0
  -25.7490  -14.0970   20.2490 C   0  0  0  0  0  0  0  0  0  0  0  0
  -24.6700  -13.3570   20.6530 C   0  0  0  0  0  0  0  0  0  0  0  0
  -25.0830  -11.9920   20.5880 C   0  0  0  0  0  0  0  0  0  0  0  0
  -26.7530  -13.1820   19.9680 N   0  0  0  0  0  0  0  0  0  0  0  0
  -26.3570  -11.9100   20.2280 N   0  0  0  0  0  0  0  0  0  0  0  0
  -24.3220  -10.7520   20.7940 C   0  0  0  0  0  0  0  0  0  0  0  0
  -24.7150   -9.7970   21.7580 C   0  0  0  0  0  3  0  0  0  0  0  0
  -23.9580   -8.6220   21.9490 C   0  0  0  0  0  3  0  0  0  0  0  0
  -22.7960   -8.3920   21.1750 C   0  0  0  0  0  0  0  0  0  0  0  0
  -22.4220   -9.3350   20.2020 C   0  0  0  0  0  3  0  0  0  0  0  0
  -23.1800  -10.5020   20.0090 C   0  0  0  0  0  3  0  0  0  0  0  0
  -22.0150   -7.2660   21.2740 O   0  0  0  0  0  0  0  0  0  0  0  0
  -21.8390   -6.6140   22.4680 C   0  0  0  0  0  0  0  0  0  0  0  0
  -21.3260   -7.2720   23.6070 C   0  0  0  0  0  3  0  0  0  0  0  0
  -21.0940   -6.5480   24.7940 C   0  0  0  0  0  3  0  0  0  0  0  0
  -21.3640   -5.1670   24.8420 C   0  0  0  0  0  0  0  0  0  0  0  0
  -21.8700   -4.5100   23.7070 C   0  0  0  0  0  3  0  0  0  0  0  0
  -22.1030   -5.2310   22.5230 C   0  0  0  0  0  0  0  0  0  0  0  0
  -22.5700   -4.5880   21.4260 F   0  0  0  0  0  0  0  0  0  0  0  0
  -21.1360   -4.4700   25.9790 F   0  0  0  0  0  0  0  0  0  0  0  0
  -23.3010  -13.8790   20.9860 C   0  0  0  0  0  0  0  0  0  0  0  0
  -22.5990  -13.2200   21.9010 N   0  0  0  0  0  0  0  0  0  0  0  0
  -22.8650  -14.9070   20.4700 O   0  0  0  0  0  0  0  0  0  0  0  0
  -22.9640  -12.3880   22.3420 H   0  0  0  0  0  0  0  0  0  0  0  0
  -21.6830  -13.5520   22.1660 H   0  0  0  0  0  0  0  0  0  0  0  0
  -25.9560  -15.4630   20.0820 N   0  0  0  0  0  0  0  0  0  0  0  0
  -25.2170  -16.1430   20.2290 H   0  0  0  0  0  0  0  0  0  0  0  0
  -26.8050  -15.8760   19.7180 H   0  0  0  0  0  0  0  0  0  0  0  0
  -31.3290  -19.4540   24.5830 C   0  0  0  0  0  1  0  0  0  0  0  0
  -30.0270  -19.1770   23.8190 C   0  0  0  0  0  2  0  0  0  0  0  0
  2  1  1  0
  3  5  1  0
  3  6  1  0
  4  1  1  0
  5  7  1  0
  6  9  1  0
  6  2  1  0
  7  4  1  0
  7 50  1  0
  7  8  1  6
  9 11  1  0
 10 21  2  0
 11 16  1  0
 12 20  1  0
 12 22  1  0
 13 19  1  0
 13 15  1  0
 14 20  1  0
 15 14  1  0
 16 15  2  0
 17 18  1  0
 17 11  2  0
 18 13  2  0
 19 12  1  0
 20 10  1  0
 22 24  2  0
 23 22  1  0
 25 23  1  0
 26 35  2  0
 26 31  1  0
 27 23  1  0
 27 31  1  0
 28 27  1  0
 29 30  1  0
 29 28  1  0
 30 26  1  0
 31 32  2  0
 32 33  1  0
 34 33  2  0
 35 34  1  0
 36 10  1  0
 36 41  1  0
 36 37  1  0
 37 40  1  1
 37 38  1  0
 39 37  1  0
 41 44  1  0
 42 46  1  0
 42 41  1  0
 43 42  2  0
 46 45  1  0
 46 48  1  0
 48 49  1  0
 48 47  1  0
 51 53  1  0
 52 55  1  0
 53 50  1  0
 53 55  2  0
 54 51  2  0
 54 56  1  0
 55 97  1  0
 56 52  2  0
 57 54  1  0
 58 66  1  0
 59 64  1  0
 60 61  1  0
 60 59  1  0
 62 61  1  0
 62 71  1  0
 62 63  1  0
 64 58  1  0
 64 63  1  0
 65 58  2  0
 66 56  1  0
 66 67  1  0
 68 69  2  0
 69 88  1  0
 70 69  1  0
 70 73  1  0
 71 72  1  0
 71 68  1  0
 72 70  2  0
 73 74  1  0
 74 75  2  0
 76 79  1  0
 76 75  1  0
 77 76  2  0
 78 77  1  0
 78 73  2  0
 79 80  1  0
 80 85  2  0
 80 81  1  0
 81 82  2  0
 82 83  1  0
 83 87  1  0
 84 83  2  0
 85 84  1  0
 86 85  1  0
 88 89  1  0
 89 92  1  0
 89 91  1  0
 90 88  2  0
 93 94  1  0
 93 68  1  0
 95 93  1  0
 97 96  1  0
M  ISO  4   6 101   9 101  58 100  66 100
M  END
>  <TORSDO>  (53) 
F 19

>  <SCORE>  (53) 
-9.147

>  <name>  (53) 
52

>  <ligand_id>  (53) 
52

>  <original_smiles>  (53) 
[H]c1c([H])c([H])c2c(c1[H])C([H])([H])C([H])([H])C([H])([H])C2([H])N([H])C(=O)C1([H])N(C(=O)C([H])(N([H])C(=O)C([H])(N([H])C([H])([H])[H])C([H])([H])[H])C(C([H])([H])[H])(C([H])([H])[H])C([H])([H])[H])C([H])([H])c2c([H])c(OC3([H])C([H])([H])C([H])([H])C([H])([H])[N+]([H])(C([H])([H])c4c([H])c(C([H])([H])[H])c(N([H])C(=O)N5C([H])([H])C([H])([H])C([H])([H])C([H])(n6nc(-c7c([H])c([H])c(Oc8c([H])c([H])c(F)c([H])c8F)c([H])c7[H])c(C(=O)N([H])[H])c6N([H])[H])C5([H])[H])c([H])c4C([H])([H])C([H])([H])[H])C([H])([H])C3([H])[H])c([H])c([H])c2C1([H])[H]

>  <smiles>  (53) 
[H]c1c([H])c([H])c2c(c1[H])C([H])([H])C([H])([H])C([H])([H])C2([H])N([H])C(=O)C1([H])N(C(=O)C([H])(N([H])C(=O)C([H])(N([H])C([H])([H])[H])C([H])([H])[H])C(C([H])([H])[H])(C([H])([H])[H])C([H])([H])[H])C([H])([H])c2c([H])c(OC3([H])C([H])([H])C([H])([H])C([H])([H])[N+]([H])(C([H])([H])c4c([H])c(C([H])([H])[H])c(N([H])C(=O)N5C([H])([H])C([H])([H])C([H])([H])C([H])(n6nc(-c7c([H])c([H])c(Oc8c([H])c([H])c(F)c([H])c8F)c([H])c7[H])c(C(=O)N([H])[H])c6N([H])[H])C5([H])[H])c([H])c4C([H])([H])C([H])([H])[H])C([H])([H])C3([H])[H])c([H])c([H])c2C1([H])[H]

$$$$
53:0:0
     RDKit          3D

 99108  0  0  1  0  0  0  0  0999 V2000
  -29.5760  -24.8900   21.2270 C   0  0  0  0  0  0  0  0  0  0  0  0
  -30.3350  -25.6330   22.0570 C   0  0  0  0  0  2  0  0  0  0  0  0
  -26.6830  -23.8850   20.2020 C   0  0  0  0  0  2  0  0  0  0  0  0
  -26.8820  -23.9860   21.7260 C   0  0  0  0  0  2  0  0  0  0  0  0
  -27.8660  -24.3880   19.3230 C   0  0  0  0  0  2  0  0  0  0  0  0
  -28.0680  -23.1510   22.2430 C   0  0  0  0  0  2  0  0  0  0  0  0
  -28.8760  -25.4020   19.9460 C   0  0  0  0  0  3  0  0  0  0  0  0
  -29.3120  -23.4130   21.4750 N   0  0  2  0  0  4  0  0  0  0  0  0
  -29.1180  -23.0260   20.5620 H   0  0  0  0  0  0  0  0  0  0  0  0
  -28.6420  -26.8480   19.9370 O   0  0  0  0  0  0  0  0  0  0  0  0
  -24.6690  -31.8360   23.1430 C   0  0  0  0  0  0  0  0  0  0  0  0
  -27.4140  -27.4960   19.9750 C   0  0  0  0  0  0  0  0  0  0  0  0
  -23.4940  -30.4410   21.4730 C   0  0  0  0  0  3  0  0  0  0  0  0
  -24.9800  -28.9770   20.0090 C   0  0  0  0  0  0  0  0  0  0  0  0
  -26.0110  -30.8590   21.2790 C   0  0  0  0  0  2  0  0  0  0  0  0
  -26.1260  -29.4990   20.6190 C   0  0  0  0  0  0  0  0  0  0  0  0
  -27.3360  -28.7620   20.6100 C   0  0  0  0  0  3  0  0  0  0  0  0
  -26.2550  -27.0310   19.3140 C   0  0  0  0  0  3  0  0  0  0  0  0
  -25.0420  -27.7380   19.3560 C   0  0  0  0  0  3  0  0  0  0  0  0
  -23.7170  -29.8080   20.0750 C   0  0  0  0  0  2  0  0  0  0  0  0
  -24.7430  -31.0620   22.0230 N   0  0  0  0  0  0  0  0  0  0  0  0
  -23.5840  -32.0660   23.6940 O   0  0  0  0  0  0  0  0  0  0  0  0
  -22.8810  -29.3750   22.4100 C   0  0  0  0  0  0  0  0  0  0  0  0
  -21.5620  -29.1500   22.2830 N   0  0  0  0  0  0  0  0  0  0  0  0
  -23.5890  -28.7560   23.2090 O   0  0  0  0  0  0  0  0  0  0  0  0
  -21.0430  -29.7100   21.6200 H   0  0  0  0  0  0  0  0  0  0  0  0
  -18.2450  -27.7970   22.7260 C   0  0  0  0  0  0  0  0  0  0  0  0
  -20.7860  -28.1680   23.0390 C   0  0  0  0  0  3  0  0  0  0  0  0
  -20.9610  -26.7460   22.4550 C   0  0  0  0  0  2  0  0  0  0  0  0
  -19.8920  -26.3830   21.4230 C   0  0  0  0  0  2  0  0  0  0  0  0
  -18.4940  -26.4600   22.0450 C   0  0  0  0  0  2  0  0  0  0  0  0
  -19.3210  -28.6050   23.1790 C   0  0  0  0  0  0  0  0  0  0  0  0
  -19.0350  -29.8530   23.7710 C   0  0  0  0  0  3  0  0  0  0  0  0
  -17.7070  -30.2920   23.9230 C   0  0  0  0  0  3  0  0  0  0  0  0
  -16.6460  -29.4790   23.4910 C   0  0  0  0  0  3  0  0  0  0  0  0
  -16.9150  -28.2350   22.8910 C   0  0  0  0  0  3  0  0  0  0  0  0
  -25.9390  -32.4920   23.7690 C   0  0  0  0  0  3  0  0  0  0  0  0
  -26.4930  -31.7040   25.0190 C   0  0  1  0  0  0  0  0  0  0  0  0
  -25.4210  -31.3970   26.0880 C   0  0  0  0  0  1  0  0  0  0  0  0
  -27.1300  -30.3640   24.5830 C   0  0  0  0  0  1  0  0  0  0  0  0
  -27.6130  -32.5250   25.7030 C   0  0  0  0  0  1  0  0  0  0  0  0
  -25.5910  -33.8710   24.1390 N   0  0  0  0  0  0  0  0  0  0  0  0
  -25.9330  -34.9570   23.4350 C   0  0  0  0  0  0  0  0  0  0  0  0
  -26.6440  -34.9050   22.4290 O   0  0  0  0  0  0  0  0  0  0  0  0
  -24.9660  -33.9860   24.9240 H   0  0  0  0  0  0  0  0  0  0  0  0
  -24.1980  -36.7420   23.0600 C   0  0  0  0  0  1  0  0  0  0  0  0
  -25.3970  -36.3180   23.9240 C   0  0  0  0  0  3  0  0  0  0  0  0
  -27.4750  -37.1920   24.9010 C   0  0  0  0  0  1  0  0  0  0  0  0
  -26.4150  -37.3900   23.9150 N   0  0  0  0  0  0  0  0  0  0  0  0
  -25.9870  -38.2960   24.0830 H   0  0  0  0  0  0  0  0  0  0  0  0
  -30.4750  -22.6020   21.9510 C   0  0  0  0  0  2  0  0  0  0  0  0
  -30.5570  -19.2370   20.0780 C   0  0  0  0  0  3  0  0  0  0  0  0
  -30.8620  -18.3030   21.0920 C   0  0  0  0  0  0  0  0  0  0  0  0
  -30.7760  -18.7260   22.4460 C   0  0  0  0  0  0  0  0  0  0  0  0
  -30.5620  -20.1060   22.7600 C   0  0  0  0  0  0  0  0  0  0  0  0
  -30.4060  -21.0690   21.7140 C   0  0  0  0  0  0  0  0  0  0  0  0
  -30.3270  -20.5960   20.3790 C   0  0  0  0  0  0  0  0  0  0  0  0
  -30.9980  -17.7110   23.5680 C   0  0  0  0  0  1  0  0  0  0  0  0
  -30.5810  -20.5310   24.2300 C   0  0  0  0  0  1  0  0  0  0  0  0
  -30.0320  -21.6930   19.0720 Cl  0  0  0  0  0  0  0  0  0  0  0  0
  -31.5270  -16.9710   20.6780 C   0  0  0  0  0  2  0  0  0  0  0  0
  -31.2220  -14.6620   19.8070 C   0  0  0  0  0  0  0  0  0  0  0  0
  -30.8090  -12.3980   18.8920 C   0  0  0  0  0  2  0  0  0  0  0  0
  -29.8330  -12.4740   17.7010 C   0  0  0  0  0  2  0  0  0  0  0  0
  -28.3760  -12.3940   18.1970 C   0  0  0  0  0  2  0  0  0  0  0  0
  -28.0900  -13.3820   19.3590 C   0  0  0  0  0  3  0  0  0  0  0  0
  -29.1820  -13.3010   20.4500 C   0  0  0  0  0  2  0  0  0  0  0  0
  -30.4860  -13.5120   19.8070 N   0  0  0  0  0  0  0  0  0  0  0  0
  -32.3010  -14.7320   19.2120 O   0  0  0  0  0  0  0  0  0  0  0  0
  -30.7160  -15.7530   20.4350 N   0  0  0  0  0  0  0  0  0  0  0  0
  -29.8180  -15.6800   20.8870 H   0  0  0  0  0  0  0  0  0  0  0  0
  -25.7830  -14.1170   20.2150 C   0  0  0  0  0  0  0  0  0  0  0  0
  -24.6950  -13.4060   20.6420 C   0  0  0  0  0  0  0  0  0  0  0  0
  -25.0710  -12.0280   20.5730 C   0  0  0  0  0  0  0  0  0  0  0  0
  -26.7560  -13.1790   19.9160 N   0  0  0  0  0  0  0  0  0  0  0  0
  -26.3360  -11.9170   20.1880 N   0  0  0  0  0  0  0  0  0  0  0  0
  -24.2840  -10.8100   20.7970 C   0  0  0  0  0  0  0  0  0  0  0  0
  -24.6930   -9.8250   21.7220 C   0  0  0  0  0  3  0  0  0  0  0  0
  -23.9080   -8.6720   21.9330 C   0  0  0  0  0  3  0  0  0  0  0  0
  -22.7000   -8.4950   21.2190 C   0  0  0  0  0  0  0  0  0  0  0  0
  -22.3100   -9.4660   20.2790 C   0  0  0  0  0  3  0  0  0  0  0  0
  -23.0940  -10.6110   20.0670 C   0  0  0  0  0  3  0  0  0  0  0  0
  -21.8860   -7.3950   21.3400 O   0  0  0  0  0  0  0  0  0  0  0  0
  -21.7920   -6.6940   22.5150 C   0  0  0  0  0  0  0  0  0  0  0  0
  -21.3980   -7.3130   23.7220 C   0  0  0  0  0  3  0  0  0  0  0  0
  -21.2470   -6.5420   24.8920 C   0  0  0  0  0  3  0  0  0  0  0  0
  -21.4800   -5.1540   24.8560 C   0  0  0  0  0  0  0  0  0  0  0  0
  -21.8690   -4.5360   23.6550 C   0  0  0  0  0  3  0  0  0  0  0  0
  -22.0220   -5.3040   22.4870 C   0  0  0  0  0  0  0  0  0  0  0  0
  -22.3760   -4.6990   21.3270 F   0  0  0  0  0  0  0  0  0  0  0  0
  -21.3280   -4.4130   25.9780 F   0  0  0  0  0  0  0  0  0  0  0  0
  -23.3470  -13.9600   21.0020 C   0  0  0  0  0  0  0  0  0  0  0  0
  -22.6430  -13.3140   21.9230 N   0  0  0  0  0  0  0  0  0  0  0  0
  -22.9330  -15.0050   20.4990 O   0  0  0  0  0  0  0  0  0  0  0  0
  -22.9940  -12.4690   22.3530 H   0  0  0  0  0  0  0  0  0  0  0  0
  -21.7400  -13.6690   22.2050 H   0  0  0  0  0  0  0  0  0  0  0  0
  -26.0190  -15.4780   20.0360 N   0  0  0  0  0  0  0  0  0  0  0  0
  -25.3030  -16.1790   20.1900 H   0  0  0  0  0  0  0  0  0  0  0  0
  -26.8750  -15.8650   19.6620 H   0  0  0  0  0  0  0  0  0  0  0  0
  1  8  1  0
  1  2  2  0
  3  4  1  0
  4  6  1  0
  5  7  1  0
  5  3  1  0
  7 10  1  0
  7  1  1  0
  8 51  1  0
  8  6  1  0
  8  9  1  6
 10 12  1  0
 11 22  2  0
 12 17  1  0
 13 21  1  0
 13 23  1  0
 14 20  1  0
 14 16  1  0
 15 21  1  0
 16 15  1  0
 17 16  2  0
 18 19  1  0
 18 12  2  0
 19 14  2  0
 20 13  1  0
 21 11  1  0
 23 25  2  0
 24 23  1  0
 26 24  1  0
 27 36  2  0
 27 32  1  0
 28 24  1  0
 28 32  1  0
 29 28  1  0
 30 31  1  0
 30 29  1  0
 31 27  1  0
 32 33  2  0
 33 34  1  0
 35 34  2  0
 36 35  1  0
 37 11  1  0
 37 42  1  0
 37 38  1  0
 38 41  1  1
 38 39  1  0
 40 38  1  0
 42 45  1  0
 43 47  1  0
 43 42  1  0
 44 43  2  0
 47 46  1  0
 49 47  1  0
 49 50  1  0
 49 48  1  0
 52 57  2  0
 52 53  1  0
 53 54  2  0
 54 55  1  0
 54 58  1  0
 55 59  1  0
 56 51  1  0
 56 55  2  0
 57 56  1  0
 60 57  1  0
 61 53  1  0
 62 70  1  0
 63 68  1  0
 64 65  1  0
 64 63  1  0
 66 65  1  0
 66 75  1  0
 66 67  1  0
 68 62  1  0
 68 67  1  0
 69 62  2  0
 70 61  1  0
 70 71  1  0
 72 73  2  0
 73 92  1  0
 74 73  1  0
 74 77  1  0
 75 76  1  0
 75 72  1  0
 76 74  2  0
 77 78  1  0
 78 79  2  0
 80 83  1  0
 80 79  1  0
 81 80  2  0
 82 81  1  0
 82 77  2  0
 83 84  1  0
 84 85  1  0
 85 86  2  0
 87 86  1  0
 87 91  1  0
 88 87  2  0
 89 84  2  0
 89 88  1  0
 90 89  1  0
 92 93  1  0
 93 96  1  0
 93 95  1  0
 94 92  2  0
 97 98  1  0
 97 72  1  0
 99 97  1  0
M  ISO  4   7 101  10 101  62 100  70 100
M  END
>  <TORSDO>  (54) 
F 19

>  <SCORE>  (54) 
-12.982

>  <name>  (54) 
53

>  <ligand_id>  (54) 
53

>  <original_smiles>  (54) 
[H]C([H])=C1C([H])(Oc2c([H])c([H])c3c(c2[H])C([H])([H])N(C(=O)C([H])(N([H])C(=O)C([H])(N([H])C([H])([H])[H])C([H])([H])[H])C(C([H])([H])[H])(C([H])([H])[H])C([H])([H])[H])C([H])(C(=O)N([H])C2([H])c4c([H])c([H])c([H])c([H])c4C([H])([H])C([H])([H])C2([H])[H])C3([H])[H])C([H])([H])C([H])([H])C([H])([H])C([H])([H])[N+]1([H])C([H])([H])c1c(Cl)c([H])c(C([H])([H])N([H])C(=O)N2C([H])([H])C([H])([H])C([H])([H])C([H])(n3nc(-c4c([H])c([H])c(Oc5c([H])c([H])c(F)c([H])c5F)c([H])c4[H])c(C(=O)N([H])[H])c3N([H])[H])C2([H])[H])c(C([H])([H])[H])c1C([H])([H])[H]

>  <smiles>  (54) 
[H]C([H])=C1C([H])(Oc2c([H])c([H])c3c(c2[H])C([H])([H])N(C(=O)C([H])(N([H])C(=O)C([H])(N([H])C([H])([H])[H])C([H])([H])[H])C(C([H])([H])[H])(C([H])([H])[H])C([H])([H])[H])C([H])(C(=O)N([H])C2([H])c4c([H])c([H])c([H])c([H])c4C([H])([H])C([H])([H])C2([H])[H])C3([H])[H])C([H])([H])C([H])([H])C([H])([H])C([H])([H])[N+]1([H])C([H])([H])c1c(Cl)c([H])c(C([H])([H])N([H])C(=O)N2C([H])([H])C([H])([H])C([H])([H])C([H])(n3nc(-c4c([H])c([H])c(Oc5c([H])c([H])c(F)c([H])c5F)c([H])c4[H])c(C(=O)N([H])[H])c3N([H])[H])C2([H])[H])c(C([H])([H])[H])c1C([H])([H])[H]

$$$$
54:0:0
     RDKit          3D

 94103  0  0  1  0  0  0  0  0999 V2000
  -28.9070  -23.4750   19.7070 C   0  0  0  0  0  0  0  0  0  0  0  0
  -27.8280  -23.7070   22.3800 C   0  0  0  0  0  2  0  0  0  0  0  0
  -27.3990  -24.8040   21.4140 C   0  0  0  0  0  2  0  0  0  0  0  0
  -27.9890  -22.3480   21.6750 C   0  0  0  0  0  2  0  0  0  0  0  0
  -28.4840  -24.9560   20.3550 C   0  0  0  0  0  3  0  0  0  0  0  0
  -28.8400  -22.2500   20.4550 N   0  0  0  0  0  0  0  0  0  0  0  0
  -29.3030  -23.4750   18.5380 O   0  0  0  0  0  0  0  0  0  0  0  0
  -28.4210  -19.6780   20.5410 C   0  0  0  0  0  3  0  0  0  0  0  0
  -30.8650  -18.7720   19.6850 C   0  0  0  0  0  3  0  0  0  0  0  0
  -28.7290  -18.2680   20.5210 C   0  0  0  0  0  0  0  0  0  0  0  0
  -29.2960  -20.7720   20.1980 C   0  0  0  0  0  0  0  0  0  0  0  0
  -29.9640  -17.7070   20.0630 C   0  0  0  0  0  0  0  0  0  0  0  0
  -30.5660  -20.2140   19.7610 C   0  0  0  0  0  0  0  0  0  0  0  0
  -27.6620  -17.3280   21.0580 C   0  0  0  0  0  1  0  0  0  0  0  0
  -31.8540  -21.2860   19.3460 Cl  0  0  0  0  0  0  0  0  0  0  0  0
  -30.9040  -15.1230   19.5040 C   0  0  0  0  0  0  0  0  0  0  0  0
  -30.7100  -12.8140   18.4640 C   0  0  0  0  0  2  0  0  0  0  0  0
  -29.5810  -12.8140   17.4040 C   0  0  0  0  0  2  0  0  0  0  0  0
  -28.2090  -12.5510   18.0580 C   0  0  0  0  0  2  0  0  0  0  0  0
  -27.9910  -13.4060   19.3330 C   0  0  0  0  0  3  0  0  0  0  0  0
  -29.2180  -13.3580   20.2710 C   0  0  0  0  0  2  0  0  0  0  0  0
  -30.3760  -13.8330   19.4980 N   0  0  0  0  0  0  0  0  0  0  0  0
  -32.0070  -15.3010   18.9720 O   0  0  0  0  0  0  0  0  0  0  0  0
  -30.0830  -16.1730   19.9880 N   0  0  0  0  0  0  0  0  0  0  0  0
  -29.2840  -15.7400   20.4260 H   0  0  0  0  0  0  0  0  0  0  0  0
  -25.7920  -13.9060   20.5510 C   0  0  0  0  0  0  0  0  0  0  0  0
  -24.7950  -13.1000   21.0250 C   0  0  0  0  0  0  0  0  0  0  0  0
  -25.2010  -11.7630   20.7330 C   0  0  0  0  0  0  0  0  0  0  0  0
  -26.7530  -13.0590   20.0220 N   0  0  0  0  0  0  0  0  0  0  0  0
  -26.4130  -11.7540   20.1880 N   0  0  0  0  0  0  0  0  0  0  0  0
  -24.4750  -10.4960   20.8860 C   0  0  0  0  0  0  0  0  0  0  0  0
  -24.9290   -9.4860   21.7630 C   0  0  0  0  0  3  0  0  0  0  0  0
  -24.2010   -8.2850   21.9060 C   0  0  0  0  0  3  0  0  0  0  0  0
  -23.0070   -8.0860   21.1730 C   0  0  0  0  0  0  0  0  0  0  0  0
  -22.5730   -9.0850   20.2840 C   0  0  0  0  0  3  0  0  0  0  0  0
  -23.3010  -10.2780   20.1380 C   0  0  0  0  0  3  0  0  0  0  0  0
  -22.2490   -6.9410   21.2300 O   0  0  0  0  0  0  0  0  0  0  0  0
  -22.0870   -6.2440   22.4010 C   0  0  0  0  0  0  0  0  0  0  0  0
  -21.5210   -6.8390   23.5490 C   0  0  0  0  0  3  0  0  0  0  0  0
  -21.3080   -6.0670   24.7100 C   0  0  0  0  0  3  0  0  0  0  0  0
  -21.6480   -4.7020   24.7200 C   0  0  0  0  0  0  0  0  0  0  0  0
  -22.2070   -4.1060   23.5760 C   0  0  0  0  0  3  0  0  0  0  0  0
  -22.4220   -4.8750   22.4180 C   0  0  0  0  0  0  0  0  0  0  0  0
  -22.9400   -4.2920   21.3100 F   0  0  0  0  0  0  0  0  0  0  0  0
  -21.4360   -3.9590   25.8310 F   0  0  0  0  0  0  0  0  0  0  0  0
  -23.4900  -13.5540   21.6120 C   0  0  0  0  0  0  0  0  0  0  0  0
  -22.9250  -12.7720   22.5250 N   0  0  0  0  0  0  0  0  0  0  0  0
  -22.9890  -14.6330   21.3010 O   0  0  0  0  0  0  0  0  0  0  0  0
  -23.3460  -11.8960   22.7980 H   0  0  0  0  0  0  0  0  0  0  0  0
  -22.0580  -13.0540   22.9590 H   0  0  0  0  0  0  0  0  0  0  0  0
  -25.9400  -15.2850   20.4940 N   0  0  0  0  0  0  0  0  0  0  0  0
  -25.1950  -15.9060   20.7910 H   0  0  0  0  0  0  0  0  0  0  0  0
  -26.6610  -15.7590   19.9670 H   0  0  0  0  0  0  0  0  0  0  0  0
  -28.4000  -26.3060   19.5890 O   0  0  0  0  0  0  0  0  0  0  0  0
  -24.5970  -31.7220   22.8880 C   0  0  0  0  0  0  0  0  0  0  0  0
  -27.2960  -27.2210   19.6740 C   0  0  0  0  0  0  0  0  0  0  0  0
  -23.4260  -30.3570   21.2010 C   0  0  0  0  0  3  0  0  0  0  0  0
  -24.9110  -28.8760   19.7160 C   0  0  0  0  0  0  0  0  0  0  0  0
  -25.9680  -30.7070   21.0310 C   0  0  0  0  0  2  0  0  0  0  0  0
  -26.0810  -29.3430   20.3340 C   0  0  0  0  0  0  0  0  0  0  0  0
  -27.2750  -28.5330   20.2920 C   0  0  0  0  0  3  0  0  0  0  0  0
  -26.0990  -26.8450   19.0320 C   0  0  0  0  0  3  0  0  0  0  0  0
  -24.9310  -27.6380   19.0530 C   0  0  0  0  0  3  0  0  0  0  0  0
  -23.6600  -29.7360   19.7980 C   0  0  0  0  0  2  0  0  0  0  0  0
  -24.6840  -30.9490   21.7630 N   0  0  0  0  0  0  0  0  0  0  0  0
  -23.5080  -31.9550   23.4330 O   0  0  0  0  0  0  0  0  0  0  0  0
  -22.7830  -29.2940   22.1270 C   0  0  0  0  0  0  0  0  0  0  0  0
  -21.4490  -29.1450   22.0520 N   0  0  0  0  0  0  0  0  0  0  0  0
  -23.4850  -28.6100   22.8750 O   0  0  0  0  0  0  0  0  0  0  0  0
  -20.9370  -29.7510   21.4280 H   0  0  0  0  0  0  0  0  0  0  0  0
  -18.0720  -28.0170   22.7190 C   0  0  0  0  0  0  0  0  0  0  0  0
  -20.6530  -28.1650   22.7990 C   0  0  0  0  0  3  0  0  0  0  0  0
  -20.6500  -26.7920   22.0890 C   0  0  0  0  0  2  0  0  0  0  0  0
  -19.4600  -26.6050   21.1420 C   0  0  0  0  0  2  0  0  0  0  0  0
  -18.1390  -26.7340   21.9080 C   0  0  0  0  0  2  0  0  0  0  0  0
  -19.2520  -28.6970   23.1230 C   0  0  0  0  0  0  0  0  0  0  0  0
  -19.1320  -29.9020   23.8480 C   0  0  0  0  0  3  0  0  0  0  0  0
  -17.8660  -30.4270   24.1690 C   0  0  0  0  0  3  0  0  0  0  0  0
  -16.7010  -29.7430   23.7790 C   0  0  0  0  0  3  0  0  0  0  0  0
  -16.8060  -28.5390   23.0590 C   0  0  0  0  0  3  0  0  0  0  0  0
  -25.8620  -32.3670   23.5330 C   0  0  0  0  0  3  0  0  0  0  0  0
  -25.4820  -33.6980   24.0330 N   0  0  0  0  0  0  0  0  0  0  0  0
  -25.7060  -34.8490   23.3870 C   0  0  0  0  0  0  0  0  0  0  0  0
  -26.3240  -34.9060   22.3200 O   0  0  0  0  0  0  0  0  0  0  0  0
  -24.9250  -33.7230   24.8740 H   0  0  0  0  0  0  0  0  0  0  0  0
  -23.8580  -36.5550   23.3230 C   0  0  0  0  0  1  0  0  0  0  0  0
  -25.1630  -36.1440   24.0240 C   0  0  0  0  0  3  0  0  0  0  0  0
  -27.2750  -37.0760   24.8580 C   0  0  0  0  0  1  0  0  0  0  0  0
  -26.1220  -37.2690   23.9840 N   0  0  0  0  0  0  0  0  0  0  0  0
  -25.6680  -38.1400   24.2470 H   0  0  0  0  0  0  0  0  0  0  0  0
  -26.4750  -31.4980   24.7000 C   0  0  1  0  0  0  0  0  0  0  0  0
  -25.4400  -31.0780   25.7720 C   0  0  0  0  0  1  0  0  0  0  0  0
  -27.1230  -30.2100   24.1420 C   0  0  0  0  0  1  0  0  0  0  0  0
  -27.6020  -32.2870   25.4050 C   0  0  0  0  0  1  0  0  0  0  0  0
  1  5  1  0
  1  6  1  0
  3  2  1  0
  4  2  1  0
  5 54  1  0
  5  3  1  0
  6  4  1  0
  7  1  2  0
  9 13  2  0
  9 12  1  0
 10  8  1  0
 10 14  1  0
 11  6  1  0
 11  8  2  0
 12 10  2  0
 13 11  1  0
 15 13  1  0
 16 24  1  0
 17 22  1  0
 18 19  1  0
 18 17  1  0
 20 19  1  0
 20 29  1  0
 20 21  1  0
 22 16  1  0
 22 21  1  0
 23 16  2  0
 24 12  1  0
 24 25  1  0
 26 27  2  0
 27 46  1  0
 28 31  1  0
 28 27  1  0
 29 30  1  0
 29 26  1  0
 30 28  2  0
 31 32  1  0
 32 33  2  0
 34 37  1  0
 34 33  1  0
 35 34  2  0
 36 35  1  0
 36 31  2  0
 37 38  1  0
 38 43  2  0
 38 39  1  0
 39 40  2  0
 40 41  1  0
 41 45  1  0
 42 41  2  0
 43 42  1  0
 44 43  1  0
 46 47  1  0
 47 49  1  0
 47 50  1  0
 48 46  2  0
 51 26  1  0
 51 52  1  0
 53 51  1  0
 54 56  1  0
 55 66  2  0
 56 61  1  0
 57 65  1  0
 57 67  1  0
 58 64  1  0
 58 60  1  0
 59 65  1  0
 60 59  1  0
 61 60  2  0
 62 63  1  0
 62 56  2  0
 63 58  2  0
 64 57  1  0
 65 55  1  0
 67 69  2  0
 68 67  1  0
 70 68  1  0
 71 80  2  0
 71 76  1  0
 72 68  1  0
 72 76  1  0
 73 72  1  0
 74 75  1  0
 74 73  1  0
 75 71  1  0
 76 77  2  0
 77 78  1  0
 79 78  2  0
 80 79  1  0
 81 55  1  0
 81 82  1  0
 81 91  1  0
 82 85  1  0
 83 87  1  0
 83 82  1  0
 84 83  2  0
 87 86  1  0
 89 87  1  0
 89 90  1  0
 89 88  1  0
 91 94  1  1
 91 92  1  0
 93 91  1  0
M  ISO  4   5 101  16 100  24 100  54 101
M  END
>  <TORSDO>  (55) 
F 17

>  <SCORE>  (55) 
-11.679

>  <name>  (55) 
54

>  <ligand_id>  (55) 
54

>  <original_smiles>  (55) 
[H]c1c([H])c([H])c2c(c1[H])C([H])([H])C([H])([H])C([H])([H])C2([H])N([H])C(=O)C1([H])N(C(=O)C([H])(N([H])C(=O)C([H])(N([H])C([H])([H])[H])C([H])([H])[H])C(C([H])([H])[H])(C([H])([H])[H])C([H])([H])[H])C([H])([H])c2c([H])c(OC3([H])C(=O)N(c4c([H])c(C([H])([H])[H])c(N([H])C(=O)N5C([H])([H])C([H])([H])C([H])([H])C([H])(n6nc(-c7c([H])c([H])c(Oc8c([H])c([H])c(F)c([H])c8F)c([H])c7[H])c(C(=O)N([H])[H])c6N([H])[H])C5([H])[H])c([H])c4Cl)C([H])([H])C([H])([H])C3([H])[H])c([H])c([H])c2C1([H])[H]

>  <smiles>  (55) 
[H]c1c([H])c([H])c2c(c1[H])C([H])([H])C([H])([H])C([H])([H])C2([H])N([H])C(=O)C1([H])N(C(=O)C([H])(N([H])C(=O)C([H])(N([H])C([H])([H])[H])C([H])([H])[H])C(C([H])([H])[H])(C([H])([H])[H])C([H])([H])[H])C([H])([H])c2c([H])c(OC3([H])C(=O)N(c4c([H])c(C([H])([H])[H])c(N([H])C(=O)N5C([H])([H])C([H])([H])C([H])([H])C([H])(n6nc(-c7c([H])c([H])c(Oc8c([H])c([H])c(F)c([H])c8F)c([H])c7[H])c(C(=O)N([H])[H])c6N([H])[H])C5([H])[H])c([H])c4Cl)C([H])([H])C([H])([H])C3([H])[H])c([H])c([H])c2C1([H])[H]

$$$$
55:0:0
     RDKit          3D

104113  0  0  1  0  0  0  0  0999 V2000
  -30.4440  -19.0500   20.5560 C   0  0  0  0  0  3  0  0  0  0  0  0
  -29.8360  -18.3850   19.4800 C   0  0  0  0  0  0  0  0  0  0  0  0
  -30.3180  -20.4440   20.7370 C   0  0  0  0  0  0  0  0  0  0  0  0
  -29.1490  -19.1200   18.4950 C   0  0  0  0  0  0  0  0  0  0  0  0
  -28.9040  -20.4950   18.7080 C   0  0  0  0  0  0  0  0  0  0  0  0
  -29.5240  -21.1790   19.8010 C   0  0  0  0  0  0  0  0  0  0  0  0
  -28.7000  -18.4400   17.2010 C   0  0  0  0  0  1  0  0  0  0  0  0
  -27.9450  -21.1990   17.7480 C   0  0  0  0  0  1  0  0  0  0  0  0
  -29.9080  -16.8720   19.4000 C   0  0  0  0  0  2  0  0  0  0  0  0
  -30.5520  -15.5000   21.3190 C   0  0  0  0  0  0  0  0  0  0  0  0
  -30.8050  -13.0890   21.4430 C   0  0  0  0  0  2  0  0  0  0  0  0
  -30.2590  -12.5520   20.1010 C   0  0  0  0  0  2  0  0  0  0  0  0
  -28.7390  -12.2880   20.1900 C   0  0  0  0  0  2  0  0  0  0  0  0
  -27.9550  -13.4900   20.7880 C   0  0  0  0  0  3  0  0  0  0  0  0
  -28.6490  -14.0500   22.0560 C   0  0  0  0  0  2  0  0  0  0  0  0
  -30.0650  -14.3160   21.7460 N   0  0  0  0  0  0  0  0  0  0  0  0
  -31.7500  -15.7700   21.1960 O   0  0  0  0  0  0  0  0  0  0  0  0
  -29.6370  -16.2130   20.6720 N   0  0  0  0  0  0  0  0  0  0  0  0
  -28.6820  -15.9350   20.8330 H   0  0  0  0  0  0  0  0  0  0  0  0
  -25.4520  -13.9900   21.1250 C   0  0  0  0  0  0  0  0  0  0  0  0
  -24.3720  -13.1660   21.2930 C   0  0  0  0  0  0  0  0  0  0  0  0
  -24.8890  -11.8350   21.2980 C   0  0  0  0  0  0  0  0  0  0  0  0
  -26.5570  -13.1550   21.0360 N   0  0  0  0  0  0  0  0  0  0  0  0
  -26.2110  -11.8550   21.1990 N   0  0  0  0  0  0  0  0  0  0  0  0
  -24.2020  -10.5380   21.3270 C   0  0  0  0  0  0  0  0  0  0  0  0
  -24.4420   -9.5990   22.3570 C   0  0  0  0  0  3  0  0  0  0  0  0
  -23.7540   -8.3690   22.3780 C   0  0  0  0  0  3  0  0  0  0  0  0
  -22.8150   -8.0630   21.3640 C   0  0  0  0  0  0  0  0  0  0  0  0
  -22.6000   -8.9870   20.3270 C   0  0  0  0  0  3  0  0  0  0  0  0
  -23.2870  -10.2110   20.3050 C   0  0  0  0  0  3  0  0  0  0  0  0
  -22.1200   -6.8810   21.2860 O   0  0  0  0  0  0  0  0  0  0  0  0
  -21.7140   -6.2100   22.4100 C   0  0  0  0  0  0  0  0  0  0  0  0
  -20.8650   -6.8060   23.3690 C   0  0  0  0  0  3  0  0  0  0  0  0
  -20.4170   -6.0560   24.4740 C   0  0  0  0  0  3  0  0  0  0  0  0
  -20.8030   -4.7110   24.6170 C   0  0  0  0  0  0  0  0  0  0  0  0
  -21.6470   -4.1140   23.6630 C   0  0  0  0  0  3  0  0  0  0  0  0
  -22.0950   -4.8620   22.5580 C   0  0  0  0  0  0  0  0  0  0  0  0
  -22.8880   -4.2760   21.6290 F   0  0  0  0  0  0  0  0  0  0  0  0
  -20.3670   -3.9840   25.6740 F   0  0  0  0  0  0  0  0  0  0  0  0
  -22.9300  -13.5780   21.3520 C   0  0  0  0  0  0  0  0  0  0  0  0
  -22.1070  -12.8120   22.0600 N   0  0  0  0  0  0  0  0  0  0  0  0
  -22.5360  -14.6080   20.8080 O   0  0  0  0  0  0  0  0  0  0  0  0
  -22.4390  -11.9760   22.5170 H   0  0  0  0  0  0  0  0  0  0  0  0
  -21.1290  -13.0570   22.1410 H   0  0  0  0  0  0  0  0  0  0  0  0
  -25.5820  -15.3740   21.0180 N   0  0  0  0  0  0  0  0  0  0  0  0
  -24.7770  -15.9890   20.9910 H   0  0  0  0  0  0  0  0  0  0  0  0
  -26.4470  -15.8730   20.8570 H   0  0  0  0  0  0  0  0  0  0  0  0
  -31.0670  -21.0980   21.9170 C   0  0  0  0  0  2  0  0  0  0  0  0
  -29.4530  -19.1100   25.8590 C   0  0  0  0  0  2  0  0  0  0  0  0
  -28.9470  -20.5580   25.8830 C   0  0  0  0  0  2  0  0  0  0  0  0
  -29.9020  -18.6240   24.4760 C   0  0  0  0  0  2  0  0  0  0  0  0
  -30.0870  -21.5670   25.6680 C   0  0  0  0  0  2  0  0  0  0  0  0
  -31.0270  -19.4500   23.8170 C   0  0  0  0  0  2  0  0  0  0  0  0
  -30.4440  -21.8860   24.1950 C   0  0  0  0  0  2  0  0  0  0  0  0
  -30.5050  -20.7260   23.2540 N   0  0  1  0  0  4  0  0  0  0  0  0
  -29.5500  -20.5030   23.0340 H   0  0  0  0  0  0  0  0  0  0  0  0
  -29.3170  -22.6910   19.9360 C   0  0  0  0  0  2  0  0  0  0  0  0
  -29.4000  -23.3800   18.6270 N   0  0  0  0  0  4  0  0  0  0  0  0
  -28.6880  -22.9660   18.0440 H   0  0  0  0  0  0  0  0  0  0  0  0
  -30.2950  -23.1790   18.2100 H   0  0  0  0  0  0  0  0  0  0  0  0
  -29.1950  -24.8420   18.7300 C   0  0  0  0  0  2  0  0  0  0  0  0
  -28.8560  -25.5490   17.3970 C   0  0  0  0  0  2  0  0  0  0  0  0
  -27.4060  -26.0760   17.3590 C   0  0  0  0  0  2  0  0  0  0  0  0
  -27.4080  -27.4990   17.2620 O   0  0  0  0  0  0  0  0  0  0  0  0
  -25.1570  -29.3700   23.7200 C   0  0  0  0  0  0  0  0  0  0  0  0
  -26.4300  -28.1360   17.9910 C   0  0  0  0  0  0  0  0  0  0  0  0
  -23.5400  -29.7370   21.8770 C   0  0  0  0  0  3  0  0  0  0  0  0
  -24.4750  -29.4770   19.5210 C   0  0  0  0  0  0  0  0  0  0  0  0
  -26.0600  -29.7880   21.4360 C   0  0  0  0  0  2  0  0  0  0  0  0
  -25.7600  -29.2780   20.0430 C   0  0  0  0  0  0  0  0  0  0  0  0
  -26.7410  -28.6170   19.2780 C   0  0  0  0  0  3  0  0  0  0  0  0
  -25.1320  -28.3370   17.4720 C   0  0  0  0  0  3  0  0  0  0  0  0
  -24.1550  -29.0090   18.2340 C   0  0  0  0  0  3  0  0  0  0  0  0
  -23.4900  -30.2140   20.4020 C   0  0  0  0  0  2  0  0  0  0  0  0
  -24.9420  -29.6000   22.3920 N   0  0  0  0  0  0  0  0  0  0  0  0
  -24.2140  -29.3220   24.5200 O   0  0  0  0  0  0  0  0  0  0  0  0
  -22.7070  -28.4400   22.0120 C   0  0  0  0  0  0  0  0  0  0  0  0
  -21.3750  -28.5710   21.9000 N   0  0  0  0  0  0  0  0  0  0  0  0
  -23.2610  -27.3510   22.1810 O   0  0  0  0  0  0  0  0  0  0  0  0
  -21.0000  -29.5000   21.7740 H   0  0  0  0  0  0  0  0  0  0  0  0
  -17.8600  -27.7990   21.5550 C   0  0  0  0  0  0  0  0  0  0  0  0
  -20.3960  -27.4850   21.9540 C   0  0  0  0  0  3  0  0  0  0  0  0
  -20.3990  -26.6690   20.6400 C   0  0  0  0  0  2  0  0  0  0  0  0
  -19.3650  -27.1640   19.6240 C   0  0  0  0  0  2  0  0  0  0  0  0
  -17.9520  -27.0960   20.2110 C   0  0  0  0  0  2  0  0  0  0  0  0
  -19.0100  -27.9940   22.3670 C   0  0  0  0  0  0  0  0  0  0  0  0
  -18.8720  -28.6820   23.5930 C   0  0  0  0  0  3  0  0  0  0  0  0
  -17.6190  -29.1680   24.0100 C   0  0  0  0  0  3  0  0  0  0  0  0
  -16.4830  -28.9570   23.2100 C   0  0  0  0  0  3  0  0  0  0  0  0
  -16.6040  -28.2720   21.9880 C   0  0  0  0  0  3  0  0  0  0  0  0
  -26.5940  -29.1870   24.3000 C   0  0  0  0  0  3  0  0  0  0  0  0
  -26.6770  -29.9750   25.5380 N   0  0  0  0  0  0  0  0  0  0  0  0
  -27.3520  -31.1260   25.6620 C   0  0  0  0  0  0  0  0  0  0  0  0
  -28.0350  -31.6020   24.7530 O   0  0  0  0  0  0  0  0  0  0  0  0
  -26.0900  -29.6730   26.3030 H   0  0  0  0  0  0  0  0  0  0  0  0
  -26.3260  -33.0820   26.8680 C   0  0  0  0  0  1  0  0  0  0  0  0
  -27.2540  -31.8650   27.0110 C   0  0  0  0  0  3  0  0  0  0  0  0
  -29.4130  -31.1970   27.9730 C   0  0  0  0  0  1  0  0  0  0  0  0
  -28.5660  -32.3020   27.5360 N   0  0  0  0  0  0  0  0  0  0  0  0
  -28.4450  -32.9410   28.3170 H   0  0  0  0  0  0  0  0  0  0  0  0
  -26.9680  -27.6790   24.5690 C   0  0  1  0  0  0  0  0  0  0  0  0
  -25.9220  -26.9210   25.4210 C   0  0  0  0  0  1  0  0  0  0  0  0
  -27.1380  -26.9120   23.2360 C   0  0  0  0  0  1  0  0  0  0  0  0
  -28.3290  -27.6030   25.3030 C   0  0  0  0  0  1  0  0  0  0  0  0
  1  3  1  0
  2  1  2  0
  3 48  1  0
  4  5  2  0
  4  2  1  0
  5  6  1  0
  6 57  1  0
  6  3  2  0
  7  4  1  0
  8  5  1  0
  9  2  1  0
  9 18  1  0
 10 16  1  0
 11 16  1  0
 12 13  1  0
 12 11  1  0
 14 13  1  0
 14 23  1  0
 14 15  1  0
 16 15  1  0
 17 10  2  0
 18 19  1  0
 18 10  1  0
 20 21  2  0
 21 22  1  0
 21 40  1  0
 22 25  1  0
 23 20  1  0
 23 24  1  0
 24 22  2  0
 25 26  1  0
 26 27  2  0
 28 27  1  0
 29 28  2  0
 30 29  1  0
 30 25  2  0
 31 28  1  0
 31 32  1  0
 32 37  2  0
 32 33  1  0
 33 34  2  0
 34 35  1  0
 35 39  1  0
 36 35  2  0
 37 36  1  0
 38 37  1  0
 40 41  1  0
 41 44  1  0
 41 43  1  0
 42 40  2  0
 45 20  1  0
 46 45  1  0
 47 45  1  0
 48 55  1  0
 49 50  1  0
 51 49  1  0
 52 50  1  0
 53 51  1  0
 54 52  1  0
 55 53  1  0
 55 54  1  0
 55 56  1  6
 58 61  1  0
 58 57  1  0
 59 58  1  0
 60 58  1  0
 62 61  1  0
 63 62  1  0
 64 63  1  0
 64 66  1  0
 65 76  2  0
 66 71  1  0
 67 77  1  0
 67 75  1  0
 68 70  1  0
 68 74  1  0
 69 75  1  0
 70 69  1  0
 71 70  2  0
 72 66  2  0
 72 73  1  0
 73 68  2  0
 74 67  1  0
 75 65  1  0
 77 79  2  0
 78 77  1  0
 80 78  1  0
 81 90  2  0
 81 86  1  0
 82 78  1  0
 82 86  1  0
 83 82  1  0
 84 85  1  0
 84 83  1  0
 85 81  1  0
 86 87  2  0
 87 88  1  0
 89 88  2  0
 90 89  1  0
 91 65  1  0
 91101  1  0
 91 92  1  0
 92 93  1  0
 92 95  1  0
 93 97  1  0
 94 93  2  0
 97 96  1  0
 97 99  1  0
 99 98  1  0
 99100  1  0
101104  1  1
101102  1  0
103101  1  0
M  ISO  4  10 100  18 100  63 101  64 101
M  END
>  <TORSDO>  (56) 
F 24

>  <SCORE>  (56) 
-1.928

>  <name>  (56) 
55

>  <ligand_id>  (56) 
55

>  <original_smiles>  (56) 
[H]c1c([H])c([H])c2c(c1[H])C([H])([H])C([H])([H])C([H])([H])C2([H])N([H])C(=O)C1([H])N(C(=O)C([H])(N([H])C(=O)C([H])(N([H])C([H])([H])[H])C([H])([H])[H])C(C([H])([H])[H])(C([H])([H])[H])C([H])([H])[H])C([H])([H])c2c([H])c(OC([H])([H])C([H])([H])C([H])([H])[N+]([H])([H])C([H])([H])c3c(C([H])([H])[H])c(C([H])([H])[H])c(C([H])([H])N([H])C(=O)N4C([H])([H])C([H])([H])C([H])([H])C([H])(n5nc(-c6c([H])c([H])c(Oc7c([H])c([H])c(F)c([H])c7F)c([H])c6[H])c(C(=O)N([H])[H])c5N([H])[H])C4([H])[H])c([H])c3C([H])([H])[N+]3([H])C([H])([H])C([H])([H])C([H])([H])C([H])([H])C([H])([H])C3([H])[H])c([H])c([H])c2C1([H])[H]

>  <smiles>  (56) 
[H]c1c([H])c([H])c2c(c1[H])C([H])([H])C([H])([H])C([H])([H])C2([H])N([H])C(=O)C1([H])N(C(=O)C([H])(N([H])C(=O)C([H])(N([H])C([H])([H])[H])C([H])([H])[H])C(C([H])([H])[H])(C([H])([H])[H])C([H])([H])[H])C([H])([H])c2c([H])c(OC([H])([H])C([H])([H])C([H])([H])[N+]([H])([H])C([H])([H])c3c(C([H])([H])[H])c(C([H])([H])[H])c(C([H])([H])N([H])C(=O)N4C([H])([H])C([H])([H])C([H])([H])C([H])(n5nc(-c6c([H])c([H])c(Oc7c([H])c([H])c(F)c([H])c7F)c([H])c6[H])c(C(=O)N([H])[H])c5N([H])[H])C4([H])[H])c([H])c3C([H])([H])[N+]3([H])C([H])([H])C([H])([H])C([H])([H])C([H])([H])C([H])([H])C3([H])[H])c([H])c([H])c2C1([H])[H]

$$$$
56:0:0
     RDKit          3D

 96105  0  0  1  0  0  0  0  0999 V2000
  -28.6650  -23.1740   21.4500 C   0  0  0  0  0  0  0  0  0  0  0  0
  -27.6830  -22.9460   22.3470 C   0  0  0  0  0  2  0  0  0  0  0  0
  -29.2240  -24.5940   21.2230 C   0  0  0  0  0  2  0  0  0  0  0  0
  -30.0400  -23.6670   18.6840 C   0  0  0  0  0  2  0  0  0  0  0  0
  -29.1560  -24.9310   18.6780 C   0  0  0  0  0  2  0  0  0  0  0  0
  -29.3550  -22.3610   19.1430 C   0  0  0  0  0  2  0  0  0  0  0  0
  -28.5420  -25.3210   20.0340 C   0  0  0  0  0  3  0  0  0  0  0  0
  -29.3200  -22.0650   20.6110 N   0  0  2  0  0  4  0  0  0  0  0  0
  -30.2900  -22.0130   20.8870 H   0  0  0  0  0  0  0  0  0  0  0  0
  -28.5840  -26.7650   20.1600 O   0  0  0  0  0  0  0  0  0  0  0  0
  -24.6330  -31.8700   23.1660 C   0  0  0  0  0  0  0  0  0  0  0  0
  -27.4020  -27.4900   20.0840 C   0  0  0  0  0  0  0  0  0  0  0  0
  -23.4800  -30.4680   21.4880 C   0  0  0  0  0  3  0  0  0  0  0  0
  -24.9830  -28.9800   20.0610 C   0  0  0  0  0  0  0  0  0  0  0  0
  -26.0040  -30.8710   21.3370 C   0  0  0  0  0  2  0  0  0  0  0  0
  -26.1240  -29.5080   20.6770 C   0  0  0  0  0  0  0  0  0  0  0  0
  -27.3340  -28.7730   20.6830 C   0  0  0  0  0  3  0  0  0  0  0  0
  -26.2460  -26.9980   19.4320 C   0  0  0  0  0  3  0  0  0  0  0  0
  -25.0410  -27.7260   19.4330 C   0  0  0  0  0  3  0  0  0  0  0  0
  -23.7220  -29.8140   20.1030 C   0  0  0  0  0  2  0  0  0  0  0  0
  -24.7220  -31.0850   22.0540 N   0  0  0  0  0  0  0  0  0  0  0  0
  -23.5390  -32.1150   23.6920 O   0  0  0  0  0  0  0  0  0  0  0  0
  -22.8320  -29.4220   22.4250 C   0  0  0  0  0  0  0  0  0  0  0  0
  -21.5040  -29.2550   22.3100 N   0  0  0  0  0  0  0  0  0  0  0  0
  -23.5220  -28.7660   23.2110 O   0  0  0  0  0  0  0  0  0  0  0  0
  -21.0100  -29.8360   21.6490 H   0  0  0  0  0  0  0  0  0  0  0  0
  -18.1230  -28.1000   22.8480 C   0  0  0  0  0  0  0  0  0  0  0  0
  -20.6910  -28.2990   23.0620 C   0  0  0  0  0  3  0  0  0  0  0  0
  -20.7500  -26.8930   22.4230 C   0  0  0  0  0  2  0  0  0  0  0  0
  -19.6160  -26.6340   21.4270 C   0  0  0  0  0  2  0  0  0  0  0  0
  -18.2540  -26.7780   22.1120 C   0  0  0  0  0  2  0  0  0  0  0  0
  -19.2670  -28.8220   23.2800 C   0  0  0  0  0  0  0  0  0  0  0  0
  -19.0880  -30.0650   23.9290 C   0  0  0  0  0  3  0  0  0  0  0  0
  -17.7980  -30.5830   24.1490 C   0  0  0  0  0  3  0  0  0  0  0  0
  -16.6700  -29.8560   23.7330 C   0  0  0  0  0  3  0  0  0  0  0  0
  -16.8320  -28.6180   23.0890 C   0  0  0  0  0  3  0  0  0  0  0  0
  -25.8980  -32.5160   23.8130 C   0  0  0  0  0  3  0  0  0  0  0  0
  -25.5610  -33.9060   24.1500 N   0  0  0  0  0  0  0  0  0  0  0  0
  -25.9050  -34.9710   23.4130 C   0  0  0  0  0  0  0  0  0  0  0  0
  -26.6090  -34.8880   22.4020 O   0  0  0  0  0  0  0  0  0  0  0  0
  -24.9400  -34.0440   24.9320 H   0  0  0  0  0  0  0  0  0  0  0  0
  -24.1680  -36.7470   23.0190 C   0  0  0  0  0  1  0  0  0  0  0  0
  -25.3840  -36.3480   23.8700 C   0  0  0  0  0  3  0  0  0  0  0  0
  -27.4760  -37.2480   24.7890 C   0  0  0  0  0  1  0  0  0  0  0  0
  -26.4060  -37.4140   23.8070 N   0  0  0  0  0  0  0  0  0  0  0  0
  -25.9840  -38.3270   23.9510 H   0  0  0  0  0  0  0  0  0  0  0  0
  -26.4100  -31.7420   25.0880 C   0  0  1  0  0  0  0  0  0  0  0  0
  -25.3060  -31.4790   26.1400 C   0  0  0  0  0  1  0  0  0  0  0  0
  -27.0160  -30.3760   24.6910 C   0  0  0  0  0  1  0  0  0  0  0  0
  -27.5410  -32.5460   25.7720 C   0  0  0  0  0  1  0  0  0  0  0  0
  -28.7910  -20.6700   20.9280 C   0  0  0  0  0  2  0  0  0  0  0  0
  -29.2830  -19.2270   18.8650 C   0  0  0  0  0  3  0  0  0  0  0  0
  -29.7910  -18.0910   18.2330 C   0  0  0  0  0  3  0  0  0  0  0  0
  -29.8010  -18.2470   21.0210 C   0  0  0  0  0  3  0  0  0  0  0  0
  -29.3690  -19.3830   20.2630 C   0  0  0  0  0  0  0  0  0  0  0  0
  -30.2800  -17.0040   18.9750 C   0  0  0  0  0  0  0  0  0  0  0  0
  -30.2160  -17.0230   20.4020 C   0  0  0  0  0  0  0  0  0  0  0  0
  -30.7620  -15.8370   18.1460 C   0  0  0  0  0  1  0  0  0  0  0  0
  -31.1330  -14.7350   21.0390 C   0  0  0  0  0  0  0  0  0  0  0  0
  -30.9870  -12.4230   20.1730 C   0  0  0  0  0  2  0  0  0  0  0  0
  -30.1950  -12.4080   18.8480 C   0  0  0  0  0  2  0  0  0  0  0  0
  -28.6670  -12.4280   19.0830 C   0  0  0  0  0  2  0  0  0  0  0  0
  -28.1980  -13.3830   20.2180 C   0  0  0  0  0  3  0  0  0  0  0  0
  -29.1140  -13.2740   21.4550 C   0  0  0  0  0  2  0  0  0  0  0  0
  -30.4940  -13.5290   21.0110 N   0  0  0  0  0  0  0  0  0  0  0  0
  -32.3340  -14.8530   20.7750 O   0  0  0  0  0  0  0  0  0  0  0  0
  -30.3350  -15.8220   21.2090 N   0  0  0  0  0  0  0  0  0  0  0  0
  -29.4930  -15.6020   21.7180 H   0  0  0  0  0  0  0  0  0  0  0  0
  -25.7660  -14.0800   20.6910 C   0  0  0  0  0  0  0  0  0  0  0  0
  -24.6360  -13.3470   20.9400 C   0  0  0  0  0  0  0  0  0  0  0  0
  -25.0470  -11.9790   20.9420 C   0  0  0  0  0  0  0  0  0  0  0  0
  -26.7940  -13.1590   20.5580 N   0  0  0  0  0  0  0  0  0  0  0  0
  -26.3590  -11.8910   20.7710 N   0  0  0  0  0  0  0  0  0  0  0  0
  -24.2590  -10.7430   21.0410 C   0  0  0  0  0  0  0  0  0  0  0  0
  -24.5990   -9.7220   21.9550 C   0  0  0  0  0  3  0  0  0  0  0  0
  -23.8140   -8.5520   22.0450 C   0  0  0  0  0  3  0  0  0  0  0  0
  -22.6760   -8.3950   21.2190 C   0  0  0  0  0  0  0  0  0  0  0  0
  -22.3570   -9.4040   20.2930 C   0  0  0  0  0  3  0  0  0  0  0  0
  -23.1410  -10.5660   20.2020 C   0  0  0  0  0  3  0  0  0  0  0  0
  -21.8720   -7.2810   21.2180 O   0  0  0  0  0  0  0  0  0  0  0  0
  -21.7580   -6.4760   22.3230 C   0  0  0  0  0  0  0  0  0  0  0  0
  -21.3120   -6.9740   23.5660 C   0  0  0  0  0  3  0  0  0  0  0  0
  -21.1430   -6.0980   24.6570 C   0  0  0  0  0  3  0  0  0  0  0  0
  -21.4090   -4.7240   24.5050 C   0  0  0  0  0  0  0  0  0  0  0  0
  -21.8480   -4.2250   23.2660 C   0  0  0  0  0  3  0  0  0  0  0  0
  -22.0180   -5.0980   22.1770 C   0  0  0  0  0  0  0  0  0  0  0  0
  -22.4210   -4.6080   20.9800 F   0  0  0  0  0  0  0  0  0  0  0  0
  -21.2390   -3.8800   25.5500 F   0  0  0  0  0  0  0  0  0  0  0  0
  -23.2370  -13.8750   21.0730 C   0  0  0  0  0  0  0  0  0  0  0  0
  -22.4030  -13.2080   21.8640 N   0  0  0  0  0  0  0  0  0  0  0  0
  -22.8890  -14.9120   20.5110 O   0  0  0  0  0  0  0  0  0  0  0  0
  -22.6950  -12.3690   22.3420 H   0  0  0  0  0  0  0  0  0  0  0  0
  -21.4600  -13.5460   21.9970 H   0  0  0  0  0  0  0  0  0  0  0  0
  -26.0000  -15.4450   20.5480 N   0  0  0  0  0  0  0  0  0  0  0  0
  -25.2560  -16.1320   20.6020 H   0  0  0  0  0  0  0  0  0  0  0  0
  -26.8980  -15.8530   20.3190 H   0  0  0  0  0  0  0  0  0  0  0  0
  1  2  2  0
  3  1  1  0
  4  6  1  0
  5  4  1  0
  5  7  1  0
  6  8  1  0
  7 10  1  0
  7  3  1  0
  8  9  1  1
  8 51  1  0
  8  1  1  0
 11 22  2  0
 12 10  1  0
 12 17  1  0
 13 21  1  0
 13 23  1  0
 14 20  1  0
 14 16  1  0
 15 21  1  0
 16 17  2  0
 16 15  1  0
 18 19  1  0
 18 12  2  0
 19 14  2  0
 20 13  1  0
 21 11  1  0
 23 25  2  0
 24 23  1  0
 26 24  1  0
 27 36  2  0
 27 32  1  0
 28 24  1  0
 28 32  1  0
 29 28  1  0
 30 31  1  0
 30 29  1  0
 31 27  1  0
 32 33  2  0
 33 34  1  0
 35 34  2  0
 36 35  1  0
 37 11  1  0
 37 38  1  0
 37 47  1  0
 38 41  1  0
 39 43  1  0
 39 38  1  0
 40 39  2  0
 43 42  1  0
 45 43  1  0
 45 46  1  0
 45 44  1  0
 47 50  1  1
 47 48  1  0
 49 47  1  0
 52 55  1  0
 53 52  2  0
 53 56  1  0
 55 51  1  0
 55 54  2  0
 56 57  2  0
 57 54  1  0
 57 67  1  0
 58 56  1  0
 59 67  1  0
 60 65  1  0
 61 62  1  0
 61 60  1  0
 63 62  1  0
 63 72  1  0
 63 64  1  0
 65 59  1  0
 65 64  1  0
 66 59  2  0
 67 68  1  0
 69 70  2  0
 70 71  1  0
 70 89  1  0
 71 74  1  0
 72 69  1  0
 72 73  1  0
 73 71  2  0
 74 75  1  0
 75 76  2  0
 77 76  1  0
 78 77  2  0
 79 78  1  0
 79 74  2  0
 80 77  1  0
 80 81  1  0
 81 82  1  0
 82 83  2  0
 84 83  1  0
 84 88  1  0
 85 84  2  0
 86 81  2  0
 86 85  1  0
 87 86  1  0
 89 90  1  0
 90 93  1  0
 90 92  1  0
 91 89  2  0
 94 95  1  0
 94 69  1  0
 96 94  1  0
M  ISO  4   7 101  10 101  59 100  67 100
M  END
>  <TORSDO>  (57) 
F 18

>  <SCORE>  (57) 
-13.460

>  <name>  (57) 
56

>  <ligand_id>  (57) 
56

>  <original_smiles>  (57) 
[H]C([H])=C1C([H])([H])C([H])(Oc2c([H])c([H])c3c(c2[H])C([H])([H])N(C(=O)C([H])(N([H])C(=O)C([H])(N([H])C([H])([H])[H])C([H])([H])[H])C(C([H])([H])[H])(C([H])([H])[H])C([H])([H])[H])C([H])(C(=O)N([H])C2([H])c4c([H])c([H])c([H])c([H])c4C([H])([H])C([H])([H])C2([H])[H])C3([H])[H])C([H])([H])C([H])([H])C([H])([H])[N+]1([H])C([H])([H])c1c([H])c([H])c(C([H])([H])[H])c(N([H])C(=O)N2C([H])([H])C([H])([H])C([H])([H])C([H])(n3nc(-c4c([H])c([H])c(Oc5c([H])c([H])c(F)c([H])c5F)c([H])c4[H])c(C(=O)N([H])[H])c3N([H])[H])C2([H])[H])c1[H]

>  <smiles>  (57) 
[H]C([H])=C1C([H])([H])C([H])(Oc2c([H])c([H])c3c(c2[H])C([H])([H])N(C(=O)C([H])(N([H])C(=O)C([H])(N([H])C([H])([H])[H])C([H])([H])[H])C(C([H])([H])[H])(C([H])([H])[H])C([H])([H])[H])C([H])(C(=O)N([H])C2([H])c4c([H])c([H])c([H])c([H])c4C([H])([H])C([H])([H])C2([H])[H])C3([H])[H])C([H])([H])C([H])([H])C([H])([H])[N+]1([H])C([H])([H])c1c([H])c([H])c(C([H])([H])[H])c(N([H])C(=O)N2C([H])([H])C([H])([H])C([H])([H])C([H])(n3nc(-c4c([H])c([H])c(Oc5c([H])c([H])c(F)c([H])c5F)c([H])c4[H])c(C(=O)N([H])[H])c3N([H])[H])C2([H])[H])c1[H]

$$$$
57:0:0
     RDKit          3D

 96 98  0  0  1  0  0  0  0  0999 V2000
  -26.1950  -21.6760   20.8440 C   0  0  0  0  0  3  0  0  0  0  0  0
  -27.2920  -20.7500   20.6850 C   0  0  0  0  0  0  0  0  0  0  0  0
  -26.1980  -23.0570   21.2660 C   0  0  0  0  0  0  0  0  0  0  0  0
  -28.5730  -22.6740   21.3680 C   0  0  0  0  0  0  0  0  0  0  0  0
  -28.6570  -21.0710   20.9110 C   0  0  0  0  0  3  0  0  0  0  0  0
  -27.3630  -23.7990   21.6090 C   0  0  0  0  0  3  0  0  0  0  0  0
  -26.9600  -19.3390   20.2240 C   0  0  0  0  0  1  0  0  0  0  0  0
  -24.8490  -23.7580   21.3330 C   0  0  0  0  0  1  0  0  0  0  0  0
  -29.9400  -23.2810   21.5960 C   0  0  0  0  0  1  0  0  0  0  0  0
  -29.9570  -19.6260   20.5780 C   0  0  0  0  0  1  0  0  0  0  0  0
  -31.3620  -16.5550   20.7180 C   0  0  0  0  0  0  0  0  0  0  0  0
  -32.0960  -13.9080   20.3870 C   0  0  0  0  0  2  0  0  0  0  0  0
  -31.5300  -13.0460   19.2010 C   0  0  0  0  0  2  0  0  0  0  0  0
  -30.1050  -12.5620   19.4950 C   0  0  0  0  0  2  0  0  0  0  0  0
  -29.3080  -13.7000   20.1670 C   0  0  0  0  0  3  0  0  0  0  0  0
  -30.0210  -14.3550   21.3640 C   0  0  0  0  0  2  0  0  0  0  0  0
  -31.1610  -15.0860   20.8110 N   0  0  0  0  0  0  0  0  0  0  0  0
  -32.6090  -16.6630   20.5680 O   0  0  0  0  0  0  0  0  0  0  0  0
  -30.2960  -17.7840   20.6840 N   0  0  0  0  0  0  0  0  0  0  0  0
  -29.3960  -17.3340   20.7880 H   0  0  0  0  0  0  0  0  0  0  0  0
  -26.9150  -14.2070   20.7440 C   0  0  0  0  0  0  0  0  0  0  0  0
  -25.8380  -13.4150   21.0070 C   0  0  0  0  0  0  0  0  0  0  0  0
  -26.3090  -12.0670   20.9460 C   0  0  0  0  0  0  0  0  0  0  0  0
  -27.9600  -13.3380   20.5220 N   0  0  0  0  0  0  0  0  0  0  0  0
  -27.6170  -12.0410   20.7140 N   0  0  0  0  0  0  0  0  0  0  0  0
  -25.5780  -10.7990   21.0300 C   0  0  0  0  0  0  0  0  0  0  0  0
  -25.7780   -9.8950   22.0960 C   0  0  0  0  0  3  0  0  0  0  0  0
  -25.0400   -8.6940   22.1610 C   0  0  0  0  0  3  0  0  0  0  0  0
  -24.0900   -8.3920   21.1570 C   0  0  0  0  0  0  0  0  0  0  0  0
  -23.9110   -9.2850   20.0870 C   0  0  0  0  0  3  0  0  0  0  0  0
  -24.6500  -10.4770   20.0210 C   0  0  0  0  0  3  0  0  0  0  0  0
  -23.3430   -7.2390   21.1240 O   0  0  0  0  0  0  0  0  0  0  0  0
  -22.7670   -6.7240   22.2560 C   0  0  0  0  0  0  0  0  0  0  0  0
  -21.8560   -7.4700   23.0360 C   0  0  0  0  0  3  0  0  0  0  0  0
  -21.2340   -6.8770   24.1530 C   0  0  0  0  0  3  0  0  0  0  0  0
  -21.5130   -5.5380   24.4860 C   0  0  0  0  0  0  0  0  0  0  0  0
  -22.4180   -4.7920   23.7090 C   0  0  0  0  0  3  0  0  0  0  0  0
  -23.0390   -5.3830   22.5940 C   0  0  0  0  0  0  0  0  0  0  0  0
  -23.8920   -4.6540   21.8360 F   0  0  0  0  0  0  0  0  0  0  0  0
  -20.9100   -4.9640   25.5540 F   0  0  0  0  0  0  0  0  0  0  0  0
  -24.4290  -13.8870   21.2020 C   0  0  0  0  0  0  0  0  0  0  0  0
  -23.6590  -13.1860   22.0250 N   0  0  0  0  0  0  0  0  0  0  0  0
  -24.0200  -14.9130   20.6590 O   0  0  0  0  0  0  0  0  0  0  0  0
  -24.0050  -12.3580   22.4860 H   0  0  0  0  0  0  0  0  0  0  0  0
  -22.7100  -13.4830   22.2010 H   0  0  0  0  0  0  0  0  0  0  0  0
  -27.0910  -15.5850   20.6450 N   0  0  0  0  0  0  0  0  0  0  0  0
  -26.3030  -16.2200   20.7060 H   0  0  0  0  0  0  0  0  0  0  0  0
  -27.9260  -16.0170   20.2730 H   0  0  0  0  0  0  0  0  0  0  0  0
  -27.0620  -25.6370   22.2510 C   0  0  0  0  0  1  0  0  0  0  0  0
  -25.7540  -26.8900   22.6020 N   0  0  0  0  0  4  0  0  0  0  0  0
  -24.9290  -26.3340   22.7630 H   0  0  0  0  0  0  0  0  0  0  0  0
  -25.6450  -27.2580   21.6710 H   0  0  0  0  0  0  0  0  0  0  0  0
  -25.2970  -28.4060   23.6100 C   0  0  0  0  0  1  0  0  0  0  0  0
  -23.7820  -30.0210   23.5370 C   0  0  0  0  0 15  0  0  0  0  0  0
  -23.1890  -31.0680   21.3240 C   0  0  0  0  0 15  0  0  0  0  0  0
  -24.3640  -30.6740   19.6920 O   0  0  0  0  0  1  0  0  0  0  0  0
  -25.4490  -31.3120   22.6320 C   0  0  0  0  0  0  0  0  0  0  0  0
  -25.0010  -29.8300   18.5100 C   0  0  0  0  0  3  0  0  0  0  0  0
  -23.6750  -28.8080   21.3030 C   0  0  0  0  0  2  0  0  0  0  0  0
  -24.5490  -27.9090   19.7530 C   0  0  0  0  0  3  0  0  0  0  0  0
  -26.2900  -29.6470   21.0340 C   0  0  0  0  0  2  0  0  0  0  0  0
  -25.8010  -28.7120   19.9560 C   0  0  0  0  0  3  0  0  0  0  0  0
  -26.2370  -29.3110   18.8290 C   0  0  0  0  0  2  0  0  0  0  0  0
  -24.4490  -28.7180   17.7410 C   0  0  0  0  0  2  0  0  0  0  0  0
  -24.2720  -27.5530   18.4520 C   0  0  0  0  0  2  0  0  0  0  0  0
  -23.2280  -28.4780   20.0140 C   0  0  0  0  0  2  0  0  0  0  0  0
  -25.2270  -30.0000   21.7780 N   0  0  0  0  0  2  0  0  0  0  0  0
  -24.5450  -32.0010   23.2290 O   0  0  0  0  0  0  0  0  0  0  0  0
  -22.2310  -28.3810   22.0310 C   0  0  0  0  0  0  0  0  0  0  0  0
  -21.0510  -29.0750   22.1420 N   0  0  0  0  0  0  0  0  0  0  0  0
  -22.4520  -27.6670   22.9690 O   0  0  0  0  0  0  0  0  0  0  0  0
  -20.8480  -29.8910   21.5840 H   0  0  0  0  0  0  0  0  0  0  0  0
  -17.6580  -28.1880   23.5690 C   0  0  0  0  0  0  0  0  0  0  0  0
  -19.9930  -28.4270   22.8640 C   0  0  0  0  0  3  0  0  0  0  0  0
  -20.1840  -26.9190   23.1680 C   0  0  0  0  0  2  0  0  0  0  0  0
  -19.0120  -26.1980   22.6190 C   0  0  0  0  0  2  0  0  0  0  0  0
  -17.7900  -26.6760   23.3750 C   0  0  0  0  0  2  0  0  0  0  0  0
  -18.7610  -29.0670   23.4640 C   0  0  0  0  0  0  0  0  0  0  0  0
  -18.5940  -30.4480   23.7050 C   0  0  0  0  0  3  0  0  0  0  0  0
  -17.3000  -30.9490   23.9700 C   0  0  0  0  0  3  0  0  0  0  0  0
  -16.1960  -30.0740   24.0050 C   0  0  0  0  0  3  0  0  0  0  0  0
  -16.3790  -28.6960   23.8240 C   0  0  0  0  0  3  0  0  0  0  0  0
  -26.7150  -32.0310   23.1290 C   0  0  0  0  0  3  0  0  0  0  0  0
  -26.4300  -33.3200   23.8890 N   0  0  0  0  0  0  0  0  0  0  0  0
  -26.5550  -34.5790   23.4490 C   0  0  0  0  0  0  0  0  0  0  0  0
  -26.9590  -34.8240   22.3130 O   0  0  0  0  0  0  0  0  0  0  0  0
  -26.0510  -33.1940   24.8150 H   0  0  0  0  0  0  0  0  0  0  0  0
  -24.9660  -36.4930   24.0080 C   0  0  0  0  0  1  0  0  0  0  0  0
  -26.2530  -35.7550   24.4180 C   0  0  0  0  0  3  0  0  0  0  0  0
  -28.5590  -36.2180   25.1420 C   0  0  0  0  0  1  0  0  0  0  0  0
  -27.3560  -36.7400   24.5040 N   0  0  0  0  0  0  0  0  0  0  0  0
  -27.0600  -37.5590   25.0280 H   0  0  0  0  0  0  0  0  0  0  0  0
  -27.3990  -31.0840   24.1630 C   0  0  1  0  0  0  0  0  0  0  0  0
  -26.5200  -30.5590   25.3380 C   0  0  0  0  0  1  0  0  0  0  0  0
  -28.0530  -29.9010   23.4530 C   0  0  0  0  0  1  0  0  0  0  0  0
  -28.5900  -31.8470   24.7630 C   0  0  0  0  0  1  0  0  0  0  0  0
  1  3  1  0
  2  1  2  0
  2  5  1  0
  3  8  1  0
  3  6  2  0
  4  9  1  0
  4  6  1  0
  5  4  2  0
  7  2  1  0
 10 19  1  0
 11 17  1  0
 12 17  1  0
 13 14  1  0
 13 12  1  0
 15 14  1  0
 15 24  1  0
 15 16  1  0
 17 16  1  0
 18 11  2  0
 19 11  1  0
 19 20  1  0
 21 22  2  0
 22 41  1  0
 23 22  1  0
 23 26  1  0
 24 25  1  0
 24 21  1  0
 25 23  2  0
 26 27  1  0
 27 28  2  0
 29 28  1  0
 30 29  2  0
 31 30  1  0
 31 26  2  0
 32 29  1  0
 32 33  1  0
 33 38  2  0
 33 34  1  0
 34 35  2  0
 35 36  1  0
 36 40  1  0
 37 36  2  0
 38 37  1  0
 39 38  1  0
 41 42  1  0
 42 45  1  0
 42 44  1  0
 43 41  2  0
 46 47  1  0
 46 21  1  0
 48 46  1  0
 49 50  1  0
 50 51  1  0
 50 53  1  0
 52 50  1  0
 57 68  2  0
 58 63  1  0
 58 56  1  0
 59 69  1  0
 60 62  1  0
 60 66  1  0
 61 67  1  0
 62 61  1  0
 63 62  1  0
 64 65  1  0
 64 58  1  0
 65 60  1  0
 66 59  1  0
 67 57  1  0
 69 70  1  0
 69 71  2  0
 72 70  1  0
 73 82  1  0
 74 70  1  0
 74 75  1  0
 74 78  1  0
 76 75  1  0
 76 77  1  0
 77 73  1  0
 78 73  2  0
 78 79  1  0
 79 80  2  0
 80 81  1  0
 82 81  2  0
 83 57  1  0
 83 84  1  0
 83 93  1  0
 84 87  1  0
 85 84  1  0
 85 89  1  0
 86 85  2  0
 89 88  1  0
 89 91  1  0
 91 92  1  0
 91 90  1  0
 93 96  1  1
 93 94  1  0
 95 93  1  0
M  ISO  4  11 100  19 100  55 101  56 101
M  END
>  <TORSDO>  (58) 
F 22

>  <SCORE>  (58) 
-7.186

>  <name>  (58) 
57

>  <ligand_id>  (58) 
57

>  <original_smiles>  (58) 
[H]c1c([H])c([H])c2c(c1[H])C([H])([H])C([H])([H])C([H])([H])C2([H])N([H])C(=O)C1([H])N(C(=O)C([H])(N([H])C(=O)C([H])(N([H])C([H])([H])[H])C([H])([H])[H])C(C([H])([H])[H])(C([H])([H])[H])C([H])([H])[H])C([H])([H])c2c([H])c(OC([H])([H])C([H])([H])C([H])([H])[N+]([H])([H])C([H])([H])c3c(C([H])([H])[H])c([H])c(C([H])([H])[H])c(C([H])([H])N([H])C(=O)N4C([H])([H])C([H])([H])C([H])([H])C([H])(n5nc(-c6c([H])c([H])c(Oc7c([H])c([H])c(F)c([H])c7F)c([H])c6[H])c(C(=O)N([H])[H])c5N([H])[H])C4([H])[H])c3C([H])([H])[H])c([H])c([H])c2C1([H])[H]

>  <smiles>  (58) 
[H]c1c([H])c([H])c2c(c1[H])C([H])([H])C([H])([H])C([H])([H])C2([H])N([H])C(=O)C1([H])N(C(=O)C([H])(N([H])C(=O)C([H])(N([H])C([H])([H])[H])C([H])([H])[H])C(C([H])([H])[H])(C([H])([H])[H])C([H])([H])[H])C([H])([H])c2c([H])c(OC([H])([H])C([H])([H])C([H])([H])[N+]([H])([H])C([H])([H])c3c(C([H])([H])[H])c([H])c(C([H])([H])[H])c(C([H])([H])N([H])C(=O)N4C([H])([H])C([H])([H])C([H])([H])C([H])(n5nc(-c6c([H])c([H])c(Oc7c([H])c([H])c(F)c([H])c7F)c([H])c6[H])c(C(=O)N([H])[H])c5N([H])[H])C4([H])[H])c3C([H])([H])[H])c([H])c([H])c2C1([H])[H]

$$$$
58:0:0
     RDKit          3D

102111  0  0  1  0  0  0  0  0999 V2000
  -28.3990  -24.8990   17.0110 C   0  0  0  0  0  0  0  0  0  0  0  0
  -28.1060  -25.7300   15.9890 C   0  0  0  0  0  3  0  0  0  0  0  0
  -29.7150  -22.3700   17.0940 C   0  0  0  0  0  2  0  0  0  0  0  0
  -30.4880  -23.7370   16.9570 C   0  0  0  0  0  2  0  0  0  0  0  0
  -28.1480  -22.4540   16.9830 C   0  0  0  0  0  2  0  0  0  0  0  0
  -29.6940  -24.8320   17.7260 C   0  0  0  0  0  3  0  0  0  0  0  0
  -27.5830  -23.7450   17.5010 N   0  0  1  0  0  4  0  0  0  0  0  0
  -26.6970  -23.7820   17.0200 H   0  0  0  0  0  0  0  0  0  0  0  0
  -28.9320  -26.8730   15.5930 C   0  0  0  0  0  3  0  0  0  0  0  0
  -30.2610  -26.8400   15.3780 C   0  0  0  0  0  3  0  0  0  0  0  0
  -32.4630  -27.8090   15.3830 C   0  0  0  0  0  2  0  0  0  0  0  0
  -31.1500  -27.9460   15.1070 C   0  0  0  0  0  3  0  0  0  0  0  0
  -27.1090  -23.7760   18.9500 C   0  0  0  0  0  2  0  0  0  0  0  0
  -27.2590  -22.7570   21.7990 C   0  0  0  0  0  3  0  0  0  0  0  0
  -26.9190  -24.4190   21.7470 C   0  0  0  0  0  3  0  0  0  0  0  0
  -28.2830  -21.7290   21.0470 C   0  0  0  0  0  2  0  0  0  0  0  0
  -28.7970  -23.1060   20.6450 C   0  0  1  0  0  0  0  0  0  0  0  0
  -28.0010  -24.3870   20.1480 C   0  0  1  0  0  0  0  0  0  0  0  0
  -27.4030  -25.7070   20.8790 C   0  0  0  0  0  2  0  0  0  0  0  0
  -30.1690  -23.3450   21.2490 C   0  0  0  0  0  1  0  0  0  0  0  0
  -27.1960  -28.8210   19.1970 Cl  0  0  0  0  0  0  0  0  0  0  0  0
  -29.1910  -19.7990   21.1080 C   0  0  0  0  0 15  0  0  0  0  0  0
  -30.2910  -16.3480   20.5780 C   0  0  0  0  0  0  0  0  0  0  0  0
  -30.7700  -13.6790   19.6790 C   0  0  0  0  0  2  0  0  0  0  0  0
  -30.0450  -12.9730   18.4690 C   0  0  0  0  0  2  0  0  0  0  0  0
  -28.6320  -12.5000   18.8360 C   0  0  0  0  0  2  0  0  0  0  0  0
  -28.0090  -13.5070   19.8170 C   0  0  0  0  0  3  0  0  0  0  0  0
  -28.9160  -13.9860   20.9790 C   0  0  0  0  0  2  0  0  0  0  0  0
  -29.9580  -14.8550   20.3710 N   0  0  0  0  0  0  0  0  0  0  0  0
  -31.5610  -16.2410   20.4970 O   0  0  0  0  0  0  0  0  0  0  0  0
  -29.4000  -17.8230   20.7160 N   0  0  0  0  0  2  0  0  0  0  0  0
  -28.4450  -17.5100   20.6120 H   0  0  0  0  0  0  0  0  0  0  0  0
  -25.6670  -14.0720   20.4810 C   0  0  0  0  0  0  0  0  0  0  0  0
  -24.5800  -13.3240   20.8190 C   0  0  0  0  0  0  0  0  0  0  0  0
  -25.0220  -11.9630   20.8330 C   0  0  0  0  0  0  0  0  0  0  0  0
  -26.6880  -13.1700   20.2810 N   0  0  0  0  0  0  0  0  0  0  0  0
  -26.3240  -11.8940   20.5650 N   0  0  0  0  0  0  0  0  0  0  0  0
  -24.2510  -10.7250   21.0070 C   0  0  0  0  0  0  0  0  0  0  0  0
  -24.6090   -9.7690   21.9800 C   0  0  0  0  0  3  0  0  0  0  0  0
  -23.8370   -8.6010   22.1490 C   0  0  0  0  0  3  0  0  0  0  0  0
  -22.6900   -8.3850   21.3470 C   0  0  0  0  0  0  0  0  0  0  0  0
  -22.3510   -9.3330   20.3650 C   0  0  0  0  0  3  0  0  0  0  0  0
  -23.1230  -10.4930   20.1940 C   0  0  0  0  0  3  0  0  0  0  0  0
  -21.8940   -7.2660   21.4200 O   0  0  0  0  0  0  0  0  0  0  0  0
  -21.7600   -6.5570   22.5850 C   0  0  0  0  0  0  0  0  0  0  0  0
  -21.2890   -7.1570   23.7740 C   0  0  0  0  0  3  0  0  0  0  0  0
  -21.0980   -6.3750   24.9310 C   0  0  0  0  0  3  0  0  0  0  0  0
  -21.3690   -4.9930   24.8990 C   0  0  0  0  0  0  0  0  0  0  0  0
  -21.8310   -4.3930   23.7160 C   0  0  0  0  0  3  0  0  0  0  0  0
  -22.0230   -5.1720   22.5620 C   0  0  0  0  0  0  0  0  0  0  0  0
  -22.4480   -4.5850   21.4170 F   0  0  0  0  0  0  0  0  0  0  0  0
  -21.1780   -4.2400   26.0070 F   0  0  0  0  0  0  0  0  0  0  0  0
  -23.1910  -13.8480   21.0160 C   0  0  0  0  0  0  0  0  0  0  0  0
  -22.4070  -13.2030   21.8690 N   0  0  0  0  0  0  0  0  0  0  0  0
  -22.8110  -14.8680   20.4430 O   0  0  0  0  0  0  0  0  0  0  0  0
  -22.7300  -12.3850   22.3640 H   0  0  0  0  0  0  0  0  0  0  0  0
  -21.4710  -13.5470   22.0390 H   0  0  0  0  0  0  0  0  0  0  0  0
  -25.8570  -15.4370   20.2850 N   0  0  0  0  0  0  0  0  0  0  0  0
  -25.0710  -16.0760   20.3330 H   0  0  0  0  0  0  0  0  0  0  0  0
  -26.6770  -15.8530   19.8720 H   0  0  0  0  0  0  0  0  0  0  0  0
  -30.1440  -26.1570   18.4480 C   0  0  0  0  0  2  0  0  0  0  0  0
  -29.2950  -27.3110   18.8280 O   0  0  0  0  0  0  0  0  0  0  0  0
  -24.5700  -31.7260   22.9690 C   0  0  0  0  0  0  0  0  0  0  0  0
  -27.9480  -27.4380   19.0220 C   0  0  0  0  0  0  0  0  0  0  0  0
  -23.4570  -30.1600   21.3600 C   0  0  0  0  0  3  0  0  0  0  0  0
  -24.8610  -28.0250   20.2140 C   0  0  0  0  0  0  0  0  0  0  0  0
  -25.9640  -30.2090   21.4020 C   0  0  0  0  0  2  0  0  0  0  0  0
  -26.1100  -28.5950   21.0030 C   0  0  0  0  0  0  0  0  0  0  0  0
  -27.5880  -28.1570   20.4970 C   0  0  0  0  0  0  0  0  0  0  0  0
  -26.5370  -26.8930   18.0580 C   0  0  0  0  0  3  0  0  0  0  0  0
  -25.0230  -27.1320   18.8490 C   0  0  0  0  0  3  0  0  0  0  0  0
  -23.6950  -29.1410   20.1490 C   0  0  0  0  0  2  0  0  0  0  0  0
  -24.6840  -30.7740   21.9520 N   0  0  0  0  0  0  0  0  0  0  0  0
  -23.4660  -32.0210   23.4630 O   0  0  0  0  0  0  0  0  0  0  0  0
  -22.7600  -29.3040   22.3860 C   0  0  0  0  0  0  0  0  0  0  0  0
  -21.4500  -29.1060   22.2140 N   0  0  0  0  0  0  0  0  0  0  0  0
  -23.4200  -28.7480   23.2620 O   0  0  0  0  0  0  0  0  0  0  0  0
  -20.9740  -29.5740   21.4530 H   0  0  0  0  0  0  0  0  0  0  0  0
  -18.1680  -27.7030   22.6630 C   0  0  0  0  0  0  0  0  0  0  0  0
  -20.6960  -28.0900   22.9270 C   0  0  0  0  0  3  0  0  0  0  0  0
  -20.8840  -26.7120   22.2550 C   0  0  0  0  0  2  0  0  0  0  0  0
  -19.7920  -26.3930   21.2290 C   0  0  0  0  0  2  0  0  0  0  0  0
  -18.4170  -26.4070   21.9070 C   0  0  0  0  0  2  0  0  0  0  0  0
  -19.2430  -28.5080   23.1160 C   0  0  0  0  0  0  0  0  0  0  0  0
  -18.9680  -29.7290   23.7690 C   0  0  0  0  0  3  0  0  0  0  0  0
  -17.6410  -30.1370   23.9900 C   0  0  0  0  0  3  0  0  0  0  0  0
  -16.5760  -29.3250   23.5640 C   0  0  0  0  0  3  0  0  0  0  0  0
  -16.8400  -28.1100   22.9040 C   0  0  0  0  0  3  0  0  0  0  0  0
  -25.7910  -32.4670   23.6220 C   0  0  0  0  0  3  0  0  0  0  0  0
  -25.3840  -33.8560   23.9840 N   0  0  0  0  0  0  0  0  0  0  0  0
  -25.7110  -34.9790   23.3240 C   0  0  0  0  0  0  0  0  0  0  0  0
  -26.4220  -34.9680   22.3150 O   0  0  0  0  0  0  0  0  0  0  0  0
  -24.7200  -33.9420   24.7390 H   0  0  0  0  0  0  0  0  0  0  0  0
  -23.8800  -36.6970   23.0680 C   0  0  0  0  0  1  0  0  0  0  0  0
  -25.1540  -36.3250   23.8480 C   0  0  0  0  0  3  0  0  0  0  0  0
  -27.2330  -37.2920   24.7230 C   0  0  0  0  0  1  0  0  0  0  0  0
  -26.1260  -37.4440   23.7820 N   0  0  0  0  0  0  0  0  0  0  0  0
  -25.6710  -38.3330   23.9740 H   0  0  0  0  0  0  0  0  0  0  0  0
  -26.3350  -31.7500   24.9340 C   0  0  1  0  0  0  0  0  0  0  0  0
  -25.2310  -31.4450   25.9700 C   0  0  0  0  0  1  0  0  0  0  0  0
  -27.0200  -30.3990   24.6230 C   0  0  0  0  0  1  0  0  0  0  0  0
  -27.4060  -32.6300   25.6280 C   0  0  0  0  0  1  0  0  0  0  0  0
  1  7  1  0
  1  6  1  0
  2  1  2  0
  4  3  1  0
  4  6  1  0
  5  3  1  0
  5  7  1  0
  6 61  1  0
  7 13  1  0
  7  8  1  6
  9  2  1  0
 10  9  2  0
 12 10  1  0
 12 11  2  0
 14 16  1  0
 15 19  1  0
 15 14  1  0
 17 16  1  0
 17 20  1  1
 17 14  1  0
 18 13  1  1
 18 17  1  0
 18 19  1  0
 18 15  1  0
 21 69  1  0
 23 31  1  0
 24 29  1  0
 25 26  1  0
 25 24  1  0
 27 26  1  0
 27 36  1  0
 27 28  1  0
 29 23  1  0
 29 28  1  0
 30 23  2  0
 32 31  1  0
 33 34  2  0
 34 35  1  0
 34 53  1  0
 35 38  1  0
 36 33  1  0
 36 37  1  0
 37 35  2  0
 38 39  1  0
 39 40  2  0
 41 44  1  0
 41 40  1  0
 42 41  2  0
 43 42  1  0
 43 38  2  0
 44 45  1  0
 45 46  1  0
 46 47  2  0
 48 47  1  0
 48 52  1  0
 49 48  2  0
 50 45  2  0
 50 49  1  0
 51 50  1  0
 53 54  1  0
 54 57  1  0
 54 56  1  0
 55 53  2  0
 58 59  1  0
 58 33  1  0
 60 58  1  0
 61 62  1  0
 62 64  1  0
 63 74  2  0
 64 69  1  0
 65 73  1  0
 65 75  1  0
 66 68  1  0
 67 73  1  0
 68 67  1  0
 69 68  2  3
 70 71  1  0
 70 64  2  0
 71 66  2  0
 72 66  1  0
 72 65  1  0
 73 63  1  0
 75 77  2  0
 76 75  1  0
 78 76  1  0
 79 88  2  0
 79 84  1  0
 80 76  1  0
 80 84  1  0
 81 80  1  0
 82 83  1  0
 82 81  1  0
 83 79  1  0
 84 85  2  0
 85 86  1  0
 87 86  2  0
 88 87  1  0
 89 63  1  0
 89 90  1  0
 89 99  1  0
 90 93  1  0
 91 95  1  0
 91 90  1  0
 92 91  2  0
 95 94  1  0
 97 95  1  0
 97 98  1  0
 97 96  1  0
 99102  1  1
 99100  1  0
101 99  1  0
M  ISO  4  23 100  31 100  61 101  62 101
M  END
>  <TORSDO>  (59) 
F 22

>  <SCORE>  (59) 
-12.427

>  <name>  (59) 
58

>  <ligand_id>  (59) 
58

>  <original_smiles>  (59) 
[H]C([H])=C([H])C([H])=C([H])C([H])=C1C([H])(C([H])([H])Oc2c([H])c([H])c3c(c2[H])C([H])([H])N(C(=O)C([H])(N([H])C(=O)C([H])(N([H])C([H])([H])[H])C([H])([H])[H])C(C([H])([H])[H])(C([H])([H])[H])C([H])([H])[H])C([H])(C(=O)N([H])C2([H])c4c([H])c([H])c([H])c([H])c4C([H])([H])C([H])([H])C2([H])[H])C3([H])[H])C([H])([H])C([H])([H])C([H])([H])[N+]1([H])C([H])([H])c1c(Cl)c([H])c([H])c(C([H])([H])N([H])C(=O)N2C([H])([H])C([H])([H])C([H])([H])C([H])(n3nc(-c4c([H])c([H])c(Oc5c([H])c([H])c(F)c([H])c5F)c([H])c4[H])c(C(=O)N([H])[H])c3N([H])[H])C2([H])[H])c1C([H])([H])[H]

>  <smiles>  (59) 
[H]C([H])=C([H])C([H])=C([H])C([H])=C1C([H])(C([H])([H])Oc2c([H])c([H])c3c(c2[H])C([H])([H])N(C(=O)C([H])(N([H])C(=O)C([H])(N([H])C([H])([H])[H])C([H])([H])[H])C(C([H])([H])[H])(C([H])([H])[H])C([H])([H])[H])C([H])(C(=O)N([H])C2([H])c4c([H])c([H])c([H])c([H])c4C([H])([H])C([H])([H])C2([H])[H])C3([H])[H])C([H])([H])C([H])([H])C([H])([H])[N+]1([H])C([H])([H])c1c(Cl)c([H])c([H])c(C([H])([H])N([H])C(=O)N2C([H])([H])C([H])([H])C([H])([H])C([H])(n3nc(-c4c([H])c([H])c(Oc5c([H])c([H])c(F)c([H])c5F)c([H])c4[H])c(C(=O)N([H])[H])c3N([H])[H])C2([H])[H])c1C([H])([H])[H]

$$$$
59:0:0
     RDKit          3D

 93101  0  0  1  0  0  0  0  0999 V2000
  -29.5280  -21.3080   20.8920 C   0  0  0  0  0  2  0  0  0  0  0  0
  -29.9900  -19.8370   18.8250 C   0  0  0  0  0  3  0  0  0  0  0  0
  -29.8550  -18.6300   20.9320 C   0  0  0  0  0  3  0  0  0  0  0  0
  -29.7780  -19.8910   20.2170 C   0  0  0  0  0  0  0  0  0  0  0  0
  -30.2620  -18.6240   18.1650 C   0  0  0  0  0  0  0  0  0  0  0  0
  -30.3630  -17.4030   18.8920 C   0  0  0  0  0  0  0  0  0  0  0  0
  -30.1630  -17.3580   20.3080 C   0  0  0  0  0  0  0  0  0  0  0  0
  -30.4050  -18.6740   16.6430 C   0  0  0  0  0  1  0  0  0  0  0  0
  -30.6310  -16.1220   18.1250 C   0  0  0  0  0  1  0  0  0  0  0  0
  -30.9030  -14.9230   20.9890 C   0  0  0  0  0  0  0  0  0  0  0  0
  -30.8130  -12.5750   20.1550 C   0  0  0  0  0  2  0  0  0  0  0  0
  -30.0190  -12.5460   18.8310 C   0  0  0  0  0  2  0  0  0  0  0  0
  -28.5020  -12.4510   19.1010 C   0  0  0  0  0  2  0  0  0  0  0  0
  -28.0030  -13.3970   20.2290 C   0  0  0  0  0  3  0  0  0  0  0  0
  -28.9390  -13.3700   21.4560 C   0  0  0  0  0  2  0  0  0  0  0  0
  -30.2920  -13.6900   20.9820 N   0  0  0  0  0  0  0  0  0  0  0  0
  -32.1180  -15.0080   20.7920 O   0  0  0  0  0  0  0  0  0  0  0  0
  -30.1040  -16.0580   21.0420 N   0  0  0  0  0  0  0  0  0  0  0  0
  -29.2050  -15.8800   21.4680 H   0  0  0  0  0  0  0  0  0  0  0  0
  -25.5480  -14.0070   20.6870 C   0  0  0  0  0  0  0  0  0  0  0  0
  -24.4500  -13.2410   20.9640 C   0  0  0  0  0  0  0  0  0  0  0  0
  -24.9100  -11.8890   21.0100 C   0  0  0  0  0  0  0  0  0  0  0  0
  -26.6120  -13.1220   20.5840 N   0  0  0  0  0  0  0  0  0  0  0  0
  -26.2250  -11.8460   20.8390 N   0  0  0  0  0  0  0  0  0  0  0  0
  -24.1610  -10.6320   21.1500 C   0  0  0  0  0  0  0  0  0  0  0  0
  -24.4980   -9.6770   22.1350 C   0  0  0  0  0  3  0  0  0  0  0  0
  -23.7500   -8.4850   22.2630 C   0  0  0  0  0  3  0  0  0  0  0  0
  -22.6520   -8.2390   21.4040 C   0  0  0  0  0  0  0  0  0  0  0  0
  -22.3330   -9.1840   20.4100 C   0  0  0  0  0  3  0  0  0  0  0  0
  -23.0820  -10.3670   20.2830 C   0  0  0  0  0  3  0  0  0  0  0  0
  -21.8850   -7.0990   21.4380 O   0  0  0  0  0  0  0  0  0  0  0  0
  -21.7230   -6.3720   22.5890 C   0  0  0  0  0  0  0  0  0  0  0  0
  -21.1640   -6.9390   23.7550 C   0  0  0  0  0  3  0  0  0  0  0  0
  -20.9550   -6.1430   24.8970 C   0  0  0  0  0  3  0  0  0  0  0  0
  -21.2920   -4.7760   24.8730 C   0  0  0  0  0  0  0  0  0  0  0  0
  -21.8420   -4.2060   23.7100 C   0  0  0  0  0  3  0  0  0  0  0  0
  -22.0570   -5.0020   22.5720 C   0  0  0  0  0  0  0  0  0  0  0  0
  -22.5680   -4.4460   21.4480 F   0  0  0  0  0  0  0  0  0  0  0  0
  -21.0830   -4.0060   25.9650 F   0  0  0  0  0  0  0  0  0  0  0  0
  -23.0330  -13.7220   21.0810 C   0  0  0  0  0  0  0  0  0  0  0  0
  -22.2210  -13.0470   21.8840 N   0  0  0  0  0  0  0  0  0  0  0  0
  -22.6520  -14.7350   20.4940 O   0  0  0  0  0  0  0  0  0  0  0  0
  -22.5430  -12.2280   22.3790 H   0  0  0  0  0  0  0  0  0  0  0  0
  -21.2650  -13.3480   22.0020 H   0  0  0  0  0  0  0  0  0  0  0  0
  -25.7300  -15.3710   20.4850 N   0  0  0  0  0  0  0  0  0  0  0  0
  -24.9470  -16.0130   20.4770 H   0  0  0  0  0  0  0  0  0  0  0  0
  -26.5910  -15.7920   20.1610 H   0  0  0  0  0  0  0  0  0  0  0  0
  -29.0400  -22.4760   20.0280 N   0  0  0  0  0  4  0  0  0  0  0  0
  -28.0610  -22.3080   19.8480 H   0  0  0  0  0  0  0  0  0  0  0  0
  -29.5140  -22.4040   19.1420 H   0  0  0  0  0  0  0  0  0  0  0  0
  -29.2130  -23.9290   20.5060 C   0  0  0  0  0  3  0  0  0  0  0  0
  -28.2800  -25.0430   19.8080 C   0  0  0  0  0  3  0  0  0  0  0  0
  -28.4480  -26.5150   20.0520 O   0  0  0  0  0  0  0  0  0  0  0  0
  -24.6610  -31.8840   23.0950 C   0  0  0  0  0  0  0  0  0  0  0  0
  -27.3260  -27.3750   19.9830 C   0  0  0  0  0  0  0  0  0  0  0  0
  -23.4730  -30.4860   21.4480 C   0  0  0  0  0  3  0  0  0  0  0  0
  -24.9400  -28.9780   19.9910 C   0  0  0  0  0  0  0  0  0  0  0  0
  -26.0060  -30.8400   21.2570 C   0  0  0  0  0  2  0  0  0  0  0  0
  -26.1040  -29.4670   20.5950 C   0  0  0  0  0  0  0  0  0  0  0  0
  -27.2950  -28.6740   20.5890 C   0  0  0  0  0  3  0  0  0  0  0  0
  -26.1420  -26.9620   19.3290 C   0  0  0  0  0  3  0  0  0  0  0  0
  -24.9640  -27.7330   19.3450 C   0  0  0  0  0  3  0  0  0  0  0  0
  -23.6880  -29.8300   20.0600 C   0  0  0  0  0  2  0  0  0  0  0  0
  -24.7330  -31.0880   21.9910 N   0  0  0  0  0  0  0  0  0  0  0  0
  -23.5780  -32.1370   23.6400 O   0  0  0  0  0  0  0  0  0  0  0  0
  -22.8280  -29.4520   22.4010 C   0  0  0  0  0  0  0  0  0  0  0  0
  -21.4990  -29.2790   22.3010 N   0  0  0  0  0  0  0  0  0  0  0  0
  -23.5220  -28.8060   23.1910 O   0  0  0  0  0  0  0  0  0  0  0  0
  -20.9950  -29.8420   21.6290 H   0  0  0  0  0  0  0  0  0  0  0  0
  -18.1270  -28.1050   22.8850 C   0  0  0  0  0  0  0  0  0  0  0  0
  -20.6970  -28.3310   23.0750 C   0  0  0  0  0  3  0  0  0  0  0  0
  -20.7650  -26.9180   22.4520 C   0  0  0  0  0  2  0  0  0  0  0  0
  -19.6230  -26.6360   21.4690 C   0  0  0  0  0  2  0  0  0  0  0  0
  -18.2660  -26.7750   22.1630 C   0  0  0  0  0  2  0  0  0  0  0  0
  -19.2690  -28.8420   23.2990 C   0  0  0  0  0  0  0  0  0  0  0  0
  -19.0820  -30.0890   23.9370 C   0  0  0  0  0  3  0  0  0  0  0  0
  -17.7880  -30.5970   24.1630 C   0  0  0  0  0  3  0  0  0  0  0  0
  -16.6640  -29.8550   23.7630 C   0  0  0  0  0  3  0  0  0  0  0  0
  -16.8330  -28.6110   23.1300 C   0  0  0  0  0  3  0  0  0  0  0  0
  -25.9380  -32.5310   23.7150 C   0  0  0  0  0  3  0  0  0  0  0  0
  -26.4820  -31.7440   24.9710 C   0  0  1  0  0  0  0  0  0  0  0  0
  -25.4040  -31.4630   26.0430 C   0  0  0  0  0  1  0  0  0  0  0  0
  -27.0860  -30.3850   24.5460 C   0  0  0  0  0  1  0  0  0  0  0  0
  -27.6260  -32.5450   25.6370 C   0  0  0  0  0  1  0  0  0  0  0  0
  -25.6010  -33.9140   24.0820 N   0  0  0  0  0  0  0  0  0  0  0  0
  -25.9380  -34.9970   23.3680 C   0  0  0  0  0  0  0  0  0  0  0  0
  -26.6330  -34.9360   22.3500 O   0  0  0  0  0  0  0  0  0  0  0  0
  -24.9850  -34.0360   24.8730 H   0  0  0  0  0  0  0  0  0  0  0  0
  -24.2200  -36.7960   23.0060 C   0  0  0  0  0  1  0  0  0  0  0  0
  -25.4230  -36.3620   23.8580 C   0  0  0  0  0  3  0  0  0  0  0  0
  -27.5090  -37.2260   24.8270 C   0  0  0  0  0  1  0  0  0  0  0  0
  -26.4540  -37.4250   23.8360 N   0  0  0  0  0  0  0  0  0  0  0  0
  -26.0340  -38.3370   23.9980 H   0  0  0  0  0  0  0  0  0  0  0  0
  2  4  1  0
  4  1  1  0
  4  3  2  0
  5  2  2  0
  5  6  1  0
  6  7  2  0
  7  3  1  0
  7 18  1  0
  8  5  1  0
  9  6  1  0
 10 18  1  0
 11 16  1  0
 12 13  1  0
 12 11  1  0
 14 13  1  0
 14 23  1  0
 14 15  1  0
 16 10  1  0
 16 15  1  0
 17 10  2  0
 18 19  1  0
 20 21  2  0
 21 22  1  0
 21 40  1  0
 22 25  1  0
 23 20  1  0
 23 24  1  0
 24 22  2  0
 25 26  1  0
 26 27  2  0
 28 31  1  0
 28 27  1  0
 29 28  2  0
 30 29  1  0
 30 25  2  0
 31 32  1  0
 32 33  1  0
 33 34  2  0
 35 34  1  0
 35 39  1  0
 36 35  2  0
 37 32  2  0
 37 36  1  0
 38 37  1  0
 40 41  1  0
 41 44  1  0
 41 43  1  0
 42 40  2  0
 45 20  1  0
 46 45  1  0
 47 45  1  0
 48 51  1  0
 48  1  1  0
 49 48  1  0
 50 48  1  0
 52 53  1  0
 52 51  2  0
 54 65  2  0
 55 53  1  0
 55 60  1  0
 56 64  1  0
 56 66  1  0
 57 63  1  0
 57 59  1  0
 58 64  1  0
 59 58  1  0
 60 59  2  0
 61 62  1  0
 61 55  2  0
 62 57  2  0
 63 56  1  0
 64 54  1  0
 66 68  2  0
 67 66  1  0
 69 67  1  0
 70 79  2  0
 70 75  1  0
 71 67  1  0
 71 75  1  0
 72 71  1  0
 73 74  1  0
 73 72  1  0
 74 70  1  0
 75 76  2  0
 76 77  1  0
 78 77  2  0
 79 78  1  0
 80 54  1  0
 80 85  1  0
 80 81  1  0
 81 84  1  1
 81 82  1  0
 83 81  1  0
 85 88  1  0
 86 90  1  0
 86 85  1  0
 87 86  2  0
 90 89  1  0
 92 90  1  0
 92 93  1  0
 92 91  1  0
M  ISO  4  10 100  18 100  52 101  53 101
M  END
>  <TORSDO>  (60) 
F 20

>  <SCORE>  (60) 
-13.117

>  <name>  (60) 
59

>  <ligand_id>  (60) 
59

>  <original_smiles>  (60) 
[H]c1c([H])c([H])c2c(c1[H])C([H])([H])C([H])([H])C([H])([H])C2([H])N([H])C(=O)C1([H])N(C(=O)C([H])(N([H])C(=O)C([H])(N([H])C([H])([H])[H])C([H])([H])[H])C(C([H])([H])[H])(C([H])([H])[H])C([H])([H])[H])C([H])([H])c2c([H])c(OC([H])([H])C([H])([H])[N+]([H])([H])C([H])([H])c3c([H])c(N([H])C(=O)N4C([H])([H])C([H])([H])C([H])([H])C([H])(n5nc(-c6c([H])c([H])c(Oc7c([H])c([H])c(F)c([H])c7F)c([H])c6[H])c(C(=O)N([H])[H])c5N([H])[H])C4([H])[H])c(C([H])([H])[H])c(C([H])([H])[H])c3[H])c([H])c([H])c2C1([H])[H]

>  <smiles>  (60) 
[H]c1c([H])c([H])c2c(c1[H])C([H])([H])C([H])([H])C([H])([H])C2([H])N([H])C(=O)C1([H])N(C(=O)C([H])(N([H])C(=O)C([H])(N([H])C([H])([H])[H])C([H])([H])[H])C(C([H])([H])[H])(C([H])([H])[H])C([H])([H])[H])C([H])([H])c2c([H])c(OC([H])([H])C([H])([H])[N+]([H])([H])C([H])([H])c3c([H])c(N([H])C(=O)N4C([H])([H])C([H])([H])C([H])([H])C([H])(n5nc(-c6c([H])c([H])c(Oc7c([H])c([H])c(F)c([H])c7F)c([H])c6[H])c(C(=O)N([H])[H])c5N([H])[H])C4([H])[H])c(C([H])([H])[H])c(C([H])([H])[H])c3[H])c([H])c([H])c2C1([H])[H]

$$$$
60:0:0
     RDKit          3D

 96104  0  0  1  0  0  0  0  0999 V2000
  -29.5960  -18.5230   18.1420 C   0  0  0  0  0  3  0  0  0  0  0  0
  -28.5110  -16.9880   20.1990 C   0  0  0  0  0  3  0  0  0  0  0  0
  -28.3640  -18.9010   18.6940 C   0  0  0  0  0  0  0  0  0  0  0  0
  -30.3210  -17.4160   18.6220 C   0  0  0  0  0  0  0  0  0  0  0  0
  -27.7990  -18.1070   19.7180 C   0  0  0  0  0  0  0  0  0  0  0  0
  -29.7860  -16.6340   19.6980 C   0  0  0  0  0  0  0  0  0  0  0  0
  -31.6780  -17.2140   17.9630 C   0  0  0  0  0  1  0  0  0  0  0  0
  -26.4400  -18.4310   20.3180 C   0  0  0  0  0  1  0  0  0  0  0  0
  -30.9430  -14.4700   19.7970 C   0  0  0  0  0  0  0  0  0  0  0  0
  -30.4730  -12.2020   18.9690 C   0  0  0  0  0  2  0  0  0  0  0  0
  -29.4960  -12.2180   17.7810 C   0  0  0  0  0  2  0  0  0  0  0  0
  -28.0450  -12.1650   18.2880 C   0  0  0  0  0  2  0  0  0  0  0  0
  -27.7570  -13.2140   19.3950 C   0  0  0  0  0  3  0  0  0  0  0  0
  -28.8540  -13.2100   20.4810 C   0  0  0  0  0  2  0  0  0  0  0  0
  -30.1590  -13.3610   19.8160 N   0  0  0  0  0  0  0  0  0  0  0  0
  -32.0500  -14.4930   19.2530 O   0  0  0  0  0  0  0  0  0  0  0  0
  -30.4750  -15.5770   20.4000 N   0  0  0  0  0  0  0  0  0  0  0  0
  -25.4700  -13.9700   20.2930 C   0  0  0  0  0  0  0  0  0  0  0  0
  -24.3720  -13.2670   20.7120 C   0  0  0  0  0  0  0  0  0  0  0  0
  -24.7290  -11.8860   20.6170 C   0  0  0  0  0  0  0  0  0  0  0  0
  -26.4280  -13.0230   19.9680 N   0  0  0  0  0  0  0  0  0  0  0  0
  -25.9890  -11.7620   20.2200 N   0  0  0  0  0  0  0  0  0  0  0  0
  -23.9240  -10.6750   20.8270 C   0  0  0  0  0  0  0  0  0  0  0  0
  -24.3440   -9.6520   21.7060 C   0  0  0  0  0  3  0  0  0  0  0  0
  -23.5430   -8.5060   21.9050 C   0  0  0  0  0  3  0  0  0  0  0  0
  -22.3090   -8.3760   21.2260 C   0  0  0  0  0  0  0  0  0  0  0  0
  -21.9070   -9.3880   20.3360 C   0  0  0  0  0  3  0  0  0  0  0  0
  -22.7060  -10.5250   20.1340 C   0  0  0  0  0  3  0  0  0  0  0  0
  -21.4780   -7.2870   21.3370 O   0  0  0  0  0  0  0  0  0  0  0  0
  -21.4900   -6.4830   22.4490 C   0  0  0  0  0  0  0  0  0  0  0  0
  -21.2340   -6.9940   23.7390 C   0  0  0  0  0  3  0  0  0  0  0  0
  -21.1850   -6.1210   24.8450 C   0  0  0  0  0  3  0  0  0  0  0  0
  -21.3850   -4.7390   24.6620 C   0  0  0  0  0  0  0  0  0  0  0  0
  -21.6360   -4.2300   23.3760 C   0  0  0  0  0  3  0  0  0  0  0  0
  -21.6860   -5.0990   22.2730 C   0  0  0  0  0  0  0  0  0  0  0  0
  -21.9080   -4.5980   21.0330 F   0  0  0  0  0  0  0  0  0  0  0  0
  -21.3320   -3.9010   25.7230 F   0  0  0  0  0  0  0  0  0  0  0  0
  -23.0390  -13.8370   21.0940 C   0  0  0  0  0  0  0  0  0  0  0  0
  -22.3420  -13.1970   22.0260 N   0  0  0  0  0  0  0  0  0  0  0  0
  -22.6270  -14.8860   20.5990 O   0  0  0  0  0  0  0  0  0  0  0  0
  -22.6910  -12.3480   22.4460 H   0  0  0  0  0  0  0  0  0  0  0  0
  -21.4490  -13.5640   22.3250 H   0  0  0  0  0  0  0  0  0  0  0  0
  -25.7220  -15.3290   20.1430 N   0  0  0  0  0  0  0  0  0  0  0  0
  -25.0150  -16.0280   20.3360 H   0  0  0  0  0  0  0  0  0  0  0  0
  -26.5980  -15.7280   19.8300 H   0  0  0  0  0  0  0  0  0  0  0  0
  -31.1050  -15.9050   21.6940 C   0  0  0  0  0  2  0  0  0  0  0  0
  -31.2580  -17.4250   21.8860 C   0  0  0  0  0  2  0  0  0  0  0  0
  -31.2100  -17.8400   23.6190 Cl  0  0  0  0  0  0  0  0  0  0  0  0
  -27.6890  -20.1480   18.1350 C   0  0  0  0  0  2  0  0  0  0  0  0
  -28.4090  -21.3980   18.4830 N   0  0  0  0  0  4  0  0  0  0  0  0
  -29.3180  -21.3870   18.0510 H   0  0  0  0  0  0  0  0  0  0  0  0
  -28.5360  -21.4260   19.4810 H   0  0  0  0  0  0  0  0  0  0  0  0
  -27.6640  -22.5960   18.0430 C   0  0  0  0  0  2  0  0  0  0  0  0
  -28.3960  -23.9690   18.1410 C   0  0  0  0  0  2  0  0  0  0  0  0
  -27.2960  -25.0320   17.9990 C   0  0  0  0  0  2  0  0  0  0  0  0
  -27.5590  -26.4390   18.1610 O   0  0  0  0  0  0  0  0  0  0  0  0
  -24.2820  -31.0470   22.5320 C   0  0  0  0  0  0  0  0  0  0  0  0
  -26.4150  -27.1840   18.4230 C   0  0  0  0  0  0  0  0  0  0  0  0
  -22.8400  -29.8250   20.9460 C   0  0  0  0  0  3  0  0  0  0  0  0
  -24.0410  -28.5940   19.0800 C   0  0  0  0  0  0  0  0  0  0  0  0
  -25.2880  -30.3190   20.3710 C   0  0  0  0  0  2  0  0  0  0  0  0
  -25.2830  -29.0570   19.5350 C   0  0  0  0  0  0  0  0  0  0  0  0
  -26.4720  -28.3570   19.2150 C   0  0  0  0  0  3  0  0  0  0  0  0
  -25.1390  -26.7810   17.9370 C   0  0  0  0  0  3  0  0  0  0  0  0
  -23.9640  -27.4530   18.2770 C   0  0  0  0  0  3  0  0  0  0  0  0
  -22.8120  -29.3740   19.4660 C   0  0  0  0  0  2  0  0  0  0  0  0
  -24.1650  -30.4050   21.3360 N   0  0  0  0  0  0  0  0  0  0  0  0
  -23.3050  -31.1930   23.2790 O   0  0  0  0  0  0  0  0  0  0  0  0
  -22.4000  -28.6410   21.8390 C   0  0  0  0  0  0  0  0  0  0  0  0
  -21.0910  -28.3400   21.8290 N   0  0  0  0  0  0  0  0  0  0  0  0
  -23.2260  -28.0080   22.5020 O   0  0  0  0  0  0  0  0  0  0  0  0
  -20.4810  -28.9180   21.2660 H   0  0  0  0  0  0  0  0  0  0  0  0
  -17.9400  -26.6590   22.4020 C   0  0  0  0  0  0  0  0  0  0  0  0
  -20.4500  -27.2530   22.5690 C   0  0  0  0  0  3  0  0  0  0  0  0
  -20.7120  -25.8870   21.8950 C   0  0  0  0  0  2  0  0  0  0  0  0
  -19.6090  -25.4760   20.9140 C   0  0  0  0  0  2  0  0  0  0  0  0
  -18.2580  -25.3900   21.6310 C   0  0  0  0  0  2  0  0  0  0  0  0
  -18.9680  -27.5420   22.8290 C   0  0  0  0  0  0  0  0  0  0  0  0
  -18.6140  -28.7250   23.5130 C   0  0  0  0  0  3  0  0  0  0  0  0
  -17.2650  -29.0320   23.7700 C   0  0  0  0  0  3  0  0  0  0  0  0
  -16.2520  -28.1490   23.3570 C   0  0  0  0  0  3  0  0  0  0  0  0
  -16.5910  -26.9630   22.6810 C   0  0  0  0  0  3  0  0  0  0  0  0
  -25.6420  -31.6520   23.0040 C   0  0  0  0  0  3  0  0  0  0  0  0
  -25.3520  -32.9510   23.6230 N   0  0  0  0  0  0  0  0  0  0  0  0
  -25.6130  -34.1370   23.0560 C   0  0  0  0  0  0  0  0  0  0  0  0
  -26.1990  -34.2480   21.9760 O   0  0  0  0  0  0  0  0  0  0  0  0
  -24.8260  -32.9370   24.4840 H   0  0  0  0  0  0  0  0  0  0  0  0
  -23.8670  -35.9450   23.1600 C   0  0  0  0  0  1  0  0  0  0  0  0
  -25.1510  -35.4000   23.8070 C   0  0  0  0  0  3  0  0  0  0  0  0
  -27.3270  -36.1210   24.6900 C   0  0  0  0  0  1  0  0  0  0  0  0
  -26.1780  -36.4630   23.8530 N   0  0  0  0  0  0  0  0  0  0  0  0
  -25.7810  -37.3340   24.1950 H   0  0  0  0  0  0  0  0  0  0  0  0
  -26.4250  -30.7160   24.0040 C   0  0  1  0  0  0  0  0  0  0  0  0
  -25.5710  -30.2350   25.2010 C   0  0  0  0  0  1  0  0  0  0  0  0
  -26.9650  -29.4630   23.2740 C   0  0  0  0  0  1  0  0  0  0  0  0
  -27.6540  -31.4670   24.5680 C   0  0  0  0  0  1  0  0  0  0  0  0
  1  4  2  0
  1  3  1  0
  3  5  2  0
  4  6  1  0
  5  2  1  0
  5  8  1  0
  6  2  2  0
  6 17  1  0
  7  4  1  0
  9 15  1  0
  9 17  1  0
 10 15  1  0
 11 12  1  0
 11 10  1  0
 13 12  1  0
 13 21  1  0
 13 14  1  0
 15 14  1  0
 16  9  2  0
 17 46  1  0
 18 19  2  0
 19 38  1  0
 20 19  1  0
 20 23  1  0
 21 22  1  0
 21 18  1  0
 22 20  2  0
 23 24  1  0
 24 25  2  0
 26 29  1  0
 26 25  1  0
 27 26  2  0
 28 27  1  0
 28 23  2  0
 29 30  1  0
 30 31  1  0
 31 32  2  0
 33 32  1  0
 33 37  1  0
 34 33  2  0
 35 30  2  0
 35 34  1  0
 36 35  1  0
 38 39  1  0
 39 42  1  0
 39 41  1  0
 40 38  2  0
 43 18  1  0
 43 44  1  0
 45 43  1  0
 46 47  1  0
 47 48  1  0
 49 50  1  0
 49  3  1  0
 50 52  1  0
 51 50  1  0
 53 54  1  0
 53 50  1  0
 55 54  1  0
 55 56  1  0
 56 58  1  0
 57 68  2  0
 58 63  1  0
 59 67  1  0
 59 69  1  0
 60 66  1  0
 60 62  1  0
 61 67  1  0
 62 61  1  0
 63 62  2  0
 64 65  1  0
 64 58  2  0
 65 60  2  0
 66 59  1  0
 67 57  1  0
 69 71  2  0
 70 69  1  0
 72 70  1  0
 73 82  2  0
 73 78  1  0
 74 70  1  0
 74 78  1  0
 75 74  1  0
 76 77  1  0
 76 75  1  0
 77 73  1  0
 78 79  2  0
 79 80  1  0
 81 80  2  0
 82 81  1  0
 83 57  1  0
 83 84  1  0
 83 93  1  0
 84 87  1  0
 85 84  1  0
 85 89  1  0
 86 85  2  0
 89 88  1  0
 89 91  1  0
 91 92  1  0
 91 90  1  0
 93 96  1  1
 93 94  1  0
 95 93  1  0
M  ISO  4   9 100  17 100  55 101  56 101
M  END
>  <TORSDO>  (61) 
F 23

>  <SCORE>  (61) 
-9.638

>  <name>  (61) 
60

>  <ligand_id>  (61) 
60

>  <original_smiles>  (61) 
[H]c1c([H])c([H])c2c(c1[H])C([H])([H])C([H])([H])C([H])([H])C2([H])N([H])C(=O)C1([H])N(C(=O)C([H])(N([H])C(=O)C([H])(N([H])C([H])([H])[H])C([H])([H])[H])C(C([H])([H])[H])(C([H])([H])[H])C([H])([H])[H])C([H])([H])c2c([H])c(OC([H])([H])C([H])([H])C([H])([H])[N+]([H])([H])C([H])([H])c3c([H])c(C([H])([H])[H])c(N(C(=O)N4C([H])([H])C([H])([H])C([H])([H])C([H])(n5nc(-c6c([H])c([H])c(Oc7c([H])c([H])c(F)c([H])c7F)c([H])c6[H])c(C(=O)N([H])[H])c5N([H])[H])C4([H])[H])C([H])([H])C([H])([H])Cl)c([H])c3C([H])([H])[H])c([H])c([H])c2C1([H])[H]

>  <smiles>  (61) 
[H]c1c([H])c([H])c2c(c1[H])C([H])([H])C([H])([H])C([H])([H])C2([H])N([H])C(=O)C1([H])N(C(=O)C([H])(N([H])C(=O)C([H])(N([H])C([H])([H])[H])C([H])([H])[H])C(C([H])([H])[H])(C([H])([H])[H])C([H])([H])[H])C([H])([H])c2c([H])c(OC([H])([H])C([H])([H])C([H])([H])[N+]([H])([H])C([H])([H])c3c([H])c(C([H])([H])[H])c(N(C(=O)N4C([H])([H])C([H])([H])C([H])([H])C([H])(n5nc(-c6c([H])c([H])c(Oc7c([H])c([H])c(F)c([H])c7F)c([H])c6[H])c(C(=O)N([H])[H])c5N([H])[H])C4([H])[H])C([H])([H])C([H])([H])Cl)c([H])c3C([H])([H])[H])c([H])c([H])c2C1([H])[H]

$$$$
61:0:0
     RDKit          3D

 99108  0  0  1  0  0  0  0  0999 V2000
  -30.9510  -23.9030   18.4920 C   0  0  0  0  0  0  0  0  0  0  0  0
  -30.1650  -23.8590   17.3990 C   0  0  0  0  0  3  0  0  0  0  0  0
  -32.3980  -24.3860   18.4940 C   0  0  0  0  0  2  0  0  0  0  0  0
  -32.5350  -25.9060   18.6900 C   0  0  0  0  0  2  0  0  0  0  0  0
  -32.3820  -26.3470   20.1550 C   0  0  0  0  0  2  0  0  0  0  0  0
  -31.0360  -27.0080   20.4950 C   0  0  0  0  0  2  0  0  0  0  0  0
  -29.8250  -24.5920   20.6810 C   0  0  0  0  0  2  0  0  0  0  0  0
  -29.7370  -26.1760   20.3060 C   0  0  0  0  0  3  0  0  0  0  0  0
  -28.6970  -23.4730   17.3390 C   0  0  0  0  0  1  0  0  0  0  0  0
  -30.4520  -23.4700   19.8300 N   0  0  2  0  0  4  0  0  0  0  0  0
  -29.6350  -22.9240   19.6110 H   0  0  0  0  0  0  0  0  0  0  0  0
  -28.9120  -26.7520   19.2230 O   0  0  0  0  0  0  0  0  0  0  0  0
  -25.0180  -31.2860   23.3720 C   0  0  0  0  0  0  0  0  0  0  0  0
  -27.7370  -27.4800   19.5020 C   0  0  0  0  0  0  0  0  0  0  0  0
  -23.7820  -30.0130   21.6540 C   0  0  0  0  0  3  0  0  0  0  0  0
  -25.2260  -28.8110   19.9090 C   0  0  0  0  0  0  0  0  0  0  0  0
  -26.2470  -30.6130   21.2950 C   0  0  0  0  0  2  0  0  0  0  0  0
  -26.3960  -29.3370   20.4730 C   0  0  0  0  0  0  0  0  0  0  0  0
  -27.6520  -28.6830   20.2720 C   0  0  0  0  0  3  0  0  0  0  0  0
  -26.5440  -27.0200   18.9030 C   0  0  0  0  0  3  0  0  0  0  0  0
  -25.2980  -27.6480   19.1260 C   0  0  0  0  0  3  0  0  0  0  0  0
  -23.9230  -29.5430   20.1790 C   0  0  0  0  0  2  0  0  0  0  0  0
  -25.0400  -30.6480   22.1660 N   0  0  0  0  0  0  0  0  0  0  0  0
  -23.9740  -31.3750   24.0360 O   0  0  0  0  0  0  0  0  0  0  0  0
  -23.3050  -28.8150   22.5090 C   0  0  0  0  0  0  0  0  0  0  0  0
  -22.0830  -28.3260   22.2390 N   0  0  0  0  0  0  0  0  0  0  0  0
  -24.0410  -28.3320   23.3740 O   0  0  0  0  0  0  0  0  0  0  0  0
  -21.5410  -28.7800   21.5190 H   0  0  0  0  0  0  0  0  0  0  0  0
  -19.2670  -26.0670   22.0810 C   0  0  0  0  0  0  0  0  0  0  0  0
  -21.4580  -27.1770   22.8910 C   0  0  0  0  0  3  0  0  0  0  0  0
  -22.1550  -25.8590   22.4850 C   0  0  0  0  0  2  0  0  0  0  0  0
  -21.4980  -25.1740   21.2810 C   0  0  0  0  0  2  0  0  0  0  0  0
  -20.0310  -24.8520   21.5810 C   0  0  0  0  0  2  0  0  0  0  0  0
  -19.9400  -27.1650   22.6810 C   0  0  0  0  0  0  0  0  0  0  0  0
  -19.1880  -28.2860   23.0960 C   0  0  0  0  0  3  0  0  0  0  0  0
  -17.7910  -28.3210   22.9200 C   0  0  0  0  0  3  0  0  0  0  0  0
  -17.1280  -27.2260   22.3430 C   0  0  0  0  0  3  0  0  0  0  0  0
  -17.8640  -26.0990   21.9300 C   0  0  0  0  0  3  0  0  0  0  0  0
  -26.2960  -31.9510   23.9670 C   0  0  0  0  0  3  0  0  0  0  0  0
  -25.9510  -33.3290   24.3440 N   0  0  0  0  0  0  0  0  0  0  0  0
  -26.2120  -34.4120   23.5970 C   0  0  0  0  0  0  0  0  0  0  0  0
  -26.8360  -34.3530   22.5330 O   0  0  0  0  0  0  0  0  0  0  0  0
  -25.3830  -33.4400   25.1720 H   0  0  0  0  0  0  0  0  0  0  0  0
  -24.4030  -36.1430   23.3600 C   0  0  0  0  0  1  0  0  0  0  0  0
  -25.6940  -35.7730   24.1060 C   0  0  0  0  0  3  0  0  0  0  0  0
  -27.8270  -36.7250   24.8650 C   0  0  0  0  0  1  0  0  0  0  0  0
  -26.6830  -36.8650   23.9670 N   0  0  0  0  0  0  0  0  0  0  0  0
  -26.2510  -37.7680   24.1410 H   0  0  0  0  0  0  0  0  0  0  0  0
  -26.8820  -31.1690   25.2070 C   0  0  1  0  0  0  0  0  0  0  0  0
  -25.8400  -30.8810   26.3150 C   0  0  0  0  0  1  0  0  0  0  0  0
  -27.4800  -29.8170   24.7600 C   0  0  0  0  0  1  0  0  0  0  0  0
  -28.0410  -31.9750   25.8380 C   0  0  0  0  0  1  0  0  0  0  0  0
  -31.2860  -22.4140   20.5980 C   0  0  0  0  0  2  0  0  0  0  0  0
  -31.9540  -20.1230   19.3960 C   0  0  0  0  0  3  0  0  0  0  0  0
  -32.0460  -18.6780   19.3250 C   0  0  0  0  0  3  0  0  0  0  0  0
  -31.1960  -20.8180   20.3920 C   0  0  0  0  0  0  0  0  0  0  0  0
  -30.5620  -19.9560   21.3500 C   0  0  0  0  0  0  0  0  0  0  0  0
  -30.7320  -18.5160   21.3270 C   0  0  0  0  0  0  0  0  0  0  0  0
  -31.4120  -17.8200   20.2760 C   0  0  0  0  0  0  0  0  0  0  0  0
  -29.6950  -20.5400   22.4710 C   0  0  0  0  0  1  0  0  0  0  0  0
  -30.2390  -17.6840   22.5150 C   0  0  0  0  0  1  0  0  0  0  0  0
  -32.0440  -15.2360   19.8110 C   0  0  0  0  0  0  0  0  0  0  0  0
  -31.8020  -12.8660   18.9760 C   0  0  0  0  0  2  0  0  0  0  0  0
  -30.8220  -12.7880   17.7800 C   0  0  0  0  0  2  0  0  0  0  0  0
  -29.3750  -12.6240   18.2860 C   0  0  0  0  0  2  0  0  0  0  0  0
  -29.0370  -13.6380   19.4080 C   0  0  0  0  0  3  0  0  0  0  0  0
  -30.1330  -13.6990   20.5000 C   0  0  0  0  0  2  0  0  0  0  0  0
  -31.4120  -14.0050   19.8450 N   0  0  0  0  0  0  0  0  0  0  0  0
  -33.1620  -15.3470   19.3090 O   0  0  0  0  0  0  0  0  0  0  0  0
  -31.3110  -16.3250   20.2630 N   0  0  0  0  0  0  0  0  0  0  0  0
  -30.4650  -16.0040   20.7040 H   0  0  0  0  0  0  0  0  0  0  0  0
  -26.7270  -14.3160   20.2950 C   0  0  0  0  0  0  0  0  0  0  0  0
  -25.6480  -13.5820   20.7070 C   0  0  0  0  0  0  0  0  0  0  0  0
  -26.0390  -12.2120   20.6050 C   0  0  0  0  0  0  0  0  0  0  0  0
  -27.7110  -13.3970   19.9710 N   0  0  0  0  0  0  0  0  0  0  0  0
  -27.3060  -12.1230   20.2240 N   0  0  0  0  0  0  0  0  0  0  0  0
  -25.2590  -10.9830   20.8030 C   0  0  0  0  0  0  0  0  0  0  0  0
  -25.5790  -10.0670   21.8310 C   0  0  0  0  0  3  0  0  0  0  0  0
  -24.8140   -8.8960   22.0150 C   0  0  0  0  0  3  0  0  0  0  0  0
  -23.7070   -8.6350   21.1730 C   0  0  0  0  0  0  0  0  0  0  0  0
  -23.4020   -9.5370   20.1350 C   0  0  0  0  0  3  0  0  0  0  0  0
  -24.1700  -10.7000   19.9520 C   0  0  0  0  0  3  0  0  0  0  0  0
  -22.9110   -7.5170   21.2670 O   0  0  0  0  0  0  0  0  0  0  0  0
  -22.4570   -7.0510   22.4760 C   0  0  0  0  0  0  0  0  0  0  0  0
  -21.6950   -7.8580   23.3490 C   0  0  0  0  0  3  0  0  0  0  0  0
  -21.1950   -7.3160   24.5500 C   0  0  0  0  0  3  0  0  0  0  0  0
  -21.4450   -5.9680   24.8710 C   0  0  0  0  0  0  0  0  0  0  0  0
  -22.1990   -5.1620   23.9990 C   0  0  0  0  0  3  0  0  0  0  0  0
  -22.7020   -5.7020   22.8030 C   0  0  0  0  0  0  0  0  0  0  0  0
  -23.4100   -4.9140   21.9560 F   0  0  0  0  0  0  0  0  0  0  0  0
  -20.9510   -5.4460   26.0170 F   0  0  0  0  0  0  0  0  0  0  0  0
  -24.2970  -14.1170   21.0810 C   0  0  0  0  0  0  0  0  0  0  0  0
  -23.6060  -13.4580   22.0040 N   0  0  0  0  0  0  0  0  0  0  0  0
  -23.8600  -15.1510   20.5770 O   0  0  0  0  0  0  0  0  0  0  0  0
  -23.9690  -12.6200   22.4360 H   0  0  0  0  0  0  0  0  0  0  0  0
  -22.7000  -13.8000   22.2900 H   0  0  0  0  0  0  0  0  0  0  0  0
  -26.9460  -15.6800   20.1390 N   0  0  0  0  0  0  0  0  0  0  0  0
  -26.2040  -16.3510   20.2860 H   0  0  0  0  0  0  0  0  0  0  0  0
  -27.7860  -16.0910   19.7530 H   0  0  0  0  0  0  0  0  0  0  0  0
  1  3  1  0
  1 10  1  0
  2  1  2  0
  3  4  1  0
  4  5  1  0
  5  6  1  0
  8 12  1  0
  8  6  1  0
  8  7  1  0
  9  2  1  0
 10 53  1  0
 10  7  1  0
 10 11  1  6
 12 14  1  0
 13 24  2  0
 14 19  1  0
 15 23  1  0
 15 25  1  0
 16 22  1  0
 16 18  1  0
 17 23  1  0
 18 17  1  0
 19 18  2  0
 20 21  1  0
 20 14  2  0
 21 16  2  0
 22 15  1  0
 23 13  1  0
 25 27  2  0
 26 25  1  0
 28 26  1  0
 29 34  1  0
 30 26  1  0
 31 30  1  0
 32 33  1  0
 32 31  1  0
 33 29  1  0
 34 30  1  0
 34 35  2  0
 36 35  1  0
 37 36  2  0
 38 29  2  0
 38 37  1  0
 39 13  1  0
 39 40  1  0
 39 49  1  0
 40 43  1  0
 41 45  1  0
 41 40  1  0
 42 41  2  0
 45 44  1  0
 47 45  1  0
 47 48  1  0
 47 46  1  0
 49 52  1  1
 49 50  1  0
 51 49  1  0
 54 56  1  0
 55 54  2  0
 55 59  1  0
 56 53  1  0
 56 57  2  0
 57 60  1  0
 58 57  1  0
 58 61  1  0
 59 58  2  0
 62 68  1  0
 62 70  1  0
 63 68  1  0
 64 65  1  0
 64 63  1  0
 66 65  1  0
 66 75  1  0
 66 67  1  0
 68 67  1  0
 69 62  2  0
 70 59  1  0
 70 71  1  0
 72 73  2  0
 73 92  1  0
 74 73  1  0
 74 77  1  0
 75 76  1  0
 75 72  1  0
 76 74  2  0
 77 78  1  0
 78 79  2  0
 80 83  1  0
 80 79  1  0
 81 80  2  0
 82 81  1  0
 82 77  2  0
 83 84  1  0
 84 89  2  0
 84 85  1  0
 85 86  2  0
 86 87  1  0
 87 91  1  0
 88 87  2  0
 89 88  1  0
 90 89  1  0
 92 93  1  0
 93 96  1  0
 93 95  1  0
 94 92  2  0
 97 98  1  0
 97 72  1  0
 99 97  1  0
M  ISO  4   8 101  12 101  62 100  70 100
M  END
>  <TORSDO>  (62) 
F 18

>  <SCORE>  (62) 
-10.073

>  <name>  (62) 
61

>  <ligand_id>  (62) 
61

>  <original_smiles>  (62) 
[H]C(=C1C([H])([H])C([H])([H])C([H])([H])C([H])([H])C([H])(Oc2c([H])c([H])c3c(c2[H])C([H])([H])N(C(=O)C([H])(N([H])C(=O)C([H])(N([H])C([H])([H])[H])C([H])([H])[H])C(C([H])([H])[H])(C([H])([H])[H])C([H])([H])[H])C([H])(C(=O)N([H])C2([H])c4c([H])c([H])c([H])c([H])c4C([H])([H])C([H])([H])C2([H])[H])C3([H])[H])C([H])([H])[N+]1([H])C([H])([H])c1c([H])c([H])c(N([H])C(=O)N2C([H])([H])C([H])([H])C([H])([H])C([H])(n3nc(-c4c([H])c([H])c(Oc5c([H])c([H])c(F)c([H])c5F)c([H])c4[H])c(C(=O)N([H])[H])c3N([H])[H])C2([H])[H])c(C([H])([H])[H])c1C([H])([H])[H])C([H])([H])[H]

>  <smiles>  (62) 
[H]C(=C1C([H])([H])C([H])([H])C([H])([H])C([H])([H])C([H])(Oc2c([H])c([H])c3c(c2[H])C([H])([H])N(C(=O)C([H])(N([H])C(=O)C([H])(N([H])C([H])([H])[H])C([H])([H])[H])C(C([H])([H])[H])(C([H])([H])[H])C([H])([H])[H])C([H])(C(=O)N([H])C2([H])c4c([H])c([H])c([H])c([H])c4C([H])([H])C([H])([H])C2([H])[H])C3([H])[H])C([H])([H])[N+]1([H])C([H])([H])c1c([H])c([H])c(N([H])C(=O)N2C([H])([H])C([H])([H])C([H])([H])C([H])(n3nc(-c4c([H])c([H])c(Oc5c([H])c([H])c(F)c([H])c5F)c([H])c4[H])c(C(=O)N([H])[H])c3N([H])[H])C2([H])[H])c(C([H])([H])[H])c1C([H])([H])[H])C([H])([H])[H]

$$$$
62:0:0
     RDKit          3D

 98107  0  0  1  0  0  0  0  0999 V2000
  -29.3610  -22.9060   21.0180 C   0  0  0  0  0  0  0  0  0  0  0  0
  -28.6030  -22.6360   22.1020 C   0  0  0  0  0  2  0  0  0  0  0  0
  -32.0900  -24.5680   20.4910 C   0  0  0  0  0  2  0  0  0  0  0  0
  -32.3540  -23.0550   20.3250 C   0  0  0  0  0  2  0  0  0  0  0  0
  -30.7460  -24.9960   21.1190 C   0  0  0  0  0  2  0  0  0  0  0  0
  -31.3100  -22.2650   19.4900 C   0  0  0  0  0  2  0  0  0  0  0  0
  -29.5210  -24.3480   20.4410 C   0  0  0  0  0  3  0  0  0  0  0  0
  -30.1530  -21.7870   20.2970 N   0  0  1  0  0  4  0  0  0  0  0  0
  -29.5390  -21.3940   19.5960 H   0  0  0  0  0  0  0  0  0  0  0  0
  -30.5960  -20.5800   21.1090 C   0  0  0  0  0  2  0  0  0  0  0  0
  -28.3420  -19.4030   21.2380 C   0  0  0  0  0  3  0  0  0  0  0  0
  -30.3090  -17.9620   21.1520 C   0  0  0  0  0  3  0  0  0  0  0  0
  -29.7360  -19.2820   21.1090 C   0  0  0  0  0  0  0  0  0  0  0  0
  -27.5680  -18.3270   21.6930 C   0  0  0  0  0  0  0  0  0  0  0  0
  -28.1750  -17.0620   21.9100 C   0  0  0  0  0  0  0  0  0  0  0  0
  -29.5170  -16.8100   21.4830 C   0  0  0  0  0  0  0  0  0  0  0  0
  -26.0950  -18.6190   21.9670 C   0  0  0  0  0  1  0  0  0  0  0  0
  -27.3970  -15.9890   22.6600 C   0  0  0  0  0  1  0  0  0  0  0  0
  -30.6090  -14.5910   20.6820 C   0  0  0  0  0  0  0  0  0  0  0  0
  -30.4190  -12.3880   19.4930 C   0  0  0  0  0  2  0  0  0  0  0  0
  -29.5200  -12.6170   18.2620 C   0  0  0  0  0  2  0  0  0  0  0  0
  -28.0410  -12.3960   18.6460 C   0  0  0  0  0  2  0  0  0  0  0  0
  -27.6540  -13.2230   19.9030 C   0  0  0  0  0  3  0  0  0  0  0  0
  -28.6850  -12.9880   21.0360 C   0  0  0  0  0  2  0  0  0  0  0  0
  -30.0180  -13.3610   20.5290 N   0  0  0  0  0  0  0  0  0  0  0  0
  -31.6600  -14.8800   20.0900 O   0  0  0  0  0  0  0  0  0  0  0  0
  -29.9930  -15.4290   21.5700 N   0  0  0  0  0  0  0  0  0  0  0  0
  -29.3540  -14.8660   22.1070 H   0  0  0  0  0  0  0  0  0  0  0  0
  -25.2250  -13.8150   20.5290 C   0  0  0  0  0  0  0  0  0  0  0  0
  -24.1680  -13.0360   20.9100 C   0  0  0  0  0  0  0  0  0  0  0  0
  -24.6330  -11.6880   20.8730 C   0  0  0  0  0  0  0  0  0  0  0  0
  -26.2870  -12.9430   20.3360 N   0  0  0  0  0  0  0  0  0  0  0  0
  -25.9270  -11.6580   20.5850 N   0  0  0  0  0  0  0  0  0  0  0  0
  -23.9020  -10.4270   21.0380 C   0  0  0  0  0  0  0  0  0  0  0  0
  -24.3580   -9.4210   21.9160 C   0  0  0  0  0  3  0  0  0  0  0  0
  -23.6300   -8.2220   22.0720 C   0  0  0  0  0  3  0  0  0  0  0  0
  -22.4280   -8.0230   21.3520 C   0  0  0  0  0  0  0  0  0  0  0  0
  -21.9900   -9.0170   20.4620 C   0  0  0  0  0  3  0  0  0  0  0  0
  -22.7180  -10.2080   20.3040 C   0  0  0  0  0  3  0  0  0  0  0  0
  -21.6650   -6.8820   21.4230 O   0  0  0  0  0  0  0  0  0  0  0  0
  -21.6880   -6.0690   22.5280 C   0  0  0  0  0  0  0  0  0  0  0  0
  -21.4060   -6.5600   23.8220 C   0  0  0  0  0  3  0  0  0  0  0  0
  -21.3710   -5.6760   24.9190 C   0  0  0  0  0  3  0  0  0  0  0  0
  -21.6080   -4.3020   24.7240 C   0  0  0  0  0  0  0  0  0  0  0  0
  -21.8810   -3.8090   23.4360 C   0  0  0  0  0  3  0  0  0  0  0  0
  -21.9190   -4.6920   22.3430 C   0  0  0  0  0  0  0  0  0  0  0  0
  -22.1620   -4.2100   21.0990 F   0  0  0  0  0  0  0  0  0  0  0  0
  -21.5680   -3.4510   25.7750 F   0  0  0  0  0  0  0  0  0  0  0  0
  -22.7740  -13.5120   21.1810 C   0  0  0  0  0  0  0  0  0  0  0  0
  -22.0520  -12.8130   22.0490 N   0  0  0  0  0  0  0  0  0  0  0  0
  -22.3400  -14.5420   20.6670 O   0  0  0  0  0  0  0  0  0  0  0  0
  -22.4240  -11.9820   22.4850 H   0  0  0  0  0  0  0  0  0  0  0  0
  -21.1130  -13.1120   22.2770 H   0  0  0  0  0  0  0  0  0  0  0  0
  -25.3260  -15.1830   20.3120 N   0  0  0  0  0  0  0  0  0  0  0  0
  -24.4900  -15.7520   20.3830 H   0  0  0  0  0  0  0  0  0  0  0  0
  -26.0960  -15.6650   19.8640 H   0  0  0  0  0  0  0  0  0  0  0  0
  -28.2300  -25.2380   20.5630 C   0  0  0  0  0  2  0  0  0  0  0  0
  -28.3770  -26.6120   20.1170 O   0  0  0  0  0  0  0  0  0  0  0  0
  -24.6150  -31.8620   23.2050 C   0  0  0  0  0  0  0  0  0  0  0  0
  -27.2180  -27.3750   20.1160 C   0  0  0  0  0  0  0  0  0  0  0  0
  -23.4040  -30.4790   21.5540 C   0  0  0  0  0  3  0  0  0  0  0  0
  -24.8430  -28.9350   20.1230 C   0  0  0  0  0  0  0  0  0  0  0  0
  -25.9340  -30.8020   21.3680 C   0  0  0  0  0  2  0  0  0  0  0  0
  -26.0080  -29.4320   20.7220 C   0  0  0  0  0  0  0  0  0  0  0  0
  -27.1970  -28.6600   20.7180 C   0  0  0  0  0  3  0  0  0  0  0  0
  -26.0310  -26.9030   19.5090 C   0  0  0  0  0  3  0  0  0  0  0  0
  -24.8500  -27.6690   19.5170 C   0  0  0  0  0  3  0  0  0  0  0  0
  -23.6080  -29.8080   20.1700 C   0  0  0  0  0  2  0  0  0  0  0  0
  -24.6700  -31.0620   22.1030 N   0  0  0  0  0  0  0  0  0  0  0  0
  -23.5350  -32.1440   23.7450 O   0  0  0  0  0  0  0  0  0  0  0  0
  -22.7380  -29.4600   22.5050 C   0  0  0  0  0  0  0  0  0  0  0  0
  -21.4140  -29.3020   22.3740 N   0  0  0  0  0  0  0  0  0  0  0  0
  -23.4120  -28.8180   23.3170 O   0  0  0  0  0  0  0  0  0  0  0  0
  -20.9380  -29.8680   21.6850 H   0  0  0  0  0  0  0  0  0  0  0  0
  -18.0230  -28.1460   22.8410 C   0  0  0  0  0  0  0  0  0  0  0  0
  -20.5820  -28.3710   23.1330 C   0  0  0  0  0  3  0  0  0  0  0  0
  -20.6770  -26.9450   22.5440 C   0  0  0  0  0  2  0  0  0  0  0  0
  -19.5780  -26.6400   21.5220 C   0  0  0  0  0  2  0  0  0  0  0  0
  -18.1920  -26.7990   22.1550 C   0  0  0  0  0  2  0  0  0  0  0  0
  -19.1490  -28.8900   23.2850 C   0  0  0  0  0  0  0  0  0  0  0  0
  -18.9450  -30.1510   23.8860 C   0  0  0  0  0  3  0  0  0  0  0  0
  -17.6470  -30.6660   24.0580 C   0  0  0  0  0  3  0  0  0  0  0  0
  -16.5340  -29.9170   23.6390 C   0  0  0  0  0  3  0  0  0  0  0  0
  -16.7210  -28.6620   23.0300 C   0  0  0  0  0  3  0  0  0  0  0  0
  -25.9040  -32.4790   23.8300 C   0  0  0  0  0  3  0  0  0  0  0  0
  -26.4380  -31.6620   25.0700 C   0  0  1  0  0  0  0  0  0  0  0  0
  -25.3590  -31.3880   26.1430 C   0  0  0  0  0  1  0  0  0  0  0  0
  -27.0080  -30.2970   24.6180 C   0  0  0  0  0  1  0  0  0  0  0  0
  -27.5870  -32.4390   25.7540 C   0  0  0  0  0  1  0  0  0  0  0  0
  -25.5870  -33.8600   24.2160 N   0  0  0  0  0  0  0  0  0  0  0  0
  -25.9060  -34.9480   23.5020 C   0  0  0  0  0  0  0  0  0  0  0  0
  -26.5670  -34.8950   22.4620 O   0  0  0  0  0  0  0  0  0  0  0  0
  -24.9820  -33.9750   25.0160 H   0  0  0  0  0  0  0  0  0  0  0  0
  -24.1510  -36.7360   23.2630 C   0  0  0  0  0  1  0  0  0  0  0  0
  -25.4130  -36.3090   24.0270 C   0  0  0  0  0  3  0  0  0  0  0  0
  -27.5590  -37.1820   24.8400 C   0  0  0  0  0  1  0  0  0  0  0  0
  -26.4280  -37.3810   23.9380 N   0  0  0  0  0  0  0  0  0  0  0  0
  -26.0140  -38.2840   24.1500 H   0  0  0  0  0  0  0  0  0  0  0  0
  1  2  2  0
  3  5  1  0
  4  3  1  0
  6  8  1  0
  6  4  1  0
  7 57  1  0
  7  1  1  0
  7  5  1  0
  8  1  1  0
  8 10  1  0
  8  9  1  6
 10 13  1  0
 11 14  1  0
 12 16  2  0
 13 12  1  0
 13 11  2  0
 14 15  2  0
 14 17  1  0
 15 18  1  0
 16 27  1  0
 16 15  1  0
 19 27  1  0
 20 25  1  0
 21 22  1  0
 21 20  1  0
 23 22  1  0
 23 32  1  0
 23 24  1  0
 25 19  1  0
 25 24  1  0
 26 19  2  0
 27 28  1  0
 29 30  2  0
 30 49  1  0
 31 30  1  0
 31 34  1  0
 32 29  1  0
 32 33  1  0
 33 31  2  0
 34 35  1  0
 35 36  2  0
 37 40  1  0
 37 36  1  0
 38 37  2  0
 39 38  1  0
 39 34  2  0
 40 41  1  0
 41 42  1  0
 42 43  2  0
 44 43  1  0
 44 48  1  0
 45 44  2  0
 46 41  2  0
 46 45  1  0
 47 46  1  0
 49 50  1  0
 50 53  1  0
 50 52  1  0
 51 49  2  0
 54 55  1  0
 54 29  1  0
 56 54  1  0
 58 57  1  0
 59 70  2  0
 60 58  1  0
 60 65  1  0
 61 69  1  0
 61 71  1  0
 62 68  1  0
 62 64  1  0
 63 69  1  0
 64 63  1  0
 65 64  2  0
 66 67  1  0
 66 60  2  0
 67 62  2  0
 68 61  1  0
 69 59  1  0
 71 73  2  0
 72 71  1  0
 74 72  1  0
 75 84  2  0
 75 80  1  0
 76 72  1  0
 76 80  1  0
 77 76  1  0
 78 79  1  0
 78 77  1  0
 79 75  1  0
 80 81  2  0
 81 82  1  0
 83 82  2  0
 84 83  1  0
 85 59  1  0
 85 90  1  0
 85 86  1  0
 86 89  1  1
 86 87  1  0
 88 86  1  0
 90 93  1  0
 91 95  1  0
 91 90  1  0
 92 91  2  0
 95 94  1  0
 97 95  1  0
 97 98  1  0
 97 96  1  0
M  ISO  4  19 100  27 100  57 101  58 101
M  END
>  <TORSDO>  (63) 
F 19

>  <SCORE>  (63) 
5.026

>  <name>  (63) 
62

>  <ligand_id>  (63) 
62

>  <original_smiles>  (63) 
[H]C([H])=C1C([H])(C([H])([H])Oc2c([H])c([H])c3c(c2[H])C([H])([H])N(C(=O)C([H])(N([H])C(=O)C([H])(N([H])C([H])([H])[H])C([H])([H])[H])C(C([H])([H])[H])(C([H])([H])[H])C([H])([H])[H])C([H])(C(=O)N([H])C2([H])c4c([H])c([H])c([H])c([H])c4C([H])([H])C([H])([H])C2([H])[H])C3([H])[H])C([H])([H])C([H])([H])C([H])([H])C([H])([H])[N+]1([H])C([H])([H])c1c([H])c(N([H])C(=O)N2C([H])([H])C([H])([H])C([H])([H])C([H])(n3nc(-c4c([H])c([H])c(Oc5c([H])c([H])c(F)c([H])c5F)c([H])c4[H])c(C(=O)N([H])[H])c3N([H])[H])C2([H])[H])c(C([H])([H])[H])c(C([H])([H])[H])c1[H]

>  <smiles>  (63) 
[H]C([H])=C1C([H])(C([H])([H])Oc2c([H])c([H])c3c(c2[H])C([H])([H])N(C(=O)C([H])(N([H])C(=O)C([H])(N([H])C([H])([H])[H])C([H])([H])[H])C(C([H])([H])[H])(C([H])([H])[H])C([H])([H])[H])C([H])(C(=O)N([H])C2([H])c4c([H])c([H])c([H])c([H])c4C([H])([H])C([H])([H])C2([H])[H])C3([H])[H])C([H])([H])C([H])([H])C([H])([H])C([H])([H])[N+]1([H])C([H])([H])c1c([H])c(N([H])C(=O)N2C([H])([H])C([H])([H])C([H])([H])C([H])(n3nc(-c4c([H])c([H])c(Oc5c([H])c([H])c(F)c([H])c5F)c([H])c4[H])c(C(=O)N([H])[H])c3N([H])[H])C2([H])[H])c(C([H])([H])[H])c(C([H])([H])[H])c1[H]

$$$$
63:0:0
     RDKit          3D

 97106  0  0  1  0  0  0  0  0999 V2000
  -30.0330  -23.8510   17.4220 C   0  0  0  0  0  0  0  0  0  0  0  0
  -31.3290  -23.9500   17.0820 C   0  0  0  0  0  2  0  0  0  0  0  0
  -28.9160  -24.6600   16.7860 C   0  0  0  0  0  2  0  0  0  0  0  0
  -28.5470  -25.8430   17.7020 C   0  0  0  0  0  2  0  0  0  0  0  0
  -28.5910  -23.9600   19.4750 C   0  0  0  0  0  2  0  0  0  0  0  0
  -28.7940  -25.4970   19.1930 C   0  0  0  0  0  3  0  0  0  0  0  0
  -29.5410  -23.1090   18.6490 N   0  0  1  0  0  4  0  0  0  0  0  0
  -30.3420  -22.9640   19.2440 H   0  0  0  0  0  0  0  0  0  0  0  0
  -28.3810  -26.5030   20.1540 O   0  0  0  0  0  0  0  0  0  0  0  0
  -24.5320  -31.7220   23.1260 C   0  0  0  0  0  0  0  0  0  0  0  0
  -27.1950  -27.2170   20.0980 C   0  0  0  0  0  0  0  0  0  0  0  0
  -23.3510  -30.3280   21.4570 C   0  0  0  0  0  3  0  0  0  0  0  0
  -24.8170  -28.7660   20.0680 C   0  0  0  0  0  0  0  0  0  0  0  0
  -25.8870  -30.6480   21.3240 C   0  0  0  0  0  2  0  0  0  0  0  0
  -25.9660  -29.2730   20.6810 C   0  0  0  0  0  0  0  0  0  0  0  0
  -27.1540  -28.5050   20.6940 C   0  0  0  0  0  3  0  0  0  0  0  0
  -26.0150  -26.7150   19.5100 C   0  0  0  0  0  3  0  0  0  0  0  0
  -24.8360  -27.4870   19.4820 C   0  0  0  0  0  3  0  0  0  0  0  0
  -23.5840  -29.6440   20.0830 C   0  0  0  0  0  2  0  0  0  0  0  0
  -24.6060  -30.9160   22.0270 N   0  0  0  0  0  0  0  0  0  0  0  0
  -23.4410  -32.0080   23.6380 O   0  0  0  0  0  0  0  0  0  0  0  0
  -22.6640  -29.3190   22.4050 C   0  0  0  0  0  0  0  0  0  0  0  0
  -21.3320  -29.1900   22.2810 N   0  0  0  0  0  0  0  0  0  0  0  0
  -23.3250  -28.6550   23.2080 O   0  0  0  0  0  0  0  0  0  0  0  0
  -20.8610  -29.7730   21.6030 H   0  0  0  0  0  0  0  0  0  0  0  0
  -17.9110  -28.1560   22.8160 C   0  0  0  0  0  0  0  0  0  0  0  0
  -20.4840  -28.2700   23.0390 C   0  0  0  0  0  3  0  0  0  0  0  0
  -20.4990  -26.8570   22.4130 C   0  0  0  0  0  2  0  0  0  0  0  0
  -19.3620  -26.6290   21.4120 C   0  0  0  0  0  2  0  0  0  0  0  0
  -18.0030  -26.8240   22.0910 C   0  0  0  0  0  2  0  0  0  0  0  0
  -19.0770  -28.8430   23.2470 C   0  0  0  0  0  0  0  0  0  0  0  0
  -18.9390  -30.0960   23.8840 C   0  0  0  0  0  3  0  0  0  0  0  0
  -17.6660  -30.6600   24.0940 C   0  0  0  0  0  3  0  0  0  0  0  0
  -16.5140  -29.9690   23.6800 C   0  0  0  0  0  3  0  0  0  0  0  0
  -16.6380  -28.7180   23.0480 C   0  0  0  0  0  3  0  0  0  0  0  0
  -25.8090  -32.3400   23.7760 C   0  0  0  0  0  3  0  0  0  0  0  0
  -26.3050  -31.5490   25.0490 C   0  0  1  0  0  0  0  0  0  0  0  0
  -25.1930  -31.2950   26.0930 C   0  0  0  0  0  1  0  0  0  0  0  0
  -26.8910  -30.1760   24.6460 C   0  0  0  0  0  1  0  0  0  0  0  0
  -27.4440  -32.3310   25.7420 C   0  0  0  0  0  1  0  0  0  0  0  0
  -25.5000  -33.7350   24.1210 N   0  0  0  0  0  0  0  0  0  0  0  0
  -25.8470  -34.7960   23.3790 C   0  0  0  0  0  0  0  0  0  0  0  0
  -26.5300  -34.7040   22.3560 O   0  0  0  0  0  0  0  0  0  0  0  0
  -24.8920  -33.8820   24.9120 H   0  0  0  0  0  0  0  0  0  0  0  0
  -24.1340  -36.6000   23.0170 C   0  0  0  0  0  1  0  0  0  0  0  0
  -25.3560  -36.1800   23.8480 C   0  0  0  0  0  3  0  0  0  0  0  0
  -27.4690  -37.0480   24.7450 C   0  0  0  0  0  1  0  0  0  0  0  0
  -26.3960  -37.2300   23.7730 N   0  0  0  0  0  0  0  0  0  0  0  0
  -25.9890  -38.1500   23.9160 H   0  0  0  0  0  0  0  0  0  0  0  0
  -29.0700  -21.7120   18.3210 C   0  0  0  0  0  2  0  0  0  0  0  0
  -31.3170  -18.8230   19.7120 C   0  0  0  0  0  3  0  0  0  0  0  0
  -29.0660  -18.4470   20.4800 C   0  0  0  0  0  3  0  0  0  0  0  0
  -30.4020  -18.0050   20.3980 C   0  0  0  0  0  0  0  0  0  0  0  0
  -30.9240  -20.0400   19.1040 C   0  0  0  0  0  0  0  0  0  0  0  0
  -28.6480  -19.6680   19.8830 C   0  0  0  0  0  0  0  0  0  0  0  0
  -29.5680  -20.4900   19.1610 C   0  0  0  0  0  0  0  0  0  0  0  0
  -32.0120  -20.8260   18.4010 C   0  0  0  0  0  1  0  0  0  0  0  0
  -27.1810  -20.0550   20.0200 C   0  0  0  0  0  1  0  0  0  0  0  0
  -30.9010  -16.7450   21.1380 C   0  0  0  0  0  2  0  0  0  0  0  0
  -31.0070  -14.4080   20.1760 C   0  0  0  0  0  0  0  0  0  0  0  0
  -30.6460  -12.2310   19.0530 C   0  0  0  0  0  2  0  0  0  0  0  0
  -29.6660  -12.4150   17.8760 C   0  0  0  0  0  2  0  0  0  0  0  0
  -28.2030  -12.3100   18.3540 C   0  0  0  0  0  2  0  0  0  0  0  0
  -27.9220  -13.1850   19.6050 C   0  0  0  0  0  3  0  0  0  0  0  0
  -29.0030  -12.9600   20.6830 C   0  0  0  0  0  2  0  0  0  0  0  0
  -30.3110  -13.2400   20.0710 N   0  0  0  0  0  0  0  0  0  0  0  0
  -32.1330  -14.5540   19.6920 O   0  0  0  0  0  0  0  0  0  0  0  0
  -30.3430  -15.4360   20.7490 N   0  0  0  0  0  0  0  0  0  0  0  0
  -29.4090  -15.2360   21.0670 H   0  0  0  0  0  0  0  0  0  0  0  0
  -25.5860  -13.8830   20.4220 C   0  0  0  0  0  0  0  0  0  0  0  0
  -24.4980  -13.1530   20.8130 C   0  0  0  0  0  0  0  0  0  0  0  0
  -24.8930  -11.7820   20.7350 C   0  0  0  0  0  0  0  0  0  0  0  0
  -26.5780  -12.9600   20.1300 N   0  0  0  0  0  0  0  0  0  0  0  0
  -26.1670  -11.6890   20.3770 N   0  0  0  0  0  0  0  0  0  0  0  0
  -24.1160  -10.5510   20.9270 C   0  0  0  0  0  0  0  0  0  0  0  0
  -24.5100   -9.5680   21.8620 C   0  0  0  0  0  3  0  0  0  0  0  0
  -23.7380   -8.3990   22.0410 C   0  0  0  0  0  3  0  0  0  0  0  0
  -22.5570   -8.2070   21.2850 C   0  0  0  0  0  0  0  0  0  0  0  0
  -22.1830   -9.1760   20.3380 C   0  0  0  0  0  3  0  0  0  0  0  0
  -22.9540  -10.3370   20.1580 C   0  0  0  0  0  3  0  0  0  0  0  0
  -21.7600   -7.0900   21.3710 O   0  0  0  0  0  0  0  0  0  0  0  0
  -21.6520   -6.3710   22.5340 C   0  0  0  0  0  0  0  0  0  0  0  0
  -21.1670   -6.9520   23.7260 C   0  0  0  0  0  3  0  0  0  0  0  0
  -21.0060   -6.1600   24.8810 C   0  0  0  0  0  3  0  0  0  0  0  0
  -21.3190   -4.7890   24.8430 C   0  0  0  0  0  0  0  0  0  0  0  0
  -21.7960   -4.2070   23.6550 C   0  0  0  0  0  3  0  0  0  0  0  0
  -21.9600   -4.9960   22.5040 C   0  0  0  0  0  0  0  0  0  0  0  0
  -22.4010   -4.4280   21.3560 F   0  0  0  0  0  0  0  0  0  0  0  0
  -21.1570   -4.0260   25.9480 F   0  0  0  0  0  0  0  0  0  0  0  0
  -23.1340  -13.6860   21.1490 C   0  0  0  0  0  0  0  0  0  0  0  0
  -22.4080  -13.0000   22.0220 N   0  0  0  0  0  0  0  0  0  0  0  0
  -22.7250  -14.7440   20.6700 O   0  0  0  0  0  0  0  0  0  0  0  0
  -22.7560  -12.1440   22.4290 H   0  0  0  0  0  0  0  0  0  0  0  0
  -21.4910  -13.3340   22.2880 H   0  0  0  0  0  0  0  0  0  0  0  0
  -25.8140  -15.2470   20.2650 N   0  0  0  0  0  0  0  0  0  0  0  0
  -25.0870  -15.9410   20.3960 H   0  0  0  0  0  0  0  0  0  0  0  0
  -26.6670  -15.6380   19.8890 H   0  0  0  0  0  0  0  0  0  0  0  0
  1  7  1  0
  2  1  2  0
  3  1  1  0
  3  4  1  0
  4  6  1  0
  6  5  1  0
  6  9  1  0
  7  8  1  1
  7  5  1  0
 10 21  2  0
 11  9  1  0
 11 16  1  0
 12 20  1  0
 12 22  1  0
 13 19  1  0
 13 15  1  0
 14 20  1  0
 15 16  2  0
 15 14  1  0
 17 11  2  0
 18 17  1  0
 18 13  2  0
 19 12  1  0
 20 10  1  0
 22 24  2  0
 23 22  1  0
 25 23  1  0
 26 35  2  0
 26 31  1  0
 27 23  1  0
 27 31  1  0
 28 27  1  0
 29 30  1  0
 29 28  1  0
 30 26  1  0
 31 32  2  0
 32 33  1  0
 34 33  2  0
 35 34  1  0
 36 10  1  0
 36 41  1  0
 36 37  1  0
 37 40  1  1
 37 38  1  0
 39 37  1  0
 41 44  1  0
 42 46  1  0
 42 41  1  0
 43 42  2  0
 46 45  1  0
 48 46  1  0
 48 49  1  0
 48 47  1  0
 50  7  1  0
 50 56  1  0
 51 53  1  0
 53 52  2  0
 53 59  1  0
 54 56  1  0
 54 51  2  0
 55 58  1  0
 55 52  1  0
 56 55  2  0
 57 54  1  0
 60 68  1  0
 61 66  1  0
 62 63  1  0
 62 61  1  0
 64 63  1  0
 64 73  1  0
 64 65  1  0
 66 60  1  0
 66 65  1  0
 67 60  2  0
 68 69  1  0
 68 59  1  0
 70 71  2  0
 71 90  1  0
 72 71  1  0
 72 75  1  0
 73 74  1  0
 73 70  1  0
 74 72  2  0
 75 76  1  0
 76 77  2  0
 78 81  1  0
 78 77  1  0
 79 78  2  0
 80 79  1  0
 80 75  2  0
 81 82  1  0
 82 83  1  0
 83 84  2  0
 85 84  1  0
 85 89  1  0
 86 85  2  0
 87 82  2  0
 87 86  1  0
 88 87  1  0
 90 91  1  0
 91 94  1  0
 91 93  1  0
 92 90  2  0
 95 96  1  0
 95 70  1  0
 97 95  1  0
M  ISO  4   6 101   9 101  60 100  68 100
M  END
>  <TORSDO>  (64) 
F 19

>  <SCORE>  (64) 
-13.806

>  <name>  (64) 
63

>  <ligand_id>  (64) 
63

>  <original_smiles>  (64) 
[H]C([H])=C1C([H])([H])C([H])([H])C([H])(Oc2c([H])c([H])c3c(c2[H])C([H])([H])N(C(=O)C([H])(N([H])C(=O)C([H])(N([H])C([H])([H])[H])C([H])([H])[H])C(C([H])([H])[H])(C([H])([H])[H])C([H])([H])[H])C([H])(C(=O)N([H])C2([H])c4c([H])c([H])c([H])c([H])c4C([H])([H])C([H])([H])C2([H])[H])C3([H])[H])C([H])([H])[N+]1([H])C([H])([H])c1c(C([H])([H])[H])c([H])c(C([H])([H])N([H])C(=O)N2C([H])([H])C([H])([H])C([H])([H])C([H])(n3nc(-c4c([H])c([H])c(Oc5c([H])c([H])c(F)c([H])c5F)c([H])c4[H])c(C(=O)N([H])[H])c3N([H])[H])C2([H])[H])c([H])c1C([H])([H])[H]

>  <smiles>  (64) 
[H]C([H])=C1C([H])([H])C([H])([H])C([H])(Oc2c([H])c([H])c3c(c2[H])C([H])([H])N(C(=O)C([H])(N([H])C(=O)C([H])(N([H])C([H])([H])[H])C([H])([H])[H])C(C([H])([H])[H])(C([H])([H])[H])C([H])([H])[H])C([H])(C(=O)N([H])C2([H])c4c([H])c([H])c([H])c([H])c4C([H])([H])C([H])([H])C2([H])[H])C3([H])[H])C([H])([H])[N+]1([H])C([H])([H])c1c(C([H])([H])[H])c([H])c(C([H])([H])N([H])C(=O)N2C([H])([H])C([H])([H])C([H])([H])C([H])(n3nc(-c4c([H])c([H])c(Oc5c([H])c([H])c(F)c([H])c5F)c([H])c4[H])c(C(=O)N([H])[H])c3N([H])[H])C2([H])[H])c([H])c1C([H])([H])[H]

$$$$
64:0:0
     RDKit          3D

 98107  0  0  1  0  0  0  0  0999 V2000
  -30.9820  -22.8550   19.4260 C   0  0  0  0  0  0  0  0  0  0  0  0
  -31.3220  -22.3630   18.2220 C   0  0  0  0  0  2  0  0  0  0  0  0
  -30.6640  -24.3110   19.7030 C   0  0  0  0  0  2  0  0  0  0  0  0
  -28.2500  -22.3020   20.0840 C   0  0  0  0  0  2  0  0  0  0  0  0
  -28.2100  -23.8350   20.2660 C   0  0  0  0  0  2  0  0  0  0  0  0
  -29.3540  -21.5290   20.8460 C   0  0  0  0  0  2  0  0  0  0  0  0
  -29.1940  -24.6090   19.3560 C   0  0  0  0  0  3  0  0  0  0  0  0
  -30.7440  -22.0440   20.6600 N   0  0  1  0  0  4  0  0  0  0  0  0
  -30.7930  -22.7310   21.3970 H   0  0  0  0  0  0  0  0  0  0  0  0
  -31.8480  -21.1320   21.0960 C   0  0  0  0  0  2  0  0  0  0  0  0
  -31.7110  -19.0480   19.6240 C   0  0  0  0  0  3  0  0  0  0  0  0
  -31.2190  -18.8160   21.9860 C   0  0  0  0  0  3  0  0  0  0  0  0
  -31.6010  -19.6310   20.8990 C   0  0  0  0  0  0  0  0  0  0  0  0
  -31.3630  -17.7040   19.3980 C   0  0  0  0  0  0  0  0  0  0  0  0
  -30.9400  -17.4460   21.7950 C   0  0  0  0  0  0  0  0  0  0  0  0
  -31.0340  -16.8640   20.5030 C   0  0  0  0  0  0  0  0  0  0  0  0
  -31.2890  -17.2670   17.9430 C   0  0  0  0  0  1  0  0  0  0  0  0
  -30.5060  -16.6180   22.9960 C   0  0  0  0  0  1  0  0  0  0  0  0
  -31.4370  -14.4290   20.0040 C   0  0  0  0  0  0  0  0  0  0  0  0
  -31.0700  -12.2440   18.9440 C   0  0  0  0  0  2  0  0  0  0  0  0
  -30.0920  -12.4290   17.7660 C   0  0  0  0  0  2  0  0  0  0  0  0
  -28.6290  -12.3380   18.2460 C   0  0  0  0  0  2  0  0  0  0  0  0
  -28.3480  -13.2310   19.4840 C   0  0  0  0  0  3  0  0  0  0  0  0
  -29.4290  -13.0190   20.5660 C   0  0  0  0  0  2  0  0  0  0  0  0
  -30.7430  -13.2650   19.9460 N   0  0  0  0  0  0  0  0  0  0  0  0
  -32.5870  -14.5370   19.5770 O   0  0  0  0  0  0  0  0  0  0  0  0
  -30.6950  -15.4820   20.3940 N   0  0  0  0  0  0  0  0  0  0  0  0
  -29.7970  -15.2250   20.7670 H   0  0  0  0  0  0  0  0  0  0  0  0
  -26.0040  -13.9240   20.2940 C   0  0  0  0  0  0  0  0  0  0  0  0
  -24.9220  -13.1900   20.6960 C   0  0  0  0  0  0  0  0  0  0  0  0
  -25.3310  -11.8220   20.6350 C   0  0  0  0  0  0  0  0  0  0  0  0
  -27.0050  -13.0060   20.0130 N   0  0  0  0  0  0  0  0  0  0  0  0
  -26.6050  -11.7370   20.2750 N   0  0  0  0  0  0  0  0  0  0  0  0
  -24.5660  -10.5870   20.8430 C   0  0  0  0  0  0  0  0  0  0  0  0
  -24.9260   -9.6520   21.8410 C   0  0  0  0  0  3  0  0  0  0  0  0
  -24.1650   -8.4790   22.0330 C   0  0  0  0  0  3  0  0  0  0  0  0
  -23.0300   -8.2330   21.2260 C   0  0  0  0  0  0  0  0  0  0  0  0
  -22.6900   -9.1530   20.2190 C   0  0  0  0  0  3  0  0  0  0  0  0
  -23.4510  -10.3170   20.0260 C   0  0  0  0  0  3  0  0  0  0  0  0
  -22.2460   -7.1090   21.3240 O   0  0  0  0  0  0  0  0  0  0  0  0
  -21.9880   -6.5120   22.5330 C   0  0  0  0  0  0  0  0  0  0  0  0
  -21.3770   -7.2150   23.5940 C   0  0  0  0  0  3  0  0  0  0  0  0
  -21.0680   -6.5460   24.7960 C   0  0  0  0  0  3  0  0  0  0  0  0
  -21.3580   -5.1750   24.9330 C   0  0  0  0  0  0  0  0  0  0  0  0
  -21.9610   -4.4730   23.8750 C   0  0  0  0  0  3  0  0  0  0  0  0
  -22.2720   -5.1400   22.6770 C   0  0  0  0  0  0  0  0  0  0  0  0
  -22.8350   -4.4530   21.6530 F   0  0  0  0  0  0  0  0  0  0  0  0
  -21.0550   -4.5300   26.0830 F   0  0  0  0  0  0  0  0  0  0  0  0
  -23.5540  -13.7150   21.0270 C   0  0  0  0  0  0  0  0  0  0  0  0
  -22.8440  -13.0530   21.9330 N   0  0  0  0  0  0  0  0  0  0  0  0
  -23.1280  -14.7510   20.5180 O   0  0  0  0  0  0  0  0  0  0  0  0
  -23.2050  -12.2170   22.3690 H   0  0  0  0  0  0  0  0  0  0  0  0
  -21.9260  -13.3860   22.1940 H   0  0  0  0  0  0  0  0  0  0  0  0
  -26.2170  -15.2890   20.1220 N   0  0  0  0  0  0  0  0  0  0  0  0
  -25.4810  -15.9710   20.2660 H   0  0  0  0  0  0  0  0  0  0  0  0
  -27.0670  -15.6950   19.7510 H   0  0  0  0  0  0  0  0  0  0  0  0
  -28.9040  -26.1230   19.2660 C   0  0  0  0  0  2  0  0  0  0  0  0
  -28.4370  -26.6780   20.4950 O   0  0  0  0  0  0  0  0  0  0  0  0
  -24.6430  -31.9190   23.4380 C   0  0  0  0  0  0  0  0  0  0  0  0
  -27.2570  -27.3910   20.4680 C   0  0  0  0  0  0  0  0  0  0  0  0
  -23.4320  -30.5030   21.8120 C   0  0  0  0  0  3  0  0  0  0  0  0
  -24.8750  -28.9170   20.4370 C   0  0  0  0  0  0  0  0  0  0  0  0
  -25.9640  -30.8170   21.6380 C   0  0  0  0  0  2  0  0  0  0  0  0
  -26.0320  -29.4320   21.0350 C   0  0  0  0  0  0  0  0  0  0  0  0
  -27.2200  -28.6680   21.0650 C   0  0  0  0  0  3  0  0  0  0  0  0
  -26.0760  -26.8840   19.8760 C   0  0  0  0  0  3  0  0  0  0  0  0
  -24.8890  -27.6360   19.8640 C   0  0  0  0  0  3  0  0  0  0  0  0
  -23.6450  -29.7930   20.4490 C   0  0  0  0  0  2  0  0  0  0  0  0
  -24.6970  -31.0970   22.3530 N   0  0  0  0  0  0  0  0  0  0  0  0
  -23.5610  -32.2190   23.9590 O   0  0  0  0  0  0  0  0  0  0  0  0
  -22.7570  -29.5090   22.7850 C   0  0  0  0  0  0  0  0  0  0  0  0
  -21.4490  -29.2750   22.5860 N   0  0  0  0  0  0  0  0  0  0  0  0
  -23.4080  -28.9500   23.6710 O   0  0  0  0  0  0  0  0  0  0  0  0
  -20.9860  -29.7790   21.8410 H   0  0  0  0  0  0  0  0  0  0  0  0
  -18.1080  -27.9350   22.8820 C   0  0  0  0  0  0  0  0  0  0  0  0
  -20.6150  -28.3540   23.3550 C   0  0  0  0  0  3  0  0  0  0  0  0
  -20.8410  -26.8920   22.9050 C   0  0  0  0  0  2  0  0  0  0  0  0
  -19.8520  -26.4330   21.8270 C   0  0  0  0  0  2  0  0  0  0  0  0
  -18.4120  -26.5500   22.3350 C   0  0  0  0  0  2  0  0  0  0  0  0
  -19.1450  -28.7880   23.3460 C   0  0  0  0  0  0  0  0  0  0  0  0
  -18.8130  -30.0790   23.8100 C   0  0  0  0  0  3  0  0  0  0  0  0
  -17.4750  -30.5190   23.8180 C   0  0  0  0  0  3  0  0  0  0  0  0
  -16.4520  -29.6640   23.3730 C   0  0  0  0  0  3  0  0  0  0  0  0
  -16.7690  -28.3750   22.9090 C   0  0  0  0  0  3  0  0  0  0  0  0
  -25.9330  -32.5400   24.0580 C   0  0  0  0  0  3  0  0  0  0  0  0
  -26.3990  -31.8170   25.3800 C   0  0  1  0  0  0  0  0  0  0  0  0
  -25.2710  -31.6390   26.4220 C   0  0  0  0  0  1  0  0  0  0  0  0
  -26.9730  -30.4160   25.0630 C   0  0  0  0  0  1  0  0  0  0  0  0
  -27.5410  -32.6230   26.0430 C   0  0  0  0  0  1  0  0  0  0  0  0
  -25.6620  -33.9610   24.3080 N   0  0  0  0  0  0  0  0  0  0  0  0
  -26.0140  -34.9590   23.4860 C   0  0  0  0  0  0  0  0  0  0  0  0
  -26.6750  -34.7800   22.4590 O   0  0  0  0  0  0  0  0  0  0  0  0
  -25.0780  -34.1770   25.1030 H   0  0  0  0  0  0  0  0  0  0  0  0
  -24.3180  -36.7600   23.0440 C   0  0  0  0  0  1  0  0  0  0  0  0
  -25.5610  -36.3820   23.8650 C   0  0  0  0  0  3  0  0  0  0  0  0
  -27.7200  -37.2740   24.6200 C   0  0  0  0  0  1  0  0  0  0  0  0
  -26.6130  -37.4050   23.6770 N   0  0  0  0  0  0  0  0  0  0  0  0
  -26.2260  -38.3400   23.7720 H   0  0  0  0  0  0  0  0  0  0  0  0
  1  3  1  0
  1  8  1  0
  2  1  2  0
  4  5  1  0
  4  6  1  0
  7 57  1  0
  7  3  1  0
  7  5  1  0
  8  6  1  0
  8 10  1  0
  8  9  1  1
 11 13  1  0
 13 10  1  0
 13 12  2  0
 14 11  2  0
 14 16  1  0
 15 12  1  0
 15 18  1  0
 16 15  2  0
 17 14  1  0
 19 27  1  0
 20 25  1  0
 21 22  1  0
 21 20  1  0
 23 22  1  0
 23 32  1  0
 23 24  1  0
 25 19  1  0
 25 24  1  0
 26 19  2  0
 27 16  1  0
 27 28  1  0
 29 30  2  0
 30 49  1  0
 31 30  1  0
 31 34  1  0
 32 33  1  0
 32 29  1  0
 33 31  2  0
 34 35  1  0
 35 36  2  0
 37 40  1  0
 37 36  1  0
 38 37  2  0
 39 38  1  0
 39 34  2  0
 40 41  1  0
 41 46  2  0
 41 42  1  0
 42 43  2  0
 43 44  1  0
 44 48  1  0
 45 44  2  0
 46 45  1  0
 47 46  1  0
 49 50  1  0
 50 53  1  0
 50 52  1  0
 51 49  2  0
 54 55  1  0
 54 29  1  0
 56 54  1  0
 57 58  1  0
 59 70  2  0
 60 58  1  0
 60 65  1  0
 61 69  1  0
 61 71  1  0
 62 68  1  0
 62 64  1  0
 63 69  1  0
 64 65  2  0
 64 63  1  0
 66 60  2  0
 67 66  1  0
 67 62  2  0
 68 61  1  0
 69 59  1  0
 71 73  2  0
 72 71  1  0
 74 72  1  0
 75 84  2  0
 75 80  1  0
 76 72  1  0
 77 76  1  0
 78 79  1  0
 78 77  1  0
 79 75  1  0
 80 76  1  0
 80 81  2  0
 81 82  1  0
 83 82  2  0
 84 83  1  0
 85 59  1  0
 85 90  1  0
 85 86  1  0
 86 89  1  1
 86 87  1  0
 88 86  1  0
 90 93  1  0
 91 95  1  0
 91 90  1  0
 92 91  2  0
 95 94  1  0
 97 98  1  0
 97 95  1  0
 97 96  1  0
M  ISO  4  19 100  27 100  57 101  58 101
M  END
>  <TORSDO>  (65) 
F 19

>  <SCORE>  (65) 
-12.925

>  <name>  (65) 
64

>  <ligand_id>  (65) 
64

>  <original_smiles>  (65) 
[H]C([H])=C1C([H])([H])C([H])(C([H])([H])Oc2c([H])c([H])c3c(c2[H])C([H])([H])N(C(=O)C([H])(N([H])C(=O)C([H])(N([H])C([H])([H])[H])C([H])([H])[H])C(C([H])([H])[H])(C([H])([H])[H])C([H])([H])[H])C([H])(C(=O)N([H])C2([H])c4c([H])c([H])c([H])c([H])c4C([H])([H])C([H])([H])C2([H])[H])C3([H])[H])C([H])([H])C([H])([H])C([H])([H])[N+]1([H])C([H])([H])c1c([H])c(C([H])([H])[H])c(N([H])C(=O)N2C([H])([H])C([H])([H])C([H])([H])C([H])(n3nc(-c4c([H])c([H])c(Oc5c([H])c([H])c(F)c([H])c5F)c([H])c4[H])c(C(=O)N([H])[H])c3N([H])[H])C2([H])[H])c(C([H])([H])[H])c1[H]

>  <smiles>  (65) 
[H]C([H])=C1C([H])([H])C([H])(C([H])([H])Oc2c([H])c([H])c3c(c2[H])C([H])([H])N(C(=O)C([H])(N([H])C(=O)C([H])(N([H])C([H])([H])[H])C([H])([H])[H])C(C([H])([H])[H])(C([H])([H])[H])C([H])([H])[H])C([H])(C(=O)N([H])C2([H])c4c([H])c([H])c([H])c([H])c4C([H])([H])C([H])([H])C2([H])[H])C3([H])[H])C([H])([H])C([H])([H])C([H])([H])[N+]1([H])C([H])([H])c1c([H])c(C([H])([H])[H])c(N([H])C(=O)N2C([H])([H])C([H])([H])C([H])([H])C([H])(n3nc(-c4c([H])c([H])c(Oc5c([H])c([H])c(F)c([H])c5F)c([H])c4[H])c(C(=O)N([H])[H])c3N([H])[H])C2([H])[H])c(C([H])([H])[H])c1[H]

$$$$
65:0:0
     RDKit          3D

 95103  0  0  1  0  0  0  0  0999 V2000
  -29.5740  -19.7360   22.1170 C   0  0  0  0  0  1  0  0  0  0  0  0
  -31.8490  -19.5270   21.1080 C   0  0  0  0  0  1  0  0  0  0  0  0
  -30.3860  -19.9180   20.8200 C   0  0  1  0  0  0  0  0  0  0  0  0
  -27.8540  -17.2930   18.4140 C   0  0  0  0  0  3  0  0  0  0  0  0
  -28.2390  -18.5300   17.9080 C   0  0  0  0  0  3  0  0  0  0  0  0
  -28.6050  -16.7400   19.4520 C   0  0  0  0  0  3  0  0  0  0  0  0
  -29.2220  -19.2890   18.5690 C   0  0  0  0  0  0  0  0  0  0  0  0
  -29.8380  -18.8190   19.7800 C   0  0  0  0  0  0  0  0  0  0  0  0
  -29.7300  -17.3430   20.0120 C   0  0  0  0  0  0  0  0  0  0  0  0
  -29.5710  -20.5900   17.8670 C   0  0  0  0  0  1  0  0  0  0  0  0
  -31.0310  -15.0700   20.4420 C   0  0  0  0  0  0  0  0  0  0  0  0
  -30.7600  -12.7530   19.4650 C   0  0  0  0  0  2  0  0  0  0  0  0
  -29.8630  -12.6690   18.2110 C   0  0  0  0  0  2  0  0  0  0  0  0
  -28.4030  -12.4190   18.6270 C   0  0  0  0  0  2  0  0  0  0  0  0
  -27.9550  -13.4080   19.7180 C   0  0  0  0  0  3  0  0  0  0  0  0
  -28.9830  -13.5450   20.8800 C   0  0  0  0  0  2  0  0  0  0  0  0
  -30.2870  -13.8980   20.3000 N   0  0  0  0  0  0  0  0  0  0  0  0
  -32.2250  -15.0100   20.1510 O   0  0  0  0  0  0  0  0  0  0  0  0
  -30.5320  -16.3490   20.7930 N   0  0  0  0  0  0  0  0  0  0  0  0
  -31.2840  -16.8300   21.2630 H   0  0  0  0  0  0  0  0  0  0  0  0
  -25.5750  -14.0860   20.4090 C   0  0  0  0  0  0  0  0  0  0  0  0
  -24.4860  -13.3410   20.7610 C   0  0  0  0  0  0  0  0  0  0  0  0
  -24.9260  -11.9840   20.7630 C   0  0  0  0  0  0  0  0  0  0  0  0
  -26.6040  -13.1760   20.2020 N   0  0  0  0  0  0  0  0  0  0  0  0
  -26.2200  -11.9110   20.4870 N   0  0  0  0  0  0  0  0  0  0  0  0
  -24.1760  -10.7410   20.9440 C   0  0  0  0  0  0  0  0  0  0  0  0
  -24.5560   -9.7850   21.9110 C   0  0  0  0  0  3  0  0  0  0  0  0
  -23.8050   -8.6030   22.0770 C   0  0  0  0  0  3  0  0  0  0  0  0
  -22.6630   -8.3720   21.2750 C   0  0  0  0  0  0  0  0  0  0  0  0
  -22.3040   -9.3170   20.2970 C   0  0  0  0  0  3  0  0  0  0  0  0
  -23.0560  -10.4900   20.1290 C   0  0  0  0  0  3  0  0  0  0  0  0
  -21.8850   -7.2440   21.3510 O   0  0  0  0  0  0  0  0  0  0  0  0
  -21.7600   -6.5350   22.5180 C   0  0  0  0  0  0  0  0  0  0  0  0
  -21.2450   -7.1220   23.6940 C   0  0  0  0  0  3  0  0  0  0  0  0
  -21.0700   -6.3400   24.8530 C   0  0  0  0  0  3  0  0  0  0  0  0
  -21.3990   -4.9700   24.8350 C   0  0  0  0  0  0  0  0  0  0  0  0
  -21.9070   -4.3830   23.6630 C   0  0  0  0  0  3  0  0  0  0  0  0
  -22.0840   -5.1630   22.5070 C   0  0  0  0  0  0  0  0  0  0  0  0
  -22.5540   -4.5880   21.3750 F   0  0  0  0  0  0  0  0  0  0  0  0
  -21.2220   -4.2160   25.9460 F   0  0  0  0  0  0  0  0  0  0  0  0
  -23.0920  -13.8520   20.9830 C   0  0  0  0  0  0  0  0  0  0  0  0
  -22.3280  -13.1900   21.8430 N   0  0  0  0  0  0  0  0  0  0  0  0
  -22.6890  -14.8740   20.4280 O   0  0  0  0  0  0  0  0  0  0  0  0
  -22.6640  -12.3620   22.3150 H   0  0  0  0  0  0  0  0  0  0  0  0
  -21.3910  -13.5150   22.0350 H   0  0  0  0  0  0  0  0  0  0  0  0
  -25.7390  -15.4530   20.2230 N   0  0  0  0  0  0  0  0  0  0  0  0
  -24.9570  -16.0910   20.3160 H   0  0  0  0  0  0  0  0  0  0  0  0
  -26.5810  -15.9100   19.9020 H   0  0  0  0  0  0  0  0  0  0  0  0
  -30.4380  -21.5630   20.5470 C   0  0  0  0  0  2  0  0  0  0  0  0
  -29.4160  -23.9790   20.5330 C   0  0  0  0  0  0  0  0  0  0  0  0
  -29.2890  -22.5860   20.5440 N   0  0  0  0  0  0  0  0  0  0  0  0
  -30.5340  -24.4780   20.6790 O   0  0  0  0  0  0  0  0  0  0  0  0
  -28.3530  -22.2110   20.4630 H   0  0  0  0  0  0  0  0  0  0  0  0
  -28.1850  -24.9920   20.2950 C   0  0  0  0  0  2  0  0  0  0  0  0
  -28.4240  -26.4910   20.3730 O   0  0  0  0  0  0  0  0  0  0  0  0
  -24.5880  -31.9540   23.2860 C   0  0  0  0  0  0  0  0  0  0  0  0
  -27.3140  -27.3770   20.2880 C   0  0  0  0  0  0  0  0  0  0  0  0
  -23.4320  -30.5330   21.6330 C   0  0  0  0  0  3  0  0  0  0  0  0
  -24.9290  -29.0010   20.2270 C   0  0  0  0  0  0  0  0  0  0  0  0
  -25.9730  -30.8790   21.4860 C   0  0  0  0  0  2  0  0  0  0  0  0
  -26.0870  -29.4960   20.8400 C   0  0  0  0  0  0  0  0  0  0  0  0
  -27.2820  -28.7010   20.8510 C   0  0  0  0  0  3  0  0  0  0  0  0
  -26.1280  -26.9550   19.6420 C   0  0  0  0  0  3  0  0  0  0  0  0
  -24.9580  -27.7390   19.6150 C   0  0  0  0  0  3  0  0  0  0  0  0
  -23.6780  -29.8600   20.2570 C   0  0  0  0  0  2  0  0  0  0  0  0
  -24.6830  -31.1400   22.1920 N   0  0  0  0  0  0  0  0  0  0  0  0
  -23.4910  -32.2140   23.8030 O   0  0  0  0  0  0  0  0  0  0  0  0
  -22.7710  -29.5070   22.5870 C   0  0  0  0  0  0  0  0  0  0  0  0
  -21.4510  -29.3010   22.4370 N   0  0  0  0  0  0  0  0  0  0  0  0
  -23.4450  -28.9020   23.4240 O   0  0  0  0  0  0  0  0  0  0  0  0
  -20.9660  -29.8410   21.7330 H   0  0  0  0  0  0  0  0  0  0  0  0
  -18.0890  -28.0390   22.8950 C   0  0  0  0  0  0  0  0  0  0  0  0
  -20.6380  -28.3490   23.1970 C   0  0  0  0  0  3  0  0  0  0  0  0
  -20.7750  -26.9180   22.6240 C   0  0  0  0  0  2  0  0  0  0  0  0
  -19.6920  -26.5740   21.5970 C   0  0  0  0  0  2  0  0  0  0  0  0
  -18.2990  -26.6940   22.2220 C   0  0  0  0  0  2  0  0  0  0  0  0
  -19.1870  -28.8240   23.3380 C   0  0  0  0  0  0  0  0  0  0  0  0
  -18.9360  -30.0810   23.9290 C   0  0  0  0  0  3  0  0  0  0  0  0
  -17.6200  -30.5560   24.0800 C   0  0  0  0  0  3  0  0  0  0  0  0
  -16.5360  -29.7700   23.6510 C   0  0  0  0  0  3  0  0  0  0  0  0
  -16.7710  -28.5130   23.0650 C   0  0  0  0  0  3  0  0  0  0  0  0
  -25.8470  -32.6120   23.9250 C   0  0  0  0  0  3  0  0  0  0  0  0
  -26.3370  -31.8740   25.2320 C   0  0  1  0  0  0  0  0  0  0  0  0
  -25.2170  -31.6440   26.2730 C   0  0  0  0  0  1  0  0  0  0  0  0
  -26.9480  -30.4960   24.8870 C   0  0  0  0  0  1  0  0  0  0  0  0
  -27.4590  -32.6960   25.9060 C   0  0  0  0  0  1  0  0  0  0  0  0
  -25.5170  -34.0140   24.2190 N   0  0  0  0  0  0  0  0  0  0  0  0
  -25.8600  -35.0560   23.4490 C   0  0  0  0  0  0  0  0  0  0  0  0
  -26.5570  -34.9380   22.4370 O   0  0  0  0  0  0  0  0  0  0  0  0
  -24.9000  -34.1800   25.0010 H   0  0  0  0  0  0  0  0  0  0  0  0
  -24.1400  -36.8380   23.0060 C   0  0  0  0  0  1  0  0  0  0  0  0
  -25.3530  -36.4490   23.8670 C   0  0  0  0  0  3  0  0  0  0  0  0
  -27.4500  -37.3600   24.7660 C   0  0  0  0  0  1  0  0  0  0  0  0
  -26.3860  -37.5050   23.7750 N   0  0  0  0  0  0  0  0  0  0  0  0
  -25.9710  -38.4270   23.8880 H   0  0  0  0  0  0  0  0  0  0  0  0
  3  2  1  1
  3  1  1  0
  4  6  1  0
  5  4  2  0
  5  7  1  0
  6  9  2  0
  7  8  2  0
  8  9  1  0
  8  3  1  0
  9 19  1  0
 10  7  1  0
 11 19  1  0
 12 17  1  0
 13 14  1  0
 13 12  1  0
 15 14  1  0
 15 24  1  0
 15 16  1  0
 17 11  1  0
 17 16  1  0
 18 11  2  0
 19 20  1  0
 21 22  2  0
 22 23  1  0
 22 41  1  0
 23 26  1  0
 24 21  1  0
 24 25  1  0
 25 23  2  0
 26 27  1  0
 27 28  2  0
 29 32  1  0
 29 28  1  0
 30 29  2  0
 31 30  1  0
 31 26  2  0
 32 33  1  0
 33 34  1  0
 34 35  2  0
 36 35  1  0
 36 40  1  0
 37 36  2  0
 38 33  2  0
 38 37  1  0
 39 38  1  0
 41 42  1  0
 42 45  1  0
 42 44  1  0
 43 41  2  0
 46 47  1  0
 46 21  1  0
 48 46  1  0
 49  3  1  0
 50 51  1  0
 50 52  2  0
 51 49  1  0
 53 51  1  0
 54 55  1  0
 54 50  1  0
 56 67  2  0
 57 55  1  0
 57 62  1  0
 58 66  1  0
 58 68  1  0
 59 65  1  0
 59 61  1  0
 60 66  1  0
 61 62  2  0
 61 60  1  0
 63 57  2  0
 64 63  1  0
 64 59  2  0
 65 58  1  0
 66 56  1  0
 68 70  2  0
 69 68  1  0
 71 69  1  0
 72 81  2  0
 72 77  1  0
 73 69  1  0
 73 77  1  0
 74 73  1  0
 75 76  1  0
 75 74  1  0
 76 72  1  0
 77 78  2  0
 78 79  1  0
 80 79  2  0
 81 80  1  0
 82 56  1  0
 82 87  1  0
 82 83  1  0
 83 86  1  1
 83 84  1  0
 85 83  1  0
 87 90  1  0
 88 92  1  0
 88 87  1  0
 89 88  2  0
 92 91  1  0
 94 92  1  0
 94 95  1  0
 94 93  1  0
M  ISO  4  11 100  19 100  54 101  55 101
M  END
>  <TORSDO>  (66) 
F 20

>  <SCORE>  (66) 
-13.211

>  <name>  (66) 
65

>  <ligand_id>  (66) 
65

>  <original_smiles>  (66) 
[H]c1c([H])c(N([H])C(=O)N2C([H])([H])C([H])([H])C([H])([H])C([H])(n3nc(-c4c([H])c([H])c(Oc5c([H])c([H])c(F)c([H])c5F)c([H])c4[H])c(C(=O)N([H])[H])c3N([H])[H])C2([H])[H])c(C(C([H])([H])[H])(C([H])([H])[H])C([H])([H])N([H])C(=O)C([H])([H])Oc2c([H])c([H])c3c(c2[H])C([H])([H])N(C(=O)C([H])(N([H])C(=O)C([H])(N([H])C([H])([H])[H])C([H])([H])[H])C(C([H])([H])[H])(C([H])([H])[H])C([H])([H])[H])C([H])(C(=O)N([H])C2([H])c4c([H])c([H])c([H])c([H])c4C([H])([H])C([H])([H])C2([H])[H])C3([H])[H])c(C([H])([H])[H])c1[H]

>  <smiles>  (66) 
[H]c1c([H])c(N([H])C(=O)N2C([H])([H])C([H])([H])C([H])([H])C([H])(n3nc(-c4c([H])c([H])c(Oc5c([H])c([H])c(F)c([H])c5F)c([H])c4[H])c(C(=O)N([H])[H])c3N([H])[H])C2([H])[H])c(C(C([H])([H])[H])(C([H])([H])[H])C([H])([H])N([H])C(=O)C([H])([H])Oc2c([H])c([H])c3c(c2[H])C([H])([H])N(C(=O)C([H])(N([H])C(=O)C([H])(N([H])C([H])([H])[H])C([H])([H])[H])C(C([H])([H])[H])(C([H])([H])[H])C([H])([H])[H])C([H])(C(=O)N([H])C2([H])c4c([H])c([H])c([H])c([H])c4C([H])([H])C([H])([H])C2([H])[H])C3([H])[H])c(C([H])([H])[H])c1[H]

$$$$
66:0:0
     RDKit          3D

 95103  0  0  1  0  0  0  0  0999 V2000
  -30.0040  -21.5050   19.5090 N   0  0  0  0  0  4  0  0  0  0  0  0
  -30.2840  -21.8940   20.3930 H   0  0  0  0  0  0  0  0  0  0  0  0
  -29.1240  -21.0390   19.6490 H   0  0  0  0  0  0  0  0  0  0  0  0
  -31.0070  -20.4880   19.1180 C   0  0  0  0  0  2  0  0  0  0  0  0
  -31.5400  -19.7860   21.4920 C   0  0  0  0  0  3  0  0  0  0  0  0
  -30.8910  -18.0490   19.9150 C   0  0  0  0  0  3  0  0  0  0  0  0
  -31.1510  -19.4120   20.1930 C   0  0  0  0  0  0  0  0  0  0  0  0
  -31.6010  -18.8350   22.5310 C   0  0  0  0  0  0  0  0  0  0  0  0
  -31.3000  -17.4740   22.2640 C   0  0  0  0  0  0  0  0  0  0  0  0
  -30.9720  -17.0710   20.9410 C   0  0  0  0  0  0  0  0  0  0  0  0
  -31.9830  -19.3140   23.9220 C   0  0  0  0  0  1  0  0  0  0  0  0
  -31.3150  -16.4590   23.4060 C   0  0  0  0  0  1  0  0  0  0  0  0
  -31.0810  -14.8850   19.7280 C   0  0  0  0  0  0  0  0  0  0  0  0
  -30.7170  -12.7240   18.5740 C   0  0  0  0  0  2  0  0  0  0  0  0
  -29.6480  -12.8540   17.4710 C   0  0  0  0  0  2  0  0  0  0  0  0
  -28.2330  -12.6700   18.0540 C   0  0  0  0  0  2  0  0  0  0  0  0
  -27.9930  -13.5400   19.3160 C   0  0  0  0  0  3  0  0  0  0  0  0
  -29.1540  -13.3640   20.3210 C   0  0  0  0  0  2  0  0  0  0  0  0
  -30.4170  -13.7000   19.6340 N   0  0  0  0  0  0  0  0  0  0  0  0
  -32.0420  -15.1740   19.0060 O   0  0  0  0  0  0  0  0  0  0  0  0
  -30.6240  -15.7140   20.6860 N   0  0  0  0  0  0  0  0  0  0  0  0
  -29.9550  -15.3000   21.3170 H   0  0  0  0  0  0  0  0  0  0  0  0
  -25.7130  -14.1150   20.3660 C   0  0  0  0  0  0  0  0  0  0  0  0
  -24.6790  -13.3280   20.7940 C   0  0  0  0  0  0  0  0  0  0  0  0
  -25.0990  -11.9790   20.5870 C   0  0  0  0  0  0  0  0  0  0  0  0
  -26.7000  -13.2450   19.9310 N   0  0  0  0  0  0  0  0  0  0  0  0
  -26.3390  -11.9490   20.1190 N   0  0  0  0  0  0  0  0  0  0  0  0
  -24.3720  -10.7120   20.7570 C   0  0  0  0  0  0  0  0  0  0  0  0
  -24.8050   -9.7310   21.6750 C   0  0  0  0  0  3  0  0  0  0  0  0
  -24.0810   -8.5300   21.8340 C   0  0  0  0  0  3  0  0  0  0  0  0
  -22.9090   -8.3020   21.0750 C   0  0  0  0  0  0  0  0  0  0  0  0
  -22.4930   -9.2730   20.1480 C   0  0  0  0  0  3  0  0  0  0  0  0
  -23.2190  -10.4660   19.9860 C   0  0  0  0  0  3  0  0  0  0  0  0
  -22.1590   -7.1530   21.1410 O   0  0  0  0  0  0  0  0  0  0  0  0
  -21.9660   -6.4870   22.3250 C   0  0  0  0  0  0  0  0  0  0  0  0
  -21.3390   -7.1020   23.4320 C   0  0  0  0  0  3  0  0  0  0  0  0
  -21.0970   -6.3590   24.6050 C   0  0  0  0  0  3  0  0  0  0  0  0
  -21.4720   -5.0030   24.6710 C   0  0  0  0  0  0  0  0  0  0  0  0
  -22.0920   -4.3900   23.5690 C   0  0  0  0  0  3  0  0  0  0  0  0
  -22.3360   -5.1300   22.3990 C   0  0  0  0  0  0  0  0  0  0  0  0
  -22.9130   -4.5280   21.3310 F   0  0  0  0  0  0  0  0  0  0  0  0
  -21.2330   -4.2880   25.7950 F   0  0  0  0  0  0  0  0  0  0  0  0
  -23.3370  -13.7980   21.2810 C   0  0  0  0  0  0  0  0  0  0  0  0
  -22.7190  -13.0530   22.1920 N   0  0  0  0  0  0  0  0  0  0  0  0
  -22.8490  -14.8580   20.8900 O   0  0  0  0  0  0  0  0  0  0  0  0
  -23.1270  -12.1960   22.5330 H   0  0  0  0  0  0  0  0  0  0  0  0
  -21.8260  -13.3500   22.5610 H   0  0  0  0  0  0  0  0  0  0  0  0
  -25.8890  -15.4930   20.2890 N   0  0  0  0  0  0  0  0  0  0  0  0
  -25.1680  -16.1530   20.5580 H   0  0  0  0  0  0  0  0  0  0  0  0
  -26.7150  -15.9420   19.9150 H   0  0  0  0  0  0  0  0  0  0  0  0
  -29.8170  -22.6260   18.5580 C   0  0  0  0  0  2  0  0  0  0  0  0
  -28.9010  -23.6740   19.1760 C   0  0  0  0  0  3  0  0  0  0  0  0
  -29.2860  -24.8820   19.6340 C   0  0  0  0  0  3  0  0  0  0  0  0
  -28.3590  -25.8530   20.3470 C   0  0  0  0  0  2  0  0  0  0  0  0
  -28.4590  -27.2010   19.8690 O   0  0  0  0  0  0  0  0  0  0  0  0
  -24.6390  -32.1030   23.3900 C   0  0  0  0  0  0  0  0  0  0  0  0
  -27.2860  -27.9200   19.9610 C   0  0  0  0  0  0  0  0  0  0  0  0
  -23.4220  -30.7900   21.6870 C   0  0  0  0  0  3  0  0  0  0  0  0
  -24.8690  -29.3770   20.1350 C   0  0  0  0  0  0  0  0  0  0  0  0
  -25.9420  -31.1970   21.4710 C   0  0  0  0  0  2  0  0  0  0  0  0
  -26.0330  -29.8770   20.7320 C   0  0  0  0  0  0  0  0  0  0  0  0
  -27.2460  -29.1570   20.6430 C   0  0  0  0  0  3  0  0  0  0  0  0
  -26.1070  -27.4390   19.3500 C   0  0  0  0  0  3  0  0  0  0  0  0
  -24.8990  -28.1560   19.4410 C   0  0  0  0  0  3  0  0  0  0  0  0
  -23.6130  -30.2090   20.2630 C   0  0  0  0  0  2  0  0  0  0  0  0
  -24.6860  -31.3760   22.2390 N   0  0  0  0  0  0  0  0  0  0  0  0
  -23.5640  -32.3240   23.9670 O   0  0  0  0  0  0  0  0  0  0  0  0
  -22.8090  -29.6960   22.5900 C   0  0  0  0  0  0  0  0  0  0  0  0
  -21.5000  -29.4470   22.4250 N   0  0  0  0  0  0  0  0  0  0  0  0
  -23.5080  -29.0770   23.3980 O   0  0  0  0  0  0  0  0  0  0  0  0
  -20.9950  -30.0000   21.7460 H   0  0  0  0  0  0  0  0  0  0  0  0
  -18.2060  -27.9960   22.7280 C   0  0  0  0  0  0  0  0  0  0  0  0
  -20.7190  -28.4410   23.1420 C   0  0  0  0  0  3  0  0  0  0  0  0
  -20.9590  -27.0290   22.5590 C   0  0  0  0  0  2  0  0  0  0  0  0
  -19.9420  -26.6400   21.4810 C   0  0  0  0  0  2  0  0  0  0  0  0
  -18.5190  -26.6750   22.0480 C   0  0  0  0  0  2  0  0  0  0  0  0
  -19.2410  -28.8330   23.2280 C   0  0  0  0  0  0  0  0  0  0  0  0
  -18.8950  -30.0680   23.8180 C   0  0  0  0  0  3  0  0  0  0  0  0
  -17.5490  -30.4660   23.9210 C   0  0  0  0  0  3  0  0  0  0  0  0
  -16.5280  -29.6260   23.4410 C   0  0  0  0  0  3  0  0  0  0  0  0
  -16.8590  -28.3940   22.8490 C   0  0  0  0  0  3  0  0  0  0  0  0
  -25.9270  -32.7170   24.0210 C   0  0  0  0  0  3  0  0  0  0  0  0
  -25.6320  -34.1180   24.3480 N   0  0  0  0  0  0  0  0  0  0  0  0
  -25.9800  -35.1660   23.5900 C   0  0  0  0  0  0  0  0  0  0  0  0
  -26.6520  -35.0550   22.5620 O   0  0  0  0  0  0  0  0  0  0  0  0
  -25.0330  -34.2790   25.1440 H   0  0  0  0  0  0  0  0  0  0  0  0
  -24.2590  -36.9680   23.2470 C   0  0  0  0  0  1  0  0  0  0  0  0
  -25.5050  -36.5580   24.0480 C   0  0  0  0  0  3  0  0  0  0  0  0
  -27.6490  -37.4350   24.8590 C   0  0  0  0  0  1  0  0  0  0  0  0
  -26.5420  -37.6050   23.9220 N   0  0  0  0  0  0  0  0  0  0  0  0
  -26.1420  -38.5270   24.0660 H   0  0  0  0  0  0  0  0  0  0  0  0
  -26.4270  -31.9390   25.3000 C   0  0  1  0  0  0  0  0  0  0  0  0
  -25.3180  -31.6850   26.3470 C   0  0  0  0  0  1  0  0  0  0  0  0
  -27.0300  -30.5690   24.9090 C   0  0  0  0  0  1  0  0  0  0  0  0
  -27.5580  -32.7410   25.9880 C   0  0  0  0  0  1  0  0  0  0  0  0
  1  3  1  0
  1  2  1  0
  4  1  1  0
  4  7  1  0
  5  8  1  0
  6  7  1  0
  6 10  2  0
  7  5  2  0
  8 11  1  0
  9  8  2  0
  9 12  1  0
 10  9  1  0
 13 21  1  0
 14 19  1  0
 15 16  1  0
 15 14  1  0
 17 16  1  0
 17 26  1  0
 17 18  1  0
 19 13  1  0
 19 18  1  0
 20 13  2  0
 21 10  1  0
 21 22  1  0
 23 24  2  0
 24 43  1  0
 25 28  1  0
 25 24  1  0
 26 27  1  0
 26 23  1  0
 27 25  2  0
 28 29  1  0
 29 30  2  0
 31 34  1  0
 31 30  1  0
 32 31  2  0
 33 32  1  0
 33 28  2  0
 34 35  1  0
 35 40  2  0
 35 36  1  0
 36 37  2  0
 37 38  1  0
 38 42  1  0
 39 38  2  0
 40 39  1  0
 41 40  1  0
 43 44  1  0
 44 46  1  0
 44 47  1  0
 45 43  2  0
 48 23  1  0
 48 49  1  0
 50 48  1  0
 51 52  1  0
 51  1  1  0
 52 53  2  0
 53 54  1  0
 55 57  1  0
 55 54  1  0
 56 67  2  0
 57 62  1  0
 58 66  1  0
 58 68  1  0
 59 65  1  0
 59 61  1  0
 60 66  1  0
 61 60  1  0
 62 61  2  0
 63 64  1  0
 63 57  2  0
 64 59  2  0
 65 58  1  0
 66 56  1  0
 68 70  2  0
 69 68  1  0
 71 69  1  0
 72 81  2  0
 72 77  1  0
 73 69  1  0
 73 77  1  0
 74 73  1  0
 75 76  1  0
 75 74  1  0
 76 72  1  0
 77 78  2  0
 78 79  1  0
 80 79  2  0
 81 80  1  0
 82 56  1  0
 82 83  1  0
 82 92  1  0
 83 86  1  0
 84 88  1  0
 84 83  1  0
 85 84  2  0
 88 87  1  0
 90 88  1  0
 90 91  1  0
 90 89  1  0
 92 95  1  1
 92 93  1  0
 94 92  1  0
M  ISO  4  13 100  21 100  54 101  55 101
M  END
>  <TORSDO>  (67) 
F 21

>  <SCORE>  (67) 
-9.434

>  <name>  (67) 
66

>  <ligand_id>  (67) 
66

>  <original_smiles>  (67) 
[H]C(=C([H])C([H])([H])[N+]([H])([H])C([H])([H])c1c([H])c(N([H])C(=O)N2C([H])([H])C([H])([H])C([H])([H])C([H])(n3nc(-c4c([H])c([H])c(Oc5c([H])c([H])c(F)c([H])c5F)c([H])c4[H])c(C(=O)N([H])[H])c3N([H])[H])C2([H])[H])c(C([H])([H])[H])c(C([H])([H])[H])c1[H])C([H])([H])Oc1c([H])c([H])c2c(c1[H])C([H])([H])N(C(=O)C([H])(N([H])C(=O)C([H])(N([H])C([H])([H])[H])C([H])([H])[H])C(C([H])([H])[H])(C([H])([H])[H])C([H])([H])[H])C([H])(C(=O)N([H])C1([H])c3c([H])c([H])c([H])c([H])c3C([H])([H])C([H])([H])C1([H])[H])C2([H])[H]

>  <smiles>  (67) 
[H]C(=C([H])C([H])([H])[N+]([H])([H])C([H])([H])c1c([H])c(N([H])C(=O)N2C([H])([H])C([H])([H])C([H])([H])C([H])(n3nc(-c4c([H])c([H])c(Oc5c([H])c([H])c(F)c([H])c5F)c([H])c4[H])c(C(=O)N([H])[H])c3N([H])[H])C2([H])[H])c(C([H])([H])[H])c(C([H])([H])[H])c1[H])C([H])([H])Oc1c([H])c([H])c2c(c1[H])C([H])([H])N(C(=O)C([H])(N([H])C(=O)C([H])(N([H])C([H])([H])[H])C([H])([H])[H])C(C([H])([H])[H])(C([H])([H])[H])C([H])([H])[H])C([H])(C(=O)N([H])C1([H])c3c([H])c([H])c([H])c([H])c3C([H])([H])C([H])([H])C1([H])[H])C2([H])[H]

$$$$
67:0:0
     RDKit          3D

103113  0  0  1  0  0  0  0  0999 V2000
  -31.3690  -18.2670   21.9500 C   0  0  0  0  0  3  0  0  0  0  0  0
  -30.0340  -18.7830   20.0040 C   0  0  0  0  0  0  0  0  0  0  0  0
  -31.3530  -19.6460   22.3510 C   0  0  0  0  0  0  0  0  0  0  0  0
  -30.0010  -20.1720   20.4080 C   0  0  0  0  0  0  0  0  0  0  0  0
  -30.6530  -20.6470   21.5920 C   0  0  0  0  0  0  0  0  0  0  0  0
  -30.6920  -17.7830   20.7990 C   0  0  0  0  0  0  0  0  0  0  0  0
  -32.0460  -19.9600   23.6750 C   0  0  0  0  0  1  0  0  0  0  0  0
  -29.1840  -21.1660   19.5780 C   0  0  0  0  0  1  0  0  0  0  0  0
  -31.3390  -15.2590   20.3110 C   0  0  0  0  0  0  0  0  0  0  0  0
  -31.0340  -13.1710   18.9880 C   0  0  0  0  0  2  0  0  0  0  0  0
  -30.0520  -13.4860   17.8390 C   0  0  0  0  0  2  0  0  0  0  0  0
  -28.5800  -13.3600   18.2940 C   0  0  0  0  0  2  0  0  0  0  0  0
  -28.3010  -14.0370   19.6630 C   0  0  0  0  0  3  0  0  0  0  0  0
  -29.3940  -13.6960   20.6980 C   0  0  0  0  0  2  0  0  0  0  0  0
  -30.6880  -14.0680   20.1080 N   0  0  0  0  0  0  0  0  0  0  0  0
  -32.5370  -15.3810   20.0360 O   0  0  0  0  0  0  0  0  0  0  0  0
  -30.5130  -16.3410   20.5180 N   0  0  0  0  0  0  0  0  0  0  0  0
  -29.5430  -16.0810   20.4310 H   0  0  0  0  0  0  0  0  0  0  0  0
  -25.9510  -14.6110   20.5170 C   0  0  0  0  0  0  0  0  0  0  0  0
  -24.8740  -13.8380   20.8400 C   0  0  0  0  0  0  0  0  0  0  0  0
  -25.3080  -12.4860   20.6970 C   0  0  0  0  0  0  0  0  0  0  0  0
  -26.9650  -13.7350   20.1660 N   0  0  0  0  0  0  0  0  0  0  0  0
  -26.5890  -12.4440   20.3440 N   0  0  0  0  0  0  0  0  0  0  0  0
  -24.5580  -11.2310   20.8180 C   0  0  0  0  0  0  0  0  0  0  0  0
  -24.9190  -10.2420   21.7580 C   0  0  0  0  0  3  0  0  0  0  0  0
  -24.1630   -9.0550   21.8730 C   0  0  0  0  0  3  0  0  0  0  0  0
  -23.0310   -8.8490   21.0480 C   0  0  0  0  0  0  0  0  0  0  0  0
  -22.6940   -9.8280   20.0950 C   0  0  0  0  0  3  0  0  0  0  0  0
  -23.4490  -11.0070   19.9790 C   0  0  0  0  0  3  0  0  0  0  0  0
  -22.2620   -7.7100   21.0760 O   0  0  0  0  0  0  0  0  0  0  0  0
  -21.9840   -7.0590   22.2510 C   0  0  0  0  0  0  0  0  0  0  0  0
  -21.3480   -7.7070   23.3320 C   0  0  0  0  0  3  0  0  0  0  0  0
  -21.0040   -6.9770   24.4900 C   0  0  0  0  0  3  0  0  0  0  0  0
  -21.2950   -5.6000   24.5650 C   0  0  0  0  0  0  0  0  0  0  0  0
  -21.9350   -4.9570   23.4930 C   0  0  0  0  0  3  0  0  0  0  0  0
  -22.2740   -5.6830   22.3380 C   0  0  0  0  0  0  0  0  0  0  0  0
  -22.8590   -5.0500   21.2930 F   0  0  0  0  0  0  0  0  0  0  0  0
  -20.9640   -4.8950   25.6710 F   0  0  0  0  0  0  0  0  0  0  0  0
  -23.4930  -14.3290   21.1690 C   0  0  0  0  0  0  0  0  0  0  0  0
  -22.7740  -13.6160   22.0280 N   0  0  0  0  0  0  0  0  0  0  0  0
  -23.0570  -15.3780   20.6940 O   0  0  0  0  0  0  0  0  0  0  0  0
  -23.1340  -12.7630   22.4310 H   0  0  0  0  0  0  0  0  0  0  0  0
  -21.8300  -13.9070   22.2530 H   0  0  0  0  0  0  0  0  0  0  0  0
  -26.1400  -15.9790   20.4810 N   0  0  0  0  0  0  0  0  0  0  0  0
  -25.3710  -16.6090   20.6800 H   0  0  0  0  0  0  0  0  0  0  0  0
  -26.9300  -16.4410   20.0480 H   0  0  0  0  0  0  0  0  0  0  0  0
  -28.0470  -18.4100   18.5710 C   0  0  0  0  0  3  0  0  0  0  0  0
  -29.3940  -18.4210   18.6980 C   0  0  0  0  0  0  0  0  0  0  0  0
  -27.2800  -18.2740   17.2600 C   0  0  0  0  0  2  0  0  0  0  0  0
  -30.2690  -18.2700   17.4530 C   0  0  0  0  0  2  0  0  0  0  0  0
  -28.1590  -17.7230   16.1290 C   0  0  0  0  0  2  0  0  0  0  0  0
  -29.5110  -18.4360   16.1160 C   0  0  0  0  0  2  0  0  0  0  0  0
  -30.4240  -22.1410   22.1180 C   0  0  0  0  0  2  0  0  0  0  0  0
  -31.5370  -23.2720   20.0270 C   0  0  0  0  0  0  0  0  0  0  0  0
  -32.7880  -22.8460   19.7540 C   0  0  0  0  0  3  0  0  0  0  0  0
  -30.5910  -23.8800   18.9890 C   0  0  0  0  0  2  0  0  0  0  0  0
  -30.1990  -25.3290   19.3020 C   0  0  0  0  0  2  0  0  0  0  0  0
  -30.3780  -24.7300   21.7690 C   0  0  0  0  0  2  0  0  0  0  0  0
  -29.5050  -25.4690   20.6630 C   0  0  0  0  0  3  0  0  0  0  0  0
  -33.8260  -22.3540   20.7430 C   0  0  0  0  0  1  0  0  0  0  0  0
  -31.0100  -23.3760   21.4320 N   0  0  1  0  0  4  0  0  0  0  0  0
  -31.8510  -23.4500   21.9850 H   0  0  0  0  0  0  0  0  0  0  0  0
  -29.3240  -26.9200   20.8870 O   0  0  0  0  0  0  0  0  0  0  0  0
  -24.8510  -31.9400   23.3430 C   0  0  0  0  0  0  0  0  0  0  0  0
  -28.1150  -27.5970   20.6570 C   0  0  0  0  0  0  0  0  0  0  0  0
  -23.9230  -30.4330   21.6150 C   0  0  0  0  0  3  0  0  0  0  0  0
  -25.6280  -28.9890   20.3630 C   0  0  0  0  0  0  0  0  0  0  0  0
  -26.4270  -30.9630   21.6680 C   0  0  0  0  0  2  0  0  0  0  0  0
  -26.6800  -29.5880   21.0660 C   0  0  0  0  0  0  0  0  0  0  0  0
  -27.9200  -28.9000   21.2050 C   0  0  0  0  0  3  0  0  0  0  0  0
  -27.0410  -27.0400   19.9180 C   0  0  0  0  0  3  0  0  0  0  0  0
  -25.8120  -27.7230   19.7760 C   0  0  0  0  0  3  0  0  0  0  0  0
  -24.3220  -29.7550   20.2760 C   0  0  0  0  0  2  0  0  0  0  0  0
  -25.0780  -31.1310   22.2670 N   0  0  0  0  0  0  0  0  0  0  0  0
  -23.7040  -32.1380   23.7660 O   0  0  0  0  0  0  0  0  0  0  0  0
  -23.2480  -29.3840   22.5300 C   0  0  0  0  0  0  0  0  0  0  0  0
  -21.9330  -29.1810   22.3430 N   0  0  0  0  0  0  0  0  0  0  0  0
  -23.9070  -28.7540   23.3610 O   0  0  0  0  0  0  0  0  0  0  0  0
  -21.4640  -29.7380   21.6430 H   0  0  0  0  0  0  0  0  0  0  0  0
  -18.5380  -28.0050   22.7650 C   0  0  0  0  0  0  0  0  0  0  0  0
  -21.0990  -28.2090   23.0540 C   0  0  0  0  0  3  0  0  0  0  0  0
  -21.1810  -26.8160   22.3850 C   0  0  0  0  0  2  0  0  0  0  0  0
  -20.0750  -26.5760   21.3530 C   0  0  0  0  0  2  0  0  0  0  0  0
  -18.6940  -26.6990   22.0060 C   0  0  0  0  0  2  0  0  0  0  0  0
  -19.6670  -28.7230   23.2420 C   0  0  0  0  0  0  0  0  0  0  0  0
  -19.4600  -29.9490   23.9080 C   0  0  0  0  0  3  0  0  0  0  0  0
  -18.1620  -30.4540   24.1120 C   0  0  0  0  0  3  0  0  0  0  0  0
  -17.0490  -29.7270   23.6570 C   0  0  0  0  0  3  0  0  0  0  0  0
  -17.2390  -28.5080   22.9850 C   0  0  0  0  0  3  0  0  0  0  0  0
  -26.0180  -32.6700   24.0750 C   0  0  0  0  0  3  0  0  0  0  0  0
  -26.4340  -31.9730   25.4300 C   0  0  1  0  0  0  0  0  0  0  0  0
  -25.2280  -31.5770   26.3130 C   0  0  0  0  0  1  0  0  0  0  0  0
  -27.2630  -30.6940   25.1580 C   0  0  0  0  0  1  0  0  0  0  0  0
  -27.3330  -32.9250   26.2540 C   0  0  0  0  0  1  0  0  0  0  0  0
  -25.5900  -34.0570   24.3150 N   0  0  0  0  0  0  0  0  0  0  0  0
  -25.9260  -35.1020   23.5450 C   0  0  0  0  0  0  0  0  0  0  0  0
  -26.6970  -35.0070   22.5860 O   0  0  0  0  0  0  0  0  0  0  0  0
  -24.9200  -34.1980   25.0560 H   0  0  0  0  0  0  0  0  0  0  0  0
  -24.1310  -36.7620   22.9610 C   0  0  0  0  0  1  0  0  0  0  0  0
  -25.3120  -36.4700   23.8980 C   0  0  0  0  0  3  0  0  0  0  0  0
  -27.3360  -37.5020   24.8380 C   0  0  0  0  0  1  0  0  0  0  0  0
  -26.2810  -37.5850   23.8310 N   0  0  0  0  0  0  0  0  0  0  0  0
  -25.8080  -38.4780   23.9390 H   0  0  0  0  0  0  0  0  0  0  0  0
  1  3  1  0
  2  4  2  0
  2  6  1  0
  3  7  1  0
  4  5  1  0
  5 53  1  0
  5  3  2  0
  6  1  2  0
  8  4  1  0
  9 17  1  0
 10 15  1  0
 11 12  1  0
 11 10  1  0
 13 12  1  0
 13 22  1  0
 13 14  1  0
 15  9  1  0
 15 14  1  0
 16  9  2  0
 17  6  1  0
 18 17  1  0
 19 20  2  0
 20 39  1  0
 21 24  1  0
 21 20  1  0
 22 23  1  0
 22 19  1  0
 23 21  2  0
 24 25  1  0
 25 26  2  0
 27 30  1  0
 27 26  1  0
 28 27  2  0
 29 28  1  0
 29 24  2  0
 30 31  1  0
 31 36  2  0
 31 32  1  0
 32 33  2  0
 33 34  1  0
 34 38  1  0
 35 34  2  0
 36 35  1  0
 37 36  1  0
 39 40  1  0
 40 43  1  0
 40 42  1  0
 41 39  2  0
 44 19  1  0
 44 45  1  0
 46 44  1  0
 47 48  2  0
 48  2  1  0
 49 47  1  0
 50 48  1  0
 51 49  1  0
 52 51  1  0
 52 50  1  0
 54 61  1  0
 55 54  2  0
 55 60  1  0
 56 57  1  0
 56 54  1  0
 57 59  1  0
 59 63  1  0
 59 58  1  0
 61 58  1  0
 61 62  1  1
 61 53  1  0
 64 75  2  0
 65 63  1  0
 65 70  1  0
 66 74  1  0
 66 76  1  0
 67 69  1  0
 68 74  1  0
 69 70  2  0
 69 68  1  0
 71 65  2  0
 72 71  1  0
 72 67  2  0
 73 67  1  0
 73 66  1  0
 74 64  1  0
 76 78  2  0
 77 76  1  0
 79 77  1  0
 80 89  2  0
 80 85  1  0
 81 77  1  0
 81 85  1  0
 82 81  1  0
 83 84  1  0
 83 82  1  0
 84 80  1  0
 85 86  2  0
 86 87  1  0
 88 87  2  0
 89 88  1  0
 90 64  1  0
 90 95  1  0
 90 91  1  0
 91 94  1  1
 91 92  1  0
 93 91  1  0
 95 98  1  0
 96100  1  0
 96 95  1  0
 97 96  2  0
100 99  1  0
102100  1  0
102103  1  0
102101  1  0
M  ISO  4   9 100  17 100  59 101  63 101
M  END
>  <TORSDO>  (68) 
F 19

>  <SCORE>  (68) 
-10.352

>  <name>  (68) 
67

>  <ligand_id>  (68) 
67

>  <original_smiles>  (68) 
[H]C(=C1C([H])([H])C([H])([H])C([H])(Oc2c([H])c([H])c3c(c2[H])C([H])([H])N(C(=O)C([H])(N([H])C(=O)C([H])(N([H])C([H])([H])[H])C([H])([H])[H])C(C([H])([H])[H])(C([H])([H])[H])C([H])([H])[H])C([H])(C(=O)N([H])C2([H])c4c([H])c([H])c([H])c([H])c4C([H])([H])C([H])([H])C2([H])[H])C3([H])[H])C([H])([H])[N+]1([H])C([H])([H])c1c(C([H])([H])[H])c([H])c(N([H])C(=O)N2C([H])([H])C([H])([H])C([H])([H])C([H])(n3nc(-c4c([H])c([H])c(Oc5c([H])c([H])c(F)c([H])c5F)c([H])c4[H])c(C(=O)N([H])[H])c3N([H])[H])C2([H])[H])c(C2=C([H])C([H])([H])C([H])([H])C([H])([H])C2([H])[H])c1C([H])([H])[H])C([H])([H])[H]

>  <smiles>  (68) 
[H]C(=C1C([H])([H])C([H])([H])C([H])(Oc2c([H])c([H])c3c(c2[H])C([H])([H])N(C(=O)C([H])(N([H])C(=O)C([H])(N([H])C([H])([H])[H])C([H])([H])[H])C(C([H])([H])[H])(C([H])([H])[H])C([H])([H])[H])C([H])(C(=O)N([H])C2([H])c4c([H])c([H])c([H])c([H])c4C([H])([H])C([H])([H])C2([H])[H])C3([H])[H])C([H])([H])[N+]1([H])C([H])([H])c1c(C([H])([H])[H])c([H])c(N([H])C(=O)N2C([H])([H])C([H])([H])C([H])([H])C([H])(n3nc(-c4c([H])c([H])c(Oc5c([H])c([H])c(F)c([H])c5F)c([H])c4[H])c(C(=O)N([H])[H])c3N([H])[H])C2([H])[H])c(C2=C([H])C([H])([H])C([H])([H])C([H])([H])C2([H])[H])c1C([H])([H])[H])C([H])([H])[H]

$$$$
68:0:0
     RDKit          3D

 95103  0  0  1  0  0  0  0  0999 V2000
  -28.8360  -20.8540   21.7080 C   0  0  0  0  0  2  0  0  0  0  0  0
  -30.9140  -18.2780   18.8450 C   0  0  0  0  0  3  0  0  0  0  0  0
  -30.1700  -19.3750   18.3890 C   0  0  0  0  0  3  0  0  0  0  0  0
  -30.9970  -17.9900   20.2210 C   0  0  0  0  0  0  0  0  0  0  0  0
  -30.3250  -18.8240   21.1580 C   0  0  0  0  0  0  0  0  0  0  0  0
  -29.5650  -19.9450   20.6990 C   0  0  0  0  0  0  0  0  0  0  0  0
  -29.4990  -20.2010   19.3020 C   0  0  0  0  0  0  0  0  0  0  0  0
  -30.4400  -18.5020   22.6480 C   0  0  0  0  0  1  0  0  0  0  0  0
  -28.7860  -21.2400   18.8060 F   0  0  0  0  0  0  0  0  0  0  0  0
  -31.8300  -16.7740   20.6380 C   0  0  0  0  0  2  0  0  0  0  0  0
  -31.5170  -14.5370   19.5840 C   0  0  0  0  0  0  0  0  0  0  0  0
  -31.0840  -12.2610   18.7380 C   0  0  0  0  0  2  0  0  0  0  0  0
  -30.0560  -12.2700   17.5930 C   0  0  0  0  0  2  0  0  0  0  0  0
  -28.6230  -12.1990   18.1510 C   0  0  0  0  0  2  0  0  0  0  0  0
  -28.3680  -13.2390   19.2740 C   0  0  0  0  0  3  0  0  0  0  0  0
  -29.5000  -13.2060   20.3250 C   0  0  0  0  0  2  0  0  0  0  0  0
  -30.7890  -13.3900   19.6330 N   0  0  0  0  0  0  0  0  0  0  0  0
  -32.4890  -14.6840   18.8400 O   0  0  0  0  0  0  0  0  0  0  0  0
  -31.1380  -15.5030   20.4310 N   0  0  0  0  0  0  0  0  0  0  0  0
  -30.3370  -15.3120   21.0140 H   0  0  0  0  0  0  0  0  0  0  0  0
  -26.1190  -13.9970   20.2750 C   0  0  0  0  0  0  0  0  0  0  0  0
  -25.0350  -13.2920   20.7240 C   0  0  0  0  0  0  0  0  0  0  0  0
  -25.3700  -11.9120   20.5740 C   0  0  0  0  0  0  0  0  0  0  0  0
  -27.0540  -13.0490   19.8860 N   0  0  0  0  0  0  0  0  0  0  0  0
  -26.6110  -11.7870   20.1200 N   0  0  0  0  0  0  0  0  0  0  0  0
  -24.5630  -10.7040   20.7830 C   0  0  0  0  0  0  0  0  0  0  0  0
  -24.9290   -9.7250   21.7340 C   0  0  0  0  0  3  0  0  0  0  0  0
  -24.1260   -8.5810   21.9290 C   0  0  0  0  0  3  0  0  0  0  0  0
  -22.9430   -8.4060   21.1730 C   0  0  0  0  0  0  0  0  0  0  0  0
  -22.5950   -9.3720   20.2130 C   0  0  0  0  0  3  0  0  0  0  0  0
  -23.3970  -10.5080   20.0150 C   0  0  0  0  0  3  0  0  0  0  0  0
  -22.1150   -7.3140   21.2770 O   0  0  0  0  0  0  0  0  0  0  0  0
  -21.8930   -6.6920   22.4790 C   0  0  0  0  0  0  0  0  0  0  0  0
  -21.3410   -7.3770   23.5840 C   0  0  0  0  0  3  0  0  0  0  0  0
  -21.0650   -6.6820   24.7780 C   0  0  0  0  0  3  0  0  0  0  0  0
  -21.3290   -5.3020   24.8670 C   0  0  0  0  0  0  0  0  0  0  0  0
  -21.8730   -4.6160   23.7660 C   0  0  0  0  0  3  0  0  0  0  0  0
  -22.1510   -5.3090   22.5750 C   0  0  0  0  0  0  0  0  0  0  0  0
  -22.6550   -4.6390   21.5100 F   0  0  0  0  0  0  0  0  0  0  0  0
  -21.0570   -4.6320   26.0110 F   0  0  0  0  0  0  0  0  0  0  0  0
  -23.7220  -13.8640   21.1780 C   0  0  0  0  0  0  0  0  0  0  0  0
  -23.0480  -13.1900   22.1040 N   0  0  0  0  0  0  0  0  0  0  0  0
  -23.3100  -14.9400   20.7470 O   0  0  0  0  0  0  0  0  0  0  0  0
  -23.3960  -12.3180   22.4720 H   0  0  0  0  0  0  0  0  0  0  0  0
  -22.1710  -13.5530   22.4490 H   0  0  0  0  0  0  0  0  0  0  0  0
  -26.3820  -15.3570   20.1490 N   0  0  0  0  0  0  0  0  0  0  0  0
  -25.6950  -16.0670   20.3790 H   0  0  0  0  0  0  0  0  0  0  0  0
  -27.2370  -15.7430   19.7650 H   0  0  0  0  0  0  0  0  0  0  0  0
  -28.1630  -22.0390   21.1350 N   0  0  0  0  0  4  0  0  0  0  0  0
  -27.1900  -22.0040   21.3930 H   0  0  0  0  0  0  0  0  0  0  0  0
  -28.2290  -21.9360   20.1290 H   0  0  0  0  0  0  0  0  0  0  0  0
  -28.7330  -23.3500   21.5200 C   0  0  0  0  0  2  0  0  0  0  0  0
  -28.2490  -24.4830   20.5920 C   0  0  0  0  0  2  0  0  0  0  0  0
  -28.7720  -25.8700   21.0080 C   0  0  0  0  0  2  0  0  0  0  0  0
  -28.5590  -26.8310   19.9770 O   0  0  0  0  0  0  0  0  0  0  0  0
  -24.6870  -31.8420   23.2250 C   0  0  0  0  0  0  0  0  0  0  0  0
  -27.3720  -27.5110   20.0520 C   0  0  0  0  0  0  0  0  0  0  0  0
  -23.4820  -30.4400   21.5800 C   0  0  0  0  0  3  0  0  0  0  0  0
  -24.9430  -28.9430   20.1210 C   0  0  0  0  0  0  0  0  0  0  0  0
  -25.9940  -30.8510   21.3510 C   0  0  0  0  0  2  0  0  0  0  0  0
  -26.0960  -29.4890   20.7020 C   0  0  0  0  0  0  0  0  0  0  0  0
  -27.3140  -28.7780   20.6690 C   0  0  0  0  0  3  0  0  0  0  0  0
  -26.2100  -26.9710   19.4640 C   0  0  0  0  0  3  0  0  0  0  0  0
  -24.9930  -27.6800   19.5030 C   0  0  0  0  0  3  0  0  0  0  0  0
  -23.6840  -29.7760   20.1910 C   0  0  0  0  0  2  0  0  0  0  0  0
  -24.7390  -31.0600   22.1100 N   0  0  0  0  0  0  0  0  0  0  0  0
  -23.6100  -32.0890   23.7850 O   0  0  0  0  0  0  0  0  0  0  0  0
  -22.8620  -29.3970   22.5370 C   0  0  0  0  0  0  0  0  0  0  0  0
  -21.5540  -29.1430   22.3780 N   0  0  0  0  0  0  0  0  0  0  0  0
  -23.5580  -28.8190   23.3770 O   0  0  0  0  0  0  0  0  0  0  0  0
  -21.0540  -29.6650   21.6720 H   0  0  0  0  0  0  0  0  0  0  0  0
  -18.2510  -27.7290   22.7500 C   0  0  0  0  0  0  0  0  0  0  0  0
  -20.7680  -28.1720   23.1370 C   0  0  0  0  0  3  0  0  0  0  0  0
  -20.9960  -26.7360   22.6090 C   0  0  0  0  0  2  0  0  0  0  0  0
  -19.9700  -26.3110   21.5540 C   0  0  0  0  0  2  0  0  0  0  0  0
  -18.5520  -26.3770   22.1260 C   0  0  0  0  0  2  0  0  0  0  0  0
  -19.2920  -28.5790   23.2100 C   0  0  0  0  0  0  0  0  0  0  0  0
  -18.9600  -29.8410   23.7490 C   0  0  0  0  0  3  0  0  0  0  0  0
  -17.6170  -30.2550   23.8360 C   0  0  0  0  0  3  0  0  0  0  0  0
  -16.5890  -29.4040   23.3950 C   0  0  0  0  0  3  0  0  0  0  0  0
  -16.9070  -28.1440   22.8560 C   0  0  0  0  0  3  0  0  0  0  0  0
  -25.9720  -32.4850   23.8350 C   0  0  0  0  0  3  0  0  0  0  0  0
  -25.6470  -33.8730   24.1870 N   0  0  0  0  0  0  0  0  0  0  0  0
  -25.9500  -34.9390   23.4350 C   0  0  0  0  0  0  0  0  0  0  0  0
  -26.6060  -34.8580   22.3910 O   0  0  0  0  0  0  0  0  0  0  0  0
  -25.0600  -34.0070   24.9970 H   0  0  0  0  0  0  0  0  0  0  0  0
  -24.1830  -36.7010   23.1330 C   0  0  0  0  0  1  0  0  0  0  0  0
  -25.4470  -36.3130   23.9150 C   0  0  0  0  0  3  0  0  0  0  0  0
  -27.5790  -37.2330   24.7140 C   0  0  0  0  0  1  0  0  0  0  0  0
  -26.4580  -37.3850   23.7900 N   0  0  0  0  0  0  0  0  0  0  0  0
  -26.0380  -38.2970   23.9500 H   0  0  0  0  0  0  0  0  0  0  0  0
  -26.5230  -31.7030   25.0900 C   0  0  1  0  0  0  0  0  0  0  0  0
  -25.4470  -31.4130   26.1620 C   0  0  0  0  0  1  0  0  0  0  0  0
  -27.1410  -30.3510   24.6620 C   0  0  0  0  0  1  0  0  0  0  0  0
  -27.6580  -32.5150   25.7570 C   0  0  0  0  0  1  0  0  0  0  0  0
  2  4  1  0
  3  2  2  0
  3  7  1  0
  4 10  1  0
  4  5  2  0
  5  8  1  0
  6  5  1  0
  6  1  1  0
  7  6  2  0
  9  7  1  0
 11 17  1  0
 11 19  1  0
 12 17  1  0
 13 14  1  0
 13 12  1  0
 15 14  1  0
 15 24  1  0
 15 16  1  0
 17 16  1  0
 18 11  2  0
 19 10  1  0
 19 20  1  0
 21 22  2  0
 22 41  1  0
 23 22  1  0
 23 26  1  0
 24 25  1  0
 24 21  1  0
 25 23  2  0
 26 27  1  0
 27 28  2  0
 29 32  1  0
 29 28  1  0
 30 29  2  0
 31 30  1  0
 31 26  2  0
 32 33  1  0
 33 38  2  0
 33 34  1  0
 34 35  2  0
 35 36  1  0
 36 40  1  0
 37 36  2  0
 38 37  1  0
 39 38  1  0
 41 42  1  0
 42 45  1  0
 42 44  1  0
 43 41  2  0
 46 21  1  0
 46 47  1  0
 48 46  1  0
 49 50  1  0
 49 52  1  0
 49  1  1  0
 51 49  1  0
 53 54  1  0
 53 52  1  0
 55 57  1  0
 55 54  1  0
 56 67  2  0
 57 62  1  0
 58 66  1  0
 58 68  1  0
 59 65  1  0
 59 61  1  0
 60 66  1  0
 61 60  1  0
 62 61  2  0
 63 64  1  0
 63 57  2  0
 64 59  2  0
 65 58  1  0
 66 56  1  0
 68 70  2  0
 69 68  1  0
 71 69  1  0
 72 81  2  0
 72 77  1  0
 73 69  1  0
 73 77  1  0
 74 73  1  0
 75 76  1  0
 75 74  1  0
 76 72  1  0
 77 78  2  0
 78 79  1  0
 80 79  2  0
 81 80  1  0
 82 56  1  0
 82 83  1  0
 82 92  1  0
 83 86  1  0
 84 88  1  0
 84 83  1  0
 85 84  2  0
 88 87  1  0
 90 88  1  0
 90 91  1  0
 90 89  1  0
 92 95  1  1
 92 93  1  0
 94 92  1  0
M  ISO  4  11 100  19 100  54 101  55 101
M  END
>  <TORSDO>  (69) 
F 22

>  <SCORE>  (69) 
-11.605

>  <name>  (69) 
68

>  <ligand_id>  (69) 
68

>  <original_smiles>  (69) 
[H]c1c([H])c([H])c2c(c1[H])C([H])([H])C([H])([H])C([H])([H])C2([H])N([H])C(=O)C1([H])N(C(=O)C([H])(N([H])C(=O)C([H])(N([H])C([H])([H])[H])C([H])([H])[H])C(C([H])([H])[H])(C([H])([H])[H])C([H])([H])[H])C([H])([H])c2c([H])c(OC([H])([H])C([H])([H])C([H])([H])[N+]([H])([H])C([H])([H])c3c(F)c([H])c([H])c(C([H])([H])N([H])C(=O)N4C([H])([H])C([H])([H])C([H])([H])C([H])(n5nc(-c6c([H])c([H])c(Oc7c([H])c([H])c(F)c([H])c7F)c([H])c6[H])c(C(=O)N([H])[H])c5N([H])[H])C4([H])[H])c3C([H])([H])[H])c([H])c([H])c2C1([H])[H]

>  <smiles>  (69) 
[H]c1c([H])c([H])c2c(c1[H])C([H])([H])C([H])([H])C([H])([H])C2([H])N([H])C(=O)C1([H])N(C(=O)C([H])(N([H])C(=O)C([H])(N([H])C([H])([H])[H])C([H])([H])[H])C(C([H])([H])[H])(C([H])([H])[H])C([H])([H])[H])C([H])([H])c2c([H])c(OC([H])([H])C([H])([H])C([H])([H])[N+]([H])([H])C([H])([H])c3c(F)c([H])c([H])c(C([H])([H])N([H])C(=O)N4C([H])([H])C([H])([H])C([H])([H])C([H])(n5nc(-c6c([H])c([H])c(Oc7c([H])c([H])c(F)c([H])c7F)c([H])c6[H])c(C(=O)N([H])[H])c5N([H])[H])C4([H])[H])c3C([H])([H])[H])c([H])c([H])c2C1([H])[H]

$$$$
69:0:0
     RDKit          3D

 97106  0  0  1  0  0  0  0  0999 V2000
  -30.1650  -24.7700   22.7400 C   0  0  0  0  0  2  0  0  0  0  0  0
  -29.6990  -25.7120   21.6280 C   0  0  0  0  0  2  0  0  0  0  0  0
  -30.5980  -23.3850   22.2420 C   0  0  0  0  0  2  0  0  0  0  0  0
  -28.9470  -23.9380   19.8480 C   0  0  0  0  0  2  0  0  0  0  0  0
  -28.5550  -25.2410   20.7000 C   0  0  0  0  0  3  0  0  0  0  0  0
  -29.3780  -22.5000   21.9200 C   0  0  0  0  0  3  0  0  0  0  0  0
  -29.5030  -21.1200   22.5970 C   0  0  0  0  0  1  0  0  0  0  0  0
  -28.9780  -22.5270   20.4730 N   0  0  2  0  0  4  0  0  0  0  0  0
  -28.0090  -22.2450   20.5070 H   0  0  0  0  0  0  0  0  0  0  0  0
  -28.4090  -26.4770   19.9110 O   0  0  0  0  0  0  0  0  0  0  0  0
  -24.5400  -31.7110   23.0750 C   0  0  0  0  0  0  0  0  0  0  0  0
  -27.2510  -27.2460   20.0010 C   0  0  0  0  0  0  0  0  0  0  0  0
  -23.3720  -30.3140   21.4070 C   0  0  0  0  0  3  0  0  0  0  0  0
  -24.8560  -28.7910   19.9900 C   0  0  0  0  0  0  0  0  0  0  0  0
  -25.9030  -30.6820   21.2450 C   0  0  0  0  0  2  0  0  0  0  0  0
  -26.0100  -29.3070   20.5950 C   0  0  0  0  0  0  0  0  0  0  0  0
  -27.2150  -28.5460   20.5900 C   0  0  0  0  0  3  0  0  0  0  0  0
  -26.0770  -26.7650   19.3920 C   0  0  0  0  0  3  0  0  0  0  0  0
  -24.8880  -27.5230   19.3840 C   0  0  0  0  0  3  0  0  0  0  0  0
  -23.6060  -29.6470   20.0260 C   0  0  0  0  0  2  0  0  0  0  0  0
  -24.6230  -30.9190   21.9670 N   0  0  0  0  0  0  0  0  0  0  0  0
  -23.4480  -31.9660   23.6050 O   0  0  0  0  0  0  0  0  0  0  0  0
  -22.7140  -29.2800   22.3510 C   0  0  0  0  0  0  0  0  0  0  0  0
  -21.3900  -29.1000   22.2190 N   0  0  0  0  0  0  0  0  0  0  0  0
  -23.3950  -28.6390   23.1550 O   0  0  0  0  0  0  0  0  0  0  0  0
  -20.9000  -29.6700   21.5430 H   0  0  0  0  0  0  0  0  0  0  0  0
  -18.0110  -27.9100   22.7160 C   0  0  0  0  0  0  0  0  0  0  0  0
  -20.5730  -28.1480   22.9720 C   0  0  0  0  0  3  0  0  0  0  0  0
  -20.6620  -26.7320   22.3580 C   0  0  0  0  0  2  0  0  0  0  0  0
  -19.5520  -26.4420   21.3450 C   0  0  0  0  0  2  0  0  0  0  0  0
  -18.1750  -26.5770   22.0050 C   0  0  0  0  0  2  0  0  0  0  0  0
  -19.1370  -28.6540   23.1560 C   0  0  0  0  0  0  0  0  0  0  0  0
  -18.9310  -29.9020   23.7820 C   0  0  0  0  0  3  0  0  0  0  0  0
  -17.6310  -30.4060   23.9730 C   0  0  0  0  0  3  0  0  0  0  0  0
  -16.5180  -29.6580   23.5490 C   0  0  0  0  0  3  0  0  0  0  0  0
  -16.7090  -28.4120   22.9270 C   0  0  0  0  0  3  0  0  0  0  0  0
  -25.8080  -32.3520   23.7180 C   0  0  0  0  0  3  0  0  0  0  0  0
  -25.4680  -33.7350   24.0830 N   0  0  0  0  0  0  0  0  0  0  0  0
  -25.7890  -34.8150   23.3540 C   0  0  0  0  0  0  0  0  0  0  0  0
  -26.4710  -34.7530   22.3290 O   0  0  0  0  0  0  0  0  0  0  0  0
  -24.8580  -33.8580   24.8780 H   0  0  0  0  0  0  0  0  0  0  0  0
  -24.0320  -36.5850   23.0360 C   0  0  0  0  0  1  0  0  0  0  0  0
  -25.2730  -36.1800   23.8470 C   0  0  0  0  0  3  0  0  0  0  0  0
  -27.3850  -37.0790   24.7220 C   0  0  0  0  0  1  0  0  0  0  0  0
  -26.2890  -37.2540   23.7710 N   0  0  0  0  0  0  0  0  0  0  0  0
  -25.8640  -38.1610   23.9400 H   0  0  0  0  0  0  0  0  0  0  0  0
  -26.3400  -31.5570   24.9730 C   0  0  1  0  0  0  0  0  0  0  0  0
  -25.2530  -31.2680   26.0330 C   0  0  0  0  0  1  0  0  0  0  0  0
  -26.9540  -30.2040   24.5430 C   0  0  0  0  0  1  0  0  0  0  0  0
  -27.4720  -32.3590   25.6560 C   0  0  0  0  0  1  0  0  0  0  0  0
  -29.6000  -21.4860   19.5350 C   0  0  0  0  0  2  0  0  0  0  0  0
  -28.7120  -17.6860   20.2580 C   0  0  0  0  0  3  0  0  0  0  0  0
  -31.0970  -17.8430   20.0870 C   0  0  0  0  0  3  0  0  0  0  0  0
  -28.5730  -19.0840   20.0160 C   0  0  0  0  0  0  0  0  0  0  0  0
  -30.9820  -19.2520   19.8610 C   0  0  0  0  0  0  0  0  0  0  0  0
  -29.7140  -19.9280   19.8440 C   0  0  0  0  0  0  0  0  0  0  0  0
  -29.9620  -17.0250   20.3030 C   0  0  0  0  0  0  0  0  0  0  0  0
  -27.1520  -19.6200   19.9300 C   0  0  0  0  0  1  0  0  0  0  0  0
  -32.2730  -20.0160   19.6110 C   0  0  0  0  0  1  0  0  0  0  0  0
  -30.7940  -14.5650   20.2170 C   0  0  0  0  0  0  0  0  0  0  0  0
  -30.5520  -12.3480   19.1390 C   0  0  0  0  0  2  0  0  0  0  0  0
  -29.5870  -12.5240   17.9450 C   0  0  0  0  0  2  0  0  0  0  0  0
  -28.1170  -12.3870   18.3940 C   0  0  0  0  0  2  0  0  0  0  0  0
  -27.7960  -13.2300   19.6560 C   0  0  0  0  0  3  0  0  0  0  0  0
  -28.8710  -13.0190   20.7490 C   0  0  0  0  0  2  0  0  0  0  0  0
  -30.1800  -13.3440   20.1580 N   0  0  0  0  0  0  0  0  0  0  0  0
  -31.9510  -14.7340   19.8220 O   0  0  0  0  0  0  0  0  0  0  0  0
  -29.9670  -15.5920   20.5720 N   0  0  0  0  0  0  0  0  0  0  0  0
  -29.0820  -15.2360   20.9000 H   0  0  0  0  0  0  0  0  0  0  0  0
  -25.4140  -13.8580   20.4000 C   0  0  0  0  0  0  0  0  0  0  0  0
  -24.3470  -13.0970   20.7910 C   0  0  0  0  0  0  0  0  0  0  0  0
  -24.7950  -11.7410   20.7580 C   0  0  0  0  0  0  0  0  0  0  0  0
  -26.4480  -12.9670   20.1570 N   0  0  0  0  0  0  0  0  0  0  0  0
  -26.0800  -11.6890   20.4330 N   0  0  0  0  0  0  0  0  0  0  0  0
  -24.0610  -10.4870   20.9630 C   0  0  0  0  0  0  0  0  0  0  0  0
  -24.4910   -9.5260   21.9040 C   0  0  0  0  0  3  0  0  0  0  0  0
  -23.7600   -8.3330   22.0950 C   0  0  0  0  0  3  0  0  0  0  0  0
  -22.5840   -8.0930   21.3450 C   0  0  0  0  0  0  0  0  0  0  0  0
  -22.1730   -9.0420   20.3920 C   0  0  0  0  0  3  0  0  0  0  0  0
  -22.9050  -10.2260   20.1990 C   0  0  0  0  0  3  0  0  0  0  0  0
  -21.8220   -6.9540   21.4470 O   0  0  0  0  0  0  0  0  0  0  0  0
  -21.7570   -6.2330   22.6120 C   0  0  0  0  0  0  0  0  0  0  0  0
  -21.3280   -6.8150   23.8260 C   0  0  0  0  0  3  0  0  0  0  0  0
  -21.2100   -6.0200   24.9830 C   0  0  0  0  0  3  0  0  0  0  0  0
  -21.5100   -4.6460   24.9290 C   0  0  0  0  0  0  0  0  0  0  0  0
  -21.9310   -4.0640   23.7200 C   0  0  0  0  0  3  0  0  0  0  0  0
  -22.0520   -4.8560   22.5650 C   0  0  0  0  0  0  0  0  0  0  0  0
  -22.4380   -4.2860   21.3970 F   0  0  0  0  0  0  0  0  0  0  0  0
  -21.3890   -3.8810   26.0390 F   0  0  0  0  0  0  0  0  0  0  0  0
  -22.9570  -13.5850   21.0770 C   0  0  0  0  0  0  0  0  0  0  0  0
  -22.2320  -12.9020   21.9580 N   0  0  0  0  0  0  0  0  0  0  0  0
  -22.5200  -14.6080   20.5520 O   0  0  0  0  0  0  0  0  0  0  0  0
  -22.5940  -12.0750   22.4080 H   0  0  0  0  0  0  0  0  0  0  0  0
  -21.2980  -13.2160   22.1850 H   0  0  0  0  0  0  0  0  0  0  0  0
  -25.5840  -15.2260   20.2080 N   0  0  0  0  0  0  0  0  0  0  0  0
  -24.8060  -15.8720   20.2940 H   0  0  0  0  0  0  0  0  0  0  0  0
  -26.3930  -15.6400   19.7660 H   0  0  0  0  0  0  0  0  0  0  0  0
  2  1  1  0
  3  1  1  0
  4  8  1  0
  4  5  1  0
  5 10  1  0
  5  2  1  0
  6  3  1  0
  6  7  1  0
  8  9  1  1
  8  6  1  0
 10 12  1  0
 11 22  2  0
 12 17  1  0
 13 21  1  0
 13 23  1  0
 14 20  1  0
 14 16  1  0
 15 21  1  0
 16 15  1  0
 17 16  2  0
 18 12  2  0
 19 18  1  0
 19 14  2  0
 20 13  1  0
 21 11  1  0
 23 25  2  0
 24 23  1  0
 26 24  1  0
 27 36  2  0
 27 32  1  0
 28 24  1  0
 28 32  1  0
 29 28  1  0
 30 31  1  0
 30 29  1  0
 31 27  1  0
 32 33  2  0
 33 34  1  0
 35 34  2  0
 36 35  1  0
 37 11  1  0
 37 38  1  0
 37 47  1  0
 38 41  1  0
 39 43  1  0
 39 38  1  0
 40 39  2  0
 43 42  1  0
 45 43  1  0
 45 46  1  0
 45 44  1  0
 47 50  1  1
 47 48  1  0
 49 47  1  0
 51 56  1  0
 51  8  1  0
 52 57  1  0
 53 57  2  0
 54 52  2  0
 55 53  1  0
 56 55  2  0
 56 54  1  0
 57 68  1  0
 58 54  1  0
 59 55  1  0
 60 68  1  0
 61 66  1  0
 62 63  1  0
 62 61  1  0
 64 63  1  0
 64 73  1  0
 64 65  1  0
 66 60  1  0
 66 65  1  0
 67 60  2  0
 68 69  1  0
 70 71  2  0
 71 90  1  0
 72 71  1  0
 72 75  1  0
 73 70  1  0
 73 74  1  0
 74 72  2  0
 75 76  1  0
 76 77  2  0
 78 81  1  0
 78 77  1  0
 79 78  2  0
 80 79  1  0
 80 75  2  0
 81 82  1  0
 82 83  1  0
 83 84  2  0
 85 84  1  0
 85 89  1  0
 86 85  2  0
 87 82  2  0
 87 86  1  0
 88 87  1  0
 90 91  1  0
 91 94  1  0
 91 93  1  0
 92 90  2  0
 95 96  1  0
 95 70  1  0
 97 95  1  0
M  ISO  4   5 101  10 101  60 100  68 100
M  END
>  <TORSDO>  (70) 
F 18

>  <SCORE>  (70) 
-13.931

>  <name>  (70) 
69

>  <ligand_id>  (70) 
69

>  <original_smiles>  (70) 
[H]c1c([H])c([H])c2c(c1[H])C([H])([H])C([H])([H])C([H])([H])C2([H])N([H])C(=O)C1([H])N(C(=O)C([H])(N([H])C(=O)C([H])(N([H])C([H])([H])[H])C([H])([H])[H])C(C([H])([H])[H])(C([H])([H])[H])C([H])([H])[H])C([H])([H])c2c([H])c(OC3([H])C([H])([H])C([H])([H])C([H])([H])C([H])(C([H])([H])[H])[N+]([H])(C([H])([H])c4c(C([H])([H])[H])c([H])c(N([H])C(=O)N5C([H])([H])C([H])([H])C([H])([H])C([H])(n6nc(-c7c([H])c([H])c(Oc8c([H])c([H])c(F)c([H])c8F)c([H])c7[H])c(C(=O)N([H])[H])c6N([H])[H])C5([H])[H])c([H])c4C([H])([H])[H])C3([H])[H])c([H])c([H])c2C1([H])[H]

>  <smiles>  (70) 
[H]c1c([H])c([H])c2c(c1[H])C([H])([H])C([H])([H])C([H])([H])C2([H])N([H])C(=O)C1([H])N(C(=O)C([H])(N([H])C(=O)C([H])(N([H])C([H])([H])[H])C([H])([H])[H])C(C([H])([H])[H])(C([H])([H])[H])C([H])([H])[H])C([H])([H])c2c([H])c(OC3([H])C([H])([H])C([H])([H])C([H])([H])C([H])(C([H])([H])[H])[N+]([H])(C([H])([H])c4c(C([H])([H])[H])c([H])c(N([H])C(=O)N5C([H])([H])C([H])([H])C([H])([H])C([H])(n6nc(-c7c([H])c([H])c(Oc8c([H])c([H])c(F)c([H])c8F)c([H])c7[H])c(C(=O)N([H])[H])c6N([H])[H])C5([H])[H])c([H])c4C([H])([H])[H])C3([H])[H])c([H])c([H])c2C1([H])[H]

$$$$
70:0:0
     RDKit          3D

 94102  0  0  1  0  0  0  0  0999 V2000
  -30.1890  -23.5260   20.9500 C   0  0  0  0  0  0  0  0  0  0  0  0
  -30.4410  -22.3090   20.6010 N   0  0  0  0  0  0  0  0  0  0  0  0
  -30.2340  -24.0060   22.3490 C   0  0  0  0  0  3  0  0  0  0  0  0
  -29.2170  -23.8180   23.2090 C   0  0  0  0  0  3  0  0  0  0  0  0
  -29.2040  -24.3070   24.6390 C   0  0  0  0  0  1  0  0  0  0  0  0
  -30.8880  -21.3560   21.6290 C   0  0  0  0  0  2  0  0  0  0  0  0
  -32.0310  -19.0880   21.3260 C   0  0  0  0  0  3  0  0  0  0  0  0
  -31.9870  -17.6820   21.1710 C   0  0  0  0  0  3  0  0  0  0  0  0
  -29.5990  -17.8210   20.7670 C   0  0  0  0  0  3  0  0  0  0  0  0
  -30.8570  -19.8730   21.2310 C   0  0  0  0  0  0  0  0  0  0  0  0
  -30.7590  -17.0260   20.9110 C   0  0  0  0  0  0  0  0  0  0  0  0
  -29.6370  -19.2230   20.9200 C   0  0  0  0  0  0  0  0  0  0  0  0
  -28.1580  -20.1080   20.7720 Cl  0  0  0  0  0  0  0  0  0  0  0  0
  -31.2550  -14.6560   20.1340 C   0  0  0  0  0  0  0  0  0  0  0  0
  -30.8700  -12.5290   18.9310 C   0  0  0  0  0  2  0  0  0  0  0  0
  -29.8900  -12.7830   17.7670 C   0  0  0  0  0  2  0  0  0  0  0  0
  -28.4260  -12.6950   18.2400 C   0  0  0  0  0  2  0  0  0  0  0  0
  -28.1640  -13.5200   19.5280 C   0  0  0  0  0  3  0  0  0  0  0  0
  -29.2390  -13.2090   20.5930 C   0  0  0  0  0  2  0  0  0  0  0  0
  -30.5600  -13.4910   19.9990 N   0  0  0  0  0  0  0  0  0  0  0  0
  -32.3510  -14.8460   19.5980 O   0  0  0  0  0  0  0  0  0  0  0  0
  -30.5870  -15.6060   20.8200 N   0  0  0  0  0  0  0  0  0  0  0  0
  -29.7220  -15.2590   21.2040 H   0  0  0  0  0  0  0  0  0  0  0  0
  -25.8130  -14.2260   20.3030 C   0  0  0  0  0  0  0  0  0  0  0  0
  -24.7230  -13.4960   20.6980 C   0  0  0  0  0  0  0  0  0  0  0  0
  -25.1260  -12.1270   20.6460 C   0  0  0  0  0  0  0  0  0  0  0  0
  -26.8120  -13.3020   20.0390 N   0  0  0  0  0  0  0  0  0  0  0  0
  -26.4030  -12.0350   20.3000 N   0  0  0  0  0  0  0  0  0  0  0  0
  -24.3540  -10.8940   20.8490 C   0  0  0  0  0  0  0  0  0  0  0  0
  -24.7360   -9.9340   21.8130 C   0  0  0  0  0  3  0  0  0  0  0  0
  -23.9680   -8.7650   22.0020 C   0  0  0  0  0  3  0  0  0  0  0  0
  -22.8040   -8.5470   21.2250 C   0  0  0  0  0  0  0  0  0  0  0  0
  -22.4420   -9.4950   20.2510 C   0  0  0  0  0  3  0  0  0  0  0  0
  -23.2110  -10.6550   20.0610 C   0  0  0  0  0  3  0  0  0  0  0  0
  -22.0110   -7.4290   21.3210 O   0  0  0  0  0  0  0  0  0  0  0  0
  -21.8480   -6.7630   22.5090 C   0  0  0  0  0  0  0  0  0  0  0  0
  -21.3490   -7.4090   23.6620 C   0  0  0  0  0  3  0  0  0  0  0  0
  -21.1310   -6.6710   24.8420 C   0  0  0  0  0  3  0  0  0  0  0  0
  -21.4000   -5.2900   24.8710 C   0  0  0  0  0  0  0  0  0  0  0  0
  -21.8910   -4.6450   23.7220 C   0  0  0  0  0  3  0  0  0  0  0  0
  -22.1110   -5.3790   22.5440 C   0  0  0  0  0  0  0  0  0  0  0  0
  -22.5650   -4.7500   21.4340 F   0  0  0  0  0  0  0  0  0  0  0  0
  -21.1830   -4.5780   26.0020 F   0  0  0  0  0  0  0  0  0  0  0  0
  -23.3560  -14.0280   21.0160 C   0  0  0  0  0  0  0  0  0  0  0  0
  -22.6370  -13.3700   21.9190 N   0  0  0  0  0  0  0  0  0  0  0  0
  -22.9350  -15.0620   20.4990 O   0  0  0  0  0  0  0  0  0  0  0  0
  -22.9900  -12.5330   22.3580 H   0  0  0  0  0  0  0  0  0  0  0  0
  -21.7210  -13.7090   22.1770 H   0  0  0  0  0  0  0  0  0  0  0  0
  -26.0310  -15.5900   20.1290 N   0  0  0  0  0  0  0  0  0  0  0  0
  -25.2930  -16.2740   20.2540 H   0  0  0  0  0  0  0  0  0  0  0  0
  -26.8790  -15.9880   19.7500 H   0  0  0  0  0  0  0  0  0  0  0  0
  -29.8630  -24.6330   19.9340 C   0  0  0  0  0  2  0  0  0  0  0  0
  -28.5700  -25.4400   20.2370 C   0  0  0  0  0  2  0  0  0  0  0  0
  -28.6040  -26.7670   19.6780 O   0  0  0  0  0  0  0  0  0  0  0  0
  -24.7460  -31.7200   23.0840 C   0  0  0  0  0  0  0  0  0  0  0  0
  -27.4180  -27.4690   19.7590 C   0  0  0  0  0  0  0  0  0  0  0  0
  -23.5280  -30.3390   21.4330 C   0  0  0  0  0  3  0  0  0  0  0  0
  -24.9790  -28.8970   19.9080 C   0  0  0  0  0  0  0  0  0  0  0  0
  -26.0340  -30.7840   21.1640 C   0  0  0  0  0  2  0  0  0  0  0  0
  -26.1420  -29.4390   20.4720 C   0  0  0  0  0  0  0  0  0  0  0  0
  -27.3660  -28.7330   20.3920 C   0  0  0  0  0  3  0  0  0  0  0  0
  -26.2380  -26.9450   19.1870 C   0  0  0  0  0  3  0  0  0  0  0  0
  -25.0220  -27.6490   19.2630 C   0  0  0  0  0  3  0  0  0  0  0  0
  -23.7110  -29.7150   20.0240 C   0  0  0  0  0  2  0  0  0  0  0  0
  -24.7900  -30.9600   21.9520 N   0  0  0  0  0  0  0  0  0  0  0  0
  -23.6760  -31.9390   23.6700 O   0  0  0  0  0  0  0  0  0  0  0  0
  -22.9420  -29.2650   22.3780 C   0  0  0  0  0  0  0  0  0  0  0  0
  -21.6260  -29.0230   22.2660 N   0  0  0  0  0  0  0  0  0  0  0  0
  -23.6670  -28.6510   23.1660 O   0  0  0  0  0  0  0  0  0  0  0  0
  -21.1000  -29.5740   21.6020 H   0  0  0  0  0  0  0  0  0  0  0  0
  -18.3310  -27.6110   22.7270 C   0  0  0  0  0  0  0  0  0  0  0  0
  -20.8650  -28.0290   23.0220 C   0  0  0  0  0  3  0  0  0  0  0  0
  -21.0640  -26.6120   22.4350 C   0  0  0  0  0  2  0  0  0  0  0  0
  -19.9910  -26.2280   21.4100 C   0  0  0  0  0  2  0  0  0  0  0  0
  -18.5980  -26.2800   22.0450 C   0  0  0  0  0  2  0  0  0  0  0  0
  -19.3960  -28.4390   23.1710 C   0  0  0  0  0  0  0  0  0  0  0  0
  -19.0940  -29.6820   23.7700 C   0  0  0  0  0  3  0  0  0  0  0  0
  -17.7590  -30.0990   23.9290 C   0  0  0  0  0  3  0  0  0  0  0  0
  -16.7090  -29.2680   23.5020 C   0  0  0  0  0  3  0  0  0  0  0  0
  -16.9950  -28.0260   22.9070 C   0  0  0  0  0  3  0  0  0  0  0  0
  -26.0340  -32.3690   23.6820 C   0  0  0  0  0  3  0  0  0  0  0  0
  -25.6980  -33.7470   24.0650 N   0  0  0  0  0  0  0  0  0  0  0  0
  -25.9940  -34.8320   23.3360 C   0  0  0  0  0  0  0  0  0  0  0  0
  -26.6520  -34.7790   22.2930 O   0  0  0  0  0  0  0  0  0  0  0  0
  -25.1100  -33.8600   24.8780 H   0  0  0  0  0  0  0  0  0  0  0  0
  -24.2270  -36.5990   23.0530 C   0  0  0  0  0  1  0  0  0  0  0  0
  -25.4790  -36.1910   23.8460 C   0  0  0  0  0  3  0  0  0  0  0  0
  -27.5980  -37.0900   24.7020 C   0  0  0  0  0  1  0  0  0  0  0  0
  -26.4900  -37.2700   23.7670 N   0  0  0  0  0  0  0  0  0  0  0  0
  -26.0640  -38.1740   23.9510 H   0  0  0  0  0  0  0  0  0  0  0  0
  -26.6140  -31.5740   24.9150 C   0  0  1  0  0  0  0  0  0  0  0  0
  -25.5650  -31.2700   26.0100 C   0  0  0  0  0  1  0  0  0  0  0  0
  -27.2230  -30.2290   24.4560 C   0  0  0  0  0  1  0  0  0  0  0  0
  -27.7630  -32.3820   25.5660 C   0  0  0  0  0  1  0  0  0  0  0  0
  1  3  1  0
  2  1  2  0
  2  6  1  0
  3  4  2  0
  4  5  1  0
  8  7  2  0
  9 11  2  0
  9 12  1  0
 10  7  1  0
 10  6  1  0
 11  8  1  0
 12 10  2  0
 13 12  1  0
 14 22  1  0
 15 20  1  0
 16 17  1  0
 16 15  1  0
 18 17  1  0
 18 27  1  0
 18 19  1  0
 20 14  1  0
 20 19  1  0
 21 14  2  0
 22 11  1  0
 22 23  1  0
 24 25  2  0
 25 44  1  0
 26 25  1  0
 26 29  1  0
 27 28  1  0
 27 24  1  0
 28 26  2  0
 29 30  1  0
 30 31  2  0
 32 35  1  0
 32 31  1  0
 33 32  2  0
 34 33  1  0
 34 29  2  0
 35 36  1  0
 36 41  2  0
 36 37  1  0
 37 38  2  0
 38 39  1  0
 39 43  1  0
 40 39  2  0
 41 40  1  0
 42 41  1  0
 44 45  1  0
 45 48  1  0
 45 47  1  0
 46 44  2  0
 49 50  1  0
 49 24  1  0
 51 49  1  0
 52 53  1  0
 52  1  1  0
 54 56  1  0
 54 53  1  0
 55 66  2  0
 56 61  1  0
 57 65  1  0
 57 67  1  0
 58 64  1  0
 58 60  1  0
 59 65  1  0
 60 59  1  0
 61 60  2  0
 62 63  1  0
 62 56  2  0
 63 58  2  0
 64 57  1  0
 65 55  1  0
 67 69  2  0
 68 67  1  0
 70 68  1  0
 71 80  2  0
 71 76  1  0
 72 68  1  0
 72 76  1  0
 73 72  1  0
 74 75  1  0
 74 73  1  0
 75 71  1  0
 76 77  2  0
 77 78  1  0
 79 78  2  0
 80 79  1  0
 81 55  1  0
 81 82  1  0
 81 91  1  0
 82 85  1  0
 83 87  1  0
 83 82  1  0
 84 83  2  0
 87 86  1  0
 89 87  1  0
 89 90  1  0
 89 88  1  0
 91 94  1  1
 91 92  1  0
 93 91  1  0
M  ISO  4  14 100  22 100  53 101  54 101
M  END
>  <TORSDO>  (71) 
F 21

>  <SCORE>  (71) 
-11.404

>  <name>  (71) 
70

>  <ligand_id>  (71) 
70

>  <original_smiles>  (71) 
[H]C(C(=NC([H])([H])c1c([H])c([H])c(N([H])C(=O)N2C([H])([H])C([H])([H])C([H])([H])C([H])(n3nc(-c4c([H])c([H])c(Oc5c([H])c([H])c(F)c([H])c5F)c([H])c4[H])c(C(=O)N([H])[H])c3N([H])[H])C2([H])[H])c([H])c1Cl)C([H])([H])C([H])([H])Oc1c([H])c([H])c2c(c1[H])C([H])([H])N(C(=O)C([H])(N([H])C(=O)C([H])(N([H])C([H])([H])[H])C([H])([H])[H])C(C([H])([H])[H])(C([H])([H])[H])C([H])([H])[H])C([H])(C(=O)N([H])C1([H])c3c([H])c([H])c([H])c([H])c3C([H])([H])C([H])([H])C1([H])[H])C2([H])[H])=C([H])C([H])([H])[H]

>  <smiles>  (71) 
[H]C(C(=NC([H])([H])c1c([H])c([H])c(N([H])C(=O)N2C([H])([H])C([H])([H])C([H])([H])C([H])(n3nc(-c4c([H])c([H])c(Oc5c([H])c([H])c(F)c([H])c5F)c([H])c4[H])c(C(=O)N([H])[H])c3N([H])[H])C2([H])[H])c([H])c1Cl)C([H])([H])C([H])([H])Oc1c([H])c([H])c2c(c1[H])C([H])([H])N(C(=O)C([H])(N([H])C(=O)C([H])(N([H])C([H])([H])[H])C([H])([H])[H])C(C([H])([H])[H])(C([H])([H])[H])C([H])([H])[H])C([H])(C(=O)N([H])C1([H])c3c([H])c([H])c([H])c([H])c3C([H])([H])C([H])([H])C1([H])[H])C2([H])[H])=C([H])C([H])([H])[H]

$$$$
71:0:0
     RDKit          3D

 99108  0  0  1  0  0  0  0  0999 V2000
  -31.7930  -23.3580   21.9300 C   0  0  0  0  0  2  0  0  0  0  0  0
  -30.8270  -22.4230   22.6800 C   0  0  0  0  0  2  0  0  0  0  0  0
  -31.6040  -23.4600   20.4020 C   0  0  0  0  0  2  0  0  0  0  0  0
  -29.3560  -22.8760   22.6560 C   0  0  0  0  0  2  0  0  0  0  0  0
  -30.4360  -24.3750   19.9540 C   0  0  0  0  0  2  0  0  0  0  0  0
  -28.5010  -22.1390   21.6080 C   0  0  0  0  0  2  0  0  0  0  0  0
  -29.0430  -23.7360   19.6730 C   0  0  0  0  0  3  0  0  0  0  0  0
  -29.0160  -22.2720   20.2210 N   0  0  2  0  0  4  0  0  0  0  0  0
  -30.0040  -22.0870   20.3290 H   0  0  0  0  0  0  0  0  0  0  0  0
  -28.5850  -21.0690   19.3500 C   0  0  0  0  0  2  0  0  0  0  0  0
  -29.3760  -18.4800   19.6820 C   0  0  0  0  0  3  0  0  0  0  0  0
  -29.5340  -19.7980   19.0680 C   0  0  0  0  0  0  0  0  0  0  0  0
  -30.4750  -19.8710   18.0020 C   0  0  0  0  0  0  0  0  0  0  0  0
  -31.1270  -18.7000   17.5260 C   0  0  0  0  0  0  0  0  0  0  0  0
  -30.0360  -17.2570   19.2240 C   0  0  0  0  0  0  0  0  0  0  0  0
  -30.8320  -17.4140   18.0500 C   0  0  0  0  0  0  0  0  0  0  0  0
  -30.7460  -21.1780   17.2530 C   0  0  0  0  0  1  0  0  0  0  0  0
  -32.1090  -18.8100   16.3550 C   0  0  0  0  0  1  0  0  0  0  0  0
  -31.3200  -16.0540   17.0840 Cl  0  0  0  0  0  0  0  0  0  0  0  0
  -30.5680  -14.7380   19.7960 C   0  0  0  0  0  0  0  0  0  0  0  0
  -30.3000  -12.4280   18.9080 C   0  0  0  0  0  2  0  0  0  0  0  0
  -29.2900  -12.4660   17.7410 C   0  0  0  0  0  2  0  0  0  0  0  0
  -27.8480  -12.3150   18.2630 C   0  0  0  0  0  2  0  0  0  0  0  0
  -27.5480  -13.2400   19.4730 C   0  0  0  0  0  3  0  0  0  0  0  0
  -28.6760  -13.1960   20.5270 C   0  0  0  0  0  2  0  0  0  0  0  0
  -29.9290  -13.5200   19.8350 N   0  0  0  0  0  0  0  0  0  0  0  0
  -31.7750  -14.7750   19.5490 O   0  0  0  0  0  0  0  0  0  0  0  0
  -29.7980  -15.9010   19.8220 N   0  0  0  0  0  0  0  0  0  0  0  0
  -28.8750  -15.7650   20.2030 H   0  0  0  0  0  0  0  0  0  0  0  0
  -25.2280  -13.8560   20.3760 C   0  0  0  0  0  0  0  0  0  0  0  0
  -24.1780  -13.0930   20.8110 C   0  0  0  0  0  0  0  0  0  0  0  0
  -24.6190  -11.7360   20.7360 C   0  0  0  0  0  0  0  0  0  0  0  0
  -26.2400  -12.9650   20.0580 N   0  0  0  0  0  0  0  0  0  0  0  0
  -25.8850  -11.6840   20.3400 N   0  0  0  0  0  0  0  0  0  0  0  0
  -23.8880  -10.4810   20.9630 C   0  0  0  0  0  0  0  0  0  0  0  0
  -24.3490   -9.5120   21.8810 C   0  0  0  0  0  3  0  0  0  0  0  0
  -23.6160   -8.3240   22.0960 C   0  0  0  0  0  3  0  0  0  0  0  0
  -22.4080   -8.0980   21.3940 C   0  0  0  0  0  0  0  0  0  0  0  0
  -21.9670   -9.0570   20.4640 C   0  0  0  0  0  3  0  0  0  0  0  0
  -22.7000  -10.2350   20.2470 C   0  0  0  0  0  3  0  0  0  0  0  0
  -21.6440   -6.9640   21.5200 O   0  0  0  0  0  0  0  0  0  0  0  0
  -21.6250   -6.2330   22.6810 C   0  0  0  0  0  0  0  0  0  0  0  0
  -21.1890   -6.7900   23.9040 C   0  0  0  0  0  3  0  0  0  0  0  0
  -21.1200   -5.9860   25.0580 C   0  0  0  0  0  3  0  0  0  0  0  0
  -21.4750   -4.6250   24.9910 C   0  0  0  0  0  0  0  0  0  0  0  0
  -21.9020   -4.0680   23.7720 C   0  0  0  0  0  3  0  0  0  0  0  0
  -21.9740   -4.8690   22.6200 C   0  0  0  0  0  0  0  0  0  0  0  0
  -22.3680   -4.3230   21.4450 F   0  0  0  0  0  0  0  0  0  0  0  0
  -21.3990   -3.8490   26.0970 F   0  0  0  0  0  0  0  0  0  0  0  0
  -22.8100  -13.5870   21.1790 C   0  0  0  0  0  0  0  0  0  0  0  0
  -22.1320  -12.8960   22.0880 N   0  0  0  0  0  0  0  0  0  0  0  0
  -22.3530  -14.6220   20.6960 O   0  0  0  0  0  0  0  0  0  0  0  0
  -22.5170  -12.0570   22.4980 H   0  0  0  0  0  0  0  0  0  0  0  0
  -21.2170  -13.2080   22.3790 H   0  0  0  0  0  0  0  0  0  0  0  0
  -25.3960  -15.2260   20.2000 N   0  0  0  0  0  0  0  0  0  0  0  0
  -24.6410  -15.8830   20.3610 H   0  0  0  0  0  0  0  0  0  0  0  0
  -26.2110  -15.6590   19.7830 H   0  0  0  0  0  0  0  0  0  0  0  0
  -27.9050  -24.8350   20.0740 C   0  0  0  0  0  2  0  0  0  0  0  0
  -28.1360  -26.3090   19.8300 O   0  0  0  0  0  0  0  0  0  0  0  0
  -24.5570  -31.7190   23.1290 C   0  0  0  0  0  0  0  0  0  0  0  0
  -27.0410  -27.2030   19.8650 C   0  0  0  0  0  0  0  0  0  0  0  0
  -23.3040  -30.3890   21.4690 C   0  0  0  0  0  3  0  0  0  0  0  0
  -24.7040  -28.8720   19.9580 C   0  0  0  0  0  0  0  0  0  0  0  0
  -25.8450  -30.6780   21.2410 C   0  0  0  0  0  2  0  0  0  0  0  0
  -25.8940  -29.3180   20.5470 C   0  0  0  0  0  0  0  0  0  0  0  0
  -27.0680  -28.4980   20.4870 C   0  0  0  0  0  3  0  0  0  0  0  0
  -25.8320  -26.8310   19.2390 C   0  0  0  0  0  3  0  0  0  0  0  0
  -24.6780  -27.6370   19.2920 C   0  0  0  0  0  3  0  0  0  0  0  0
  -23.4800  -29.7600   20.0620 C   0  0  0  0  0  2  0  0  0  0  0  0
  -24.5890  -30.9460   22.0020 N   0  0  0  0  0  0  0  0  0  0  0  0
  -23.4880  -31.9880   23.6960 O   0  0  0  0  0  0  0  0  0  0  0  0
  -22.6490  -29.3480   22.4090 C   0  0  0  0  0  0  0  0  0  0  0  0
  -21.3190  -29.1850   22.3030 N   0  0  0  0  0  0  0  0  0  0  0  0
  -23.3380  -28.6890   23.1930 O   0  0  0  0  0  0  0  0  0  0  0  0
  -20.8220  -29.7680   21.6450 H   0  0  0  0  0  0  0  0  0  0  0  0
  -17.9420  -28.0000   22.8410 C   0  0  0  0  0  0  0  0  0  0  0  0
  -20.5090  -28.2290   23.0600 C   0  0  0  0  0  3  0  0  0  0  0  0
  -20.5830  -26.8170   22.4320 C   0  0  0  0  0  2  0  0  0  0  0  0
  -19.4560  -26.5410   21.4330 C   0  0  0  0  0  2  0  0  0  0  0  0
  -18.0910  -26.6740   22.1120 C   0  0  0  0  0  2  0  0  0  0  0  0
  -19.0770  -28.7370   23.2700 C   0  0  0  0  0  0  0  0  0  0  0  0
  -18.8840  -29.9790   23.9120 C   0  0  0  0  0  3  0  0  0  0  0  0
  -17.5880  -30.4850   24.1260 C   0  0  0  0  0  3  0  0  0  0  0  0
  -16.4670  -29.7450   23.7110 C   0  0  0  0  0  3  0  0  0  0  0  0
  -16.6450  -28.5040   23.0750 C   0  0  0  0  0  3  0  0  0  0  0  0
  -25.8590  -32.3170   23.7440 C   0  0  0  0  0  3  0  0  0  0  0  0
  -26.3720  -31.5210   25.0060 C   0  0  1  0  0  0  0  0  0  0  0  0
  -25.2850  -31.2900   26.0810 C   0  0  0  0  0  1  0  0  0  0  0  0
  -26.9250  -30.1370   24.5920 C   0  0  0  0  0  1  0  0  0  0  0  0
  -27.5450  -32.2840   25.6650 C   0  0  0  0  0  1  0  0  0  0  0  0
  -25.5810  -33.7180   24.0960 N   0  0  0  0  0  0  0  0  0  0  0  0
  -25.9310  -34.7750   23.3520 C   0  0  0  0  0  0  0  0  0  0  0  0
  -26.5920  -34.6730   22.3140 O   0  0  0  0  0  0  0  0  0  0  0  0
  -24.9950  -33.8720   24.9040 H   0  0  0  0  0  0  0  0  0  0  0  0
  -24.2560  -36.6220   23.0210 C   0  0  0  0  0  1  0  0  0  0  0  0
  -25.4790  -36.1670   23.8340 C   0  0  0  0  0  3  0  0  0  0  0  0
  -27.6220  -36.9840   24.7100 C   0  0  0  0  0  1  0  0  0  0  0  0
  -26.5400  -37.1930   23.7510 N   0  0  0  0  0  0  0  0  0  0  0  0
  -26.1570  -38.1220   23.9030 H   0  0  0  0  0  0  0  0  0  0  0  0
  1  2  1  0
  3  1  1  0
  4  2  1  0
  5  3  1  0
  6  4  1  0
  7  5  1  0
  7 58  1  0
  7  8  1  0
  8  9  1  1
  8  6  1  0
 10  8  1  0
 12 10  1  0
 12 11  2  0
 13 12  1  0
 14 13  2  0
 14 16  1  0
 15 11  1  0
 15 28  1  0
 16 15  2  0
 17 13  1  0
 18 14  1  0
 19 16  1  0
 20 28  1  0
 20 26  1  0
 21 26  1  0
 22 23  1  0
 22 21  1  0
 24 23  1  0
 24 33  1  0
 24 25  1  0
 26 25  1  0
 27 20  2  0
 28 29  1  0
 30 31  2  0
 31 50  1  0
 32 31  1  0
 32 35  1  0
 33 34  1  0
 33 30  1  0
 34 32  2  0
 35 36  1  0
 36 37  2  0
 38 41  1  0
 38 37  1  0
 39 38  2  0
 40 39  1  0
 40 35  2  0
 41 42  1  0
 42 43  1  0
 43 44  2  0
 45 44  1  0
 45 49  1  0
 46 45  2  0
 47 42  2  0
 47 46  1  0
 48 47  1  0
 50 51  1  0
 51 54  1  0
 51 53  1  0
 52 50  2  0
 55 56  1  0
 55 30  1  0
 57 55  1  0
 59 61  1  0
 59 58  1  0
 60 71  2  0
 61 66  1  0
 62 70  1  0
 62 72  1  0
 63 69  1  0
 63 65  1  0
 64 70  1  0
 65 64  1  0
 66 65  2  0
 67 68  1  0
 67 61  2  0
 68 63  2  0
 69 62  1  0
 70 60  1  0
 72 74  2  0
 73 72  1  0
 75 73  1  0
 76 85  2  0
 76 81  1  0
 77 73  1  0
 77 81  1  0
 78 77  1  0
 79 80  1  0
 79 78  1  0
 80 76  1  0
 81 82  2  0
 82 83  1  0
 84 83  2  0
 85 84  1  0
 86 60  1  0
 86 91  1  0
 86 87  1  0
 87 90  1  1
 87 88  1  0
 89 87  1  0
 91 94  1  0
 92 96  1  0
 92 91  1  0
 93 92  2  0
 96 95  1  0
 98 96  1  0
 98 99  1  0
 98 97  1  0
M  ISO  4  20 100  28 100  58 101  59 101
M  END
>  <TORSDO>  (72) 
F 19

>  <SCORE>  (72) 
-12.426

>  <name>  (72) 
71

>  <ligand_id>  (72) 
71

>  <original_smiles>  (72) 
[H]c1c([H])c([H])c2c(c1[H])C([H])([H])C([H])([H])C([H])([H])C2([H])N([H])C(=O)C1([H])N(C(=O)C([H])(N([H])C(=O)C([H])(N([H])C([H])([H])[H])C([H])([H])[H])C(C([H])([H])[H])(C([H])([H])[H])C([H])([H])[H])C([H])([H])c2c([H])c(OC([H])([H])C3([H])C([H])([H])C([H])([H])C([H])([H])C([H])([H])C([H])([H])C([H])([H])[N+]3([H])C([H])([H])c3c([H])c(N([H])C(=O)N4C([H])([H])C([H])([H])C([H])([H])C([H])(n5nc(-c6c([H])c([H])c(Oc7c([H])c([H])c(F)c([H])c7F)c([H])c6[H])c(C(=O)N([H])[H])c5N([H])[H])C4([H])[H])c(Cl)c(C([H])([H])[H])c3C([H])([H])[H])c([H])c([H])c2C1([H])[H]

>  <smiles>  (72) 
[H]c1c([H])c([H])c2c(c1[H])C([H])([H])C([H])([H])C([H])([H])C2([H])N([H])C(=O)C1([H])N(C(=O)C([H])(N([H])C(=O)C([H])(N([H])C([H])([H])[H])C([H])([H])[H])C(C([H])([H])[H])(C([H])([H])[H])C([H])([H])[H])C([H])([H])c2c([H])c(OC([H])([H])C3([H])C([H])([H])C([H])([H])C([H])([H])C([H])([H])C([H])([H])C([H])([H])[N+]3([H])C([H])([H])c3c([H])c(N([H])C(=O)N4C([H])([H])C([H])([H])C([H])([H])C([H])(n5nc(-c6c([H])c([H])c(Oc7c([H])c([H])c(F)c([H])c7F)c([H])c6[H])c(C(=O)N([H])[H])c5N([H])[H])C4([H])[H])c(Cl)c(C([H])([H])[H])c3C([H])([H])[H])c([H])c([H])c2C1([H])[H]

$$$$
72:0:0
     RDKit          3D

 94102  0  0  1  0  0  0  0  0999 V2000
  -28.5580  -19.4800   20.6410 C   0  0  0  0  0  3  0  0  0  0  0  0
  -30.7890  -19.1720   18.9780 C   0  0  0  0  0  3  0  0  0  0  0  0
  -29.2940  -18.2680   20.6710 C   0  0  0  0  0  0  0  0  0  0  0  0
  -28.9360  -20.5550   19.8010 C   0  0  0  0  0  0  0  0  0  0  0  0
  -30.4490  -18.1210   19.8610 C   0  0  0  0  0  0  0  0  0  0  0  0
  -30.0460  -20.3720   18.9410 C   0  0  0  0  0  0  0  0  0  0  0  0
  -28.8480  -17.1540   21.6050 C   0  0  0  0  0  1  0  0  0  0  0  0
  -30.5470  -21.6320   17.8700 Cl  0  0  0  0  0  0  0  0  0  0  0  0
  -31.4070  -16.9290   19.9940 C   0  0  0  0  0  2  0  0  0  0  0  0
  -31.4090  -14.4970   19.4040 C   0  0  0  0  0  0  0  0  0  0  0  0
  -30.9790  -12.1940   18.6300 C   0  0  0  0  0  2  0  0  0  0  0  0
  -29.9460  -12.2210   17.4860 C   0  0  0  0  0  2  0  0  0  0  0  0
  -28.5080  -12.2100   18.0400 C   0  0  0  0  0  2  0  0  0  0  0  0
  -28.2900  -13.2540   19.1680 C   0  0  0  0  0  3  0  0  0  0  0  0
  -29.4220  -13.1720   20.2150 C   0  0  0  0  0  2  0  0  0  0  0  0
  -30.7000  -13.3420   19.5050 N   0  0  0  0  0  0  0  0  0  0  0  0
  -32.4890  -14.5670   18.8100 O   0  0  0  0  0  0  0  0  0  0  0  0
  -30.8110  -15.5900   19.9100 N   0  0  0  0  0  0  0  0  0  0  0  0
  -29.9080  -15.4560   20.3390 H   0  0  0  0  0  0  0  0  0  0  0  0
  -26.0700  -14.0920   20.1630 C   0  0  0  0  0  0  0  0  0  0  0  0
  -24.9610  -13.4260   20.6130 C   0  0  0  0  0  0  0  0  0  0  0  0
  -25.2540  -12.0340   20.4750 C   0  0  0  0  0  0  0  0  0  0  0  0
  -26.9730  -13.1110   19.7830 N   0  0  0  0  0  0  0  0  0  0  0  0
  -26.4910  -11.8660   20.0260 N   0  0  0  0  0  0  0  0  0  0  0  0
  -24.4080  -10.8530   20.6910 C   0  0  0  0  0  0  0  0  0  0  0  0
  -24.7020   -9.9090   21.6990 C   0  0  0  0  0  3  0  0  0  0  0  0
  -23.8640   -8.7910   21.9000 C   0  0  0  0  0  3  0  0  0  0  0  0
  -22.7180   -8.6090   21.0890 C   0  0  0  0  0  0  0  0  0  0  0  0
  -22.4430   -9.5390   20.0710 C   0  0  0  0  0  3  0  0  0  0  0  0
  -23.2810  -10.6480   19.8690 C   0  0  0  0  0  3  0  0  0  0  0  0
  -21.8610   -7.5400   21.1930 O   0  0  0  0  0  0  0  0  0  0  0  0
  -21.5140   -7.0110   22.4100 C   0  0  0  0  0  0  0  0  0  0  0  0
  -20.8650   -7.7820   23.4000 C   0  0  0  0  0  3  0  0  0  0  0  0
  -20.4650   -7.1800   24.6100 C   0  0  0  0  0  3  0  0  0  0  0  0
  -20.7030   -5.8100   24.8290 C   0  0  0  0  0  0  0  0  0  0  0  0
  -21.3450   -5.0400   23.8430 C   0  0  0  0  0  3  0  0  0  0  0  0
  -21.7470   -5.6390   22.6360 C   0  0  0  0  0  0  0  0  0  0  0  0
  -22.3450   -4.8880   21.6810 F   0  0  0  0  0  0  0  0  0  0  0  0
  -20.3130   -5.2300   25.9890 F   0  0  0  0  0  0  0  0  0  0  0  0
  -23.6660  -14.0410   21.0600 C   0  0  0  0  0  0  0  0  0  0  0  0
  -22.9600  -13.3890   21.9760 N   0  0  0  0  0  0  0  0  0  0  0  0
  -23.2960  -15.1330   20.6300 O   0  0  0  0  0  0  0  0  0  0  0  0
  -23.2730  -12.5020   22.3430 H   0  0  0  0  0  0  0  0  0  0  0  0
  -22.0930  -13.7810   22.3160 H   0  0  0  0  0  0  0  0  0  0  0  0
  -26.3800  -15.4420   20.0290 N   0  0  0  0  0  0  0  0  0  0  0  0
  -25.7230  -16.1770   20.2640 H   0  0  0  0  0  0  0  0  0  0  0  0
  -27.2440  -15.7960   19.6410 H   0  0  0  0  0  0  0  0  0  0  0  0
  -28.1440  -21.8770   19.8220 C   0  0  0  0  0  2  0  0  0  0  0  0
  -28.9480  -23.0180   20.3360 N   0  0  0  0  0  4  0  0  0  0  0  0
  -29.7740  -23.1050   19.7630 H   0  0  0  0  0  0  0  0  0  0  0  0
  -29.2600  -22.7510   21.2560 H   0  0  0  0  0  0  0  0  0  0  0  0
  -28.2630  -24.3440   20.4710 C   0  0  0  0  0  2  0  0  0  0  0  0
  -28.6890  -25.3960   19.4080 C   0  0  0  0  0  2  0  0  0  0  0  0
  -28.5520  -26.7620   19.8520 O   0  0  0  0  0  0  0  0  0  0  0  0
  -24.4970  -31.6610   23.0470 C   0  0  0  0  0  0  0  0  0  0  0  0
  -27.3240  -27.4010   19.8540 C   0  0  0  0  0  0  0  0  0  0  0  0
  -23.3460  -30.2410   21.3830 C   0  0  0  0  0  3  0  0  0  0  0  0
  -24.8590  -28.8010   19.9160 C   0  0  0  0  0  0  0  0  0  0  0  0
  -25.8520  -30.7190   21.1760 C   0  0  0  0  0  2  0  0  0  0  0  0
  -25.9960  -29.3660   20.5040 C   0  0  0  0  0  0  0  0  0  0  0  0
  -27.2290  -28.6750   20.4660 C   0  0  0  0  0  3  0  0  0  0  0  0
  -26.1630  -26.8470   19.2700 C   0  0  0  0  0  3  0  0  0  0  0  0
  -24.9380  -27.5420   19.2980 C   0  0  0  0  0  3  0  0  0  0  0  0
  -23.5760  -29.6000   19.9880 C   0  0  0  0  0  2  0  0  0  0  0  0
  -24.5830  -30.8890   21.9270 N   0  0  0  0  0  0  0  0  0  0  0  0
  -23.4070  -31.8690   23.6000 O   0  0  0  0  0  0  0  0  0  0  0  0
  -22.7530  -29.1680   22.3250 C   0  0  0  0  0  0  0  0  0  0  0  0
  -21.4450  -28.9030   22.1830 N   0  0  0  0  0  0  0  0  0  0  0  0
  -23.4690  -28.5740   23.1360 O   0  0  0  0  0  0  0  0  0  0  0  0
  -20.9260  -29.4390   21.5000 H   0  0  0  0  0  0  0  0  0  0  0  0
  -18.1430  -27.5070   22.6470 C   0  0  0  0  0  0  0  0  0  0  0  0
  -20.6820  -27.9040   22.9320 C   0  0  0  0  0  3  0  0  0  0  0  0
  -20.8670  -26.4920   22.3290 C   0  0  0  0  0  2  0  0  0  0  0  0
  -19.7890  -26.1270   21.3060 C   0  0  0  0  0  2  0  0  0  0  0  0
  -18.4000  -26.1830   21.9470 C   0  0  0  0  0  2  0  0  0  0  0  0
  -19.2170  -28.3240   23.0950 C   0  0  0  0  0  0  0  0  0  0  0  0
  -18.9280  -29.5620   23.7070 C   0  0  0  0  0  3  0  0  0  0  0  0
  -17.5960  -29.9850   23.8790 C   0  0  0  0  0  3  0  0  0  0  0  0
  -16.5380  -29.1670   23.4490 C   0  0  0  0  0  3  0  0  0  0  0  0
  -16.8110  -27.9310   22.8380 C   0  0  0  0  0  3  0  0  0  0  0  0
  -25.7550  -32.3400   23.6720 C   0  0  0  0  0  3  0  0  0  0  0  0
  -25.3880  -33.7180   24.0230 N   0  0  0  0  0  0  0  0  0  0  0  0
  -25.6740  -34.7950   23.2800 C   0  0  0  0  0  0  0  0  0  0  0  0
  -26.3490  -34.7370   22.2490 O   0  0  0  0  0  0  0  0  0  0  0  0
  -24.7950  -33.8360   24.8320 H   0  0  0  0  0  0  0  0  0  0  0  0
  -23.8730  -36.5150   22.9420 C   0  0  0  0  0  1  0  0  0  0  0  0
  -25.1250  -36.1530   23.7570 C   0  0  0  0  0  3  0  0  0  0  0  0
  -27.2080  -37.1200   24.6220 C   0  0  0  0  0  1  0  0  0  0  0  0
  -26.1100  -37.2530   23.6680 N   0  0  0  0  0  0  0  0  0  0  0  0
  -25.6620  -38.1510   23.8280 H   0  0  0  0  0  0  0  0  0  0  0  0
  -26.3120  -31.5740   24.9350 C   0  0  1  0  0  0  0  0  0  0  0  0
  -25.2310  -31.2420   25.9880 C   0  0  0  0  0  1  0  0  0  0  0  0
  -26.9860  -30.2480   24.5130 C   0  0  0  0  0  1  0  0  0  0  0  0
  -27.4050  -32.4250   25.6250 C   0  0  0  0  0  1  0  0  0  0  0  0
  1  3  1  0
  2  5  1  0
  3  7  1  0
  4 48  1  0
  4  1  2  0
  5  9  1  0
  5  3  2  0
  6  2  2  0
  6  4  1  0
  8  6  1  0
 10 16  1  0
 10 18  1  0
 11 16  1  0
 12 13  1  0
 12 11  1  0
 14 13  1  0
 14 23  1  0
 14 15  1  0
 16 15  1  0
 17 10  2  0
 18  9  1  0
 18 19  1  0
 20 21  2  0
 21 40  1  0
 22 21  1  0
 22 25  1  0
 23 24  1  0
 23 20  1  0
 24 22  2  0
 25 26  1  0
 26 27  2  0
 28 31  1  0
 28 27  1  0
 29 28  2  0
 30 29  1  0
 30 25  2  0
 31 32  1  0
 32 37  2  0
 32 33  1  0
 33 34  2  0
 34 35  1  0
 35 39  1  0
 36 35  2  0
 37 36  1  0
 38 37  1  0
 40 41  1  0
 41 44  1  0
 41 43  1  0
 42 40  2  0
 45 20  1  0
 45 46  1  0
 47 45  1  0
 48 49  1  0
 49 52  1  0
 49 51  1  0
 50 49  1  0
 53 54  1  0
 53 52  1  0
 54 56  1  0
 55 66  2  0
 56 61  1  0
 57 65  1  0
 57 67  1  0
 58 64  1  0
 58 60  1  0
 59 65  1  0
 60 59  1  0
 61 60  2  0
 62 63  1  0
 62 56  2  0
 63 58  2  0
 64 57  1  0
 65 55  1  0
 67 69  2  0
 68 67  1  0
 70 68  1  0
 71 80  2  0
 71 76  1  0
 72 68  1  0
 72 76  1  0
 73 72  1  0
 74 75  1  0
 74 73  1  0
 75 71  1  0
 76 77  2  0
 77 78  1  0
 79 78  2  0
 80 79  1  0
 81 55  1  0
 81 82  1  0
 81 91  1  0
 82 85  1  0
 83 87  1  0
 83 82  1  0
 84 83  2  0
 87 86  1  0
 89 87  1  0
 89 90  1  0
 89 88  1  0
 91 94  1  1
 91 92  1  0
 93 91  1  0
M  ISO  4  10 100  18 100  53 101  54 101
M  END
>  <TORSDO>  (73) 
F 21

>  <SCORE>  (73) 
-10.639

>  <name>  (73) 
72

>  <ligand_id>  (73) 
72

>  <original_smiles>  (73) 
[H]c1c([H])c([H])c2c(c1[H])C([H])([H])C([H])([H])C([H])([H])C2([H])N([H])C(=O)C1([H])N(C(=O)C([H])(N([H])C(=O)C([H])(N([H])C([H])([H])[H])C([H])([H])[H])C(C([H])([H])[H])(C([H])([H])[H])C([H])([H])[H])C([H])([H])c2c([H])c(OC([H])([H])C([H])([H])[N+]([H])([H])C([H])([H])c3c([H])c(C([H])([H])[H])c(C([H])([H])N([H])C(=O)N4C([H])([H])C([H])([H])C([H])([H])C([H])(n5nc(-c6c([H])c([H])c(Oc7c([H])c([H])c(F)c([H])c7F)c([H])c6[H])c(C(=O)N([H])[H])c5N([H])[H])C4([H])[H])c([H])c3Cl)c([H])c([H])c2C1([H])[H]

>  <smiles>  (73) 
[H]c1c([H])c([H])c2c(c1[H])C([H])([H])C([H])([H])C([H])([H])C2([H])N([H])C(=O)C1([H])N(C(=O)C([H])(N([H])C(=O)C([H])(N([H])C([H])([H])[H])C([H])([H])[H])C(C([H])([H])[H])(C([H])([H])[H])C([H])([H])[H])C([H])([H])c2c([H])c(OC([H])([H])C([H])([H])[N+]([H])([H])C([H])([H])c3c([H])c(C([H])([H])[H])c(C([H])([H])N([H])C(=O)N4C([H])([H])C([H])([H])C([H])([H])C([H])(n5nc(-c6c([H])c([H])c(Oc7c([H])c([H])c(F)c([H])c7F)c([H])c6[H])c(C(=O)N([H])[H])c5N([H])[H])C4([H])[H])c([H])c3Cl)c([H])c([H])c2C1([H])[H]

$$$$
73:0:0
     RDKit          3D

100109  0  0  1  0  0  0  0  0999 V2000
  -27.7970  -23.4010   19.3770 C   0  0  0  0  0  0  0  0  0  0  0  0
  -26.7860  -22.8760   18.6470 C   0  0  0  0  0  3  0  0  0  0  0  0
  -27.7390  -24.1360   22.6190 C   0  0  0  0  0  2  0  0  0  0  0  0
  -28.6120  -25.3070   22.1090 C   0  0  0  0  0  2  0  0  0  0  0  0
  -28.3950  -22.7400   22.6320 C   0  0  0  0  0  2  0  0  0  0  0  0
  -29.0770  -25.3050   20.6320 C   0  0  0  0  0  2  0  0  0  0  0  0
  -28.1350  -21.9150   21.3570 C   0  0  0  0  0  2  0  0  0  0  0  0
  -27.9960  -24.9150   19.5860 C   0  0  0  0  0  3  0  0  0  0  0  0
  -28.7630  -22.5680   20.1770 N   0  0  1  0  0  4  0  0  0  0  0  0
  -29.3570  -23.2420   20.6370 H   0  0  0  0  0  0  0  0  0  0  0  0
  -25.3610  -21.0600   17.8480 C   0  0  0  0  0  2  0  0  0  0  0  0
  -26.4850  -21.4670   18.4560 C   0  0  0  0  0  3  0  0  0  0  0  0
  -29.7750  -21.8000   19.3780 C   0  0  0  0  0  2  0  0  0  0  0  0
  -30.5690  -19.9440   20.9940 C   0  0  0  0  0  3  0  0  0  0  0  0
  -30.7420  -18.5780   21.3100 C   0  0  0  0  0  3  0  0  0  0  0  0
  -29.7170  -19.3170   18.8110 C   0  0  0  0  0  3  0  0  0  0  0  0
  -30.0260  -20.3260   19.7470 C   0  0  0  0  0  0  0  0  0  0  0  0
  -29.9120  -17.9470   19.1070 C   0  0  0  0  0  0  0  0  0  0  0  0
  -30.4210  -17.5640   20.3800 C   0  0  0  0  0  0  0  0  0  0  0  0
  -29.5290  -16.9390   18.0360 C   0  0  0  0  0  1  0  0  0  0  0  0
  -31.2710  -15.2110   20.3770 C   0  0  0  0  0  0  0  0  0  0  0  0
  -31.1020  -12.9590   19.3950 C   0  0  0  0  0  2  0  0  0  0  0  0
  -30.1640  -13.0390   18.1720 C   0  0  0  0  0  2  0  0  0  0  0  0
  -28.6840  -12.9060   18.5880 C   0  0  0  0  0  2  0  0  0  0  0  0
  -28.3080  -13.8020   19.7980 C   0  0  0  0  0  3  0  0  0  0  0  0
  -29.3580  -13.6650   20.9250 C   0  0  0  0  0  2  0  0  0  0  0  0
  -30.6790  -13.9860   20.3570 N   0  0  0  0  0  0  0  0  0  0  0  0
  -32.3970  -15.4220   19.9150 O   0  0  0  0  0  0  0  0  0  0  0  0
  -30.4800  -16.2060   20.8240 N   0  0  0  0  0  0  0  0  0  0  0  0
  -29.6720  -15.8880   21.3390 H   0  0  0  0  0  0  0  0  0  0  0  0
  -25.9280  -14.4150   20.5620 C   0  0  0  0  0  0  0  0  0  0  0  0
  -24.8480  -13.6420   20.8940 C   0  0  0  0  0  0  0  0  0  0  0  0
  -25.2830  -12.2870   20.7750 C   0  0  0  0  0  0  0  0  0  0  0  0
  -26.9550  -13.5280   20.2720 N   0  0  0  0  0  0  0  0  0  0  0  0
  -26.5690  -12.2410   20.4540 N   0  0  0  0  0  0  0  0  0  0  0  0
  -24.5350  -11.0290   20.8940 C   0  0  0  0  0  0  0  0  0  0  0  0
  -24.9130  -10.0320   21.8200 C   0  0  0  0  0  3  0  0  0  0  0  0
  -24.1710   -8.8360   21.9300 C   0  0  0  0  0  3  0  0  0  0  0  0
  -23.0340   -8.6310   21.1110 C   0  0  0  0  0  0  0  0  0  0  0  0
  -22.6760   -9.6160   20.1740 C   0  0  0  0  0  3  0  0  0  0  0  0
  -23.4190  -10.8030   20.0630 C   0  0  0  0  0  3  0  0  0  0  0  0
  -22.2660   -7.4920   21.1300 O   0  0  0  0  0  0  0  0  0  0  0  0
  -22.0260   -6.8060   22.2940 C   0  0  0  0  0  0  0  0  0  0  0  0
  -21.3930   -7.4140   23.4000 C   0  0  0  0  0  3  0  0  0  0  0  0
  -21.1020   -6.6550   24.5510 C   0  0  0  0  0  3  0  0  0  0  0  0
  -21.4320   -5.2870   24.5940 C   0  0  0  0  0  0  0  0  0  0  0  0
  -22.0600   -4.6790   23.4920 C   0  0  0  0  0  3  0  0  0  0  0  0
  -22.3520   -5.4360   22.3450 C   0  0  0  0  0  0  0  0  0  0  0  0
  -22.9360   -4.8400   21.2770 F   0  0  0  0  0  0  0  0  0  0  0  0
  -21.1450   -4.5550   25.6960 F   0  0  0  0  0  0  0  0  0  0  0  0
  -23.4630  -14.1270   21.2090 C   0  0  0  0  0  0  0  0  0  0  0  0
  -22.7330  -13.4060   22.0530 N   0  0  0  0  0  0  0  0  0  0  0  0
  -23.0350  -15.1830   20.7420 O   0  0  0  0  0  0  0  0  0  0  0  0
  -23.0890  -12.5540   22.4600 H   0  0  0  0  0  0  0  0  0  0  0  0
  -21.8040  -13.7160   22.2990 H   0  0  0  0  0  0  0  0  0  0  0  0
  -26.1140  -15.7910   20.4670 N   0  0  0  0  0  0  0  0  0  0  0  0
  -25.3550  -16.4450   20.6230 H   0  0  0  0  0  0  0  0  0  0  0  0
  -26.9720  -16.2390   20.1700 H   0  0  0  0  0  0  0  0  0  0  0  0
  -28.1760  -25.6510   18.2190 C   0  0  0  0  0  2  0  0  0  0  0  0
  -28.0690  -27.0840   18.2690 O   0  0  0  0  0  0  0  0  0  0  0  0
  -24.5510  -31.3040   22.7700 C   0  0  0  0  0  0  0  0  0  0  0  0
  -26.8560  -27.6870   18.5440 C   0  0  0  0  0  0  0  0  0  0  0  0
  -23.1550  -30.1000   21.1210 C   0  0  0  0  0  3  0  0  0  0  0  0
  -24.4180  -28.9620   19.2200 C   0  0  0  0  0  0  0  0  0  0  0  0
  -25.5850  -30.7000   20.5860 C   0  0  0  0  0  2  0  0  0  0  0  0
  -25.6290  -29.4690   19.7030 C   0  0  0  0  0  0  0  0  0  0  0  0
  -26.8470  -28.8350   19.3700 C   0  0  0  0  0  3  0  0  0  0  0  0
  -25.6210  -27.2110   18.0410 C   0  0  0  0  0  3  0  0  0  0  0  0
  -24.4080  -27.8330   18.3870 C   0  0  0  0  0  3  0  0  0  0  0  0
  -23.1550  -29.6880   19.6250 C   0  0  0  0  0  2  0  0  0  0  0  0
  -24.4560  -30.7090   21.5470 N   0  0  0  0  0  0  0  0  0  0  0  0
  -23.5670  -31.3860   23.5180 O   0  0  0  0  0  0  0  0  0  0  0  0
  -22.7440  -28.8790   21.9720 C   0  0  0  0  0  0  0  0  0  0  0  0
  -21.4530  -28.5140   21.9100 N   0  0  0  0  0  0  0  0  0  0  0  0
  -23.5780  -28.2670   22.6450 O   0  0  0  0  0  0  0  0  0  0  0  0
  -20.8280  -29.0740   21.3490 H   0  0  0  0  0  0  0  0  0  0  0  0
  -18.3840  -26.6510   22.3050 C   0  0  0  0  0  0  0  0  0  0  0  0
  -20.8480  -27.3730   22.5960 C   0  0  0  0  0  3  0  0  0  0  0  0
  -21.2150  -26.0440   21.8940 C   0  0  0  0  0  2  0  0  0  0  0  0
  -20.1770  -25.6010   20.8580 C   0  0  0  0  0  2  0  0  0  0  0  0
  -18.8040  -25.4240   21.5130 C   0  0  0  0  0  2  0  0  0  0  0  0
  -19.3430  -27.5740   22.8000 C   0  0  0  0  0  0  0  0  0  0  0  0
  -18.8950  -28.7170   23.4990 C   0  0  0  0  0  3  0  0  0  0  0  0
  -17.5210  -28.9430   23.7070 C   0  0  0  0  0  3  0  0  0  0  0  0
  -16.5770  -28.0190   23.2280 C   0  0  0  0  0  3  0  0  0  0  0  0
  -17.0100  -26.8740   22.5330 C   0  0  0  0  0  3  0  0  0  0  0  0
  -25.8880  -31.9300   23.2770 C   0  0  0  0  0  3  0  0  0  0  0  0
  -26.6730  -30.9960   24.2780 C   0  0  1  0  0  0  0  0  0  0  0  0
  -25.8090  -30.4800   25.4510 C   0  0  0  0  0  1  0  0  0  0  0  0
  -27.2530  -29.7670   23.5420 C   0  0  0  0  0  1  0  0  0  0  0  0
  -27.8770  -31.7630   24.8760 C   0  0  0  0  0  1  0  0  0  0  0  0
  -25.5640  -33.2150   23.9090 N   0  0  0  0  0  0  0  0  0  0  0  0
  -25.7760  -34.4130   23.3490 C   0  0  0  0  0  0  0  0  0  0  0  0
  -26.3410  -34.5530   22.2600 O   0  0  0  0  0  0  0  0  0  0  0  0
  -25.0530  -33.1750   24.7790 H   0  0  0  0  0  0  0  0  0  0  0  0
  -23.9810  -36.1690   23.4850 C   0  0  0  0  0  1  0  0  0  0  0  0
  -25.2830  -35.6530   24.1180 C   0  0  0  0  0  3  0  0  0  0  0  0
  -27.4400  -36.4330   24.9970 C   0  0  0  0  0  1  0  0  0  0  0  0
  -26.2770  -36.7470   24.1710 N   0  0  0  0  0  0  0  0  0  0  0  0
  -25.8560  -37.6010   24.5290 H   0  0  0  0  0  0  0  0  0  0  0  0
  1  8  1  0
  1  9  1  0
  2  1  2  0
  3  5  1  0
  4  3  1  0
  6  4  1  0
  7  5  1  0
  8 59  1  0
  8  6  1  0
  9 10  1  1
  9  7  1  0
 11 12  2  0
 12  2  1  0
 13 17  1  0
 13  9  1  0
 14 15  1  0
 16 18  2  0
 16 17  1  0
 17 14  2  0
 18 19  1  0
 19 29  1  0
 19 15  2  0
 20 18  1  0
 21 29  1  0
 22 27  1  0
 23 24  1  0
 23 22  1  0
 25 24  1  0
 25 34  1  0
 25 26  1  0
 27 21  1  0
 27 26  1  0
 28 21  2  0
 29 30  1  0
 31 32  2  0
 32 51  1  0
 33 36  1  0
 33 32  1  0
 34 35  1  0
 34 31  1  0
 35 33  2  0
 36 37  1  0
 37 38  2  0
 39 42  1  0
 39 38  1  0
 40 39  2  0
 41 40  1  0
 41 36  2  0
 42 43  1  0
 43 48  2  0
 43 44  1  0
 44 45  2  0
 45 46  1  0
 46 50  1  0
 47 46  2  0
 48 47  1  0
 49 48  1  0
 51 52  1  0
 52 55  1  0
 52 54  1  0
 53 51  2  0
 56 31  1  0
 56 57  1  0
 58 56  1  0
 59 60  1  0
 60 62  1  0
 61 72  2  0
 62 67  1  0
 63 71  1  0
 63 73  1  0
 64 70  1  0
 64 66  1  0
 65 71  1  0
 66 65  1  0
 67 66  2  0
 68 69  1  0
 68 62  2  0
 69 64  2  0
 70 63  1  0
 71 61  1  0
 73 75  2  0
 74 73  1  0
 76 74  1  0
 77 86  2  0
 77 82  1  0
 78 74  1  0
 78 82  1  0
 79 78  1  0
 80 81  1  0
 80 79  1  0
 81 77  1  0
 82 83  2  0
 83 84  1  0
 85 84  2  0
 86 85  1  0
 87 61  1  0
 87 92  1  0
 87 88  1  0
 88 91  1  1
 88 89  1  0
 90 88  1  0
 92 95  1  0
 93 92  1  0
 93 97  1  0
 94 93  2  0
 97 96  1  0
 97 99  1  0
 99100  1  0
 99 98  1  0
M  ISO  4  21 100  29 100  59 101  60 101
M  END
>  <TORSDO>  (74) 
F 20

>  <SCORE>  (74) 
-9.930

>  <name>  (74) 
73

>  <ligand_id>  (74) 
73

>  <original_smiles>  (74) 
[H]C([H])=C([H])C([H])=C1C([H])(C([H])([H])Oc2c([H])c([H])c3c(c2[H])C([H])([H])N(C(=O)C([H])(N([H])C(=O)C([H])(N([H])C([H])([H])[H])C([H])([H])[H])C(C([H])([H])[H])(C([H])([H])[H])C([H])([H])[H])C([H])(C(=O)N([H])C2([H])c4c([H])c([H])c([H])c([H])c4C([H])([H])C([H])([H])C2([H])[H])C3([H])[H])C([H])([H])C([H])([H])C([H])([H])C([H])([H])C([H])([H])[N+]1([H])C([H])([H])c1c([H])c([H])c(N([H])C(=O)N2C([H])([H])C([H])([H])C([H])([H])C([H])(n3nc(-c4c([H])c([H])c(Oc5c([H])c([H])c(F)c([H])c5F)c([H])c4[H])c(C(=O)N([H])[H])c3N([H])[H])C2([H])[H])c(C([H])([H])[H])c1[H]

>  <smiles>  (74) 
[H]C([H])=C([H])C([H])=C1C([H])(C([H])([H])Oc2c([H])c([H])c3c(c2[H])C([H])([H])N(C(=O)C([H])(N([H])C(=O)C([H])(N([H])C([H])([H])[H])C([H])([H])[H])C(C([H])([H])[H])(C([H])([H])[H])C([H])([H])[H])C([H])(C(=O)N([H])C2([H])c4c([H])c([H])c([H])c([H])c4C([H])([H])C([H])([H])C2([H])[H])C3([H])[H])C([H])([H])C([H])([H])C([H])([H])C([H])([H])C([H])([H])[N+]1([H])C([H])([H])c1c([H])c([H])c(N([H])C(=O)N2C([H])([H])C([H])([H])C([H])([H])C([H])(n3nc(-c4c([H])c([H])c(Oc5c([H])c([H])c(F)c([H])c5F)c([H])c4[H])c(C(=O)N([H])[H])c3N([H])[H])C2([H])[H])c(C([H])([H])[H])c1[H]

$$$$
74:0:0
     RDKit          3D

 99108  0  0  1  0  0  0  0  0999 V2000
  -30.5930  -22.0800   19.3620 C   0  0  0  0  0  0  0  0  0  0  0  0
  -31.4450  -21.8860   20.3820 C   0  0  0  0  0  2  0  0  0  0  0  0
  -29.3400  -22.9760   19.4080 C   0  0  0  0  0  2  0  0  0  0  0  0
  -31.7880  -24.6390   18.1900 C   0  0  0  0  0  2  0  0  0  0  0  0
  -31.9500  -23.6220   17.0380 C   0  0  0  0  0  2  0  0  0  0  0  0
  -30.3580  -25.1630   18.4230 C   0  0  0  0  0  2  0  0  0  0  0  0
  -30.9210  -22.4700   16.9000 C   0  0  0  0  0  2  0  0  0  0  0  0
  -29.6030  -24.5080   19.6050 C   0  0  0  0  0  3  0  0  0  0  0  0
  -30.8910  -21.4730   18.0150 N   0  0  2  0  0  4  0  0  0  0  0  0
  -31.8370  -21.1270   18.0640 H   0  0  0  0  0  0  0  0  0  0  0  0
  -30.1140  -20.2400   17.6470 C   0  0  0  0  0  2  0  0  0  0  0  0
  -32.4870  -17.2240   17.1550 C   0  0  0  0  0  3  0  0  0  0  0  0
  -30.2530  -17.8810   18.6880 C   0  0  0  0  0  3  0  0  0  0  0  0
  -31.9780  -18.5280   17.0800 C   0  0  0  0  0  0  0  0  0  0  0  0
  -31.8900  -16.2320   17.9460 C   0  0  0  0  0  0  0  0  0  0  0  0
  -30.8250  -18.8780   17.8390 C   0  0  0  0  0  0  0  0  0  0  0  0
  -30.7780  -16.5590   18.7850 C   0  0  0  0  0  0  0  0  0  0  0  0
  -32.6850  -19.4730   16.1200 C   0  0  0  0  0  1  0  0  0  0  0  0
  -32.4940  -14.8440   17.7770 C   0  0  0  0  0  1  0  0  0  0  0  0
  -30.6940  -14.6370   20.3960 C   0  0  0  0  0  0  0  0  0  0  0  0
  -30.3940  -12.3720   19.5940 C   0  0  0  0  0  2  0  0  0  0  0  0
  -29.5040  -12.4780   18.3360 C   0  0  0  0  0  2  0  0  0  0  0  0
  -28.0210  -12.3820   18.7270 C   0  0  0  0  0  2  0  0  0  0  0  0
  -27.6300  -13.3190   19.9020 C   0  0  0  0  0  3  0  0  0  0  0  0
  -28.6660  -13.2760   21.0500 C   0  0  0  0  0  2  0  0  0  0  0  0
  -29.9980  -13.4770   20.4680 N   0  0  0  0  0  0  0  0  0  0  0  0
  -31.8950  -14.7060   20.6250 O   0  0  0  0  0  0  0  0  0  0  0  0
  -30.1120  -15.6050   19.6500 N   0  0  0  0  0  0  0  0  0  0  0  0
  -29.1080  -15.5570   19.5770 H   0  0  0  0  0  0  0  0  0  0  0  0
  -25.2220  -13.9320   20.5630 C   0  0  0  0  0  0  0  0  0  0  0  0
  -24.1410  -13.1630   20.9110 C   0  0  0  0  0  0  0  0  0  0  0  0
  -24.6020  -11.8120   20.9070 C   0  0  0  0  0  0  0  0  0  0  0  0
  -26.2710  -13.0490   20.3710 N   0  0  0  0  0  0  0  0  0  0  0  0
  -25.9020  -11.7700   20.6420 N   0  0  0  0  0  0  0  0  0  0  0  0
  -23.8690  -10.5510   21.0840 C   0  0  0  0  0  0  0  0  0  0  0  0
  -24.2820   -9.5810   22.0230 C   0  0  0  0  0  3  0  0  0  0  0  0
  -23.5520   -8.3850   22.1880 C   0  0  0  0  0  3  0  0  0  0  0  0
  -22.3900   -8.1500   21.4150 C   0  0  0  0  0  0  0  0  0  0  0  0
  -21.9970   -9.1070   20.4620 C   0  0  0  0  0  3  0  0  0  0  0  0
  -22.7280  -10.2940   20.2950 C   0  0  0  0  0  3  0  0  0  0  0  0
  -21.6320   -7.0070   21.4880 O   0  0  0  0  0  0  0  0  0  0  0  0
  -21.5700   -6.2610   22.6380 C   0  0  0  0  0  0  0  0  0  0  0  0
  -21.1230   -6.8070   23.8600 C   0  0  0  0  0  3  0  0  0  0  0  0
  -21.0080   -5.9870   24.9990 C   0  0  0  0  0  3  0  0  0  0  0  0
  -21.3280   -4.6180   24.9160 C   0  0  0  0  0  0  0  0  0  0  0  0
  -21.7650   -4.0690   23.6970 C   0  0  0  0  0  3  0  0  0  0  0  0
  -21.8810   -4.8870   22.5610 C   0  0  0  0  0  0  0  0  0  0  0  0
  -22.2840   -4.3490   21.3850 F   0  0  0  0  0  0  0  0  0  0  0  0
  -21.2080   -3.8260   26.0080 F   0  0  0  0  0  0  0  0  0  0  0  0
  -22.7370  -13.6460   21.1330 C   0  0  0  0  0  0  0  0  0  0  0  0
  -21.9790  -12.9560   21.9800 N   0  0  0  0  0  0  0  0  0  0  0  0
  -22.3180  -14.6690   20.5950 O   0  0  0  0  0  0  0  0  0  0  0  0
  -22.3270  -12.1290   22.4440 H   0  0  0  0  0  0  0  0  0  0  0  0
  -21.0330  -13.2600   22.1660 H   0  0  0  0  0  0  0  0  0  0  0  0
  -25.3900  -15.2990   20.3700 N   0  0  0  0  0  0  0  0  0  0  0  0
  -24.6170  -15.9540   20.4550 H   0  0  0  0  0  0  0  0  0  0  0  0
  -26.2490  -15.7380   20.0660 H   0  0  0  0  0  0  0  0  0  0  0  0
  -28.2630  -25.2590   19.8240 C   0  0  0  0  0  2  0  0  0  0  0  0
  -28.3700  -26.6630   20.1570 O   0  0  0  0  0  0  0  0  0  0  0  0
  -24.5690  -31.8770   23.2860 C   0  0  0  0  0  0  0  0  0  0  0  0
  -27.1920  -27.3990   20.1900 C   0  0  0  0  0  0  0  0  0  0  0  0
  -23.3630  -30.4830   21.6460 C   0  0  0  0  0  3  0  0  0  0  0  0
  -24.8040  -28.9370   20.2360 C   0  0  0  0  0  0  0  0  0  0  0  0
  -25.8940  -30.8270   21.4440 C   0  0  0  0  0  2  0  0  0  0  0  0
  -25.9740  -29.4520   20.8050 C   0  0  0  0  0  0  0  0  0  0  0  0
  -27.1720  -28.6920   20.7730 C   0  0  0  0  0  3  0  0  0  0  0  0
  -25.9770  -26.8990   19.6520 C   0  0  0  0  0  3  0  0  0  0  0  0
  -24.7980  -27.6570   19.6710 C   0  0  0  0  0  3  0  0  0  0  0  0
  -23.5700  -29.8080   20.2690 C   0  0  0  0  0  2  0  0  0  0  0  0
  -24.6290  -31.0750   22.1850 N   0  0  0  0  0  0  0  0  0  0  0  0
  -23.4870  -32.1520   23.8230 O   0  0  0  0  0  0  0  0  0  0  0  0
  -22.7070  -29.4620   22.6020 C   0  0  0  0  0  0  0  0  0  0  0  0
  -21.3850  -29.2720   22.4610 N   0  0  0  0  0  0  0  0  0  0  0  0
  -23.3850  -28.8400   23.4250 O   0  0  0  0  0  0  0  0  0  0  0  0
  -20.9030  -29.8160   21.7590 H   0  0  0  0  0  0  0  0  0  0  0  0
  -18.0100  -28.0730   22.9340 C   0  0  0  0  0  0  0  0  0  0  0  0
  -20.5640  -28.3350   23.2270 C   0  0  0  0  0  3  0  0  0  0  0  0
  -20.6750  -26.9040   22.6560 C   0  0  0  0  0  2  0  0  0  0  0  0
  -19.5810  -26.5760   21.6340 C   0  0  0  0  0  2  0  0  0  0  0  0
  -18.1930  -26.7220   22.2640 C   0  0  0  0  0  2  0  0  0  0  0  0
  -19.1240  -28.8380   23.3710 C   0  0  0  0  0  0  0  0  0  0  0  0
  -18.8990  -30.1030   23.9550 C   0  0  0  0  0  3  0  0  0  0  0  0
  -17.5920  -30.6040   24.1110 C   0  0  0  0  0  3  0  0  0  0  0  0
  -16.4930  -29.8360   23.6930 C   0  0  0  0  0  3  0  0  0  0  0  0
  -16.7020  -28.5730   23.1100 C   0  0  0  0  0  3  0  0  0  0  0  0
  -25.8550  -32.5080   23.9070 C   0  0  0  0  0  3  0  0  0  0  0  0
  -26.3530  -31.7480   25.1990 C   0  0  1  0  0  0  0  0  0  0  0  0
  -25.2480  -31.5370   26.2600 C   0  0  0  0  0  1  0  0  0  0  0  0
  -26.9240  -30.3610   24.8270 C   0  0  0  0  0  1  0  0  0  0  0  0
  -27.5070  -32.5410   25.8580 C   0  0  0  0  0  1  0  0  0  0  0  0
  -25.5560  -33.9120   24.2140 N   0  0  0  0  0  0  0  0  0  0  0  0
  -25.9100  -34.9490   23.4450 C   0  0  0  0  0  0  0  0  0  0  0  0
  -26.5940  -34.8240   22.4260 O   0  0  0  0  0  0  0  0  0  0  0  0
  -24.9500  -34.0820   25.0030 H   0  0  0  0  0  0  0  0  0  0  0  0
  -24.2110  -36.7550   23.0290 C   0  0  0  0  0  1  0  0  0  0  0  0
  -25.4300  -36.3480   23.8730 C   0  0  0  0  0  3  0  0  0  0  0  0
  -27.5560  -37.2160   24.7420 C   0  0  0  0  0  1  0  0  0  0  0  0
  -26.4780  -37.3880   23.7710 N   0  0  0  0  0  0  0  0  0  0  0  0
  -26.0810  -38.3150   23.8980 H   0  0  0  0  0  0  0  0  0  0  0  0
  1  3  1  0
  1  2  2  0
  3  8  1  0
  4  6  1  0
  5  4  1  0
  6  8  1  0
  7  5  1  0
  7  9  1  0
  8 58  1  0
  9 10  1  1
  9  1  1  0
 11 16  1  0
 11  9  1  0
 12 15  1  0
 13 17  1  0
 14 12  2  0
 14 16  1  0
 15 17  2  0
 16 13  2  0
 17 28  1  0
 18 14  1  0
 19 15  1  0
 20 26  1  0
 20 27  2  0
 21 26  1  0
 22 23  1  0
 22 21  1  0
 24 23  1  0
 24 33  1  0
 24 25  1  0
 26 25  1  0
 28 20  1  0
 29 28  1  0
 30 31  2  0
 31 50  1  0
 32 31  1  0
 32 35  1  0
 33 30  1  0
 33 34  1  0
 34 32  2  0
 35 36  1  0
 36 37  2  0
 38 41  1  0
 38 37  1  0
 39 38  2  0
 40 39  1  0
 40 35  2  0
 41 42  1  0
 42 43  1  0
 43 44  2  0
 45 44  1  0
 45 49  1  0
 46 45  2  0
 47 42  2  0
 47 46  1  0
 48 47  1  0
 50 51  1  0
 51 54  1  0
 51 53  1  0
 52 50  2  0
 55 56  1  0
 55 30  1  0
 57 55  1  0
 58 59  1  0
 59 61  1  0
 60 71  2  0
 61 66  1  0
 62 70  1  0
 62 72  1  0
 63 69  1  0
 63 65  1  0
 64 70  1  0
 65 64  1  0
 66 65  2  0
 67 68  1  0
 67 61  2  0
 68 63  2  0
 69 62  1  0
 70 60  1  0
 72 74  2  0
 73 72  1  0
 75 73  1  0
 76 85  2  0
 76 81  1  0
 77 73  1  0
 77 81  1  0
 78 77  1  0
 79 80  1  0
 79 78  1  0
 80 76  1  0
 81 82  2  0
 82 83  1  0
 84 83  2  0
 85 84  1  0
 86 60  1  0
 86 91  1  0
 86 87  1  0
 87 90  1  1
 87 88  1  0
 89 87  1  0
 91 94  1  0
 92 96  1  0
 92 91  1  0
 93 92  2  0
 96 95  1  0
 98 96  1  0
 98 99  1  0
 98 97  1  0
M  ISO  4  20 100  28 100  58 101  59 101
M  END
>  <TORSDO>  (75) 
F 19

>  <SCORE>  (75) 
-14.199

>  <name>  (75) 
74

>  <ligand_id>  (75) 
74

>  <original_smiles>  (75) 
[H]C([H])=C1C([H])([H])C([H])(C([H])([H])Oc2c([H])c([H])c3c(c2[H])C([H])([H])N(C(=O)C([H])(N([H])C(=O)C([H])(N([H])C([H])([H])[H])C([H])([H])[H])C(C([H])([H])[H])(C([H])([H])[H])C([H])([H])[H])C([H])(C(=O)N([H])C2([H])c4c([H])c([H])c([H])c([H])c4C([H])([H])C([H])([H])C2([H])[H])C3([H])[H])C([H])([H])C([H])([H])C([H])([H])C([H])([H])[N+]1([H])C([H])([H])c1c([H])c(N([H])C(=O)N2C([H])([H])C([H])([H])C([H])([H])C([H])(n3nc(-c4c([H])c([H])c(Oc5c([H])c([H])c(F)c([H])c5F)c([H])c4[H])c(C(=O)N([H])[H])c3N([H])[H])C2([H])[H])c(C([H])([H])[H])c([H])c1C([H])([H])[H]

>  <smiles>  (75) 
[H]C([H])=C1C([H])([H])C([H])(C([H])([H])Oc2c([H])c([H])c3c(c2[H])C([H])([H])N(C(=O)C([H])(N([H])C(=O)C([H])(N([H])C([H])([H])[H])C([H])([H])[H])C(C([H])([H])[H])(C([H])([H])[H])C([H])([H])[H])C([H])(C(=O)N([H])C2([H])c4c([H])c([H])c([H])c([H])c4C([H])([H])C([H])([H])C2([H])[H])C3([H])[H])C([H])([H])C([H])([H])C([H])([H])C([H])([H])[N+]1([H])C([H])([H])c1c([H])c(N([H])C(=O)N2C([H])([H])C([H])([H])C([H])([H])C([H])(n3nc(-c4c([H])c([H])c(Oc5c([H])c([H])c(F)c([H])c5F)c([H])c4[H])c(C(=O)N([H])[H])c3N([H])[H])C2([H])[H])c(C([H])([H])[H])c([H])c1C([H])([H])[H]

$$$$
75:0:0
     RDKit          3D

100109  0  0  1  0  0  0  0  0999 V2000
  -30.0900  -23.5380   20.2140 C   0  0  0  0  0  0  0  0  0  0  0  0
  -30.4480  -23.3110   18.9330 C   0  0  0  0  0  3  0  0  0  0  0  0
  -29.9880  -24.9120   20.9080 C   0  0  0  0  0  2  0  0  0  0  0  0
  -27.4030  -23.2520   21.6450 C   0  0  0  0  0  2  0  0  0  0  0  0
  -27.4560  -24.4710   20.6990 C   0  0  0  0  0  2  0  0  0  0  0  0
  -28.7370  -22.6790   22.1750 C   0  0  0  0  0  2  0  0  0  0  0  0
  -28.5590  -25.5340   20.9660 C   0  0  0  0  0  3  0  0  0  0  0  0
  -29.7510  -22.3730   21.1240 N   0  0  2  0  0  4  0  0  0  0  0  0
  -29.3070  -21.6720   20.5510 H   0  0  0  0  0  0  0  0  0  0  0  0
  -30.0770  -24.1380   16.5740 C   0  0  0  0  0  1  0  0  0  0  0  0
  -30.8120  -24.3620   17.8990 C   0  0  0  0  0  2  0  0  0  0  0  0
  -28.5170  -26.6720   20.0690 O   0  0  0  0  0  0  0  0  0  0  0  0
  -24.6160  -31.7650   23.2220 C   0  0  0  0  0  0  0  0  0  0  0  0
  -27.3620  -27.4290   20.0780 C   0  0  0  0  0  0  0  0  0  0  0  0
  -23.4540  -30.3780   21.5350 C   0  0  0  0  0  3  0  0  0  0  0  0
  -24.9500  -28.9090   20.0850 C   0  0  0  0  0  0  0  0  0  0  0  0
  -25.9760  -30.7840   21.3760 C   0  0  0  0  0  2  0  0  0  0  0  0
  -26.0900  -29.4270   20.7150 C   0  0  0  0  0  0  0  0  0  0  0  0
  -27.3000  -28.6890   20.7210 C   0  0  0  0  0  3  0  0  0  0  0  0
  -26.2220  -26.9620   19.3910 C   0  0  0  0  0  3  0  0  0  0  0  0
  -25.0120  -27.6770   19.4170 C   0  0  0  0  0  3  0  0  0  0  0  0
  -23.6900  -29.7400   20.1400 C   0  0  0  0  0  2  0  0  0  0  0  0
  -24.6990  -30.9910   22.1010 N   0  0  0  0  0  0  0  0  0  0  0  0
  -23.5240  -32.0000   23.7580 O   0  0  0  0  0  0  0  0  0  0  0  0
  -22.8170  -29.3180   22.4640 C   0  0  0  0  0  0  0  0  0  0  0  0
  -21.4990  -29.1050   22.3190 N   0  0  0  0  0  0  0  0  0  0  0  0
  -23.5060  -28.6910   23.2730 O   0  0  0  0  0  0  0  0  0  0  0  0
  -21.0000  -29.6710   21.6460 H   0  0  0  0  0  0  0  0  0  0  0  0
  -18.1600  -27.7770   22.7080 C   0  0  0  0  0  0  0  0  0  0  0  0
  -20.6970  -28.1310   23.0580 C   0  0  0  0  0  3  0  0  0  0  0  0
  -20.8700  -26.7070   22.4780 C   0  0  0  0  0  2  0  0  0  0  0  0
  -19.8110  -26.3490   21.4300 C   0  0  0  0  0  2  0  0  0  0  0  0
  -18.4070  -26.4390   22.0310 C   0  0  0  0  0  2  0  0  0  0  0  0
  -19.2350  -28.5780   23.1760 C   0  0  0  0  0  0  0  0  0  0  0  0
  -18.9490  -29.8300   23.7650 C   0  0  0  0  0  3  0  0  0  0  0  0
  -17.6200  -30.2790   23.8920 C   0  0  0  0  0  3  0  0  0  0  0  0
  -16.5600  -29.4750   23.4370 C   0  0  0  0  0  3  0  0  0  0  0  0
  -16.8310  -28.2260   22.8510 C   0  0  0  0  0  3  0  0  0  0  0  0
  -25.8840  -32.4060   23.8670 C   0  0  0  0  0  3  0  0  0  0  0  0
  -26.3910  -31.6320   25.1460 C   0  0  1  0  0  0  0  0  0  0  0  0
  -25.2840  -31.3700   26.1940 C   0  0  0  0  0  1  0  0  0  0  0  0
  -26.9990  -30.2670   24.7480 C   0  0  0  0  0  1  0  0  0  0  0  0
  -27.5200  -32.4350   25.8330 C   0  0  0  0  0  1  0  0  0  0  0  0
  -25.5570  -33.7990   24.2030 N   0  0  0  0  0  0  0  0  0  0  0  0
  -25.8770  -34.8570   23.4460 C   0  0  0  0  0  0  0  0  0  0  0  0
  -26.5540  -34.7680   22.4180 O   0  0  0  0  0  0  0  0  0  0  0  0
  -24.9690  -33.9440   25.0100 H   0  0  0  0  0  0  0  0  0  0  0  0
  -24.1270  -36.6270   23.0780 C   0  0  0  0  0  1  0  0  0  0  0  0
  -25.3650  -36.2370   23.9040 C   0  0  0  0  0  3  0  0  0  0  0  0
  -27.4720  -37.1510   24.7700 C   0  0  0  0  0  1  0  0  0  0  0  0
  -26.3830  -37.3050   23.8090 N   0  0  0  0  0  0  0  0  0  0  0  0
  -25.9600  -38.2180   23.9500 H   0  0  0  0  0  0  0  0  0  0  0  0
  -30.9330  -21.6480   21.6890 C   0  0  0  0  0  2  0  0  0  0  0  0
  -32.2830  -17.9500   19.7970 C   0  0  0  0  0  3  0  0  0  0  0  0
  -32.0410  -20.3670   19.8270 C   0  0  0  0  0  3  0  0  0  0  0  0
  -32.5370  -19.2020   19.2170 C   0  0  0  0  0  0  0  0  0  0  0  0
  -31.5240  -17.8290   20.9790 C   0  0  0  0  0  0  0  0  0  0  0  0
  -31.2810  -20.3010   21.0140 C   0  0  0  0  0  0  0  0  0  0  0  0
  -30.9970  -19.0140   21.5830 C   0  0  0  0  0  0  0  0  0  0  0  0
  -33.3960  -19.2880   17.9700 C   0  0  0  0  0  1  0  0  0  0  0  0
  -30.1810  -18.8770   22.8630 C   0  0  0  0  0  1  0  0  0  0  0  0
  -31.4400  -16.4310   21.6390 C   0  0  0  0  0  2  0  0  0  0  0  0
  -31.1390  -14.4150   20.1620 C   0  0  0  0  0  0  0  0  0  0  0  0
  -30.6800  -12.2910   18.9790 C   0  0  0  0  0  2  0  0  0  0  0  0
  -29.7160  -12.4930   17.7960 C   0  0  0  0  0  2  0  0  0  0  0  0
  -28.2530  -12.3880   18.2660 C   0  0  0  0  0  2  0  0  0  0  0  0
  -27.9680  -13.2660   19.5140 C   0  0  0  0  0  3  0  0  0  0  0  0
  -29.0450  -13.0580   20.6010 C   0  0  0  0  0  2  0  0  0  0  0  0
  -30.3650  -13.3060   19.9990 N   0  0  0  0  0  0  0  0  0  0  0  0
  -32.2270  -14.5420   19.5990 O   0  0  0  0  0  0  0  0  0  0  0  0
  -30.6580  -15.3780   20.9670 N   0  0  0  0  0  0  0  0  0  0  0  0
  -29.7250  -15.2280   21.3220 H   0  0  0  0  0  0  0  0  0  0  0  0
  -25.6090  -13.9400   20.2870 C   0  0  0  0  0  0  0  0  0  0  0  0
  -24.5320  -13.1990   20.6880 C   0  0  0  0  0  0  0  0  0  0  0  0
  -24.9550  -11.8350   20.6540 C   0  0  0  0  0  0  0  0  0  0  0  0
  -26.6240  -13.0290   20.0340 N   0  0  0  0  0  0  0  0  0  0  0  0
  -26.2350  -11.7580   20.3130 N   0  0  0  0  0  0  0  0  0  0  0  0
  -24.2000  -10.5940   20.8690 C   0  0  0  0  0  0  0  0  0  0  0  0
  -24.5900   -9.6500   21.8450 C   0  0  0  0  0  3  0  0  0  0  0  0
  -23.8350   -8.4740   22.0460 C   0  0  0  0  0  3  0  0  0  0  0  0
  -22.6760   -8.2340   21.2700 C   0  0  0  0  0  0  0  0  0  0  0  0
  -22.3060   -9.1640   20.2830 C   0  0  0  0  0  3  0  0  0  0  0  0
  -23.0600  -10.3320   20.0820 C   0  0  0  0  0  3  0  0  0  0  0  0
  -21.8960   -7.1070   21.3780 O   0  0  0  0  0  0  0  0  0  0  0  0
  -21.7520   -6.4440   22.5710 C   0  0  0  0  0  0  0  0  0  0  0  0
  -21.2260   -7.0780   23.7180 C   0  0  0  0  0  3  0  0  0  0  0  0
  -21.0290   -6.3400   24.9020 C   0  0  0  0  0  3  0  0  0  0  0  0
  -21.3480   -4.9700   24.9400 C   0  0  0  0  0  0  0  0  0  0  0  0
  -21.8660   -4.3350   23.7970 C   0  0  0  0  0  3  0  0  0  0  0  0
  -22.0650   -5.0700   22.6150 C   0  0  0  0  0  0  0  0  0  0  0  0
  -22.5450   -4.4500   21.5100 F   0  0  0  0  0  0  0  0  0  0  0  0
  -21.1510   -4.2590   26.0740 F   0  0  0  0  0  0  0  0  0  0  0  0
  -23.1540  -13.7150   20.9910 C   0  0  0  0  0  0  0  0  0  0  0  0
  -22.4320  -13.0500   21.8860 N   0  0  0  0  0  0  0  0  0  0  0  0
  -22.7300  -14.7450   20.4690 O   0  0  0  0  0  0  0  0  0  0  0  0
  -22.7870  -12.2180   22.3330 H   0  0  0  0  0  0  0  0  0  0  0  0
  -21.5080  -13.3780   22.1300 H   0  0  0  0  0  0  0  0  0  0  0  0
  -25.8080  -15.3050   20.0990 N   0  0  0  0  0  0  0  0  0  0  0  0
  -25.0650  -15.9840   20.2250 H   0  0  0  0  0  0  0  0  0  0  0  0
  -26.6680  -15.7190   19.7600 H   0  0  0  0  0  0  0  0  0  0  0  0
  1  3  1  0
  1  8  1  0
  2  1  2  0
  3  7  1  0
  4  6  1  0
  5  7  1  0
  5  4  1  0
  7 12  1  0
  8 53  1  0
  8  6  1  0
  8  9  1  6
 10 11  1  0
 11  2  1  0
 12 14  1  0
 13 24  2  0
 14 19  1  0
 15 23  1  0
 15 25  1  0
 16 22  1  0
 16 18  1  0
 17 23  1  0
 18 19  2  0
 18 17  1  0
 20 21  1  0
 20 14  2  0
 21 16  2  0
 22 15  1  0
 23 13  1  0
 25 27  2  0
 26 25  1  0
 28 26  1  0
 29 38  2  0
 29 34  1  0
 30 26  1  0
 30 34  1  0
 31 30  1  0
 32 33  1  0
 32 31  1  0
 33 29  1  0
 34 35  2  0
 35 36  1  0
 37 36  2  0
 38 37  1  0
 39 13  1  0
 39 44  1  0
 39 40  1  0
 40 43  1  1
 40 41  1  0
 42 40  1  0
 44 47  1  0
 45 49  1  0
 45 44  1  0
 46 45  2  0
 49 48  1  0
 51 49  1  0
 51 52  1  0
 51 50  1  0
 54 57  1  0
 55 58  2  0
 56 54  2  0
 56 55  1  0
 57 59  2  0
 57 62  1  0
 58 59  1  0
 58 53  1  0
 59 61  1  0
 60 56  1  0
 63 71  1  0
 64 69  1  0
 65 66  1  0
 65 64  1  0
 67 66  1  0
 67 76  1  0
 67 68  1  0
 69 63  1  0
 69 68  1  0
 70 63  2  0
 71 72  1  0
 71 62  1  0
 73 74  2  0
 74 93  1  0
 75 74  1  0
 75 78  1  0
 76 73  1  0
 76 77  1  0
 77 75  2  0
 78 79  1  0
 79 80  2  0
 81 84  1  0
 81 80  1  0
 82 81  2  0
 83 82  1  0
 83 78  2  0
 84 85  1  0
 85 90  2  0
 85 86  1  0
 86 87  2  0
 87 88  1  0
 88 92  1  0
 89 88  2  0
 90 89  1  0
 91 90  1  0
 93 94  1  0
 94 97  1  0
 94 96  1  0
 95 93  2  0
 98 99  1  0
 98 73  1  0
100 98  1  0
M  ISO  4   7 101  12 101  63 100  71 100
M  END
>  <TORSDO>  (76) 
F 20

>  <SCORE>  (76) 
-12.946

>  <name>  (76) 
75

>  <ligand_id>  (76) 
75

>  <original_smiles>  (76) 
[H]C(=C1C([H])([H])C([H])(Oc2c([H])c([H])c3c(c2[H])C([H])([H])N(C(=O)C([H])(N([H])C(=O)C([H])(N([H])C([H])([H])[H])C([H])([H])[H])C(C([H])([H])[H])(C([H])([H])[H])C([H])([H])[H])C([H])(C(=O)N([H])C2([H])c4c([H])c([H])c([H])c([H])c4C([H])([H])C([H])([H])C2([H])[H])C3([H])[H])C([H])([H])C([H])([H])C([H])([H])[N+]1([H])C([H])([H])c1c([H])c(C([H])([H])[H])c([H])c(C([H])([H])N([H])C(=O)N2C([H])([H])C([H])([H])C([H])([H])C([H])(n3nc(-c4c([H])c([H])c(Oc5c([H])c([H])c(F)c([H])c5F)c([H])c4[H])c(C(=O)N([H])[H])c3N([H])[H])C2([H])[H])c1C([H])([H])[H])C([H])([H])C([H])([H])[H]

>  <smiles>  (76) 
[H]C(=C1C([H])([H])C([H])(Oc2c([H])c([H])c3c(c2[H])C([H])([H])N(C(=O)C([H])(N([H])C(=O)C([H])(N([H])C([H])([H])[H])C([H])([H])[H])C(C([H])([H])[H])(C([H])([H])[H])C([H])([H])[H])C([H])(C(=O)N([H])C2([H])c4c([H])c([H])c([H])c([H])c4C([H])([H])C([H])([H])C2([H])[H])C3([H])[H])C([H])([H])C([H])([H])C([H])([H])[N+]1([H])C([H])([H])c1c([H])c(C([H])([H])[H])c([H])c(C([H])([H])N([H])C(=O)N2C([H])([H])C([H])([H])C([H])([H])C([H])(n3nc(-c4c([H])c([H])c(Oc5c([H])c([H])c(F)c([H])c5F)c([H])c4[H])c(C(=O)N([H])[H])c3N([H])[H])C2([H])[H])c1C([H])([H])[H])C([H])([H])C([H])([H])[H]

$$$$
76:0:0
     RDKit          3D

100109  0  0  1  0  0  0  0  0999 V2000
  -29.1400  -23.6350   19.7180 C   0  0  0  0  0  0  0  0  0  0  0  0
  -28.0280  -23.6420   18.9360 C   0  0  0  0  0  3  0  0  0  0  0  0
  -29.9110  -24.9250   20.0330 C   0  0  0  0  0  2  0  0  0  0  0  0
  -28.7960  -24.7590   23.0260 C   0  0  0  0  0  2  0  0  0  0  0  0
  -29.7450  -23.5450   22.8120 C   0  0  0  0  0  2  0  0  0  0  0  0
  -28.0940  -25.4010   21.8130 C   0  0  0  0  0  2  0  0  0  0  0  0
  -29.2840  -22.3720   21.8940 C   0  0  0  0  0  2  0  0  0  0  0  0
  -29.0560  -26.0140   20.7610 C   0  0  0  0  0  3  0  0  0  0  0  0
  -29.7220  -22.4340   20.4620 N   0  0  1  0  0  4  0  0  0  0  0  0
  -30.7240  -22.5540   20.4930 H   0  0  0  0  0  0  0  0  0  0  0  0
  -27.0840  -22.5690   18.6700 C   0  0  0  0  0  3  0  0  0  0  0  0
  -27.1100  -21.7730   17.5840 C   0  0  0  0  0  3  0  0  0  0  0  0
  -26.1420  -20.6290   17.3590 C   0  0  0  0  0  1  0  0  0  0  0  0
  -28.4420  -26.7920   19.7190 O   0  0  0  0  0  0  0  0  0  0  0  0
  -24.4980  -31.6960   23.2100 C   0  0  0  0  0  0  0  0  0  0  0  0
  -27.2630  -27.4720   19.9280 C   0  0  0  0  0  0  0  0  0  0  0  0
  -23.3100  -30.2600   21.5850 C   0  0  0  0  0  3  0  0  0  0  0  0
  -24.7940  -28.8410   20.0770 C   0  0  0  0  0  0  0  0  0  0  0  0
  -25.8040  -30.7690   21.2970 C   0  0  0  0  0  2  0  0  0  0  0  0
  -25.9460  -29.4120   20.6380 C   0  0  0  0  0  0  0  0  0  0  0  0
  -27.1890  -28.7330   20.5670 C   0  0  0  0  0  3  0  0  0  0  0  0
  -26.0920  -26.9200   19.3670 C   0  0  0  0  0  3  0  0  0  0  0  0
  -24.8610  -27.5890   19.4450 C   0  0  0  0  0  3  0  0  0  0  0  0
  -23.5060  -29.6290   20.1820 C   0  0  0  0  0  2  0  0  0  0  0  0
  -24.5570  -30.9220   22.0890 N   0  0  0  0  0  0  0  0  0  0  0  0
  -23.4250  -31.8900   23.7950 O   0  0  0  0  0  0  0  0  0  0  0  0
  -22.7590  -29.1780   22.5410 C   0  0  0  0  0  0  0  0  0  0  0  0
  -21.4610  -28.8610   22.4020 N   0  0  0  0  0  0  0  0  0  0  0  0
  -23.4950  -28.6280   23.3650 O   0  0  0  0  0  0  0  0  0  0  0  0
  -20.9270  -29.3580   21.7050 H   0  0  0  0  0  0  0  0  0  0  0  0
  -18.2500  -27.2550   22.8070 C   0  0  0  0  0  0  0  0  0  0  0  0
  -20.7390  -27.8500   23.1720 C   0  0  0  0  0  3  0  0  0  0  0  0
  -21.0490  -26.4270   22.6530 C   0  0  0  0  0  2  0  0  0  0  0  0
  -20.0450  -25.9380   21.6050 C   0  0  0  0  0  2  0  0  0  0  0  0
  -18.6270  -25.9210   22.1840 C   0  0  0  0  0  2  0  0  0  0  0  0
  -19.2420  -28.1660   23.2560 C   0  0  0  0  0  0  0  0  0  0  0  0
  -18.8390  -29.4080   23.7940 C   0  0  0  0  0  3  0  0  0  0  0  0
  -17.4750  -29.7440   23.8840 C   0  0  0  0  0  3  0  0  0  0  0  0
  -16.4960  -28.8300   23.4520 C   0  0  0  0  0  3  0  0  0  0  0  0
  -16.8860  -27.5890   22.9210 C   0  0  0  0  0  3  0  0  0  0  0  0
  -25.7680  -32.3860   23.7930 C   0  0  0  0  0  3  0  0  0  0  0  0
  -26.3550  -31.6430   25.0550 C   0  0  1  0  0  0  0  0  0  0  0  0
  -25.3030  -31.3530   26.1490 C   0  0  0  0  0  1  0  0  0  0  0  0
  -26.9990  -30.2990   24.6430 C   0  0  0  0  0  1  0  0  0  0  0  0
  -27.4800  -32.4950   25.6890 C   0  0  0  0  0  1  0  0  0  0  0  0
  -25.4060  -33.7700   24.1280 N   0  0  0  0  0  0  0  0  0  0  0  0
  -25.6600  -34.8300   23.3520 C   0  0  0  0  0  0  0  0  0  0  0  0
  -26.3060  -34.7540   22.3010 O   0  0  0  0  0  0  0  0  0  0  0  0
  -24.8280  -33.9000   24.9470 H   0  0  0  0  0  0  0  0  0  0  0  0
  -23.8420  -36.5360   23.0290 C   0  0  0  0  0  1  0  0  0  0  0  0
  -25.1180  -36.1960   23.8140 C   0  0  0  0  0  3  0  0  0  0  0  0
  -27.2250  -37.1840   24.5960 C   0  0  0  0  0  1  0  0  0  0  0  0
  -26.0980  -37.2950   23.6750 N   0  0  0  0  0  0  0  0  0  0  0  0
  -25.6500  -38.1940   23.8290 H   0  0  0  0  0  0  0  0  0  0  0  0
  -29.5470  -21.1440   19.7010 C   0  0  0  0  0  2  0  0  0  0  0  0
  -31.0910  -19.1270   19.2860 C   0  0  0  0  0  3  0  0  0  0  0  0
  -31.3660  -17.7400   19.4270 C   0  0  0  0  0  3  0  0  0  0  0  0
  -29.8540  -17.6460   21.3100 C   0  0  0  0  0  3  0  0  0  0  0  0
  -30.1510  -19.7840   20.1250 C   0  0  0  0  0  0  0  0  0  0  0  0
  -30.7050  -16.9680   20.4140 C   0  0  0  0  0  0  0  0  0  0  0  0
  -29.5610  -19.0190   21.1660 C   0  0  0  0  0  0  0  0  0  0  0  0
  -28.3650  -19.6890   22.2230 Cl  0  0  0  0  0  0  0  0  0  0  0  0
  -31.1750  -14.6100   19.6460 C   0  0  0  0  0  0  0  0  0  0  0  0
  -30.6650  -12.4520   18.5440 C   0  0  0  0  0  2  0  0  0  0  0  0
  -29.6180  -12.6690   17.4320 C   0  0  0  0  0  2  0  0  0  0  0  0
  -28.1920  -12.5630   18.0020 C   0  0  0  0  0  2  0  0  0  0  0  0
  -27.9990  -13.4330   19.2730 C   0  0  0  0  0  3  0  0  0  0  0  0
  -29.1510  -13.2240   20.2850 C   0  0  0  0  0  2  0  0  0  0  0  0
  -30.4390  -13.4590   19.5970 N   0  0  0  0  0  0  0  0  0  0  0  0
  -32.1730  -14.7880   18.9410 O   0  0  0  0  0  0  0  0  0  0  0  0
  -30.7640  -15.5330   20.5370 N   0  0  0  0  0  0  0  0  0  0  0  0
  -30.1240  -15.1490   21.2140 H   0  0  0  0  0  0  0  0  0  0  0  0
  -25.7240  -14.1120   20.2750 C   0  0  0  0  0  0  0  0  0  0  0  0
  -24.6620  -13.3750   20.7240 C   0  0  0  0  0  0  0  0  0  0  0  0
  -25.0420  -12.0070   20.5790 C   0  0  0  0  0  0  0  0  0  0  0  0
  -26.6920  -13.1970   19.8860 N   0  0  0  0  0  0  0  0  0  0  0  0
  -26.2870  -11.9220   20.1230 N   0  0  0  0  0  0  0  0  0  0  0  0
  -24.2710  -10.7740   20.7910 C   0  0  0  0  0  0  0  0  0  0  0  0
  -24.6890   -9.7960   21.7210 C   0  0  0  0  0  3  0  0  0  0  0  0
  -23.9260   -8.6250   21.9210 C   0  0  0  0  0  3  0  0  0  0  0  0
  -22.7290   -8.4250   21.1920 C   0  0  0  0  0  0  0  0  0  0  0  0
  -22.3280   -9.3910   20.2520 C   0  0  0  0  0  3  0  0  0  0  0  0
  -23.0910  -10.5540   20.0510 C   0  0  0  0  0  3  0  0  0  0  0  0
  -21.9350   -7.3090   21.3010 O   0  0  0  0  0  0  0  0  0  0  0  0
  -21.7920   -6.6410   22.4930 C   0  0  0  0  0  0  0  0  0  0  0  0
  -21.3070   -7.2840   23.6530 C   0  0  0  0  0  3  0  0  0  0  0  0
  -21.1120   -6.5470   24.8370 C   0  0  0  0  0  3  0  0  0  0  0  0
  -21.3850   -5.1650   24.8610 C   0  0  0  0  0  0  0  0  0  0  0  0
  -21.8590   -4.5200   23.7050 C   0  0  0  0  0  3  0  0  0  0  0  0
  -22.0600   -5.2580   22.5240 C   0  0  0  0  0  0  0  0  0  0  0  0
  -22.5010   -4.6290   21.4080 F   0  0  0  0  0  0  0  0  0  0  0  0
  -21.1870   -4.4560   25.9950 F   0  0  0  0  0  0  0  0  0  0  0  0
  -23.3310  -13.9080   21.1760 C   0  0  0  0  0  0  0  0  0  0  0  0
  -22.6800  -13.2210   22.1100 N   0  0  0  0  0  0  0  0  0  0  0  0
  -22.8860  -14.9670   20.7380 O   0  0  0  0  0  0  0  0  0  0  0  0
  -23.0560  -12.3630   22.4830 H   0  0  0  0  0  0  0  0  0  0  0  0
  -21.7940  -13.5580   22.4580 H   0  0  0  0  0  0  0  0  0  0  0  0
  -25.9410  -15.4800   20.1510 N   0  0  0  0  0  0  0  0  0  0  0  0
  -25.2180  -16.1610   20.3610 H   0  0  0  0  0  0  0  0  0  0  0  0
  -26.7780  -15.8960   19.7640 H   0  0  0  0  0  0  0  0  0  0  0  0
  1  3  1  0
  1  9  1  0
  2  1  2  0
  3  8  1  0
  5  4  1  0
  6  4  1  0
  7  5  1  0
  8 14  1  0
  8  6  1  0
  9 10  1  1
  9  7  1  0
 11  2  1  0
 12 11  2  0
 13 12  1  0
 14 16  1  0
 15 26  2  0
 16 21  1  0
 17 25  1  0
 17 27  1  0
 18 24  1  0
 18 20  1  0
 19 25  1  0
 20 19  1  0
 21 20  2  0
 22 23  1  0
 22 16  2  0
 23 18  2  0
 24 17  1  0
 25 15  1  0
 27 29  2  0
 28 27  1  0
 30 28  1  0
 31 40  2  0
 31 36  1  0
 32 28  1  0
 32 36  1  0
 33 32  1  0
 34 35  1  0
 34 33  1  0
 35 31  1  0
 36 37  2  0
 37 38  1  0
 39 38  2  0
 40 39  1  0
 41 15  1  0
 41 46  1  0
 41 42  1  0
 42 45  1  1
 42 43  1  0
 44 42  1  0
 46 49  1  0
 47 51  1  0
 47 46  1  0
 48 47  2  0
 51 50  1  0
 53 51  1  0
 53 54  1  0
 53 52  1  0
 55 59  1  0
 55  9  1  0
 56 57  2  0
 56 59  1  0
 57 60  1  0
 59 61  2  0
 60 71  1  0
 60 58  2  0
 61 58  1  0
 61 62  1  0
 63 71  1  0
 64 69  1  0
 65 66  1  0
 65 64  1  0
 67 66  1  0
 67 76  1  0
 67 68  1  0
 69 63  1  0
 69 68  1  0
 70 63  2  0
 71 72  1  0
 73 74  2  0
 74 93  1  0
 75 74  1  0
 75 78  1  0
 76 77  1  0
 76 73  1  0
 77 75  2  0
 78 79  1  0
 79 80  2  0
 81 84  1  0
 81 80  1  0
 82 81  2  0
 83 82  1  0
 83 78  2  0
 84 85  1  0
 85 90  2  0
 85 86  1  0
 86 87  2  0
 87 88  1  0
 88 92  1  0
 89 88  2  0
 90 89  1  0
 91 90  1  0
 93 94  1  0
 94 97  1  0
 94 96  1  0
 95 93  2  0
 98 73  1  0
 98 99  1  0
100 98  1  0
M  ISO  4   8 101  14 101  63 100  71 100
M  END
>  <TORSDO>  (77) 
F 19

>  <SCORE>  (77) 
-10.209

>  <name>  (77) 
76

>  <ligand_id>  (77) 
76

>  <original_smiles>  (77) 
[H]C(C([H])=C1C([H])([H])C([H])(Oc2c([H])c([H])c3c(c2[H])C([H])([H])N(C(=O)C([H])(N([H])C(=O)C([H])(N([H])C([H])([H])[H])C([H])([H])[H])C(C([H])([H])[H])(C([H])([H])[H])C([H])([H])[H])C([H])(C(=O)N([H])C2([H])c4c([H])c([H])c([H])c([H])c4C([H])([H])C([H])([H])C2([H])[H])C3([H])[H])C([H])([H])C([H])([H])C([H])([H])C([H])([H])[N+]1([H])C([H])([H])c1c([H])c([H])c(N([H])C(=O)N2C([H])([H])C([H])([H])C([H])([H])C([H])(n3nc(-c4c([H])c([H])c(Oc5c([H])c([H])c(F)c([H])c5F)c([H])c4[H])c(C(=O)N([H])[H])c3N([H])[H])C2([H])[H])c([H])c1Cl)=C([H])C([H])([H])[H]

>  <smiles>  (77) 
[H]C(C([H])=C1C([H])([H])C([H])(Oc2c([H])c([H])c3c(c2[H])C([H])([H])N(C(=O)C([H])(N([H])C(=O)C([H])(N([H])C([H])([H])[H])C([H])([H])[H])C(C([H])([H])[H])(C([H])([H])[H])C([H])([H])[H])C([H])(C(=O)N([H])C2([H])c4c([H])c([H])c([H])c([H])c4C([H])([H])C([H])([H])C2([H])[H])C3([H])[H])C([H])([H])C([H])([H])C([H])([H])C([H])([H])[N+]1([H])C([H])([H])c1c([H])c([H])c(N([H])C(=O)N2C([H])([H])C([H])([H])C([H])([H])C([H])(n3nc(-c4c([H])c([H])c(Oc5c([H])c([H])c(F)c([H])c5F)c([H])c4[H])c(C(=O)N([H])[H])c3N([H])[H])C2([H])[H])c([H])c1Cl)=C([H])C([H])([H])[H]

$$$$
77:0:0
     RDKit          3D

100109  0  0  1  0  0  0  0  0999 V2000
  -28.3020  -26.0800   21.3290 C   0  0  0  0  0  2  0  0  0  0  0  0
  -28.4460  -24.6210   21.7830 C   0  0  0  0  0  2  0  0  0  0  0  0
  -30.7320  -25.9250   20.4860 C   0  0  0  0  0  2  0  0  0  0  0  0
  -30.8870  -24.5450   19.7780 C   0  0  0  0  0  2  0  0  0  0  0  0
  -29.3400  -26.5650   20.2950 C   0  0  0  0  0  3  0  0  0  0  0  0
  -28.6980  -23.6180   20.6260 C   0  0  0  0  0  3  0  0  0  0  0  0
  -30.1580  -23.3880   20.3870 N   0  0  2  0  0  4  0  0  0  0  0  0
  -30.1780  -22.6980   19.6510 H   0  0  0  0  0  0  0  0  0  0  0  0
  -29.4010  -28.0000   20.3710 O   0  0  0  0  0  0  0  0  0  0  0  0
  -24.8650  -32.1110   23.9950 C   0  0  0  0  0  0  0  0  0  0  0  0
  -28.1750  -28.6330   20.3750 C   0  0  0  0  0  0  0  0  0  0  0  0
  -23.9360  -30.9680   22.0090 C   0  0  0  0  0  3  0  0  0  0  0  0
  -25.6430  -29.8840   20.4560 C   0  0  0  0  0  0  0  0  0  0  0  0
  -26.4180  -31.5790   22.1200 C   0  0  0  0  0  2  0  0  0  0  0  0
  -26.6940  -30.3790   21.2400 C   0  0  0  0  0  0  0  0  0  0  0  0
  -27.9630  -29.7620   21.1980 C   0  0  0  0  0  3  0  0  0  0  0  0
  -27.1080  -28.1570   19.5790 C   0  0  0  0  0  3  0  0  0  0  0  0
  -25.8440  -28.7710   19.6240 C   0  0  0  0  0  3  0  0  0  0  0  0
  -24.3160  -30.6020   20.5500 C   0  0  0  0  0  2  0  0  0  0  0  0
  -25.0850  -31.5560   22.7700 N   0  0  0  0  0  0  0  0  0  0  0  0
  -23.7240  -32.1780   24.4720 O   0  0  0  0  0  0  0  0  0  0  0  0
  -23.3240  -29.7230   22.6890 C   0  0  0  0  0  0  0  0  0  0  0  0
  -22.0430  -29.4490   22.3920 N   0  0  0  0  0  0  0  0  0  0  0  0
  -24.0010  -29.0140   23.4390 O   0  0  0  0  0  0  0  0  0  0  0  0
  -21.5560  -30.0830   21.7750 H   0  0  0  0  0  0  0  0  0  0  0  0
  -18.7920  -27.8760   22.2920 C   0  0  0  0  0  0  0  0  0  0  0  0
  -21.2720  -28.3090   22.8850 C   0  0  0  0  0  3  0  0  0  0  0  0
  -21.5850  -27.0340   22.0700 C   0  0  0  0  0  2  0  0  0  0  0  0
  -20.6200  -26.8110   20.9020 C   0  0  0  0  0  2  0  0  0  0  0  0
  -19.1770  -26.7040   21.4050 C   0  0  0  0  0  2  0  0  0  0  0  0
  -19.7770  -28.6380   22.9740 C   0  0  0  0  0  0  0  0  0  0  0  0
  -19.3680  -29.7400   23.7580 C   0  0  0  0  0  3  0  0  0  0  0  0
  -18.0060  -30.0790   23.8680 C   0  0  0  0  0  3  0  0  0  0  0  0
  -17.0360  -29.3100   23.2040 C   0  0  0  0  0  3  0  0  0  0  0  0
  -17.4280  -28.2100   22.4230 C   0  0  0  0  0  3  0  0  0  0  0  0
  -26.0300  -32.7120   24.8430 C   0  0  0  0  0  3  0  0  0  0  0  0
  -25.6820  -34.1050   25.1460 N   0  0  0  0  0  0  0  0  0  0  0  0
  -26.1460  -35.1680   24.4750 C   0  0  0  0  0  0  0  0  0  0  0  0
  -26.9790  -35.0770   23.5680 O   0  0  0  0  0  0  0  0  0  0  0  0
  -24.9660  -34.2520   25.8420 H   0  0  0  0  0  0  0  0  0  0  0  0
  -24.5110  -36.9830   23.8750 C   0  0  0  0  0  1  0  0  0  0  0  0
  -25.5990  -36.5520   24.8730 C   0  0  0  0  0  3  0  0  0  0  0  0
  -27.5830  -37.3890   26.0510 C   0  0  0  0  0  1  0  0  0  0  0  0
  -26.6430  -37.5960   24.9520 N   0  0  0  0  0  0  0  0  0  0  0  0
  -26.2260  -38.5160   25.0620 H   0  0  0  0  0  0  0  0  0  0  0  0
  -26.3170  -31.9060   26.1680 C   0  0  1  0  0  0  0  0  0  0  0  0
  -25.0480  -31.6210   27.0050 C   0  0  0  0  0  1  0  0  0  0  0  0
  -26.9880  -30.5500   25.8460 C   0  0  0  0  0  1  0  0  0  0  0  0
  -27.3110  -32.6920   27.0550 C   0  0  0  0  0  1  0  0  0  0  0  0
  -30.9060  -22.7030   21.4790 C   0  0  0  0  0  2  0  0  0  0  0  0
  -32.0610  -21.0010   19.9650 C   0  0  0  0  0  3  0  0  0  0  0  0
  -30.9520  -20.1930   21.9650 C   0  0  0  0  0  3  0  0  0  0  0  0
  -31.2940  -21.2690   21.1180 C   0  0  0  0  0  0  0  0  0  0  0  0
  -32.2400  -18.6270   20.5810 C   0  0  0  0  0  0  0  0  0  0  0  0
  -32.5370  -19.6990   19.6970 C   0  0  0  0  0  0  0  0  0  0  0  0
  -31.4100  -18.8850   21.6990 C   0  0  0  0  0  0  0  0  0  0  0  0
  -33.5230  -19.4780   18.2950 Cl  0  0  0  0  0  0  0  0  0  0  0  0
  -30.9730  -17.6240   22.8000 Cl  0  0  0  0  0  0  0  0  0  0  0  0
  -32.8930  -17.2490   20.4080 C   0  0  0  0  0  2  0  0  0  0  0  0
  -32.2270  -15.1150   19.3250 C   0  0  0  0  0  0  0  0  0  0  0  0
  -31.7500  -12.7740   18.7150 C   0  0  0  0  0  2  0  0  0  0  0  0
  -30.7220  -12.6690   17.5750 C   0  0  0  0  0  2  0  0  0  0  0  0
  -29.2920  -12.6670   18.1400 C   0  0  0  0  0  2  0  0  0  0  0  0
  -29.0470  -13.8240   19.1450 C   0  0  0  0  0  3  0  0  0  0  0  0
  -30.1810  -13.9060   20.1930 C   0  0  0  0  0  2  0  0  0  0  0  0
  -31.4720  -13.9960   19.4860 N   0  0  0  0  0  0  0  0  0  0  0  0
  -33.1580  -15.1790   18.5190 O   0  0  0  0  0  0  0  0  0  0  0  0
  -31.9840  -16.1180   20.1790 N   0  0  0  0  0  0  0  0  0  0  0  0
  -31.2300  -15.9910   20.8350 H   0  0  0  0  0  0  0  0  0  0  0  0
  -26.8810  -14.7020   20.2260 C   0  0  0  0  0  0  0  0  0  0  0  0
  -25.7530  -14.0620   20.6670 C   0  0  0  0  0  0  0  0  0  0  0  0
  -25.9800  -12.6690   20.4490 C   0  0  0  0  0  0  0  0  0  0  0  0
  -27.7330  -13.7050   19.7760 N   0  0  0  0  0  0  0  0  0  0  0  0
  -27.2000  -12.4710   19.9640 N   0  0  0  0  0  0  0  0  0  0  0  0
  -25.0860  -11.5170   20.6210 C   0  0  0  0  0  0  0  0  0  0  0  0
  -25.4050  -10.4570   21.4990 C   0  0  0  0  0  3  0  0  0  0  0  0
  -24.5200   -9.3700   21.6600 C   0  0  0  0  0  3  0  0  0  0  0  0
  -23.3000   -9.3360   20.9450 C   0  0  0  0  0  0  0  0  0  0  0  0
  -22.9960  -10.3810   20.0550 C   0  0  0  0  0  3  0  0  0  0  0  0
  -23.8810  -11.4600   19.8910 C   0  0  0  0  0  3  0  0  0  0  0  0
  -22.3900   -8.3090   21.0200 O   0  0  0  0  0  0  0  0  0  0  0  0
  -22.1490   -7.6440   22.1970 C   0  0  0  0  0  0  0  0  0  0  0  0
  -21.7000   -8.3170   23.3530 C   0  0  0  0  0  3  0  0  0  0  0  0
  -21.3970   -7.5870   24.5200 C   0  0  0  0  0  3  0  0  0  0  0  0
  -21.5350   -6.1850   24.5300 C   0  0  0  0  0  0  0  0  0  0  0  0
  -21.9790   -5.5140   23.3780 C   0  0  0  0  0  3  0  0  0  0  0  0
  -22.2820   -6.2410   22.2140 C   0  0  0  0  0  0  0  0  0  0  0  0
  -22.6880   -5.5860   21.0990 F   0  0  0  0  0  0  0  0  0  0  0  0
  -21.2390   -5.4830   25.6480 F   0  0  0  0  0  0  0  0  0  0  0  0
  -24.4980  -14.7100   21.1730 C   0  0  0  0  0  0  0  0  0  0  0  0
  -23.7970  -14.0560   22.0930 N   0  0  0  0  0  0  0  0  0  0  0  0
  -24.1560  -15.8270   20.7880 O   0  0  0  0  0  0  0  0  0  0  0  0
  -24.0880  -13.1470   22.4230 H   0  0  0  0  0  0  0  0  0  0  0  0
  -22.9580  -14.4700   22.4740 H   0  0  0  0  0  0  0  0  0  0  0  0
  -27.2450  -16.0430   20.1510 N   0  0  0  0  0  0  0  0  0  0  0  0
  -26.6180  -16.7920   20.4230 H   0  0  0  0  0  0  0  0  0  0  0  0
  -28.1170  -16.3800   19.7600 H   0  0  0  0  0  0  0  0  0  0  0  0
  -27.9110  -22.2990   20.8290 C   0  0  0  0  0  2  0  0  0  0  0  0
  -25.3990  -22.4880   20.5380 C   0  0  0  0  0  2  0  0  0  0  0  0
  -26.6210  -22.2650   20.0290 C   0  0  0  0  0  3  0  0  0  0  0  0
  1  2  1  0
  4  7  1  0
  4  3  1  0
  5  9  1  0
  5  3  1  0
  5  1  1  0
  6 98  1  0
  6  2  1  0
  7  6  1  0
  7 50  1  0
  7  8  1  6
  9 11  1  0
 10 21  2  0
 11 16  1  0
 12 22  1  0
 12 20  1  0
 13 19  1  0
 13 15  1  0
 14 20  1  0
 15 14  1  0
 16 15  2  0
 17 18  1  0
 17 11  2  0
 18 13  2  0
 19 12  1  0
 20 10  1  0
 22 24  2  0
 23 22  1  0
 25 23  1  0
 26 35  2  0
 26 31  1  0
 27 23  1  0
 27 31  1  0
 28 27  1  0
 29 30  1  0
 29 28  1  0
 30 26  1  0
 31 32  2  0
 32 33  1  0
 34 33  2  0
 35 34  1  0
 36 10  1  0
 36 37  1  0
 36 46  1  0
 37 40  1  0
 38 42  1  0
 38 37  1  0
 39 38  2  0
 42 41  1  0
 42 44  1  0
 44 45  1  0
 44 43  1  0
 46 47  1  1
 46 49  1  0
 48 46  1  0
 51 53  1  0
 53 50  1  0
 53 52  2  0
 54 56  2  0
 55 51  2  0
 55 54  1  0
 56 52  1  0
 56 58  1  0
 57 55  1  0
 59 54  1  0
 60 66  1  0
 60 68  1  0
 61 66  1  0
 62 63  1  0
 62 61  1  0
 64 63  1  0
 64 73  1  0
 64 65  1  0
 66 65  1  0
 67 60  2  0
 68 59  1  0
 68 69  1  0
 70 71  2  0
 71 90  1  0
 72 75  1  0
 72 71  1  0
 73 74  1  0
 73 70  1  0
 74 72  2  0
 75 76  1  0
 76 77  2  0
 78 81  1  0
 78 77  1  0
 79 78  2  0
 80 79  1  0
 80 75  2  0
 81 82  1  0
 82 87  2  0
 82 83  1  0
 83 84  2  0
 84 85  1  0
 85 89  1  0
 86 85  2  0
 87 86  1  0
 88 87  1  0
 90 91  1  0
 91 93  1  0
 91 94  1  0
 92 90  2  0
 95 70  1  0
 95 96  1  0
 97 95  1  0
100 99  2  0
100 98  1  0
M  ISO  4   5 101   9 101  60 100  68 100
M  END
>  <TORSDO>  (78) 
F 21

>  <SCORE>  (78) 
-7.422

>  <name>  (78) 
77

>  <ligand_id>  (78) 
77

>  <original_smiles>  (78) 
[H]C([H])=C([H])C([H])([H])C1([H])C([H])([H])C([H])([H])C([H])(Oc2c([H])c([H])c3c(c2[H])C([H])([H])N(C(=O)C([H])(N([H])C(=O)C([H])(N([H])C([H])([H])[H])C([H])([H])[H])C(C([H])([H])[H])(C([H])([H])[H])C([H])([H])[H])C([H])(C(=O)N([H])C2([H])c4c([H])c([H])c([H])c([H])c4C([H])([H])C([H])([H])C2([H])[H])C3([H])[H])C([H])([H])C([H])([H])[N+]1([H])C([H])([H])c1c([H])c(Cl)c(C([H])([H])N([H])C(=O)N2C([H])([H])C([H])([H])C([H])([H])C([H])(n3nc(-c4c([H])c([H])c(Oc5c([H])c([H])c(F)c([H])c5F)c([H])c4[H])c(C(=O)N([H])[H])c3N([H])[H])C2([H])[H])c(Cl)c1[H]

>  <smiles>  (78) 
[H]C([H])=C([H])C([H])([H])C1([H])C([H])([H])C([H])([H])C([H])(Oc2c([H])c([H])c3c(c2[H])C([H])([H])N(C(=O)C([H])(N([H])C(=O)C([H])(N([H])C([H])([H])[H])C([H])([H])[H])C(C([H])([H])[H])(C([H])([H])[H])C([H])([H])[H])C([H])(C(=O)N([H])C2([H])c4c([H])c([H])c([H])c([H])c4C([H])([H])C([H])([H])C2([H])[H])C3([H])[H])C([H])([H])C([H])([H])[N+]1([H])C([H])([H])c1c([H])c(Cl)c(C([H])([H])N([H])C(=O)N2C([H])([H])C([H])([H])C([H])([H])C([H])(n3nc(-c4c([H])c([H])c(Oc5c([H])c([H])c(F)c([H])c5F)c([H])c4[H])c(C(=O)N([H])[H])c3N([H])[H])C2([H])[H])c(Cl)c1[H]

$$$$
78:0:0
     RDKit          3D

 94102  0  0  1  0  0  0  0  0999 V2000
  -27.5190  -21.9160   19.9660 O   0  0  0  0  0  0  0  0  0  0  0  0
  -28.6970  -23.0050   21.9230 O   0  0  0  0  0  0  0  0  0  0  0  0
  -28.7720  -22.2620   20.6520 S   0  0  1  0  0  0  0  0  0  0  0  0
  -30.8600  -19.3470   22.6360 C   0  0  0  0  0  3  0  0  0  0  0  0
  -31.0210  -18.3020   21.7150 C   0  0  0  0  0  3  0  0  0  0  0  0
  -30.2210  -20.5360   22.2470 C   0  0  0  0  0  3  0  0  0  0  0  0
  -30.5780  -18.4310   20.3780 C   0  0  0  0  0  0  0  0  0  0  0  0
  -29.9660  -19.6700   19.9660 C   0  0  0  0  0  0  0  0  0  0  0  0
  -29.7520  -20.7170   20.9280 C   0  0  0  0  0  0  0  0  0  0  0  0
  -29.5710  -19.9010   18.5110 C   0  0  0  0  0  1  0  0  0  0  0  0
  -30.8210  -17.2300   19.4310 C   0  0  0  0  0  2  0  0  0  0  0  0
  -31.2120  -14.7700   19.7340 C   0  0  0  0  0  0  0  0  0  0  0  0
  -30.9180  -12.4290   19.0120 C   0  0  0  0  0  2  0  0  0  0  0  0
  -29.9520  -12.4040   17.8100 C   0  0  0  0  0  2  0  0  0  0  0  0
  -28.4890  -12.3330   18.2890 C   0  0  0  0  0  2  0  0  0  0  0  0
  -28.1640  -13.3770   19.3910 C   0  0  0  0  0  3  0  0  0  0  0  0
  -29.2460  -13.3770   20.4950 C   0  0  0  0  0  2  0  0  0  0  0  0
  -30.5520  -13.5820   19.8500 N   0  0  0  0  0  0  0  0  0  0  0  0
  -32.3450  -14.8500   19.2540 O   0  0  0  0  0  0  0  0  0  0  0  0
  -30.4800  -15.8830   19.9550 N   0  0  0  0  0  0  0  0  0  0  0  0
  -29.5390  -15.7480   20.2940 H   0  0  0  0  0  0  0  0  0  0  0  0
  -25.8610  -14.1250   20.2590 C   0  0  0  0  0  0  0  0  0  0  0  0
  -24.7650  -13.4180   20.6740 C   0  0  0  0  0  0  0  0  0  0  0  0
  -25.1290  -12.0390   20.5850 C   0  0  0  0  0  0  0  0  0  0  0  0
  -26.8270  -13.1810   19.9450 N   0  0  0  0  0  0  0  0  0  0  0  0
  -26.3920  -11.9200   20.2010 N   0  0  0  0  0  0  0  0  0  0  0  0
  -24.3290  -10.8250   20.7870 C   0  0  0  0  0  0  0  0  0  0  0  0
  -24.7140   -9.8340   21.7180 C   0  0  0  0  0  3  0  0  0  0  0  0
  -23.9180   -8.6850   21.9100 C   0  0  0  0  0  3  0  0  0  0  0  0
  -22.7240   -8.5170   21.1680 C   0  0  0  0  0  0  0  0  0  0  0  0
  -22.3570   -9.4950   20.2270 C   0  0  0  0  0  3  0  0  0  0  0  0
  -23.1530  -10.6360   20.0330 C   0  0  0  0  0  3  0  0  0  0  0  0
  -21.9020   -7.4200   21.2700 O   0  0  0  0  0  0  0  0  0  0  0  0
  -21.7790   -6.7170   22.4410 C   0  0  0  0  0  0  0  0  0  0  0  0
  -21.3660   -7.3350   23.6420 C   0  0  0  0  0  3  0  0  0  0  0  0
  -21.1850   -6.5620   24.8060 C   0  0  0  0  0  3  0  0  0  0  0  0
  -21.4100   -5.1720   24.7700 C   0  0  0  0  0  0  0  0  0  0  0  0
  -21.8160   -4.5540   23.5750 C   0  0  0  0  0  3  0  0  0  0  0  0
  -21.9980   -5.3250   22.4130 C   0  0  0  0  0  0  0  0  0  0  0  0
  -22.3680   -4.7220   21.2570 F   0  0  0  0  0  0  0  0  0  0  0  0
  -21.2290   -4.4280   25.8860 F   0  0  0  0  0  0  0  0  0  0  0  0
  -23.4220  -13.9820   21.0400 C   0  0  0  0  0  0  0  0  0  0  0  0
  -22.7120  -13.3310   21.9520 N   0  0  0  0  0  0  0  0  0  0  0  0
  -23.0170  -15.0350   20.5490 O   0  0  0  0  0  0  0  0  0  0  0  0
  -23.0560  -12.4790   22.3710 H   0  0  0  0  0  0  0  0  0  0  0  0
  -21.8110  -13.6910   22.2340 H   0  0  0  0  0  0  0  0  0  0  0  0
  -26.1140  -15.4860   20.1030 N   0  0  0  0  0  0  0  0  0  0  0  0
  -26.9720  -15.8760   19.7400 H   0  0  0  0  0  0  0  0  0  0  0  0
  -25.4030  -16.1890   20.2740 H   0  0  0  0  0  0  0  0  0  0  0  0
  -29.6330  -23.3030   19.5730 N   0  0  0  0  0  0  0  0  0  0  0  0
  -29.5030  -23.0040   18.6060 H   0  0  0  0  0  0  0  0  0  0  0  0
  -29.5620  -24.7860   19.7330 C   0  0  0  0  0  2  0  0  0  0  0  0
  -28.2280  -25.4310   19.2620 C   0  0  0  0  0  2  0  0  0  0  0  0
  -28.3000  -26.8800   19.2480 O   0  0  0  0  0  0  0  0  0  0  0  0
  -24.6090  -31.6800   23.0020 C   0  0  0  0  0  0  0  0  0  0  0  0
  -27.1180  -27.5950   19.3490 C   0  0  0  0  0  0  0  0  0  0  0  0
  -23.3170  -30.4000   21.3280 C   0  0  0  0  0  3  0  0  0  0  0  0
  -24.6970  -29.0430   19.6590 C   0  0  0  0  0  0  0  0  0  0  0  0
  -25.8150  -30.8420   20.9850 C   0  0  0  0  0  2  0  0  0  0  0  0
  -25.8840  -29.5380   20.2130 C   0  0  0  0  0  0  0  0  0  0  0  0
  -27.0940  -28.8220   20.0540 C   0  0  0  0  0  3  0  0  0  0  0  0
  -25.9130  -27.1320   18.7720 C   0  0  0  0  0  3  0  0  0  0  0  0
  -24.7060  -27.8380   18.9340 C   0  0  0  0  0  3  0  0  0  0  0  0
  -23.4420  -29.8600   19.8770 C   0  0  0  0  0  2  0  0  0  0  0  0
  -24.6020  -30.9860   21.8270 N   0  0  0  0  0  0  0  0  0  0  0  0
  -23.5660  -31.8660   23.6430 O   0  0  0  0  0  0  0  0  0  0  0  0
  -22.7650  -29.2740   22.2300 C   0  0  0  0  0  0  0  0  0  0  0  0
  -21.4440  -29.0340   22.1550 N   0  0  0  0  0  0  0  0  0  0  0  0
  -23.5180  -28.6200   22.9580 O   0  0  0  0  0  0  0  0  0  0  0  0
  -20.8900  -29.6240   21.5490 H   0  0  0  0  0  0  0  0  0  0  0  0
  -18.1780  -27.5680   22.6530 C   0  0  0  0  0  0  0  0  0  0  0  0
  -20.7160  -27.9980   22.8890 C   0  0  0  0  0  3  0  0  0  0  0  0
  -20.9060  -26.6100   22.2330 C   0  0  0  0  0  2  0  0  0  0  0  0
  -19.8070  -26.2630   21.2240 C   0  0  0  0  0  2  0  0  0  0  0  0
  -18.4340  -26.2730   21.9020 C   0  0  0  0  0  2  0  0  0  0  0  0
  -19.2490  -28.3850   23.1040 C   0  0  0  0  0  0  0  0  0  0  0  0
  -18.9530  -29.5960   23.7680 C   0  0  0  0  0  3  0  0  0  0  0  0
  -17.6190  -29.9920   23.9830 C   0  0  0  0  0  3  0  0  0  0  0  0
  -16.5650  -29.1730   23.5460 C   0  0  0  0  0  3  0  0  0  0  0  0
  -16.8440  -27.9630   22.8890 C   0  0  0  0  0  3  0  0  0  0  0  0
  -25.9220  -32.2920   23.5830 C   0  0  0  0  0  3  0  0  0  0  0  0
  -25.6020  -33.6390   24.0730 N   0  0  0  0  0  0  0  0  0  0  0  0
  -25.8860  -34.7730   23.4170 C   0  0  0  0  0  0  0  0  0  0  0  0
  -26.5140  -34.7930   22.3550 O   0  0  0  0  0  0  0  0  0  0  0  0
  -25.0430  -33.6960   24.9110 H   0  0  0  0  0  0  0  0  0  0  0  0
  -24.1180  -36.5570   23.3120 C   0  0  0  0  0  1  0  0  0  0  0  0
  -25.3910  -36.0950   24.0370 C   0  0  0  0  0  3  0  0  0  0  0  0
  -27.5430  -36.9220   24.8830 C   0  0  0  0  0  1  0  0  0  0  0  0
  -26.4040  -37.1720   24.0030 N   0  0  0  0  0  0  0  0  0  0  0  0
  -25.9920  -38.0650   24.2630 H   0  0  0  0  0  0  0  0  0  0  0  0
  -26.5630  -31.4180   24.7300 C   0  0  1  0  0  0  0  0  0  0  0  0
  -25.5710  -31.0440   25.8570 C   0  0  0  0  0  1  0  0  0  0  0  0
  -27.1410  -30.1030   24.1560 C   0  0  0  0  0  1  0  0  0  0  0  0
  -27.7500  -32.1780   25.3640 C   0  0  0  0  0  1  0  0  0  0  0  0
  1  3  2  0
  3  9  1  0
  3  2  2  0
  5  4  2  0
  6  4  1  0
  7  5  1  0
  8  7  2  0
  8  9  1  0
  9  6  2  0
 10  8  1  0
 11 20  1  0
 11  7  1  0
 12 18  1  0
 12 20  1  0
 13 18  1  0
 14 15  1  0
 14 13  1  0
 16 15  1  0
 16 25  1  0
 16 17  1  0
 18 17  1  0
 19 12  2  0
 20 21  1  0
 22 23  2  0
 23 42  1  0
 24 23  1  0
 24 27  1  0
 25 26  1  0
 25 22  1  0
 26 24  2  0
 27 28  1  0
 28 29  2  0
 30 33  1  0
 30 29  1  0
 31 30  2  0
 32 31  1  0
 32 27  2  0
 33 34  1  0
 34 35  1  0
 35 36  2  0
 37 36  1  0
 37 41  1  0
 38 37  2  0
 39 34  2  0
 39 38  1  0
 40 39  1  0
 42 43  1  0
 43 46  1  0
 43 45  1  0
 44 42  2  0
 47 22  1  0
 47 49  1  0
 48 47  1  0
 50 52  1  0
  3 50  1  6
 51 50  1  0
 53 52  1  0
 54 53  1  0
 54 56  1  0
 55 66  2  0
 56 61  1  0
 57 65  1  0
 57 67  1  0
 58 64  1  0
 58 60  1  0
 59 65  1  0
 60 59  1  0
 61 60  2  0
 62 63  1  0
 62 56  2  0
 63 58  2  0
 64 57  1  0
 65 55  1  0
 67 69  2  0
 68 67  1  0
 70 68  1  0
 71 80  2  0
 71 76  1  0
 72 68  1  0
 72 76  1  0
 73 72  1  0
 74 75  1  0
 74 73  1  0
 75 71  1  0
 76 77  2  0
 77 78  1  0
 79 78  2  0
 80 79  1  0
 81 55  1  0
 81 82  1  0
 81 91  1  0
 82 85  1  0
 83 87  1  0
 83 82  1  0
 84 83  2  0
 87 86  1  0
 89 87  1  0
 89 90  1  0
 89 88  1  0
 91 94  1  1
 91 92  1  0
 93 91  1  0
M  ISO  4  12 100  20 100  53 101  54 101
M  END
>  <TORSDO>  (79) 
F 21

>  <SCORE>  (79) 
-12.275

>  <name>  (79) 
78

>  <ligand_id>  (79) 
78

>  <original_smiles>  (79) 
[H]c1c([H])c([H])c2c(c1[H])C([H])([H])C([H])([H])C([H])([H])C2([H])N([H])C(=O)C1([H])N(C(=O)C([H])(N([H])C(=O)C([H])(N([H])C([H])([H])[H])C([H])([H])[H])C(C([H])([H])[H])(C([H])([H])[H])C([H])([H])[H])C([H])([H])c2c([H])c(OC([H])([H])C([H])([H])N([H])S(=O)(=O)c3c([H])c([H])c([H])c(C([H])([H])N([H])C(=O)N4C([H])([H])C([H])([H])C([H])([H])C([H])(n5nc(-c6c([H])c([H])c(Oc7c([H])c([H])c(F)c([H])c7F)c([H])c6[H])c(C(=O)N([H])[H])c5N([H])[H])C4([H])[H])c3C([H])([H])[H])c([H])c([H])c2C1([H])[H]

>  <smiles>  (79) 
[H]c1c([H])c([H])c2c(c1[H])C([H])([H])C([H])([H])C([H])([H])C2([H])N([H])C(=O)C1([H])N(C(=O)C([H])(N([H])C(=O)C([H])(N([H])C([H])([H])[H])C([H])([H])[H])C(C([H])([H])[H])(C([H])([H])[H])C([H])([H])[H])C([H])([H])c2c([H])c(OC([H])([H])C([H])([H])N([H])S(=O)(=O)c3c([H])c([H])c([H])c(C([H])([H])N([H])C(=O)N4C([H])([H])C([H])([H])C([H])([H])C([H])(n5nc(-c6c([H])c([H])c(Oc7c([H])c([H])c(F)c([H])c7F)c([H])c6[H])c(C(=O)N([H])[H])c5N([H])[H])C4([H])[H])c3C([H])([H])[H])c([H])c([H])c2C1([H])[H]

$$$$
79:0:0
     RDKit          3D

 92100  0  0  1  0  0  0  0  0999 V2000
  -29.4050  -18.1210   21.1540 C   0  0  0  0  0  3  0  0  0  0  0  0
  -28.6720  -19.2730   21.5070 C   0  0  0  0  0  3  0  0  0  0  0  0
  -30.1410  -19.2790   19.1540 C   0  0  0  0  0  3  0  0  0  0  0  0
  -29.4190  -20.4670   19.4760 C   0  0  0  0  0  0  0  0  0  0  0  0
  -30.1780  -18.1310   19.9800 C   0  0  0  0  0  0  0  0  0  0  0  0
  -28.7220  -20.4550   20.7270 C   0  0  0  0  0  0  0  0  0  0  0  0
  -28.0780  -21.6980   21.3330 C   0  0  0  0  0  1  0  0  0  0  0  0
  -30.2560  -21.6220   17.4330 C   0  0  0  0  0  2  0  0  0  0  0  0
  -29.4350  -21.6360   18.5060 C   0  0  0  0  0  0  0  0  0  0  0  0
  -28.5600  -22.8100   18.6610 C   0  0  0  0  0  3  0  0  0  0  0  0
  -28.9010  -24.1250   18.6180 C   0  0  0  0  0  3  0  0  0  0  0  0
  -27.8860  -25.2430   18.8570 C   0  0  0  0  0  2  0  0  0  0  0  0
  -28.1020  -26.5020   18.1760 O   0  0  0  0  0  0  0  0  0  0  0  0
  -24.7310  -30.9100   22.6540 C   0  0  0  0  0  0  0  0  0  0  0  0
  -27.0330  -27.3640   18.3650 C   0  0  0  0  0  0  0  0  0  0  0  0
  -23.4020  -30.0660   20.7510 C   0  0  0  0  0  3  0  0  0  0  0  0
  -24.7290  -28.9340   18.8900 C   0  0  0  0  0  0  0  0  0  0  0  0
  -25.9390  -30.3570   20.5460 C   0  0  0  0  0  2  0  0  0  0  0  0
  -25.9350  -29.2200   19.5430 C   0  0  0  0  0  0  0  0  0  0  0  0
  -27.0940  -28.4480   19.2750 C   0  0  0  0  0  3  0  0  0  0  0  0
  -25.8150  -27.1270   17.6870 C   0  0  0  0  0  3  0  0  0  0  0  0
  -24.6650  -27.8910   17.9530 C   0  0  0  0  0  3  0  0  0  0  0  0
  -23.5310  -29.7950   19.2300 C   0  0  0  0  0  2  0  0  0  0  0  0
  -24.7100  -30.4410   21.3750 N   0  0  0  0  0  0  0  0  0  0  0  0
  -23.6830  -31.0680   23.2960 O   0  0  0  0  0  0  0  0  0  0  0  0
  -22.7300  -28.8410   21.4170 C   0  0  0  0  0  0  0  0  0  0  0  0
  -21.3930  -28.7900   21.3590 N   0  0  0  0  0  0  0  0  0  0  0  0
  -23.4130  -27.9650   21.9520 O   0  0  0  0  0  0  0  0  0  0  0  0
  -20.9040  -29.5540   20.9140 H   0  0  0  0  0  0  0  0  0  0  0  0
  -17.9650  -27.7870   21.9300 C   0  0  0  0  0  0  0  0  0  0  0  0
  -20.5500  -27.7170   21.8920 C   0  0  0  0  0  3  0  0  0  0  0  0
  -20.4040  -26.5660   20.8710 C   0  0  0  0  0  2  0  0  0  0  0  0
  -19.1660  -26.7020   19.9800 C   0  0  0  0  0  2  0  0  0  0  0  0
  -17.8930  -26.7370   20.8320 C   0  0  0  0  0  2  0  0  0  0  0  0
  -19.2140  -28.2570   22.4160 C   0  0  0  0  0  0  0  0  0  0  0  0
  -19.2280  -29.2600   23.4110 C   0  0  0  0  0  3  0  0  0  0  0  0
  -18.0260  -29.7870   23.9200 C   0  0  0  0  0  3  0  0  0  0  0  0
  -16.7910  -29.3050   23.4440 C   0  0  0  0  0  3  0  0  0  0  0  0
  -16.7640  -28.3080   22.4520 C   0  0  0  0  0  3  0  0  0  0  0  0
  -26.0680  -31.2950   23.3640 C   0  0  0  0  0  3  0  0  0  0  0  0
  -26.5430  -30.2210   24.4170 C   0  0  1  0  0  0  0  0  0  0  0  0
  -25.4490  -29.8300   25.4380 C   0  0  0  0  0  1  0  0  0  0  0  0
  -27.0120  -28.9270   23.7120 C   0  0  0  0  0  1  0  0  0  0  0  0
  -27.7640  -30.7590   25.2000 C   0  0  0  0  0  1  0  0  0  0  0  0
  -25.8680  -32.6010   24.0040 N   0  0  0  0  0  0  0  0  0  0  0  0
  -26.2610  -33.7720   23.4830 C   0  0  0  0  0  0  0  0  0  0  0  0
  -26.8990  -33.8550   22.4290 O   0  0  0  0  0  0  0  0  0  0  0  0
  -25.3030  -32.6140   24.8420 H   0  0  0  0  0  0  0  0  0  0  0  0
  -24.6610  -35.7080   23.5850 C   0  0  0  0  0  1  0  0  0  0  0  0
  -25.8830  -35.0530   24.2480 C   0  0  0  0  0  3  0  0  0  0  0  0
  -28.0840  -35.5870   25.1930 C   0  0  0  0  0  1  0  0  0  0  0  0
  -26.9900  -36.0310   24.3350 N   0  0  0  0  0  0  0  0  0  0  0  0
  -26.6540  -36.9250   24.6840 H   0  0  0  0  0  0  0  0  0  0  0  0
  -31.0980  -16.9630   19.5840 C   0  0  0  0  0  2  0  0  0  0  0  0
  -31.1530  -14.5140   19.2260 C   0  0  0  0  0  0  0  0  0  0  0  0
  -30.6910  -12.2550   18.3490 C   0  0  0  0  0  2  0  0  0  0  0  0
  -29.5580  -12.2830   17.2990 C   0  0  0  0  0  2  0  0  0  0  0  0
  -28.1730  -12.1970   17.9670 C   0  0  0  0  0  2  0  0  0  0  0  0
  -28.0200  -13.1660   19.1690 C   0  0  0  0  0  3  0  0  0  0  0  0
  -29.2500  -13.0870   20.1130 C   0  0  0  0  0  2  0  0  0  0  0  0
  -30.4590  -13.3460   19.3120 N   0  0  0  0  0  0  0  0  0  0  0  0
  -32.1580  -14.6260   18.5220 O   0  0  0  0  0  0  0  0  0  0  0  0
  -30.6280  -15.5930   19.8470 N   0  0  0  0  0  0  0  0  0  0  0  0
  -29.8630  -15.4870   20.4890 H   0  0  0  0  0  0  0  0  0  0  0  0
  -25.8390  -13.8360   20.3610 C   0  0  0  0  0  0  0  0  0  0  0  0
  -24.7960  -13.0930   20.8480 C   0  0  0  0  0  0  0  0  0  0  0  0
  -25.1380  -11.7240   20.6140 C   0  0  0  0  0  0  0  0  0  0  0  0
  -26.7600  -12.9220   19.8710 N   0  0  0  0  0  0  0  0  0  0  0  0
  -26.3510  -11.6420   20.0790 N   0  0  0  0  0  0  0  0  0  0  0  0
  -24.3640  -10.4940   20.8220 C   0  0  0  0  0  0  0  0  0  0  0  0
  -24.8110   -9.4790   21.6990 C   0  0  0  0  0  3  0  0  0  0  0  0
  -24.0370   -8.3170   21.9010 C   0  0  0  0  0  3  0  0  0  0  0  0
  -22.8040   -8.1610   21.2310 C   0  0  0  0  0  0  0  0  0  0  0  0
  -22.3730   -9.1600   20.3440 C   0  0  0  0  0  3  0  0  0  0  0  0
  -23.1430  -10.3150   20.1360 C   0  0  0  0  0  3  0  0  0  0  0  0
  -22.0000   -7.0520   21.3490 O   0  0  0  0  0  0  0  0  0  0  0  0
  -21.8750   -6.3720   22.5340 C   0  0  0  0  0  0  0  0  0  0  0  0
  -21.3890   -6.9950   23.7040 C   0  0  0  0  0  3  0  0  0  0  0  0
  -21.2150   -6.2430   24.8820 C   0  0  0  0  0  3  0  0  0  0  0  0
  -21.5120   -4.8670   24.8910 C   0  0  0  0  0  0  0  0  0  0  0  0
  -21.9880   -4.2410   23.7240 C   0  0  0  0  0  3  0  0  0  0  0  0
  -22.1650   -4.9930   22.5470 C   0  0  0  0  0  0  0  0  0  0  0  0
  -22.6050   -4.3790   21.4220 F   0  0  0  0  0  0  0  0  0  0  0  0
  -21.3340   -4.1420   26.0190 F   0  0  0  0  0  0  0  0  0  0  0  0
  -23.5110  -13.6230   21.4150 C   0  0  0  0  0  0  0  0  0  0  0  0
  -22.9030  -12.8930   22.3450 N   0  0  0  0  0  0  0  0  0  0  0  0
  -23.0610  -14.7130   21.0700 O   0  0  0  0  0  0  0  0  0  0  0  0
  -23.2880  -12.0130   22.6500 H   0  0  0  0  0  0  0  0  0  0  0  0
  -22.0490  -13.2310   22.7650 H   0  0  0  0  0  0  0  0  0  0  0  0
  -26.0750  -15.2040   20.2790 N   0  0  0  0  0  0  0  0  0  0  0  0
  -25.4090  -15.9000   20.6040 H   0  0  0  0  0  0  0  0  0  0  0  0
  -26.8980  -15.6200   19.8580 H   0  0  0  0  0  0  0  0  0  0  0  0
  1  2  1  0
  3  4  2  0
  3  5  1  0
  4  6  1  0
  5  1  2  0
  6  7  1  0
  6  2  2  0
  8  9  2  0
  9 10  1  0
  9  4  1  0
 11 10  2  0
 11 12  1  0
 13 15  1  0
 13 12  1  0
 14 25  2  0
 15 20  1  0
 16 24  1  0
 16 26  1  0
 17 23  1  0
 17 19  1  0
 18 24  1  0
 19 18  1  0
 20 19  2  0
 21 22  1  0
 21 15  2  0
 22 17  2  0
 23 16  1  0
 24 14  1  0
 26 28  2  0
 27 26  1  0
 29 27  1  0
 30 35  2  0
 30 39  1  0
 31 27  1  0
 31 35  1  0
 32 31  1  0
 33 34  1  0
 33 32  1  0
 34 30  1  0
 35 36  1  0
 36 37  2  0
 38 37  1  0
 39 38  2  0
 40 14  1  0
 40 45  1  0
 40 41  1  0
 41 44  1  1
 41 42  1  0
 43 41  1  0
 45 48  1  0
 46 45  1  0
 46 50  1  0
 47 46  2  0
 50 49  1  0
 50 52  1  0
 52 53  1  0
 52 51  1  0
 54 63  1  0
 54  5  1  0
 55 61  1  0
 55 63  1  0
 56 61  1  0
 57 58  1  0
 57 56  1  0
 59 58  1  0
 59 68  1  0
 59 60  1  0
 61 60  1  0
 62 55  2  0
 63 64  1  0
 65 66  2  0
 66 85  1  0
 67 70  1  0
 67 66  1  0
 68 69  1  0
 68 65  1  0
 69 67  2  0
 70 71  1  0
 71 72  2  0
 73 76  1  0
 73 72  1  0
 74 73  2  0
 75 74  1  0
 75 70  2  0
 76 77  1  0
 77 82  2  0
 77 78  1  0
 78 79  2  0
 79 80  1  0
 80 84  1  0
 81 80  2  0
 82 81  1  0
 83 82  1  0
 85 86  1  0
 86 88  1  0
 86 89  1  0
 87 85  2  0
 90 65  1  0
 90 91  1  0
 92 90  1  0
M  ISO  4  12 101  13 101  55 100  63 100
M  END
>  <TORSDO>  (80) 
F 20

>  <SCORE>  (80) 
-9.079

>  <name>  (80) 
79

>  <ligand_id>  (80) 
79

>  <original_smiles>  (80) 
[H]C([H])=C(C([H])=C([H])C([H])([H])Oc1c([H])c([H])c2c(c1[H])C([H])([H])N(C(=O)C([H])(N([H])C(=O)C([H])(N([H])C([H])([H])[H])C([H])([H])[H])C(C([H])([H])[H])(C([H])([H])[H])C([H])([H])[H])C([H])(C(=O)N([H])C1([H])c3c([H])c([H])c([H])c([H])c3C([H])([H])C([H])([H])C1([H])[H])C2([H])[H])c1c([H])c(C([H])([H])N([H])C(=O)N2C([H])([H])C([H])([H])C([H])([H])C([H])(n3nc(-c4c([H])c([H])c(Oc5c([H])c([H])c(F)c([H])c5F)c([H])c4[H])c(C(=O)N([H])[H])c3N([H])[H])C2([H])[H])c([H])c([H])c1C([H])([H])[H]

>  <smiles>  (80) 
[H]C([H])=C(C([H])=C([H])C([H])([H])Oc1c([H])c([H])c2c(c1[H])C([H])([H])N(C(=O)C([H])(N([H])C(=O)C([H])(N([H])C([H])([H])[H])C([H])([H])[H])C(C([H])([H])[H])(C([H])([H])[H])C([H])([H])[H])C([H])(C(=O)N([H])C1([H])c3c([H])c([H])c([H])c([H])c3C([H])([H])C([H])([H])C1([H])[H])C2([H])[H])c1c([H])c(C([H])([H])N([H])C(=O)N2C([H])([H])C([H])([H])C([H])([H])C([H])(n3nc(-c4c([H])c([H])c(Oc5c([H])c([H])c(F)c([H])c5F)c([H])c4[H])c(C(=O)N([H])[H])c3N([H])[H])C2([H])[H])c([H])c([H])c1C([H])([H])[H]

$$$$
80:0:0
     RDKit          3D

 98106  0  0  1  0  0  0  0  0999 V2000
  -32.3010  -21.6260   19.5030 C   0  0  0  0  0  3  0  0  0  0  0  0
  -31.5320  -21.9140   21.7890 C   0  0  0  0  0  3  0  0  0  0  0  0
  -31.8520  -22.4690   20.5360 C   0  0  0  0  0  0  0  0  0  0  0  0
  -32.3720  -20.2310   19.6900 C   0  0  0  0  0  0  0  0  0  0  0  0
  -31.5820  -20.5180   21.9900 C   0  0  0  0  0  0  0  0  0  0  0  0
  -31.9640  -19.6560   20.9250 C   0  0  0  0  0  0  0  0  0  0  0  0
  -32.8530  -19.3790   18.5250 C   0  0  0  0  0  1  0  0  0  0  0  0
  -31.1790  -19.9730   23.3500 C   0  0  0  0  0  1  0  0  0  0  0  0
  -31.8580  -18.1290   21.0800 C   0  0  0  0  0  2  0  0  0  0  0  0
  -29.6400  -18.4790   19.7550 C   0  0  0  0  0  1  0  0  0  0  0  0
  -30.5260  -17.4940   20.5530 C   0  0  2  0  0  0  0  0  0  0  0  0
  -29.5270  -16.9950   21.9550 Cl  0  0  0  0  0  0  0  0  0  0  0  0
  -30.7960  -16.2520   19.6680 C   0  0  0  0  0  2  0  0  0  0  0  0
  -31.4780  -13.9000   19.9420 C   0  0  0  0  0  0  0  0  0  0  0  0
  -30.9260  -11.7460   18.9050 C   0  0  0  0  0  2  0  0  0  0  0  0
  -29.9360  -12.0300   17.7550 C   0  0  0  0  0  2  0  0  0  0  0  0
  -28.4850  -12.0520   18.2730 C   0  0  0  0  0  2  0  0  0  0  0  0
  -28.3110  -12.9450   19.5320 C   0  0  0  0  0  3  0  0  0  0  0  0
  -29.4030  -12.6300   20.5840 C   0  0  0  0  0  2  0  0  0  0  0  0
  -30.7210  -12.7730   19.9370 N   0  0  0  0  0  0  0  0  0  0  0  0
  -32.5700  -13.9990   19.3750 O   0  0  0  0  0  0  0  0  0  0  0  0
  -30.8310  -14.9800   20.3890 N   0  0  0  0  0  0  0  0  0  0  0  0
  -30.0140  -14.7940   20.9490 H   0  0  0  0  0  0  0  0  0  0  0  0
  -26.0490  -13.8130   20.4090 C   0  0  0  0  0  0  0  0  0  0  0  0
  -24.9220  -13.1570   20.8290 C   0  0  0  0  0  0  0  0  0  0  0  0
  -25.2170  -11.7630   20.7340 C   0  0  0  0  0  0  0  0  0  0  0  0
  -26.9660  -12.8220   20.0910 N   0  0  0  0  0  0  0  0  0  0  0  0
  -26.4700  -11.5830   20.3400 N   0  0  0  0  0  0  0  0  0  0  0  0
  -24.3630  -10.5880   20.9440 C   0  0  0  0  0  0  0  0  0  0  0  0
  -24.7250   -9.5660   21.8500 C   0  0  0  0  0  3  0  0  0  0  0  0
  -23.8790   -8.4530   22.0480 C   0  0  0  0  0  3  0  0  0  0  0  0
  -22.6570   -8.3560   21.3410 C   0  0  0  0  0  0  0  0  0  0  0  0
  -22.3150   -9.3630   20.4220 C   0  0  0  0  0  3  0  0  0  0  0  0
  -23.1590  -10.4670   20.2210 C   0  0  0  0  0  3  0  0  0  0  0  0
  -21.7860   -7.3000   21.4480 O   0  0  0  0  0  0  0  0  0  0  0  0
  -21.6730   -6.5730   22.6050 C   0  0  0  0  0  0  0  0  0  0  0  0
  -21.3070   -7.1740   23.8290 C   0  0  0  0  0  3  0  0  0  0  0  0
  -21.1360   -6.3790   24.9810 C   0  0  0  0  0  3  0  0  0  0  0  0
  -21.3210   -4.9860   24.9080 C   0  0  0  0  0  0  0  0  0  0  0  0
  -21.6790   -4.3840   23.6900 C   0  0  0  0  0  3  0  0  0  0  0  0
  -21.8520   -5.1760   22.5400 C   0  0  0  0  0  0  0  0  0  0  0  0
  -22.1760   -4.5890   21.3640 F   0  0  0  0  0  0  0  0  0  0  0  0
  -21.1490   -4.2210   26.0120 F   0  0  0  0  0  0  0  0  0  0  0  0
  -23.6100  -13.7810   21.2080 C   0  0  0  0  0  0  0  0  0  0  0  0
  -22.8730  -13.1510   22.1160 N   0  0  0  0  0  0  0  0  0  0  0  0
  -23.2530  -14.8590   20.7350 O   0  0  0  0  0  0  0  0  0  0  0  0
  -23.1790  -12.2770   22.5190 H   0  0  0  0  0  0  0  0  0  0  0  0
  -21.9910  -13.5450   22.4120 H   0  0  0  0  0  0  0  0  0  0  0  0
  -26.3630  -15.1600   20.2580 N   0  0  0  0  0  0  0  0  0  0  0  0
  -25.6950  -15.8990   20.4500 H   0  0  0  0  0  0  0  0  0  0  0  0
  -27.2460  -15.5090   19.9060 H   0  0  0  0  0  0  0  0  0  0  0  0
  -31.6620  -23.9560   20.2780 C   0  0  0  0  0  2  0  0  0  0  0  0
  -30.2540  -24.2080   19.9120 N   0  0  0  0  0  4  0  0  0  0  0  0
  -29.7150  -24.2450   20.7630 H   0  0  0  0  0  0  0  0  0  0  0  0
  -29.9360  -23.4110   19.3850 H   0  0  0  0  0  0  0  0  0  0  0  0
  -30.0090  -25.4410   19.1280 C   0  0  0  0  0  2  0  0  0  0  0  0
  -28.5080  -25.7620   19.0420 C   0  0  0  0  0  2  0  0  0  0  0  0
  -28.1280  -26.3810   20.2670 O   0  0  0  0  0  0  0  0  0  0  0  0
  -24.4970  -31.7140   23.2260 C   0  0  0  0  0  0  0  0  0  0  0  0
  -26.9650  -27.1130   20.2490 C   0  0  0  0  0  0  0  0  0  0  0  0
  -23.2280  -30.3140   21.6270 C   0  0  0  0  0  3  0  0  0  0  0  0
  -24.6150  -28.6800   20.2440 C   0  0  0  0  0  0  0  0  0  0  0  0
  -25.7620  -30.5710   21.4130 C   0  0  0  0  0  2  0  0  0  0  0  0
  -25.7900  -29.1810   20.8180 C   0  0  0  0  0  0  0  0  0  0  0  0
  -26.9620  -28.3950   20.8350 C   0  0  0  0  0  3  0  0  0  0  0  0
  -25.7710  -26.6120   19.6810 C   0  0  0  0  0  3  0  0  0  0  0  0
  -24.5970  -27.3920   19.6810 C   0  0  0  0  0  3  0  0  0  0  0  0
  -23.4030  -29.5840   20.2690 C   0  0  0  0  0  2  0  0  0  0  0  0
  -24.5140  -30.8820   22.1470 N   0  0  0  0  0  0  0  0  0  0  0  0
  -23.4310  -32.0460   23.7610 O   0  0  0  0  0  0  0  0  0  0  0  0
  -22.5420  -29.3480   22.6190 C   0  0  0  0  0  0  0  0  0  0  0  0
  -21.2190  -29.1780   22.4670 N   0  0  0  0  0  0  0  0  0  0  0  0
  -23.1970  -28.7530   23.4770 O   0  0  0  0  0  0  0  0  0  0  0  0
  -20.7540  -29.7060   21.7430 H   0  0  0  0  0  0  0  0  0  0  0  0
  -17.8260  -28.0240   22.9000 C   0  0  0  0  0  0  0  0  0  0  0  0
  -20.3710  -28.2910   23.2590 C   0  0  0  0  0  3  0  0  0  0  0  0
  -20.4900  -26.8270   22.7740 C   0  0  0  0  0  2  0  0  0  0  0  0
  -19.4280  -26.4480   21.7360 C   0  0  0  0  0  2  0  0  0  0  0  0
  -18.0220  -26.6350   22.3140 C   0  0  0  0  0  2  0  0  0  0  0  0
  -18.9290  -28.8060   23.3290 C   0  0  0  0  0  0  0  0  0  0  0  0
  -18.6940  -30.1060   23.8320 C   0  0  0  0  0  3  0  0  0  0  0  0
  -17.3870  -30.6200   23.9140 C   0  0  0  0  0  3  0  0  0  0  0  0
  -16.2960  -29.8340   23.5040 C   0  0  0  0  0  3  0  0  0  0  0  0
  -16.5160  -28.5380   23.0020 C   0  0  0  0  0  3  0  0  0  0  0  0
  -25.8120  -32.3090   23.8220 C   0  0  0  0  0  3  0  0  0  0  0  0
  -25.5460  -33.7110   24.1660 N   0  0  0  0  0  0  0  0  0  0  0  0
  -25.8980  -34.7590   23.4100 C   0  0  0  0  0  0  0  0  0  0  0  0
  -26.5540  -34.6450   22.3710 O   0  0  0  0  0  0  0  0  0  0  0  0
  -24.9650  -33.8760   24.9750 H   0  0  0  0  0  0  0  0  0  0  0  0
  -24.2170  -36.6010   23.0810 C   0  0  0  0  0  1  0  0  0  0  0  0
  -25.4510  -36.1550   23.8830 C   0  0  0  0  0  3  0  0  0  0  0  0
  -27.6100  -36.9770   24.7130 C   0  0  0  0  0  1  0  0  0  0  0  0
  -26.5110  -37.1800   23.7720 N   0  0  0  0  0  0  0  0  0  0  0  0
  -26.1300  -38.1100   23.9290 H   0  0  0  0  0  0  0  0  0  0  0  0
  -26.3390  -31.5150   25.0800 C   0  0  1  0  0  0  0  0  0  0  0  0
  -25.2620  -31.2850   26.1650 C   0  0  0  0  0  1  0  0  0  0  0  0
  -26.8880  -30.1310   24.6600 C   0  0  0  0  0  1  0  0  0  0  0  0
  -27.5170  -32.2800   25.7280 C   0  0  0  0  0  1  0  0  0  0  0  0
  1  4  2  0
  1  3  1  0
  2  5  1  0
  3  2  2  0
  4  6  1  0
  5  8  1  0
  6  9  1  0
  6  5  2  0
  7  4  1  0
 11 10  1  6
 11  9  1  0
 11 12  1  0
 13 22  1  0
 13 11  1  0
 14 22  1  0
 15 20  1  0
 16 17  1  0
 16 15  1  0
 18 17  1  0
 18 27  1  0
 18 19  1  0
 20 14  1  0
 20 19  1  0
 21 14  2  0
 22 23  1  0
 24 25  2  0
 25 44  1  0
 26 25  1  0
 26 29  1  0
 27 28  1  0
 27 24  1  0
 28 26  2  0
 29 30  1  0
 30 31  2  0
 32 35  1  0
 32 31  1  0
 33 32  2  0
 34 33  1  0
 34 29  2  0
 35 36  1  0
 36 37  1  0
 37 38  2  0
 39 38  1  0
 39 43  1  0
 40 39  2  0
 41 36  2  0
 41 40  1  0
 42 41  1  0
 44 45  1  0
 45 48  1  0
 45 47  1  0
 46 44  2  0
 49 24  1  0
 49 50  1  0
 51 49  1  0
 52  3  1  0
 53 52  1  0
 53 54  1  0
 55 53  1  0
 56 53  1  0
 57 56  1  0
 57 58  1  0
 59 70  2  0
 60 58  1  0
 60 65  1  0
 61 69  1  0
 61 71  1  0
 62 68  1  0
 62 64  1  0
 63 69  1  0
 64 65  2  0
 64 63  1  0
 66 60  2  0
 67 66  1  0
 67 62  2  0
 68 61  1  0
 69 59  1  0
 71 73  2  0
 72 71  1  0
 74 72  1  0
 75 84  2  0
 75 80  1  0
 76 72  1  0
 76 80  1  0
 77 76  1  0
 78 79  1  0
 78 77  1  0
 79 75  1  0
 80 81  2  0
 81 82  1  0
 83 82  2  0
 84 83  1  0
 85 59  1  0
 85 86  1  0
 85 95  1  0
 86 89  1  0
 87 91  1  0
 87 86  1  0
 88 87  2  0
 91 90  1  0
 93 91  1  0
 93 94  1  0
 93 92  1  0
 95 98  1  1
 95 96  1  0
 97 95  1  0
M  ISO  4  14 100  22 100  57 101  58 101
M  END
>  <TORSDO>  (81) 
F 23

>  <SCORE>  (81) 
-12.124

>  <name>  (81) 
80

>  <ligand_id>  (81) 
80

>  <original_smiles>  (81) 
[H]c1c([H])c([H])c2c(c1[H])C([H])([H])C([H])([H])C([H])([H])C2([H])N([H])C(=O)C1([H])N(C(=O)C([H])(N([H])C(=O)C([H])(N([H])C([H])([H])[H])C([H])([H])[H])C(C([H])([H])[H])(C([H])([H])[H])C([H])([H])[H])C([H])([H])c2c([H])c(OC([H])([H])C([H])([H])[N+]([H])([H])C([H])([H])c3c([H])c(C([H])([H])[H])c(C([H])([H])C(Cl)(C([H])([H])[H])C([H])([H])N([H])C(=O)N4C([H])([H])C([H])([H])C([H])([H])C([H])(n5nc(-c6c([H])c([H])c(Oc7c([H])c([H])c(F)c([H])c7F)c([H])c6[H])c(C(=O)N([H])[H])c5N([H])[H])C4([H])[H])c(C([H])([H])[H])c3[H])c([H])c([H])c2C1([H])[H]

>  <smiles>  (81) 
[H]c1c([H])c([H])c2c(c1[H])C([H])([H])C([H])([H])C([H])([H])C2([H])N([H])C(=O)C1([H])N(C(=O)C([H])(N([H])C(=O)C([H])(N([H])C([H])([H])[H])C([H])([H])[H])C(C([H])([H])[H])(C([H])([H])[H])C([H])([H])[H])C([H])([H])c2c([H])c(OC([H])([H])C([H])([H])[N+]([H])([H])C([H])([H])c3c([H])c(C([H])([H])[H])c(C([H])([H])C(Cl)(C([H])([H])[H])C([H])([H])N([H])C(=O)N4C([H])([H])C([H])([H])C([H])([H])C([H])(n5nc(-c6c([H])c([H])c(Oc7c([H])c([H])c(F)c([H])c7F)c([H])c6[H])c(C(=O)N([H])[H])c5N([H])[H])C4([H])[H])c(C([H])([H])[H])c3[H])c([H])c([H])c2C1([H])[H]

$$$$
81:0:0
     RDKit          3D

101110  0  0  1  0  0  0  0  0999 V2000
  -29.8740  -21.6370   21.8680 C   0  0  0  0  0  0  0  0  0  0  0  0
  -31.1560  -21.7770   22.3030 C   0  0  0  0  0  3  0  0  0  0  0  0
  -28.8990  -22.8560   21.8960 C   0  0  0  0  0  2  0  0  0  0  0  0
  -28.8120  -21.6780   19.1700 C   0  0  0  0  0  2  0  0  0  0  0  0
  -28.2360  -23.0880   19.4660 C   0  0  0  0  0  2  0  0  0  0  0  0
  -28.3520  -20.5380   20.1340 C   0  0  0  0  0  2  0  0  0  0  0  0
  -28.8900  -23.8330   20.6540 C   0  0  0  0  0  3  0  0  0  0  0  0
  -29.1730  -20.3470   21.3720 N   0  0  1  0  0  4  0  0  0  0  0  0
  -28.4410  -20.2180   22.0570 H   0  0  0  0  0  0  0  0  0  0  0  0
  -32.2410  -20.8110   22.4160 C   0  0  0  0  0  3  0  0  0  0  0  0
  -33.5170  -21.1910   22.5940 C   0  0  0  0  0  3  0  0  0  0  0  0
  -34.6960  -20.2440   22.6590 C   0  0  0  0  0  1  0  0  0  0  0  0
  -29.7710  -18.9400   21.4960 C   0  0  0  0  0  2  0  0  0  0  0  0
  -31.8930  -18.0680   17.7980 C   0  0  0  0  0  3  0  0  0  0  0  0
  -31.3930  -19.4740   19.6740 C   0  0  0  0  0  3  0  0  0  0  0  0
  -31.9900  -19.3080   18.4250 C   0  0  0  0  0  0  0  0  0  0  0  0
  -31.2930  -16.9800   18.4670 C   0  0  0  0  0  0  0  0  0  0  0  0
  -30.6730  -18.4440   20.3260 C   0  0  0  0  0  0  0  0  0  0  0  0
  -30.7770  -17.0890   19.8030 C   0  0  0  0  0  0  0  0  0  0  0  0
  -32.6470  -20.4910   17.7400 C   0  0  0  0  0  1  0  0  0  0  0  0
  -31.1600  -15.7170   17.6460 C   0  0  0  0  0  1  0  0  0  0  0  0
  -31.0620  -14.6540   20.4410 C   0  0  0  0  0  0  0  0  0  0  0  0
  -30.7550  -12.4220   19.3940 C   0  0  0  0  0  2  0  0  0  0  0  0
  -29.8430  -12.4910   18.1490 C   0  0  0  0  0  2  0  0  0  0  0  0
  -28.3500  -12.4750   18.5330 C   0  0  0  0  0  2  0  0  0  0  0  0
  -27.9980  -13.3640   19.7540 C   0  0  0  0  0  3  0  0  0  0  0  0
  -29.0260  -13.2030   20.8930 C   0  0  0  0  0  2  0  0  0  0  0  0
  -30.3510  -13.4880   20.3330 N   0  0  0  0  0  0  0  0  0  0  0  0
  -32.2790  -14.6600   20.2460 O   0  0  0  0  0  0  0  0  0  0  0  0
  -30.3700  -15.8480   20.4880 N   0  0  0  0  0  0  0  0  0  0  0  0
  -29.4030  -15.7820   20.7650 H   0  0  0  0  0  0  0  0  0  0  0  0
  -25.5970  -14.0210   20.3920 C   0  0  0  0  0  0  0  0  0  0  0  0
  -24.5030  -13.2750   20.7460 C   0  0  0  0  0  0  0  0  0  0  0  0
  -24.9430  -11.9170   20.7630 C   0  0  0  0  0  0  0  0  0  0  0  0
  -26.6320  -13.1200   20.2160 N   0  0  0  0  0  0  0  0  0  0  0  0
  -26.2430  -11.8530   20.5100 N   0  0  0  0  0  0  0  0  0  0  0  0
  -24.1930  -10.6680   20.9500 C   0  0  0  0  0  0  0  0  0  0  0  0
  -24.5730   -9.7180   21.9240 C   0  0  0  0  0  3  0  0  0  0  0  0
  -23.8230   -8.5350   22.1030 C   0  0  0  0  0  3  0  0  0  0  0  0
  -22.6800   -8.2940   21.3090 C   0  0  0  0  0  0  0  0  0  0  0  0
  -22.3170   -9.2320   20.3250 C   0  0  0  0  0  3  0  0  0  0  0  0
  -23.0680  -10.4060   20.1430 C   0  0  0  0  0  3  0  0  0  0  0  0
  -21.9040   -7.1620   21.3950 O   0  0  0  0  0  0  0  0  0  0  0  0
  -21.7690   -6.4690   22.5710 C   0  0  0  0  0  0  0  0  0  0  0  0
  -21.2690   -7.0790   23.7420 C   0  0  0  0  0  3  0  0  0  0  0  0
  -21.0840   -6.3130   24.9110 C   0  0  0  0  0  3  0  0  0  0  0  0
  -21.3870   -4.9380   24.9070 C   0  0  0  0  0  0  0  0  0  0  0  0
  -21.8780   -4.3280   23.7390 C   0  0  0  0  0  3  0  0  0  0  0  0
  -22.0650   -5.0900   22.5730 C   0  0  0  0  0  0  0  0  0  0  0  0
  -22.5180   -4.4940   21.4450 F   0  0  0  0  0  0  0  0  0  0  0  0
  -21.2030   -4.1990   26.0250 F   0  0  0  0  0  0  0  0  0  0  0  0
  -23.1040  -13.7770   20.9540 C   0  0  0  0  0  0  0  0  0  0  0  0
  -22.3430  -13.1300   21.8280 N   0  0  0  0  0  0  0  0  0  0  0  0
  -22.6930  -14.7780   20.3700 O   0  0  0  0  0  0  0  0  0  0  0  0
  -22.6900  -12.3180   22.3190 H   0  0  0  0  0  0  0  0  0  0  0  0
  -21.4020  -13.4500   22.0120 H   0  0  0  0  0  0  0  0  0  0  0  0
  -25.8000  -15.3830   20.1820 N   0  0  0  0  0  0  0  0  0  0  0  0
  -25.0560  -16.0690   20.2440 H   0  0  0  0  0  0  0  0  0  0  0  0
  -26.6740  -15.7740   19.8550 H   0  0  0  0  0  0  0  0  0  0  0  0
  -28.1580  -25.2200   20.9490 C   0  0  0  0  0  2  0  0  0  0  0  0
  -28.3220  -26.3810   20.0570 O   0  0  0  0  0  0  0  0  0  0  0  0
  -24.5620  -31.7110   23.0700 C   0  0  0  0  0  0  0  0  0  0  0  0
  -27.2210  -27.2340   20.0010 C   0  0  0  0  0  0  0  0  0  0  0  0
  -23.3750  -30.3260   21.4010 C   0  0  0  0  0  3  0  0  0  0  0  0
  -24.8470  -28.8040   19.9660 C   0  0  0  0  0  0  0  0  0  0  0  0
  -25.9070  -30.6750   21.2340 C   0  0  0  0  0  2  0  0  0  0  0  0
  -26.0020  -29.3050   20.5800 C   0  0  0  0  0  0  0  0  0  0  0  0
  -27.1980  -28.5320   20.5870 C   0  0  0  0  0  3  0  0  0  0  0  0
  -26.0540  -26.7780   19.3570 C   0  0  0  0  0  3  0  0  0  0  0  0
  -24.8740  -27.5450   19.3390 C   0  0  0  0  0  3  0  0  0  0  0  0
  -23.6000  -29.6630   20.0150 C   0  0  0  0  0  2  0  0  0  0  0  0
  -24.6310  -30.9220   21.9580 N   0  0  0  0  0  0  0  0  0  0  0  0
  -23.4750  -31.9750   23.6040 O   0  0  0  0  0  0  0  0  0  0  0  0
  -22.7140  -29.2950   22.3470 C   0  0  0  0  0  0  0  0  0  0  0  0
  -21.3820  -29.1490   22.2430 N   0  0  0  0  0  0  0  0  0  0  0  0
  -23.3970  -28.6320   23.1300 O   0  0  0  0  0  0  0  0  0  0  0  0
  -20.8900  -29.7390   21.5880 H   0  0  0  0  0  0  0  0  0  0  0  0
  -17.9850  -28.0520   22.8210 C   0  0  0  0  0  0  0  0  0  0  0  0
  -20.5580  -28.2060   23.0030 C   0  0  0  0  0  3  0  0  0  0  0  0
  -20.5830  -26.7990   22.3610 C   0  0  0  0  0  2  0  0  0  0  0  0
  -19.4340  -26.5640   21.3760 C   0  0  0  0  0  2  0  0  0  0  0  0
  -18.0830  -26.7310   22.0780 C   0  0  0  0  0  2  0  0  0  0  0  0
  -19.1470  -28.7520   23.2410 C   0  0  0  0  0  0  0  0  0  0  0  0
  -18.9980  -29.9930   23.8980 C   0  0  0  0  0  3  0  0  0  0  0  0
  -17.7210  -30.5330   24.1360 C   0  0  0  0  0  3  0  0  0  0  0  0
  -16.5730  -29.8290   23.7330 C   0  0  0  0  0  3  0  0  0  0  0  0
  -16.7060  -28.5900   23.0800 C   0  0  0  0  0  3  0  0  0  0  0  0
  -25.8390  -32.3400   23.7070 C   0  0  0  0  0  3  0  0  0  0  0  0
  -26.3700  -31.5360   24.9590 C   0  0  1  0  0  0  0  0  0  0  0  0
  -25.2860  -31.2640   26.0290 C   0  0  0  0  0  1  0  0  0  0  0  0
  -26.9560  -30.1720   24.5260 C   0  0  0  0  0  1  0  0  0  0  0  0
  -27.5220  -32.3180   25.6350 C   0  0  0  0  0  1  0  0  0  0  0  0
  -25.5170  -33.7240   24.0810 N   0  0  0  0  0  0  0  0  0  0  0  0
  -25.8420  -34.8040   23.3570 C   0  0  0  0  0  0  0  0  0  0  0  0
  -26.5190  -34.7370   22.3260 O   0  0  0  0  0  0  0  0  0  0  0  0
  -24.9190  -33.8470   24.8850 H   0  0  0  0  0  0  0  0  0  0  0  0
  -24.1050  -36.5930   23.0420 C   0  0  0  0  0  1  0  0  0  0  0  0
  -25.3400  -36.1720   23.8540 C   0  0  0  0  0  3  0  0  0  0  0  0
  -27.4580  -37.0460   24.7380 C   0  0  0  0  0  1  0  0  0  0  0  0
  -26.3660  -37.2350   23.7870 N   0  0  0  0  0  0  0  0  0  0  0  0
  -25.9520  -38.1470   23.9560 H   0  0  0  0  0  0  0  0  0  0  0  0
  1  3  1  0
  1  2  2  0
  2 10  1  0
  4  5  1  0
  4  6  1  0
  5  7  1  0
  6  8  1  0
  7 60  1  0
  7  3  1  0
  8 13  1  0
  8  1  1  0
  8  9  1  1
 10 11  2  0
 11 12  1  0
 14 16  2  0
 14 17  1  0
 15 18  2  0
 16 15  1  0
 17 19  2  0
 18 13  1  0
 19 18  1  0
 19 30  1  0
 20 16  1  0
 21 17  1  0
 22 30  1  0
 23 28  1  0
 24 25  1  0
 24 23  1  0
 26 25  1  0
 26 35  1  0
 26 27  1  0
 28 22  1  0
 28 27  1  0
 29 22  2  0
 30 31  1  0
 32 33  2  0
 33 34  1  0
 33 52  1  0
 34 37  1  0
 35 32  1  0
 35 36  1  0
 36 34  2  0
 37 38  1  0
 38 39  2  0
 40 43  1  0
 40 39  1  0
 41 40  2  0
 42 41  1  0
 42 37  2  0
 43 44  1  0
 44 49  2  0
 44 45  1  0
 45 46  2  0
 47 46  1  0
 47 51  1  0
 48 47  2  0
 49 48  1  0
 50 49  1  0
 52 53  1  0
 53 56  1  0
 53 55  1  0
 54 52  2  0
 57 58  1  0
 57 32  1  0
 59 57  1  0
 61 60  1  0
 62 73  2  0
 63 61  1  0
 63 68  1  0
 64 72  1  0
 64 74  1  0
 65 71  1  0
 65 67  1  0
 66 72  1  0
 67 68  2  0
 67 66  1  0
 69 63  2  0
 70 69  1  0
 70 65  2  0
 71 64  1  0
 72 62  1  0
 74 76  2  0
 75 74  1  0
 77 75  1  0
 78 87  2  0
 78 83  1  0
 79 75  1  0
 79 83  1  0
 80 79  1  0
 81 82  1  0
 81 80  1  0
 82 78  1  0
 83 84  2  0
 84 85  1  0
 86 85  2  0
 87 86  1  0
 88 62  1  0
 88 93  1  0
 88 89  1  0
 89 92  1  1
 89 90  1  0
 91 89  1  0
 93 96  1  0
 94 98  1  0
 94 93  1  0
 95 94  2  0
 98 97  1  0
100 98  1  0
100101  1  0
100 99  1  0
M  ISO  4  22 100  30 100  60 101  61 101
M  END
>  <TORSDO>  (82) 
F 20

>  <SCORE>  (82) 
-13.587

>  <name>  (82) 
81

>  <ligand_id>  (82) 
81

>  <original_smiles>  (82) 
[H]C(C([H])=C1C([H])([H])C([H])(C([H])([H])Oc2c([H])c([H])c3c(c2[H])C([H])([H])N(C(=O)C([H])(N([H])C(=O)C([H])(N([H])C([H])([H])[H])C([H])([H])[H])C(C([H])([H])[H])(C([H])([H])[H])C([H])([H])[H])C([H])(C(=O)N([H])C2([H])c4c([H])c([H])c([H])c([H])c4C([H])([H])C([H])([H])C2([H])[H])C3([H])[H])C([H])([H])C([H])([H])C([H])([H])[N+]1([H])C([H])([H])c1c([H])c(C([H])([H])[H])c([H])c(C([H])([H])[H])c1N([H])C(=O)N1C([H])([H])C([H])([H])C([H])([H])C([H])(n2nc(-c3c([H])c([H])c(Oc4c([H])c([H])c(F)c([H])c4F)c([H])c3[H])c(C(=O)N([H])[H])c2N([H])[H])C1([H])[H])=C([H])C([H])([H])[H]

>  <smiles>  (82) 
[H]C(C([H])=C1C([H])([H])C([H])(C([H])([H])Oc2c([H])c([H])c3c(c2[H])C([H])([H])N(C(=O)C([H])(N([H])C(=O)C([H])(N([H])C([H])([H])[H])C([H])([H])[H])C(C([H])([H])[H])(C([H])([H])[H])C([H])([H])[H])C([H])(C(=O)N([H])C2([H])c4c([H])c([H])c([H])c([H])c4C([H])([H])C([H])([H])C2([H])[H])C3([H])[H])C([H])([H])C([H])([H])C([H])([H])[N+]1([H])C([H])([H])c1c([H])c(C([H])([H])[H])c([H])c(C([H])([H])[H])c1N([H])C(=O)N1C([H])([H])C([H])([H])C([H])([H])C([H])(n2nc(-c3c([H])c([H])c(Oc4c([H])c([H])c(F)c([H])c4F)c([H])c3[H])c(C(=O)N([H])[H])c2N([H])[H])C1([H])[H])=C([H])C([H])([H])[H]

$$$$
82:0:0
     RDKit          3D

 96104  0  0  1  0  0  0  0  0999 V2000
  -30.7260  -21.1680   21.9190 C   0  0  0  0  0  0  0  0  0  0  0  0
  -31.4780  -21.5560   22.9530 N   0  0  0  0  0  4  0  0  0  0  0  0
  -30.0470  -22.1160   21.2340 N   0  0  0  0  0  0  0  0  0  0  0  0
  -31.5930  -22.5170   23.2240 H   0  0  0  0  0  0  0  0  0  0  0  0
  -31.9860  -20.8550   23.4700 H   0  0  0  0  0  0  0  0  0  0  0  0
  -29.3990  -21.7820   20.5310 H   0  0  0  0  0  0  0  0  0  0  0  0
  -30.6640  -17.3910   22.4310 C   0  0  0  0  0  3  0  0  0  0  0  0
  -30.6740  -17.8280   20.0460 C   0  0  0  0  0  3  0  0  0  0  0  0
  -30.6330  -19.7160   21.6360 C   0  0  0  0  0  0  0  0  0  0  0  0
  -30.6260  -18.7750   22.7060 C   0  0  0  0  0  0  0  0  0  0  0  0
  -30.7080  -16.9000   21.1130 C   0  0  0  0  0  0  0  0  0  0  0  0
  -30.6290  -19.2220   20.3040 C   0  0  0  0  0  0  0  0  0  0  0  0
  -30.5580  -19.1950   24.1700 C   0  0  0  0  0  1  0  0  0  0  0  0
  -30.6140  -20.0800   19.2560 F   0  0  0  0  0  0  0  0  0  0  0  0
  -31.3040  -14.6770   20.0730 C   0  0  0  0  0  0  0  0  0  0  0  0
  -30.9620  -12.5570   18.8430 C   0  0  0  0  0  2  0  0  0  0  0  0
  -29.9320  -12.7830   17.7170 C   0  0  0  0  0  2  0  0  0  0  0  0
  -28.4890  -12.6250   18.2400 C   0  0  0  0  0  2  0  0  0  0  0  0
  -28.2350  -13.4310   19.5420 C   0  0  0  0  0  3  0  0  0  0  0  0
  -29.3570  -13.1520   20.5650 C   0  0  0  0  0  2  0  0  0  0  0  0
  -30.6530  -13.4900   19.9370 N   0  0  0  0  0  0  0  0  0  0  0  0
  -32.3130  -14.9800   19.4270 O   0  0  0  0  0  0  0  0  0  0  0  0
  -30.7480  -15.4800   20.9910 N   0  0  0  0  0  0  0  0  0  0  0  0
  -30.0760  -14.9930   21.5620 H   0  0  0  0  0  0  0  0  0  0  0  0
  -25.8960  -14.0290   20.4520 C   0  0  0  0  0  0  0  0  0  0  0  0
  -24.8470  -13.2480   20.8580 C   0  0  0  0  0  0  0  0  0  0  0  0
  -25.2870  -11.8950   20.7230 C   0  0  0  0  0  0  0  0  0  0  0  0
  -26.9120  -13.1510   20.0990 N   0  0  0  0  0  0  0  0  0  0  0  0
  -26.5500  -11.8600   20.3180 N   0  0  0  0  0  0  0  0  0  0  0  0
  -24.5630  -10.6290   20.9010 C   0  0  0  0  0  0  0  0  0  0  0  0
  -24.9140   -9.7170   21.9200 C   0  0  0  0  0  3  0  0  0  0  0  0
  -24.1930   -8.5150   22.0830 C   0  0  0  0  0  3  0  0  0  0  0  0
  -23.1100   -8.2150   21.2230 C   0  0  0  0  0  0  0  0  0  0  0  0
  -22.7800   -9.1160   20.1950 C   0  0  0  0  0  3  0  0  0  0  0  0
  -23.5010  -10.3100   20.0320 C   0  0  0  0  0  3  0  0  0  0  0  0
  -22.3700   -7.0590   21.2890 O   0  0  0  0  0  0  0  0  0  0  0  0
  -21.9840   -6.5180   22.4890 C   0  0  0  0  0  0  0  0  0  0  0  0
  -21.2050   -7.2420   23.4170 C   0  0  0  0  0  3  0  0  0  0  0  0
  -20.7710   -6.6240   24.6060 C   0  0  0  0  0  3  0  0  0  0  0  0
  -21.1080   -5.2820   24.8670 C   0  0  0  0  0  0  0  0  0  0  0  0
  -21.8790   -4.5580   23.9420 C   0  0  0  0  0  3  0  0  0  0  0  0
  -22.3130   -5.1740   22.7550 C   0  0  0  0  0  0  0  0  0  0  0  0
  -23.0390   -4.4640   21.8570 F   0  0  0  0  0  0  0  0  0  0  0  0
  -20.6860   -4.6870   26.0070 F   0  0  0  0  0  0  0  0  0  0  0  0
  -23.4780  -13.7190   21.2590 C   0  0  0  0  0  0  0  0  0  0  0  0
  -22.8220  -13.0010   22.1650 N   0  0  0  0  0  0  0  0  0  0  0  0
  -23.0010  -14.7590   20.8040 O   0  0  0  0  0  0  0  0  0  0  0  0
  -23.2200  -12.1590   22.5540 H   0  0  0  0  0  0  0  0  0  0  0  0
  -21.9090  -13.3010   22.4750 H   0  0  0  0  0  0  0  0  0  0  0  0
  -26.0690  -15.4060   20.3390 N   0  0  0  0  0  0  0  0  0  0  0  0
  -25.3300  -16.0670   20.5500 H   0  0  0  0  0  0  0  0  0  0  0  0
  -26.9100  -15.8510   19.9960 H   0  0  0  0  0  0  0  0  0  0  0  0
  -29.9640  -23.5500   21.6240 C   0  0  0  0  0  2  0  0  0  0  0  0
  -29.5030  -24.5310   20.5190 C   0  0  0  0  0  2  0  0  0  0  0  0
  -29.2870  -25.9570   21.0930 C   0  0  0  0  0  2  0  0  0  0  0  0
  -29.1160  -26.9670   20.0880 O   0  0  0  0  0  0  0  0  0  0  0  0
  -24.7460  -31.6660   23.2280 C   0  0  0  0  0  0  0  0  0  0  0  0
  -27.8930  -27.5990   20.1070 C   0  0  0  0  0  0  0  0  0  0  0  0
  -23.7260  -30.2100   21.5040 C   0  0  0  0  0  3  0  0  0  0  0  0
  -25.3640  -28.8590   20.0870 C   0  0  0  0  0  0  0  0  0  0  0  0
  -26.2100  -30.8150   21.3970 C   0  0  0  0  0  2  0  0  0  0  0  0
  -26.4470  -29.4760   20.7270 C   0  0  0  0  0  0  0  0  0  0  0  0
  -27.7160  -28.8510   20.7390 C   0  0  0  0  0  3  0  0  0  0  0  0
  -26.7980  -26.9930   19.4600 C   0  0  0  0  0  3  0  0  0  0  0  0
  -25.5330  -27.6140   19.4550 C   0  0  0  0  0  3  0  0  0  0  0  0
  -24.0420  -29.5960   20.1130 C   0  0  0  0  0  2  0  0  0  0  0  0
  -24.9080  -30.9110   22.1030 N   0  0  0  0  0  0  0  0  0  0  0  0
  -23.6290  -31.8130   23.7420 O   0  0  0  0  0  0  0  0  0  0  0  0
  -23.1460  -29.1020   22.4120 C   0  0  0  0  0  0  0  0  0  0  0  0
  -21.8680  -28.7530   22.1920 N   0  0  0  0  0  0  0  0  0  0  0  0
  -23.8470  -28.5590   23.2690 O   0  0  0  0  0  0  0  0  0  0  0  0
  -21.3570  -29.2540   21.4780 H   0  0  0  0  0  0  0  0  0  0  0  0
  -18.6650  -27.0990   22.4140 C   0  0  0  0  0  0  0  0  0  0  0  0
  -21.1300  -27.7070   22.8990 C   0  0  0  0  0  3  0  0  0  0  0  0
  -21.4780  -26.3070   22.3440 C   0  0  0  0  0  2  0  0  0  0  0  0
  -20.5220  -25.8400   21.2430 C   0  0  0  0  0  2  0  0  0  0  0  0
  -19.0830  -25.7900   21.7660 C   0  0  0  0  0  2  0  0  0  0  0  0
  -19.6270  -28.0070   22.9310 C   0  0  0  0  0  0  0  0  0  0  0  0
  -19.1870  -29.2250   23.4920 C   0  0  0  0  0  3  0  0  0  0  0  0
  -17.8170  -29.5420   23.5420 C   0  0  0  0  0  3  0  0  0  0  0  0
  -16.8680  -28.6340   23.0410 C   0  0  0  0  0  3  0  0  0  0  0  0
  -17.2900  -27.4150   22.4830 C   0  0  0  0  0  3  0  0  0  0  0  0
  -25.9470  -32.3920   23.9070 C   0  0  0  0  0  3  0  0  0  0  0  0
  -26.4570  -31.6680   25.2130 C   0  0  1  0  0  0  0  0  0  0  0  0
  -25.3290  -31.3280   26.2140 C   0  0  0  0  0  1  0  0  0  0  0  0
  -27.1890  -30.3540   24.8570 C   0  0  0  0  0  1  0  0  0  0  0  0
  -27.4860  -32.5640   25.9430 C   0  0  0  0  0  1  0  0  0  0  0  0
  -25.5230  -33.7660   24.2060 N   0  0  0  0  0  0  0  0  0  0  0  0
  -25.8240  -34.8360   23.4580 C   0  0  0  0  0  0  0  0  0  0  0  0
  -26.5590  -34.7750   22.4680 O   0  0  0  0  0  0  0  0  0  0  0  0
  -24.8730  -33.8830   24.9710 H   0  0  0  0  0  0  0  0  0  0  0  0
  -23.9990  -36.4980   22.9810 C   0  0  0  0  0  1  0  0  0  0  0  0
  -25.2130  -36.1870   23.8710 C   0  0  0  0  0  3  0  0  0  0  0  0
  -27.2210  -37.2280   24.8260 C   0  0  0  0  0  1  0  0  0  0  0  0
  -26.1730  -37.3110   23.8120 N   0  0  0  0  0  0  0  0  0  0  0  0
  -25.6950  -38.2010   23.9230 H   0  0  0  0  0  0  0  0  0  0  0  0
  1  2  2  0
  2  4  1  0
  2  5  1  0
  3 53  1  0
  3  1  1  0
  6  3  1  0
  7 10  1  0
  8 12  2  0
  8 11  1  0
  9  1  1  0
  9 10  2  0
 10 13  1  0
 11  7  2  0
 12  9  1  0
 14 12  1  0
 15 23  1  0
 16 21  1  0
 17 18  1  0
 17 16  1  0
 19 18  1  0
 19 28  1  0
 19 20  1  0
 21 15  1  0
 21 20  1  0
 22 15  2  0
 23 11  1  0
 23 24  1  0
 25 26  2  0
 26 45  1  0
 27 26  1  0
 27 30  1  0
 28 29  1  0
 28 25  1  0
 29 27  2  0
 30 31  1  0
 31 32  2  0
 33 36  1  0
 33 32  1  0
 34 33  2  0
 35 34  1  0
 35 30  2  0
 36 37  1  0
 37 42  2  0
 37 38  1  0
 38 39  2  0
 39 40  1  0
 40 44  1  0
 41 40  2  0
 42 41  1  0
 43 42  1  0
 45 46  1  0
 46 49  1  0
 46 48  1  0
 47 45  2  0
 50 25  1  0
 50 51  1  0
 52 50  1  0
 54 55  1  0
 54 53  1  0
 56 58  1  0
 56 55  1  0
 57 68  2  0
 58 63  1  0
 59 67  1  0
 59 69  1  0
 60 66  1  0
 60 62  1  0
 61 67  1  0
 62 63  2  0
 62 61  1  0
 64 58  2  0
 65 64  1  0
 65 60  2  0
 66 59  1  0
 67 57  1  0
 69 71  2  0
 70 69  1  0
 72 70  1  0
 73 82  2  0
 73 78  1  0
 74 70  1  0
 74 78  1  0
 75 74  1  0
 76 77  1  0
 76 75  1  0
 77 73  1  0
 78 79  2  0
 79 80  1  0
 81 80  2  0
 82 81  1  0
 83 57  1  0
 83 88  1  0
 83 84  1  0
 84 87  1  1
 84 85  1  0
 86 84  1  0
 88 91  1  0
 89 93  1  0
 89 88  1  0
 90 89  2  0
 93 92  1  0
 95 93  1  0
 95 96  1  0
 95 94  1  0
M  ISO  4  15 100  23 100  55 101  56 101
M  END
>  <TORSDO>  (83) 
F 20

>  <SCORE>  (83) 
-11.436

>  <name>  (83) 
82

>  <ligand_id>  (83) 
82

>  <original_smiles>  (83) 
[H]c1c([H])c([H])c2c(c1[H])C([H])([H])C([H])([H])C([H])([H])C2([H])N([H])C(=O)C1([H])N(C(=O)C([H])(N([H])C(=O)C([H])(N([H])C([H])([H])[H])C([H])([H])[H])C(C([H])([H])[H])(C([H])([H])[H])C([H])([H])[H])C([H])([H])c2c([H])c(OC([H])([H])C([H])([H])C([H])([H])[N+]([H])=C(c3c(F)c([H])c(N([H])C(=O)N4C([H])([H])C([H])([H])C([H])([H])C([H])(n5nc(-c6c([H])c([H])c(Oc7c([H])c([H])c(F)c([H])c7F)c([H])c6[H])c(C(=O)N([H])[H])c5N([H])[H])C4([H])[H])c([H])c3C([H])([H])[H])N([H])[H])c([H])c([H])c2C1([H])[H]

>  <smiles>  (83) 
[H]c1c([H])c([H])c2c(c1[H])C([H])([H])C([H])([H])C([H])([H])C2([H])N([H])C(=O)C1([H])N(C(=O)C([H])(N([H])C(=O)C([H])(N([H])C([H])([H])[H])C([H])([H])[H])C(C([H])([H])[H])(C([H])([H])[H])C([H])([H])[H])C([H])([H])c2c([H])c(OC([H])([H])C([H])([H])C([H])([H])[N+]([H])=C(c3c(F)c([H])c(N([H])C(=O)N4C([H])([H])C([H])([H])C([H])([H])C([H])(n5nc(-c6c([H])c([H])c(Oc7c([H])c([H])c(F)c([H])c7F)c([H])c6[H])c(C(=O)N([H])[H])c5N([H])[H])C4([H])[H])c([H])c3C([H])([H])[H])N([H])[H])c([H])c([H])c2C1([H])[H]

$$$$
83:0:0
     RDKit          3D

 92100  0  0  1  0  0  0  0  0999 V2000
  -28.6780  -20.2400   20.8730 C   0  0  0  0  0  3  0  0  0  0  0  0
  -30.2450  -21.0800   19.2630 C   0  0  0  0  0  3  0  0  0  0  0  0
  -29.1390  -18.9020   20.6710 C   0  0  0  0  0  0  0  0  0  0  0  0
  -30.1680  -18.6180   19.7250 C   0  0  0  0  0  0  0  0  0  0  0  0
  -29.2220  -21.3620   20.1920 C   0  0  0  0  0  0  0  0  0  0  0  0
  -30.7060  -19.7540   19.0340 C   0  0  0  0  0  0  0  0  0  0  0  0
  -28.5170  -17.8070   21.5230 C   0  0  0  0  0  1  0  0  0  0  0  0
  -31.9880  -19.5830   17.8830 Cl  0  0  0  0  0  0  0  0  0  0  0  0
  -28.7000  -22.6690   20.4440 N   0  0  0  0  0  0  0  0  0  0  0  0
  -27.9680  -22.7170   21.1490 H   0  0  0  0  0  0  0  0  0  0  0  0
  -29.3320  -23.9880   20.1390 C   0  0  0  0  0  2  0  0  0  0  0  0
  -28.2820  -25.0990   19.7350 C   0  0  0  0  0  2  0  0  0  0  0  0
  -28.5460  -26.5430   19.9070 O   0  0  0  0  0  0  0  0  0  0  0  0
  -24.7360  -31.7330   23.1420 C   0  0  0  0  0  0  0  0  0  0  0  0
  -27.4160  -27.3760   19.8820 C   0  0  0  0  0  0  0  0  0  0  0  0
  -23.5460  -30.3620   21.4700 C   0  0  0  0  0  3  0  0  0  0  0  0
  -25.0140  -28.9190   19.9610 C   0  0  0  0  0  0  0  0  0  0  0  0
  -26.0710  -30.7630   21.2620 C   0  0  0  0  0  2  0  0  0  0  0  0
  -26.1780  -29.4150   20.5600 C   0  0  0  0  0  0  0  0  0  0  0  0
  -27.3840  -28.6550   20.5160 C   0  0  0  0  0  3  0  0  0  0  0  0
  -26.2250  -26.9420   19.2480 C   0  0  0  0  0  3  0  0  0  0  0  0
  -25.0380  -27.6860   19.2990 C   0  0  0  0  0  3  0  0  0  0  0  0
  -23.7540  -29.7530   20.0600 C   0  0  0  0  0  2  0  0  0  0  0  0
  -24.8030  -30.9670   22.0150 N   0  0  0  0  0  0  0  0  0  0  0  0
  -23.6540  -31.9630   23.7000 O   0  0  0  0  0  0  0  0  0  0  0  0
  -22.9290  -29.2870   22.3960 C   0  0  0  0  0  0  0  0  0  0  0  0
  -21.6150  -29.0470   22.2490 N   0  0  0  0  0  0  0  0  0  0  0  0
  -23.6290  -28.6760   23.2060 O   0  0  0  0  0  0  0  0  0  0  0  0
  -21.1110  -29.5940   21.5670 H   0  0  0  0  0  0  0  0  0  0  0  0
  -18.2910  -27.6920   22.6910 C   0  0  0  0  0  0  0  0  0  0  0  0
  -20.8330  -28.0560   22.9910 C   0  0  0  0  0  3  0  0  0  0  0  0
  -21.0030  -26.6450   22.3820 C   0  0  0  0  0  2  0  0  0  0  0  0
  -19.9240  -26.2990   21.3520 C   0  0  0  0  0  2  0  0  0  0  0  0
  -18.5310  -26.3670   21.9870 C   0  0  0  0  0  2  0  0  0  0  0  0
  -19.3710  -28.4920   23.1470 C   0  0  0  0  0  0  0  0  0  0  0  0
  -19.0940  -29.7280   23.7670 C   0  0  0  0  0  3  0  0  0  0  0  0
  -17.7680  -30.1690   23.9360 C   0  0  0  0  0  3  0  0  0  0  0  0
  -16.7010  -29.3660   23.4970 C   0  0  0  0  0  3  0  0  0  0  0  0
  -16.9630  -28.1300   22.8800 C   0  0  0  0  0  3  0  0  0  0  0  0
  -26.0100  -32.3760   23.7670 C   0  0  0  0  0  3  0  0  0  0  0  0
  -26.5530  -31.5860   25.0210 C   0  0  1  0  0  0  0  0  0  0  0  0
  -25.4680  -31.2810   26.0790 C   0  0  0  0  0  1  0  0  0  0  0  0
  -27.1830  -30.2410   24.5910 C   0  0  0  0  0  1  0  0  0  0  0  0
  -27.6750  -32.4000   25.7060 C   0  0  0  0  0  1  0  0  0  0  0  0
  -25.6730  -33.7590   24.1310 N   0  0  0  0  0  0  0  0  0  0  0  0
  -25.9540  -34.8350   23.3830 C   0  0  0  0  0  0  0  0  0  0  0  0
  -26.5960  -34.7680   22.3310 O   0  0  0  0  0  0  0  0  0  0  0  0
  -25.1010  -33.8830   24.9530 H   0  0  0  0  0  0  0  0  0  0  0  0
  -24.1600  -36.5810   23.1210 C   0  0  0  0  0  1  0  0  0  0  0  0
  -25.4420  -36.2000   23.8810 C   0  0  0  0  0  3  0  0  0  0  0  0
  -27.5710  -37.1430   24.6600 C   0  0  0  0  0  1  0  0  0  0  0  0
  -26.4380  -37.2870   23.7500 N   0  0  0  0  0  0  0  0  0  0  0  0
  -26.0080  -38.1930   23.9170 H   0  0  0  0  0  0  0  0  0  0  0  0
  -30.8380  -17.2050   19.5070 C   0  0  0  0  0  2  0  0  0  0  0  0
  -30.9150  -14.7060   19.5980 C   0  0  0  0  0  0  0  0  0  0  0  0
  -30.5640  -12.4420   18.6680 C   0  0  0  0  0  2  0  0  0  0  0  0
  -29.5230  -12.5160   17.5320 C   0  0  0  0  0  2  0  0  0  0  0  0
  -28.1020  -12.3610   18.0990 C   0  0  0  0  0  2  0  0  0  0  0  0
  -27.8410  -13.2780   19.3250 C   0  0  0  0  0  3  0  0  0  0  0  0
  -28.9990  -13.2190   20.3470 C   0  0  0  0  0  2  0  0  0  0  0  0
  -30.2410  -13.5160   19.6280 N   0  0  0  0  0  0  0  0  0  0  0  0
  -32.0610  -14.7640   19.1460 O   0  0  0  0  0  0  0  0  0  0  0  0
  -30.2350  -15.8680   19.8430 N   0  0  0  0  0  0  0  0  0  0  0  0
  -29.2750  -15.8220   20.1490 H   0  0  0  0  0  0  0  0  0  0  0  0
  -25.5600  -13.8730   20.3400 C   0  0  0  0  0  0  0  0  0  0  0  0
  -24.5220  -13.0990   20.7820 C   0  0  0  0  0  0  0  0  0  0  0  0
  -24.9470  -11.7430   20.6300 C   0  0  0  0  0  0  0  0  0  0  0  0
  -26.5510  -12.9900   19.9450 N   0  0  0  0  0  0  0  0  0  0  0  0
  -26.1960  -11.6990   20.1800 N   0  0  0  0  0  0  0  0  0  0  0  0
  -24.2170  -10.4840   20.8270 C   0  0  0  0  0  0  0  0  0  0  0  0
  -24.6310   -9.5320   21.7850 C   0  0  0  0  0  3  0  0  0  0  0  0
  -23.8990   -8.3390   21.9720 C   0  0  0  0  0  3  0  0  0  0  0  0
  -22.7380   -8.0910   21.2000 C   0  0  0  0  0  0  0  0  0  0  0  0
  -22.3440   -9.0310   20.2330 C   0  0  0  0  0  3  0  0  0  0  0  0
  -23.0760  -10.2150   20.0450 C   0  0  0  0  0  3  0  0  0  0  0  0
  -21.9800   -6.9480   21.2950 O   0  0  0  0  0  0  0  0  0  0  0  0
  -21.7770   -6.3160   22.4960 C   0  0  0  0  0  0  0  0  0  0  0  0
  -21.1560   -6.9650   23.5850 C   0  0  0  0  0  3  0  0  0  0  0  0
  -20.9050   -6.2580   24.7770 C   0  0  0  0  0  3  0  0  0  0  0  0
  -21.2630   -4.9000   24.8800 C   0  0  0  0  0  0  0  0  0  0  0  0
  -21.8780   -4.2500   23.7950 C   0  0  0  0  0  3  0  0  0  0  0  0
  -22.1300   -4.9560   22.6050 C   0  0  0  0  0  0  0  0  0  0  0  0
  -22.7030   -4.3180   21.5550 F   0  0  0  0  0  0  0  0  0  0  0  0
  -21.0150   -4.2180   26.0210 F   0  0  0  0  0  0  0  0  0  0  0  0
  -23.1740  -13.5830   21.2300 C   0  0  0  0  0  0  0  0  0  0  0  0
  -22.5380  -12.8620   22.1470 N   0  0  0  0  0  0  0  0  0  0  0  0
  -22.6990  -14.6340   20.8020 O   0  0  0  0  0  0  0  0  0  0  0  0
  -22.9370  -12.0100   22.5110 H   0  0  0  0  0  0  0  0  0  0  0  0
  -21.6390  -13.1670   22.4910 H   0  0  0  0  0  0  0  0  0  0  0  0
  -25.7360  -15.2490   20.2180 N   0  0  0  0  0  0  0  0  0  0  0  0
  -24.9980  -15.9090   20.4390 H   0  0  0  0  0  0  0  0  0  0  0  0
  -26.5420  -15.6880   19.7920 H   0  0  0  0  0  0  0  0  0  0  0  0
  2  5  1  0
  3  1  1  0
  3  7  1  0
  4  3  2  0
  5  9  1  0
  5  1  2  0
  6  2  2  0
  6  4  1  0
  8  6  1  0
  9 10  1  0
 11  9  1  0
 12 13  1  0
 12 11  1  0
 14 25  2  0
 15 13  1  0
 15 20  1  0
 16 24  1  0
 16 26  1  0
 17 23  1  0
 17 19  1  0
 18 24  1  0
 19 18  1  0
 20 19  2  0
 21 22  1  0
 21 15  2  0
 22 17  2  0
 23 16  1  0
 24 14  1  0
 26 28  2  0
 27 26  1  0
 29 27  1  0
 30 39  2  0
 30 35  1  0
 31 27  1  0
 31 35  1  0
 32 31  1  0
 33 34  1  0
 33 32  1  0
 34 30  1  0
 35 36  2  0
 36 37  1  0
 38 37  2  0
 39 38  1  0
 40 14  1  0
 40 45  1  0
 40 41  1  0
 41 44  1  1
 41 42  1  0
 43 41  1  0
 45 48  1  0
 46 50  1  0
 46 45  1  0
 47 46  2  0
 50 49  1  0
 52 50  1  0
 52 53  1  0
 52 51  1  0
 54  4  1  0
 54 63  1  0
 55 61  1  0
 55 63  1  0
 56 61  1  0
 57 58  1  0
 57 56  1  0
 59 58  1  0
 59 68  1  0
 59 60  1  0
 61 60  1  0
 62 55  2  0
 63 64  1  0
 65 66  2  0
 66 85  1  0
 67 66  1  0
 67 70  1  0
 68 69  1  0
 68 65  1  0
 69 67  2  0
 70 71  1  0
 71 72  2  0
 73 76  1  0
 73 72  1  0
 74 73  2  0
 75 74  1  0
 75 70  2  0
 76 77  1  0
 77 82  2  0
 77 78  1  0
 78 79  2  0
 79 80  1  0
 80 84  1  0
 81 80  2  0
 82 81  1  0
 83 82  1  0
 85 86  1  0
 86 89  1  0
 86 88  1  0
 87 85  2  0
 90 65  1  0
 90 91  1  0
 92 90  1  0
M  ISO  4  12 101  13 101  55 100  63 100
M  END
>  <TORSDO>  (84) 
F 20

>  <SCORE>  (84) 
-11.538

>  <name>  (84) 
83

>  <ligand_id>  (84) 
83

>  <original_smiles>  (84) 
[H]c1c([H])c([H])c2c(c1[H])C([H])([H])C([H])([H])C([H])([H])C2([H])N([H])C(=O)C1([H])N(C(=O)C([H])(N([H])C(=O)C([H])(N([H])C([H])([H])[H])C([H])([H])[H])C(C([H])([H])[H])(C([H])([H])[H])C([H])([H])[H])C([H])([H])c2c([H])c(OC([H])([H])C([H])([H])N([H])c3c([H])c(Cl)c(C([H])([H])N([H])C(=O)N4C([H])([H])C([H])([H])C([H])([H])C([H])(n5nc(-c6c([H])c([H])c(Oc7c([H])c([H])c(F)c([H])c7F)c([H])c6[H])c(C(=O)N([H])[H])c5N([H])[H])C4([H])[H])c(C([H])([H])[H])c3[H])c([H])c([H])c2C1([H])[H]

>  <smiles>  (84) 
[H]c1c([H])c([H])c2c(c1[H])C([H])([H])C([H])([H])C([H])([H])C2([H])N([H])C(=O)C1([H])N(C(=O)C([H])(N([H])C(=O)C([H])(N([H])C([H])([H])[H])C([H])([H])[H])C(C([H])([H])[H])(C([H])([H])[H])C([H])([H])[H])C([H])([H])c2c([H])c(OC([H])([H])C([H])([H])N([H])c3c([H])c(Cl)c(C([H])([H])N([H])C(=O)N4C([H])([H])C([H])([H])C([H])([H])C([H])(n5nc(-c6c([H])c([H])c(Oc7c([H])c([H])c(F)c([H])c7F)c([H])c6[H])c(C(=O)N([H])[H])c5N([H])[H])C4([H])[H])c(C([H])([H])[H])c3[H])c([H])c([H])c2C1([H])[H]

$$$$
84:0:0
     RDKit          3D

 95103  0  0  1  0  0  0  0  0999 V2000
  -30.3160  -22.6880   21.6440 C   0  0  0  0  0  0  0  0  0  0  0  0
  -29.8750  -21.5740   22.2450 N   0  0  0  0  0  0  0  0  0  0  0  0
  -31.4080  -22.7490   21.0750 O   0  0  0  0  0  0  0  0  0  0  0  0
  -28.9720  -21.6210   22.6950 H   0  0  0  0  0  0  0  0  0  0  0  0
  -29.3660  -23.7850   21.7560 C   0  0  0  0  0  3  0  0  0  0  0  0
  -29.6640  -25.0260   21.3150 C   0  0  0  0  0  3  0  0  0  0  0  0
  -28.7390  -26.2270   21.4330 C   0  0  0  0  0  2  0  0  0  0  0  0
  -28.4310  -26.7840   20.1540 O   0  0  0  0  0  0  0  0  0  0  0  0
  -24.5890  -31.9270   23.2400 C   0  0  0  0  0  0  0  0  0  0  0  0
  -27.2830  -27.5380   20.1570 C   0  0  0  0  0  0  0  0  0  0  0  0
  -23.3970  -30.5200   21.5880 C   0  0  0  0  0  3  0  0  0  0  0  0
  -24.8710  -29.0000   20.1630 C   0  0  0  0  0  0  0  0  0  0  0  0
  -25.9160  -30.9070   21.3980 C   0  0  0  0  0  2  0  0  0  0  0  0
  -26.0190  -29.5380   20.7600 C   0  0  0  0  0  0  0  0  0  0  0  0
  -27.2280  -28.8100   20.7650 C   0  0  0  0  0  3  0  0  0  0  0  0
  -26.1300  -27.0130   19.5430 C   0  0  0  0  0  3  0  0  0  0  0  0
  -24.9190  -27.7320   19.5540 C   0  0  0  0  0  3  0  0  0  0  0  0
  -23.6160  -29.8420   20.2080 C   0  0  0  0  0  2  0  0  0  0  0  0
  -24.6520  -31.1330   22.1340 N   0  0  0  0  0  0  0  0  0  0  0  0
  -23.5060  -32.1880   23.7800 O   0  0  0  0  0  0  0  0  0  0  0  0
  -22.7540  -29.4910   22.5450 C   0  0  0  0  0  0  0  0  0  0  0  0
  -21.4320  -29.2950   22.4110 N   0  0  0  0  0  0  0  0  0  0  0  0
  -23.4410  -28.8700   23.3610 O   0  0  0  0  0  0  0  0  0  0  0  0
  -20.9400  -29.8450   21.7210 H   0  0  0  0  0  0  0  0  0  0  0  0
  -18.0670  -28.0790   22.9020 C   0  0  0  0  0  0  0  0  0  0  0  0
  -20.6220  -28.3470   23.1760 C   0  0  0  0  0  3  0  0  0  0  0  0
  -20.7330  -26.9210   22.5900 C   0  0  0  0  0  2  0  0  0  0  0  0
  -19.6330  -26.6000   21.5730 C   0  0  0  0  0  2  0  0  0  0  0  0
  -18.2500  -26.7350   22.2170 C   0  0  0  0  0  2  0  0  0  0  0  0
  -19.1800  -28.8440   23.3380 C   0  0  0  0  0  0  0  0  0  0  0  0
  -18.9570  -30.1020   23.9370 C   0  0  0  0  0  3  0  0  0  0  0  0
  -17.6500  -30.5970   24.1050 C   0  0  0  0  0  3  0  0  0  0  0  0
  -16.5490  -29.8280   23.6850 C   0  0  0  0  0  3  0  0  0  0  0  0
  -16.7590  -28.5720   23.0900 C   0  0  0  0  0  3  0  0  0  0  0  0
  -25.8700  -32.5650   23.8630 C   0  0  0  0  0  3  0  0  0  0  0  0
  -26.3810  -31.8040   25.1480 C   0  0  1  0  0  0  0  0  0  0  0  0
  -25.2830  -31.5730   26.2110 C   0  0  0  0  0  1  0  0  0  0  0  0
  -26.9680  -30.4250   24.7680 C   0  0  0  0  0  1  0  0  0  0  0  0
  -27.5270  -32.6060   25.8110 C   0  0  0  0  0  1  0  0  0  0  0  0
  -25.5580  -33.9640   24.1770 N   0  0  0  0  0  0  0  0  0  0  0  0
  -25.8950  -35.0090   23.4080 C   0  0  0  0  0  0  0  0  0  0  0  0
  -26.5730  -34.8950   22.3820 O   0  0  0  0  0  0  0  0  0  0  0  0
  -24.9560  -34.1270   24.9710 H   0  0  0  0  0  0  0  0  0  0  0  0
  -24.1710  -36.7960   23.0150 C   0  0  0  0  0  1  0  0  0  0  0  0
  -25.4010  -36.4010   23.8470 C   0  0  0  0  0  3  0  0  0  0  0  0
  -27.5250  -37.2910   24.6950 C   0  0  0  0  0  1  0  0  0  0  0  0
  -26.4330  -37.4550   23.7390 N   0  0  0  0  0  0  0  0  0  0  0  0
  -26.0250  -38.3750   23.8790 H   0  0  0  0  0  0  0  0  0  0  0  0
  -30.6160  -20.3190   22.4290 C   0  0  0  0  0  2  0  0  0  0  0  0
  -29.9970  -19.6070   20.0640 C   0  0  0  0  0  3  0  0  0  0  0  0
  -29.6790  -18.6430   19.0980 C   0  0  0  0  0  3  0  0  0  0  0  0
  -30.3380  -19.2300   21.3820 C   0  0  0  0  0  0  0  0  0  0  0  0
  -30.4130  -17.8430   21.7070 C   0  0  0  0  0  0  0  0  0  0  0  0
  -30.0660  -16.8610   20.7330 C   0  0  0  0  0  0  0  0  0  0  0  0
  -29.6830  -17.2790   19.4280 C   0  0  0  0  0  0  0  0  0  0  0  0
  -30.8640  -17.4180   23.1020 C   0  0  0  0  0  1  0  0  0  0  0  0
  -29.1640  -16.1780   18.2020 Cl  0  0  0  0  0  0  0  0  0  0  0  0
  -30.7330  -14.5040   20.5380 C   0  0  0  0  0  0  0  0  0  0  0  0
  -30.4820  -12.3370   19.3850 C   0  0  0  0  0  2  0  0  0  0  0  0
  -29.5600  -12.5370   18.1650 C   0  0  0  0  0  2  0  0  0  0  0  0
  -28.0740  -12.4180   18.5640 C   0  0  0  0  0  2  0  0  0  0  0  0
  -27.7160  -13.2370   19.8320 C   0  0  0  0  0  3  0  0  0  0  0  0
  -28.7520  -12.9980   20.9520 C   0  0  0  0  0  2  0  0  0  0  0  0
  -30.0880  -13.3110   20.4130 N   0  0  0  0  0  0  0  0  0  0  0  0
  -31.8600  -14.7170   20.0830 O   0  0  0  0  0  0  0  0  0  0  0  0
  -29.9950  -15.4810   21.0890 N   0  0  0  0  0  0  0  0  0  0  0  0
  -29.1190  -15.1760   21.4800 H   0  0  0  0  0  0  0  0  0  0  0  0
  -25.2980  -13.8370   20.4870 C   0  0  0  0  0  0  0  0  0  0  0  0
  -24.2290  -13.0590   20.8450 C   0  0  0  0  0  0  0  0  0  0  0  0
  -24.7030  -11.7120   20.8380 C   0  0  0  0  0  0  0  0  0  0  0  0
  -26.3540  -12.9610   20.2870 N   0  0  0  0  0  0  0  0  0  0  0  0
  -25.9990  -11.6800   20.5540 N   0  0  0  0  0  0  0  0  0  0  0  0
  -23.9860  -10.4450   21.0320 C   0  0  0  0  0  0  0  0  0  0  0  0
  -24.4140   -9.4920   21.9810 C   0  0  0  0  0  3  0  0  0  0  0  0
  -23.7010   -8.2870   22.1570 C   0  0  0  0  0  3  0  0  0  0  0  0
  -22.5420   -8.0280   21.3880 C   0  0  0  0  0  0  0  0  0  0  0  0
  -22.1350   -8.9700   20.4260 C   0  0  0  0  0  3  0  0  0  0  0  0
  -22.8500  -10.1670   20.2470 C   0  0  0  0  0  3  0  0  0  0  0  0
  -21.7970   -6.8770   21.4760 O   0  0  0  0  0  0  0  0  0  0  0  0
  -21.7380   -6.1460   22.6350 C   0  0  0  0  0  0  0  0  0  0  0  0
  -21.2680   -6.7010   23.8450 C   0  0  0  0  0  3  0  0  0  0  0  0
  -21.1580   -5.8920   24.9940 C   0  0  0  0  0  3  0  0  0  0  0  0
  -21.5080   -4.5300   24.9340 C   0  0  0  0  0  0  0  0  0  0  0  0
  -21.9700   -3.9740   23.7280 C   0  0  0  0  0  3  0  0  0  0  0  0
  -22.0830   -4.7790   22.5820 C   0  0  0  0  0  0  0  0  0  0  0  0
  -22.5080   -4.2330   21.4180 F   0  0  0  0  0  0  0  0  0  0  0  0
  -21.3930   -3.7530   26.0360 F   0  0  0  0  0  0  0  0  0  0  0  0
  -22.8210  -13.5240   21.0870 C   0  0  0  0  0  0  0  0  0  0  0  0
  -22.0820  -12.8270   21.9430 N   0  0  0  0  0  0  0  0  0  0  0  0
  -22.3850  -14.5420   20.5490 O   0  0  0  0  0  0  0  0  0  0  0  0
  -22.4460  -12.0050   22.4020 H   0  0  0  0  0  0  0  0  0  0  0  0
  -21.1360  -13.1200   22.1440 H   0  0  0  0  0  0  0  0  0  0  0  0
  -25.4570  -15.2070   20.2960 N   0  0  0  0  0  0  0  0  0  0  0  0
  -24.6780  -15.8520   20.3590 H   0  0  0  0  0  0  0  0  0  0  0  0
  -26.3120  -15.6470   19.9810 H   0  0  0  0  0  0  0  0  0  0  0  0
  1  5  1  0
  1  2  1  0
  2 49  1  0
  2  4  1  0
  3  1  2  0
  6  7  1  0
  6  5  2  0
  8 10  1  0
  8  7  1  0
  9 20  2  0
 10 15  1  0
 11 19  1  0
 11 21  1  0
 12 18  1  0
 12 14  1  0
 13 19  1  0
 14 15  2  0
 14 13  1  0
 16 17  1  0
 16 10  2  0
 17 12  2  0
 18 11  1  0
 19  9  1  0
 21 23  2  0
 22 21  1  0
 24 22  1  0
 25 34  2  0
 25 30  1  0
 26 22  1  0
 26 30  1  0
 27 26  1  0
 28 29  1  0
 28 27  1  0
 29 25  1  0
 30 31  2  0
 31 32  1  0
 33 32  2  0
 34 33  1  0
 35  9  1  0
 35 40  1  0
 35 36  1  0
 36 39  1  1
 36 37  1  0
 38 36  1  0
 40 43  1  0
 41 45  1  0
 41 40  1  0
 42 41  2  0
 45 44  1  0
 47 45  1  0
 47 48  1  0
 47 46  1  0
 50 52  1  0
 51 55  1  0
 51 50  2  0
 52 53  2  0
 52 49  1  0
 53 56  1  0
 54 66  1  0
 54 53  1  0
 55 54  2  0
 57 55  1  0
 58 66  1  0
 59 64  1  0
 60 61  1  0
 60 59  1  0
 62 61  1  0
 62 71  1  0
 62 63  1  0
 64 58  1  0
 64 63  1  0
 65 58  2  0
 66 67  1  0
 68 69  2  0
 69 88  1  0
 70 69  1  0
 70 73  1  0
 71 68  1  0
 71 72  1  0
 72 70  2  0
 73 74  1  0
 74 75  2  0
 76 79  1  0
 76 75  1  0
 77 76  2  0
 78 77  1  0
 78 73  2  0
 79 80  1  0
 80 81  1  0
 81 82  2  0
 83 82  1  0
 83 87  1  0
 84 83  2  0
 85 80  2  0
 85 84  1  0
 86 85  1  0
 88 89  1  0
 89 92  1  0
 89 91  1  0
 90 88  2  0
 93 94  1  0
 93 68  1  0
 95 93  1  0
M  ISO  4   7 101   8 101  58 100  66 100
M  END
>  <TORSDO>  (85) 
F 20

>  <SCORE>  (85) 
-13.122

>  <name>  (85) 
84

>  <ligand_id>  (85) 
84

>  <original_smiles>  (85) 
[H]C(C(=O)N([H])C([H])([H])c1c([H])c([H])c(Cl)c(N([H])C(=O)N2C([H])([H])C([H])([H])C([H])([H])C([H])(n3nc(-c4c([H])c([H])c(Oc5c([H])c([H])c(F)c([H])c5F)c([H])c4[H])c(C(=O)N([H])[H])c3N([H])[H])C2([H])[H])c1C([H])([H])[H])=C([H])C([H])([H])Oc1c([H])c([H])c2c(c1[H])C([H])([H])N(C(=O)C([H])(N([H])C(=O)C([H])(N([H])C([H])([H])[H])C([H])([H])[H])C(C([H])([H])[H])(C([H])([H])[H])C([H])([H])[H])C([H])(C(=O)N([H])C1([H])c3c([H])c([H])c([H])c([H])c3C([H])([H])C([H])([H])C1([H])[H])C2([H])[H]

>  <smiles>  (85) 
[H]C(C(=O)N([H])C([H])([H])c1c([H])c([H])c(Cl)c(N([H])C(=O)N2C([H])([H])C([H])([H])C([H])([H])C([H])(n3nc(-c4c([H])c([H])c(Oc5c([H])c([H])c(F)c([H])c5F)c([H])c4[H])c(C(=O)N([H])[H])c3N([H])[H])C2([H])[H])c1C([H])([H])[H])=C([H])C([H])([H])Oc1c([H])c([H])c2c(c1[H])C([H])([H])N(C(=O)C([H])(N([H])C(=O)C([H])(N([H])C([H])([H])[H])C([H])([H])[H])C(C([H])([H])[H])(C([H])([H])[H])C([H])([H])[H])C([H])(C(=O)N([H])C1([H])c3c([H])c([H])c([H])c([H])c3C([H])([H])C([H])([H])C1([H])[H])C2([H])[H]

$$$$
85:0:0
     RDKit          3D

 95103  0  0  1  0  0  0  0  0999 V2000
  -27.5720  -19.1000   19.1570 C   0  0  0  0  0  3  0  0  0  0  0  0
  -28.6780  -18.2290   19.1550 C   0  0  0  0  0  0  0  0  0  0  0  0
  -27.5810  -20.2710   19.9250 C   0  0  0  0  0  0  0  0  0  0  0  0
  -29.9260  -19.8340   20.4750 C   0  0  0  0  0  0  0  0  0  0  0  0
  -29.7800  -18.4830   20.0080 C   0  0  0  0  0  0  0  0  0  0  0  0
  -28.8150  -20.7510   20.4330 C   0  0  0  0  0  0  0  0  0  0  0  0
  -28.6820  -17.0910   18.1470 C   0  0  0  0  0  1  0  0  0  0  0  0
  -26.2370  -20.9520   20.1530 C   0  0  0  0  0  1  0  0  0  0  0  0
  -31.3050  -20.2820   20.9450 C   0  0  0  0  0  1  0  0  0  0  0  0
  -30.8250  -17.3680   20.2940 C   0  0  0  0  0  2  0  0  0  0  0  0
  -31.0690  -14.9190   20.7250 C   0  0  0  0  0  0  0  0  0  0  0  0
  -30.8340  -12.6890   19.7470 C   0  0  0  0  0  2  0  0  0  0  0  0
  -29.9930  -12.8450   18.4670 C   0  0  0  0  0  2  0  0  0  0  0  0
  -28.4960  -12.6860   18.7870 C   0  0  0  0  0  2  0  0  0  0  0  0
  -28.0580  -13.5880   19.9670 C   0  0  0  0  0  3  0  0  0  0  0  0
  -29.0250  -13.4940   21.1640 C   0  0  0  0  0  2  0  0  0  0  0  0
  -30.3940  -13.7390   20.6790 N   0  0  0  0  0  0  0  0  0  0  0  0
  -32.2670  -15.0060   20.4650 O   0  0  0  0  0  0  0  0  0  0  0  0
  -30.3150  -16.0500   20.7680 N   0  0  0  0  0  0  0  0  0  0  0  0
  -29.3450  -15.9870   21.0430 H   0  0  0  0  0  0  0  0  0  0  0  0
  -25.6380  -14.2340   20.5320 C   0  0  0  0  0  0  0  0  0  0  0  0
  -24.5360  -13.4780   20.8350 C   0  0  0  0  0  0  0  0  0  0  0  0
  -24.9730  -12.1210   20.8070 C   0  0  0  0  0  0  0  0  0  0  0  0
  -26.6790  -13.3340   20.3600 N   0  0  0  0  0  0  0  0  0  0  0  0
  -26.2780  -12.0580   20.5840 N   0  0  0  0  0  0  0  0  0  0  0  0
  -24.2110  -10.8740   20.9270 C   0  0  0  0  0  0  0  0  0  0  0  0
  -24.5560   -9.8930   21.8800 C   0  0  0  0  0  3  0  0  0  0  0  0
  -23.8000   -8.7060   21.9840 C   0  0  0  0  0  3  0  0  0  0  0  0
  -22.6830   -8.4990   21.1400 C   0  0  0  0  0  0  0  0  0  0  0  0
  -22.3600   -9.4720   20.1770 C   0  0  0  0  0  3  0  0  0  0  0  0
  -23.1150  -10.6510   20.0710 C   0  0  0  0  0  3  0  0  0  0  0  0
  -21.8960   -7.3720   21.1620 O   0  0  0  0  0  0  0  0  0  0  0  0
  -21.7390   -6.6260   22.3020 C   0  0  0  0  0  0  0  0  0  0  0  0
  -21.1710   -7.1680   23.4760 C   0  0  0  0  0  3  0  0  0  0  0  0
  -20.9580   -6.3460   24.6020 C   0  0  0  0  0  3  0  0  0  0  0  0
  -21.3050   -4.9820   24.5540 C   0  0  0  0  0  0  0  0  0  0  0  0
  -21.8640   -4.4380   23.3840 C   0  0  0  0  0  3  0  0  0  0  0  0
  -22.0780   -5.2580   22.2610 C   0  0  0  0  0  0  0  0  0  0  0  0
  -22.5980   -4.7230   21.1310 F   0  0  0  0  0  0  0  0  0  0  0  0
  -21.0950   -4.1910   25.6330 F   0  0  0  0  0  0  0  0  0  0  0  0
  -23.1400  -13.9850   21.0330 C   0  0  0  0  0  0  0  0  0  0  0  0
  -22.3500  -13.2870   21.8420 N   0  0  0  0  0  0  0  0  0  0  0  0
  -22.7580  -15.0320   20.5120 O   0  0  0  0  0  0  0  0  0  0  0  0
  -22.6870  -12.4560   22.3030 H   0  0  0  0  0  0  0  0  0  0  0  0
  -21.4050  -13.5980   22.0060 H   0  0  0  0  0  0  0  0  0  0  0  0
  -25.8300  -15.6010   20.3740 N   0  0  0  0  0  0  0  0  0  0  0  0
  -25.0380  -16.2360   20.4060 H   0  0  0  0  0  0  0  0  0  0  0  0
  -26.6760  -16.0440   20.0370 H   0  0  0  0  0  0  0  0  0  0  0  0
  -28.8900  -22.2310   20.8810 C   0  0  0  0  0  2  0  0  0  0  0  0
  -28.6280  -23.1650   19.7520 N   0  0  0  0  0  4  0  0  0  0  0  0
  -27.9280  -22.7200   19.1800 H   0  0  0  0  0  0  0  0  0  0  0  0
  -29.4770  -23.2080   19.2070 H   0  0  0  0  0  0  0  0  0  0  0  0
  -28.1670  -24.5460   20.1070 C   0  0  0  0  0  2  0  0  0  0  0  0
  -28.4540  -25.5990   18.9970 C   0  0  0  0  0  2  0  0  0  0  0  0
  -28.4050  -26.9750   19.4340 O   0  0  0  0  0  0  0  0  0  0  0  0
  -24.6220  -31.7520   23.1250 C   0  0  0  0  0  0  0  0  0  0  0  0
  -27.2090  -27.6700   19.5140 C   0  0  0  0  0  0  0  0  0  0  0  0
  -23.3830  -30.5340   21.3760 C   0  0  0  0  0  3  0  0  0  0  0  0
  -24.8050  -29.1710   19.7490 C   0  0  0  0  0  0  0  0  0  0  0  0
  -25.9050  -30.9170   21.1520 C   0  0  0  0  0  2  0  0  0  0  0  0
  -25.9780  -29.6280   20.3570 C   0  0  0  0  0  0  0  0  0  0  0  0
  -27.1760  -28.8880   20.2340 C   0  0  0  0  0  3  0  0  0  0  0  0
  -26.0090  -27.2260   18.9090 C   0  0  0  0  0  3  0  0  0  0  0  0
  -24.8170  -27.9670   19.0260 C   0  0  0  0  0  3  0  0  0  0  0  0
  -23.5550  -30.0070   19.9260 C   0  0  0  0  0  2  0  0  0  0  0  0
  -24.6560  -31.0750   21.9420 N   0  0  0  0  0  0  0  0  0  0  0  0
  -23.5550  -31.9480   23.7190 O   0  0  0  0  0  0  0  0  0  0  0  0
  -22.7680  -29.4020   22.2350 C   0  0  0  0  0  0  0  0  0  0  0  0
  -21.4370  -29.2500   22.1660 N   0  0  0  0  0  0  0  0  0  0  0  0
  -23.4860  -28.6640   22.9140 O   0  0  0  0  0  0  0  0  0  0  0  0
  -20.9050  -29.9440   21.6540 H   0  0  0  0  0  0  0  0  0  0  0  0
  -18.0920  -27.9590   22.6290 C   0  0  0  0  0  0  0  0  0  0  0  0
  -20.6580  -28.1960   22.8040 C   0  0  0  0  0  3  0  0  0  0  0  0
  -20.7520  -26.8790   21.9900 C   0  0  0  0  0  2  0  0  0  0  0  0
  -19.5680  -26.6280   21.0570 C   0  0  0  0  0  2  0  0  0  0  0  0
  -18.2300  -26.7070   21.7830 C   0  0  0  0  0  2  0  0  0  0  0  0
  -19.2310  -28.6690   23.0900 C   0  0  0  0  0  0  0  0  0  0  0  0
  -19.0450  -29.8590   23.8260 C   0  0  0  0  0  3  0  0  0  0  0  0
  -17.7520  -30.3430   24.0940 C   0  0  0  0  0  3  0  0  0  0  0  0
  -16.6260  -29.6210   23.6580 C   0  0  0  0  0  3  0  0  0  0  0  0
  -16.7980  -28.4260   22.9370 C   0  0  0  0  0  3  0  0  0  0  0  0
  -25.9170  -32.3300   23.7750 C   0  0  0  0  0  3  0  0  0  0  0  0
  -25.6020  -33.6830   24.2490 N   0  0  0  0  0  0  0  0  0  0  0  0
  -25.9400  -34.8110   23.6090 C   0  0  0  0  0  0  0  0  0  0  0  0
  -26.6220  -34.8160   22.5790 O   0  0  0  0  0  0  0  0  0  0  0  0
  -24.9980  -33.7530   25.0550 H   0  0  0  0  0  0  0  0  0  0  0  0
  -24.2380  -36.6480   23.4020 C   0  0  0  0  0  1  0  0  0  0  0  0
  -25.4450  -36.1420   24.2070 C   0  0  0  0  0  3  0  0  0  0  0  0
  -27.5460  -36.9020   25.2230 C   0  0  0  0  0  1  0  0  0  0  0  0
  -26.4890  -37.1900   24.2560 N   0  0  0  0  0  0  0  0  0  0  0  0
  -26.0810  -38.0920   24.4870 H   0  0  0  0  0  0  0  0  0  0  0  0
  -26.4700  -31.4380   24.9540 C   0  0  1  0  0  0  0  0  0  0  0  0
  -25.4060  -31.0830   26.0180 C   0  0  0  0  0  1  0  0  0  0  0  0
  -27.0440  -30.1100   24.4110 C   0  0  0  0  0  1  0  0  0  0  0  0
  -27.6380  -32.1670   25.6570 C   0  0  0  0  0  1  0  0  0  0  0  0
  1  3  1  0
  2  1  2  0
  2  5  1  0
  3  8  1  0
  3  6  2  0
  4  9  1  0
  5 10  1  0
  5  4  2  0
  6  4  1  0
  6 49  1  0
  7  2  1  0
 10 19  1  0
 11 19  1  0
 12 17  1  0
 13 14  1  0
 13 12  1  0
 15 14  1  0
 15 24  1  0
 15 16  1  0
 17 11  1  0
 17 16  1  0
 18 11  2  0
 19 20  1  0
 21 22  2  0
 22 41  1  0
 23 22  1  0
 23 26  1  0
 24 21  1  0
 24 25  1  0
 25 23  2  0
 26 27  1  0
 27 28  2  0
 29 32  1  0
 29 28  1  0
 30 29  2  0
 31 30  1  0
 31 26  2  0
 32 33  1  0
 33 34  1  0
 34 35  2  0
 36 35  1  0
 36 40  1  0
 37 36  2  0
 38 33  2  0
 38 37  1  0
 39 38  1  0
 41 42  1  0
 42 45  1  0
 42 44  1  0
 43 41  2  0
 46 47  1  0
 46 21  1  0
 48 46  1  0
 50 53  1  0
 50 49  1  0
 51 50  1  0
 52 50  1  0
 54 55  1  0
 54 53  1  0
 55 57  1  0
 56 67  2  0
 57 62  1  0
 58 66  1  0
 58 68  1  0
 59 65  1  0
 59 61  1  0
 60 66  1  0
 61 60  1  0
 62 61  2  0
 63 64  1  0
 63 57  2  0
 64 59  2  0
 65 58  1  0
 66 56  1  0
 68 70  2  0
 69 68  1  0
 71 69  1  0
 72 81  2  0
 72 77  1  0
 73 69  1  0
 73 77  1  0
 74 73  1  0
 75 76  1  0
 75 74  1  0
 76 72  1  0
 77 78  2  0
 78 79  1  0
 80 79  2  0
 81 80  1  0
 82 56  1  0
 82 83  1  0
 82 92  1  0
 83 86  1  0
 84 88  1  0
 84 83  1  0
 85 84  2  0
 88 87  1  0
 88 90  1  0
 90 91  1  0
 90 89  1  0
 92 95  1  1
 92 93  1  0
 94 92  1  0
M  ISO  4  11 100  19 100  54 101  55 101
M  END
>  <TORSDO>  (86) 
F 21

>  <SCORE>  (86) 
-10.896

>  <name>  (86) 
85

>  <ligand_id>  (86) 
85

>  <original_smiles>  (86) 
[H]c1c([H])c([H])c2c(c1[H])C([H])([H])C([H])([H])C([H])([H])C2([H])N([H])C(=O)C1([H])N(C(=O)C([H])(N([H])C(=O)C([H])(N([H])C([H])([H])[H])C([H])([H])[H])C(C([H])([H])[H])(C([H])([H])[H])C([H])([H])[H])C([H])([H])c2c([H])c(OC([H])([H])C([H])([H])[N+]([H])([H])C([H])([H])c3c(C([H])([H])[H])c([H])c(C([H])([H])[H])c(C([H])([H])N([H])C(=O)N4C([H])([H])C([H])([H])C([H])([H])C([H])(n5nc(-c6c([H])c([H])c(Oc7c([H])c([H])c(F)c([H])c7F)c([H])c6[H])c(C(=O)N([H])[H])c5N([H])[H])C4([H])[H])c3C([H])([H])[H])c([H])c([H])c2C1([H])[H]

>  <smiles>  (86) 
[H]c1c([H])c([H])c2c(c1[H])C([H])([H])C([H])([H])C([H])([H])C2([H])N([H])C(=O)C1([H])N(C(=O)C([H])(N([H])C(=O)C([H])(N([H])C([H])([H])[H])C([H])([H])[H])C(C([H])([H])[H])(C([H])([H])[H])C([H])([H])[H])C([H])([H])c2c([H])c(OC([H])([H])C([H])([H])[N+]([H])([H])C([H])([H])c3c(C([H])([H])[H])c([H])c(C([H])([H])[H])c(C([H])([H])N([H])C(=O)N4C([H])([H])C([H])([H])C([H])([H])C([H])(n5nc(-c6c([H])c([H])c(Oc7c([H])c([H])c(F)c([H])c7F)c([H])c6[H])c(C(=O)N([H])[H])c5N([H])[H])C4([H])[H])c3C([H])([H])[H])c([H])c([H])c2C1([H])[H]

$$$$
86:0:0
     RDKit          3D

 93101  0  0  1  0  0  0  0  0999 V2000
  -29.1410  -20.8080   19.1640 C   0  0  0  0  0  3  0  0  0  0  0  0
  -29.4130  -19.7250   18.3110 C   0  0  0  0  0  3  0  0  0  0  0  0
  -30.2670  -18.3690   20.1800 C   0  0  0  0  0  0  0  0  0  0  0  0
  -29.4130  -20.7050   20.5380 C   0  0  0  0  0  0  0  0  0  0  0  0
  -29.9780  -18.5300   18.7990 C   0  0  0  0  0  0  0  0  0  0  0  0
  -29.9580  -19.4790   21.0440 C   0  0  0  0  0  0  0  0  0  0  0  0
  -30.3470  -17.3110   17.6320 Cl  0  0  0  0  0  0  0  0  0  0  0  0
  -30.2720  -19.3890   22.7470 Cl  0  0  0  0  0  0  0  0  0  0  0  0
  -29.1150  -21.8070   21.3800 N   0  0  0  0  0  0  0  0  0  0  0  0
  -29.1860  -21.5530   22.3630 H   0  0  0  0  0  0  0  0  0  0  0  0
  -29.7120  -23.1320   21.0980 C   0  0  0  0  0  2  0  0  0  0  0  0
  -28.7210  -24.2570   20.6400 C   0  0  0  0  0  2  0  0  0  0  0  0
  -29.1660  -25.7060   21.0360 C   0  0  0  0  0  2  0  0  0  0  0  0
  -28.8890  -26.7600   20.0920 O   0  0  0  0  0  0  0  0  0  0  0  0
  -24.7160  -31.7250   23.1590 C   0  0  0  0  0  0  0  0  0  0  0  0
  -27.6780  -27.4220   20.1580 C   0  0  0  0  0  0  0  0  0  0  0  0
  -23.6440  -30.3020   21.4410 C   0  0  0  0  0  3  0  0  0  0  0  0
  -25.2260  -28.8400   20.0700 C   0  0  0  0  0  0  0  0  0  0  0  0
  -26.1570  -30.7650   21.3620 C   0  0  0  0  0  2  0  0  0  0  0  0
  -26.3300  -29.3990   20.7240 C   0  0  0  0  0  0  0  0  0  0  0  0
  -27.5600  -28.6960   20.7690 C   0  0  0  0  0  3  0  0  0  0  0  0
  -26.5600  -26.8810   19.4940 C   0  0  0  0  0  3  0  0  0  0  0  0
  -25.3360  -27.5800   19.4520 C   0  0  0  0  0  3  0  0  0  0  0  0
  -23.9440  -29.6460   20.0650 C   0  0  0  0  0  2  0  0  0  0  0  0
  -24.8540  -30.9450   22.0480 N   0  0  0  0  0  0  0  0  0  0  0  0
  -23.6010  -31.9420   23.6540 O   0  0  0  0  0  0  0  0  0  0  0  0
  -22.9920  -29.2410   22.3590 C   0  0  0  0  0  0  0  0  0  0  0  0
  -21.6740  -29.0360   22.1970 N   0  0  0  0  0  0  0  0  0  0  0  0
  -23.6700  -28.6040   23.1700 O   0  0  0  0  0  0  0  0  0  0  0  0
  -21.1880  -29.6010   21.5130 H   0  0  0  0  0  0  0  0  0  0  0  0
  -18.3100  -27.7840   22.6020 C   0  0  0  0  0  0  0  0  0  0  0  0
  -20.8600  -28.0600   22.9200 C   0  0  0  0  0  3  0  0  0  0  0  0
  -20.9880  -26.6550   22.2900 C   0  0  0  0  0  2  0  0  0  0  0  0
  -19.9050  -26.3590   21.2480 C   0  0  0  0  0  2  0  0  0  0  0  0
  -18.5130  -26.4640   21.8760 C   0  0  0  0  0  2  0  0  0  0  0  0
  -19.4140  -28.5410   23.0760 C   0  0  0  0  0  0  0  0  0  0  0  0
  -19.1720  -29.7780   23.7120 C   0  0  0  0  0  3  0  0  0  0  0  0
  -17.8590  -30.2580   23.8790 C   0  0  0  0  0  3  0  0  0  0  0  0
  -16.7700  -29.4970   23.4220 C   0  0  0  0  0  3  0  0  0  0  0  0
  -16.9960  -28.2620   22.7890 C   0  0  0  0  0  3  0  0  0  0  0  0
  -25.9460  -32.3970   23.8450 C   0  0  0  0  0  3  0  0  0  0  0  0
  -25.5740  -33.7810   24.1690 N   0  0  0  0  0  0  0  0  0  0  0  0
  -25.8930  -34.8480   23.4250 C   0  0  0  0  0  0  0  0  0  0  0  0
  -26.6030  -34.7760   22.4180 O   0  0  0  0  0  0  0  0  0  0  0  0
  -24.9530  -33.9120   24.9540 H   0  0  0  0  0  0  0  0  0  0  0  0
  -24.1060  -36.5690   23.0130 C   0  0  0  0  0  1  0  0  0  0  0  0
  -25.3340  -36.2150   23.8660 C   0  0  0  0  0  3  0  0  0  0  0  0
  -27.3960  -37.1820   24.7790 C   0  0  0  0  0  1  0  0  0  0  0  0
  -26.3260  -37.3100   23.7940 N   0  0  0  0  0  0  0  0  0  0  0  0
  -25.8760  -38.2120   23.9340 H   0  0  0  0  0  0  0  0  0  0  0  0
  -26.4330  -31.6330   25.1370 C   0  0  1  0  0  0  0  0  0  0  0  0
  -25.3020  -31.3440   26.1530 C   0  0  0  0  0  1  0  0  0  0  0  0
  -27.0810  -30.2820   24.7570 C   0  0  0  0  0  1  0  0  0  0  0  0
  -27.5260  -32.4580   25.8540 C   0  0  0  0  0  1  0  0  0  0  0  0
  -31.0400  -17.1110   20.6970 C   0  0  0  0  0  2  0  0  0  0  0  0
  -31.3070  -14.6500   20.0150 C   0  0  0  0  0  0  0  0  0  0  0  0
  -30.9870  -12.4010   19.0140 C   0  0  0  0  0  2  0  0  0  0  0  0
  -30.0190  -12.5210   17.8180 C   0  0  0  0  0  2  0  0  0  0  0  0
  -28.5470  -12.4630   18.2800 C   0  0  0  0  0  2  0  0  0  0  0  0
  -28.2590  -13.3790   19.5000 C   0  0  0  0  0  3  0  0  0  0  0  0
  -29.3320  -13.2040   20.5930 C   0  0  0  0  0  2  0  0  0  0  0  0
  -30.6350  -13.4650   19.9700 N   0  0  0  0  0  0  0  0  0  0  0  0
  -32.4700  -14.7580   19.6150 O   0  0  0  0  0  0  0  0  0  0  0  0
  -30.5690  -15.7300   20.3890 N   0  0  0  0  0  0  0  0  0  0  0  0
  -29.6070  -15.5330   20.6240 H   0  0  0  0  0  0  0  0  0  0  0  0
  -25.9560  -14.1210   20.3670 C   0  0  0  0  0  0  0  0  0  0  0  0
  -24.8470  -13.4100   20.7420 C   0  0  0  0  0  0  0  0  0  0  0  0
  -25.1940  -12.0320   20.6000 C   0  0  0  0  0  0  0  0  0  0  0  0
  -26.9130  -13.1770   20.0270 N   0  0  0  0  0  0  0  0  0  0  0  0
  -26.4630  -11.9120   20.2250 N   0  0  0  0  0  0  0  0  0  0  0  0
  -24.3780  -10.8210   20.7400 C   0  0  0  0  0  0  0  0  0  0  0  0
  -24.7350   -9.7900   21.6350 C   0  0  0  0  0  3  0  0  0  0  0  0
  -23.9220   -8.6430   21.7660 C   0  0  0  0  0  3  0  0  0  0  0  0
  -22.7360   -8.5220   21.0030 C   0  0  0  0  0  0  0  0  0  0  0  0
  -22.3970   -9.5430   20.0980 C   0  0  0  0  0  3  0  0  0  0  0  0
  -23.2100  -10.6800   19.9640 C   0  0  0  0  0  3  0  0  0  0  0  0
  -21.8980   -7.4340   21.0480 O   0  0  0  0  0  0  0  0  0  0  0  0
  -21.7330   -6.6980   22.1940 C   0  0  0  0  0  0  0  0  0  0  0  0
  -21.2510   -7.2780   23.3880 C   0  0  0  0  0  3  0  0  0  0  0  0
  -21.0290   -6.4700   24.5220 C   0  0  0  0  0  3  0  0  0  0  0  0
  -21.2790   -5.0870   24.4630 C   0  0  0  0  0  0  0  0  0  0  0  0
  -21.7560   -4.5080   23.2740 C   0  0  0  0  0  3  0  0  0  0  0  0
  -21.9770   -5.3110   22.1420 C   0  0  0  0  0  0  0  0  0  0  0  0
  -22.4150   -4.7440   20.9910 F   0  0  0  0  0  0  0  0  0  0  0  0
  -21.0610   -4.3100   25.5510 F   0  0  0  0  0  0  0  0  0  0  0  0
  -23.5080  -13.9760   21.1140 C   0  0  0  0  0  0  0  0  0  0  0  0
  -22.7750  -13.2950   21.9880 N   0  0  0  0  0  0  0  0  0  0  0  0
  -23.1240  -15.0550   20.6640 O   0  0  0  0  0  0  0  0  0  0  0  0
  -23.0980  -12.4210   22.3780 H   0  0  0  0  0  0  0  0  0  0  0  0
  -21.8740  -13.6530   22.2730 H   0  0  0  0  0  0  0  0  0  0  0  0
  -26.2220  -15.4840   20.2640 N   0  0  0  0  0  0  0  0  0  0  0  0
  -25.5020  -16.1800   20.4320 H   0  0  0  0  0  0  0  0  0  0  0  0
  -27.0630  -15.8760   19.8630 H   0  0  0  0  0  0  0  0  0  0  0  0
  1  4  1  0
  2  5  1  0
  2  1  2  0
  3 55  1  0
  3  6  1  0
  4  6  2  0
  4  9  1  0
  5  3  2  0
  6  8  1  0
  7  5  1  0
  9 10  1  0
 11  9  1  0
 12 13  1  0
 12 11  1  0
 14 16  1  0
 14 13  1  0
 15 26  2  0
 16 21  1  0
 17 25  1  0
 17 27  1  0
 18 20  1  0
 19 25  1  0
 20 21  2  0
 20 19  1  0
 22 16  2  0
 23 22  1  0
 23 18  2  0
 24 18  1  0
 24 17  1  0
 25 15  1  0
 27 29  2  0
 28 27  1  0
 30 28  1  0
 31 40  2  0
 31 36  1  0
 32 28  1  0
 32 36  1  0
 33 32  1  0
 34 35  1  0
 34 33  1  0
 35 31  1  0
 36 37  2  0
 37 38  1  0
 39 38  2  0
 40 39  1  0
 41 15  1  0
 41 42  1  0
 41 51  1  0
 42 45  1  0
 43 47  1  0
 43 42  1  0
 44 43  2  0
 47 46  1  0
 49 47  1  0
 49 50  1  0
 49 48  1  0
 51 54  1  1
 51 52  1  0
 53 51  1  0
 56 64  1  0
 57 62  1  0
 58 59  1  0
 58 57  1  0
 60 59  1  0
 60 69  1  0
 60 61  1  0
 62 56  1  0
 62 61  1  0
 63 56  2  0
 64 65  1  0
 64 55  1  0
 66 67  2  0
 67 86  1  0
 68 71  1  0
 68 67  1  0
 69 70  1  0
 69 66  1  0
 70 68  2  0
 71 72  1  0
 72 73  2  0
 74 77  1  0
 74 73  1  0
 75 74  2  0
 76 75  1  0
 76 71  2  0
 77 78  1  0
 78 79  1  0
 79 80  2  0
 81 80  1  0
 81 85  1  0
 82 81  2  0
 83 78  2  0
 83 82  1  0
 84 83  1  0
 86 87  1  0
 87 90  1  0
 87 89  1  0
 88 86  2  0
 91 66  1  0
 91 92  1  0
 93 91  1  0
M  ISO  4  13 101  14 101  56 100  64 100
M  END
>  <TORSDO>  (87) 
F 21

>  <SCORE>  (87) 
-11.949

>  <name>  (87) 
86

>  <ligand_id>  (87) 
86

>  <original_smiles>  (87) 
[H]c1c([H])c([H])c2c(c1[H])C([H])([H])C([H])([H])C([H])([H])C2([H])N([H])C(=O)C1([H])N(C(=O)C([H])(N([H])C(=O)C([H])(N([H])C([H])([H])[H])C([H])([H])[H])C(C([H])([H])[H])(C([H])([H])[H])C([H])([H])[H])C([H])([H])c2c([H])c(OC([H])([H])C([H])([H])C([H])([H])N([H])c3c([H])c([H])c(Cl)c(C([H])([H])N([H])C(=O)N4C([H])([H])C([H])([H])C([H])([H])C([H])(n5nc(-c6c([H])c([H])c(Oc7c([H])c([H])c(F)c([H])c7F)c([H])c6[H])c(C(=O)N([H])[H])c5N([H])[H])C4([H])[H])c3Cl)c([H])c([H])c2C1([H])[H]

>  <smiles>  (87) 
[H]c1c([H])c([H])c2c(c1[H])C([H])([H])C([H])([H])C([H])([H])C2([H])N([H])C(=O)C1([H])N(C(=O)C([H])(N([H])C(=O)C([H])(N([H])C([H])([H])[H])C([H])([H])[H])C(C([H])([H])[H])(C([H])([H])[H])C([H])([H])[H])C([H])([H])c2c([H])c(OC([H])([H])C([H])([H])C([H])([H])N([H])c3c([H])c([H])c(Cl)c(C([H])([H])N([H])C(=O)N4C([H])([H])C([H])([H])C([H])([H])C([H])(n5nc(-c6c([H])c([H])c(Oc7c([H])c([H])c(F)c([H])c7F)c([H])c6[H])c(C(=O)N([H])[H])c5N([H])[H])C4([H])[H])c3Cl)c([H])c([H])c2C1([H])[H]

$$$$
87:0:0
     RDKit          3D

 98107  0  0  1  0  0  0  0  0999 V2000
  -31.5410  -22.3360   18.5680 C   0  0  0  0  0  2  0  0  0  0  0  0
  -30.6330  -23.3960   17.8990 C   0  0  0  0  0  2  0  0  0  0  0  0
  -31.9220  -22.6510   20.0320 C   0  0  0  0  0  2  0  0  0  0  0  0
  -29.2140  -23.5940   18.4850 C   0  0  0  0  0  2  0  0  0  0  0  0
  -30.8880  -22.3440   21.1530 C   0  0  0  0  0  2  0  0  0  0  0  0
  -29.1940  -23.7970   20.0140 C   0  0  0  0  0  3  0  0  0  0  0  0
  -29.4470  -22.4480   20.7690 N   0  0  1  0  0  4  0  0  0  0  0  0
  -28.9660  -22.5490   21.6510 H   0  0  0  0  0  0  0  0  0  0  0  0
  -28.9280  -21.0690   20.2640 C   0  0  0  0  0  2  0  0  0  0  0  0
  -29.5460  -18.4270   20.4170 C   0  0  0  0  0  3  0  0  0  0  0  0
  -29.2340  -19.6970   21.0660 C   0  0  0  0  0  0  0  0  0  0  0  0
  -29.0810  -19.6370   22.4810 C   0  0  0  0  0  0  0  0  0  0  0  0
  -29.3560  -18.4370   23.2050 C   0  0  0  0  0  0  0  0  0  0  0  0
  -29.7500  -17.1690   21.1230 C   0  0  0  0  0  0  0  0  0  0  0  0
  -29.6880  -17.2250   22.5380 C   0  0  0  0  0  0  0  0  0  0  0  0
  -28.5460  -20.8590   23.2310 C   0  0  0  0  0  1  0  0  0  0  0  0
  -29.1980  -18.4160   24.7270 C   0  0  0  0  0  1  0  0  0  0  0  0
  -29.8940  -15.7670   23.4640 Cl  0  0  0  0  0  0  0  0  0  0  0  0
  -30.5830  -14.7440   20.4840 C   0  0  0  0  0  0  0  0  0  0  0  0
  -30.4460  -12.4610   19.4660 C   0  0  0  0  0  2  0  0  0  0  0  0
  -29.5080  -12.4820   18.2380 C   0  0  0  0  0  2  0  0  0  0  0  0
  -28.0390  -12.2960   18.6660 C   0  0  0  0  0  2  0  0  0  0  0  0
  -27.6380  -13.2150   19.8480 C   0  0  0  0  0  3  0  0  0  0  0  0
  -28.6830  -13.1540   20.9800 C   0  0  0  0  0  2  0  0  0  0  0  0
  -29.9810  -13.5120   20.3920 N   0  0  0  0  0  0  0  0  0  0  0  0
  -31.7870  -14.8750   20.2450 O   0  0  0  0  0  0  0  0  0  0  0  0
  -29.7230  -15.8310   20.4850 N   0  0  0  0  0  0  0  0  0  0  0  0
  -28.7800  -15.5090   20.3450 H   0  0  0  0  0  0  0  0  0  0  0  0
  -25.2520  -13.8160   20.5730 C   0  0  0  0  0  0  0  0  0  0  0  0
  -24.1800  -13.0420   20.9230 C   0  0  0  0  0  0  0  0  0  0  0  0
  -24.6360  -11.6890   20.8760 C   0  0  0  0  0  0  0  0  0  0  0  0
  -26.2920  -12.9320   20.3290 N   0  0  0  0  0  0  0  0  0  0  0  0
  -25.9280  -11.6480   20.5770 N   0  0  0  0  0  0  0  0  0  0  0  0
  -23.9040  -10.4280   21.0410 C   0  0  0  0  0  0  0  0  0  0  0  0
  -24.3590   -9.4200   21.9190 C   0  0  0  0  0  3  0  0  0  0  0  0
  -23.6270   -8.2230   22.0750 C   0  0  0  0  0  3  0  0  0  0  0  0
  -22.4260   -8.0260   21.3530 C   0  0  0  0  0  0  0  0  0  0  0  0
  -21.9900   -9.0240   20.4640 C   0  0  0  0  0  3  0  0  0  0  0  0
  -22.7210  -10.2120   20.3050 C   0  0  0  0  0  3  0  0  0  0  0  0
  -21.6640   -6.8850   21.4210 O   0  0  0  0  0  0  0  0  0  0  0  0
  -21.6850   -6.0720   22.5250 C   0  0  0  0  0  0  0  0  0  0  0  0
  -21.4020   -6.5630   23.8180 C   0  0  0  0  0  3  0  0  0  0  0  0
  -21.3660   -5.6780   24.9150 C   0  0  0  0  0  3  0  0  0  0  0  0
  -21.6050   -4.3040   24.7200 C   0  0  0  0  0  0  0  0  0  0  0  0
  -21.8830   -3.8130   23.4320 C   0  0  0  0  0  3  0  0  0  0  0  0
  -21.9200   -4.6950   22.3380 C   0  0  0  0  0  0  0  0  0  0  0  0
  -22.1670   -4.2130   21.0960 F   0  0  0  0  0  0  0  0  0  0  0  0
  -21.5630   -3.4540   25.7720 F   0  0  0  0  0  0  0  0  0  0  0  0
  -22.7820  -13.5210   21.1900 C   0  0  0  0  0  0  0  0  0  0  0  0
  -22.0480  -12.8170   22.0440 N   0  0  0  0  0  0  0  0  0  0  0  0
  -22.3520  -14.5530   20.6770 O   0  0  0  0  0  0  0  0  0  0  0  0
  -22.4100  -11.9780   22.4730 H   0  0  0  0  0  0  0  0  0  0  0  0
  -21.1110  -13.1180   22.2690 H   0  0  0  0  0  0  0  0  0  0  0  0
  -25.4280  -15.1880   20.4180 N   0  0  0  0  0  0  0  0  0  0  0  0
  -24.6680  -15.8490   20.5460 H   0  0  0  0  0  0  0  0  0  0  0  0
  -26.2770  -15.6270   20.0900 H   0  0  0  0  0  0  0  0  0  0  0  0
  -28.0960  -24.8830   20.5140 C   0  0  0  0  0  2  0  0  0  0  0  0
  -28.3090  -26.3480   20.1890 O   0  0  0  0  0  0  0  0  0  0  0  0
  -24.6300  -31.8530   23.1980 C   0  0  0  0  0  0  0  0  0  0  0  0
  -27.2130  -27.2440   20.1570 C   0  0  0  0  0  0  0  0  0  0  0  0
  -23.4290  -30.4740   21.5370 C   0  0  0  0  0  3  0  0  0  0  0  0
  -24.8800  -28.9200   20.1120 C   0  0  0  0  0  0  0  0  0  0  0  0
  -25.9740  -30.7670   21.3760 C   0  0  0  0  0  2  0  0  0  0  0  0
  -26.0490  -29.3820   20.7290 C   0  0  0  0  0  0  0  0  0  0  0  0
  -27.2200  -28.5570   20.7380 C   0  0  0  0  0  3  0  0  0  0  0  0
  -26.0250  -26.8520   19.5040 C   0  0  0  0  0  3  0  0  0  0  0  0
  -24.8750  -27.6650   19.4830 C   0  0  0  0  0  3  0  0  0  0  0  0
  -23.6550  -29.8110   20.1520 C   0  0  0  0  0  2  0  0  0  0  0  0
  -24.6970  -31.0490   22.0950 N   0  0  0  0  0  0  0  0  0  0  0  0
  -23.5450  -32.1320   23.7260 O   0  0  0  0  0  0  0  0  0  0  0  0
  -22.7530  -29.4540   22.4870 C   0  0  0  0  0  0  0  0  0  0  0  0
  -21.4230  -29.3050   22.3670 N   0  0  0  0  0  0  0  0  0  0  0  0
  -23.4240  -28.8060   23.2930 O   0  0  0  0  0  0  0  0  0  0  0  0
  -20.9420  -29.8860   21.6950 H   0  0  0  0  0  0  0  0  0  0  0  0
  -18.0290  -28.1410   22.8440 C   0  0  0  0  0  0  0  0  0  0  0  0
  -20.5900  -28.3700   23.1270 C   0  0  0  0  0  3  0  0  0  0  0  0
  -20.6770  -26.9430   22.5390 C   0  0  0  0  0  2  0  0  0  0  0  0
  -19.5740  -26.6410   21.5200 C   0  0  0  0  0  2  0  0  0  0  0  0
  -18.1920  -26.7940   22.1610 C   0  0  0  0  0  2  0  0  0  0  0  0
  -19.1540  -28.8870   23.2850 C   0  0  0  0  0  0  0  0  0  0  0  0
  -18.9500  -30.1470   23.8880 C   0  0  0  0  0  3  0  0  0  0  0  0
  -17.6500  -30.6610   24.0570 C   0  0  0  0  0  3  0  0  0  0  0  0
  -16.5380  -29.9120   23.6350 C   0  0  0  0  0  3  0  0  0  0  0  0
  -16.7270  -28.6550   23.0330 C   0  0  0  0  0  3  0  0  0  0  0  0
  -25.9120  -32.4750   23.8320 C   0  0  0  0  0  3  0  0  0  0  0  0
  -26.4500  -31.6570   25.0710 C   0  0  1  0  0  0  0  0  0  0  0  0
  -25.3720  -31.3750   26.1430 C   0  0  0  0  0  1  0  0  0  0  0  0
  -27.0370  -30.3010   24.6160 C   0  0  0  0  0  1  0  0  0  0  0  0
  -27.6070  -32.4310   25.7470 C   0  0  0  0  0  1  0  0  0  0  0  0
  -25.5920  -33.8550   24.2260 N   0  0  0  0  0  0  0  0  0  0  0  0
  -25.9040  -34.9430   23.5100 C   0  0  0  0  0  0  0  0  0  0  0  0
  -26.5620  -34.8920   22.4690 O   0  0  0  0  0  0  0  0  0  0  0  0
  -25.0040  -33.9690   25.0390 H   0  0  0  0  0  0  0  0  0  0  0  0
  -24.1470  -36.7280   23.2650 C   0  0  0  0  0  1  0  0  0  0  0  0
  -25.4090  -36.3070   24.0340 C   0  0  0  0  0  3  0  0  0  0  0  0
  -27.5550  -37.1790   24.8480 C   0  0  0  0  0  1  0  0  0  0  0  0
  -26.4260  -37.3770   23.9420 N   0  0  0  0  0  0  0  0  0  0  0  0
  -26.0150  -38.2830   24.1490 H   0  0  0  0  0  0  0  0  0  0  0  0
  1  3  1  0
  2  4  1  0
  2  1  1  0
  3  5  1  0
  4  6  1  0
  6 57  1  0
  6  7  1  0
  7  5  1  0
  7  8  1  1
  9  7  1  0
  9 11  1  0
 10 11  2  0
 10 14  1  0
 11 12  1  0
 12 13  2  0
 12 16  1  0
 13 17  1  0
 14 15  2  0
 15 13  1  0
 15 18  1  0
 19 27  1  0
 20 25  1  0
 21 22  1  0
 21 20  1  0
 23 22  1  0
 23 32  1  0
 23 24  1  0
 25 19  1  0
 25 24  1  0
 26 19  2  0
 27 14  1  0
 28 27  1  0
 29 30  2  0
 30 49  1  0
 31 30  1  0
 31 34  1  0
 32 29  1  0
 32 33  1  0
 33 31  2  0
 34 35  1  0
 35 36  2  0
 37 40  1  0
 37 36  1  0
 38 37  2  0
 39 38  1  0
 39 34  2  0
 40 41  1  0
 41 42  1  0
 42 43  2  0
 44 43  1  0
 44 48  1  0
 45 44  2  0
 46 41  2  0
 46 45  1  0
 47 46  1  0
 49 50  1  0
 50 53  1  0
 50 52  1  0
 51 49  2  0
 54 55  1  0
 54 29  1  0
 56 54  1  0
 58 57  1  0
 59 70  2  0
 60 58  1  0
 60 65  1  0
 61 69  1  0
 61 71  1  0
 62 68  1  0
 62 64  1  0
 63 69  1  0
 64 65  2  0
 64 63  1  0
 66 60  2  0
 67 66  1  0
 67 62  2  0
 68 61  1  0
 69 59  1  0
 71 73  2  0
 72 71  1  0
 74 72  1  0
 75 84  2  0
 75 80  1  0
 76 72  1  0
 76 80  1  0
 77 76  1  0
 78 79  1  0
 78 77  1  0
 79 75  1  0
 80 81  2  0
 81 82  1  0
 83 82  2  0
 84 83  1  0
 85 59  1  0
 85 90  1  0
 85 86  1  0
 86 89  1  1
 86 87  1  0
 88 86  1  0
 90 93  1  0
 91 95  1  0
 91 90  1  0
 92 91  2  0
 95 94  1  0
 97 95  1  0
 97 98  1  0
 97 96  1  0
M  ISO  4  19 100  27 100  57 101  58 101
M  END
>  <TORSDO>  (88) 
F 19

>  <SCORE>  (88) 
1.624

>  <name>  (88) 
87

>  <ligand_id>  (88) 
87

>  <original_smiles>  (88) 
[H]c1c([H])c([H])c2c(c1[H])C([H])([H])C([H])([H])C([H])([H])C2([H])N([H])C(=O)C1([H])N(C(=O)C([H])(N([H])C(=O)C([H])(N([H])C([H])([H])[H])C([H])([H])[H])C(C([H])([H])[H])(C([H])([H])[H])C([H])([H])[H])C([H])([H])c2c([H])c(OC([H])([H])C3([H])C([H])([H])C([H])([H])C([H])([H])C([H])([H])C([H])([H])[N+]3([H])C([H])([H])c3c([H])c(N([H])C(=O)N4C([H])([H])C([H])([H])C([H])([H])C([H])(n5nc(-c6c([H])c([H])c(Oc7c([H])c([H])c(F)c([H])c7F)c([H])c6[H])c(C(=O)N([H])[H])c5N([H])[H])C4([H])[H])c(Cl)c(C([H])([H])[H])c3C([H])([H])[H])c([H])c([H])c2C1([H])[H]

>  <smiles>  (88) 
[H]c1c([H])c([H])c2c(c1[H])C([H])([H])C([H])([H])C([H])([H])C2([H])N([H])C(=O)C1([H])N(C(=O)C([H])(N([H])C(=O)C([H])(N([H])C([H])([H])[H])C([H])([H])[H])C(C([H])([H])[H])(C([H])([H])[H])C([H])([H])[H])C([H])([H])c2c([H])c(OC([H])([H])C3([H])C([H])([H])C([H])([H])C([H])([H])C([H])([H])C([H])([H])[N+]3([H])C([H])([H])c3c([H])c(N([H])C(=O)N4C([H])([H])C([H])([H])C([H])([H])C([H])(n5nc(-c6c([H])c([H])c(Oc7c([H])c([H])c(F)c([H])c7F)c([H])c6[H])c(C(=O)N([H])[H])c5N([H])[H])C4([H])[H])c(Cl)c(C([H])([H])[H])c3C([H])([H])[H])c([H])c([H])c2C1([H])[H]

$$$$
88:0:0
     RDKit          3D

 97105  0  0  1  0  0  0  0  0999 V2000
  -28.4630  -21.9440   20.2570 C   0  0  0  0  0  3  0  0  0  0  0  0
  -28.6460  -24.2260   19.2480 C   0  0  0  0  0  0  0  0  0  0  0  0
  -27.5350  -20.7910   20.5270 C   0  0  0  0  0  1  0  0  0  0  0  0
  -27.9600  -23.0000   19.5540 N   0  0  0  0  0  0  0  0  0  0  0  0
  -29.7370  -21.8910   20.7260 N   0  0  0  0  0  0  0  0  0  0  0  0
  -29.7940  -24.4460   19.6550 O   0  0  0  0  0  0  0  0  0  0  0  0
  -27.0150  -22.8660   19.2320 H   0  0  0  0  0  0  0  0  0  0  0  0
  -30.3230  -22.7000   20.5440 H   0  0  0  0  0  0  0  0  0  0  0  0
  -30.3540  -20.8460   21.5770 C   0  0  0  0  0  2  0  0  0  0  0  0
  -30.8300  -19.3910   19.5240 C   0  0  0  0  0  3  0  0  0  0  0  0
  -31.0000  -17.0700   21.0970 C   0  0  0  0  0  3  0  0  0  0  0  0
  -31.0590  -18.1400   18.9100 C   0  0  0  0  0  0  0  0  0  0  0  0
  -30.6460  -19.4920   20.9200 C   0  0  0  0  0  0  0  0  0  0  0  0
  -31.1450  -16.9650   19.7000 C   0  0  0  0  0  0  0  0  0  0  0  0
  -30.7520  -18.3190   21.7060 C   0  0  0  0  0  0  0  0  0  0  0  0
  -31.1890  -18.0840   17.3980 C   0  0  0  0  0  1  0  0  0  0  0  0
  -30.5570  -18.3720   23.4230 Cl  0  0  0  0  0  0  0  0  0  0  0  0
  -31.9700  -14.6410   19.4200 C   0  0  0  0  0  0  0  0  0  0  0  0
  -31.4580  -12.3800   18.6080 C   0  0  0  0  0  2  0  0  0  0  0  0
  -30.4010  -12.5270   17.4930 C   0  0  0  0  0  2  0  0  0  0  0  0
  -28.9770  -12.5410   18.0880 C   0  0  0  0  0  2  0  0  0  0  0  0
  -28.8270  -13.5350   19.2720 C   0  0  0  0  0  3  0  0  0  0  0  0
  -29.9910  -13.3730   20.2810 C   0  0  0  0  0  2  0  0  0  0  0  0
  -31.2510  -13.4980   19.5370 N   0  0  0  0  0  0  0  0  0  0  0  0
  -33.1420  -14.6650   19.0370 O   0  0  0  0  0  0  0  0  0  0  0  0
  -31.1910  -15.6840   19.0850 N   0  0  0  0  0  0  0  0  0  0  0  0
  -31.1400  -15.7400   18.0790 H   0  0  0  0  0  0  0  0  0  0  0  0
  -26.6910  -14.4130   20.4020 C   0  0  0  0  0  0  0  0  0  0  0  0
  -25.5570  -13.7760   20.8320 C   0  0  0  0  0  0  0  0  0  0  0  0
  -25.7670  -12.3860   20.5780 C   0  0  0  0  0  0  0  0  0  0  0  0
  -27.5250  -13.4160   19.9190 N   0  0  0  0  0  0  0  0  0  0  0  0
  -26.9810  -12.1840   20.0820 N   0  0  0  0  0  0  0  0  0  0  0  0
  -24.8620  -11.2410   20.7240 C   0  0  0  0  0  0  0  0  0  0  0  0
  -25.1850  -10.1480   21.5580 C   0  0  0  0  0  3  0  0  0  0  0  0
  -24.2920   -9.0650   21.6960 C   0  0  0  0  0  3  0  0  0  0  0  0
  -23.0610   -9.0670   20.9970 C   0  0  0  0  0  0  0  0  0  0  0  0
  -22.7570  -10.1450   20.1480 C   0  0  0  0  0  3  0  0  0  0  0  0
  -23.6490  -11.2210   20.0080 C   0  0  0  0  0  3  0  0  0  0  0  0
  -22.1440   -8.0440   21.0490 O   0  0  0  0  0  0  0  0  0  0  0  0
  -21.9490   -7.3090   22.1900 C   0  0  0  0  0  0  0  0  0  0  0  0
  -21.5870   -7.9140   23.4140 C   0  0  0  0  0  3  0  0  0  0  0  0
  -21.3290   -7.1150   24.5460 C   0  0  0  0  0  3  0  0  0  0  0  0
  -21.4250   -5.7130   24.4550 C   0  0  0  0  0  0  0  0  0  0  0  0
  -21.7800   -5.1090   23.2360 C   0  0  0  0  0  3  0  0  0  0  0  0
  -22.0400   -5.9050   22.1080 C   0  0  0  0  0  0  0  0  0  0  0  0
  -22.3610   -5.3170   20.9310 F   0  0  0  0  0  0  0  0  0  0  0  0
  -21.1700   -4.9460   25.5400 F   0  0  0  0  0  0  0  0  0  0  0  0
  -24.3110  -14.4240   21.3620 C   0  0  0  0  0  0  0  0  0  0  0  0
  -23.6140  -13.7540   22.2730 N   0  0  0  0  0  0  0  0  0  0  0  0
  -23.9770  -15.5540   21.0050 O   0  0  0  0  0  0  0  0  0  0  0  0
  -23.9000  -12.8350   22.5760 H   0  0  0  0  0  0  0  0  0  0  0  0
  -22.7830  -14.1660   22.6720 H   0  0  0  0  0  0  0  0  0  0  0  0
  -27.0790  -15.7490   20.3620 N   0  0  0  0  0  0  0  0  0  0  0  0
  -26.4830  -16.5100   20.6650 H   0  0  0  0  0  0  0  0  0  0  0  0
  -27.9650  -16.0660   19.9840 H   0  0  0  0  0  0  0  0  0  0  0  0
  -27.8690  -25.2250   18.3720 C   0  0  0  0  0  2  0  0  0  0  0  0
  -27.8760  -26.5400   18.9530 O   0  0  0  0  0  0  0  0  0  0  0  0
  -24.6980  -31.4970   22.9360 C   0  0  0  0  0  0  0  0  0  0  0  0
  -26.7060  -27.2440   19.1670 C   0  0  0  0  0  0  0  0  0  0  0  0
  -23.2220  -30.2920   21.3590 C   0  0  0  0  0  3  0  0  0  0  0  0
  -24.4000  -28.8230   19.6410 C   0  0  0  0  0  0  0  0  0  0  0  0
  -25.7180  -30.5660   20.8620 C   0  0  0  0  0  2  0  0  0  0  0  0
  -25.6480  -29.2540   20.1040 C   0  0  0  0  0  0  0  0  0  0  0  0
  -26.7980  -28.4720   19.8620 C   0  0  0  0  0  3  0  0  0  0  0  0
  -25.4290  -26.8120   18.7320 C   0  0  0  0  0  3  0  0  0  0  0  0
  -24.2830  -27.5990   18.9600 C   0  0  0  0  0  3  0  0  0  0  0  0
  -23.2170  -29.7230   19.9160 C   0  0  0  0  0  2  0  0  0  0  0  0
  -24.5720  -30.7950   21.7740 N   0  0  0  0  0  0  0  0  0  0  0  0
  -23.7100  -31.7630   23.6350 O   0  0  0  0  0  0  0  0  0  0  0  0
  -22.6470  -29.2200   22.3110 C   0  0  0  0  0  0  0  0  0  0  0  0
  -21.3270  -28.9900   22.2240 N   0  0  0  0  0  0  0  0  0  0  0  0
  -23.3840  -28.5960   23.0790 O   0  0  0  0  0  0  0  0  0  0  0  0
  -20.7930  -29.5450   21.5690 H   0  0  0  0  0  0  0  0  0  0  0  0
  -18.0560  -27.5200   22.6630 C   0  0  0  0  0  0  0  0  0  0  0  0
  -20.5750  -28.0000   22.9930 C   0  0  0  0  0  3  0  0  0  0  0  0
  -20.8130  -26.5740   22.4450 C   0  0  0  0  0  2  0  0  0  0  0  0
  -19.7700  -26.1410   21.4100 C   0  0  0  0  0  2  0  0  0  0  0  0
  -18.3650  -26.1790   22.0170 C   0  0  0  0  0  2  0  0  0  0  0  0
  -19.0940  -28.3820   23.1060 C   0  0  0  0  0  0  0  0  0  0  0  0
  -18.7540  -29.6330   23.6660 C   0  0  0  0  0  3  0  0  0  0  0  0
  -17.4080  -30.0240   23.7890 C   0  0  0  0  0  3  0  0  0  0  0  0
  -16.3840  -29.1600   23.3650 C   0  0  0  0  0  3  0  0  0  0  0  0
  -16.7090  -27.9100   22.8080 C   0  0  0  0  0  3  0  0  0  0  0  0
  -26.0820  -32.0170   23.4330 C   0  0  0  0  0  3  0  0  0  0  0  0
  -26.7630  -31.0640   24.4910 C   0  0  1  0  0  0  0  0  0  0  0  0
  -25.8360  -30.6790   25.6680 C   0  0  0  0  0  1  0  0  0  0  0  0
  -27.2420  -29.7560   23.8220 C   0  0  0  0  0  1  0  0  0  0  0  0
  -28.0230  -31.7470   25.0770 C   0  0  0  0  0  1  0  0  0  0  0  0
  -25.8740  -33.3570   23.9990 N   0  0  0  0  0  0  0  0  0  0  0  0
  -26.1660  -34.5010   23.3690 C   0  0  0  0  0  0  0  0  0  0  0  0
  -26.7130  -34.5370   22.2630 O   0  0  0  0  0  0  0  0  0  0  0  0
  -25.3710  -33.4060   24.8740 H   0  0  0  0  0  0  0  0  0  0  0  0
  -24.4960  -36.3780   23.4660 C   0  0  0  0  0  1  0  0  0  0  0  0
  -25.7900  -35.8170   24.0760 C   0  0  0  0  0  3  0  0  0  0  0  0
  -28.0360  -36.4950   24.8030 C   0  0  0  0  0  1  0  0  0  0  0  0
  -26.8550  -36.8420   24.0160 N   0  0  0  0  0  0  0  0  0  0  0  0
  -26.5090  -37.7410   24.3390 H   0  0  0  0  0  0  0  0  0  0  0  0
  1  3  1  0
  1  5  1  0
  2  4  1  0
  2  6  2  0
  4  1  1  0
  5  9  1  0
  7  4  1  0
  8  5  1  0
 10 13  1  0
 11 15  1  0
 12 10  2  0
 12 14  1  0
 13  9  1  0
 13 15  2  0
 14 11  2  0
 15 17  1  0
 16 12  1  0
 18 24  1  0
 19 24  1  0
 20 21  1  0
 20 19  1  0
 22 21  1  0
 22 31  1  0
 22 23  1  0
 24 23  1  0
 25 18  2  0
 26 18  1  0
 26 14  1  0
 27 26  1  0
 28 29  2  0
 29 48  1  0
 30 33  1  0
 30 29  1  0
 31 32  1  0
 31 28  1  0
 32 30  2  0
 33 34  1  0
 34 35  2  0
 36 39  1  0
 36 35  1  0
 37 36  2  0
 38 37  1  0
 38 33  2  0
 39 40  1  0
 40 41  1  0
 41 42  2  0
 43 42  1  0
 43 47  1  0
 44 43  2  0
 45 40  2  0
 45 44  1  0
 46 45  1  0
 48 49  1  0
 49 51  1  0
 49 52  1  0
 50 48  2  0
 53 28  1  0
 53 54  1  0
 55 53  1  0
 56 57  1  0
 56  2  1  0
 57 59  1  0
 58 69  2  0
 59 64  1  0
 60 68  1  0
 60 70  1  0
 61 67  1  0
 61 63  1  0
 62 68  1  0
 63 62  1  0
 64 63  2  0
 65 66  1  0
 65 59  2  0
 66 61  2  0
 67 60  1  0
 68 58  1  0
 70 72  2  0
 71 70  1  0
 73 71  1  0
 74 83  2  0
 74 79  1  0
 75 71  1  0
 75 79  1  0
 76 75  1  0
 77 78  1  0
 77 76  1  0
 78 74  1  0
 79 80  2  0
 80 81  1  0
 82 81  2  0
 83 82  1  0
 84 58  1  0
 84 89  1  0
 84 85  1  0
 85 88  1  1
 85 86  1  0
 87 85  1  0
 89 92  1  0
 90 89  1  0
 90 94  1  0
 91 90  2  0
 94 93  1  0
 96 94  1  0
 96 97  1  0
 96 95  1  0
M  ISO  4  18 100  26 100  56 101  57 101
M  END
>  <TORSDO>  (89) 
F 19

>  <SCORE>  (89) 
-10.721

>  <name>  (89) 
88

>  <ligand_id>  (89) 
88

>  <original_smiles>  (89) 
[H]c1c([H])c([H])c2c(c1[H])C([H])([H])C([H])([H])C([H])([H])C2([H])N([H])C(=O)C1([H])N(C(=O)C([H])(N([H])C(=O)C([H])(N([H])C([H])([H])[H])C([H])([H])[H])C(C([H])([H])[H])(C([H])([H])[H])C([H])([H])[H])C([H])([H])c2c([H])c(OC([H])([H])C(=O)N([H])C(=[N+]([H])C([H])([H])c3c([H])c(C([H])([H])[H])c(N([H])C(=O)N4C([H])([H])C([H])([H])C([H])([H])C([H])(n5nc(-c6c([H])c([H])c(Oc7c([H])c([H])c(F)c([H])c7F)c([H])c6[H])c(C(=O)N([H])[H])c5N([H])[H])C4([H])[H])c([H])c3Cl)C([H])([H])[H])c([H])c([H])c2C1([H])[H]

>  <smiles>  (89) 
[H]c1c([H])c([H])c2c(c1[H])C([H])([H])C([H])([H])C([H])([H])C2([H])N([H])C(=O)C1([H])N(C(=O)C([H])(N([H])C(=O)C([H])(N([H])C([H])([H])[H])C([H])([H])[H])C(C([H])([H])[H])(C([H])([H])[H])C([H])([H])[H])C([H])([H])c2c([H])c(OC([H])([H])C(=O)N([H])C(=[N+]([H])C([H])([H])c3c([H])c(C([H])([H])[H])c(N([H])C(=O)N4C([H])([H])C([H])([H])C([H])([H])C([H])(n5nc(-c6c([H])c([H])c(Oc7c([H])c([H])c(F)c([H])c7F)c([H])c6[H])c(C(=O)N([H])[H])c5N([H])[H])C4([H])[H])c([H])c3Cl)C([H])([H])[H])c([H])c([H])c2C1([H])[H]

$$$$
89:0:0
     RDKit          3D

103112  0  0  1  0  0  0  0  0999 V2000
  -29.9610  -19.3580   19.4230 C   0  0  0  0  0  3  0  0  0  0  0  0
  -31.3990  -18.1960   21.4850 C   0  0  0  0  0  3  0  0  0  0  0  0
  -29.9390  -17.9350   19.5760 C   0  0  0  0  0  0  0  0  0  0  0  0
  -30.6780  -20.2340   20.2790 C   0  0  0  0  0  0  0  0  0  0  0  0
  -30.6800  -17.3130   20.6280 C   0  0  0  0  0  0  0  0  0  0  0  0
  -31.4100  -19.6160   21.3390 C   0  0  0  0  0  0  0  0  0  0  0  0
  -30.5330  -15.7920   21.0450 C   0  0  1  0  0  0  0  0  0  0  0  0
  -30.9730  -15.6340   22.2960 F   0  0  0  0  0  0  0  0  0  0  0  0
  -29.2090  -15.6610   21.0900 F   0  0  0  0  0  0  0  0  0  0  0  0
  -31.1700  -14.5940   20.2010 C   0  0  0  0  0  0  0  0  0  0  0  0
  -30.7990  -12.4780   18.9150 C   0  0  0  0  0  2  0  0  0  0  0  0
  -29.8010  -12.7310   17.7620 C   0  0  0  0  0  2  0  0  0  0  0  0
  -28.3410  -12.6080   18.2430 C   0  0  0  0  0  2  0  0  0  0  0  0
  -28.0880  -13.3980   19.5510 C   0  0  0  0  0  3  0  0  0  0  0  0
  -29.1800  -13.0760   20.6010 C   0  0  0  0  0  2  0  0  0  0  0  0
  -30.4820  -13.4190   20.0090 N   0  0  0  0  0  0  0  0  0  0  0  0
  -32.2800  -14.7460   19.6740 O   0  0  0  0  0  0  0  0  0  0  0  0
  -25.7460  -14.1050   20.3510 C   0  0  0  0  0  0  0  0  0  0  0  0
  -24.6560  -13.3760   20.7420 C   0  0  0  0  0  0  0  0  0  0  0  0
  -25.0560  -12.0050   20.6780 C   0  0  0  0  0  0  0  0  0  0  0  0
  -26.7420  -13.1790   20.0730 N   0  0  0  0  0  0  0  0  0  0  0  0
  -26.3320  -11.9120   20.3270 N   0  0  0  0  0  0  0  0  0  0  0  0
  -24.2810  -10.7740   20.8730 C   0  0  0  0  0  0  0  0  0  0  0  0
  -24.6800   -9.7900   21.8050 C   0  0  0  0  0  3  0  0  0  0  0  0
  -23.9070   -8.6230   21.9870 C   0  0  0  0  0  3  0  0  0  0  0  0
  -22.7240   -8.4300   21.2350 C   0  0  0  0  0  0  0  0  0  0  0  0
  -22.3450   -9.4020   20.2910 C   0  0  0  0  0  3  0  0  0  0  0  0
  -23.1170  -10.5620   20.1080 C   0  0  0  0  0  3  0  0  0  0  0  0
  -21.9260   -7.3160   21.3250 O   0  0  0  0  0  0  0  0  0  0  0  0
  -21.7890   -6.6240   22.5030 C   0  0  0  0  0  0  0  0  0  0  0  0
  -21.3490   -7.2530   23.6880 C   0  0  0  0  0  3  0  0  0  0  0  0
  -21.1530   -6.4920   24.8580 C   0  0  0  0  0  3  0  0  0  0  0  0
  -21.3870   -5.1040   24.8420 C   0  0  0  0  0  0  0  0  0  0  0  0
  -21.8200   -4.4740   23.6610 C   0  0  0  0  0  3  0  0  0  0  0  0
  -22.0170   -5.2330   22.4930 C   0  0  0  0  0  0  0  0  0  0  0  0
  -22.4130   -4.6190   21.3520 F   0  0  0  0  0  0  0  0  0  0  0  0
  -21.1910   -4.3700   25.9620 F   0  0  0  0  0  0  0  0  0  0  0  0
  -23.2910  -13.9100   21.0670 C   0  0  0  0  0  0  0  0  0  0  0  0
  -22.5730  -13.2450   21.9650 N   0  0  0  0  0  0  0  0  0  0  0  0
  -22.8720  -14.9500   20.5610 O   0  0  0  0  0  0  0  0  0  0  0  0
  -22.9260  -12.4030   22.3960 H   0  0  0  0  0  0  0  0  0  0  0  0
  -21.6580  -13.5830   22.2270 H   0  0  0  0  0  0  0  0  0  0  0  0
  -25.9670  -15.4690   20.1910 N   0  0  0  0  0  0  0  0  0  0  0  0
  -25.2410  -16.1590   20.3450 H   0  0  0  0  0  0  0  0  0  0  0  0
  -26.8430  -15.8760   19.8880 H   0  0  0  0  0  0  0  0  0  0  0  0
  -27.9790  -17.5830   18.0370 C   0  0  0  0  0  2  0  0  0  0  0  0
  -29.0620  -17.1360   18.6950 C   0  0  0  0  0  3  0  0  0  0  0  0
  -32.1980  -20.4220   22.3810 C   0  0  0  0  0  2  0  0  0  0  0  0
  -36.6310  -20.3770   20.8830 C   0  0  0  0  0  2  0  0  0  0  0  0
  -36.6720  -20.0150   22.3770 C   0  0  0  0  0  2  0  0  0  0  0  0
  -35.2390  -20.2910   20.2330 C   0  0  0  0  0  2  0  0  0  0  0  0
  -35.9190  -21.0370   23.2440 C   0  0  0  0  0  2  0  0  0  0  0  0
  -34.1300  -21.0960   20.9390 C   0  0  0  0  0  2  0  0  0  0  0  0
  -34.4060  -20.7690   23.4120 C   0  0  0  0  0  2  0  0  0  0  0  0
  -33.6720  -20.3990   22.1690 N   0  0  1  0  0  4  0  0  0  0  0  0
  -33.8910  -19.4280   22.0090 H   0  0  0  0  0  0  0  0  0  0  0  0
  -30.7220  -21.7750   19.9580 C   0  0  0  0  0  2  0  0  0  0  0  0
  -29.5070  -22.6230   20.2310 N   0  0  0  0  0  4  0  0  0  0  0  0
  -29.1410  -22.3830   21.1390 H   0  0  0  0  0  0  0  0  0  0  0  0
  -28.8100  -22.3550   19.5540 H   0  0  0  0  0  0  0  0  0  0  0  0
  -29.7050  -24.1290   20.1660 C   0  0  0  0  0  3  0  0  0  0  0  0
  -28.3990  -24.9930   19.9560 C   0  0  0  0  0  3  0  0  0  0  0  0
  -28.5230  -26.4510   20.1040 O   0  0  0  0  0  0  0  0  0  0  0  0
  -24.5470  -31.6350   23.1120 C   0  0  0  0  0  0  0  0  0  0  0  0
  -27.3590  -27.2260   20.0430 C   0  0  0  0  0  0  0  0  0  0  0  0
  -23.4180  -30.2420   21.4120 C   0  0  0  0  0  3  0  0  0  0  0  0
  -24.9430  -28.7510   20.0020 C   0  0  0  0  0  0  0  0  0  0  0  0
  -25.9500  -30.6280   21.3020 C   0  0  0  0  0  2  0  0  0  0  0  0
  -26.0800  -29.2640   20.6390 C   0  0  0  0  0  0  0  0  0  0  0  0
  -27.2870  -28.5130   20.6520 C   0  0  0  0  0  3  0  0  0  0  0  0
  -26.1950  -26.7550   19.3860 C   0  0  0  0  0  3  0  0  0  0  0  0
  -25.0020  -27.5000   19.3680 C   0  0  0  0  0  3  0  0  0  0  0  0
  -23.6840  -29.5910   20.0280 C   0  0  0  0  0  2  0  0  0  0  0  0
  -24.6550  -30.8500   22.0010 N   0  0  0  0  0  0  0  0  0  0  0  0
  -23.4440  -31.8810   23.6200 O   0  0  0  0  0  0  0  0  0  0  0  0
  -22.7510  -29.1950   22.3350 C   0  0  0  0  0  0  0  0  0  0  0  0
  -21.4260  -29.0260   22.1940 N   0  0  0  0  0  0  0  0  0  0  0  0
  -23.4250  -28.5380   23.1330 O   0  0  0  0  0  0  0  0  0  0  0  0
  -20.9430  -29.6070   21.5230 H   0  0  0  0  0  0  0  0  0  0  0  0
  -18.0360  -27.8580   22.6640 C   0  0  0  0  0  0  0  0  0  0  0  0
  -20.6000  -28.0660   22.9280 C   0  0  0  0  0  3  0  0  0  0  0  0
  -20.6770  -26.6610   22.2860 C   0  0  0  0  0  2  0  0  0  0  0  0
  -19.5640  -26.4020   21.2670 C   0  0  0  0  0  2  0  0  0  0  0  0
  -18.1880  -26.5390   21.9270 C   0  0  0  0  0  2  0  0  0  0  0  0
  -19.1700  -28.5830   23.1190 C   0  0  0  0  0  0  0  0  0  0  0  0
  -18.9740  -29.8220   23.7680 C   0  0  0  0  0  3  0  0  0  0  0  0
  -17.6780  -30.3350   23.9650 C   0  0  0  0  0  3  0  0  0  0  0  0
  -16.5590  -29.6050   23.5260 C   0  0  0  0  0  3  0  0  0  0  0  0
  -16.7390  -28.3680   22.8810 C   0  0  0  0  0  3  0  0  0  0  0  0
  -25.8000  -32.2790   23.7830 C   0  0  0  0  0  3  0  0  0  0  0  0
  -25.4590  -33.6670   24.1220 N   0  0  0  0  0  0  0  0  0  0  0  0
  -25.7780  -34.7320   23.3740 C   0  0  0  0  0  0  0  0  0  0  0  0
  -26.4630  -34.6510   22.3500 O   0  0  0  0  0  0  0  0  0  0  0  0
  -24.8530  -33.8030   24.9180 H   0  0  0  0  0  0  0  0  0  0  0  0
  -24.0050  -36.4800   23.0260 C   0  0  0  0  0  1  0  0  0  0  0  0
  -25.2580  -36.1070   23.8360 C   0  0  0  0  0  3  0  0  0  0  0  0
  -27.3670  -37.0460   24.6690 C   0  0  0  0  0  1  0  0  0  0  0  0
  -26.2640  -37.1860   23.7220 N   0  0  0  0  0  0  0  0  0  0  0  0
  -25.8360  -38.0960   23.8670 H   0  0  0  0  0  0  0  0  0  0  0  0
  -26.2870  -31.4970   25.0640 C   0  0  1  0  0  0  0  0  0  0  0  0
  -25.1660  -31.2340   26.0970 C   0  0  0  0  0  1  0  0  0  0  0  0
  -26.8950  -30.1300   24.6720 C   0  0  0  0  0  1  0  0  0  0  0  0
  -27.4130  -32.2920   25.7680 C   0  0  0  0  0  1  0  0  0  0  0  0
  1  3  2  0
  1  4  1  0
  3  5  1  0
  4  6  2  0
  5  7  1  0
  5  2  2  0
  6  2  1  0
  6 48  1  0
  7  9  1  1
  7  8  1  0
 10  7  1  0
 11 16  1  0
 12 13  1  0
 12 11  1  0
 14 13  1  0
 14 21  1  0
 14 15  1  0
 16 10  1  0
 16 15  1  0
 17 10  2  0
 18 19  2  0
 19 38  1  0
 20 19  1  0
 20 23  1  0
 21 22  1  0
 21 18  1  0
 22 20  2  0
 23 24  1  0
 24 25  2  0
 26 29  1  0
 26 25  1  0
 27 26  2  0
 28 27  1  0
 28 23  2  0
 29 30  1  0
 30 31  1  0
 31 32  2  0
 33 32  1  0
 33 37  1  0
 34 33  2  0
 35 30  2  0
 35 34  1  0
 36 35  1  0
 38 39  1  0
 39 42  1  0
 39 41  1  0
 40 38  2  0
 43 44  1  0
 43 18  1  0
 45 43  1  0
 46 47  2  0
 47  3  1  0
 49 50  1  0
 50 52  1  0
 51 49  1  0
 51 53  1  0
 52 54  1  0
 53 55  1  0
 55 48  1  0
 55 54  1  0
 55 56  1  6
 57 58  1  0
 57  4  1  0
 58 59  1  0
 60 58  1  0
 61 58  1  0
 62 63  1  0
 62 61  2  0
 64 75  2  0
 65 63  1  0
 65 70  1  0
 66 74  1  0
 66 76  1  0
 67 73  1  0
 67 69  1  0
 68 74  1  0
 69 70  2  0
 69 68  1  0
 71 65  2  0
 72 71  1  0
 72 67  2  0
 73 66  1  0
 74 64  1  0
 76 78  2  0
 77 76  1  0
 79 77  1  0
 80 89  2  0
 80 85  1  0
 81 77  1  0
 81 85  1  0
 82 81  1  0
 83 84  1  0
 83 82  1  0
 84 80  1  0
 85 86  2  0
 86 87  1  0
 88 87  2  0
 89 88  1  0
 90 64  1  0
 90 91  1  0
 90100  1  0
 91 94  1  0
 92 96  1  0
 92 91  1  0
 93 92  2  0
 96 95  1  0
 98 96  1  0
 98 99  1  0
 98 97  1  0
100103  1  1
100101  1  0
102100  1  0
M  ISO  4   7 100  10 100  62 101  63 101
M  END
>  <TORSDO>  (90) 
F 24

>  <SCORE>  (90) 
-12.668

>  <name>  (90) 
89

>  <ligand_id>  (90) 
89

>  <original_smiles>  (90) 
[H]C([H])=C([H])c1c([H])c(C([H])([H])[N+]([H])([H])C([H])([H])C([H])([H])Oc2c([H])c([H])c3c(c2[H])C([H])([H])N(C(=O)C([H])(N([H])C(=O)C([H])(N([H])C([H])([H])[H])C([H])([H])[H])C(C([H])([H])[H])(C([H])([H])[H])C([H])([H])[H])C([H])(C(=O)N([H])C2([H])c4c([H])c([H])c([H])c([H])c4C([H])([H])C([H])([H])C2([H])[H])C3([H])[H])c(C([H])([H])[N+]2([H])C([H])([H])C([H])([H])C([H])([H])C([H])([H])C([H])([H])C2([H])[H])c([H])c1C(F)(F)C(=O)N1C([H])([H])C([H])([H])C([H])([H])C([H])(n2nc(-c3c([H])c([H])c(Oc4c([H])c([H])c(F)c([H])c4F)c([H])c3[H])c(C(=O)N([H])[H])c2N([H])[H])C1([H])[H]

>  <smiles>  (90) 
[H]C([H])=C([H])c1c([H])c(C([H])([H])[N+]([H])([H])C([H])([H])C([H])([H])Oc2c([H])c([H])c3c(c2[H])C([H])([H])N(C(=O)C([H])(N([H])C(=O)C([H])(N([H])C([H])([H])[H])C([H])([H])[H])C(C([H])([H])[H])(C([H])([H])[H])C([H])([H])[H])C([H])(C(=O)N([H])C2([H])c4c([H])c([H])c([H])c([H])c4C([H])([H])C([H])([H])C2([H])[H])C3([H])[H])c(C([H])([H])[N+]2([H])C([H])([H])C([H])([H])C([H])([H])C([H])([H])C([H])([H])C2([H])[H])c([H])c1C(F)(F)C(=O)N1C([H])([H])C([H])([H])C([H])([H])C([H])(n2nc(-c3c([H])c([H])c(Oc4c([H])c([H])c(F)c([H])c4F)c([H])c3[H])c(C(=O)N([H])[H])c2N([H])[H])C1([H])[H]

$$$$
90:0:0
     RDKit          3D

 95103  0  0  1  0  0  0  0  0999 V2000
  -30.4260  -20.7290   20.2670 C   0  0  0  0  0  2  0  0  0  0  0  0
  -31.0910  -18.1000   23.0570 C   0  0  0  0  0  3  0  0  0  0  0  0
  -30.4080  -18.1340   20.3500 C   0  0  0  0  0  3  0  0  0  0  0  0
  -30.9130  -19.3430   22.4140 C   0  0  0  0  0  0  0  0  0  0  0  0
  -30.9500  -16.8800   22.3720 C   0  0  0  0  0  0  0  0  0  0  0  0
  -30.5500  -19.3820   21.0380 C   0  0  0  0  0  0  0  0  0  0  0  0
  -30.6250  -16.8800   20.9970 C   0  0  0  0  0  0  0  0  0  0  0  0
  -31.1310  -15.5830   23.1460 C   0  0  0  0  0  1  0  0  0  0  0  0
  -31.1260  -14.5980   20.0060 C   0  0  0  0  0  0  0  0  0  0  0  0
  -30.7910  -12.4270   18.8500 C   0  0  0  0  0  2  0  0  0  0  0  0
  -29.7980  -12.6380   17.6850 C   0  0  0  0  0  2  0  0  0  0  0  0
  -28.3340  -12.5420   18.1690 C   0  0  0  0  0  2  0  0  0  0  0  0
  -28.0680  -13.3860   19.4430 C   0  0  0  0  0  3  0  0  0  0  0  0
  -29.1560  -13.1140   20.5040 C   0  0  0  0  0  2  0  0  0  0  0  0
  -30.4610  -13.4130   19.8900 N   0  0  0  0  0  0  0  0  0  0  0  0
  -32.2740  -14.7660   19.5830 O   0  0  0  0  0  0  0  0  0  0  0  0
  -30.3200  -15.6270   20.3700 N   0  0  0  0  0  0  0  0  0  0  0  0
  -29.3790  -15.3070   20.5390 H   0  0  0  0  0  0  0  0  0  0  0  0
  -25.7240  -14.0930   20.2370 C   0  0  0  0  0  0  0  0  0  0  0  0
  -24.6420  -13.3640   20.6480 C   0  0  0  0  0  0  0  0  0  0  0  0
  -25.0500  -11.9950   20.6110 C   0  0  0  0  0  0  0  0  0  0  0  0
  -26.7250  -13.1690   19.9730 N   0  0  0  0  0  0  0  0  0  0  0  0
  -26.3260  -11.9040   20.2580 N   0  0  0  0  0  0  0  0  0  0  0  0
  -24.2860  -10.7620   20.8340 C   0  0  0  0  0  0  0  0  0  0  0  0
  -24.6930   -9.8040   21.7890 C   0  0  0  0  0  3  0  0  0  0  0  0
  -23.9330   -8.6330   21.9970 C   0  0  0  0  0  3  0  0  0  0  0  0
  -22.7520   -8.4130   21.2500 C   0  0  0  0  0  0  0  0  0  0  0  0
  -22.3630   -9.3580   20.2840 C   0  0  0  0  0  3  0  0  0  0  0  0
  -23.1240  -10.5200   20.0740 C   0  0  0  0  0  3  0  0  0  0  0  0
  -21.9630   -7.2940   21.3660 O   0  0  0  0  0  0  0  0  0  0  0  0
  -21.8550   -6.6100   22.5500 C   0  0  0  0  0  0  0  0  0  0  0  0
  -21.4230   -7.2400   23.7380 C   0  0  0  0  0  3  0  0  0  0  0  0
  -21.2590   -6.4840   24.9160 C   0  0  0  0  0  3  0  0  0  0  0  0
  -21.5170   -5.1010   24.9070 C   0  0  0  0  0  0  0  0  0  0  0  0
  -21.9420   -4.4710   23.7250 C   0  0  0  0  0  3  0  0  0  0  0  0
  -22.1070   -5.2230   22.5480 C   0  0  0  0  0  0  0  0  0  0  0  0
  -22.4970   -4.6070   21.4060 F   0  0  0  0  0  0  0  0  0  0  0  0
  -21.3510   -4.3730   26.0370 F   0  0  0  0  0  0  0  0  0  0  0  0
  -23.2730  -13.8940   20.9650 C   0  0  0  0  0  0  0  0  0  0  0  0
  -22.5570  -13.2420   21.8750 N   0  0  0  0  0  0  0  0  0  0  0  0
  -22.8470  -14.9210   20.4390 O   0  0  0  0  0  0  0  0  0  0  0  0
  -22.9120  -12.4100   22.3200 H   0  0  0  0  0  0  0  0  0  0  0  0
  -21.6410  -13.5830   22.1300 H   0  0  0  0  0  0  0  0  0  0  0  0
  -25.9360  -15.4540   20.0410 N   0  0  0  0  0  0  0  0  0  0  0  0
  -25.1990  -16.1400   20.1650 H   0  0  0  0  0  0  0  0  0  0  0  0
  -26.7820  -15.8540   19.6570 H   0  0  0  0  0  0  0  0  0  0  0  0
  -32.5810  -20.7260   23.7660 C   0  0  0  0  0  1  0  0  0  0  0  0
  -31.1380  -20.5930   23.2640 C   0  0  0  0  0  2  0  0  0  0  0  0
  -29.1220  -21.4730   20.3370 N   0  0  0  0  0  4  0  0  0  0  0  0
  -28.4250  -20.8810   20.7560 H   0  0  0  0  0  0  0  0  0  0  0  0
  -28.8440  -21.6060   19.3780 H   0  0  0  0  0  0  0  0  0  0  0  0
  -29.1120  -22.8310   20.9880 C   0  0  0  0  0  2  0  0  0  0  0  0
  -28.4100  -23.9840   20.1820 C   0  0  0  0  0  2  0  0  0  0  0  0
  -28.3110  -25.3460   20.9510 C   0  0  0  0  0  2  0  0  0  0  0  0
  -28.2970  -26.5530   20.1470 O   0  0  0  0  0  0  0  0  0  0  0  0
  -24.5440  -31.8680   23.1660 C   0  0  0  0  0  0  0  0  0  0  0  0
  -27.1430  -27.3180   20.1710 C   0  0  0  0  0  0  0  0  0  0  0  0
  -23.3290  -30.4560   21.5380 C   0  0  0  0  0  3  0  0  0  0  0  0
  -24.7700  -28.8730   20.1440 C   0  0  0  0  0  0  0  0  0  0  0  0
  -25.8620  -30.7750   21.3460 C   0  0  0  0  0  2  0  0  0  0  0  0
  -25.9340  -29.3880   20.7270 C   0  0  0  0  0  0  0  0  0  0  0  0
  -27.1270  -28.6210   20.7300 C   0  0  0  0  0  3  0  0  0  0  0  0
  -25.9620  -26.8210   19.5830 C   0  0  0  0  0  3  0  0  0  0  0  0
  -24.7800  -27.5910   19.5660 C   0  0  0  0  0  3  0  0  0  0  0  0
  -23.5360  -29.7520   20.1710 C   0  0  0  0  0  2  0  0  0  0  0  0
  -24.5970  -31.0490   22.0750 N   0  0  0  0  0  0  0  0  0  0  0  0
  -23.4640  -32.1620   23.6970 O   0  0  0  0  0  0  0  0  0  0  0  0
  -22.6590  -29.4590   22.5110 C   0  0  0  0  0  0  0  0  0  0  0  0
  -21.3360  -29.2770   22.3670 N   0  0  0  0  0  0  0  0  0  0  0  0
  -23.3280  -28.8510   23.3510 O   0  0  0  0  0  0  0  0  0  0  0  0
  -20.8580  -29.8190   21.6630 H   0  0  0  0  0  0  0  0  0  0  0  0
  -17.9590  -28.0650   22.8070 C   0  0  0  0  0  0  0  0  0  0  0  0
  -20.5050  -28.3540   23.1420 C   0  0  0  0  0  3  0  0  0  0  0  0
  -20.6370  -26.9080   22.6120 C   0  0  0  0  0  2  0  0  0  0  0  0
  -19.5670  -26.5450   21.5770 C   0  0  0  0  0  2  0  0  0  0  0  0
  -18.1650  -26.6970   22.1780 C   0  0  0  0  0  2  0  0  0  0  0  0
  -19.0590  -28.8500   23.2440 C   0  0  0  0  0  0  0  0  0  0  0  0
  -18.8140  -30.1290   23.7890 C   0  0  0  0  0  3  0  0  0  0  0  0
  -17.5020  -30.6250   23.9000 C   0  0  0  0  0  3  0  0  0  0  0  0
  -16.4160  -29.8380   23.4810 C   0  0  0  0  0  3  0  0  0  0  0  0
  -16.6450  -28.5600   22.9390 C   0  0  0  0  0  3  0  0  0  0  0  0
  -25.8350  -32.4910   23.7830 C   0  0  0  0  0  3  0  0  0  0  0  0
  -25.5290  -33.8840   24.1380 N   0  0  0  0  0  0  0  0  0  0  0  0
  -25.8560  -34.9490   23.3930 C   0  0  0  0  0  0  0  0  0  0  0  0
  -26.5190  -34.8610   22.3550 O   0  0  0  0  0  0  0  0  0  0  0  0
  -24.9430  -34.0280   24.9480 H   0  0  0  0  0  0  0  0  0  0  0  0
  -24.1260  -36.7450   23.0760 C   0  0  0  0  0  1  0  0  0  0  0  0
  -25.3710  -36.3290   23.8750 C   0  0  0  0  0  3  0  0  0  0  0  0
  -27.5100  -37.1990   24.7070 C   0  0  0  0  0  1  0  0  0  0  0  0
  -26.4020  -37.3830   23.7740 N   0  0  0  0  0  0  0  0  0  0  0  0
  -25.9970  -38.3000   23.9410 H   0  0  0  0  0  0  0  0  0  0  0  0
  -26.3660  -31.7020   25.0410 C   0  0  1  0  0  0  0  0  0  0  0  0
  -25.2870  -31.4420   26.1170 C   0  0  0  0  0  1  0  0  0  0  0  0
  -26.9490  -30.3330   24.6150 C   0  0  0  0  0  1  0  0  0  0  0  0
  -27.5210  -32.4900   25.7030 C   0  0  0  0  0  1  0  0  0  0  0  0
  1 49  1  0
  1  6  1  0
  3  7  2  0
  3  6  1  0
  4  2  1  0
  4 48  1  0
  5  2  2  0
  5  8  1  0
  6  4  2  0
  7  5  1  0
  9 17  1  0
 10 15  1  0
 11 12  1  0
 11 10  1  0
 13 12  1  0
 13 22  1  0
 13 14  1  0
 15  9  1  0
 15 14  1  0
 16  9  2  0
 17 18  1  0
 17  7  1  0
 19 20  2  0
 20 39  1  0
 21 20  1  0
 21 24  1  0
 22 19  1  0
 22 23  1  0
 23 21  2  0
 24 25  1  0
 25 26  2  0
 27 30  1  0
 27 26  1  0
 28 27  2  0
 29 28  1  0
 29 24  2  0
 30 31  1  0
 31 32  1  0
 32 33  2  0
 34 33  1  0
 34 38  1  0
 35 34  2  0
 36 31  2  0
 36 35  1  0
 37 36  1  0
 39 40  1  0
 40 43  1  0
 40 42  1  0
 41 39  2  0
 44 45  1  0
 44 19  1  0
 46 44  1  0
 48 47  1  0
 49 50  1  0
 49 52  1  0
 51 49  1  0
 53 54  1  0
 53 52  1  0
 55 57  1  0
 55 54  1  0
 56 67  2  0
 57 62  1  0
 58 66  1  0
 58 68  1  0
 59 65  1  0
 59 61  1  0
 60 66  1  0
 61 62  2  0
 61 60  1  0
 63 57  2  0
 64 63  1  0
 64 59  2  0
 65 58  1  0
 66 56  1  0
 68 70  2  0
 69 68  1  0
 71 69  1  0
 72 81  2  0
 72 77  1  0
 73 69  1  0
 73 77  1  0
 74 73  1  0
 75 76  1  0
 75 74  1  0
 76 72  1  0
 77 78  2  0
 78 79  1  0
 80 79  2  0
 81 80  1  0
 82 56  1  0
 82 83  1  0
 82 92  1  0
 83 86  1  0
 84 88  1  0
 84 83  1  0
 85 84  2  0
 88 87  1  0
 90 88  1  0
 90 91  1  0
 90 89  1  0
 92 95  1  1
 92 93  1  0
 94 92  1  0
M  ISO  4   9 100  17 100  54 101  55 101
M  END
>  <TORSDO>  (91) 
F 22

>  <SCORE>  (91) 
-10.881

>  <name>  (91) 
90

>  <ligand_id>  (91) 
90

>  <original_smiles>  (91) 
[H]c1c([H])c([H])c2c(c1[H])C([H])([H])C([H])([H])C([H])([H])C2([H])N([H])C(=O)C1([H])N(C(=O)C([H])(N([H])C(=O)C([H])(N([H])C([H])([H])[H])C([H])([H])[H])C(C([H])([H])[H])(C([H])([H])[H])C([H])([H])[H])C([H])([H])c2c([H])c(OC([H])([H])C([H])([H])C([H])([H])[N+]([H])([H])C([H])([H])c3c([H])c(N([H])C(=O)N4C([H])([H])C([H])([H])C([H])([H])C([H])(n5nc(-c6c([H])c([H])c(Oc7c([H])c([H])c(F)c([H])c7F)c([H])c6[H])c(C(=O)N([H])[H])c5N([H])[H])C4([H])[H])c(C([H])([H])[H])c([H])c3C([H])([H])C([H])([H])[H])c([H])c([H])c2C1([H])[H]

>  <smiles>  (91) 
[H]c1c([H])c([H])c2c(c1[H])C([H])([H])C([H])([H])C([H])([H])C2([H])N([H])C(=O)C1([H])N(C(=O)C([H])(N([H])C(=O)C([H])(N([H])C([H])([H])[H])C([H])([H])[H])C(C([H])([H])[H])(C([H])([H])[H])C([H])([H])[H])C([H])([H])c2c([H])c(OC([H])([H])C([H])([H])C([H])([H])[N+]([H])([H])C([H])([H])c3c([H])c(N([H])C(=O)N4C([H])([H])C([H])([H])C([H])([H])C([H])(n5nc(-c6c([H])c([H])c(Oc7c([H])c([H])c(F)c([H])c7F)c([H])c6[H])c(C(=O)N([H])[H])c5N([H])[H])C4([H])[H])c(C([H])([H])[H])c([H])c3C([H])([H])C([H])([H])[H])c([H])c([H])c2C1([H])[H]

$$$$
91:0:0
     RDKit          3D

 98107  0  0  1  0  0  0  0  0999 V2000
  -28.9200  -21.9380   20.3670 C   0  0  0  0  0  0  0  0  0  0  0  0
  -28.0370  -20.9660   20.0790 C   0  0  0  0  0  2  0  0  0  0  0  0
  -28.5970  -23.1150   21.3010 C   0  0  0  0  0  2  0  0  0  0  0  0
  -27.6560  -24.2030   20.6940 C   0  0  0  0  0  2  0  0  0  0  0  0
  -30.7240  -24.5770   19.8100 C   0  0  0  0  0  2  0  0  0  0  0  0
  -29.4940  -24.8690   18.9240 C   0  0  0  0  0  2  0  0  0  0  0  0
  -31.2380  -23.1030   19.9430 C   0  0  0  0  0  2  0  0  0  0  0  0
  -28.1870  -25.2560   19.6610 C   0  0  0  0  0  3  0  0  0  0  0  0
  -30.2970  -21.9460   19.7240 N   0  0  1  0  0  4  0  0  0  0  0  0
  -30.0910  -22.1100   18.7500 H   0  0  0  0  0  0  0  0  0  0  0  0
  -28.2120  -26.6240   20.1750 O   0  0  0  0  0  0  0  0  0  0  0  0
  -24.5570  -31.9730   23.2520 C   0  0  0  0  0  0  0  0  0  0  0  0
  -27.0520  -27.4020   20.1670 C   0  0  0  0  0  0  0  0  0  0  0  0
  -23.2950  -30.5810   21.6480 C   0  0  0  0  0  3  0  0  0  0  0  0
  -24.6920  -29.0030   20.2100 C   0  0  0  0  0  0  0  0  0  0  0  0
  -25.8300  -30.8750   21.4040 C   0  0  0  0  0  2  0  0  0  0  0  0
  -25.8770  -29.4930   20.7720 C   0  0  0  0  0  0  0  0  0  0  0  0
  -27.0570  -28.7020   20.7450 C   0  0  0  0  0  3  0  0  0  0  0  0
  -25.8320  -26.9440   19.6080 C   0  0  0  0  0  3  0  0  0  0  0  0
  -24.6680  -27.7300   19.6260 C   0  0  0  0  0  3  0  0  0  0  0  0
  -23.4690  -29.8910   20.2700 C   0  0  0  0  0  2  0  0  0  0  0  0
  -24.5810  -31.1590   22.1580 N   0  0  0  0  0  0  0  0  0  0  0  0
  -23.4900  -32.2720   23.8070 O   0  0  0  0  0  0  0  0  0  0  0  0
  -22.6400  -29.5800   22.6280 C   0  0  0  0  0  0  0  0  0  0  0  0
  -21.3160  -29.3920   22.5000 N   0  0  0  0  0  0  0  0  0  0  0  0
  -23.3210  -28.9750   23.4600 O   0  0  0  0  0  0  0  0  0  0  0  0
  -20.8260  -29.9360   21.8040 H   0  0  0  0  0  0  0  0  0  0  0  0
  -17.9540  -28.1490   22.9660 C   0  0  0  0  0  0  0  0  0  0  0  0
  -20.4980  -28.4700   23.2880 C   0  0  0  0  0  3  0  0  0  0  0  0
  -20.6430  -27.0180   22.7760 C   0  0  0  0  0  2  0  0  0  0  0  0
  -19.5740  -26.6320   21.7500 C   0  0  0  0  0  2  0  0  0  0  0  0
  -18.1730  -26.7770   22.3530 C   0  0  0  0  0  2  0  0  0  0  0  0
  -19.0460  -28.9500   23.3910 C   0  0  0  0  0  0  0  0  0  0  0  0
  -18.7900  -30.2320   23.9230 C   0  0  0  0  0  3  0  0  0  0  0  0
  -17.4730  -30.7160   24.0350 C   0  0  0  0  0  3  0  0  0  0  0  0
  -16.3930  -29.9130   23.6270 C   0  0  0  0  0  3  0  0  0  0  0  0
  -16.6340  -28.6330   23.0980 C   0  0  0  0  0  3  0  0  0  0  0  0
  -25.8640  -32.5880   23.8420 C   0  0  0  0  0  3  0  0  0  0  0  0
  -25.5800  -33.9880   24.1850 N   0  0  0  0  0  0  0  0  0  0  0  0
  -25.9000  -35.0380   23.4180 C   0  0  0  0  0  0  0  0  0  0  0  0
  -26.5370  -34.9300   22.3670 O   0  0  0  0  0  0  0  0  0  0  0  0
  -25.0130  -34.1470   25.0040 H   0  0  0  0  0  0  0  0  0  0  0  0
  -24.1730  -36.8450   23.1280 C   0  0  0  0  0  1  0  0  0  0  0  0
  -25.4410  -36.4300   23.8920 C   0  0  0  0  0  3  0  0  0  0  0  0
  -27.6140  -37.2960   24.6400 C   0  0  0  0  0  1  0  0  0  0  0  0
  -26.4770  -37.4750   23.7410 N   0  0  0  0  0  0  0  0  0  0  0  0
  -26.0840  -38.3970   23.9070 H   0  0  0  0  0  0  0  0  0  0  0  0
  -26.4050  -31.8040   25.1000 C   0  0  1  0  0  0  0  0  0  0  0  0
  -25.3350  -31.5630   26.1900 C   0  0  0  0  0  1  0  0  0  0  0  0
  -26.9760  -30.4280   24.6830 C   0  0  0  0  0  1  0  0  0  0  0  0
  -27.5710  -32.5900   25.7460 C   0  0  0  0  0  1  0  0  0  0  0  0
  -31.0340  -20.6270   19.5520 C   0  0  0  0  0  2  0  0  0  0  0  0
  -31.2590  -18.4300   22.7770 C   0  0  0  0  0  3  0  0  0  0  0  0
  -30.6550  -18.1230   20.0670 C   0  0  0  0  0  3  0  0  0  0  0  0
  -31.2760  -19.5640   21.9370 C   0  0  0  0  0  0  0  0  0  0  0  0
  -30.9640  -17.1470   22.2800 C   0  0  0  0  0  0  0  0  0  0  0  0
  -30.9380  -19.4380   20.5610 C   0  0  0  0  0  0  0  0  0  0  0  0
  -30.6960  -16.9700   20.9050 C   0  0  0  0  0  0  0  0  0  0  0  0
  -31.7040  -20.8790   22.5600 C   0  0  0  0  0  1  0  0  0  0  0  0
  -30.9480  -15.9690   23.2420 C   0  0  0  0  0  1  0  0  0  0  0  0
  -31.0860  -14.6320   20.0070 C   0  0  0  0  0  0  0  0  0  0  0  0
  -30.7620  -12.4230   18.9230 C   0  0  0  0  0  2  0  0  0  0  0  0
  -29.7760  -12.5830   17.7460 C   0  0  0  0  0  2  0  0  0  0  0  0
  -28.3130  -12.4870   18.2280 C   0  0  0  0  0  2  0  0  0  0  0  0
  -28.0320  -13.3760   19.4690 C   0  0  0  0  0  3  0  0  0  0  0  0
  -29.1160  -13.1560   20.5490 C   0  0  0  0  0  2  0  0  0  0  0  0
  -30.4220  -13.4430   19.9300 N   0  0  0  0  0  0  0  0  0  0  0  0
  -32.2170  -14.7960   19.5390 O   0  0  0  0  0  0  0  0  0  0  0  0
  -30.3220  -15.6590   20.4530 N   0  0  0  0  0  0  0  0  0  0  0  0
  -29.4110  -15.3520   20.7610 H   0  0  0  0  0  0  0  0  0  0  0  0
  -25.6910  -14.0890   20.2650 C   0  0  0  0  0  0  0  0  0  0  0  0
  -24.6030  -13.3640   20.6690 C   0  0  0  0  0  0  0  0  0  0  0  0
  -25.0000  -11.9930   20.6170 C   0  0  0  0  0  0  0  0  0  0  0  0
  -26.6860  -13.1620   19.9950 N   0  0  0  0  0  0  0  0  0  0  0  0
  -26.2760  -11.8970   20.2640 N   0  0  0  0  0  0  0  0  0  0  0  0
  -24.2260  -10.7640   20.8290 C   0  0  0  0  0  0  0  0  0  0  0  0
  -24.6280   -9.7920   21.7720 C   0  0  0  0  0  3  0  0  0  0  0  0
  -23.8580   -8.6260   21.9690 C   0  0  0  0  0  3  0  0  0  0  0  0
  -22.6710   -8.4230   21.2240 C   0  0  0  0  0  0  0  0  0  0  0  0
  -22.2880   -9.3840   20.2710 C   0  0  0  0  0  3  0  0  0  0  0  0
  -23.0580  -10.5420   20.0720 C   0  0  0  0  0  3  0  0  0  0  0  0
  -21.8740   -7.3100   21.3320 O   0  0  0  0  0  0  0  0  0  0  0  0
  -21.7670   -6.6120   22.5080 C   0  0  0  0  0  0  0  0  0  0  0  0
  -21.3470   -7.2310   23.7060 C   0  0  0  0  0  3  0  0  0  0  0  0
  -21.1830   -6.4630   24.8760 C   0  0  0  0  0  3  0  0  0  0  0  0
  -21.4280   -5.0760   24.8480 C   0  0  0  0  0  0  0  0  0  0  0  0
  -21.8410   -4.4570   23.6550 C   0  0  0  0  0  3  0  0  0  0  0  0
  -22.0070   -5.2240   22.4870 C   0  0  0  0  0  0  0  0  0  0  0  0
  -22.3840   -4.6190   21.3350 F   0  0  0  0  0  0  0  0  0  0  0  0
  -21.2640   -4.3360   25.9690 F   0  0  0  0  0  0  0  0  0  0  0  0
  -23.2390  -13.9030   20.9920 C   0  0  0  0  0  0  0  0  0  0  0  0
  -22.5160  -13.2430   21.8910 N   0  0  0  0  0  0  0  0  0  0  0  0
  -22.8240  -14.9420   20.4810 O   0  0  0  0  0  0  0  0  0  0  0  0
  -22.8620  -12.4000   22.3250 H   0  0  0  0  0  0  0  0  0  0  0  0
  -21.6010  -13.5870   22.1490 H   0  0  0  0  0  0  0  0  0  0  0  0
  -25.9120  -15.4510   20.0860 N   0  0  0  0  0  0  0  0  0  0  0  0
  -25.1780  -16.1390   20.2180 H   0  0  0  0  0  0  0  0  0  0  0  0
  -26.7670  -15.8540   19.7210 H   0  0  0  0  0  0  0  0  0  0  0  0
  1  3  1  0
  2  1  2  0
  4  3  1  0
  5  7  1  0
  6  8  1  0
  6  5  1  0
  8 11  1  0
  8  4  1  0
  9  7  1  0
  9  1  1  0
  9 10  1  6
 12 23  2  0
 13 11  1  0
 13 18  1  0
 14 22  1  0
 14 24  1  0
 15 21  1  0
 15 17  1  0
 16 22  1  0
 17 16  1  0
 18 17  2  0
 19 20  1  0
 19 13  2  0
 20 15  2  0
 21 14  1  0
 22 12  1  0
 24 26  2  0
 25 24  1  0
 27 25  1  0
 28 37  2  0
 28 33  1  0
 29 25  1  0
 29 33  1  0
 30 29  1  0
 31 32  1  0
 31 30  1  0
 32 28  1  0
 33 34  2  0
 34 35  1  0
 36 35  2  0
 37 36  1  0
 38 12  1  0
 38 39  1  0
 38 48  1  0
 39 42  1  0
 40 44  1  0
 40 39  1  0
 41 40  2  0
 44 43  1  0
 46 44  1  0
 46 47  1  0
 46 45  1  0
 48 51  1  1
 48 49  1  0
 50 48  1  0
 52  9  1  0
 52 57  1  0
 54 57  2  0
 54 58  1  0
 55 59  1  0
 55 53  2  0
 56 53  1  0
 56 60  1  0
 57 55  1  0
 58 56  2  0
 61 69  1  0
 62 67  1  0
 63 64  1  0
 63 62  1  0
 65 64  1  0
 65 74  1  0
 65 66  1  0
 67 61  1  0
 67 66  1  0
 68 61  2  0
 69 70  1  0
 69 58  1  0
 71 72  2  0
 72 91  1  0
 73 72  1  0
 73 76  1  0
 74 75  1  0
 74 71  1  0
 75 73  2  0
 76 77  1  0
 77 78  2  0
 79 82  1  0
 79 78  1  0
 80 79  2  0
 81 80  1  0
 81 76  2  0
 82 83  1  0
 83 84  1  0
 84 85  2  0
 86 85  1  0
 86 90  1  0
 87 86  2  0
 88 83  2  0
 88 87  1  0
 89 88  1  0
 91 92  1  0
 92 95  1  0
 92 94  1  0
 93 91  2  0
 96 97  1  0
 96 71  1  0
 98 96  1  0
M  ISO  4   8 101  11 101  61 100  69 100
M  END
>  <TORSDO>  (92) 
F 18

>  <SCORE>  (92) 
-12.857

>  <name>  (92) 
91

>  <ligand_id>  (92) 
91

>  <original_smiles>  (92) 
[H]C([H])=C1C([H])([H])C([H])([H])C([H])(Oc2c([H])c([H])c3c(c2[H])C([H])([H])N(C(=O)C([H])(N([H])C(=O)C([H])(N([H])C([H])([H])[H])C([H])([H])[H])C(C([H])([H])[H])(C([H])([H])[H])C([H])([H])[H])C([H])(C(=O)N([H])C2([H])c4c([H])c([H])c([H])c([H])c4C([H])([H])C([H])([H])C2([H])[H])C3([H])[H])C([H])([H])C([H])([H])C([H])([H])[N+]1([H])C([H])([H])c1c([H])c(N([H])C(=O)N2C([H])([H])C([H])([H])C([H])([H])C([H])(n3nc(-c4c([H])c([H])c(Oc5c([H])c([H])c(F)c([H])c5F)c([H])c4[H])c(C(=O)N([H])[H])c3N([H])[H])C2([H])[H])c(C([H])([H])[H])c([H])c1C([H])([H])[H]

>  <smiles>  (92) 
[H]C([H])=C1C([H])([H])C([H])([H])C([H])(Oc2c([H])c([H])c3c(c2[H])C([H])([H])N(C(=O)C([H])(N([H])C(=O)C([H])(N([H])C([H])([H])[H])C([H])([H])[H])C(C([H])([H])[H])(C([H])([H])[H])C([H])([H])[H])C([H])(C(=O)N([H])C2([H])c4c([H])c([H])c([H])c([H])c4C([H])([H])C([H])([H])C2([H])[H])C3([H])[H])C([H])([H])C([H])([H])C([H])([H])[N+]1([H])C([H])([H])c1c([H])c(N([H])C(=O)N2C([H])([H])C([H])([H])C([H])([H])C([H])(n3nc(-c4c([H])c([H])c(Oc5c([H])c([H])c(F)c([H])c5F)c([H])c4[H])c(C(=O)N([H])[H])c3N([H])[H])C2([H])[H])c(C([H])([H])[H])c([H])c1C([H])([H])[H]

$$$$
92:0:0
     RDKit          3D

 98107  0  0  1  0  0  0  0  0999 V2000
  -29.9630  -22.3700   20.7470 C   0  0  0  0  0  2  0  0  0  0  0  0
  -32.1950  -19.2500   20.2080 C   0  0  0  0  0  3  0  0  0  0  0  0
  -31.3070  -18.1790   20.4380 C   0  0  0  0  0  0  0  0  0  0  0  0
  -29.4660  -19.8190   20.6070 C   0  0  0  0  0  0  0  0  0  0  0  0
  -30.3890  -20.9020   20.4740 C   0  0  0  0  0  0  0  0  0  0  0  0
  -31.7540  -20.5880   20.2360 C   0  0  0  0  0  0  0  0  0  0  0  0
  -29.9310  -18.4700   20.5990 C   0  0  0  0  0  0  0  0  0  0  0  0
  -27.9810  -20.0890   20.8390 C   0  0  0  0  0  1  0  0  0  0  0  0
  -32.9510  -21.8210   20.0490 Cl  0  0  0  0  0  0  0  0  0  0  0  0
  -28.8310  -17.1590   20.8760 Cl  0  0  0  0  0  0  0  0  0  0  0  0
  -31.8880  -16.7760   20.6830 C   0  0  0  0  0  2  0  0  0  0  0  0
  -31.5490  -14.5720   19.5520 C   0  0  0  0  0  0  0  0  0  0  0  0
  -31.0080  -12.3720   18.5650 C   0  0  0  0  0  2  0  0  0  0  0  0
  -29.9820  -12.5300   17.4260 C   0  0  0  0  0  2  0  0  0  0  0  0
  -28.5450  -12.5090   17.9820 C   0  0  0  0  0  2  0  0  0  0  0  0
  -28.3580  -13.4640   19.1920 C   0  0  0  0  0  3  0  0  0  0  0  0
  -29.4860  -13.2750   20.2290 C   0  0  0  0  0  2  0  0  0  0  0  0
  -30.7720  -13.4540   19.5340 N   0  0  0  0  0  0  0  0  0  0  0  0
  -32.6030  -14.6590   18.9170 O   0  0  0  0  0  0  0  0  0  0  0  0
  -31.0900  -15.6070   20.2790 N   0  0  0  0  0  0  0  0  0  0  0  0
  -30.1960  -15.4890   20.7290 H   0  0  0  0  0  0  0  0  0  0  0  0
  -26.1250  -14.2810   20.1740 C   0  0  0  0  0  0  0  0  0  0  0  0
  -25.0170  -13.6080   20.6140 C   0  0  0  0  0  0  0  0  0  0  0  0
  -25.3160  -12.2180   20.4690 C   0  0  0  0  0  0  0  0  0  0  0  0
  -27.0360  -13.3080   19.7950 N   0  0  0  0  0  0  0  0  0  0  0  0
  -26.5570  -12.0580   20.0270 N   0  0  0  0  0  0  0  0  0  0  0  0
  -24.4730  -11.0320   20.6710 C   0  0  0  0  0  0  0  0  0  0  0  0
  -24.8540   -9.9970   21.5520 C   0  0  0  0  0  3  0  0  0  0  0  0
  -24.0180   -8.8760   21.7430 C   0  0  0  0  0  3  0  0  0  0  0  0
  -22.7850   -8.7840   21.0530 C   0  0  0  0  0  0  0  0  0  0  0  0
  -22.4220   -9.8070   20.1610 C   0  0  0  0  0  3  0  0  0  0  0  0
  -23.2570  -10.9190   19.9670 C   0  0  0  0  0  3  0  0  0  0  0  0
  -21.9210   -7.7210   21.1580 O   0  0  0  0  0  0  0  0  0  0  0  0
  -21.8030   -7.0000   22.3190 C   0  0  0  0  0  0  0  0  0  0  0  0
  -21.4450   -7.6080   23.5410 C   0  0  0  0  0  3  0  0  0  0  0  0
  -21.2670   -6.8190   24.6940 C   0  0  0  0  0  3  0  0  0  0  0  0
  -21.4380   -5.4230   24.6270 C   0  0  0  0  0  0  0  0  0  0  0  0
  -21.7900   -4.8140   23.4090 C   0  0  0  0  0  3  0  0  0  0  0  0
  -21.9690   -5.6010   22.2580 C   0  0  0  0  0  0  0  0  0  0  0  0
  -22.2870   -5.0080   21.0820 F   0  0  0  0  0  0  0  0  0  0  0  0
  -21.2600   -4.6640   25.7340 F   0  0  0  0  0  0  0  0  0  0  0  0
  -23.7170  -14.2160   21.0540 C   0  0  0  0  0  0  0  0  0  0  0  0
  -23.0170  -13.5660   21.9760 N   0  0  0  0  0  0  0  0  0  0  0  0
  -23.3360  -15.3010   20.6140 O   0  0  0  0  0  0  0  0  0  0  0  0
  -23.3400  -12.6860   22.3530 H   0  0  0  0  0  0  0  0  0  0  0  0
  -22.1470  -13.9530   22.3130 H   0  0  0  0  0  0  0  0  0  0  0  0
  -26.4260  -15.6340   20.0480 N   0  0  0  0  0  0  0  0  0  0  0  0
  -25.7600  -16.3610   20.2810 H   0  0  0  0  0  0  0  0  0  0  0  0
  -27.2990  -15.9960   19.6840 H   0  0  0  0  0  0  0  0  0  0  0  0
  -28.4210  -24.3250   20.2020 C   0  0  0  0  0  0  0  0  0  0  0  0
  -27.5970  -24.3480   21.2680 C   0  0  0  0  0  2  0  0  0  0  0  0
  -30.6900  -24.2220   18.2200 C   0  0  0  0  0  2  0  0  0  0  0  0
  -30.3450  -25.4810   19.0390 C   0  0  0  0  0  2  0  0  0  0  0  0
  -29.6560  -23.0840   18.3790 C   0  0  0  0  0  2  0  0  0  0  0  0
  -28.8500  -25.5600   19.3790 C   0  0  0  0  0  3  0  0  0  0  0  0
  -29.0670  -23.0220   19.7410 N   0  0  1  0  0  4  0  0  0  0  0  0
  -28.3160  -22.3580   19.6330 H   0  0  0  0  0  0  0  0  0  0  0  0
  -28.6420  -26.8140   20.0640 O   0  0  0  0  0  0  0  0  0  0  0  0
  -24.5300  -31.7300   23.1680 C   0  0  0  0  0  0  0  0  0  0  0  0
  -27.4170  -27.4650   20.0290 C   0  0  0  0  0  0  0  0  0  0  0  0
  -23.4170  -30.3310   21.4600 C   0  0  0  0  0  3  0  0  0  0  0  0
  -24.9600  -28.8860   20.0340 C   0  0  0  0  0  0  0  0  0  0  0  0
  -25.9320  -30.7840   21.3350 C   0  0  0  0  0  2  0  0  0  0  0  0
  -26.0850  -29.4340   20.6590 C   0  0  0  0  0  0  0  0  0  0  0  0
  -27.3110  -28.7320   20.6540 C   0  0  0  0  0  3  0  0  0  0  0  0
  -26.2610  -26.9250   19.4130 C   0  0  0  0  0  3  0  0  0  0  0  0
  -25.0430  -27.6300   19.4110 C   0  0  0  0  0  3  0  0  0  0  0  0
  -23.6840  -29.6970   20.0700 C   0  0  0  0  0  2  0  0  0  0  0  0
  -24.6440  -30.9610   22.0470 N   0  0  0  0  0  0  0  0  0  0  0  0
  -23.4270  -31.9480   23.6880 O   0  0  0  0  0  0  0  0  0  0  0  0
  -22.7810  -29.2610   22.3770 C   0  0  0  0  0  0  0  0  0  0  0  0
  -21.4680  -29.0310   22.2070 N   0  0  0  0  0  0  0  0  0  0  0  0
  -23.4660  -28.6410   23.1960 O   0  0  0  0  0  0  0  0  0  0  0  0
  -20.9750  -29.5860   21.5230 H   0  0  0  0  0  0  0  0  0  0  0  0
  -18.1300  -27.7010   22.5820 C   0  0  0  0  0  0  0  0  0  0  0  0
  -20.6690  -28.0410   22.9300 C   0  0  0  0  0  3  0  0  0  0  0  0
  -20.8380  -26.6330   22.3150 C   0  0  0  0  0  2  0  0  0  0  0  0
  -19.7750  -26.3000   21.2650 C   0  0  0  0  0  2  0  0  0  0  0  0
  -18.3730  -26.3770   21.8750 C   0  0  0  0  0  2  0  0  0  0  0  0
  -19.2090  -28.4900   23.0630 C   0  0  0  0  0  0  0  0  0  0  0  0
  -18.9310  -29.7280   23.6810 C   0  0  0  0  0  3  0  0  0  0  0  0
  -17.6050  -30.1780   23.8260 C   0  0  0  0  0  3  0  0  0  0  0  0
  -16.5400  -29.3860   23.3640 C   0  0  0  0  0  3  0  0  0  0  0  0
  -16.8030  -28.1500   22.7470 C   0  0  0  0  0  3  0  0  0  0  0  0
  -25.7770  -32.3900   23.8370 C   0  0  0  0  0  3  0  0  0  0  0  0
  -26.2770  -31.6190   25.1200 C   0  0  1  0  0  0  0  0  0  0  0  0
  -25.1570  -31.3270   26.1460 C   0  0  0  0  0  1  0  0  0  0  0  0
  -26.9230  -30.2690   24.7280 C   0  0  0  0  0  1  0  0  0  0  0  0
  -27.3730  -32.4440   25.8330 C   0  0  0  0  0  1  0  0  0  0  0  0
  -25.4190  -33.7750   24.1710 N   0  0  0  0  0  0  0  0  0  0  0  0
  -25.7420  -34.8440   23.4310 C   0  0  0  0  0  0  0  0  0  0  0  0
  -26.4460  -34.7720   22.4190 O   0  0  0  0  0  0  0  0  0  0  0  0
  -24.8000  -33.9060   24.9580 H   0  0  0  0  0  0  0  0  0  0  0  0
  -23.9740  -36.5870   23.0390 C   0  0  0  0  0  1  0  0  0  0  0  0
  -25.2000  -36.2120   23.8860 C   0  0  0  0  0  3  0  0  0  0  0  0
  -27.2800  -37.1490   24.7930 C   0  0  0  0  0  1  0  0  0  0  0  0
  -26.2050  -37.2950   23.8160 N   0  0  0  0  0  0  0  0  0  0  0  0
  -25.7660  -38.2010   23.9630 H   0  0  0  0  0  0  0  0  0  0  0  0
  2  6  2  0
  2  3  1  0
  3  7  2  0
  3 11  1  0
  4  8  1  0
  5  4  2  0
  5  1  1  0
  6  5  1  0
  7  4  1  0
  7 10  1  0
  9  6  1  0
 12 20  1  0
 13 18  1  0
 14 15  1  0
 14 13  1  0
 16 15  1  0
 16 25  1  0
 16 17  1  0
 18 12  1  0
 18 17  1  0
 19 12  2  0
 20 11  1  0
 20 21  1  0
 22 23  2  0
 23 42  1  0
 24 23  1  0
 24 27  1  0
 25 26  1  0
 25 22  1  0
 26 24  2  0
 27 28  1  0
 28 29  2  0
 30 33  1  0
 30 29  1  0
 31 30  2  0
 32 31  1  0
 32 27  2  0
 33 34  1  0
 34 35  1  0
 35 36  2  0
 37 36  1  0
 37 41  1  0
 38 37  2  0
 39 34  2  0
 39 38  1  0
 40 39  1  0
 42 43  1  0
 43 46  1  0
 43 45  1  0
 44 42  2  0
 47 22  1  0
 47 48  1  0
 49 47  1  0
 50 51  2  0
 52 54  1  0
 52 53  1  0
 53 55  1  0
 54 56  1  0
 55 58  1  0
 55 50  1  0
 56 50  1  0
 56  1  1  0
 56 57  1  6
 59 70  2  0
 60 58  1  0
 60 65  1  0
 61 69  1  0
 61 71  1  0
 62 68  1  0
 62 64  1  0
 63 69  1  0
 64 63  1  0
 65 64  2  0
 66 60  2  0
 67 66  1  0
 67 62  2  0
 68 61  1  0
 69 59  1  0
 71 73  2  0
 72 71  1  0
 74 72  1  0
 75 84  2  0
 75 80  1  0
 76 72  1  0
 76 80  1  0
 77 76  1  0
 78 79  1  0
 78 77  1  0
 79 75  1  0
 80 81  2  0
 81 82  1  0
 83 82  2  0
 84 83  1  0
 85 59  1  0
 85 90  1  0
 85 86  1  0
 86 89  1  1
 86 87  1  0
 88 86  1  0
 90 93  1  0
 91 95  1  0
 91 90  1  0
 92 91  2  0
 95 94  1  0
 97 95  1  0
 97 98  1  0
 97 96  1  0
M  ISO  4  12 100  20 100  55 101  58 101
M  END
>  <TORSDO>  (93) 
F 19

>  <SCORE>  (93) 
-12.901

>  <name>  (93) 
92

>  <ligand_id>  (93) 
92

>  <original_smiles>  (93) 
[H]C([H])=C1C([H])(Oc2c([H])c([H])c3c(c2[H])C([H])([H])N(C(=O)C([H])(N([H])C(=O)C([H])(N([H])C([H])([H])[H])C([H])([H])[H])C(C([H])([H])[H])(C([H])([H])[H])C([H])([H])[H])C([H])(C(=O)N([H])C2([H])c4c([H])c([H])c([H])c([H])c4C([H])([H])C([H])([H])C2([H])[H])C3([H])[H])C([H])([H])C([H])([H])C([H])([H])[N+]1([H])C([H])([H])c1c(Cl)c([H])c(C([H])([H])N([H])C(=O)N2C([H])([H])C([H])([H])C([H])([H])C([H])(n3nc(-c4c([H])c([H])c(Oc5c([H])c([H])c(F)c([H])c5F)c([H])c4[H])c(C(=O)N([H])[H])c3N([H])[H])C2([H])[H])c(Cl)c1C([H])([H])[H]

>  <smiles>  (93) 
[H]C([H])=C1C([H])(Oc2c([H])c([H])c3c(c2[H])C([H])([H])N(C(=O)C([H])(N([H])C(=O)C([H])(N([H])C([H])([H])[H])C([H])([H])[H])C(C([H])([H])[H])(C([H])([H])[H])C([H])([H])[H])C([H])(C(=O)N([H])C2([H])c4c([H])c([H])c([H])c([H])c4C([H])([H])C([H])([H])C2([H])[H])C3([H])[H])C([H])([H])C([H])([H])C([H])([H])[N+]1([H])C([H])([H])c1c(Cl)c([H])c(C([H])([H])N([H])C(=O)N2C([H])([H])C([H])([H])C([H])([H])C([H])(n3nc(-c4c([H])c([H])c(Oc5c([H])c([H])c(F)c([H])c5F)c([H])c4[H])c(C(=O)N([H])[H])c3N([H])[H])C2([H])[H])c(Cl)c1C([H])([H])[H]

$$$$
93:0:0
     RDKit          3D

 99108  0  0  1  0  0  0  0  0999 V2000
  -28.3630  -24.6860   20.9870 C   0  0  0  0  0  0  0  0  0  0  0  0
  -27.1150  -24.4560   21.4590 C   0  0  0  0  0  3  0  0  0  0  0  0
  -31.0680  -25.0760   19.9500 C   0  0  0  0  0  2  0  0  0  0  0  0
  -30.5250  -26.1920   20.8240 C   0  0  0  0  0  2  0  0  0  0  0  0
  -30.7670  -23.7710   20.6730 C   0  0  0  0  0  2  0  0  0  0  0  0
  -28.9890  -26.1320   21.0210 C   0  0  2  0  0  0  0  0  0  0  0  0
  -28.7230  -26.7870   22.4020 C   0  0  0  0  0  1  0  0  0  0  0  0
  -29.3100  -23.4960   20.7030 N   0  0  2  0  0  4  0  0  0  0  0  0
  -29.2280  -22.9010   21.5120 H   0  0  0  0  0  0  0  0  0  0  0  0
  -25.4970  -23.2530   22.9790 C   0  0  0  0  0  1  0  0  0  0  0  0
  -26.4220  -23.1340   21.7620 C   0  0  0  0  0  2  0  0  0  0  0  0
  -28.5340  -26.9880   19.9410 O   0  0  0  0  0  0  0  0  0  0  0  0
  -24.2970  -31.8810   23.0780 C   0  0  0  0  0  0  0  0  0  0  0  0
  -27.3510  -27.7050   19.9970 C   0  0  0  0  0  0  0  0  0  0  0  0
  -23.2920  -30.5630   21.2430 C   0  0  0  0  0  3  0  0  0  0  0  0
  -24.9190  -29.1580   19.8680 C   0  0  0  0  0  0  0  0  0  0  0  0
  -25.8130  -30.9990   21.3030 C   0  0  0  0  0  2  0  0  0  0  0  0
  -26.0010  -29.6730   20.5920 C   0  0  0  0  0  0  0  0  0  0  0  0
  -27.2240  -28.9620   20.6440 C   0  0  0  0  0  3  0  0  0  0  0  0
  -26.2560  -27.2160   19.2580 C   0  0  0  0  0  3  0  0  0  0  0  0
  -25.0440  -27.9300   19.1940 C   0  0  0  0  0  3  0  0  0  0  0  0
  -23.6490  -29.9820   19.8490 C   0  0  0  0  0  2  0  0  0  0  0  0
  -24.4800  -31.1600   21.9360 N   0  0  0  0  0  0  0  0  0  0  0  0
  -23.1620  -32.0850   23.5340 O   0  0  0  0  0  0  0  0  0  0  0  0
  -22.5910  -29.4620   22.0710 C   0  0  0  0  0  0  0  0  0  0  0  0
  -21.2630  -29.3420   21.9050 N   0  0  0  0  0  0  0  0  0  0  0  0
  -23.2380  -28.7230   22.8160 O   0  0  0  0  0  0  0  0  0  0  0  0
  -20.8040  -29.9930   21.2830 H   0  0  0  0  0  0  0  0  0  0  0  0
  -17.8200  -28.4110   22.4780 C   0  0  0  0  0  0  0  0  0  0  0  0
  -20.4030  -28.3500   22.5490 C   0  0  0  0  0  3  0  0  0  0  0  0
  -20.2940  -27.0680   21.6920 C   0  0  0  0  0  2  0  0  0  0  0  0
  -19.0900  -27.0740   20.7450 C   0  0  0  0  0  2  0  0  0  0  0  0
  -17.7860  -27.2200   21.5340 C   0  0  0  0  0  2  0  0  0  0  0  0
  -19.0480  -28.9510   22.9410 C   0  0  0  0  0  0  0  0  0  0  0  0
  -19.0220  -30.0800   23.7890 C   0  0  0  0  0  3  0  0  0  0  0  0
  -17.8010  -30.6630   24.1740 C   0  0  0  0  0  3  0  0  0  0  0  0
  -16.5870  -30.1140   23.7260 C   0  0  0  0  0  3  0  0  0  0  0  0
  -16.5980  -28.9890   22.8820 C   0  0  0  0  0  3  0  0  0  0  0  0
  -25.4990  -32.5010   23.8550 C   0  0  0  0  0  3  0  0  0  0  0  0
  -25.8760  -31.7010   25.1620 C   0  0  1  0  0  0  0  0  0  0  0  0
  -24.6640  -31.3920   26.0730 C   0  0  0  0  0  1  0  0  0  0  0  0
  -26.5530  -30.3570   24.8050 C   0  0  0  0  0  1  0  0  0  0  0  0
  -26.9020  -32.5070   25.9930 C   0  0  0  0  0  1  0  0  0  0  0  0
  -25.1490  -33.8900   24.1800 N   0  0  0  0  0  0  0  0  0  0  0  0
  -25.6010  -34.9630   23.5170 C   0  0  0  0  0  0  0  0  0  0  0  0
  -26.4240  -34.8880   22.6010 O   0  0  0  0  0  0  0  0  0  0  0  0
  -24.4360  -34.0250   24.8810 H   0  0  0  0  0  0  0  0  0  0  0  0
  -23.9750  -36.7930   22.9360 C   0  0  0  0  0  1  0  0  0  0  0  0
  -25.0520  -36.3410   23.9370 C   0  0  0  0  0  3  0  0  0  0  0  0
  -27.0190  -37.1600   25.1560 C   0  0  0  0  0  1  0  0  0  0  0  0
  -26.0960  -37.3820   24.0460 N   0  0  0  0  0  0  0  0  0  0  0  0
  -25.6780  -38.3020   24.1590 H   0  0  0  0  0  0  0  0  0  0  0  0
  -28.9290  -22.5470   19.6030 C   0  0  0  0  0  2  0  0  0  0  0  0
  -30.3550  -19.2440   21.0990 C   0  0  0  0  0  3  0  0  0  0  0  0
  -29.7130  -20.4980   20.9620 C   0  0  0  0  0  3  0  0  0  0  0  0
  -30.7420  -19.1800   18.7130 C   0  0  0  0  0  3  0  0  0  0  0  0
  -30.8960  -18.5740   19.9780 C   0  0  0  0  0  0  0  0  0  0  0  0
  -29.6000  -21.1410   19.7040 C   0  0  0  0  0  0  0  0  0  0  0  0
  -30.1120  -20.4460   18.5670 C   0  0  0  0  0  0  0  0  0  0  0  0
  -30.0210  -21.0370   17.1700 C   0  0  0  0  0  1  0  0  0  0  0  0
  -31.7530  -17.3050   20.1620 C   0  0  0  0  0  2  0  0  0  0  0  0
  -31.7300  -14.8880   19.4590 C   0  0  0  0  0  0  0  0  0  0  0  0
  -31.3420  -12.5750   18.6720 C   0  0  0  0  0  2  0  0  0  0  0  0
  -30.3190  -12.5810   17.5180 C   0  0  0  0  0  2  0  0  0  0  0  0
  -28.8770  -12.5340   18.0640 C   0  0  0  0  0  2  0  0  0  0  0  0
  -28.6310  -13.5740   19.1880 C   0  0  0  0  0  3  0  0  0  0  0  0
  -29.7540  -13.5280   20.2460 C   0  0  0  0  0  2  0  0  0  0  0  0
  -31.0330  -13.7200   19.5450 N   0  0  0  0  0  0  0  0  0  0  0  0
  -32.8240  -14.9590   18.8940 O   0  0  0  0  0  0  0  0  0  0  0  0
  -31.1150  -15.9920   19.9410 N   0  0  0  0  0  0  0  0  0  0  0  0
  -30.1900  -15.8670   20.3220 H   0  0  0  0  0  0  0  0  0  0  0  0
  -26.3870  -14.3730   20.1520 C   0  0  0  0  0  0  0  0  0  0  0  0
  -25.2890  -13.6930   20.6020 C   0  0  0  0  0  0  0  0  0  0  0  0
  -25.6080  -12.3060   20.4820 C   0  0  0  0  0  0  0  0  0  0  0  0
  -27.3120  -13.4070   19.7910 N   0  0  0  0  0  0  0  0  0  0  0  0
  -26.8530  -12.1550   20.0450 N   0  0  0  0  0  0  0  0  0  0  0  0
  -24.7820  -11.1140   20.7050 C   0  0  0  0  0  0  0  0  0  0  0  0
  -25.1320  -10.1440   21.6700 C   0  0  0  0  0  3  0  0  0  0  0  0
  -24.3130   -9.0120   21.8770 C   0  0  0  0  0  3  0  0  0  0  0  0
  -23.1300   -8.8440   21.1190 C   0  0  0  0  0  0  0  0  0  0  0  0
  -22.7990   -9.7990   20.1420 C   0  0  0  0  0  3  0  0  0  0  0  0
  -23.6180  -10.9230   19.9340 C   0  0  0  0  0  3  0  0  0  0  0  0
  -22.2870   -7.7650   21.2340 O   0  0  0  0  0  0  0  0  0  0  0  0
  -22.0490   -7.1640   22.4430 C   0  0  0  0  0  0  0  0  0  0  0  0
  -21.5070   -7.8730   23.5370 C   0  0  0  0  0  3  0  0  0  0  0  0
  -21.2170   -7.1980   24.7390 C   0  0  0  0  0  3  0  0  0  0  0  0
  -21.4580   -5.8160   24.8480 C   0  0  0  0  0  0  0  0  0  0  0  0
  -21.9920   -5.1070   23.7570 C   0  0  0  0  0  3  0  0  0  0  0  0
  -22.2840   -5.7790   22.5580 C   0  0  0  0  0  0  0  0  0  0  0  0
  -22.7800   -5.0870   21.5040 F   0  0  0  0  0  0  0  0  0  0  0  0
  -21.1710   -5.1650   25.9990 F   0  0  0  0  0  0  0  0  0  0  0  0
  -23.9790  -14.2900   21.0280 C   0  0  0  0  0  0  0  0  0  0  0  0
  -23.2930  -13.6530   21.9710 N   0  0  0  0  0  0  0  0  0  0  0  0
  -23.5810  -15.3560   20.5590 O   0  0  0  0  0  0  0  0  0  0  0  0
  -23.6300  -12.7920   22.3740 H   0  0  0  0  0  0  0  0  0  0  0  0
  -22.4150  -14.0350   22.2950 H   0  0  0  0  0  0  0  0  0  0  0  0
  -26.6710  -15.7260   20.0000 N   0  0  0  0  0  0  0  0  0  0  0  0
  -25.9890  -16.4470   20.2080 H   0  0  0  0  0  0  0  0  0  0  0  0
  -27.5270  -16.0950   19.6070 H   0  0  0  0  0  0  0  0  0  0  0  0
  1  6  1  0
  1  2  2  0
  2 11  1  0
  3  5  1  0
  3  4  1  0
  4  6  1  0
  5  8  1  0
  6  7  1  1
  8  1  1  0
  8  9  1  1
 11 10  1  0
 12 14  1  0
 12  6  1  0
 13 24  2  0
 14 19  1  0
 15 23  1  0
 15 25  1  0
 16 18  1  0
 17 23  1  0
 18 19  2  0
 18 17  1  0
 20 14  2  0
 21 20  1  0
 21 16  2  0
 22 16  1  0
 22 15  1  0
 23 13  1  0
 25 27  2  0
 26 25  1  0
 28 26  1  0
 29 38  2  0
 29 34  1  0
 30 26  1  0
 30 34  1  0
 31 30  1  0
 32 33  1  0
 32 31  1  0
 33 29  1  0
 34 35  2  0
 35 36  1  0
 37 36  2  0
 38 37  1  0
 39 13  1  0
 39 44  1  0
 39 40  1  0
 40 43  1  1
 40 41  1  0
 42 40  1  0
 44 47  1  0
 45 49  1  0
 45 44  1  0
 46 45  2  0
 49 48  1  0
 49 51  1  0
 51 52  1  0
 51 50  1  0
 53 58  1  0
 53  8  1  0
 55 54  1  0
 56 57  1  0
 57 61  1  0
 57 54  2  0
 58 55  2  0
 59 56  2  0
 59 58  1  0
 60 59  1  0
 62 68  1  0
 62 70  1  0
 63 68  1  0
 64 65  1  0
 64 63  1  0
 66 65  1  0
 66 75  1  0
 66 67  1  0
 68 67  1  0
 69 62  2  0
 70 61  1  0
 70 71  1  0
 72 73  2  0
 73 92  1  0
 74 73  1  0
 74 77  1  0
 75 76  1  0
 75 72  1  0
 76 74  2  0
 77 78  1  0
 78 79  2  0
 80 83  1  0
 80 79  1  0
 81 80  2  0
 82 81  1  0
 82 77  2  0
 83 84  1  0
 84 89  2  0
 84 85  1  0
 85 86  2  0
 86 87  1  0
 87 91  1  0
 88 87  2  0
 89 88  1  0
 90 89  1  0
 92 93  1  0
 93 96  1  0
 93 95  1  0
 94 92  2  0
 97 72  1  0
 97 98  1  0
 99 97  1  0
M  ISO  4   6 101  12 101  62 100  70 100
M  END
>  <TORSDO>  (94) 
F 20

>  <SCORE>  (94) 
-10.567

>  <name>  (94) 
93

>  <ligand_id>  (94) 
93

>  <original_smiles>  (94) 
[H]C(=C1C(Oc2c([H])c([H])c3c(c2[H])C([H])([H])N(C(=O)C([H])(N([H])C(=O)C([H])(N([H])C([H])([H])[H])C([H])([H])[H])C(C([H])([H])[H])(C([H])([H])[H])C([H])([H])[H])C([H])(C(=O)N([H])C2([H])c4c([H])c([H])c([H])c([H])c4C([H])([H])C([H])([H])C2([H])[H])C3([H])[H])(C([H])([H])[H])C([H])([H])C([H])([H])C([H])([H])[N+]1([H])C([H])([H])c1c([H])c([H])c(C([H])([H])N([H])C(=O)N2C([H])([H])C([H])([H])C([H])([H])C([H])(n3nc(-c4c([H])c([H])c(Oc5c([H])c([H])c(F)c([H])c5F)c([H])c4[H])c(C(=O)N([H])[H])c3N([H])[H])C2([H])[H])c([H])c1C([H])([H])[H])C([H])([H])C([H])([H])[H]

>  <smiles>  (94) 
[H]C(=C1C(Oc2c([H])c([H])c3c(c2[H])C([H])([H])N(C(=O)C([H])(N([H])C(=O)C([H])(N([H])C([H])([H])[H])C([H])([H])[H])C(C([H])([H])[H])(C([H])([H])[H])C([H])([H])[H])C([H])(C(=O)N([H])C2([H])c4c([H])c([H])c([H])c([H])c4C([H])([H])C([H])([H])C2([H])[H])C3([H])[H])(C([H])([H])[H])C([H])([H])C([H])([H])C([H])([H])[N+]1([H])C([H])([H])c1c([H])c([H])c(C([H])([H])N([H])C(=O)N2C([H])([H])C([H])([H])C([H])([H])C([H])(n3nc(-c4c([H])c([H])c(Oc5c([H])c([H])c(F)c([H])c5F)c([H])c4[H])c(C(=O)N([H])[H])c3N([H])[H])C2([H])[H])c([H])c1C([H])([H])[H])C([H])([H])C([H])([H])[H]

$$$$
94:0:0
     RDKit          3D

 98107  0  0  1  0  0  0  0  0999 V2000
  -30.1070  -23.0300   19.1970 C   0  0  0  0  0  0  0  0  0  0  0  0
  -29.6820  -24.3010   19.5320 C   0  0  0  0  0  3  0  0  0  0  0  0
  -31.3480  -22.8400   18.3420 C   0  0  0  0  0  2  0  0  0  0  0  0
  -30.9790  -22.8530   16.8380 C   0  0  0  0  0  2  0  0  0  0  0  0
  -29.8740  -21.8600   16.3790 C   0  0  0  0  0  2  0  0  0  0  0  0
  -28.4670  -22.1180   16.9820 C   0  0  0  0  0  2  0  0  0  0  0  0
  -28.2440  -21.5100   18.3880 C   0  0  0  0  0  2  0  0  0  0  0  0
  -29.4730  -21.6340   19.1980 N   0  0  2  0  0  4  0  0  0  0  0  0
  -30.0530  -21.1900   18.5020 H   0  0  0  0  0  0  0  0  0  0  0  0
  -29.7950  -20.6030   20.2740 C   0  0  0  0  0  2  0  0  0  0  0  0
  -30.1700  -17.9530   20.3080 C   0  0  0  0  0  3  0  0  0  0  0  0
  -28.2730  -16.4450   20.1690 C   0  0  0  0  0  3  0  0  0  0  0  0
  -29.2960  -19.1070   20.1530 C   0  0  0  0  0  0  0  0  0  0  0  0
  -27.8940  -18.8620   20.0470 C   0  0  0  0  0  0  0  0  0  0  0  0
  -29.6590  -16.6010   20.3430 C   0  0  0  0  0  0  0  0  0  0  0  0
  -27.4050  -17.5370   20.0200 C   0  0  0  0  0  0  0  0  0  0  0  0
  -26.8550  -19.9850   20.0140 C   0  0  0  0  0  1  0  0  0  0  0  0
  -25.7110  -17.2160   19.8720 Cl  0  0  0  0  0  0  0  0  0  0  0  0
  -30.9150  -14.3300   20.0520 C   0  0  0  0  0  0  0  0  0  0  0  0
  -30.7290  -11.9360   19.3570 C   0  0  0  0  0  2  0  0  0  0  0  0
  -29.7860  -11.8370   18.1370 C   0  0  0  0  0  2  0  0  0  0  0  0
  -28.3110  -11.7490   18.5780 C   0  0  0  0  0  2  0  0  0  0  0  0
  -27.9480  -12.8200   19.6410 C   0  0  0  0  0  3  0  0  0  0  0  0
  -28.9960  -12.8420   20.7770 C   0  0  0  0  0  2  0  0  0  0  0  0
  -30.3180  -13.0980   20.1750 N   0  0  0  0  0  0  0  0  0  0  0  0
  -31.9740  -14.4800   19.4360 O   0  0  0  0  0  0  0  0  0  0  0  0
  -30.3120  -15.3480   20.7310 N   0  0  0  0  0  0  0  0  0  0  0  0
  -29.7820  -14.9070   21.4660 H   0  0  0  0  0  0  0  0  0  0  0  0
  -25.6130  -13.5860   20.4010 C   0  0  0  0  0  0  0  0  0  0  0  0
  -24.5060  -12.8920   20.8070 C   0  0  0  0  0  0  0  0  0  0  0  0
  -24.8710  -11.5120   20.7700 C   0  0  0  0  0  0  0  0  0  0  0  0
  -26.5910  -12.6350   20.1510 N   0  0  0  0  0  0  0  0  0  0  0  0
  -26.1470  -11.3820   20.4260 N   0  0  0  0  0  0  0  0  0  0  0  0
  -24.0630  -10.3040   20.9840 C   0  0  0  0  0  0  0  0  0  0  0  0
  -24.4620   -9.3010   21.8940 C   0  0  0  0  0  3  0  0  0  0  0  0
  -23.6600   -8.1580   22.0970 C   0  0  0  0  0  3  0  0  0  0  0  0
  -22.4440   -8.0090   21.3880 C   0  0  0  0  0  0  0  0  0  0  0  0
  -22.0610   -9.0010   20.4670 C   0  0  0  0  0  3  0  0  0  0  0  0
  -22.8630  -10.1360   20.2630 C   0  0  0  0  0  3  0  0  0  0  0  0
  -21.6130   -6.9210   21.5010 O   0  0  0  0  0  0  0  0  0  0  0  0
  -21.5640   -6.1690   22.6470 C   0  0  0  0  0  0  0  0  0  0  0  0
  -21.2380   -6.7380   23.8970 C   0  0  0  0  0  3  0  0  0  0  0  0
  -21.1310   -5.9160   25.0380 C   0  0  0  0  0  3  0  0  0  0  0  0
  -21.3390   -4.5280   24.9290 C   0  0  0  0  0  0  0  0  0  0  0  0
  -21.6590   -3.9590   23.6830 C   0  0  0  0  0  3  0  0  0  0  0  0
  -21.7690   -4.7780   22.5460 C   0  0  0  0  0  0  0  0  0  0  0  0
  -22.0560   -4.2230   21.3440 F   0  0  0  0  0  0  0  0  0  0  0  0
  -21.2290   -3.7380   26.0220 F   0  0  0  0  0  0  0  0  0  0  0  0
  -23.1530  -13.4690   21.1160 C   0  0  0  0  0  0  0  0  0  0  0  0
  -22.4060  -12.8350   22.0130 N   0  0  0  0  0  0  0  0  0  0  0  0
  -22.7700  -14.5150   20.5950 O   0  0  0  0  0  0  0  0  0  0  0  0
  -22.7290  -11.9880   22.4560 H   0  0  0  0  0  0  0  0  0  0  0  0
  -21.4990  -13.2030   22.2610 H   0  0  0  0  0  0  0  0  0  0  0  0
  -25.8650  -14.9390   20.2020 N   0  0  0  0  0  0  0  0  0  0  0  0
  -25.1590  -15.6480   20.3690 H   0  0  0  0  0  0  0  0  0  0  0  0
  -26.7290  -15.3160   19.8390 H   0  0  0  0  0  0  0  0  0  0  0  0
  -28.3870  -24.9530   20.0860 C   0  0  0  0  0  2  0  0  0  0  0  0
  -28.4540  -26.4350   20.1120 O   0  0  0  0  0  0  0  0  0  0  0  0
  -24.6030  -31.7390   23.1330 C   0  0  0  0  0  0  0  0  0  0  0  0
  -27.2920  -27.2190   20.0960 C   0  0  0  0  0  0  0  0  0  0  0  0
  -23.4270  -30.3380   21.4730 C   0  0  0  0  0  3  0  0  0  0  0  0
  -24.9050  -28.7980   20.0650 C   0  0  0  0  0  0  0  0  0  0  0  0
  -25.9630  -30.6780   21.3200 C   0  0  0  0  0  2  0  0  0  0  0  0
  -26.0610  -29.3010   20.6730 C   0  0  0  0  0  0  0  0  0  0  0  0
  -27.2550  -28.5240   20.6770 C   0  0  0  0  0  3  0  0  0  0  0  0
  -26.1120  -26.7640   19.4650 C   0  0  0  0  0  3  0  0  0  0  0  0
  -24.9310  -27.5340   19.4530 C   0  0  0  0  0  3  0  0  0  0  0  0
  -23.6620  -29.6630   20.0960 C   0  0  0  0  0  2  0  0  0  0  0  0
  -24.6830  -30.9360   22.0330 N   0  0  0  0  0  0  0  0  0  0  0  0
  -23.5110  -32.0070   23.6570 O   0  0  0  0  0  0  0  0  0  0  0  0
  -22.7600  -29.3150   22.4220 C   0  0  0  0  0  0  0  0  0  0  0  0
  -21.4310  -29.1560   22.3010 N   0  0  0  0  0  0  0  0  0  0  0  0
  -23.4350  -28.6670   23.2260 O   0  0  0  0  0  0  0  0  0  0  0  0
  -20.9450  -29.7300   21.6260 H   0  0  0  0  0  0  0  0  0  0  0  0
  -18.0400  -28.0100   22.8160 C   0  0  0  0  0  0  0  0  0  0  0  0
  -20.6040  -28.2170   23.0610 C   0  0  0  0  0  3  0  0  0  0  0  0
  -20.6730  -26.7970   22.4550 C   0  0  0  0  0  2  0  0  0  0  0  0
  -19.5550  -26.5150   21.4470 C   0  0  0  0  0  2  0  0  0  0  0  0
  -18.1830  -26.6720   22.1100 C   0  0  0  0  0  2  0  0  0  0  0  0
  -19.1770  -28.7430   23.2480 C   0  0  0  0  0  0  0  0  0  0  0  0
  -18.9870  -29.9970   23.8680 C   0  0  0  0  0  3  0  0  0  0  0  0
  -17.6940  -30.5180   24.0590 C   0  0  0  0  0  3  0  0  0  0  0  0
  -16.5710  -29.7820   23.6430 C   0  0  0  0  0  3  0  0  0  0  0  0
  -16.7450  -28.5300   23.0270 C   0  0  0  0  0  3  0  0  0  0  0  0
  -25.8750  -32.3750   23.7740 C   0  0  0  0  0  3  0  0  0  0  0  0
  -26.3900  -31.5920   25.0440 C   0  0  1  0  0  0  0  0  0  0  0  0
  -25.2910  -31.3310   26.1010 C   0  0  0  0  0  1  0  0  0  0  0  0
  -26.9880  -30.2250   24.6390 C   0  0  0  0  0  1  0  0  0  0  0  0
  -27.5280  -32.3880   25.7250 C   0  0  0  0  0  1  0  0  0  0  0  0
  -25.5490  -33.7660   24.1210 N   0  0  0  0  0  0  0  0  0  0  0  0
  -25.8770  -34.8320   23.3800 C   0  0  0  0  0  0  0  0  0  0  0  0
  -26.5570  -34.7500   22.3520 O   0  0  0  0  0  0  0  0  0  0  0  0
  -24.9470  -33.9030   24.9190 H   0  0  0  0  0  0  0  0  0  0  0  0
  -24.1270  -36.6080   23.0470 C   0  0  0  0  0  1  0  0  0  0  0  0
  -25.3740  -36.2090   23.8520 C   0  0  0  0  0  3  0  0  0  0  0  0
  -27.5000  -37.1100   24.6880 C   0  0  0  0  0  1  0  0  0  0  0  0
  -26.3930  -37.2770   23.7500 N   0  0  0  0  0  0  0  0  0  0  0  0
  -25.9760  -38.1890   23.9080 H   0  0  0  0  0  0  0  0  0  0  0  0
  1  8  1  0
  1  2  2  0
  2 57  1  0
  3  1  1  0
  4  3  1  0
  5  4  1  0
  5  6  1  0
  6  7  1  0
  7  8  1  0
  8 10  1  0
  8  9  1  6
 11 15  1  0
 12 15  2  0
 13 10  1  0
 13 11  2  0
 14 13  1  0
 15 27  1  0
 16 14  2  0
 16 12  1  0
 17 14  1  0
 18 16  1  0
 19 25  1  0
 19 27  1  0
 20 25  1  0
 21 22  1  0
 21 20  1  0
 23 22  1  0
 23 32  1  0
 23 24  1  0
 25 24  1  0
 26 19  2  0
 27 28  1  0
 29 30  2  0
 30 49  1  0
 31 30  1  0
 31 34  1  0
 32 29  1  0
 32 33  1  0
 33 31  2  0
 34 35  1  0
 35 36  2  0
 37 40  1  0
 37 36  1  0
 38 37  2  0
 39 38  1  0
 39 34  2  0
 40 41  1  0
 41 42  1  0
 42 43  2  0
 44 43  1  0
 44 48  1  0
 45 44  2  0
 46 41  2  0
 46 45  1  0
 47 46  1  0
 49 50  1  0
 50 53  1  0
 50 52  1  0
 51 49  2  0
 54 55  1  0
 54 29  1  0
 56 54  1  0
 57 58  1  0
 59 70  2  0
 60 58  1  0
 60 65  1  0
 61 69  1  0
 61 71  1  0
 62 68  1  0
 62 64  1  0
 63 69  1  0
 64 65  2  0
 64 63  1  0
 66 60  2  0
 67 66  1  0
 67 62  2  0
 68 61  1  0
 69 59  1  0
 71 73  2  0
 72 71  1  0
 74 72  1  0
 75 84  2  0
 75 80  1  0
 76 72  1  0
 76 80  1  0
 77 76  1  0
 78 79  1  0
 78 77  1  0
 79 75  1  0
 80 81  2  0
 81 82  1  0
 83 82  2  0
 84 83  1  0
 85 59  1  0
 85 90  1  0
 85 86  1  0
 86 89  1  1
 86 87  1  0
 88 86  1  0
 90 93  1  0
 91 95  1  0
 91 90  1  0
 92 91  2  0
 95 94  1  0
 97 95  1  0
 97 98  1  0
 97 96  1  0
M  ISO  4  19 100  27 100  57 101  58 101
M  END
>  <TORSDO>  (95) 
F 19

>  <SCORE>  (95) 
-13.446

>  <name>  (95) 
94

>  <ligand_id>  (95) 
94

>  <original_smiles>  (95) 
[H]C(=C1C([H])([H])C([H])([H])C([H])([H])C([H])([H])C([H])([H])[N+]1([H])C([H])([H])c1c([H])c(N([H])C(=O)N2C([H])([H])C([H])([H])C([H])([H])C([H])(n3nc(-c4c([H])c([H])c(Oc5c([H])c([H])c(F)c([H])c5F)c([H])c4[H])c(C(=O)N([H])[H])c3N([H])[H])C2([H])[H])c([H])c(Cl)c1C([H])([H])[H])C([H])([H])Oc1c([H])c([H])c2c(c1[H])C([H])([H])N(C(=O)C([H])(N([H])C(=O)C([H])(N([H])C([H])([H])[H])C([H])([H])[H])C(C([H])([H])[H])(C([H])([H])[H])C([H])([H])[H])C([H])(C(=O)N([H])C1([H])c3c([H])c([H])c([H])c([H])c3C([H])([H])C([H])([H])C1([H])[H])C2([H])[H]

>  <smiles>  (95) 
[H]C(=C1C([H])([H])C([H])([H])C([H])([H])C([H])([H])C([H])([H])[N+]1([H])C([H])([H])c1c([H])c(N([H])C(=O)N2C([H])([H])C([H])([H])C([H])([H])C([H])(n3nc(-c4c([H])c([H])c(Oc5c([H])c([H])c(F)c([H])c5F)c([H])c4[H])c(C(=O)N([H])[H])c3N([H])[H])C2([H])[H])c([H])c(Cl)c1C([H])([H])[H])C([H])([H])Oc1c([H])c([H])c2c(c1[H])C([H])([H])N(C(=O)C([H])(N([H])C(=O)C([H])(N([H])C([H])([H])[H])C([H])([H])[H])C(C([H])([H])[H])(C([H])([H])[H])C([H])([H])[H])C([H])(C(=O)N([H])C1([H])c3c([H])c([H])c([H])c([H])c3C([H])([H])C([H])([H])C1([H])[H])C2([H])[H]

$$$$
